=
 OpenBabel10262423263D

 34 37  0  0  1  0  0  0  0  0999 V2000
  189.5930  176.7220  144.6120 C   0  0  0  0  0  0  0  0  0  0  0  0
  188.4240  177.3400  147.1340 C   0  0  0  0  0  3  0  0  0  0  0  0
  191.6890  176.6200  146.0270 C   0  0  0  0  0  3  0  0  0  0  0  0
  191.8700  176.8070  147.3590 N   0  0  0  0  0  0  0  0  0  0  0  0
  189.7830  177.0950  146.9870 C   0  0  0  0  0  0  0  0  0  0  0  0
  190.3460  176.8070  145.7810 C   0  0  0  0  0  0  0  0  0  0  0  0
  190.7150  177.0880  147.9010 O   0  0  0  0  0  0  0  0  0  0  0  0
  187.6260  177.2970  145.9750 C   0  0  0  0  0  0  0  0  0  0  0  0
  187.4110  177.0350  143.5690 O   0  0  0  0  0  1  0  0  0  0  0  0
  188.2050  177.0070  144.7110 C   0  0  0  0  0  0  0  0  0  0  0  0
  186.1590  177.5510  146.0970 C   0  0  0  0  0  2  0  0  0  0  0  0
  185.8300  178.9970  145.7420 C   0  0  2  0  0  3  0  0  0  0  0  0
  185.6250  179.7330  146.8960 F   0  0  0  0  0  0  0  0  0  0  0  0
  184.5970  179.0740  144.8500 C   0  0  0  0  0  0  0  0  0  0  0  0
  184.5740  177.9970  143.9830 F   0  0  0  0  0  0  0  0  0  0  0  0
  184.6380  180.2430  144.1120 F   0  0  0  0  0  0  0  0  0  0  0  0
  183.4470  179.0680  145.6210 F   0  0  0  0  0  0  0  0  0  0  0  0
  190.2330  176.4130  143.3670 N   0  0  0  0  0  2  0  0  0  0  0  0
  190.7760  177.3790  142.4640 C   0  0  0  0  0  0  0  0  0  0  0  0
  191.7660  178.5330  143.0730 S   0  0  0  0  0  0  0  0  0  0  0  0
  190.4430  177.3160  141.0650 N   0  0  0  0  0  2  0  0  0  0  0  0
  187.8650  177.4700  138.3770 C   0  0  0  0  0  3  0  0  0  0  0  0
  188.0980  178.1390  141.0880 C   0  0  0  0  0  3  0  0  0  0  0  0
  184.4940  178.8610  139.0440 C   0  0  0  0  0  0  0  0  0  0  0  0
  185.5820  178.2820  138.3720 C   0  0  0  0  0  3  0  0  0  0  0  0
  186.7820  178.0420  139.0470 C   0  0  0  0  0  0  0  0  0  0  0  0
  185.8190  178.9560  141.0830 C   0  0  0  0  0  3  0  0  0  0  0  0
  186.9000  178.3800  140.4130 C   0  0  0  0  0  0  0  0  0  0  0  0
  184.6210  179.1950  140.4010 C   0  0  0  0  0  3  0  0  0  0  0  0
  189.1840  177.5520  140.4190 C   0  0  0  0  0  0  0  0  0  0  0  0
  189.0610  177.2320  139.0610 C   0  0  0  0  0  3  0  0  0  0  0  0
  183.2300  179.1140  138.3320 C   0  0  0  0  0  0  0  0  0  0  0  0
  182.4900  180.3070  138.5770 N   0  0  0  0  0  1  0  0  0  0  0  0
  182.7910  178.2780  137.4970 O   0  0  0  0  0  0  0  0  0  0  0  0
  1 10  2  0  0  0  0
  1  6  1  0  0  0  0
  3  4  2  0  0  0  0
  4  7  1  0  0  0  0
  5  2  1  0  0  0  0
  5  7  1  0  0  0  0
  6  3  1  0  0  0  0
  6  5  2  0  0  0  0
  8 11  1  0  0  0  0
  8  2  2  0  0  0  0
  9 10  1  0  0  0  0
 10  8  1  0  0  0  0
 12 11  1  0  0  0  0
 12 13  1  1  0  0  0
 14 17  1  0  0  0  0
 14 12  1  0  0  0  0
 15 14  1  0  0  0  0
 16 14  1  0  0  0  0
 18  1  1  0  0  0  0
 19 20  2  0  0  0  0
 19 18  1  0  0  0  0
 21 19  1  0  0  0  0
 22 26  2  0  0  0  0
 22 31  1  0  0  0  0
 24 29  1  0  0  0  0
 25 24  2  0  0  0  0
 25 26  1  0  0  0  0
 26 28  1  0  0  0  0
 28 27  1  0  0  0  0
 28 23  2  0  0  0  0
 29 27  2  0  0  0  0
 30 21  1  0  0  0  0
 30 23  1  0  0  0  0
 31 30  2  0  0  0  0
 32 33  1  0  0  0  0
 32 24  1  0  0  0  0
 34 32  2  0  0  0  0
M  END
>  <MODEL>
1

>  <REMARK>
 VINA RESULT:      -9.2      0.000      0.000
  Name = 
  8 active torsions:
  status: ('A' for Active; 'I' for Inactive)
    1  A    between atoms: C_1  and  N_9
    2  A    between atoms: C_2  and  C_23
    3  A    between atoms: C_2  and  C_32
    4  A    between atoms: C_3  and  C_23
    5  A    between atoms: C_7  and  C_11
    6  A    between atoms: C_8  and  N_9
    7  A    between atoms: C_8  and  N_18
    8  A    between atoms: N_18  and  C_30
                            x       y       z     vdW  Elec       q    Type
                         _______ _______ _______ _____ _____    ______ ____

>  <TORSDO>
F 8

$$$$
=
 OpenBabel10262423263D

 34 37  0  0  1  0  0  0  0  0999 V2000
  180.9470  178.9600  140.4550 C   0  0  0  0  0  0  0  0  0  0  0  0
  181.9590  180.0740  138.0380 C   0  0  0  0  0  3  0  0  0  0  0  0
  182.4620  177.0500  139.7720 C   0  0  0  0  0  3  0  0  0  0  0  0
  183.2770  176.9060  138.6960 N   0  0  0  0  0  0  0  0  0  0  0  0
  182.3430  178.8190  138.4930 C   0  0  0  0  0  0  0  0  0  0  0  0
  181.8550  178.2810  139.6450 C   0  0  0  0  0  0  0  0  0  0  0  0
  183.1830  177.9780  137.9550 O   0  0  0  0  0  0  0  0  0  0  0  0
  181.0180  180.7860  138.8060 C   0  0  0  0  0  0  0  0  0  0  0  0
  179.5180  180.9190  140.7130 O   0  0  0  0  0  1  0  0  0  0  0  0
  180.4960  180.2290  140.0040 C   0  0  0  0  0  0  0  0  0  0  0  0
  180.5860  182.1400  138.3480 C   0  0  0  0  0  2  0  0  0  0  0  0
  181.7420  182.8780  137.6800 C   0  0  2  0  0  3  0  0  0  0  0  0
  182.7920  183.0170  138.5710 F   0  0  0  0  0  0  0  0  0  0  0  0
  181.2990  184.2480  137.1800 C   0  0  0  0  0  0  0  0  0  0  0  0
  180.0040  184.5050  137.5920 F   0  0  0  0  0  0  0  0  0  0  0  0
  181.3410  184.2660  135.7980 F   0  0  0  0  0  0  0  0  0  0  0  0
  182.1400  185.2320  137.6700 F   0  0  0  0  0  0  0  0  0  0  0  0
  180.4650  178.3500  141.6590 N   0  0  0  0  0  2  0  0  0  0  0  0
  180.7770  178.7930  142.9830 C   0  0  0  0  0  0  0  0  0  0  0  0
  179.7500  178.3890  144.1930 S   0  0  0  0  0  0  0  0  0  0  0  0
  181.9650  179.5730  143.2130 N   0  0  0  0  0  2  0  0  0  0  0  0
  185.4330  178.2400  142.9140 C   0  0  0  0  0  3  0  0  0  0  0  0
  183.6900  179.0910  144.9350 C   0  0  0  0  0  3  0  0  0  0  0  0
  187.5380  177.7090  145.9180 C   0  0  0  0  0  0  0  0  0  0  0  0
  187.1240  177.7480  144.5770 C   0  0  0  0  0  3  0  0  0  0  0  0
  185.8460  178.2060  144.2470 C   0  0  0  0  0  0  0  0  0  0  0  0
  185.3770  178.5940  146.6000 C   0  0  0  0  0  3  0  0  0  0  0  0
  184.9670  178.6330  145.2660 C   0  0  0  0  0  0  0  0  0  0  0  0
  186.6570  178.1340  146.9240 C   0  0  0  0  0  3  0  0  0  0  0  0
  183.2770  179.1390  143.5940 C   0  0  0  0  0  0  0  0  0  0  0  0
  184.1530  178.7010  142.5920 C   0  0  0  0  0  3  0  0  0  0  0  0
  188.8850  177.2260  146.2660 C   0  0  0  0  0  0  0  0  0  0  0  0
  189.3530  177.2950  147.6100 N   0  0  0  0  0  1  0  0  0  0  0  0
  189.6390  176.7460  145.3770 O   0  0  0  0  0  0  0  0  0  0  0  0
  1 18  1  0  0  0  0
  2  5  2  0  0  0  0
  2  8  1  0  0  0  0
  4  3  2  0  0  0  0
  5  6  1  0  0  0  0
  6  3  1  0  0  0  0
  6  1  2  0  0  0  0
  7  5  1  0  0  0  0
  7  4  1  0  0  0  0
  8 10  2  0  0  0  0
 10  1  1  0  0  0  0
 10  9  1  0  0  0  0
 11  8  1  0  0  0  0
 12 11  1  0  0  0  0
 12 13  1  1  0  0  0
 14 15  1  0  0  0  0
 14 17  1  0  0  0  0
 14 12  1  0  0  0  0
 16 14  1  0  0  0  0
 18 19  1  0  0  0  0
 19 21  1  0  0  0  0
 19 20  2  0  0  0  0
 21 30  1  0  0  0  0
 22 26  1  0  0  0  0
 23 28  1  0  0  0  0
 24 32  1  0  0  0  0
 24 29  1  0  0  0  0
 25 24  2  0  0  0  0
 26 25  1  0  0  0  0
 26 28  2  0  0  0  0
 27 29  2  0  0  0  0
 28 27  1  0  0  0  0
 30 23  2  0  0  0  0
 31 22  2  0  0  0  0
 31 30  1  0  0  0  0
 32 33  1  0  0  0  0
 34 32  2  0  0  0  0
M  END
>  <MODEL>
2

>  <REMARK>
 VINA RESULT:      -9.1      4.476      9.461
  Name = 
  8 active torsions:
  status: ('A' for Active; 'I' for Inactive)
    1  A    between atoms: C_1  and  N_9
    2  A    between atoms: C_2  and  C_23
    3  A    between atoms: C_2  and  C_32
    4  A    between atoms: C_3  and  C_23
    5  A    between atoms: C_7  and  C_11
    6  A    between atoms: C_8  and  N_9
    7  A    between atoms: C_8  and  N_18
    8  A    between atoms: N_18  and  C_30
                            x       y       z     vdW  Elec       q    Type
                         _______ _______ _______ _____ _____    ______ ____

>  <TORSDO>
F 8

$$$$
=
 OpenBabel10262423263D

 34 37  0  0  1  0  0  0  0  0999 V2000
  185.8560  178.3500  139.1830 C   0  0  0  0  0  0  0  0  0  0  0  0
  188.2710  177.2500  138.1520 C   0  0  0  0  0  3  0  0  0  0  0  0
  184.9280  177.3570  137.0470 C   0  0  0  0  0  3  0  0  0  0  0  0
  185.5390  176.6600  136.0550 N   0  0  0  0  0  0  0  0  0  0  0  0
  187.0600  177.1390  137.4800 C   0  0  0  0  0  0  0  0  0  0  0  0
  185.9050  177.6710  137.9670 C   0  0  0  0  0  0  0  0  0  0  0  0
  186.8080  176.5470  136.3440 O   0  0  0  0  0  0  0  0  0  0  0  0
  188.2780  177.9560  139.3700 C   0  0  0  0  0  0  0  0  0  0  0  0
  187.1200  179.2720  141.0520 O   0  0  0  0  0  1  0  0  0  0  0  0
  187.0800  178.5220  139.8810 C   0  0  0  0  0  0  0  0  0  0  0  0
  189.5620  178.0910  140.1210 C   0  0  0  0  0  2  0  0  0  0  0  0
  189.8170  176.8560  140.9790 C   0  0  2  0  0  3  0  0  0  0  0  0
  188.6220  176.3790  141.4900 F   0  0  0  0  0  0  0  0  0  0  0  0
  190.7790  177.1720  142.1180 C   0  0  0  0  0  0  0  0  0  0  0  0
  190.4370  178.3770  142.7040 F   0  0  0  0  0  0  0  0  0  0  0  0
  192.0650  177.2660  141.6180 F   0  0  0  0  0  0  0  0  0  0  0  0
  190.7380  176.1700  143.0710 F   0  0  0  0  0  0  0  0  0  0  0  0
  184.6130  178.8890  139.6530 N   0  0  0  0  0  2  0  0  0  0  0  0
  183.6770  178.1890  140.4770 C   0  0  0  0  0  0  0  0  0  0  0  0
  182.9450  176.8620  139.8570 S   0  0  0  0  0  0  0  0  0  0  0  0
  183.4050  178.6640  141.8090 N   0  0  0  0  0  2  0  0  0  0  0  0
  184.3930  178.9100  145.3950 C   0  0  0  0  0  3  0  0  0  0  0  0
  185.4860  177.9860  142.9860 C   0  0  0  0  0  3  0  0  0  0  0  0
  187.7110  177.7250  146.5450 C   0  0  0  0  0  0  0  0  0  0  0  0
  186.4180  178.2720  146.5600 C   0  0  0  0  0  3  0  0  0  0  0  0
  185.6760  178.3610  145.3800 C   0  0  0  0  0  0  0  0  0  0  0  0
  187.5140  177.3540  144.1490 C   0  0  0  0  0  3  0  0  0  0  0  0
  186.2280  177.8980  144.1660 C   0  0  0  0  0  0  0  0  0  0  0  0
  188.2510  177.2680  145.3340 C   0  0  0  0  0  3  0  0  0  0  0  0
  184.1900  178.5250  143.0010 C   0  0  0  0  0  0  0  0  0  0  0  0
  183.6560  178.9940  144.2090 C   0  0  0  0  0  3  0  0  0  0  0  0
  188.4930  177.6310  147.7900 C   0  0  0  0  0  0  0  0  0  0  0  0
  189.8680  177.2610  147.7520 N   0  0  0  0  0  1  0  0  0  0  0  0
  187.9520  177.8780  148.9010 O   0  0  0  0  0  0  0  0  0  0  0  0
  1 18  1  0  0  0  0
  1 10  1  0  0  0  0
  2  8  1  0  0  0  0
  3  6  1  0  0  0  0
  4  7  1  0  0  0  0
  4  3  2  0  0  0  0
  5  6  1  0  0  0  0
  5  2  2  0  0  0  0
  6  1  2  0  0  0  0
  7  5  1  0  0  0  0
  8 10  2  0  0  0  0
  8 11  1  0  0  0  0
 10  9  1  0  0  0  0
 11 12  1  0  0  0  0
 12 13  1  1  0  0  0
 12 14  1  0  0  0  0
 14 15  1  0  0  0  0
 14 17  1  0  0  0  0
 16 14  1  0  0  0  0
 18 19  1  0  0  0  0
 19 21  1  0  0  0  0
 20 19  2  0  0  0  0
 21 30  1  0  0  0  0
 23 30  2  0  0  0  0
 23 28  1  0  0  0  0
 24 25  1  0  0  0  0
 24 32  1  0  0  0  0
 26 22  1  0  0  0  0
 26 25  2  0  0  0  0
 27 28  2  0  0  0  0
 27 29  1  0  0  0  0
 28 26  1  0  0  0  0
 29 24  2  0  0  0  0
 30 31  1  0  0  0  0
 31 22  2  0  0  0  0
 32 34  2  0  0  0  0
 33 32  1  0  0  0  0
M  END
>  <MODEL>
3

>  <REMARK>
 VINA RESULT:      -9.1      3.451      8.195
  Name = 
  8 active torsions:
  status: ('A' for Active; 'I' for Inactive)
    1  A    between atoms: C_1  and  N_9
    2  A    between atoms: C_2  and  C_23
    3  A    between atoms: C_2  and  C_32
    4  A    between atoms: C_3  and  C_23
    5  A    between atoms: C_7  and  C_11
    6  A    between atoms: C_8  and  N_9
    7  A    between atoms: C_8  and  N_18
    8  A    between atoms: N_18  and  C_30
                            x       y       z     vdW  Elec       q    Type
                         _______ _______ _______ _____ _____    ______ ____

>  <TORSDO>
F 8

$$$$
=
 OpenBabel10262423263D

 34 37  0  0  1  0  0  0  0  0999 V2000
  186.6740  177.7470  143.9750 C   0  0  0  0  0  0  0  0  0  0  0  0
  187.6420  178.2520  146.6050 C   0  0  0  0  0  3  0  0  0  0  0  0
  184.4960  178.4840  145.0360 C   0  0  0  0  0  3  0  0  0  0  0  0
  184.2200  178.8900  146.3020 N   0  0  0  0  0  0  0  0  0  0  0  0
  186.3090  178.4330  146.2580 C   0  0  0  0  0  0  0  0  0  0  0  0
  185.8420  178.1850  145.0030 C   0  0  0  0  0  0  0  0  0  0  0  0
  185.3210  178.8490  147.0030 O   0  0  0  0  0  0  0  0  0  0  0  0
  188.5150  177.7780  145.6080 C   0  0  0  0  0  0  0  0  0  0  0  0
  188.9000  176.9780  143.3460 O   0  0  0  0  0  1  0  0  0  0  0  0
  188.0350  177.5080  144.2980 C   0  0  0  0  0  0  0  0  0  0  0  0
  189.9560  177.5760  145.9450 C   0  0  0  0  0  2  0  0  0  0  0  0
  190.1010  176.8540  147.2800 C   0  0  2  0  0  3  0  0  0  0  0  0
  189.8780  177.7360  148.3220 F   0  0  0  0  0  0  0  0  0  0  0  0
  191.4850  176.2290  147.4150 C   0  0  0  0  0  0  0  0  0  0  0  0
  192.2120  176.8990  148.3830 F   0  0  0  0  0  0  0  0  0  0  0  0
  192.1510  176.3260  146.2080 F   0  0  0  0  0  0  0  0  0  0  0  0
  191.3760  174.8940  147.7650 F   0  0  0  0  0  0  0  0  0  0  0  0
  186.1330  177.5030  142.6700 N   0  0  0  0  0  2  0  0  0  0  0  0
  186.0950  178.4590  141.6080 C   0  0  0  0  0  0  0  0  0  0  0  0
  184.6300  178.9120  141.0300 S   0  0  0  0  0  0  0  0  0  0  0  0
  187.3240  178.9890  141.0800 N   0  0  0  0  0  2  0  0  0  0  0  0
  188.5670  177.4970  137.8980 C   0  0  0  0  0  3  0  0  0  0  0  0
  189.5630  178.1190  140.4410 C   0  0  0  0  0  3  0  0  0  0  0  0
  192.0740  176.3430  137.5740 C   0  0  0  0  0  0  0  0  0  0  0  0
  190.7360  176.6290  137.2600 C   0  0  0  0  0  3  0  0  0  0  0  0
  189.8980  177.2180  138.2100 C   0  0  0  0  0  0  0  0  0  0  0  0
  191.7300  177.2460  139.8070 C   0  0  0  0  0  3  0  0  0  0  0  0
  190.4000  177.5300  139.4920 C   0  0  0  0  0  0  0  0  0  0  0  0
  192.5630  176.6560  138.8510 C   0  0  0  0  0  3  0  0  0  0  0  0
  188.2270  178.4130  140.1260 C   0  0  0  0  0  0  0  0  0  0  0  0
  187.7360  178.0880  138.8550 C   0  0  0  0  0  3  0  0  0  0  0  0
  192.9570  175.7220  136.5710 C   0  0  0  0  0  0  0  0  0  0  0  0
  194.3050  176.1590  136.4260 N   0  0  0  0  0  1  0  0  0  0  0  0
  192.5270  174.7960  135.8320 O   0  0  0  0  0  0  0  0  0  0  0  0
  1 10  2  0  0  0  0
  1  6  1  0  0  0  0
  3  4  2  0  0  0  0
  4  7  1  0  0  0  0
  5  2  1  0  0  0  0
  5  7  1  0  0  0  0
  6  3  1  0  0  0  0
  6  5  2  0  0  0  0
  8 11  1  0  0  0  0
  8  2  2  0  0  0  0
  9 10  1  0  0  0  0
 10  8  1  0  0  0  0
 11 12  1  0  0  0  0
 12 14  1  0  0  0  0
 12 13  1  1  0  0  0
 14 17  1  0  0  0  0
 14 15  1  0  0  0  0
 16 14  1  0  0  0  0
 18  1  1  0  0  0  0
 19 18  1  0  0  0  0
 20 19  2  0  0  0  0
 21 19  1  0  0  0  0
 22 26  2  0  0  0  0
 22 31  1  0  0  0  0
 24 29  1  0  0  0  0
 25 24  2  0  0  0  0
 25 26  1  0  0  0  0
 26 28  1  0  0  0  0
 28 27  1  0  0  0  0
 28 23  2  0  0  0  0
 29 27  2  0  0  0  0
 30 23  1  0  0  0  0
 30 21  1  0  0  0  0
 31 30  2  0  0  0  0
 32 24  1  0  0  0  0
 33 32  1  0  0  0  0
 34 32  2  0  0  0  0
M  END
>  <MODEL>
4

>  <REMARK>
 VINA RESULT:      -9.1      4.051      6.190
  Name = 
  8 active torsions:
  status: ('A' for Active; 'I' for Inactive)
    1  A    between atoms: C_1  and  N_9
    2  A    between atoms: C_2  and  C_23
    3  A    between atoms: C_2  and  C_32
    4  A    between atoms: C_3  and  C_23
    5  A    between atoms: C_7  and  C_11
    6  A    between atoms: C_8  and  N_9
    7  A    between atoms: C_8  and  N_18
    8  A    between atoms: N_18  and  C_30
                            x       y       z     vdW  Elec       q    Type
                         _______ _______ _______ _____ _____    ______ ____

>  <TORSDO>
F 8

$$$$
=
 OpenBabel10262423263D

 34 37  0  0  1  0  0  0  0  0999 V2000
  185.8050  178.8760  142.9690 C   0  0  0  0  0  0  0  0  0  0  0  0
  186.0870  177.8230  145.5990 C   0  0  0  0  0  3  0  0  0  0  0  0
  183.5540  179.5760  143.8910 C   0  0  0  0  0  3  0  0  0  0  0  0
  183.0070  179.4020  145.1220 N   0  0  0  0  0  0  0  0  0  0  0  0
  184.9400  178.4880  145.1850 C   0  0  0  0  0  0  0  0  0  0  0  0
  184.7990  178.9860  143.9260 C   0  0  0  0  0  0  0  0  0  0  0  0
  183.8580  178.7510  145.8680 O   0  0  0  0  0  0  0  0  0  0  0  0
  187.1190  177.6590  144.6560 C   0  0  0  0  0  0  0  0  0  0  0  0
  187.9820  177.9360  142.4010 O   0  0  0  0  0  1  0  0  0  0  0  0
  186.9780  178.1670  143.3370 C   0  0  0  0  0  0  0  0  0  0  0  0
  188.3690  176.9520  145.0670 C   0  0  0  0  0  2  0  0  0  0  0  0
  189.2180  177.8400  145.9710 C   0  0  2  0  0  3  0  0  0  0  0  0
  190.4430  178.0890  145.3760 F   0  0  0  0  0  0  0  0  0  0  0  0
  189.4250  177.1920  147.3350 C   0  0  0  0  0  0  0  0  0  0  0  0
  188.3080  176.4520  147.6790 F   0  0  0  0  0  0  0  0  0  0  0  0
  189.6190  178.1770  148.2850 F   0  0  0  0  0  0  0  0  0  0  0  0
  190.5340  176.3650  147.3100 F   0  0  0  0  0  0  0  0  0  0  0  0
  185.6080  179.4210  141.6570 N   0  0  0  0  0  2  0  0  0  0  0  0
  185.0840  178.6980  140.5400 C   0  0  0  0  0  0  0  0  0  0  0  0
  183.7880  177.7280  140.7900 S   0  0  0  0  0  0  0  0  0  0  0  0
  185.7010  178.8360  139.2470 N   0  0  0  0  0  2  0  0  0  0  0  0
  188.1750  177.2600  136.9480 C   0  0  0  0  0  3  0  0  0  0  0  0
  188.0740  178.1840  139.5900 C   0  0  0  0  0  3  0  0  0  0  0  0
  191.6200  176.4970  138.0840 C   0  0  0  0  0  0  0  0  0  0  0  0
  190.4850  176.6020  137.2650 C   0  0  0  0  0  3  0  0  0  0  0  0
  189.3050  177.1610  137.7620 C   0  0  0  0  0  0  0  0  0  0  0  0
  190.3810  177.5210  139.9110 C   0  0  0  0  0  3  0  0  0  0  0  0
  189.2530  177.6250  139.0940 C   0  0  0  0  0  0  0  0  0  0  0  0
  191.5590  176.9600  139.4070 C   0  0  0  0  0  3  0  0  0  0  0  0
  186.9410  178.2970  138.7690 C   0  0  0  0  0  0  0  0  0  0  0  0
  186.9990  177.8220  137.4530 C   0  0  0  0  0  3  0  0  0  0  0  0
  192.8640  175.9080  137.5600 C   0  0  0  0  0  0  0  0  0  0  0  0
  193.0220  174.4930  137.4990 N   0  0  0  0  0  1  0  0  0  0  0  0
  193.8000  176.6500  137.1600 O   0  0  0  0  0  0  0  0  0  0  0  0
  1 10  2  0  0  0  0
  1  6  1  0  0  0  0
  3  6  1  0  0  0  0
  3  4  2  0  0  0  0
  4  7  1  0  0  0  0
  5  2  1  0  0  0  0
  5  7  1  0  0  0  0
  6  5  2  0  0  0  0
  8 11  1  0  0  0  0
  8  2  2  0  0  0  0
  9 10  1  0  0  0  0
 10  8  1  0  0  0  0
 11 12  1  0  0  0  0
 12 13  1  6  0  0  0
 12 14  1  0  0  0  0
 14 15  1  0  0  0  0
 14 16  1  0  0  0  0
 17 14  1  0  0  0  0
 18  1  1  0  0  0  0
 19 20  2  0  0  0  0
 19 18  1  0  0  0  0
 21 19  1  0  0  0  0
 22 31  2  0  0  0  0
 22 26  1  0  0  0  0
 24 29  1  0  0  0  0
 25 26  1  0  0  0  0
 25 24  2  0  0  0  0
 26 28  2  0  0  0  0
 28 23  1  0  0  0  0
 28 27  1  0  0  0  0
 29 27  2  0  0  0  0
 30 21  1  0  0  0  0
 30 23  2  0  0  0  0
 31 30  1  0  0  0  0
 32 24  1  0  0  0  0
 33 32  1  0  0  0  0
 34 32  2  0  0  0  0
M  END
>  <MODEL>
5

>  <REMARK>
 VINA RESULT:      -9.0      3.768      6.160
  Name = 
  8 active torsions:
  status: ('A' for Active; 'I' for Inactive)
    1  A    between atoms: C_1  and  N_9
    2  A    between atoms: C_2  and  C_23
    3  A    between atoms: C_2  and  C_32
    4  A    between atoms: C_3  and  C_23
    5  A    between atoms: C_7  and  C_11
    6  A    between atoms: C_8  and  N_9
    7  A    between atoms: C_8  and  N_18
    8  A    between atoms: N_18  and  C_30
                            x       y       z     vdW  Elec       q    Type
                         _______ _______ _______ _____ _____    ______ ____

>  <TORSDO>
F 8

$$$$
=
 OpenBabel10262423263D

 34 37  0  0  1  0  0  0  0  0999 V2000
  189.7620  176.8680  144.6380 C   0  0  0  0  0  0  0  0  0  0  0  0
  188.2740  177.2850  147.0290 C   0  0  0  0  0  3  0  0  0  0  0  0
  191.6730  176.7270  146.2930 C   0  0  0  0  0  3  0  0  0  0  0  0
  191.6830  176.8290  147.6460 N   0  0  0  0  0  0  0  0  0  0  0  0
  189.6490  177.0870  147.0370 C   0  0  0  0  0  0  0  0  0  0  0  0
  190.3640  176.8950  145.8940 C   0  0  0  0  0  0  0  0  0  0  0  0
  190.4620  177.0430  148.0580 O   0  0  0  0  0  0  0  0  0  0  0  0
  187.6250  177.2990  145.7800 C   0  0  0  0  0  0  0  0  0  0  0  0
  187.7150  177.1920  143.3540 O   0  0  0  0  0  1  0  0  0  0  0  0
  188.3640  177.1080  144.5820 C   0  0  0  0  0  0  0  0  0  0  0  0
  186.1470  177.5050  145.7350 C   0  0  0  0  0  2  0  0  0  0  0  0
  185.8130  178.9870  145.5960 C   0  0  2  0  0  3  0  0  0  0  0  0
  185.5270  179.5260  146.8380 F   0  0  0  0  0  0  0  0  0  0  0  0
  184.6320  179.1950  144.6550 C   0  0  0  0  0  0  0  0  0  0  0  0
  184.5750  178.1630  143.7360 F   0  0  0  0  0  0  0  0  0  0  0  0
  184.7930  180.3890  143.9770 F   0  0  0  0  0  0  0  0  0  0  0  0
  183.4500  179.2380  145.3720 F   0  0  0  0  0  0  0  0  0  0  0  0
  190.5600  176.6600  143.4650 N   0  0  0  0  0  2  0  0  0  0  0  0
  191.2630  177.6860  142.7600 C   0  0  0  0  0  0  0  0  0  0  0  0
  191.6700  179.0440  143.5790 S   0  0  0  0  0  0  0  0  0  0  0  0
  191.5870  177.5030  141.3690 N   0  0  0  0  0  2  0  0  0  0  0  0
  190.3710  176.0130  138.1760 C   0  0  0  0  0  3  0  0  0  0  0  0
  189.4720  177.8330  140.1070 C   0  0  0  0  0  3  0  0  0  0  0  0
  187.0720  176.9480  136.7690 C   0  0  0  0  0  0  0  0  0  0  0  0
  188.3240  176.3320  136.9220 C   0  0  0  0  0  3  0  0  0  0  0  0
  189.1240  176.6240  138.0280 C   0  0  0  0  0  0  0  0  0  0  0  0
  187.4270  178.1570  138.8510 C   0  0  0  0  0  3  0  0  0  0  0  0
  188.6720  177.5420  139.0010 C   0  0  0  0  0  0  0  0  0  0  0  0
  186.6310  177.8600  137.7400 C   0  0  0  0  0  3  0  0  0  0  0  0
  190.7200  177.2100  140.2650 C   0  0  0  0  0  0  0  0  0  0  0  0
  191.1650  176.3100  139.2880 C   0  0  0  0  0  3  0  0  0  0  0  0
  186.2280  176.6400  135.6020 C   0  0  0  0  0  0  0  0  0  0  0  0
  186.3260  175.3750  134.9540 N   0  0  0  0  0  1  0  0  0  0  0  0
  185.4110  177.4940  135.1640 O   0  0  0  0  0  0  0  0  0  0  0  0
  1  6  1  0  0  0  0
  2  5  1  0  0  0  0
  3  4  2  0  0  0  0
  4  7  1  0  0  0  0
  5  7  1  0  0  0  0
  6  3  1  0  0  0  0
  6  5  2  0  0  0  0
  8  2  2  0  0  0  0
  9 10  1  0  0  0  0
 10  1  2  0  0  0  0
 10  8  1  0  0  0  0
 11  8  1  0  0  0  0
 12 11  1  0  0  0  0
 12 13  1  1  0  0  0
 14 17  1  0  0  0  0
 14 12  1  0  0  0  0
 15 14  1  0  0  0  0
 16 14  1  0  0  0  0
 18  1  1  0  0  0  0
 19 18  1  0  0  0  0
 19 20  2  0  0  0  0
 21 19  1  0  0  0  0
 22 31  1  0  0  0  0
 23 30  1  0  0  0  0
 24 25  2  0  0  0  0
 24 29  1  0  0  0  0
 25 26  1  0  0  0  0
 26 22  2  0  0  0  0
 26 28  1  0  0  0  0
 27 28  1  0  0  0  0
 28 23  2  0  0  0  0
 29 27  2  0  0  0  0
 30 21  1  0  0  0  0
 31 30  2  0  0  0  0
 32 24  1  0  0  0  0
 33 32  1  0  0  0  0
 34 32  2  0  0  0  0
M  END
>  <MODEL>
6

>  <REMARK>
 VINA RESULT:      -8.9      1.866      2.269
  Name = 
  8 active torsions:
  status: ('A' for Active; 'I' for Inactive)
    1  A    between atoms: C_1  and  N_9
    2  A    between atoms: C_2  and  C_23
    3  A    between atoms: C_2  and  C_32
    4  A    between atoms: C_3  and  C_23
    5  A    between atoms: C_7  and  C_11
    6  A    between atoms: C_8  and  N_9
    7  A    between atoms: C_8  and  N_18
    8  A    between atoms: N_18  and  C_30
                            x       y       z     vdW  Elec       q    Type
                         _______ _______ _______ _____ _____    ______ ____

>  <TORSDO>
F 8

$$$$
=
 OpenBabel10262423263D

 34 37  0  0  1  0  0  0  0  0999 V2000
  188.3340  178.0860  139.0830 C   0  0  0  0  0  0  0  0  0  0  0  0
  185.5490  178.0660  138.4910 C   0  0  0  0  0  3  0  0  0  0  0  0
  188.4430  176.9320  136.8330 C   0  0  0  0  0  3  0  0  0  0  0  0
  187.4580  176.5970  135.9600 N   0  0  0  0  0  0  0  0  0  0  0  0
  186.4950  177.5290  137.6260 C   0  0  0  0  0  0  0  0  0  0  0  0
  187.8260  177.5310  137.9110 C   0  0  0  0  0  0  0  0  0  0  0  0
  186.3110  176.9670  136.4620 O   0  0  0  0  0  0  0  0  0  0  0  0
  186.0110  178.6100  139.7040 C   0  0  0  0  0  0  0  0  0  0  0  0
  187.8260  179.0910  141.2460 O   0  0  0  0  0  1  0  0  0  0  0  0
  187.3970  178.6090  140.0130 C   0  0  0  0  0  0  0  0  0  0  0  0
  185.0220  179.2000  140.6550 C   0  0  0  0  0  2  0  0  0  0  0  0
  184.5250  178.1460  141.6390 C   0  0  2  0  0  3  0  0  0  0  0  0
  183.3600  177.5680  141.1660 F   0  0  0  0  0  0  0  0  0  0  0  0
  184.2820  178.7550  143.0150 C   0  0  0  0  0  0  0  0  0  0  0  0
  182.9380  179.0390  143.1740 F   0  0  0  0  0  0  0  0  0  0  0  0
  185.0040  179.9280  143.1300 F   0  0  0  0  0  0  0  0  0  0  0  0
  184.6870  177.8770  144.0060 F   0  0  0  0  0  0  0  0  0  0  0  0
  189.7450  178.0650  139.3340 N   0  0  0  0  0  2  0  0  0  0  0  0
  190.5200  176.8840  139.5580 C   0  0  0  0  0  0  0  0  0  0  0  0
  191.7070  176.5270  138.4890 S   0  0  0  0  0  0  0  0  0  0  0  0
  190.2380  176.0520  140.6980 N   0  0  0  0  0  2  0  0  0  0  0  0
  191.2170  176.8570  144.2040 C   0  0  0  0  0  3  0  0  0  0  0  0
  188.8690  176.6000  142.6980 C   0  0  0  0  0  3  0  0  0  0  0  0
  188.6540  177.5700  146.7850 C   0  0  0  0  0  0  0  0  0  0  0  0
  189.9020  177.3770  146.1700 C   0  0  0  0  0  3  0  0  0  0  0  0
  189.9770  177.0530  144.8130 C   0  0  0  0  0  0  0  0  0  0  0  0
  187.5510  177.1140  144.6640 C   0  0  0  0  0  3  0  0  0  0  0  0
  188.7930  176.9220  144.0550 C   0  0  0  0  0  0  0  0  0  0  0  0
  187.4840  177.4370  146.0240 C   0  0  0  0  0  3  0  0  0  0  0  0
  190.1150  176.4140  142.0800 C   0  0  0  0  0  0  0  0  0  0  0  0
  191.2830  176.5350  142.8440 C   0  0  0  0  0  3  0  0  0  0  0  0
  188.5760  177.9110  148.2160 C   0  0  0  0  0  0  0  0  0  0  0  0
  189.6340  178.6270  148.8460 N   0  0  0  0  0  1  0  0  0  0  0  0
  187.5710  177.5720  148.8960 O   0  0  0  0  0  0  0  0  0  0  0  0
  1 18  1  0  0  0  0
  1 10  1  0  0  0  0
  2  8  1  0  0  0  0
  3  6  1  0  0  0  0
  4  7  1  0  0  0  0
  4  3  2  0  0  0  0
  5  6  1  0  0  0  0
  5  2  2  0  0  0  0
  6  1  2  0  0  0  0
  7  5  1  0  0  0  0
  8 10  2  0  0  0  0
  8 11  1  0  0  0  0
 10  9  1  0  0  0  0
 11 12  1  0  0  0  0
 12 13  1  6  0  0  0
 12 14  1  0  0  0  0
 14 16  1  0  0  0  0
 14 15  1  0  0  0  0
 14 17  1  0  0  0  0
 18 19  1  0  0  0  0
 19 21  1  0  0  0  0
 20 19  2  0  0  0  0
 21 30  1  0  0  0  0
 22 26  1  0  0  0  0
 23 28  1  0  0  0  0
 24 32  1  0  0  0  0
 25 24  1  0  0  0  0
 26 25  2  0  0  0  0
 27 29  1  0  0  0  0
 28 27  2  0  0  0  0
 28 26  1  0  0  0  0
 29 24  2  0  0  0  0
 30 23  2  0  0  0  0
 30 31  1  0  0  0  0
 31 22  2  0  0  0  0
 32 33  1  0  0  0  0
 32 34  2  0  0  0  0
M  END
>  <MODEL>
7

>  <REMARK>
 VINA RESULT:      -8.9      2.306      7.122
  Name = 
  8 active torsions:
  status: ('A' for Active; 'I' for Inactive)
    1  A    between atoms: C_1  and  N_9
    2  A    between atoms: C_2  and  C_23
    3  A    between atoms: C_2  and  C_32
    4  A    between atoms: C_3  and  C_23
    5  A    between atoms: C_7  and  C_11
    6  A    between atoms: C_8  and  N_9
    7  A    between atoms: C_8  and  N_18
    8  A    between atoms: N_18  and  C_30
                            x       y       z     vdW  Elec       q    Type
                         _______ _______ _______ _____ _____    ______ ____

>  <TORSDO>
F 8

$$$$
=
 OpenBabel10262423263D

 34 37  0  0  1  0  0  0  0  0999 V2000
  183.6220  177.8080  138.3290 C   0  0  0  0  0  0  0  0  0  0  0  0
  186.0000  176.6570  137.2670 C   0  0  0  0  0  3  0  0  0  0  0  0
  182.5970  175.7460  137.2770 C   0  0  0  0  0  3  0  0  0  0  0  0
  183.1690  174.7230  136.5920 N   0  0  0  0  0  0  0  0  0  0  0  0
  184.7540  176.0610  137.1140 C   0  0  0  0  0  0  0  0  0  0  0  0
  183.6150  176.6120  137.6140 C   0  0  0  0  0  0  0  0  0  0  0  0
  184.4540  174.9410  136.5130 O   0  0  0  0  0  0  0  0  0  0  0  0
  186.0530  177.8840  137.9560 C   0  0  0  0  0  0  0  0  0  0  0  0
  184.9330  179.7160  139.0920 O   0  0  0  0  0  1  0  0  0  0  0  0
  184.8680  178.4720  138.4740 C   0  0  0  0  0  0  0  0  0  0  0  0
  187.3760  178.5510  138.1430 C   0  0  0  0  0  2  0  0  0  0  0  0
  188.1860  177.8470  139.2260 C   0  0  2  0  0  3  0  0  0  0  0  0
  188.2810  178.6530  140.3470 F   0  0  0  0  0  0  0  0  0  0  0  0
  189.5810  177.4920  138.7220 C   0  0  0  0  0  0  0  0  0  0  0  0
  189.7090  176.1190  138.6180 F   0  0  0  0  0  0  0  0  0  0  0  0
  190.5240  177.9640  139.6150 F   0  0  0  0  0  0  0  0  0  0  0  0
  189.8030  178.0690  137.4840 F   0  0  0  0  0  0  0  0  0  0  0  0
  182.3940  178.3460  138.8380 N   0  0  0  0  0  2  0  0  0  0  0  0
  181.8770  178.1070  140.1500 C   0  0  0  0  0  0  0  0  0  0  0  0
  180.8780  176.8270  140.3640 S   0  0  0  0  0  0  0  0  0  0  0  0
  182.2390  178.9860  141.2310 N   0  0  0  0  0  2  0  0  0  0  0  0
  183.5630  178.8780  144.7130 C   0  0  0  0  0  3  0  0  0  0  0  0
  184.4600  178.3170  142.1200 C   0  0  0  0  0  3  0  0  0  0  0  0
  187.0400  177.7930  145.4000 C   0  0  0  0  0  0  0  0  0  0  0  0
  185.7260  178.2460  145.6000 C   0  0  0  0  0  3  0  0  0  0  0  0
  184.8670  178.4230  144.5130 C   0  0  0  0  0  0  0  0  0  0  0  0
  186.6260  177.6910  143.0040 C   0  0  0  0  0  3  0  0  0  0  0  0
  185.3200  178.1420  143.2060 C   0  0  0  0  0  0  0  0  0  0  0  0
  187.4810  177.5170  144.0970 C   0  0  0  0  0  3  0  0  0  0  0  0
  183.1440  178.7620  142.3200 C   0  0  0  0  0  0  0  0  0  0  0  0
  182.7090  179.0500  143.6190 C   0  0  0  0  0  3  0  0  0  0  0  0
  187.9460  177.6070  146.5460 C   0  0  0  0  0  0  0  0  0  0  0  0
  187.5560  178.0300  147.8500 N   0  0  0  0  0  1  0  0  0  0  0  0
  189.0750  177.0720  146.3850 O   0  0  0  0  0  0  0  0  0  0  0  0
  1 10  1  0  0  0  0
  1 18  1  0  0  0  0
  2  8  1  0  0  0  0
  3  6  1  0  0  0  0
  4  3  2  0  0  0  0
  5  2  2  0  0  0  0
  5  6  1  0  0  0  0
  6  1  2  0  0  0  0
  7  4  1  0  0  0  0
  7  5  1  0  0  0  0
  8 11  1  0  0  0  0
  8 10  2  0  0  0  0
 10  9  1  0  0  0  0
 11 12  1  0  0  0  0
 12 13  1  1  0  0  0
 14 12  1  0  0  0  0
 14 16  1  0  0  0  0
 15 14  1  0  0  0  0
 17 14  1  0  0  0  0
 18 19  1  0  0  0  0
 19 20  2  0  0  0  0
 19 21  1  0  0  0  0
 21 30  1  0  0  0  0
 23 30  2  0  0  0  0
 23 28  1  0  0  0  0
 24 25  1  0  0  0  0
 24 32  1  0  0  0  0
 26 22  1  0  0  0  0
 26 25  2  0  0  0  0
 27 28  2  0  0  0  0
 27 29  1  0  0  0  0
 28 26  1  0  0  0  0
 29 24  2  0  0  0  0
 30 31  1  0  0  0  0
 31 22  2  0  0  0  0
 32 33  1  0  0  0  0
 34 32  2  0  0  0  0
M  END
>  <MODEL>
8

>  <REMARK>
 VINA RESULT:      -8.9      3.869      8.761
  Name = 
  8 active torsions:
  status: ('A' for Active; 'I' for Inactive)
    1  A    between atoms: C_1  and  N_9
    2  A    between atoms: C_2  and  C_23
    3  A    between atoms: C_2  and  C_32
    4  A    between atoms: C_3  and  C_23
    5  A    between atoms: C_7  and  C_11
    6  A    between atoms: C_8  and  N_9
    7  A    between atoms: C_8  and  N_18
    8  A    between atoms: N_18  and  C_30
                            x       y       z     vdW  Elec       q    Type
                         _______ _______ _______ _____ _____    ______ ____

>  <TORSDO>
F 8

$$$$
=
 OpenBabel10262423263D

 34 37  0  0  1  0  0  0  0  0999 V2000
  184.8010  177.7780  138.3330 C   0  0  0  0  0  0  0  0  0  0  0  0
  182.3450  177.1370  139.6230 C   0  0  0  0  0  3  0  0  0  0  0  0
  184.3810  175.5350  137.2360 C   0  0  0  0  0  3  0  0  0  0  0  0
  183.3580  174.6540  137.3830 N   0  0  0  0  0  0  0  0  0  0  0  0
  182.9380  176.2900  138.6950 C   0  0  0  0  0  0  0  0  0  0  0  0
  184.1160  176.5900  138.0830 C   0  0  0  0  0  0  0  0  0  0  0  0
  182.5160  175.1340  138.2580 O   0  0  0  0  0  0  0  0  0  0  0  0
  183.0160  178.3350  139.9330 C   0  0  0  0  0  0  0  0  0  0  0  0
  184.9300  179.8090  139.6750 O   0  0  0  0  0  1  0  0  0  0  0  0
  184.2500  178.6530  139.3060 C   0  0  0  0  0  0  0  0  0  0  0  0
  182.4050  179.2710  140.9240 C   0  0  0  0  0  2  0  0  0  0  0  0
  182.3400  178.6280  142.3050 C   0  0  2  0  0  3  0  0  0  0  0  0
  181.4590  179.3270  143.1120 F   0  0  0  0  0  0  0  0  0  0  0  0
  183.7190  178.5870  142.9540 C   0  0  0  0  0  0  0  0  0  0  0  0
  184.4080  179.7530  142.6700 F   0  0  0  0  0  0  0  0  0  0  0  0
  184.4300  177.5140  142.4510 F   0  0  0  0  0  0  0  0  0  0  0  0
  183.5990  178.4470  144.3250 F   0  0  0  0  0  0  0  0  0  0  0  0
  186.0370  178.0480  137.6590 N   0  0  0  0  0  2  0  0  0  0  0  0
  187.3330  177.7060  138.1570 C   0  0  0  0  0  0  0  0  0  0  0  0
  188.0410  176.3420  137.5910 S   0  0  0  0  0  0  0  0  0  0  0  0
  187.9710  178.5550  139.1290 N   0  0  0  0  0  2  0  0  0  0  0  0
  190.2380  177.5270  141.9030 C   0  0  0  0  0  3  0  0  0  0  0  0
  187.5520  178.2410  141.5580 C   0  0  0  0  0  3  0  0  0  0  0  0
  188.9820  177.2080  145.3760 C   0  0  0  0  0  0  0  0  0  0  0  0
  189.8480  177.1990  144.2710 C   0  0  0  0  0  3  0  0  0  0  0  0
  189.3770  177.5400  143.0010 C   0  0  0  0  0  0  0  0  0  0  0  0
  187.1580  177.9080  143.9240 C   0  0  0  0  0  3  0  0  0  0  0  0
  188.0230  177.8980  142.8270 C   0  0  0  0  0  0  0  0  0  0  0  0
  187.6370  177.5640  145.1930 C   0  0  0  0  0  3  0  0  0  0  0  0
  188.4190  178.2400  140.4550 C   0  0  0  0  0  0  0  0  0  0  0  0
  189.7580  177.8720  140.6360 C   0  0  0  0  0  3  0  0  0  0  0  0
  189.4800  176.8470  146.7140 C   0  0  0  0  0  0  0  0  0  0  0  0
  190.8680  176.6050  146.9270 N   0  0  0  0  0  1  0  0  0  0  0  0
  188.6820  176.7500  147.6850 O   0  0  0  0  0  0  0  0  0  0  0  0
  1 10  1  0  0  0  0
  2  8  1  0  0  0  0
  3  4  2  0  0  0  0
  3  6  1  0  0  0  0
  4  7  1  0  0  0  0
  5  2  2  0  0  0  0
  6  1  2  0  0  0  0
  6  5  1  0  0  0  0
  7  5  1  0  0  0  0
  8 11  1  0  0  0  0
 10  9  1  0  0  0  0
 10  8  2  0  0  0  0
 11 12  1  0  0  0  0
 12 14  1  0  0  0  0
 12 13  1  1  0  0  0
 14 17  1  0  0  0  0
 15 14  1  0  0  0  0
 16 14  1  0  0  0  0
 18 19  1  0  0  0  0
 18  1  1  0  0  0  0
 19 21  1  0  0  0  0
 20 19  2  0  0  0  0
 21 30  1  0  0  0  0
 22 26  1  0  0  0  0
 23 28  1  0  0  0  0
 24 32  1  0  0  0  0
 25 24  2  0  0  0  0
 26 25  1  0  0  0  0
 27 29  2  0  0  0  0
 28 26  2  0  0  0  0
 28 27  1  0  0  0  0
 29 24  1  0  0  0  0
 30 31  1  0  0  0  0
 30 23  2  0  0  0  0
 31 22  2  0  0  0  0
 32 33  1  0  0  0  0
 32 34  2  0  0  0  0
M  END
>  <MODEL>
9

>  <REMARK>
 VINA RESULT:      -8.8      2.561      7.414
  Name = 
  8 active torsions:
  status: ('A' for Active; 'I' for Inactive)
    1  A    between atoms: C_1  and  N_9
    2  A    between atoms: C_2  and  C_23
    3  A    between atoms: C_2  and  C_32
    4  A    between atoms: C_3  and  C_23
    5  A    between atoms: C_7  and  C_11
    6  A    between atoms: C_8  and  N_9
    7  A    between atoms: C_8  and  N_18
    8  A    between atoms: N_18  and  C_30
                            x       y       z     vdW  Elec       q    Type
                         _______ _______ _______ _____ _____    ______ ____

>  <TORSDO>
F 8

$$$$
