=
 OpenBabel10262421403D

 32 36  0  0  1  0  0  0  0  0999 V2000
  182.4560  178.5710  143.6810 C   0  0  2  0  0  3  0  0  0  0  0  0
  187.2830  177.9560  142.1610 C   0  0  0  0  0  0  0  0  0  0  0  0
  188.5860  176.8310  146.7150 O   0  0  0  0  0  0  0  0  0  0  0  0
  188.5600  177.8030  139.9620 C   0  0  0  0  0  0  0  0  0  0  0  0
  189.7460  177.3470  139.2230 C   0  0  0  0  0  0  0  0  0  0  0  0
  184.9290  178.5910  142.2530 C   0  0  0  0  0  0  0  0  0  0  0  0
  186.1390  178.1860  144.3080 C   0  0  0  0  0  3  0  0  0  0  0  0
  192.0370  176.5810  137.8560 C   0  0  0  0  0  3  0  0  0  0  0  0
  183.7420  178.9200  144.4440 C   0  0  0  0  0  2  0  0  0  0  0  0
  188.5710  177.1710  145.5260 C   0  0  0  0  0  0  0  0  0  0  0  0
  187.3020  177.8940  143.5760 C   0  0  0  0  0  0  0  0  0  0  0  0
  188.5560  177.5290  144.2670 C   0  0  0  0  0  0  0  0  0  0  0  0
  189.5530  176.8840  142.1110 C   0  0  2  0  0  3  0  0  0  0  0  0
  190.9520  177.0410  137.1780 N   0  0  0  0  0  0  0  0  0  0  0  0
  182.5270  179.0000  142.2380 C   0  0  0  0  0  3  0  0  0  0  0  0
  184.9560  178.5230  143.6550 C   0  0  0  0  0  0  0  0  0  0  0  0
  189.8190  177.4270  137.8260 C   0  0  0  0  0  3  0  0  0  0  0  0
  183.6820  178.9620  141.5660 C   0  0  0  0  0  3  0  0  0  0  0  0
  189.8290  177.4880  143.4870 C   0  0  1  0  0  3  0  0  0  0  0  0
  190.8000  176.8050  141.3510 N   0  0  0  0  0  2  0  0  0  0  0  0
  186.0820  178.3090  141.5200 C   0  0  0  0  0  3  0  0  0  0  0  0
  187.6360  178.3800  139.3260 O   0  0  0  0  0  0  0  0  0  0  0  0
  192.0060  176.4910  139.2500 C   0  0  0  0  0  3  0  0  0  0  0  0
  188.4800  177.6220  141.4000 N   0  0  0  0  0  0  0  0  0  0  0  0
  190.8470  176.8680  139.9300 C   0  0  0  0  0  0  0  0  0  0  0  0
  191.6170  178.8770  144.0810 C   0  0  0  0  0  1  0  0  0  0  0  0
  190.3630  178.8370  143.3480 N   0  0  0  0  0  2  0  0  0  0  0  0
  181.2450  179.2020  144.3440 C   0  0  0  0  0  2  0  0  0  0  0  0
  180.0210  178.3190  144.1640 C   0  0  0  0  0  2  0  0  0  0  0  0
  179.2930  178.6950  142.9170 C   0  0  0  0  0  0  0  0  0  0  0  0
  178.9310  180.1190  142.6720 C   0  0  0  0  0  1  0  0  0  0  0  0
  178.9710  177.8400  142.1090 O   0  0  0  0  0  0  0  0  0  0  0  0
  1 28  1  1  0  0  0
  1  9  1  0  0  0  0
  2 11  1  0  0  0  0
  4 24  1  0  0  0  0
  5 25  1  0  0  0  0
  5  4  1  0  0  0  0
  6 16  2  0  0  0  0
  8 23  1  0  0  0  0
 10  3  2  0  0  0  0
 11 12  1  0  0  0  0
 11  7  2  0  0  0  0
 12 10  2  0  0  0  0
 13 20  1  6  0  0  0
 13 19  1  0  0  0  0
 14 17  1  0  0  0  0
 14  8  2  0  0  0  0
 15  1  1  0  0  0  0
 16  7  1  0  0  0  0
 16  9  1  0  0  0  0
 17  5  2  0  0  0  0
 18 15  2  0  0  0  0
 18  6  1  0  0  0  0
 19 27  1  6  0  0  0
 19 12  1  0  0  0  0
 21  2  2  0  0  0  0
 21  6  1  0  0  0  0
 22  4  2  0  0  0  0
 23 25  2  0  0  0  0
 24 13  1  0  0  0  0
 24  2  1  0  0  0  0
 25 20  1  0  0  0  0
 27 26  1  0  0  0  0
 29 28  1  0  0  0  0
 30 29  1  0  0  0  0
 31 30  1  0  0  0  0
 32 30  2  0  0  0  0
M  END
>  <MODEL>
1

>  <REMARK>
 VINA RESULT:      -9.4      0.000      0.000
  Name = 
  4 active torsions:
  status: ('A' for Active; 'I' for Inactive)
    1  A    between atoms: C_1  and  C_10
    2  A    between atoms: C_2  and  C_24
    3  A    between atoms: C_10  and  C_24
    4  A    between atoms: N_25  and  C_26
                            x       y       z     vdW  Elec       q    Type
                         _______ _______ _______ _____ _____    ______ ____

>  <TORSDO>
F 4

$$$$
=
 OpenBabel10262421403D

 32 36  0  0  1  0  0  0  0  0999 V2000
  181.2000  179.5600  141.5530 C   0  0  2  0  0  3  0  0  0  0  0  0
  185.6320  178.2930  143.7320 C   0  0  0  0  0  0  0  0  0  0  0  0
  187.8510  178.5690  139.4060 O   0  0  0  0  0  0  0  0  0  0  0  0
  186.5700  178.0440  146.0880 C   0  0  0  0  0  0  0  0  0  0  0  0
  187.7330  178.0320  146.9860 C   0  0  0  0  0  0  0  0  0  0  0  0
  183.2540  178.6380  143.3110 C   0  0  0  0  0  0  0  0  0  0  0  0
  184.7790  178.4220  141.4460 C   0  0  0  0  0  3  0  0  0  0  0  0
  189.9430  177.9000  148.6600 C   0  0  0  0  0  3  0  0  0  0  0  0
  182.3270  178.6910  140.9750 C   0  0  0  0  0  2  0  0  0  0  0  0
  187.5490  178.3270  140.5810 C   0  0  0  0  0  0  0  0  0  0  0  0
  185.8570  178.2690  142.3330 C   0  0  0  0  0  0  0  0  0  0  0  0
  187.2300  178.0700  141.8240 C   0  0  0  0  0  0  0  0  0  0  0  0
  188.1140  178.3810  144.1010 C   0  0  2  0  0  3  0  0  0  0  0  0
  188.6870  177.9430  149.1790 N   0  0  0  0  0  0  0  0  0  0  0  0
  180.9090  179.2140  142.9900 C   0  0  0  0  0  3  0  0  0  0  0  0
  183.4860  178.6150  141.9270 C   0  0  0  0  0  0  0  0  0  0  0  0
  187.5880  178.0040  148.3790 C   0  0  0  0  0  3  0  0  0  0  0  0
  181.8860  178.8280  143.8170 C   0  0  0  0  0  3  0  0  0  0  0  0
  188.3010  177.6450  142.7740 C   0  0  1  0  0  3  0  0  0  0  0  0
  189.1810  178.0000  145.0270 N   0  0  0  0  0  2  0  0  0  0  0  0
  184.3190  178.4790  144.1980 C   0  0  0  0  0  3  0  0  0  0  0  0
  185.4190  177.9140  146.5870 O   0  0  0  0  0  0  0  0  0  0  0  0
  190.1300  177.9210  147.2760 C   0  0  0  0  0  3  0  0  0  0  0  0
  186.7540  178.1670  144.6530 N   0  0  0  0  0  0  0  0  0  0  0  0
  189.0150  177.9980  146.4400 C   0  0  0  0  0  0  0  0  0  0  0  0
  189.5770  175.6830  142.8240 C   0  0  0  0  0  1  0  0  0  0  0  0
  188.2300  176.2040  142.9820 N   0  0  0  0  0  2  0  0  0  0  0  0
  179.9350  179.4250  140.7260 C   0  0  0  0  0  2  0  0  0  0  0  0
  180.2180  179.7510  139.2690 C   0  0  0  0  0  2  0  0  0  0  0  0
  180.3590  181.2260  139.0870 C   0  0  0  0  0  0  0  0  0  0  0  0
  181.5240  181.7710  138.3370 C   0  0  0  0  0  1  0  0  0  0  0  0
  179.5370  181.9880  139.5700 O   0  0  0  0  0  0  0  0  0  0  0  0
  1 28  1  6  0  0  0
  1 15  1  0  0  0  0
  2 21  1  0  0  0  0
  2 24  1  0  0  0  0
  3 10  2  0  0  0  0
  4 22  2  0  0  0  0
  4  5  1  0  0  0  0
  5 17  1  0  0  0  0
  6 18  1  0  0  0  0
  6 21  2  0  0  0  0
  7 16  2  0  0  0  0
  7 11  1  0  0  0  0
  8 14  1  0  0  0  0
  9  1  1  0  0  0  0
  9 16  1  0  0  0  0
 10 12  2  0  0  0  0
 11  2  2  0  0  0  0
 12 11  1  0  0  0  0
 12 19  1  0  0  0  0
 13 24  1  0  0  0  0
 13 20  1  1  0  0  0
 15 18  2  0  0  0  0
 16  6  1  0  0  0  0
 17 14  2  0  0  0  0
 19 27  1  1  0  0  0
 19 13  1  0  0  0  0
 20 25  1  0  0  0  0
 23  8  2  0  0  0  0
 24  4  1  0  0  0  0
 25  5  2  0  0  0  0
 25 23  1  0  0  0  0
 26 27  1  0  0  0  0
 29 28  1  0  0  0  0
 30 29  1  0  0  0  0
 30 32  2  0  0  0  0
 31 30  1  0  0  0  0
M  END
>  <MODEL>
2

>  <REMARK>
 VINA RESULT:      -8.3      2.611      5.644
  Name = 
  4 active torsions:
  status: ('A' for Active; 'I' for Inactive)
    1  A    between atoms: C_1  and  C_10
    2  A    between atoms: C_2  and  C_24
    3  A    between atoms: C_10  and  C_24
    4  A    between atoms: N_25  and  C_26
                            x       y       z     vdW  Elec       q    Type
                         _______ _______ _______ _____ _____    ______ ____

>  <TORSDO>
F 4

$$$$
=
 OpenBabel10262421403D

 32 36  0  0  1  0  0  0  0  0999 V2000
  187.4480  178.5390  136.7430 C   0  0  2  0  0  3  0  0  0  0  0  0
  188.7450  177.7010  141.6020 C   0  0  0  0  0  0  0  0  0  0  0  0
  193.4380  177.4720  140.3210 O   0  0  0  0  0  0  0  0  0  0  0  0
  187.6320  177.7900  143.8910 C   0  0  0  0  0  0  0  0  0  0  0  0
  187.7580  177.9310  145.3490 C   0  0  0  0  0  0  0  0  0  0  0  0
  187.4750  177.9170  139.5300 C   0  0  0  0  0  0  0  0  0  0  0  0
  189.8560  177.5030  139.4330 C   0  0  0  0  0  3  0  0  0  0  0  0
  188.0120  178.0840  148.1080 C   0  0  0  0  0  3  0  0  0  0  0  0
  188.5660  177.6360  137.2840 C   0  0  0  0  0  2  0  0  0  0  0  0
  192.3530  177.3760  140.9080 C   0  0  0  0  0  0  0  0  0  0  0  0
  189.9210  177.4990  140.8360 C   0  0  0  0  0  0  0  0  0  0  0  0
  191.2070  177.2760  141.5310 C   0  0  0  0  0  0  0  0  0  0  0  0
  190.1580  177.9090  143.6670 C   0  0  2  0  0  3  0  0  0  0  0  0
  186.7870  178.1580  147.5240 N   0  0  0  0  0  0  0  0  0  0  0  0
  186.1700  178.3770  137.5250 C   0  0  0  0  0  3  0  0  0  0  0  0
  188.6450  177.7200  138.7800 C   0  0  0  0  0  0  0  0  0  0  0  0
  186.6360  178.0810  146.1740 C   0  0  0  0  0  3  0  0  0  0  0  0
  186.1940  178.1310  138.8380 C   0  0  0  0  0  3  0  0  0  0  0  0
  191.2010  177.0110  143.0010 C   0  0  1  0  0  3  0  0  0  0  0  0
  190.1700  177.6840  145.1120 N   0  0  0  0  0  2  0  0  0  0  0  0
  187.5310  177.9070  140.9240 C   0  0  0  0  0  3  0  0  0  0  0  0
  186.4780  177.6930  143.3900 O   0  0  0  0  0  0  0  0  0  0  0  0
  189.1550  177.9290  147.3200 C   0  0  0  0  0  3  0  0  0  0  0  0
  188.8180  177.7290  143.0570 N   0  0  0  0  0  0  0  0  0  0  0  0
  189.0210  177.8630  145.9320 C   0  0  0  0  0  0  0  0  0  0  0  0
  191.9350  175.0830  144.1050 C   0  0  0  0  0  1  0  0  0  0  0  0
  190.8890  175.6080  143.2460 N   0  0  0  0  0  2  0  0  0  0  0  0
  187.1900  178.2600  135.2740 C   0  0  0  0  0  2  0  0  0  0  0  0
  187.7610  176.9070  134.8830 C   0  0  0  0  0  2  0  0  0  0  0  0
  186.6680  175.8970  134.7740 C   0  0  0  0  0  0  0  0  0  0  0  0
  185.2600  176.3460  134.5940 C   0  0  0  0  0  1  0  0  0  0  0  0
  186.9190  174.7050  134.8560 O   0  0  0  0  0  0  0  0  0  0  0  0
  1 28  1  6  0  0  0
  1  9  1  0  0  0  0
  1 15  1  0  0  0  0
  2 24  1  0  0  0  0
  3 10  2  0  0  0  0
  4  5  1  0  0  0  0
  5 25  2  0  0  0  0
  5 17  1  0  0  0  0
  6 21  2  0  0  0  0
  7 11  1  0  0  0  0
  9 16  1  0  0  0  0
 10 12  2  0  0  0  0
 11 12  1  0  0  0  0
 11  2  2  0  0  0  0
 12 19  1  0  0  0  0
 13 20  1  1  0  0  0
 14  8  1  0  0  0  0
 15 18  2  0  0  0  0
 16  7  2  0  0  0  0
 16  6  1  0  0  0  0
 17 14  2  0  0  0  0
 18  6  1  0  0  0  0
 19 27  1  6  0  0  0
 19 13  1  0  0  0  0
 20 25  1  0  0  0  0
 21  2  1  0  0  0  0
 22  4  2  0  0  0  0
 23  8  2  0  0  0  0
 24 13  1  0  0  0  0
 24  4  1  0  0  0  0
 25 23  1  0  0  0  0
 27 26  1  0  0  0  0
 29 28  1  0  0  0  0
 30 32  2  0  0  0  0
 30 29  1  0  0  0  0
 31 30  1  0  0  0  0
M  END
>  <MODEL>
3

>  <REMARK>
 VINA RESULT:      -8.3      3.890      7.150
  Name = 
  4 active torsions:
  status: ('A' for Active; 'I' for Inactive)
    1  A    between atoms: C_1  and  C_10
    2  A    between atoms: C_2  and  C_24
    3  A    between atoms: C_10  and  C_24
    4  A    between atoms: N_25  and  C_26
                            x       y       z     vdW  Elec       q    Type
                         _______ _______ _______ _____ _____    ______ ____

>  <TORSDO>
F 4

$$$$
=
 OpenBabel10262421403D

 32 36  0  0  1  0  0  0  0  0999 V2000
  189.7720  177.0610  144.8660 C   0  0  2  0  0  3  0  0  0  0  0  0
  185.4390  178.2360  142.4480 C   0  0  0  0  0  0  0  0  0  0  0  0
  187.6390  177.5620  138.1570 O   0  0  0  0  0  0  0  0  0  0  0  0
  182.9870  178.5890  143.0420 C   0  0  0  0  0  0  0  0  0  0  0  0
  181.5790  178.5990  142.6230 C   0  0  0  0  0  0  0  0  0  0  0  0
  187.1660  177.9870  144.1550 C   0  0  0  0  0  0  0  0  0  0  0  0
  187.7890  178.0020  141.8170 C   0  0  0  0  0  3  0  0  0  0  0  0
  178.9310  178.7260  141.8010 C   0  0  0  0  0  3  0  0  0  0  0  0
  189.6000  177.8310  143.5480 C   0  0  0  0  0  2  0  0  0  0  0  0
  186.8690  177.8970  139.0660 C   0  0  0  0  0  0  0  0  0  0  0  0
  186.4420  178.1570  141.4500 C   0  0  0  0  0  0  0  0  0  0  0  0
  186.0540  178.2500  140.0270 C   0  0  0  0  0  0  0  0  0  0  0  0
  183.6850  178.0430  140.6620 C   0  0  2  0  0  3  0  0  0  0  0  0
  179.2450  178.7820  143.1220 N   0  0  0  0  0  0  0  0  0  0  0  0
  188.7860  177.5150  145.9110 C   0  0  0  0  0  3  0  0  0  0  0  0
  188.1520  177.9080  143.1590 C   0  0  0  0  0  0  0  0  0  0  0  0
  180.5360  178.7260  143.5500 C   0  0  0  0  0  3  0  0  0  0  0  0
  187.5530  177.9030  145.5710 C   0  0  0  0  0  3  0  0  0  0  0  0
  184.6670  178.6800  139.6800 C   0  0  1  0  0  3  0  0  0  0  0  0
  182.3190  178.4280  140.3090 N   0  0  0  0  0  2  0  0  0  0  0  0
  185.8270  178.1490  143.7970 C   0  0  0  0  0  3  0  0  0  0  0  0
  183.2600  178.8110  144.2540 O   0  0  0  0  0  0  0  0  0  0  0  0
  179.9430  178.6050  140.8450 C   0  0  0  0  0  3  0  0  0  0  0  0
  184.0390  178.3630  142.0670 N   0  0  0  0  0  0  0  0  0  0  0  0
  181.2710  178.5310  141.2660 C   0  0  0  0  0  0  0  0  0  0  0  0
  183.6340  180.5450  138.7140 C   0  0  0  0  0  1  0  0  0  0  0  0
  184.5730  180.1330  139.7420 N   0  0  0  0  0  2  0  0  0  0  0  0
  191.1860  177.2070  145.3970 C   0  0  0  0  0  2  0  0  0  0  0  0
  191.2220  176.9330  146.8910 C   0  0  0  0  0  2  0  0  0  0  0  0
  192.1320  175.7870  147.1840 C   0  0  0  0  0  0  0  0  0  0  0  0
  192.6880  175.6150  148.5560 C   0  0  0  0  0  1  0  0  0  0  0  0
  192.4410  175.0030  146.3010 O   0  0  0  0  0  0  0  0  0  0  0  0
  1 28  1  1  0  0  0
  1 15  1  0  0  0  0
  2 21  1  0  0  0  0
  3 10  2  0  0  0  0
  4 22  2  0  0  0  0
  5  4  1  0  0  0  0
  5 17  1  0  0  0  0
  6 18  1  0  0  0  0
  7 16  2  0  0  0  0
  8 14  1  0  0  0  0
  9  1  1  0  0  0  0
 10 12  2  0  0  0  0
 11  7  1  0  0  0  0
 11  2  2  0  0  0  0
 12 11  1  0  0  0  0
 13 20  1  6  0  0  0
 13 24  1  0  0  0  0
 14 17  2  0  0  0  0
 16  9  1  0  0  0  0
 16  6  1  0  0  0  0
 18 15  2  0  0  0  0
 19 27  1  1  0  0  0
 19 12  1  0  0  0  0
 19 13  1  0  0  0  0
 20 25  1  0  0  0  0
 21  6  2  0  0  0  0
 23 25  1  0  0  0  0
 23  8  2  0  0  0  0
 24  2  1  0  0  0  0
 24  4  1  0  0  0  0
 25  5  2  0  0  0  0
 26 27  1  0  0  0  0
 28 29  1  0  0  0  0
 29 30  1  0  0  0  0
 30 31  1  0  0  0  0
 32 30  2  0  0  0  0
M  END
>  <MODEL>
4

>  <REMARK>
 VINA RESULT:      -8.2      3.211      8.788
  Name = 
  4 active torsions:
  status: ('A' for Active; 'I' for Inactive)
    1  A    between atoms: C_1  and  C_10
    2  A    between atoms: C_2  and  C_24
    3  A    between atoms: C_10  and  C_24
    4  A    between atoms: N_25  and  C_26
                            x       y       z     vdW  Elec       q    Type
                         _______ _______ _______ _____ _____    ______ ____

>  <TORSDO>
F 4

$$$$
=
 OpenBabel10262421403D

 32 36  0  0  1  0  0  0  0  0999 V2000
  182.3770  179.4310  140.0780 C   0  0  2  0  0  3  0  0  0  0  0  0
  186.9210  178.1010  141.9700 C   0  0  0  0  0  0  0  0  0  0  0  0
  189.0590  179.4340  137.8030 O   0  0  0  0  0  0  0  0  0  0  0  0
  187.9030  177.4490  144.2290 C   0  0  0  0  0  0  0  0  0  0  0  0
  189.0750  177.3460  145.1100 C   0  0  0  0  0  0  0  0  0  0  0  0
  184.5180  178.3350  141.6180 C   0  0  0  0  0  0  0  0  0  0  0  0
  186.0330  178.6280  139.7550 C   0  0  0  0  0  3  0  0  0  0  0  0
  191.3080  177.0490  146.7320 C   0  0  0  0  0  3  0  0  0  0  0  0
  183.5620  178.7910  139.3390 C   0  0  0  0  0  2  0  0  0  0  0  0
  188.7910  178.9320  138.9020 C   0  0  0  0  0  0  0  0  0  0  0  0
  187.1300  178.3820  140.5970 C   0  0  0  0  0  0  0  0  0  0  0  0
  188.5090  178.4020  140.0640 C   0  0  0  0  0  0  0  0  0  0  0  0
  189.3930  178.3080  142.3600 C   0  0  2  0  0  3  0  0  0  0  0  0
  190.0580  176.8850  147.2420 N   0  0  0  0  0  0  0  0  0  0  0  0
  182.1310  178.7760  141.4120 C   0  0  0  0  0  3  0  0  0  0  0  0
  184.7350  178.6150  140.2600 C   0  0  0  0  0  0  0  0  0  0  0  0
  188.9490  177.0200  146.4670 C   0  0  0  0  0  3  0  0  0  0  0  0
  183.1450  178.3070  142.1460 C   0  0  0  0  0  3  0  0  0  0  0  0
  189.6210  177.8780  140.9110 C   0  0  1  0  0  3  0  0  0  0  0  0
  190.4970  177.8310  143.1930 N   0  0  0  0  0  2  0  0  0  0  0  0
  185.6030  178.0820  142.4580 C   0  0  0  0  0  3  0  0  0  0  0  0
  186.7720  177.1280  144.6850 O   0  0  0  0  0  0  0  0  0  0  0  0
  191.4760  177.3680  145.3820 C   0  0  0  0  0  3  0  0  0  0  0  0
  188.0610  177.8780  142.8510 N   0  0  0  0  0  0  0  0  0  0  0  0
  190.3480  177.5270  144.5750 C   0  0  0  0  0  0  0  0  0  0  0  0
  190.5570  176.0940  139.7190 C   0  0  0  0  0  1  0  0  0  0  0  0
  189.6660  176.4240  140.8180 N   0  0  0  0  0  2  0  0  0  0  0  0
  181.1170  179.3690  139.2350 C   0  0  0  0  0  2  0  0  0  0  0  0
  180.4610  180.7380  139.1610 C   0  0  0  0  0  2  0  0  0  0  0  0
  181.0810  181.5500  138.0750 C   0  0  0  0  0  0  0  0  0  0  0  0
  180.6940  181.3090  136.6570 C   0  0  0  0  0  1  0  0  0  0  0  0
  181.9220  182.3950  138.3390 O   0  0  0  0  0  0  0  0  0  0  0  0
  1 28  1  6  0  0  0
  1 15  1  0  0  0  0
  2 21  1  0  0  0  0
  2 24  1  0  0  0  0
  3 10  2  0  0  0  0
  4 22  2  0  0  0  0
  4  5  1  0  0  0  0
  5 17  1  0  0  0  0
  6 18  1  0  0  0  0
  6 21  2  0  0  0  0
  7 16  2  0  0  0  0
  7 11  1  0  0  0  0
  8 14  1  0  0  0  0
  9  1  1  0  0  0  0
  9 16  1  0  0  0  0
 10 12  2  0  0  0  0
 11  2  2  0  0  0  0
 12 11  1  0  0  0  0
 12 19  1  0  0  0  0
 13 24  1  0  0  0  0
 13 20  1  1  0  0  0
 15 18  2  0  0  0  0
 16  6  1  0  0  0  0
 17 14  2  0  0  0  0
 19 27  1  1  0  0  0
 19 13  1  0  0  0  0
 20 25  1  0  0  0  0
 23  8  2  0  0  0  0
 24  4  1  0  0  0  0
 25  5  2  0  0  0  0
 25 23  1  0  0  0  0
 26 27  1  0  0  0  0
 29 28  1  0  0  0  0
 30 32  2  0  0  0  0
 30 29  1  0  0  0  0
 31 30  1  0  0  0  0
M  END
>  <MODEL>
5

>  <REMARK>
 VINA RESULT:      -8.2      2.597      5.224
  Name = 
  4 active torsions:
  status: ('A' for Active; 'I' for Inactive)
    1  A    between atoms: C_1  and  C_10
    2  A    between atoms: C_2  and  C_24
    3  A    between atoms: C_10  and  C_24
    4  A    between atoms: N_25  and  C_26
                            x       y       z     vdW  Elec       q    Type
                         _______ _______ _______ _____ _____    ______ ____

>  <TORSDO>
F 4

$$$$
=
 OpenBabel10262421403D

 32 36  0  0  1  0  0  0  0  0999 V2000
  188.2920  178.0680  145.1420 C   0  0  2  0  0  3  0  0  0  0  0  0
  188.7940  177.2470  140.1350 C   0  0  0  0  0  0  0  0  0  0  0  0
  184.7060  179.7590  139.3020 O   0  0  0  0  0  0  0  0  0  0  0  0
  190.5670  176.3480  138.5420 C   0  0  0  0  0  0  0  0  0  0  0  0
  191.1270  176.2890  137.1850 C   0  0  0  0  0  0  0  0  0  0  0  0
  189.0310  177.1000  142.5590 C   0  0  0  0  0  0  0  0  0  0  0  0
  187.0110  178.0340  141.6110 C   0  0  0  0  0  3  0  0  0  0  0  0
  192.1130  176.0900  134.5980 C   0  0  0  0  0  3  0  0  0  0  0  0
  187.1860  177.8190  144.1060 C   0  0  0  0  0  2  0  0  0  0  0  0
  185.6850  179.0060  139.2190 C   0  0  0  0  0  0  0  0  0  0  0  0
  187.5150  177.8310  140.3160 C   0  0  0  0  0  0  0  0  0  0  0  0
  186.7200  178.2110  139.1290 C   0  0  0  0  0  0  0  0  0  0  0  0
  188.6830  177.8240  137.6940 C   0  0  2  0  0  3  0  0  0  0  0  0
  192.8260  175.5990  135.6470 N   0  0  0  0  0  0  0  0  0  0  0  0
  189.4520  177.1250  144.9580 C   0  0  0  0  0  3  0  0  0  0  0  0
  187.7650  177.6810  142.7280 C   0  0  0  0  0  0  0  0  0  0  0  0
  192.3610  175.6810  136.9230 C   0  0  0  0  0  3  0  0  0  0  0  0
  189.8190  176.7140  143.7400 C   0  0  0  0  0  3  0  0  0  0  0  0
  187.1590  177.7420  137.7810 C   0  0  1  0  0  3  0  0  0  0  0  0
  189.1210  177.4020  136.3640 N   0  0  0  0  0  2  0  0  0  0  0  0
  189.5340  176.8880  141.2750 C   0  0  0  0  0  3  0  0  0  0  0  0
  191.1660  175.7400  139.4710 O   0  0  0  0  0  0  0  0  0  0  0  0
  190.8750  176.6980  134.8160 C   0  0  0  0  0  3  0  0  0  0  0  0
  189.3300  177.0660  138.7930 N   0  0  0  0  0  0  0  0  0  0  0  0
  190.3890  176.8050  136.1210 C   0  0  0  0  0  0  0  0  0  0  0  0
  185.4010  176.4370  136.9530 C   0  0  0  0  0  1  0  0  0  0  0  0
  186.7150  176.3700  137.5690 N   0  0  0  0  0  2  0  0  0  0  0  0
  187.7490  177.9450  146.5540 C   0  0  0  0  0  2  0  0  0  0  0  0
  186.2870  177.5300  146.5250 C   0  0  0  0  0  2  0  0  0  0  0  0
  185.4070  178.7320  146.6160 C   0  0  0  0  0  0  0  0  0  0  0  0
  184.1700  178.8090  145.7900 C   0  0  0  0  0  1  0  0  0  0  0  0
  185.7080  179.6630  147.3460 O   0  0  0  0  0  0  0  0  0  0  0  0
  1 28  1  1  0  0  0
  2 11  2  0  0  0  0
  2 21  1  0  0  0  0
  4 24  1  0  0  0  0
  4 22  2  0  0  0  0
  5  4  1  0  0  0  0
  6 16  1  0  0  0  0
  6 18  1  0  0  0  0
  7 16  2  0  0  0  0
  8 23  2  0  0  0  0
  8 14  1  0  0  0  0
  9  1  1  0  0  0  0
 10  3  2  0  0  0  0
 11  7  1  0  0  0  0
 12 10  2  0  0  0  0
 12 11  1  0  0  0  0
 13 20  1  6  0  0  0
 13 19  1  0  0  0  0
 13 24  1  0  0  0  0
 14 17  2  0  0  0  0
 15  1  1  0  0  0  0
 16  9  1  0  0  0  0
 17  5  1  0  0  0  0
 18 15  2  0  0  0  0
 19 27  1  1  0  0  0
 19 12  1  0  0  0  0
 21  6  2  0  0  0  0
 23 25  1  0  0  0  0
 24  2  1  0  0  0  0
 25 20  1  0  0  0  0
 25  5  2  0  0  0  0
 26 27  1  0  0  0  0
 29 28  1  0  0  0  0
 29 30  1  0  0  0  0
 30 32  2  0  0  0  0
 31 30  1  0  0  0  0
M  END
>  <MODEL>
6

>  <REMARK>
 VINA RESULT:      -8.0      3.000      5.560
  Name = 
  4 active torsions:
  status: ('A' for Active; 'I' for Inactive)
    1  A    between atoms: C_1  and  C_10
    2  A    between atoms: C_2  and  C_24
    3  A    between atoms: C_10  and  C_24
    4  A    between atoms: N_25  and  C_26
                            x       y       z     vdW  Elec       q    Type
                         _______ _______ _______ _____ _____    ______ ____

>  <TORSDO>
F 4

$$$$
=
 OpenBabel10262421403D

 32 36  0  0  1  0  0  0  0  0999 V2000
  185.6470  179.0220  145.4240 C   0  0  2  0  0  3  0  0  0  0  0  0
  183.0060  178.4670  141.0980 C   0  0  0  0  0  0  0  0  0  0  0  0
  179.1140  180.5020  143.2010 O   0  0  0  0  0  0  0  0  0  0  0  0
  183.4750  177.8520  138.6710 C   0  0  0  0  0  0  0  0  0  0  0  0
  183.0790  177.9140  137.2570 C   0  0  0  0  0  0  0  0  0  0  0  0
  184.6990  178.2530  142.8420 C   0  0  0  0  0  0  0  0  0  0  0  0
  182.4660  178.9750  143.4270 C   0  0  0  0  0  3  0  0  0  0  0  0
  182.2690  177.9380  134.6030 C   0  0  0  0  0  3  0  0  0  0  0  0
  184.1590  178.6840  145.2590 C   0  0  0  0  0  2  0  0  0  0  0  0
  179.8820  179.8760  142.4590 C   0  0  0  0  0  0  0  0  0  0  0  0
  182.0750  178.8860  142.0810 C   0  0  0  0  0  0  0  0  0  0  0  0
  180.6930  179.2150  141.6740 C   0  0  0  0  0  0  0  0  0  0  0  0
  181.3720  179.1240  139.3090 C   0  0  2  0  0  3  0  0  0  0  0  0
  183.5090  177.4950  134.9410 N   0  0  0  0  0  0  0  0  0  0  0  0
  186.5090  178.2330  144.4730 C   0  0  0  0  0  3  0  0  0  0  0  0
  183.7710  178.6710  143.8080 C   0  0  0  0  0  0  0  0  0  0  0  0
  183.9280  177.4690  136.2350 C   0  0  0  0  0  3  0  0  0  0  0  0
  186.0730  177.9170  143.2500 C   0  0  0  0  0  3  0  0  0  0  0  0
  180.2370  178.8560  140.2980 C   0  0  1  0  0  3  0  0  0  0  0  0
  180.9230  178.8100  137.9530 N   0  0  0  0  0  2  0  0  0  0  0  0
  184.3150  178.1540  141.5050 C   0  0  0  0  0  3  0  0  0  0  0  0
  184.5600  177.2830  138.9720 O   0  0  0  0  0  0  0  0  0  0  0  0
  181.3910  178.3840  135.5930 C   0  0  0  0  0  3  0  0  0  0  0  0
  182.6110  178.4050  139.6970 N   0  0  0  0  0  0  0  0  0  0  0  0
  181.8090  178.3800  136.9250 C   0  0  0  0  0  0  0  0  0  0  0  0
  178.9400  177.2250  141.3650 C   0  0  0  0  0  1  0  0  0  0  0  0
  179.8540  177.4500  140.2580 N   0  0  0  0  0  2  0  0  0  0  0  0
  186.1020  178.7780  146.8510 C   0  0  0  0  0  2  0  0  0  0  0  0
  186.9320  177.5080  146.9330 C   0  0  0  0  0  2  0  0  0  0  0  0
  188.1310  177.7280  147.7940 C   0  0  0  0  0  0  0  0  0  0  0  0
  189.4640  177.2370  147.3470 C   0  0  0  0  0  1  0  0  0  0  0  0
  188.0210  178.2880  148.8730 O   0  0  0  0  0  0  0  0  0  0  0  0
  1 28  1  1  0  0  0
  2 21  2  0  0  0  0
  2 11  1  0  0  0  0
  4 22  2  0  0  0  0
  4 24  1  0  0  0  0
  5  4  1  0  0  0  0
  6 18  1  0  0  0  0
  6 16  2  0  0  0  0
  7 16  1  0  0  0  0
  8 14  2  0  0  0  0
  8 23  1  0  0  0  0
  9  1  1  0  0  0  0
 10  3  2  0  0  0  0
 11  7  2  0  0  0  0
 12 11  1  0  0  0  0
 12 10  2  0  0  0  0
 13 20  1  6  0  0  0
 13 24  1  0  0  0  0
 13 19  1  0  0  0  0
 14 17  1  0  0  0  0
 15  1  1  0  0  0  0
 16  9  1  0  0  0  0
 17  5  2  0  0  0  0
 18 15  2  0  0  0  0
 19 27  1  1  0  0  0
 19 12  1  0  0  0  0
 21  6  1  0  0  0  0
 23 25  2  0  0  0  0
 24  2  1  0  0  0  0
 25  5  1  0  0  0  0
 25 20  1  0  0  0  0
 27 26  1  0  0  0  0
 28 29  1  0  0  0  0
 29 30  1  0  0  0  0
 30 32  2  0  0  0  0
 31 30  1  0  0  0  0
M  END
>  <MODEL>
7

>  <REMARK>
 VINA RESULT:      -7.9      4.275      7.897
  Name = 
  4 active torsions:
  status: ('A' for Active; 'I' for Inactive)
    1  A    between atoms: C_1  and  C_10
    2  A    between atoms: C_2  and  C_24
    3  A    between atoms: C_10  and  C_24
    4  A    between atoms: N_25  and  C_26
                            x       y       z     vdW  Elec       q    Type
                         _______ _______ _______ _____ _____    ______ ____

>  <TORSDO>
F 4

$$$$
=
 OpenBabel10262421403D

 32 36  0  0  1  0  0  0  0  0999 V2000
  182.3460  179.4680  140.6670 C   0  0  2  0  0  3  0  0  0  0  0  0
  186.9570  178.0630  142.3290 C   0  0  0  0  0  0  0  0  0  0  0  0
  188.9240  179.4820  138.1060 O   0  0  0  0  0  0  0  0  0  0  0  0
  188.0300  177.3500  144.5260 C   0  0  0  0  0  0  0  0  0  0  0  0
  189.2380  177.2180  145.3540 C   0  0  0  0  0  0  0  0  0  0  0  0
  184.5430  178.3210  142.0860 C   0  0  0  0  0  0  0  0  0  0  0  0
  185.9780  178.6490  140.1670 C   0  0  0  0  0  3  0  0  0  0  0  0
  191.5360  176.8670  146.8700 C   0  0  0  0  0  3  0  0  0  0  0  0
  183.4930  178.8390  139.8620 C   0  0  0  0  0  2  0  0  0  0  0  0
  188.6990  178.9560  139.2030 C   0  0  0  0  0  0  0  0  0  0  0  0
  187.1080  178.3760  140.9540 C   0  0  0  0  0  0  0  0  0  0  0  0
  188.4630  178.3990  140.3640 C   0  0  0  0  0  0  0  0  0  0  0  0
  189.4450  178.2450  142.6160 C   0  0  2  0  0  3  0  0  0  0  0  0
  190.3090  176.6990  147.4300 N   0  0  0  0  0  0  0  0  0  0  0  0
  182.1530  178.7820  141.9940 C   0  0  0  0  0  3  0  0  0  0  0  0
  184.7030  178.6320  140.7270 C   0  0  0  0  0  0  0  0  0  0  0  0
  189.1680  176.8610  146.7060 C   0  0  0  0  0  3  0  0  0  0  0  0
  183.1940  178.2900  142.6720 C   0  0  0  0  0  3  0  0  0  0  0  0
  189.6070  177.8470  141.1490 C   0  0  1  0  0  3  0  0  0  0  0  0
  190.5800  177.7400  143.3890 N   0  0  0  0  0  2  0  0  0  0  0  0
  185.6610  178.0410  142.8730 C   0  0  0  0  0  3  0  0  0  0  0  0
  186.9170  177.0260  145.0230 O   0  0  0  0  0  0  0  0  0  0  0  0
  191.6490  177.2180  145.5220 C   0  0  0  0  0  3  0  0  0  0  0  0
  188.1320  177.8110  143.1530 N   0  0  0  0  0  0  0  0  0  0  0  0
  190.4890  177.4040  144.7680 C   0  0  0  0  0  0  0  0  0  0  0  0
  190.0520  176.0970  139.6600 C   0  0  0  0  0  1  0  0  0  0  0  0
  189.6370  176.3960  141.0200 N   0  0  0  0  0  2  0  0  0  0  0  0
  181.0500  179.4350  139.8780 C   0  0  0  0  0  2  0  0  0  0  0  0
  180.9670  178.1630  139.0490 C   0  0  0  0  0  2  0  0  0  0  0  0
  180.2060  177.1140  139.7880 C   0  0  0  0  0  0  0  0  0  0  0  0
  180.5880  175.6810  139.6440 C   0  0  0  0  0  1  0  0  0  0  0  0
  179.2570  177.4210  140.4910 O   0  0  0  0  0  0  0  0  0  0  0  0
  1 28  1  6  0  0  0
  1 15  1  0  0  0  0
  2 21  1  0  0  0  0
  2 24  1  0  0  0  0
  3 10  2  0  0  0  0
  4 22  2  0  0  0  0
  4  5  1  0  0  0  0
  5 17  1  0  0  0  0
  6 18  1  0  0  0  0
  6 21  2  0  0  0  0
  7 16  2  0  0  0  0
  7 11  1  0  0  0  0
  8 14  1  0  0  0  0
  9  1  1  0  0  0  0
  9 16  1  0  0  0  0
 10 12  2  0  0  0  0
 11  2  2  0  0  0  0
 12 11  1  0  0  0  0
 12 19  1  0  0  0  0
 13 24  1  0  0  0  0
 13 20  1  1  0  0  0
 15 18  2  0  0  0  0
 16  6  1  0  0  0  0
 17 14  2  0  0  0  0
 19 27  1  1  0  0  0
 19 13  1  0  0  0  0
 20 25  1  0  0  0  0
 23  8  2  0  0  0  0
 24  4  1  0  0  0  0
 25  5  2  0  0  0  0
 25 23  1  0  0  0  0
 26 27  1  0  0  0  0
 29 30  1  0  0  0  0
 29 28  1  0  0  0  0
 30 32  2  0  0  0  0
 31 30  1  0  0  0  0
M  END
>  <MODEL>
8

>  <REMARK>
 VINA RESULT:      -7.7      2.072      4.957
  Name = 
  4 active torsions:
  status: ('A' for Active; 'I' for Inactive)
    1  A    between atoms: C_1  and  C_10
    2  A    between atoms: C_2  and  C_24
    3  A    between atoms: C_10  and  C_24
    4  A    between atoms: N_25  and  C_26
                            x       y       z     vdW  Elec       q    Type
                         _______ _______ _______ _____ _____    ______ ____

>  <TORSDO>
F 4

$$$$
=
 OpenBabel10262421403D

 32 36  0  0  1  0  0  0  0  0999 V2000
  190.6700  177.1780  143.7510 C   0  0  2  0  0  3  0  0  0  0  0  0
  188.4320  177.1430  139.1700 C   0  0  0  0  0  0  0  0  0  0  0  0
  192.2160  174.6930  137.3280 O   0  0  0  0  0  0  0  0  0  0  0  0
  186.1480  177.6950  138.1860 C   0  0  0  0  0  0  0  0  0  0  0  0
  185.1600  177.5080  137.1140 C   0  0  0  0  0  0  0  0  0  0  0  0
  189.0140  177.6780  141.4790 C   0  0  0  0  0  0  0  0  0  0  0  0
  190.6740  176.6820  140.0280 C   0  0  0  0  0  3  0  0  0  0  0  0
  183.3440  177.2390  135.0330 C   0  0  0  0  0  3  0  0  0  0  0  0
  191.3330  177.2970  142.3710 C   0  0  0  0  0  2  0  0  0  0  0  0
  191.2000  175.3820  137.4860 C   0  0  0  0  0  0  0  0  0  0  0  0
  189.7450  176.6480  138.9750 C   0  0  0  0  0  0  0  0  0  0  0  0
  190.1250  176.1100  137.6510 C   0  0  0  0  0  0  0  0  0  0  0  0
  187.7660  176.1760  136.9510 C   0  0  2  0  0  3  0  0  0  0  0  0
  182.9840  177.8660  136.1840 N   0  0  0  0  0  0  0  0  0  0  0  0
  189.4320  178.0310  143.8530 C   0  0  0  0  0  3  0  0  0  0  0  0
  190.3120  177.1830  141.2760 C   0  0  0  0  0  0  0  0  0  0  0  0
  183.8580  178.0150  137.2160 C   0  0  0  0  0  3  0  0  0  0  0  0
  188.6390  178.2210  142.7940 C   0  0  0  0  0  3  0  0  0  0  0  0
  189.2140  176.3330  136.4890 C   0  0  1  0  0  3  0  0  0  0  0  0
  186.8660  176.3560  135.8110 N   0  0  0  0  0  2  0  0  0  0  0  0
  188.0890  177.6550  140.4340 C   0  0  0  0  0  3  0  0  0  0  0  0
  185.8440  178.4240  139.1690 O   0  0  0  0  0  0  0  0  0  0  0  0
  184.6350  176.7240  134.8890 C   0  0  0  0  0  3  0  0  0  0  0  0
  187.4590  177.0790  138.0880 N   0  0  0  0  0  0  0  0  0  0  0  0
  185.5400  176.8540  135.9440 C   0  0  0  0  0  0  0  0  0  0  0  0
  189.9350  177.5020  134.5940 C   0  0  0  0  0  1  0  0  0  0  0  0
  189.4290  177.6680  135.9450 N   0  0  0  0  0  2  0  0  0  0  0  0
  191.6440  177.5540  144.8530 C   0  0  0  0  0  2  0  0  0  0  0  0
  191.8160  176.3980  145.8250 C   0  0  0  0  0  2  0  0  0  0  0  0
  191.2420  176.7530  147.1560 C   0  0  0  0  0  0  0  0  0  0  0  0
  189.7650  176.7530  147.3490 C   0  0  0  0  0  1  0  0  0  0  0  0
  191.9740  177.0660  148.0800 O   0  0  0  0  0  0  0  0  0  0  0  0
  1 15  1  0  0  0  0
  1 28  1  1  0  0  0
  2 21  1  0  0  0  0
  3 10  2  0  0  0  0
  4 22  2  0  0  0  0
  5 17  1  0  0  0  0
  5  4  1  0  0  0  0
  6 18  1  0  0  0  0
  7 16  2  0  0  0  0
  8 14  1  0  0  0  0
  9  1  1  0  0  0  0
 10 12  2  0  0  0  0
 11  2  2  0  0  0  0
 11  7  1  0  0  0  0
 12 11  1  0  0  0  0
 13 20  1  6  0  0  0
 13 24  1  0  0  0  0
 14 17  2  0  0  0  0
 16  6  1  0  0  0  0
 16  9  1  0  0  0  0
 18 15  2  0  0  0  0
 19 27  1  1  0  0  0
 19 13  1  0  0  0  0
 19 12  1  0  0  0  0
 20 25  1  0  0  0  0
 21  6  2  0  0  0  0
 23  8  2  0  0  0  0
 23 25  1  0  0  0  0
 24  4  1  0  0  0  0
 24  2  1  0  0  0  0
 25  5  2  0  0  0  0
 26 27  1  0  0  0  0
 28 29  1  0  0  0  0
 29 30  1  0  0  0  0
 30 31  1  0  0  0  0
 30 32  2  0  0  0  0
M  END
>  <MODEL>
9

>  <REMARK>
 VINA RESULT:      -7.6      4.192      7.887
  Name = 
  4 active torsions:
  status: ('A' for Active; 'I' for Inactive)
    1  A    between atoms: C_1  and  C_10
    2  A    between atoms: C_2  and  C_24
    3  A    between atoms: C_10  and  C_24
    4  A    between atoms: N_25  and  C_26
                            x       y       z     vdW  Elec       q    Type
                         _______ _______ _______ _____ _____    ______ ____

>  <TORSDO>
F 4

$$$$
