=
 OpenBabel10262420123D

 27 31  0  0  1  0  0  0  0  0999 V2000
  188.4250  178.0920  141.2450 N   0  0  0  0  0  0  0  0  0  0  0  0
  187.2360  178.4570  141.9380 C   0  0  0  0  0  0  0  0  0  0  0  0
  188.6070  177.3900  143.5290 C   0  0  2  0  0  3  0  0  0  0  0  0
  183.9600  179.0430  144.3460 C   0  0  0  0  0  3  0  0  0  0  0  0
  183.9730  178.6770  145.7740 C   0  0  0  0  0  3  0  0  0  0  0  0
  186.1260  178.9610  141.3940 C   0  0  0  0  0  3  0  0  0  0  0  0
  186.2200  177.6140  145.5310 C   0  0  0  0  0  3  0  0  0  0  0  0
  191.2430  176.3790  143.2990 C   0  0  2  0  0  3  0  0  0  0  0  0
  189.1650  178.3900  145.9030 C   0  0  0  0  0  1  0  0  0  0  0  0
  191.2360  174.8850  143.5490 C   0  0  0  0  0  1  0  0  0  0  0  0
  186.2570  178.2290  144.1570 C   0  0  0  0  0  0  0  0  0  0  0  0
  185.0140  178.0450  146.3260 C   0  0  0  0  0  3  0  0  0  0  0  0
  185.0300  178.8370  143.5800 C   0  0  2  0  0  3  0  0  0  0  0  0
  189.4010  177.7890  142.2880 C   0  0  1  0  0  3  0  0  0  0  0  0
  187.3240  178.1360  143.3520 C   0  0  0  0  0  0  0  0  0  0  0  0
  190.7860  177.1170  144.5620 C   0  0  0  0  0  3  0  0  0  0  0  0
  185.0100  179.1930  142.2190 O   0  0  0  0  0  0  0  0  0  0  0  0
  191.2930  177.0930  140.9980 O   0  0  0  0  0  1  0  0  0  0  0  0
  190.4240  176.6920  142.0110 C   0  0  1  0  0  3  0  0  0  0  0  0
  189.5350  177.6040  144.6900 C   0  0  0  0  0  0  0  0  0  0  0  0
  188.7820  178.5830  139.9170 C   0  0  0  0  0  2  0  0  0  0  0  0
  187.4520  175.9020  136.8420 C   0  0  0  0  0  3  0  0  0  0  0  0
  188.3120  177.6400  138.8600 C   0  0  0  0  0  0  0  0  0  0  0  0
  187.0750  177.8450  138.2390 C   0  0  0  0  0  3  0  0  0  0  0  0
  186.6450  176.9760  137.2310 C   0  0  0  0  0  3  0  0  0  0  0  0
  188.6910  175.6980  137.4590 C   0  0  0  0  0  3  0  0  0  0  0  0
  189.1210  176.5680  138.4660 C   0  0  0  0  0  3  0  0  0  0  0  0
  1  2  1  0  0  0  0
  2 15  1  0  0  0  0
  3 15  1  1  0  0  0
  3 20  1  0  0  0  0
  4  5  2  0  0  0  0
  5 12  1  0  0  0  0
  6  2  2  0  0  0  0
  6 17  1  0  0  0  0
  7 12  2  0  0  0  0
  8 10  1  1  0  0  0
  8 16  1  0  0  0  0
 11  7  1  0  0  0  0
 13 11  1  0  0  0  0
 13  4  1  1  0  0  0
 14  1  1  6  0  0  0
 14  3  1  0  0  0  0
 15 11  2  0  0  0  0
 16 20  2  0  0  0  0
 17 13  1  0  0  0  0
 19 18  1  6  0  0  0
 19 14  1  0  0  0  0
 19  8  1  0  0  0  0
 20  9  1  0  0  0  0
 21  1  1  0  0  0  0
 22 25  2  0  0  0  0
 22 26  1  0  0  0  0
 23 21  1  0  0  0  0
 24 23  2  0  0  0  0
 25 24  1  0  0  0  0
 26 27  2  0  0  0  0
 27 23  1  0  0  0  0
M  END
>  <MODEL>
1

>  <REMARK>
 VINA RESULT:      -9.0      0.000      0.000
  Name = 
  2 active torsions:
  status: ('A' for Active; 'I' for Inactive)
    1  A    between atoms: N_1  and  C_15
    2  A    between atoms: C_9  and  C_15
                            x       y       z     vdW  Elec       q    Type
                         _______ _______ _______ _____ _____    ______ ____

>  <TORSDO>
F 2

$$$$
=
 OpenBabel10262420123D

 27 31  0  0  1  0  0  0  0  0999 V2000
  186.3670  178.5770  141.5750 N   0  0  0  0  0  0  0  0  0  0  0  0
  186.3350  178.4720  142.9950 C   0  0  0  0  0  0  0  0  0  0  0  0
  188.4760  177.7370  142.3420 C   0  0  2  0  0  3  0  0  0  0  0  0
  186.7090  177.7370  147.0190 C   0  0  0  0  0  3  0  0  0  0  0  0
  187.9710  177.2490  147.6040 C   0  0  0  0  0  3  0  0  0  0  0  0
  185.2690  178.6510  143.7780 C   0  0  0  0  0  3  0  0  0  0  0  0
  188.9770  176.9850  145.3320 C   0  0  0  0  0  2  0  0  0  0  0  0
  189.6860  177.6450  139.7830 C   0  0  2  0  0  3  0  0  0  0  0  0
  190.7230  178.6130  143.4060 C   0  0  0  0  0  1  0  0  0  0  0  0
  190.0110  176.2080  139.4280 C   0  0  0  0  0  1  0  0  0  0  0  0
  187.7660  177.7170  144.8160 C   0  0  0  0  0  0  0  0  0  0  0  0
  189.0190  176.9260  146.8380 C   0  0  0  0  0  3  0  0  0  0  0  0
  186.6050  177.9610  145.7100 C   0  0  0  0  0  0  0  0  0  0  0  0
  187.7800  178.4930  141.2150 C   0  0  1  0  0  3  0  0  0  0  0  0
  187.6200  178.0510  143.5260 C   0  0  0  0  0  0  0  0  0  0  0  0
  190.4850  178.0650  141.0210 C   0  0  0  0  0  3  0  0  0  0  0  0
  185.3980  178.4300  145.1610 O   0  0  0  0  0  0  0  0  0  0  0  0
  187.6770  178.5710  138.8240 O   0  0  0  0  0  1  0  0  0  0  0  0
  188.1410  177.8130  139.8980 C   0  0  1  0  0  3  0  0  0  0  0  0
  189.9270  178.1150  142.2470 C   0  0  0  0  0  0  0  0  0  0  0  0
  185.3680  179.2900  140.7840 C   0  0  0  0  0  2  0  0  0  0  0  0
  182.7980  176.5700  138.6840 C   0  0  0  0  0  3  0  0  0  0  0  0
  184.4860  178.3300  140.0560 C   0  0  0  0  0  0  0  0  0  0  0  0
  183.4960  177.6250  140.7490 C   0  0  0  0  0  3  0  0  0  0  0  0
  182.6530  176.7440  140.0640 C   0  0  0  0  0  3  0  0  0  0  0  0
  183.7830  177.2780  137.9880 C   0  0  0  0  0  3  0  0  0  0  0  0
  184.6250  178.1590  138.6740 C   0  0  0  0  0  3  0  0  0  0  0  0
  1  2  1  0  0  0  0
  2 15  1  0  0  0  0
  2  6  2  0  0  0  0
  3 20  1  1  0  0  0
  3 15  1  0  0  0  0
  4  5  1  0  0  0  0
  6 17  1  0  0  0  0
  7 12  1  0  0  0  0
  8 10  1  1  0  0  0
  8 19  1  0  0  0  0
  8 16  1  0  0  0  0
 11  7  1  0  0  0  0
 11 13  1  0  0  0  0
 12  5  2  0  0  0  0
 13  4  2  0  0  0  0
 14  1  1  1  0  0  0
 14  3  1  0  0  0  0
 15 11  2  0  0  0  0
 16 20  2  0  0  0  0
 17 13  1  0  0  0  0
 19 18  1  6  0  0  0
 19 14  1  0  0  0  0
 20  9  1  0  0  0  0
 21  1  1  0  0  0  0
 22 25  1  0  0  0  0
 23 24  1  0  0  0  0
 23 21  1  0  0  0  0
 25 24  2  0  0  0  0
 26 27  1  0  0  0  0
 26 22  2  0  0  0  0
 27 23  2  0  0  0  0
M  END
>  <MODEL>
2

>  <REMARK>
 VINA RESULT:      -8.2      2.182      3.582
  Name = 
  2 active torsions:
  status: ('A' for Active; 'I' for Inactive)
    1  A    between atoms: N_1  and  C_15
    2  A    between atoms: C_9  and  C_15
                            x       y       z     vdW  Elec       q    Type
                         _______ _______ _______ _____ _____    ______ ____

>  <TORSDO>
F 2

$$$$
=
 OpenBabel10262420123D

 27 31  0  0  1  0  0  0  0  0999 V2000
  185.8150  178.6790  141.3860 N   0  0  0  0  0  0  0  0  0  0  0  0
  185.8340  178.6000  142.8070 C   0  0  0  0  0  0  0  0  0  0  0  0
  187.9520  177.8570  142.0930 C   0  0  2  0  0  3  0  0  0  0  0  0
  186.3510  177.9380  146.8280 C   0  0  0  0  0  3  0  0  0  0  0  0
  187.6340  177.4620  147.3760 C   0  0  0  0  0  3  0  0  0  0  0  0
  184.7960  178.7910  143.6240 C   0  0  0  0  0  3  0  0  0  0  0  0
  188.5590  177.1590  145.0760 C   0  0  0  0  0  2  0  0  0  0  0  0
  189.0710  177.7210  139.4940 C   0  0  2  0  0  3  0  0  0  0  0  0
  190.2340  178.7540  143.0600 C   0  0  0  0  0  1  0  0  0  0  0  0
  189.3850  176.2780  139.1530 C   0  0  0  0  0  1  0  0  0  0  0  0
  187.3300  177.8800  144.5900 C   0  0  0  0  0  0  0  0  0  0  0  0
  188.6550  177.1270  146.5800 C   0  0  0  0  0  3  0  0  0  0  0  0
  186.2010  178.1380  145.5200 C   0  0  0  0  0  0  0  0  0  0  0  0
  187.2140  178.5910  140.9770 C   0  0  1  0  0  3  0  0  0  0  0  0
  187.1380  178.1910  143.3000 C   0  0  0  0  0  0  0  0  0  0  0  0
  189.9120  178.1640  140.6950 C   0  0  0  0  0  3  0  0  0  0  0  0
  184.9740  178.5960  145.0060 O   0  0  0  0  0  0  0  0  0  0  0  0
  187.0270  178.6270  138.5900 O   0  0  0  0  0  1  0  0  0  0  0  0
  187.5300  177.8880  139.6610 C   0  0  1  0  0  3  0  0  0  0  0  0
  189.3980  178.2350  141.9400 C   0  0  0  0  0  0  0  0  0  0  0  0
  184.7870  179.3770  140.6180 C   0  0  0  0  0  2  0  0  0  0  0  0
  181.4830  176.7500  139.8490 C   0  0  0  0  0  3  0  0  0  0  0  0
  183.6330  178.4730  140.3360 C   0  0  0  0  0  0  0  0  0  0  0  0
  183.8080  177.3470  139.5240 C   0  0  0  0  0  3  0  0  0  0  0  0
  182.7330  176.4860  139.2800 C   0  0  0  0  0  3  0  0  0  0  0  0
  181.3080  177.8730  140.6650 C   0  0  0  0  0  3  0  0  0  0  0  0
  182.3830  178.7330  140.9090 C   0  0  0  0  0  3  0  0  0  0  0  0
  1  2  1  0  0  0  0
  2 15  1  0  0  0  0
  2  6  2  0  0  0  0
  3 20  1  1  0  0  0
  3 15  1  0  0  0  0
  4  5  1  0  0  0  0
  6 17  1  0  0  0  0
  7 12  1  0  0  0  0
  8 10  1  1  0  0  0
  8 19  1  0  0  0  0
  8 16  1  0  0  0  0
 11  7  1  0  0  0  0
 11 13  1  0  0  0  0
 12  5  2  0  0  0  0
 13  4  2  0  0  0  0
 14  1  1  1  0  0  0
 14  3  1  0  0  0  0
 15 11  2  0  0  0  0
 16 20  2  0  0  0  0
 17 13  1  0  0  0  0
 19 18  1  6  0  0  0
 19 14  1  0  0  0  0
 20  9  1  0  0  0  0
 21  1  1  0  0  0  0
 22 26  1  0  0  0  0
 23 21  1  0  0  0  0
 23 27  1  0  0  0  0
 24 23  2  0  0  0  0
 25 24  1  0  0  0  0
 25 22  2  0  0  0  0
 26 27  2  0  0  0  0
M  END
>  <MODEL>
3

>  <REMARK>
 VINA RESULT:      -8.0      2.453      4.123
  Name = 
  2 active torsions:
  status: ('A' for Active; 'I' for Inactive)
    1  A    between atoms: N_1  and  C_15
    2  A    between atoms: C_9  and  C_15
                            x       y       z     vdW  Elec       q    Type
                         _______ _______ _______ _____ _____    ______ ____

>  <TORSDO>
F 2

$$$$
=
 OpenBabel10262420123D

 27 31  0  0  1  0  0  0  0  0999 V2000
  188.6770  177.6490  138.6240 N   0  0  0  0  0  0  0  0  0  0  0  0
  188.7240  177.8550  140.0320 C   0  0  0  0  0  0  0  0  0  0  0  0
  190.6980  176.6930  139.4860 C   0  0  2  0  0  3  0  0  0  0  0  0
  189.2550  177.9500  144.1050 C   0  0  0  0  0  3  0  0  0  0  0  0
  190.4740  177.4180  144.7400 C   0  0  0  0  0  3  0  0  0  0  0  0
  187.7450  178.3520  140.7930 C   0  0  0  0  0  3  0  0  0  0  0  0
  191.2850  176.5310  142.5490 C   0  0  0  0  0  2  0  0  0  0  0  0
  191.7150  175.8800  136.9700 C   0  0  2  0  0  3  0  0  0  0  0  0
  193.1080  177.4350  140.2530 C   0  0  0  0  0  1  0  0  0  0  0  0
  191.8180  174.3680  136.9310 C   0  0  0  0  0  1  0  0  0  0  0  0
  190.1550  177.3060  141.9250 C   0  0  0  0  0  0  0  0  0  0  0  0
  191.4170  176.7900  144.0290 C   0  0  0  0  0  3  0  0  0  0  0  0
  189.0980  177.9020  142.7830 C   0  0  0  0  0  0  0  0  0  0  0  0
  190.0390  177.2840  138.2440 C   0  0  1  0  0  3  0  0  0  0  0  0
  189.9710  177.3740  140.6000 C   0  0  0  0  0  0  0  0  0  0  0  0
  192.6430  176.4320  138.0580 C   0  0  0  0  0  3  0  0  0  0  0  0
  187.9320  178.4150  142.1850 O   0  0  0  0  0  0  0  0  0  0  0  0
  189.7930  176.8640  135.9000 O   0  0  0  0  0  1  0  0  0  0  0  0
  190.2180  176.2930  137.0980 C   0  0  1  0  0  3  0  0  0  0  0  0
  192.1770  176.8240  139.2610 C   0  0  0  0  0  0  0  0  0  0  0  0
  187.7340  178.3150  137.7300 C   0  0  0  0  0  2  0  0  0  0  0  0
  184.1120  176.0550  137.3080 C   0  0  0  0  0  3  0  0  0  0  0  0
  186.4770  177.5220  137.6000 C   0  0  0  0  0  0  0  0  0  0  0  0
  185.2560  178.0740  138.0000 C   0  0  0  0  0  3  0  0  0  0  0  0
  184.0740  177.3410  137.8550 C   0  0  0  0  0  3  0  0  0  0  0  0
  185.3320  175.5020  136.9030 C   0  0  0  0  0  3  0  0  0  0  0  0
  186.5130  176.2370  137.0470 C   0  0  0  0  0  3  0  0  0  0  0  0
  1  2  1  0  0  0  0
  2 15  1  0  0  0  0
  2  6  2  0  0  0  0
  3 20  1  6  0  0  0
  3 15  1  0  0  0  0
  4  5  1  0  0  0  0
  6 17  1  0  0  0  0
  7 12  1  0  0  0  0
  8 10  1  1  0  0  0
  8 19  1  0  0  0  0
  8 16  1  0  0  0  0
 11  7  1  0  0  0  0
 11 13  1  0  0  0  0
 12  5  2  0  0  0  0
 13  4  2  0  0  0  0
 14  1  1  1  0  0  0
 14  3  1  0  0  0  0
 15 11  2  0  0  0  0
 16 20  2  0  0  0  0
 17 13  1  0  0  0  0
 19 18  1  6  0  0  0
 19 14  1  0  0  0  0
 20  9  1  0  0  0  0
 21  1  1  0  0  0  0
 22 25  1  0  0  0  0
 23 21  1  0  0  0  0
 23 24  1  0  0  0  0
 25 24  2  0  0  0  0
 26 27  1  0  0  0  0
 26 22  2  0  0  0  0
 27 23  2  0  0  0  0
M  END
>  <MODEL>
4

>  <REMARK>
 VINA RESULT:      -7.7      2.551      4.709
  Name = 
  2 active torsions:
  status: ('A' for Active; 'I' for Inactive)
    1  A    between atoms: N_1  and  C_15
    2  A    between atoms: C_9  and  C_15
                            x       y       z     vdW  Elec       q    Type
                         _______ _______ _______ _____ _____    ______ ____

>  <TORSDO>
F 2

$$$$
=
 OpenBabel10262420123D

 27 31  0  0  1  0  0  0  0  0999 V2000
  188.0060  177.9450  138.7120 N   0  0  0  0  0  0  0  0  0  0  0  0
  187.7180  178.0450  140.1030 C   0  0  0  0  0  0  0  0  0  0  0  0
  189.7910  176.9370  139.9520 C   0  0  2  0  0  3  0  0  0  0  0  0
  187.2820  177.8340  144.1820 C   0  0  0  0  0  3  0  0  0  0  0  0
  188.3310  177.2620  145.0450 C   0  0  0  0  0  3  0  0  0  0  0  0
  186.5780  178.4780  140.6470 C   0  0  0  0  0  3  0  0  0  0  0  0
  189.6500  176.5470  143.0480 C   0  0  0  0  0  3  0  0  0  0  0  0
  191.3850  176.3210  137.6930 C   0  0  2  0  0  3  0  0  0  0  0  0
  191.9370  177.6310  141.3150 C   0  0  0  0  0  1  0  0  0  0  0  0
  191.5280  174.8180  137.5690 C   0  0  0  0  0  1  0  0  0  0  0  0
  188.6800  177.3610  142.2340 C   0  0  0  0  0  0  0  0  0  0  0  0
  189.4270  176.6940  144.5320 C   0  0  0  0  0  3  0  0  0  0  0  0
  187.4380  177.8860  142.8610 C   0  0  2  0  0  3  0  0  0  0  0  0
  189.4270  177.6170  138.6360 C   0  0  1  0  0  3  0  0  0  0  0  0
  188.8090  177.5290  140.9110 C   0  0  0  0  0  0  0  0  0  0  0  0
  192.0200  176.7950  139.0040 C   0  0  0  0  0  3  0  0  0  0  0  0
  186.4330  178.4370  142.0450 O   0  0  0  0  0  0  0  0  0  0  0  0
  189.7440  177.3740  136.2760 O   0  0  0  0  0  1  0  0  0  0  0  0
  189.8900  176.7160  137.4960 C   0  0  1  0  0  3  0  0  0  0  0  0
  191.2780  177.0920  140.0900 C   0  0  0  0  0  0  0  0  0  0  0  0
  187.2830  178.6730  137.6720 C   0  0  0  0  0  2  0  0  0  0  0  0
  184.2050  176.1900  136.0080 C   0  0  0  0  0  3  0  0  0  0  0  0
  186.2080  177.8230  137.0820 C   0  0  0  0  0  0  0  0  0  0  0  0
  186.4890  176.9970  135.9880 C   0  0  0  0  0  3  0  0  0  0  0  0
  185.4880  176.1810  135.4500 C   0  0  0  0  0  3  0  0  0  0  0  0
  183.9240  177.0120  137.1040 C   0  0  0  0  0  3  0  0  0  0  0  0
  184.9250  177.8260  137.6420 C   0  0  0  0  0  3  0  0  0  0  0  0
  1  2  1  0  0  0  0
  2  6  2  0  0  0  0
  2 15  1  0  0  0  0
  3 20  1  1  0  0  0
  3 15  1  0  0  0  0
  4  5  2  0  0  0  0
  6 17  1  0  0  0  0
  7 12  2  0  0  0  0
  8 10  1  1  0  0  0
  8 16  1  0  0  0  0
 11 13  1  0  0  0  0
 11  7  1  0  0  0  0
 12  5  1  0  0  0  0
 13  4  1  1  0  0  0
 14  1  1  1  0  0  0
 14  3  1  0  0  0  0
 15 11  2  0  0  0  0
 16 20  2  0  0  0  0
 17 13  1  0  0  0  0
 19 18  1  6  0  0  0
 19  8  1  0  0  0  0
 19 14  1  0  0  0  0
 20  9  1  0  0  0  0
 21  1  1  0  0  0  0
 22 26  1  0  0  0  0
 23 27  1  0  0  0  0
 23 21  1  0  0  0  0
 24 23  2  0  0  0  0
 25 24  1  0  0  0  0
 25 22  2  0  0  0  0
 26 27  2  0  0  0  0
M  END
>  <MODEL>
5

>  <REMARK>
 VINA RESULT:      -7.4      2.044      3.974
  Name = 
  2 active torsions:
  status: ('A' for Active; 'I' for Inactive)
    1  A    between atoms: N_1  and  C_15
    2  A    between atoms: C_9  and  C_15
                            x       y       z     vdW  Elec       q    Type
                         _______ _______ _______ _____ _____    ______ ____

>  <TORSDO>
F 2

$$$$
=
 OpenBabel10262420123D

 27 31  0  0  1  0  0  0  0  0999 V2000
  184.6800  178.8770  141.6290 N   0  0  0  0  0  0  0  0  0  0  0  0
  185.7600  178.6280  140.7350 C   0  0  0  0  0  0  0  0  0  0  0  0
  186.6120  178.2410  142.8970 C   0  0  2  0  0  3  0  0  0  0  0  0
  189.2530  178.0300  138.6570 C   0  0  0  0  0  3  0  0  0  0  0  0
  190.4930  177.6070  139.3320 C   0  0  0  0  0  3  0  0  0  0  0  0
  185.7680  178.8590  139.4200 C   0  0  0  0  0  3  0  0  0  0  0  0
  189.4120  177.8440  141.5720 C   0  0  0  0  0  3  0  0  0  0  0  0
  185.3210  178.3020  145.4180 C   0  0  2  0  0  3  0  0  0  0  0  0
  187.9360  176.0710  143.5940 C   0  0  0  0  0  1  0  0  0  0  0  0
  185.9470  179.3780  146.2810 C   0  0  0  0  0  1  0  0  0  0  0  0
  188.1180  178.0250  140.8220 C   0  0  0  0  0  0  0  0  0  0  0  0
  190.5640  177.4970  140.6630 C   0  0  0  0  0  3  0  0  0  0  0  0
  188.1320  178.2270  139.3500 C   0  0  2  0  0  3  0  0  0  0  0  0
  185.0860  178.2790  142.8980 C   0  0  1  0  0  3  0  0  0  0  0  0
  186.9370  178.1510  141.4410 C   0  0  0  0  0  0  0  0  0  0  0  0
  186.3660  177.2300  145.0890 C   0  0  0  0  0  3  0  0  0  0  0  0
  186.9520  178.6270  138.6970 O   0  0  0  0  0  0  0  0  0  0  0  0
  183.2500  178.8610  144.3200 O   0  0  0  0  0  1  0  0  0  0  0  0
  184.6340  178.9620  144.1850 C   0  0  1  0  0  3  0  0  0  0  0  0
  186.9910  177.1850  143.8950 C   0  0  0  0  0  0  0  0  0  0  0  0
  183.2890  179.0280  141.2110 C   0  0  0  0  0  2  0  0  0  0  0  0
  182.3630  176.4730  137.8920 C   0  0  0  0  0  3  0  0  0  0  0  0
  182.9850  178.1390  140.0520 C   0  0  0  0  0  0  0  0  0  0  0  0
  182.9760  176.7500  140.2180 C   0  0  0  0  0  3  0  0  0  0  0  0
  182.6670  175.9170  139.1380 C   0  0  0  0  0  3  0  0  0  0  0  0
  182.3670  177.8610  137.7250 C   0  0  0  0  0  3  0  0  0  0  0  0
  182.6750  178.6940  138.8050 C   0  0  0  0  0  3  0  0  0  0  0  0
  2 15  1  0  0  0  0
  2  1  1  0  0  0  0
  3 15  1  6  0  0  0
  3 14  1  0  0  0  0
  3 20  1  0  0  0  0
  4  5  2  0  0  0  0
  5 12  1  0  0  0  0
  6  2  2  0  0  0  0
  8 10  1  6  0  0  0
  9 20  1  0  0  0  0
 11 15  2  0  0  0  0
 11  7  1  0  0  0  0
 12  7  2  0  0  0  0
 13  4  1  6  0  0  0
 13 11  1  0  0  0  0
 14  1  1  6  0  0  0
 14 19  1  0  0  0  0
 16  8  1  0  0  0  0
 17 13  1  0  0  0  0
 17  6  1  0  0  0  0
 19 18  1  1  0  0  0
 19  8  1  0  0  0  0
 20 16  2  0  0  0  0
 21  1  1  0  0  0  0
 22 25  1  0  0  0  0
 23 24  1  0  0  0  0
 23 21  1  0  0  0  0
 25 24  2  0  0  0  0
 26 22  2  0  0  0  0
 26 27  1  0  0  0  0
 27 23  2  0  0  0  0
M  END
>  <MODEL>
6

>  <REMARK>
 VINA RESULT:      -7.2      2.566      5.540
  Name = 
  2 active torsions:
  status: ('A' for Active; 'I' for Inactive)
    1  A    between atoms: N_1  and  C_15
    2  A    between atoms: C_9  and  C_15
                            x       y       z     vdW  Elec       q    Type
                         _______ _______ _______ _____ _____    ______ ____

>  <TORSDO>
F 2

$$$$
=
 OpenBabel10262420123D

 27 31  0  0  1  0  0  0  0  0999 V2000
  188.8130  178.0080  139.5610 N   0  0  0  0  0  0  0  0  0  0  0  0
  190.1160  177.5270  139.2450 C   0  0  0  0  0  0  0  0  0  0  0  0
  188.7590  176.9700  137.4020 C   0  0  2  0  0  3  0  0  0  0  0  0
  193.5750  175.7380  137.9380 C   0  0  0  0  0  3  0  0  0  0  0  0
  193.6630  175.0970  136.6130 C   0  0  0  0  0  3  0  0  0  0  0  0
  191.1710  177.5020  140.0630 C   0  0  0  0  0  3  0  0  0  0  0  0
  191.2180  175.4400  136.2320 C   0  0  0  0  0  2  0  0  0  0  0  0
  186.0360  177.5520  136.8820 C   0  0  2  0  0  3  0  0  0  0  0  0
  189.3820  177.5030  134.8970 C   0  0  0  0  0  1  0  0  0  0  0  0
  185.2540  176.2590  136.7740 C   0  0  0  0  0  1  0  0  0  0  0  0
  191.2420  176.2970  137.4700 C   0  0  0  0  0  0  0  0  0  0  0  0
  192.5930  174.9790  135.8200 C   0  0  0  0  0  3  0  0  0  0  0  0
  192.4410  176.3060  138.3470 C   0  0  0  0  0  0  0  0  0  0  0  0
  188.0860  178.0080  138.2950 C   0  0  1  0  0  3  0  0  0  0  0  0
  190.1660  176.9650  137.9060 C   0  0  0  0  0  0  0  0  0  0  0  0
  187.0860  177.6170  135.7680 C   0  0  0  0  0  3  0  0  0  0  0  0
  192.3670  176.9180  139.6110 O   0  0  0  0  0  0  0  0  0  0  0  0
  185.9080  178.7240  138.9850 O   0  0  0  0  0  1  0  0  0  0  0  0
  186.5930  177.7010  138.3310 C   0  0  1  0  0  3  0  0  0  0  0  0
  188.3860  177.3420  135.9950 C   0  0  0  0  0  0  0  0  0  0  0  0
  188.5220  178.9180  140.6650 C   0  0  0  0  0  2  0  0  0  0  0  0
  186.8300  176.8270  144.0080 C   0  0  0  0  0  3  0  0  0  0  0  0
  187.9250  178.1790  141.8170 C   0  0  0  0  0  0  0  0  0  0  0  0
  188.6300  177.1310  142.4170 C   0  0  0  0  0  3  0  0  0  0  0  0
  188.0820  176.4540  143.5120 C   0  0  0  0  0  3  0  0  0  0  0  0
  186.1250  177.8780  143.4120 C   0  0  0  0  0  3  0  0  0  0  0  0
  186.6740  178.5550  142.3180 C   0  0  0  0  0  3  0  0  0  0  0  0
  1 21  1  0  0  0  0
  2  1  1  0  0  0  0
  2  6  2  0  0  0  0
  3 20  1  6  0  0  0
  3 15  1  0  0  0  0
  3 14  1  0  0  0  0
  4 13  2  0  0  0  0
  5  4  1  0  0  0  0
  7 11  1  0  0  0  0
  8 10  1  1  0  0  0
  8 19  1  0  0  0  0
  9 20  1  0  0  0  0
 11 15  2  0  0  0  0
 11 13  1  0  0  0  0
 12  7  1  0  0  0  0
 12  5  2  0  0  0  0
 13 17  1  0  0  0  0
 14 19  1  0  0  0  0
 14  1  1  1  0  0  0
 15  2  1  0  0  0  0
 16 20  2  0  0  0  0
 16  8  1  0  0  0  0
 17  6  1  0  0  0  0
 19 18  1  6  0  0  0
 21 23  1  0  0  0  0
 23 27  2  0  0  0  0
 23 24  1  0  0  0  0
 24 25  2  0  0  0  0
 25 22  1  0  0  0  0
 26 22  2  0  0  0  0
 27 26  1  0  0  0  0
M  END
>  <MODEL>
7

>  <REMARK>
 VINA RESULT:      -7.2      2.321      7.946
  Name = 
  2 active torsions:
  status: ('A' for Active; 'I' for Inactive)
    1  A    between atoms: N_1  and  C_15
    2  A    between atoms: C_9  and  C_15
                            x       y       z     vdW  Elec       q    Type
                         _______ _______ _______ _____ _____    ______ ____

>  <TORSDO>
F 2

$$$$
=
 OpenBabel10262420123D

 27 31  0  0  1  0  0  0  0  0999 V2000
  188.3490  178.0640  140.2330 N   0  0  0  0  0  0  0  0  0  0  0  0
  189.4000  177.3180  139.6280 C   0  0  0  0  0  0  0  0  0  0  0  0
  187.5400  177.0850  138.2020 C   0  0  2  0  0  3  0  0  0  0  0  0
  191.9660  174.8410  137.5900 C   0  0  0  0  0  3  0  0  0  0  0  0
  191.5840  174.2100  136.3140 C   0  0  0  0  0  3  0  0  0  0  0  0
  190.5960  177.0580  140.1630 C   0  0  0  0  0  3  0  0  0  0  0  0
  189.2500  175.0740  136.5310 C   0  0  0  0  0  2  0  0  0  0  0  0
  184.9600  178.2440  138.3430 C   0  0  2  0  0  3  0  0  0  0  0  0
  187.6160  177.4980  135.6000 C   0  0  0  0  0  1  0  0  0  0  0  0
  183.9210  177.1510  138.4860 C   0  0  0  0  0  1  0  0  0  0  0  0
  189.7620  175.8930  137.6860 C   0  0  0  0  0  0  0  0  0  0  0  0
  190.3500  174.3340  135.8130 C   0  0  0  0  0  3  0  0  0  0  0  0
  191.1160  175.6340  138.2400 C   0  0  0  0  0  0  0  0  0  0  0  0
  187.3450  178.2340  139.1870 C   0  0  1  0  0  3  0  0  0  0  0  0
  188.9950  176.7730  138.3440 C   0  0  0  0  0  0  0  0  0  0  0  0
  185.6870  178.0930  137.0020 C   0  0  0  0  0  3  0  0  0  0  0  0
  191.4910  176.2350  139.4560 O   0  0  0  0  0  0  0  0  0  0  0  0
  185.6100  179.3940  140.3590 O   0  0  0  0  0  1  0  0  0  0  0  0
  185.8780  178.2540  139.6020 C   0  0  1  0  0  3  0  0  0  0  0  0
  186.9150  177.5440  136.9150 C   0  0  0  0  0  0  0  0  0  0  0  0
  188.5410  179.0030  141.3350 C   0  0  0  0  0  2  0  0  0  0  0  0
  188.2170  177.0440  145.1390 C   0  0  0  0  0  3  0  0  0  0  0  0
  188.4330  178.3060  142.6500 C   0  0  0  0  0  0  0  0  0  0  0  0
  189.5460  178.2270  143.4940 C   0  0  0  0  0  3  0  0  0  0  0  0
  189.4390  177.5950  144.7380 C   0  0  0  0  0  3  0  0  0  0  0  0
  187.1020  177.1270  144.2980 C   0  0  0  0  0  3  0  0  0  0  0  0
  187.2100  177.7590  143.0560 C   0  0  0  0  0  3  0  0  0  0  0  0
  1 21  1  0  0  0  0
  2  6  2  0  0  0  0
  2  1  1  0  0  0  0
  3 20  1  6  0  0  0
  3 15  1  0  0  0  0
  3 14  1  0  0  0  0
  4 13  2  0  0  0  0
  5  4  1  0  0  0  0
  7 11  1  0  0  0  0
  8 10  1  1  0  0  0
  8 19  1  0  0  0  0
  9 20  1  0  0  0  0
 11 13  1  0  0  0  0
 11 15  2  0  0  0  0
 12  5  2  0  0  0  0
 12  7  1  0  0  0  0
 13 17  1  0  0  0  0
 14 19  1  0  0  0  0
 14  1  1  1  0  0  0
 15  2  1  0  0  0  0
 16  8  1  0  0  0  0
 17  6  1  0  0  0  0
 19 18  1  6  0  0  0
 20 16  2  0  0  0  0
 21 23  1  0  0  0  0
 23 27  2  0  0  0  0
 23 24  1  0  0  0  0
 24 25  2  0  0  0  0
 25 22  1  0  0  0  0
 26 22  2  0  0  0  0
 27 26  1  0  0  0  0
M  END
>  <MODEL>
8

>  <REMARK>
 VINA RESULT:      -7.1      1.921      7.679
  Name = 
  2 active torsions:
  status: ('A' for Active; 'I' for Inactive)
    1  A    between atoms: N_1  and  C_15
    2  A    between atoms: C_9  and  C_15
                            x       y       z     vdW  Elec       q    Type
                         _______ _______ _______ _____ _____    ______ ____

>  <TORSDO>
F 2

$$$$
=
 OpenBabel10262420123D

 27 31  0  0  1  0  0  0  0  0999 V2000
  184.3060  179.0950  141.7970 N   0  0  0  0  0  0  0  0  0  0  0  0
  185.1040  178.8270  140.6490 C   0  0  0  0  0  0  0  0  0  0  0  0
  182.8960  178.2830  140.0380 C   0  0  2  0  0  3  0  0  0  0  0  0
  186.9380  177.6570  137.1650 C   0  0  0  0  0  3  0  0  0  0  0  0
  186.1660  177.1710  136.0070 C   0  0  0  0  0  3  0  0  0  0  0  0
  186.4380  178.8600  140.5870 C   0  0  0  0  0  3  0  0  0  0  0  0
  184.0520  177.2210  137.3380 C   0  0  0  0  0  2  0  0  0  0  0  0
  180.4720  178.5460  141.4820 C   0  0  2  0  0  3  0  0  0  0  0  0
  181.7170  179.1460  137.8440 C   0  0  0  0  0  1  0  0  0  0  0  0
  179.8550  177.1780  141.6880 C   0  0  0  0  0  1  0  0  0  0  0  0
  184.8460  177.9440  138.3940 C   0  0  0  0  0  0  0  0  0  0  0  0
  184.8420  176.9930  136.0750 C   0  0  0  0  0  3  0  0  0  0  0  0
  186.3260  178.0240  138.2890 C   0  0  0  0  0  0  0  0  0  0  0  0
  182.9300  179.1260  141.3100 C   0  0  1  0  0  3  0  0  0  0  0  0
  184.2910  178.4150  139.5190 C   0  0  0  0  0  0  0  0  0  0  0  0
  180.5400  178.8630  139.9840 C   0  0  0  0  0  3  0  0  0  0  0  0
  187.0710  178.4900  139.3870 O   0  0  0  0  0  0  0  0  0  0  0  0
  181.7030  179.4710  143.3370 O   0  0  0  0  0  1  0  0  0  0  0  0
  181.8320  178.6200  142.2400 C   0  0  1  0  0  3  0  0  0  0  0  0
  181.6830  178.7430  139.2800 C   0  0  0  0  0  0  0  0  0  0  0  0
  184.7720  179.8410  142.9630 C   0  0  0  0  0  2  0  0  0  0  0  0
  186.3160  177.2130  145.9830 C   0  0  0  0  0  3  0  0  0  0  0  0
  185.2960  178.9150  144.0100 C   0  0  0  0  0  0  0  0  0  0  0  0
  186.2770  177.9720  143.6830 C   0  0  0  0  0  3  0  0  0  0  0  0
  186.7860  177.1210  144.6690 C   0  0  0  0  0  3  0  0  0  0  0  0
  185.3390  178.1580  146.3120 C   0  0  0  0  0  3  0  0  0  0  0  0
  184.8300  179.0100  145.3260 C   0  0  0  0  0  3  0  0  0  0  0  0
  1 21  1  0  0  0  0
  2  1  1  0  0  0  0
  3 20  1  6  0  0  0
  3 14  1  0  0  0  0
  4 13  2  0  0  0  0
  5 12  2  0  0  0  0
  5  4  1  0  0  0  0
  6  2  2  0  0  0  0
  7 11  1  0  0  0  0
  8 10  1  6  0  0  0
  8 19  1  0  0  0  0
  9 20  1  0  0  0  0
 11 15  2  0  0  0  0
 12  7  1  0  0  0  0
 13 11  1  0  0  0  0
 13 17  1  0  0  0  0
 14  1  1  1  0  0  0
 14 19  1  0  0  0  0
 15  3  1  0  0  0  0
 15  2  1  0  0  0  0
 16  8  1  0  0  0  0
 17  6  1  0  0  0  0
 19 18  1  1  0  0  0
 20 16  2  0  0  0  0
 21 23  1  0  0  0  0
 22 26  1  0  0  0  0
 23 27  1  0  0  0  0
 24 23  2  0  0  0  0
 24 25  1  0  0  0  0
 25 22  2  0  0  0  0
 27 26  2  0  0  0  0
M  END
>  <MODEL>
9

>  <REMARK>
 VINA RESULT:      -7.0      2.987      8.050
  Name = 
  2 active torsions:
  status: ('A' for Active; 'I' for Inactive)
    1  A    between atoms: N_1  and  C_15
    2  A    between atoms: C_9  and  C_15
                            x       y       z     vdW  Elec       q    Type
                         _______ _______ _______ _____ _____    ______ ____

>  <TORSDO>
F 2

$$$$
