=
 OpenBabel10262419533D

 25 27  0  0  0  0  0  0  0  0999 V2000
  190.0030  177.6100  141.1940 C   0  0  0  0  0  0  0  0  0  0  0  0
  188.7310  178.0030  140.9550 C   0  0  0  0  0  0  0  0  0  0  0  0
  190.8090  177.1460  138.8290 C   0  0  0  0  0  3  0  0  0  0  0  0
  189.7590  177.4550  138.0830 C   0  0  0  0  0  3  0  0  0  0  0  0
  188.0350  178.1410  139.7530 C   0  0  0  0  0  0  0  0  0  0  0  0
  187.4850  178.1660  137.3690 C   0  0  0  0  0  1  0  0  0  0  0  0
  187.8930  178.3310  141.9630 N   0  0  0  0  0  0  0  0  0  0  0  0
  190.9200  177.2030  140.2160 O   0  0  0  0  0  0  0  0  0  0  0  0
  186.7810  178.5650  140.0260 N   0  0  0  0  0  2  0  0  0  0  0  0
  186.7370  178.6560  141.3650 C   0  0  0  0  0  0  0  0  0  0  0  0
  188.4390  177.9260  138.4940 C   0  0  0  0  0  0  0  0  0  0  0  0
  190.5200  177.5830  142.5860 C   0  0  0  0  0  0  0  0  0  0  0  0
  191.5730  177.5160  145.1640 C   0  0  0  0  0  3  0  0  0  0  0  0
  190.5710  176.3840  143.3270 C   0  0  0  0  0  0  0  0  0  0  0  0
  191.0860  176.3860  144.5870 N   0  0  0  0  0  0  0  0  0  0  0  0
  191.5550  178.7210  144.4650 C   0  0  0  0  0  3  0  0  0  0  0  0
  190.0590  175.1680  142.7880 N   0  0  0  0  0  1  0  0  0  0  0  0
  191.0310  178.7490  143.1730 C   0  0  0  0  0  3  0  0  0  0  0  0
  185.5410  179.1410  142.1100 C   0  0  0  0  0  2  0  0  0  0  0  0
  185.6510  178.7900  143.5190 N   0  0  0  0  0  2  0  0  0  0  0  0
  184.6290  179.0870  144.4730 C   0  0  0  0  0  0  0  0  0  0  0  0
  183.5980  179.7260  144.1320 O   0  0  0  0  0  0  0  0  0  0  0  0
  184.8020  178.6700  145.8900 C   0  0  0  0  0  2  0  0  0  0  0  0
  186.0830  177.8740  146.0410 C   0  0  0  0  0  2  0  0  0  0  0  0
  186.8010  178.3080  147.3010 C   0  0  0  0  0  1  0  0  0  0  0  0
  1 12  1  0  0  0  0
  2  1  2  0  0  0  0
  2  7  1  0  0  0  0
  3  8  1  0  0  0  0
  4 11  1  0  0  0  0
  4  3  2  0  0  0  0
  5  9  1  0  0  0  0
  5  2  1  0  0  0  0
  6 11  1  0  0  0  0
  8  1  1  0  0  0  0
  9 10  1  0  0  0  0
 10  7  2  0  0  0  0
 10 19  1  0  0  0  0
 11  5  2  0  0  0  0
 12 18  2  0  0  0  0
 12 14  1  0  0  0  0
 14 15  2  0  0  0  0
 15 13  1  0  0  0  0
 16 13  2  0  0  0  0
 17 14  1  0  0  0  0
 18 16  1  0  0  0  0
 19 20  1  0  0  0  0
 20 21  1  0  0  0  0
 21 23  1  0  0  0  0
 22 21  2  0  0  0  0
 23 24  1  0  0  0  0
 24 25  1  0  0  0  0
M  END
>  <MODEL>
1

>  <REMARK>
 VINA RESULT:      -7.9      0.000      0.000
  Name = 
  5 active torsions:
  status: ('A' for Active; 'I' for Inactive)
    1  A    between atoms: C_1  and  C_5
    2  A    between atoms: C_2  and  C_7
    3  A    between atoms: C_2  and  C_21
    4  A    between atoms: C_6  and  N_15
    5  A    between atoms: C_6  and  C_23
                            x       y       z     vdW  Elec       q    Type
                         _______ _______ _______ _____ _____    ______ ____

>  <TORSDO>
F 5

$$$$
=
 OpenBabel10262419533D

 25 27  0  0  0  0  0  0  0  0999 V2000
  189.5660  177.6120  142.0560 C   0  0  0  0  0  0  0  0  0  0  0  0
  188.4890  178.0120  141.3430 C   0  0  0  0  0  0  0  0  0  0  0  0
  191.2150  177.1140  140.1880 C   0  0  0  0  0  3  0  0  0  0  0  0
  190.5360  177.4210  139.0930 C   0  0  0  0  0  3  0  0  0  0  0  0
  188.3110  178.1420  139.9650 C   0  0  0  0  0  0  0  0  0  0  0  0
  188.7210  178.1420  137.5530 C   0  0  0  0  0  1  0  0  0  0  0  0
  187.3320  178.3590  141.9480 N   0  0  0  0  0  0  0  0  0  0  0  0
  190.7850  177.1870  141.5110 O   0  0  0  0  0  0  0  0  0  0  0  0
  187.0540  178.5780  139.7310 N   0  0  0  0  0  2  0  0  0  0  0  0
  186.4990  178.6860  140.9490 C   0  0  0  0  0  0  0  0  0  0  0  0
  189.1660  177.9090  138.9600 C   0  0  0  0  0  0  0  0  0  0  0  0
  189.5080  177.5980  143.5410 C   0  0  0  0  0  0  0  0  0  0  0  0
  189.3420  177.6410  146.3210 C   0  0  0  0  0  3  0  0  0  0  0  0
  190.4100  178.3530  144.3180 C   0  0  0  0  0  0  0  0  0  0  0  0
  190.3060  178.3480  145.6750 N   0  0  0  0  0  0  0  0  0  0  0  0
  188.4210  176.8900  145.5930 C   0  0  0  0  0  3  0  0  0  0  0  0
  191.4570  179.1010  143.7050 N   0  0  0  0  0  1  0  0  0  0  0  0
  188.5050  176.8750  144.2020 C   0  0  0  0  0  3  0  0  0  0  0  0
  185.1150  179.1890  141.1730 C   0  0  0  0  0  2  0  0  0  0  0  0
  184.8350  179.2750  142.5990 N   0  0  0  0  0  2  0  0  0  0  0  0
  183.5760  178.9060  143.1650 C   0  0  0  0  0  0  0  0  0  0  0  0
  182.6230  178.5380  142.4270 O   0  0  0  0  0  0  0  0  0  0  0  0
  183.3760  178.9930  144.6360 C   0  0  0  0  0  2  0  0  0  0  0  0
  184.7130  179.1690  145.3280 C   0  0  0  0  0  2  0  0  0  0  0  0
  184.7600  178.2980  146.5650 C   0  0  0  0  0  1  0  0  0  0  0  0
  1 12  1  0  0  0  0
  2  7  1  0  0  0  0
  2  1  2  0  0  0  0
  3  8  1  0  0  0  0
  4  3  2  0  0  0  0
  5  2  1  0  0  0  0
  6 11  1  0  0  0  0
  8  1  1  0  0  0  0
  9  5  1  0  0  0  0
  9 10  1  0  0  0  0
 10 19  1  0  0  0  0
 10  7  2  0  0  0  0
 11  4  1  0  0  0  0
 11  5  2  0  0  0  0
 12 18  2  0  0  0  0
 12 14  1  0  0  0  0
 14 15  2  0  0  0  0
 15 13  1  0  0  0  0
 16 13  2  0  0  0  0
 17 14  1  0  0  0  0
 18 16  1  0  0  0  0
 19 20  1  0  0  0  0
 20 21  1  0  0  0  0
 21 23  1  0  0  0  0
 22 21  2  0  0  0  0
 23 24  1  0  0  0  0
 24 25  1  0  0  0  0
M  END
>  <MODEL>
2

>  <REMARK>
 VINA RESULT:      -7.8      1.519      1.954
  Name = 
  5 active torsions:
  status: ('A' for Active; 'I' for Inactive)
    1  A    between atoms: C_1  and  C_5
    2  A    between atoms: C_2  and  C_7
    3  A    between atoms: C_2  and  C_21
    4  A    between atoms: C_6  and  N_15
    5  A    between atoms: C_6  and  C_23
                            x       y       z     vdW  Elec       q    Type
                         _______ _______ _______ _____ _____    ______ ____

>  <TORSDO>
F 5

$$$$
=
 OpenBabel10262419533D

 25 27  0  0  0  0  0  0  0  0999 V2000
  187.7540  177.9720  144.4380 C   0  0  0  0  0  0  0  0  0  0  0  0
  186.7460  178.2750  143.5880 C   0  0  0  0  0  0  0  0  0  0  0  0
  186.5480  178.1020  146.6710 C   0  0  0  0  0  3  0  0  0  0  0  0
  185.3020  178.3960  146.3280 C   0  0  0  0  0  3  0  0  0  0  0  0
  185.4040  178.5640  143.8390 C   0  0  0  0  0  0  0  0  0  0  0  0
  183.2790  178.9440  144.9900 C   0  0  0  0  0  1  0  0  0  0  0  0
  186.9480  178.3510  142.2540 N   0  0  0  0  0  0  0  0  0  0  0  0
  187.6470  177.9230  145.8340 O   0  0  0  0  0  0  0  0  0  0  0  0
  184.7860  178.8040  142.6610 N   0  0  0  0  0  2  0  0  0  0  0  0
  185.7520  178.6740  141.7380 C   0  0  0  0  0  0  0  0  0  0  0  0
  184.7370  178.6180  145.0000 C   0  0  0  0  0  0  0  0  0  0  0  0
  189.1050  177.6640  143.9040 C   0  0  0  0  0  0  0  0  0  0  0  0
  191.6150  177.1230  142.8250 C   0  0  0  0  0  3  0  0  0  0  0  0
  189.3780  176.4400  143.2580 C   0  0  0  0  0  0  0  0  0  0  0  0
  190.6170  176.2040  142.7460 N   0  0  0  0  0  0  0  0  0  0  0  0
  191.3890  178.3500  143.4430 C   0  0  0  0  0  3  0  0  0  0  0  0
  188.3810  175.4270  143.1590 N   0  0  0  0  0  1  0  0  0  0  0  0
  190.1290  178.6190  143.9780 C   0  0  0  0  0  3  0  0  0  0  0  0
  185.5050  178.8060  140.2750 C   0  0  0  0  0  2  0  0  0  0  0  0
  186.7460  178.6200  139.5360 N   0  0  0  0  0  2  0  0  0  0  0  0
  186.7920  178.0200  138.2390 C   0  0  0  0  0  0  0  0  0  0  0  0
  185.7450  177.5710  137.7010 O   0  0  0  0  0  0  0  0  0  0  0  0
  188.0960  177.8910  137.5350 C   0  0  0  0  0  2  0  0  0  0  0  0
  189.1850  178.5740  138.3370 C   0  0  0  0  0  2  0  0  0  0  0  0
  189.9800  177.5340  139.0970 C   0  0  0  0  0  1  0  0  0  0  0  0
  1  8  1  0  0  0  0
  2  5  1  0  0  0  0
  2  1  2  0  0  0  0
  4  3  2  0  0  0  0
  5 11  2  0  0  0  0
  6 11  1  0  0  0  0
  7  2  1  0  0  0  0
  8  3  1  0  0  0  0
  9  5  1  0  0  0  0
 10  7  2  0  0  0  0
 10  9  1  0  0  0  0
 11  4  1  0  0  0  0
 12 18  1  0  0  0  0
 12  1  1  0  0  0  0
 13 16  1  0  0  0  0
 14 12  2  0  0  0  0
 15 13  2  0  0  0  0
 15 14  1  0  0  0  0
 16 18  2  0  0  0  0
 17 14  1  0  0  0  0
 19 10  1  0  0  0  0
 20 19  1  0  0  0  0
 21 20  1  0  0  0  0
 22 21  2  0  0  0  0
 23 21  1  0  0  0  0
 23 24  1  0  0  0  0
 24 25  1  0  0  0  0
M  END
>  <MODEL>
3

>  <REMARK>
 VINA RESULT:      -7.7      1.927      5.561
  Name = 
  5 active torsions:
  status: ('A' for Active; 'I' for Inactive)
    1  A    between atoms: C_1  and  C_5
    2  A    between atoms: C_2  and  C_7
    3  A    between atoms: C_2  and  C_21
    4  A    between atoms: C_6  and  N_15
    5  A    between atoms: C_6  and  C_23
                            x       y       z     vdW  Elec       q    Type
                         _______ _______ _______ _____ _____    ______ ____

>  <TORSDO>
F 5

$$$$
=
 OpenBabel10262419533D

 25 27  0  0  0  0  0  0  0  0999 V2000
  187.2540  177.7430  145.3870 C   0  0  0  0  0  0  0  0  0  0  0  0
  188.2920  177.6000  144.5310 C   0  0  0  0  0  0  0  0  0  0  0  0
  188.3670  177.1410  147.5900 C   0  0  0  0  0  3  0  0  0  0  0  0
  189.6220  176.8990  147.2420 C   0  0  0  0  0  3  0  0  0  0  0  0
  189.6190  177.2400  144.7690 C   0  0  0  0  0  0  0  0  0  0  0  0
  191.6920  176.5940  145.8980 C   0  0  0  0  0  1  0  0  0  0  0  0
  188.1440  177.7990  143.2040 N   0  0  0  0  0  0  0  0  0  0  0  0
  187.3050  177.5070  146.7670 O   0  0  0  0  0  0  0  0  0  0  0  0
  190.2820  177.2310  143.5910 N   0  0  0  0  0  2  0  0  0  0  0  0
  189.3560  177.5640  142.6780 C   0  0  0  0  0  0  0  0  0  0  0  0
  190.2380  176.9390  145.9190 C   0  0  0  0  0  0  0  0  0  0  0  0
  185.9290  178.1790  144.8760 C   0  0  0  0  0  0  0  0  0  0  0  0
  183.4820  179.0720  143.8900 C   0  0  0  0  0  3  0  0  0  0  0  0
  185.0370  178.9150  145.6830 C   0  0  0  0  0  0  0  0  0  0  0  0
  183.8460  179.3320  145.1740 N   0  0  0  0  0  0  0  0  0  0  0  0
  184.3370  178.3600  143.0520 C   0  0  0  0  0  3  0  0  0  0  0  0
  185.3490  179.2030  147.0430 N   0  0  0  0  0  1  0  0  0  0  0  0
  185.5620  177.9180  143.5480 C   0  0  0  0  0  3  0  0  0  0  0  0
  189.6610  177.7260  141.2290 C   0  0  0  0  0  2  0  0  0  0  0  0
  188.4480  177.5690  140.4390 N   0  0  0  0  0  2  0  0  0  0  0  0
  188.2330  178.2580  139.2050 C   0  0  0  0  0  0  0  0  0  0  0  0
  189.0800  179.0860  138.7750 O   0  0  0  0  0  0  0  0  0  0  0  0
  186.9800  178.0230  138.4400 C   0  0  0  0  0  2  0  0  0  0  0  0
  185.7860  178.4770  139.2560 C   0  0  0  0  0  2  0  0  0  0  0  0
  184.5110  178.1590  138.5040 C   0  0  0  0  0  1  0  0  0  0  0  0
  1  8  1  0  0  0  0
  2  5  1  0  0  0  0
  2  1  2  0  0  0  0
  4  3  2  0  0  0  0
  5 11  2  0  0  0  0
  6 11  1  0  0  0  0
  7  2  1  0  0  0  0
  8  3  1  0  0  0  0
  9  5  1  0  0  0  0
 10  7  2  0  0  0  0
 10  9  1  0  0  0  0
 11  4  1  0  0  0  0
 12  1  1  0  0  0  0
 12 14  1  0  0  0  0
 13 15  1  0  0  0  0
 14 17  1  0  0  0  0
 15 14  2  0  0  0  0
 16 18  1  0  0  0  0
 16 13  2  0  0  0  0
 18 12  2  0  0  0  0
 19 10  1  0  0  0  0
 20 19  1  0  0  0  0
 21 20  1  0  0  0  0
 22 21  2  0  0  0  0
 23 21  1  0  0  0  0
 23 24  1  0  0  0  0
 25 24  1  0  0  0  0
M  END
>  <MODEL>
4

>  <REMARK>
 VINA RESULT:      -7.7      2.174      6.786
  Name = 
  5 active torsions:
  status: ('A' for Active; 'I' for Inactive)
    1  A    between atoms: C_1  and  C_5
    2  A    between atoms: C_2  and  C_7
    3  A    between atoms: C_2  and  C_21
    4  A    between atoms: C_6  and  N_15
    5  A    between atoms: C_6  and  C_23
                            x       y       z     vdW  Elec       q    Type
                         _______ _______ _______ _____ _____    ______ ____

>  <TORSDO>
F 5

$$$$
=
 OpenBabel10262419533D

 25 27  0  0  0  0  0  0  0  0999 V2000
  187.1530  177.7750  145.1980 C   0  0  0  0  0  0  0  0  0  0  0  0
  188.0940  177.6710  144.2320 C   0  0  0  0  0  0  0  0  0  0  0  0
  188.5120  177.1580  147.2550 C   0  0  0  0  0  3  0  0  0  0  0  0
  189.7260  176.9520  146.7670 C   0  0  0  0  0  3  0  0  0  0  0  0
  189.4460  177.3370  144.3160 C   0  0  0  0  0  0  0  0  0  0  0  0
  191.6430  176.7180  145.1990 C   0  0  0  0  0  1  0  0  0  0  0  0
  187.7980  177.8920  142.9330 N   0  0  0  0  0  0  0  0  0  0  0  0
  187.3590  177.5150  146.5590 O   0  0  0  0  0  0  0  0  0  0  0  0
  189.9760  177.3660  143.0730 N   0  0  0  0  0  2  0  0  0  0  0  0
  188.9490  177.6940  142.2730 C   0  0  0  0  0  0  0  0  0  0  0  0
  190.1930  177.0300  145.3850 C   0  0  0  0  0  0  0  0  0  0  0  0
  185.7710  178.1900  144.8450 C   0  0  0  0  0  0  0  0  0  0  0  0
  183.2130  179.0480  144.1550 C   0  0  0  0  0  3  0  0  0  0  0  0
  184.9310  178.8210  145.7850 C   0  0  0  0  0  0  0  0  0  0  0  0
  183.6830  179.2240  145.4180 N   0  0  0  0  0  0  0  0  0  0  0  0
  184.0120  178.4400  143.1890 C   0  0  0  0  0  3  0  0  0  0  0  0
  185.3560  179.0180  147.1300 N   0  0  0  0  0  1  0  0  0  0  0  0
  185.2940  178.0160  143.5370 C   0  0  0  0  0  3  0  0  0  0  0  0
  189.0910  177.8890  140.8030 C   0  0  0  0  0  2  0  0  0  0  0  0
  190.0000  176.8960  140.2500 N   0  0  0  0  0  2  0  0  0  0  0  0
  190.3670  176.8660  138.8680 C   0  0  0  0  0  0  0  0  0  0  0  0
  189.8630  177.6830  138.0520 O   0  0  0  0  0  0  0  0  0  0  0  0
  191.3250  175.8370  138.3840 C   0  0  0  0  0  2  0  0  0  0  0  0
  192.6920  176.4600  138.1810 C   0  0  0  0  0  2  0  0  0  0  0  0
  193.6630  175.4030  137.7020 C   0  0  0  0  0  1  0  0  0  0  0  0
  1  8  1  0  0  0  0
  2  5  1  0  0  0  0
  2  1  2  0  0  0  0
  4  3  2  0  0  0  0
  5 11  2  0  0  0  0
  6 11  1  0  0  0  0
  7  2  1  0  0  0  0
  8  3  1  0  0  0  0
  9  5  1  0  0  0  0
 10  7  2  0  0  0  0
 10  9  1  0  0  0  0
 11  4  1  0  0  0  0
 12  1  1  0  0  0  0
 12 14  1  0  0  0  0
 13 15  1  0  0  0  0
 14 17  1  0  0  0  0
 15 14  2  0  0  0  0
 16 18  1  0  0  0  0
 16 13  2  0  0  0  0
 18 12  2  0  0  0  0
 19 10  1  0  0  0  0
 20 19  1  0  0  0  0
 21 20  1  0  0  0  0
 22 21  2  0  0  0  0
 23 21  1  0  0  0  0
 24 23  1  0  0  0  0
 25 24  1  0  0  0  0
M  END
>  <MODEL>
5

>  <REMARK>
 VINA RESULT:      -7.4      2.215      7.327
  Name = 
  5 active torsions:
  status: ('A' for Active; 'I' for Inactive)
    1  A    between atoms: C_1  and  C_5
    2  A    between atoms: C_2  and  C_7
    3  A    between atoms: C_2  and  C_21
    4  A    between atoms: C_6  and  N_15
    5  A    between atoms: C_6  and  C_23
                            x       y       z     vdW  Elec       q    Type
                         _______ _______ _______ _____ _____    ______ ____

>  <TORSDO>
F 5

$$$$
=
 OpenBabel10262419533D

 25 27  0  0  0  0  0  0  0  0999 V2000
  187.9000  177.9470  141.0950 C   0  0  0  0  0  0  0  0  0  0  0  0
  189.1890  177.7800  141.4720 C   0  0  0  0  0  0  0  0  0  0  0  0
  188.0820  177.5570  138.5910 C   0  0  0  0  0  3  0  0  0  0  0  0
  189.3660  177.2820  138.4180 C   0  0  0  0  0  3  0  0  0  0  0  0
  190.3200  177.4630  140.7180 C   0  0  0  0  0  0  0  0  0  0  0  0
  191.7860  176.8950  138.8430 C   0  0  0  0  0  1  0  0  0  0  0  0
  189.5720  177.9280  142.7580 N   0  0  0  0  0  0  0  0  0  0  0  0
  187.4250  177.8640  139.7800 O   0  0  0  0  0  0  0  0  0  0  0  0
  191.3880  177.4060  141.5440 N   0  0  0  0  0  2  0  0  0  0  0  0
  190.8950  177.7000  142.7580 C   0  0  0  0  0  0  0  0  0  0  0  0
  190.4420  177.2310  139.4040 C   0  0  0  0  0  0  0  0  0  0  0  0
  186.8640  178.2490  142.1160 C   0  0  0  0  0  0  0  0  0  0  0  0
  184.8790  178.7390  144.0070 C   0  0  0  0  0  3  0  0  0  0  0  0
  185.7100  178.9920  141.7920 C   0  0  0  0  0  0  0  0  0  0  0  0
  184.7610  179.2200  142.7410 N   0  0  0  0  0  0  0  0  0  0  0  0
  185.9960  177.9890  144.3690 C   0  0  0  0  0  3  0  0  0  0  0  0
  185.5340  179.5410  140.4890 N   0  0  0  0  0  1  0  0  0  0  0  0
  186.9850  177.7420  143.4180 C   0  0  0  0  0  3  0  0  0  0  0  0
  191.7240  177.7040  143.9950 C   0  0  0  0  0  2  0  0  0  0  0  0
  190.8680  177.6580  145.1730 N   0  0  0  0  0  2  0  0  0  0  0  0
  191.1300  176.8000  146.2860 C   0  0  0  0  0  0  0  0  0  0  0  0
  192.0990  175.9960  146.2640 O   0  0  0  0  0  0  0  0  0  0  0  0
  190.2260  176.8310  147.4670 C   0  0  0  0  0  2  0  0  0  0  0  0
  188.9220  177.5110  147.0990 C   0  0  0  0  0  2  0  0  0  0  0  0
  188.3470  178.1930  148.3220 C   0  0  0  0  0  1  0  0  0  0  0  0
  1  2  2  0  0  0  0
  1 12  1  0  0  0  0
  2  7  1  0  0  0  0
  3  8  1  0  0  0  0
  4  3  2  0  0  0  0
  4 11  1  0  0  0  0
  5  2  1  0  0  0  0
  5  9  1  0  0  0  0
  6 11  1  0  0  0  0
  8  1  1  0  0  0  0
  9 10  1  0  0  0  0
 10  7  2  0  0  0  0
 10 19  1  0  0  0  0
 11  5  2  0  0  0  0
 12 18  1  0  0  0  0
 13 16  1  0  0  0  0
 14 12  2  0  0  0  0
 14 15  1  0  0  0  0
 15 13  2  0  0  0  0
 17 14  1  0  0  0  0
 18 16  2  0  0  0  0
 19 20  1  0  0  0  0
 20 21  1  0  0  0  0
 21 23  1  0  0  0  0
 22 21  2  0  0  0  0
 24 23  1  0  0  0  0
 24 25  1  0  0  0  0
M  END
>  <MODEL>
6

>  <REMARK>
 VINA RESULT:      -7.3      2.030      4.952
  Name = 
  5 active torsions:
  status: ('A' for Active; 'I' for Inactive)
    1  A    between atoms: C_1  and  C_5
    2  A    between atoms: C_2  and  C_7
    3  A    between atoms: C_2  and  C_21
    4  A    between atoms: C_6  and  N_15
    5  A    between atoms: C_6  and  C_23
                            x       y       z     vdW  Elec       q    Type
                         _______ _______ _______ _____ _____    ______ ____

>  <TORSDO>
F 5

$$$$
=
 OpenBabel10262419533D

 25 27  0  0  0  0  0  0  0  0999 V2000
  187.8010  177.9290  144.5250 C   0  0  0  0  0  0  0  0  0  0  0  0
  186.8210  178.2510  143.6500 C   0  0  0  0  0  0  0  0  0  0  0  0
  186.5370  178.0560  146.7250 C   0  0  0  0  0  3  0  0  0  0  0  0
  185.3050  178.3670  146.3510 C   0  0  0  0  0  3  0  0  0  0  0  0
  185.4760  178.5550  143.8670 C   0  0  0  0  0  0  0  0  0  0  0  0
  183.3250  178.9520  144.9640 C   0  0  0  0  0  1  0  0  0  0  0  0
  187.0590  178.3350  142.3230 N   0  0  0  0  0  0  0  0  0  0  0  0
  187.6560  177.8690  145.9160 O   0  0  0  0  0  0  0  0  0  0  0  0
  184.8930  178.8120  142.6760 N   0  0  0  0  0  2  0  0  0  0  0  0
  185.8820  178.6770  141.7770 C   0  0  0  0  0  0  0  0  0  0  0  0
  184.7780  178.6080  145.0100 C   0  0  0  0  0  0  0  0  0  0  0  0
  189.1630  177.6080  144.0250 C   0  0  0  0  0  0  0  0  0  0  0  0
  191.6950  177.0480  143.0100 C   0  0  0  0  0  3  0  0  0  0  0  0
  189.4270  176.4070  143.3340 C   0  0  0  0  0  0  0  0  0  0  0  0
  190.6770  176.1610  142.8560 N   0  0  0  0  0  0  0  0  0  0  0  0
  191.4770  178.2530  143.6740 C   0  0  0  0  0  3  0  0  0  0  0  0
  188.4100  175.4260  143.1560 N   0  0  0  0  0  1  0  0  0  0  0  0
  190.2070  178.5320  144.1770 C   0  0  0  0  0  3  0  0  0  0  0  0
  185.6750  178.8240  140.3090 C   0  0  0  0  0  2  0  0  0  0  0  0
  184.3920  179.4580  140.0440 N   0  0  0  0  0  2  0  0  0  0  0  0
  183.2550  178.7350  139.5650 C   0  0  0  0  0  0  0  0  0  0  0  0
  183.3410  177.5070  139.2970 O   0  0  0  0  0  0  0  0  0  0  0  0
  181.9690  179.4480  139.3450 C   0  0  0  0  0  2  0  0  0  0  0  0
  180.8820  178.8250  140.1990 C   0  0  0  0  0  2  0  0  0  0  0  0
  181.1740  179.0910  141.6600 C   0  0  0  0  0  1  0  0  0  0  0  0
  1  8  1  0  0  0  0
  2  5  1  0  0  0  0
  2  1  2  0  0  0  0
  4  3  2  0  0  0  0
  5 11  2  0  0  0  0
  6 11  1  0  0  0  0
  7  2  1  0  0  0  0
  8  3  1  0  0  0  0
  9  5  1  0  0  0  0
 10  7  2  0  0  0  0
 10  9  1  0  0  0  0
 11  4  1  0  0  0  0
 12 18  1  0  0  0  0
 12  1  1  0  0  0  0
 13 16  1  0  0  0  0
 14 12  2  0  0  0  0
 15 13  2  0  0  0  0
 15 14  1  0  0  0  0
 16 18  2  0  0  0  0
 17 14  1  0  0  0  0
 19 10  1  0  0  0  0
 20 19  1  0  0  0  0
 21 20  1  0  0  0  0
 22 21  2  0  0  0  0
 23 21  1  0  0  0  0
 23 24  1  0  0  0  0
 24 25  1  0  0  0  0
M  END
>  <MODEL>
7

>  <REMARK>
 VINA RESULT:      -7.3      2.662      5.205
  Name = 
  5 active torsions:
  status: ('A' for Active; 'I' for Inactive)
    1  A    between atoms: C_1  and  C_5
    2  A    between atoms: C_2  and  C_7
    3  A    between atoms: C_2  and  C_21
    4  A    between atoms: C_6  and  N_15
    5  A    between atoms: C_6  and  C_23
                            x       y       z     vdW  Elec       q    Type
                         _______ _______ _______ _____ _____    ______ ____

>  <TORSDO>
F 5

$$$$
=
 OpenBabel10262419533D

 25 27  0  0  0  0  0  0  0  0999 V2000
  185.6200  178.3610  144.6070 C   0  0  0  0  0  0  0  0  0  0  0  0
  185.9090  178.3950  143.2870 C   0  0  0  0  0  0  0  0  0  0  0  0
  183.1080  178.7400  144.5540 C   0  0  0  0  0  3  0  0  0  0  0  0
  182.8400  178.8260  143.2590 C   0  0  0  0  0  3  0  0  0  0  0  0
  185.0770  178.5700  142.1800 C   0  0  0  0  0  0  0  0  0  0  0  0
  183.0930  178.9000  140.7860 C   0  0  0  0  0  1  0  0  0  0  0  0
  187.1770  178.2600  142.8390 N   0  0  0  0  0  0  0  0  0  0  0  0
  184.3460  178.5430  145.1610 O   0  0  0  0  0  0  0  0  0  0  0  0
  185.8320  178.5290  141.0600 N   0  0  0  0  0  2  0  0  0  0  0  0
  187.0880  178.3510  141.5030 C   0  0  0  0  0  0  0  0  0  0  0  0
  183.7500  178.7490  142.1200 C   0  0  0  0  0  0  0  0  0  0  0  0
  186.7010  178.1200  145.5960 C   0  0  0  0  0  0  0  0  0  0  0  0
  188.6880  177.5920  147.4760 C   0  0  0  0  0  3  0  0  0  0  0  0
  186.6170  178.6190  146.9130 C   0  0  0  0  0  0  0  0  0  0  0  0
  187.6070  178.3480  147.8060 N   0  0  0  0  0  0  0  0  0  0  0  0
  188.8080  177.0680  146.1910 C   0  0  0  0  0  3  0  0  0  0  0  0
  185.5210  179.4340  147.3180 N   0  0  0  0  0  1  0  0  0  0  0  0
  187.8090  177.3310  145.2540 C   0  0  0  0  0  3  0  0  0  0  0  0
  188.2580  178.1980  140.5950 C   0  0  0  0  0  2  0  0  0  0  0  0
  189.4910  178.1530  141.3690 N   0  0  0  0  0  2  0  0  0  0  0  0
  190.5300  177.2040  141.1150 C   0  0  0  0  0  0  0  0  0  0  0  0
  190.3890  176.3180  140.2310 O   0  0  0  0  0  0  0  0  0  0  0  0
  191.7740  177.2400  141.9300 C   0  0  0  0  0  2  0  0  0  0  0  0
  191.4240  177.2540  143.4040 C   0  0  0  0  0  2  0  0  0  0  0  0
  191.6380  175.8730  143.9860 C   0  0  0  0  0  1  0  0  0  0  0  0
  1  8  1  0  0  0  0
  1 12  1  0  0  0  0
  2  1  2  0  0  0  0
  3  8  1  0  0  0  0
  4  3  2  0  0  0  0
  5  2  1  0  0  0  0
  6 11  1  0  0  0  0
  7  2  1  0  0  0  0
  9 10  1  0  0  0  0
  9  5  1  0  0  0  0
 10  7  2  0  0  0  0
 11  5  2  0  0  0  0
 11  4  1  0  0  0  0
 12 14  1  0  0  0  0
 13 15  1  0  0  0  0
 14 17  1  0  0  0  0
 14 15  2  0  0  0  0
 16 13  2  0  0  0  0
 18 12  2  0  0  0  0
 18 16  1  0  0  0  0
 19 20  1  0  0  0  0
 19 10  1  0  0  0  0
 21 20  1  0  0  0  0
 21 23  1  0  0  0  0
 22 21  2  0  0  0  0
 23 24  1  0  0  0  0
 24 25  1  0  0  0  0
M  END
>  <MODEL>
8

>  <REMARK>
 VINA RESULT:      -7.3      1.921      5.843
  Name = 
  5 active torsions:
  status: ('A' for Active; 'I' for Inactive)
    1  A    between atoms: C_1  and  C_5
    2  A    between atoms: C_2  and  C_7
    3  A    between atoms: C_2  and  C_21
    4  A    between atoms: C_6  and  N_15
    5  A    between atoms: C_6  and  C_23
                            x       y       z     vdW  Elec       q    Type
                         _______ _______ _______ _____ _____    ______ ____

>  <TORSDO>
F 5

$$$$
=
 OpenBabel10262419533D

 25 27  0  0  0  0  0  0  0  0999 V2000
  190.0170  177.6830  140.0420 C   0  0  0  0  0  0  0  0  0  0  0  0
  189.0470  177.9000  140.9600 C   0  0  0  0  0  0  0  0  0  0  0  0
  192.0410  177.3840  141.5490 C   0  0  0  0  0  3  0  0  0  0  0  0
  191.5330  177.5010  142.7670 C   0  0  0  0  0  3  0  0  0  0  0  0
  189.1100  177.9370  142.3530 C   0  0  0  0  0  0  0  0  0  0  0  0
  189.9460  177.8410  144.6510 C   0  0  0  0  0  1  0  0  0  0  0  0
  187.7700  178.1430  140.5930 N   0  0  0  0  0  0  0  0  0  0  0  0
  191.3710  177.4740  140.3310 O   0  0  0  0  0  0  0  0  0  0  0  0
  187.8730  178.1890  142.8350 N   0  0  0  0  0  2  0  0  0  0  0  0
  187.1020  178.3150  141.7430 C   0  0  0  0  0  0  0  0  0  0  0  0
  190.1550  177.7610  143.1740 C   0  0  0  0  0  0  0  0  0  0  0  0
  189.6750  177.6580  138.5960 C   0  0  0  0  0  0  0  0  0  0  0  0
  188.9530  177.5810  135.9070 C   0  0  0  0  0  3  0  0  0  0  0  0
  189.8960  176.5080  137.8100 C   0  0  0  0  0  0  0  0  0  0  0  0
  189.5370  176.5050  136.4970 N   0  0  0  0  0  0  0  0  0  0  0  0
  188.7040  178.7350  136.6490 C   0  0  0  0  0  3  0  0  0  0  0  0
  190.5230  175.3530  138.3610 N   0  0  0  0  0  1  0  0  0  0  0  0
  189.0630  178.7670  137.9950 C   0  0  0  0  0  3  0  0  0  0  0  0
  185.6330  178.5530  141.8050 C   0  0  0  0  0  2  0  0  0  0  0  0
  185.1150  178.1600  143.1090 N   0  0  0  0  0  2  0  0  0  0  0  0
  184.7560  179.1080  144.1170 C   0  0  0  0  0  0  0  0  0  0  0  0
  184.9310  180.3410  143.9300 O   0  0  0  0  0  0  0  0  0  0  0  0
  184.2060  178.6300  145.4130 C   0  0  0  0  0  2  0  0  0  0  0  0
  185.2500  178.7790  146.5020 C   0  0  0  0  0  2  0  0  0  0  0  0
  186.4050  177.8390  146.2260 C   0  0  0  0  0  1  0  0  0  0  0  0
  1  8  1  0  0  0  0
  1  2  2  0  0  0  0
  2  5  1  0  0  0  0
  3  4  2  0  0  0  0
  4 11  1  0  0  0  0
  5  9  1  0  0  0  0
  5 11  2  0  0  0  0
  7  2  1  0  0  0  0
  7 10  2  0  0  0  0
  8  3  1  0  0  0  0
 10 19  1  0  0  0  0
 10  9  1  0  0  0  0
 11  6  1  0  0  0  0
 12  1  1  0  0  0  0
 13 15  2  0  0  0  0
 13 16  1  0  0  0  0
 14 17  1  0  0  0  0
 14 12  2  0  0  0  0
 15 14  1  0  0  0  0
 16 18  2  0  0  0  0
 18 12  1  0  0  0  0
 19 20  1  0  0  0  0
 20 21  1  0  0  0  0
 21 23  1  0  0  0  0
 22 21  2  0  0  0  0
 23 24  1  0  0  0  0
 25 24  1  0  0  0  0
M  END
>  <MODEL>
9

>  <REMARK>
 VINA RESULT:      -7.2      1.711      4.357
  Name = 
  5 active torsions:
  status: ('A' for Active; 'I' for Inactive)
    1  A    between atoms: C_1  and  C_5
    2  A    between atoms: C_2  and  C_7
    3  A    between atoms: C_2  and  C_21
    4  A    between atoms: C_6  and  N_15
    5  A    between atoms: C_6  and  C_23
                            x       y       z     vdW  Elec       q    Type
                         _______ _______ _______ _____ _____    ______ ____

>  <TORSDO>
F 5

$$$$
