=
 OpenBabel10262419513D

 25 27  0  0  1  0  0  0  0  0999 V2000
  189.2920  177.3880  145.9180 C   0  0  0  0  0  0  0  0  0  0  0  0
  187.9950  177.6480  145.6490 C   0  0  0  0  0  0  0  0  0  0  0  0
  188.8290  177.6960  148.4060 C   0  0  0  0  0  3  0  0  0  0  0  0
  187.5450  177.9250  148.1450 C   0  0  0  0  0  3  0  0  0  0  0  0
  185.8820  178.7360  146.4430 C   0  0  0  0  0  0  0  0  0  0  0  0
  185.3240  179.3620  147.3310 O   0  0  0  0  0  0  0  0  0  0  0  0
  187.5310  177.7900  144.2180 C   0  0  0  0  0  2  0  0  0  0  0  0
  189.7470  177.3230  147.3280 C   0  0  0  0  0  0  0  0  0  0  0  0
  190.9310  176.9970  147.6110 O   0  0  0  0  0  0  0  0  0  0  0  0
  185.4380  178.9420  145.0210 C   0  0  0  0  0  2  0  0  0  0  0  0
  186.0070  177.8640  144.1020 C   0  0  1  0  0  3  0  0  0  0  0  0
  186.9610  177.7270  146.7680 C   0  0  1  0  0  3  0  0  0  0  0  0
  190.2820  177.2150  144.7950 C   0  0  1  0  0  3  0  0  0  0  0  0
  191.5860  177.0980  142.3100 C   0  0  0  0  0  2  0  0  0  0  0  0
  189.7720  176.2750  143.7340 C   0  0  0  0  0  3  0  0  0  0  0  0
  190.3980  176.2140  142.5550 C   0  0  0  0  0  3  0  0  0  0  0  0
  191.2620  178.5180  142.7790 C   0  0  0  0  0  2  0  0  0  0  0  0
  190.7580  178.5700  144.2350 C   0  0  0  0  0  2  0  0  0  0  0  0
  185.6020  178.1560  142.6690 C   0  0  0  0  0  2  0  0  0  0  0  0
  187.0640  178.5770  141.6740 S   0  0  0  0  0  0  0  0  0  0  0  0
  186.0900  178.6030  140.1420 C   0  0  0  0  0  2  0  0  0  0  0  0
  186.9670  178.4070  138.9990 N   0  0  0  0  0  2  0  0  0  0  0  0
  188.2570  177.9910  139.5180 C   0  0  0  0  0  2  0  0  0  0  0  0
  189.3540  178.4860  138.6000 C   0  0  0  0  0  2  0  0  0  0  0  0
  188.8960  179.5870  137.8790 O   0  0  0  0  0  1  0  0  0  0  0  0
  1  8  1  0  0  0  0
  2  1  2  0  0  0  0
  2 12  1  0  0  0  0
  4  3  2  0  0  0  0
  5 12  1  0  0  0  0
  5  6  2  0  0  0  0
  7  2  1  0  0  0  0
  8  9  2  0  0  0  0
  8  3  1  0  0  0  0
 10  5  1  0  0  0  0
 11 19  1  6  0  0  0
 11  7  1  0  0  0  0
 11 10  1  0  0  0  0
 12  4  1  1  0  0  0
 13  1  1  1  0  0  0
 14 16  1  0  0  0  0
 14 17  1  0  0  0  0
 15 13  1  0  0  0  0
 16 15  2  0  0  0  0
 17 18  1  0  0  0  0
 18 13  1  0  0  0  0
 20 19  1  0  0  0  0
 21 20  1  0  0  0  0
 22 23  1  0  0  0  0
 22 21  1  0  0  0  0
 24 23  1  0  0  0  0
 25 24  1  0  0  0  0
M  END
>  <MODEL>
1

>  <REMARK>
 VINA RESULT:      -8.9      0.000      0.000
  Name = 
  7 active torsions:
  status: ('A' for Active; 'I' for Inactive)
    1  A    between atoms: C_1  and  C_5
    2  A    between atoms: C_2  and  C_12
    3  A    between atoms: C_6  and  S_15
    4  A    between atoms: C_6  and  C_23
    5  A    between atoms: C_12  and  N_25
    6  A    between atoms: S_15  and  C_21
    7  A    between atoms: C_21  and  N_25
                            x       y       z     vdW  Elec       q    Type
                         _______ _______ _______ _____ _____    ______ ____

>  <TORSDO>
F 7

$$$$
=
 OpenBabel10262419513D

 25 27  0  0  1  0  0  0  0  0999 V2000
  189.3510  177.3890  145.9800 C   0  0  0  0  0  0  0  0  0  0  0  0
  188.0530  177.6450  145.7050 C   0  0  0  0  0  0  0  0  0  0  0  0
  188.8900  177.7710  148.4590 C   0  0  0  0  0  3  0  0  0  0  0  0
  187.6060  177.9960  148.1920 C   0  0  0  0  0  3  0  0  0  0  0  0
  185.9440  178.7620  146.4680 C   0  0  0  0  0  0  0  0  0  0  0  0
  185.3890  179.4150  147.3380 O   0  0  0  0  0  0  0  0  0  0  0  0
  187.5890  177.7470  144.2700 C   0  0  0  0  0  2  0  0  0  0  0  0
  189.8060  177.3640  147.3920 C   0  0  0  0  0  0  0  0  0  0  0  0
  190.9890  177.0430  147.6830 O   0  0  0  0  0  0  0  0  0  0  0  0
  185.5010  178.9280  145.0410 C   0  0  0  0  0  2  0  0  0  0  0  0
  186.0660  177.8220  144.1530 C   0  0  1  0  0  3  0  0  0  0  0  0
  187.0210  177.7600  146.8210 C   0  0  1  0  0  3  0  0  0  0  0  0
  190.3380  177.1800  144.8630 C   0  0  1  0  0  3  0  0  0  0  0  0
  191.6390  176.9830  142.3810 C   0  0  0  0  0  2  0  0  0  0  0  0
  189.8290  176.2050  143.8330 C   0  0  0  0  0  3  0  0  0  0  0  0
  190.4540  176.1050  142.6560 C   0  0  0  0  0  3  0  0  0  0  0  0
  191.3150  178.4170  142.8030 C   0  0  0  0  0  2  0  0  0  0  0  0
  190.8120  178.5170  144.2570 C   0  0  0  0  0  2  0  0  0  0  0  0
  185.6610  178.0730  142.7120 C   0  0  0  0  0  2  0  0  0  0  0  0
  184.0040  178.8180  142.6440 S   0  0  0  0  0  0  0  0  0  0  0  0
  183.8650  178.4960  140.8630 C   0  0  0  0  0  2  0  0  0  0  0  0
  184.7380  179.3970  140.1300 N   0  0  0  0  0  2  0  0  0  0  0  0
  184.6570  179.0240  138.7300 C   0  0  0  0  0  2  0  0  0  0  0  0
  185.8860  178.2270  138.3480 C   0  0  0  0  0  2  0  0  0  0  0  0
  186.9300  178.5380  139.2160 O   0  0  0  0  0  1  0  0  0  0  0  0
  1  8  1  0  0  0  0
  2  1  2  0  0  0  0
  2 12  1  0  0  0  0
  4  3  2  0  0  0  0
  5 12  1  0  0  0  0
  5  6  2  0  0  0  0
  7  2  1  0  0  0  0
  8  9  2  0  0  0  0
  8  3  1  0  0  0  0
 10  5  1  0  0  0  0
 11 19  1  6  0  0  0
 11  7  1  0  0  0  0
 11 10  1  0  0  0  0
 12  4  1  1  0  0  0
 13  1  1  1  0  0  0
 14 16  1  0  0  0  0
 14 17  1  0  0  0  0
 15 13  1  0  0  0  0
 16 15  2  0  0  0  0
 17 18  1  0  0  0  0
 18 13  1  0  0  0  0
 20 19  1  0  0  0  0
 21 20  1  0  0  0  0
 22 21  1  0  0  0  0
 23 22  1  0  0  0  0
 24 23  1  0  0  0  0
 24 25  1  0  0  0  0
M  END
>  <MODEL>
2

>  <REMARK>
 VINA RESULT:      -8.8      1.373      1.508
  Name = 
  7 active torsions:
  status: ('A' for Active; 'I' for Inactive)
    1  A    between atoms: C_1  and  C_5
    2  A    between atoms: C_2  and  C_12
    3  A    between atoms: C_6  and  S_15
    4  A    between atoms: C_6  and  C_23
    5  A    between atoms: C_12  and  N_25
    6  A    between atoms: S_15  and  C_21
    7  A    between atoms: C_21  and  N_25
                            x       y       z     vdW  Elec       q    Type
                         _______ _______ _______ _____ _____    ______ ____

>  <TORSDO>
F 7

$$$$
=
 OpenBabel10262419513D

 25 27  0  0  1  0  0  0  0  0999 V2000
  188.0670  177.6780  144.7410 C   0  0  0  0  0  0  0  0  0  0  0  0
  186.8150  177.9230  144.2980 C   0  0  0  0  0  0  0  0  0  0  0  0
  187.2020  177.6490  147.1400 C   0  0  0  0  0  3  0  0  0  0  0  0
  185.9640  177.8620  146.7030 C   0  0  0  0  0  3  0  0  0  0  0  0
  184.5450  178.8220  144.8630 C   0  0  0  0  0  0  0  0  0  0  0  0
  183.8210  179.3090  145.7170 O   0  0  0  0  0  0  0  0  0  0  0  0
  186.5740  178.2300  142.8380 C   0  0  0  0  0  2  0  0  0  0  0  0
  188.2980  177.4500  146.1890 C   0  0  0  0  0  0  0  0  0  0  0  0
  189.4390  177.1340  146.6190 O   0  0  0  0  0  0  0  0  0  0  0  0
  184.3200  179.1930  143.4230 C   0  0  0  0  0  2  0  0  0  0  0  0
  185.0860  178.2620  142.4860 C   0  0  1  0  0  3  0  0  0  0  0  0
  185.6160  177.8210  145.2350 C   0  0  1  0  0  3  0  0  0  0  0  0
  189.2280  177.6860  143.7820 C   0  0  1  0  0  3  0  0  0  0  0  0
  191.7580  177.5510  142.5690 C   0  0  0  0  0  2  0  0  0  0  0  0
  190.3090  178.6440  144.2120 C   0  0  0  0  0  3  0  0  0  0  0  0
  191.5090  178.5840  143.6280 C   0  0  0  0  0  3  0  0  0  0  0  0
  191.2220  176.1990  143.0480 C   0  0  0  0  0  2  0  0  0  0  0  0
  189.7490  176.2630  143.4980 C   0  0  0  0  0  2  0  0  0  0  0  0
  184.8950  178.7210  141.0520 C   0  0  0  0  0  2  0  0  0  0  0  0
  183.4440  177.9080  140.3180 S   0  0  0  0  0  0  0  0  0  0  0  0
  184.1760  177.9610  138.6580 C   0  0  0  0  0  2  0  0  0  0  0  0
  185.4210  178.7100  138.6930 N   0  0  0  0  0  2  0  0  0  0  0  0
  186.2750  178.1670  137.6520 C   0  0  0  0  0  2  0  0  0  0  0  0
  187.6010  177.7510  138.2520 C   0  0  0  0  0  2  0  0  0  0  0  0
  187.9190  178.6000  139.3100 O   0  0  0  0  0  1  0  0  0  0  0  0
  1  8  1  0  0  0  0
  2  1  2  0  0  0  0
  2 12  1  0  0  0  0
  4  3  2  0  0  0  0
  5 12  1  0  0  0  0
  5  6  2  0  0  0  0
  7  2  1  0  0  0  0
  8  9  2  0  0  0  0
  8  3  1  0  0  0  0
 10  5  1  0  0  0  0
 11 19  1  6  0  0  0
 11  7  1  0  0  0  0
 11 10  1  0  0  0  0
 12  4  1  1  0  0  0
 13 15  1  0  0  0  0
 13  1  1  1  0  0  0
 14 17  1  0  0  0  0
 14 16  1  0  0  0  0
 16 15  2  0  0  0  0
 17 18  1  0  0  0  0
 18 13  1  0  0  0  0
 20 19  1  0  0  0  0
 21 22  1  0  0  0  0
 21 20  1  0  0  0  0
 23 24  1  0  0  0  0
 23 22  1  0  0  0  0
 24 25  1  0  0  0  0
M  END
>  <MODEL>
3

>  <REMARK>
 VINA RESULT:      -8.6      1.562      2.168
  Name = 
  7 active torsions:
  status: ('A' for Active; 'I' for Inactive)
    1  A    between atoms: C_1  and  C_5
    2  A    between atoms: C_2  and  C_12
    3  A    between atoms: C_6  and  S_15
    4  A    between atoms: C_6  and  C_23
    5  A    between atoms: C_12  and  N_25
    6  A    between atoms: S_15  and  C_21
    7  A    between atoms: C_21  and  N_25
                            x       y       z     vdW  Elec       q    Type
                         _______ _______ _______ _____ _____    ______ ____

>  <TORSDO>
F 7

$$$$
=
 OpenBabel10262419513D

 25 27  0  0  1  0  0  0  0  0999 V2000
  188.8620  177.4990  145.2900 C   0  0  0  0  0  0  0  0  0  0  0  0
  187.5300  177.6940  145.1840 C   0  0  0  0  0  0  0  0  0  0  0  0
  188.6600  177.5650  147.8310 C   0  0  0  0  0  3  0  0  0  0  0  0
  187.3440  177.7300  147.7290 C   0  0  0  0  0  3  0  0  0  0  0  0
  185.4600  178.5700  146.2920 C   0  0  0  0  0  0  0  0  0  0  0  0
  184.9700  179.0810  147.2870 O   0  0  0  0  0  0  0  0  0  0  0  0
  186.9030  177.9260  143.8290 C   0  0  0  0  0  2  0  0  0  0  0  0
  189.4730  177.3450  146.6330 C   0  0  0  0  0  0  0  0  0  0  0  0
  190.6970  177.0750  146.7590 O   0  0  0  0  0  0  0  0  0  0  0  0
  184.8510  178.8660  144.9500 C   0  0  0  0  0  2  0  0  0  0  0  0
  185.3740  177.9090  143.8810 C   0  0  1  0  0  3  0  0  0  0  0  0
  186.6230  177.6110  146.4080 C   0  0  1  0  0  3  0  0  0  0  0  0
  189.7290  177.4870  144.0580 C   0  0  1  0  0  3  0  0  0  0  0  0
  191.8620  177.4390  142.2310 C   0  0  0  0  0  2  0  0  0  0  0  0
  190.7380  178.6060  144.0670 C   0  0  0  0  0  3  0  0  0  0  0  0
  191.7470  178.5870  143.1920 C   0  0  0  0  0  3  0  0  0  0  0  0
  191.6600  176.1250  142.9890 C   0  0  0  0  0  2  0  0  0  0  0  0
  190.3550  176.1000  143.8110 C   0  0  0  0  0  2  0  0  0  0  0  0
  184.7970  178.2940  142.5310 C   0  0  0  0  0  2  0  0  0  0  0  0
  186.0900  179.0110  141.4740 S   0  0  0  0  0  0  0  0  0  0  0  0
  185.1340  178.6720  139.9680 C   0  0  0  0  0  2  0  0  0  0  0  0
  184.6030  179.9150  139.4330 N   0  0  0  0  0  2  0  0  0  0  0  0
  183.2020  179.6840  139.1320 C   0  0  0  0  0  2  0  0  0  0  0  0
  182.8740  178.2210  139.3430 C   0  0  0  0  0  2  0  0  0  0  0  0
  181.7990  178.1080  140.2220 O   0  0  0  0  0  1  0  0  0  0  0  0
  1  8  1  0  0  0  0
  2  1  2  0  0  0  0
  2 12  1  0  0  0  0
  4  3  2  0  0  0  0
  5 12  1  0  0  0  0
  5  6  2  0  0  0  0
  7 11  1  0  0  0  0
  7  2  1  0  0  0  0
  8  9  2  0  0  0  0
  8  3  1  0  0  0  0
 10  5  1  0  0  0  0
 11 19  1  6  0  0  0
 11 10  1  0  0  0  0
 12  4  1  1  0  0  0
 13 15  1  0  0  0  0
 13  1  1  1  0  0  0
 14 17  1  0  0  0  0
 14 16  1  0  0  0  0
 16 15  2  0  0  0  0
 17 18  1  0  0  0  0
 18 13  1  0  0  0  0
 20 19  1  0  0  0  0
 21 20  1  0  0  0  0
 22 21  1  0  0  0  0
 23 24  1  0  0  0  0
 23 22  1  0  0  0  0
 24 25  1  0  0  0  0
M  END
>  <MODEL>
4

>  <REMARK>
 VINA RESULT:      -8.5      2.074      2.630
  Name = 
  7 active torsions:
  status: ('A' for Active; 'I' for Inactive)
    1  A    between atoms: C_1  and  C_5
    2  A    between atoms: C_2  and  C_12
    3  A    between atoms: C_6  and  S_15
    4  A    between atoms: C_6  and  C_23
    5  A    between atoms: C_12  and  N_25
    6  A    between atoms: S_15  and  C_21
    7  A    between atoms: C_21  and  N_25
                            x       y       z     vdW  Elec       q    Type
                         _______ _______ _______ _____ _____    ______ ____

>  <TORSDO>
F 7

$$$$
=
 OpenBabel10262419513D

 25 27  0  0  1  0  0  0  0  0999 V2000
  188.0450  177.7250  144.8180 C   0  0  0  0  0  0  0  0  0  0  0  0
  186.7800  177.9230  144.3890 C   0  0  0  0  0  0  0  0  0  0  0  0
  187.2290  177.8030  147.2320 C   0  0  0  0  0  3  0  0  0  0  0  0
  185.9790  177.9700  146.8110 C   0  0  0  0  0  3  0  0  0  0  0  0
  184.5050  178.8080  144.9550 C   0  0  0  0  0  0  0  0  0  0  0  0
  183.7890  179.3250  145.7980 O   0  0  0  0  0  0  0  0  0  0  0  0
  186.5040  178.1500  142.9210 C   0  0  0  0  0  2  0  0  0  0  0  0
  188.3100  177.5760  146.2700 C   0  0  0  0  0  0  0  0  0  0  0  0
  189.4650  177.3030  146.6920 O   0  0  0  0  0  0  0  0  0  0  0  0
  184.2430  179.1000  143.5030 C   0  0  0  0  0  2  0  0  0  0  0  0
  185.0090  178.1370  142.5980 C   0  0  1  0  0  3  0  0  0  0  0  0
  185.6020  177.8470  145.3550 C   0  0  1  0  0  3  0  0  0  0  0  0
  189.1870  177.7050  143.8350 C   0  0  1  0  0  3  0  0  0  0  0  0
  191.6900  177.5230  142.5740 C   0  0  0  0  0  2  0  0  0  0  0  0
  190.2870  178.6570  144.2280 C   0  0  0  0  0  3  0  0  0  0  0  0
  191.4740  178.5750  143.6220 C   0  0  0  0  0  3  0  0  0  0  0  0
  191.1480  176.1850  143.0830 C   0  0  0  0  0  2  0  0  0  0  0  0
  189.6860  176.2720  143.5630 C   0  0  0  0  0  2  0  0  0  0  0  0
  184.7800  178.5170  141.1470 C   0  0  0  0  0  2  0  0  0  0  0  0
  183.2850  177.7030  140.5100 S   0  0  0  0  0  0  0  0  0  0  0  0
  182.5420  179.2930  140.0440 C   0  0  0  0  0  2  0  0  0  0  0  0
  181.1330  179.2990  140.3980 N   0  0  0  0  0  2  0  0  0  0  0  0
  181.0300  178.7630  141.7440 C   0  0  0  0  0  2  0  0  0  0  0  0
  180.1340  179.6570  142.5750 C   0  0  0  0  0  2  0  0  0  0  0  0
  179.9130  180.8540  141.8970 O   0  0  0  0  0  1  0  0  0  0  0  0
  1  8  1  0  0  0  0
  2  1  2  0  0  0  0
  2 12  1  0  0  0  0
  4  3  2  0  0  0  0
  5 12  1  0  0  0  0
  5  6  2  0  0  0  0
  7  2  1  0  0  0  0
  8  9  2  0  0  0  0
  8  3  1  0  0  0  0
 10  5  1  0  0  0  0
 11 19  1  6  0  0  0
 11  7  1  0  0  0  0
 11 10  1  0  0  0  0
 12  4  1  1  0  0  0
 13 15  1  0  0  0  0
 13  1  1  1  0  0  0
 14 17  1  0  0  0  0
 14 16  1  0  0  0  0
 16 15  2  0  0  0  0
 17 18  1  0  0  0  0
 18 13  1  0  0  0  0
 20 19  1  0  0  0  0
 21 22  1  0  0  0  0
 21 20  1  0  0  0  0
 22 23  1  0  0  0  0
 23 24  1  0  0  0  0
 25 24  1  0  0  0  0
M  END
>  <MODEL>
5

>  <REMARK>
 VINA RESULT:      -8.2      2.872      4.000
  Name = 
  7 active torsions:
  status: ('A' for Active; 'I' for Inactive)
    1  A    between atoms: C_1  and  C_5
    2  A    between atoms: C_2  and  C_12
    3  A    between atoms: C_6  and  S_15
    4  A    between atoms: C_6  and  C_23
    5  A    between atoms: C_12  and  N_25
    6  A    between atoms: S_15  and  C_21
    7  A    between atoms: C_21  and  N_25
                            x       y       z     vdW  Elec       q    Type
                         _______ _______ _______ _____ _____    ______ ____

>  <TORSDO>
F 7

$$$$
=
 OpenBabel10262419513D

 25 27  0  0  1  0  0  0  0  0999 V2000
  187.8670  177.5830  145.2230 C   0  0  0  0  0  0  0  0  0  0  0  0
  186.9110  177.9440  144.3400 C   0  0  0  0  0  0  0  0  0  0  0  0
  186.2790  178.1140  147.1460 C   0  0  0  0  0  3  0  0  0  0  0  0
  185.3270  178.4440  146.2770 C   0  0  0  0  0  3  0  0  0  0  0  0
  184.8270  179.2820  143.9600 C   0  0  0  0  0  0  0  0  0  0  0  0
  183.9830  180.0220  144.4430 O   0  0  0  0  0  0  0  0  0  0  0  0
  187.2320  178.0250  142.8660 C   0  0  0  0  0  2  0  0  0  0  0  0
  187.5570  177.5780  146.6740 C   0  0  0  0  0  0  0  0  0  0  0  0
  188.4000  177.1630  147.5130 O   0  0  0  0  0  0  0  0  0  0  0  0
  185.1690  179.4260  142.5030 C   0  0  0  0  0  2  0  0  0  0  0  0
  185.9840  178.2340  142.0060 C   0  0  1  0  0  3  0  0  0  0  0  0
  185.4790  178.2030  144.7950 C   0  0  1  0  0  3  0  0  0  0  0  0
  189.2520  177.2350  144.7440 C   0  0  1  0  0  3  0  0  0  0  0  0
  191.5820  176.8030  143.2360 C   0  0  0  0  0  2  0  0  0  0  0  0
  189.2240  176.2550  143.6000 C   0  0  0  0  0  3  0  0  0  0  0  0
  190.3360  176.0440  142.8890 C   0  0  0  0  0  3  0  0  0  0  0  0
  191.2340  178.2800  143.4380 C   0  0  0  0  0  2  0  0  0  0  0  0
  190.0920  178.4950  144.4500 C   0  0  0  0  0  2  0  0  0  0  0  0
  186.3750  178.4580  140.5570 C   0  0  0  0  0  2  0  0  0  0  0  0
  188.1780  178.3340  140.3630 S   0  0  0  0  0  0  0  0  0  0  0  0
  188.0230  177.9280  138.6000 C   0  0  0  0  0  2  0  0  0  0  0  0
  189.3100  177.5010  138.0790 N   0  0  0  0  0  2  0  0  0  0  0  0
  190.2570  177.5650  139.1780 C   0  0  0  0  0  2  0  0  0  0  0  0
  191.3180  176.5020  138.9930 C   0  0  0  0  0  2  0  0  0  0  0  0
  190.7240  175.3250  138.5390 O   0  0  0  0  0  1  0  0  0  0  0  0
  1  8  1  0  0  0  0
  2 12  1  0  0  0  0
  2  1  2  0  0  0  0
  4  3  2  0  0  0  0
  5  6  2  0  0  0  0
  5 12  1  0  0  0  0
  7  2  1  0  0  0  0
  8  3  1  0  0  0  0
  8  9  2  0  0  0  0
 10  5  1  0  0  0  0
 11 19  1  6  0  0  0
 11 10  1  0  0  0  0
 11  7  1  0  0  0  0
 12  4  1  1  0  0  0
 13  1  1  6  0  0  0
 14 17  1  0  0  0  0
 15 13  1  0  0  0  0
 16 14  1  0  0  0  0
 16 15  2  0  0  0  0
 17 18  1  0  0  0  0
 18 13  1  0  0  0  0
 20 19  1  0  0  0  0
 21 20  1  0  0  0  0
 22 21  1  0  0  0  0
 22 23  1  0  0  0  0
 24 23  1  0  0  0  0
 25 24  1  0  0  0  0
M  END
>  <MODEL>
6

>  <REMARK>
 VINA RESULT:      -8.2      1.707      2.292
  Name = 
  7 active torsions:
  status: ('A' for Active; 'I' for Inactive)
    1  A    between atoms: C_1  and  C_5
    2  A    between atoms: C_2  and  C_12
    3  A    between atoms: C_6  and  S_15
    4  A    between atoms: C_6  and  C_23
    5  A    between atoms: C_12  and  N_25
    6  A    between atoms: S_15  and  C_21
    7  A    between atoms: C_21  and  N_25
                            x       y       z     vdW  Elec       q    Type
                         _______ _______ _______ _____ _____    ______ ____

>  <TORSDO>
F 7

$$$$
=
 OpenBabel10262419513D

 25 27  0  0  1  0  0  0  0  0999 V2000
  186.1040  178.3610  144.9640 C   0  0  0  0  0  0  0  0  0  0  0  0
  186.4440  178.2070  143.6660 C   0  0  0  0  0  0  0  0  0  0  0  0
  183.7230  178.9440  144.2600 C   0  0  0  0  0  3  0  0  0  0  0  0
  184.0500  178.7650  142.9820 C   0  0  0  0  0  3  0  0  0  0  0  0
  185.9090  178.7910  141.2890 C   0  0  0  0  0  0  0  0  0  0  0  0
  185.1610  179.3810  140.5240 O   0  0  0  0  0  0  0  0  0  0  0  0
  187.8880  177.9740  143.2840 C   0  0  0  0  0  2  0  0  0  0  0  0
  184.6950  178.6610  145.3180 C   0  0  0  0  0  0  0  0  0  0  0  0
  184.3310  178.7240  146.5220 O   0  0  0  0  0  0  0  0  0  0  0  0
  187.3540  178.6270  140.9090 C   0  0  0  0  0  2  0  0  0  0  0  0
  188.0500  177.6070  141.8080 C   0  0  1  0  0  3  0  0  0  0  0  0
  185.3830  178.1870  142.5720 C   0  0  1  0  0  3  0  0  0  0  0  0
  187.1540  178.2790  146.0410 C   0  0  1  0  0  3  0  0  0  0  0  0
  188.6000  177.8090  148.4020 C   0  0  0  0  0  2  0  0  0  0  0  0
  186.6880  178.9000  147.3320 C   0  0  0  0  0  3  0  0  0  0  0  0
  187.3810  178.6820  148.4530 C   0  0  0  0  0  3  0  0  0  0  0  0
  188.2810  176.5430  147.6030 C   0  0  0  0  0  2  0  0  0  0  0  0
  187.6920  176.8450  146.2100 C   0  0  0  0  0  2  0  0  0  0  0  0
  189.5210  177.5320  141.4420 C   0  0  0  0  0  2  0  0  0  0  0  0
  190.5510  177.8900  142.8960 S   0  0  0  0  0  0  0  0  0  0  0  0
  190.9250  176.1310  143.1420 C   0  0  0  0  0  2  0  0  0  0  0  0
  191.7700  175.9670  144.3130 N   0  0  0  0  0  2  0  0  0  0  0  0
  191.3340  176.9440  145.2940 C   0  0  0  0  0  2  0  0  0  0  0  0
  191.7930  176.5170  146.6710 C   0  0  0  0  0  2  0  0  0  0  0  0
  192.3130  175.2250  146.6080 O   0  0  0  0  0  1  0  0  0  0  0  0
  1  8  1  0  0  0  0
  2  1  2  0  0  0  0
  3  8  1  0  0  0  0
  4  3  2  0  0  0  0
  5 12  1  0  0  0  0
  6  5  2  0  0  0  0
  7  2  1  0  0  0  0
  8  9  2  0  0  0  0
 10  5  1  0  0  0  0
 10 11  1  0  0  0  0
 11 19  1  6  0  0  0
 11  7  1  0  0  0  0
 12  4  1  1  0  0  0
 12  2  1  0  0  0  0
 13  1  1  6  0  0  0
 13 18  1  0  0  0  0
 13 15  1  0  0  0  0
 14 16  1  0  0  0  0
 15 16  2  0  0  0  0
 17 14  1  0  0  0  0
 18 17  1  0  0  0  0
 19 20  1  0  0  0  0
 20 21  1  0  0  0  0
 21 22  1  0  0  0  0
 22 23  1  0  0  0  0
 23 24  1  0  0  0  0
 25 24  1  0  0  0  0
M  END
>  <MODEL>
7

>  <REMARK>
 VINA RESULT:      -8.0      2.382      5.832
  Name = 
  7 active torsions:
  status: ('A' for Active; 'I' for Inactive)
    1  A    between atoms: C_1  and  C_5
    2  A    between atoms: C_2  and  C_12
    3  A    between atoms: C_6  and  S_15
    4  A    between atoms: C_6  and  C_23
    5  A    between atoms: C_12  and  N_25
    6  A    between atoms: S_15  and  C_21
    7  A    between atoms: C_21  and  N_25
                            x       y       z     vdW  Elec       q    Type
                         _______ _______ _______ _____ _____    ______ ____

>  <TORSDO>
F 7

$$$$
=
 OpenBabel10262419513D

 25 27  0  0  1  0  0  0  0  0999 V2000
  188.0230  177.7280  144.7690 C   0  0  0  0  0  0  0  0  0  0  0  0
  186.7640  177.9520  144.3350 C   0  0  0  0  0  0  0  0  0  0  0  0
  187.1910  177.7800  147.1790 C   0  0  0  0  0  3  0  0  0  0  0  0
  185.9460  177.9730  146.7520 C   0  0  0  0  0  3  0  0  0  0  0  0
  184.4990  178.8630  144.8990 C   0  0  0  0  0  0  0  0  0  0  0  0
  183.7840  179.3780  145.7460 O   0  0  0  0  0  0  0  0  0  0  0  0
  186.5020  178.2070  142.8690 C   0  0  0  0  0  2  0  0  0  0  0  0
  188.2740  177.5510  146.2200 C   0  0  0  0  0  0  0  0  0  0  0  0
  189.4220  177.2540  146.6460 O   0  0  0  0  0  0  0  0  0  0  0  0
  184.2520  179.1820  143.4510 C   0  0  0  0  0  2  0  0  0  0  0  0
  185.0090  178.2220  142.5360 C   0  0  1  0  0  3  0  0  0  0  0  0
  185.5780  177.8790  145.2910 C   0  0  1  0  0  3  0  0  0  0  0  0
  189.1710  177.7060  143.7940 C   0  0  1  0  0  3  0  0  0  0  0  0
  191.6790  177.5010  142.5470 C   0  0  0  0  0  2  0  0  0  0  0  0
  190.2850  178.6290  144.2130 C   0  0  0  0  0  3  0  0  0  0  0  0
  191.4750  178.5370  143.6130 C   0  0  0  0  0  3  0  0  0  0  0  0
  191.1100  176.1640  143.0270 C   0  0  0  0  0  2  0  0  0  0  0  0
  189.6450  176.2690  143.4980 C   0  0  0  0  0  2  0  0  0  0  0  0
  184.7960  178.6290  141.0890 C   0  0  0  0  0  2  0  0  0  0  0  0
  183.0280  178.5770  140.6730 S   0  0  0  0  0  0  0  0  0  0  0  0
  183.3080  177.3490  139.3650 C   0  0  0  0  0  2  0  0  0  0  0  0
  182.5390  176.1490  139.6450 N   0  0  0  0  0  2  0  0  0  0  0  0
  181.7770  175.8430  138.4480 C   0  0  0  0  0  2  0  0  0  0  0  0
  180.4980  175.1290  138.8320 C   0  0  0  0  0  2  0  0  0  0  0  0
  180.4300  175.0100  140.2190 O   0  0  0  0  0  1  0  0  0  0  0  0
  1  8  1  0  0  0  0
  2  1  2  0  0  0  0
  2 12  1  0  0  0  0
  4  3  2  0  0  0  0
  5 12  1  0  0  0  0
  5  6  2  0  0  0  0
  7  2  1  0  0  0  0
  8  9  2  0  0  0  0
  8  3  1  0  0  0  0
 10  5  1  0  0  0  0
 11 19  1  6  0  0  0
 11  7  1  0  0  0  0
 11 10  1  0  0  0  0
 12  4  1  1  0  0  0
 13 15  1  0  0  0  0
 13  1  1  1  0  0  0
 14 17  1  0  0  0  0
 14 16  1  0  0  0  0
 16 15  2  0  0  0  0
 17 18  1  0  0  0  0
 18 13  1  0  0  0  0
 20 19  1  0  0  0  0
 21 22  1  0  0  0  0
 21 20  1  0  0  0  0
 23 24  1  0  0  0  0
 23 22  1  0  0  0  0
 24 25  1  0  0  0  0
M  END
>  <MODEL>
8

>  <REMARK>
 VINA RESULT:      -7.9      3.127      3.827
  Name = 
  7 active torsions:
  status: ('A' for Active; 'I' for Inactive)
    1  A    between atoms: C_1  and  C_5
    2  A    between atoms: C_2  and  C_12
    3  A    between atoms: C_6  and  S_15
    4  A    between atoms: C_6  and  C_23
    5  A    between atoms: C_12  and  N_25
    6  A    between atoms: S_15  and  C_21
    7  A    between atoms: C_21  and  N_25
                            x       y       z     vdW  Elec       q    Type
                         _______ _______ _______ _____ _____    ______ ____

>  <TORSDO>
F 7

$$$$
=
 OpenBabel10262419513D

 25 27  0  0  1  0  0  0  0  0999 V2000
  188.2840  177.3240  145.9440 C   0  0  0  0  0  0  0  0  0  0  0  0
  189.0210  177.2800  144.8130 C   0  0  0  0  0  0  0  0  0  0  0  0
  190.3430  176.6740  147.3010 C   0  0  0  0  0  3  0  0  0  0  0  0
  191.0770  176.6580  146.1910 C   0  0  0  0  0  3  0  0  0  0  0  0
  191.0640  176.3570  143.6950 C   0  0  0  0  0  0  0  0  0  0  0  0
  192.0690  175.6700  143.8040 O   0  0  0  0  0  0  0  0  0  0  0  0
  188.3530  177.4340  143.4660 C   0  0  0  0  0  2  0  0  0  0  0  0
  188.9420  177.0980  147.2540 C   0  0  0  0  0  0  0  0  0  0  0  0
  188.2980  177.2200  148.3300 O   0  0  0  0  0  0  0  0  0  0  0  0
  190.3870  176.4440  142.3560 C   0  0  0  0  0  2  0  0  0  0  0  0
  189.3630  177.5760  142.3260 C   0  0  1  0  0  3  0  0  0  0  0  0
  190.5400  177.1510  144.8700 C   0  0  1  0  0  3  0  0  0  0  0  0
  186.7960  177.5500  145.8730 C   0  0  1  0  0  3  0  0  0  0  0  0
  184.2170  178.6280  145.5960 C   0  0  0  0  0  2  0  0  0  0  0  0
  186.3480  178.6500  146.8000 C   0  0  0  0  0  3  0  0  0  0  0  0
  185.1180  179.1560  146.6730 C   0  0  0  0  0  3  0  0  0  0  0  0
  185.0000  178.5360  144.2840 C   0  0  0  0  0  2  0  0  0  0  0  0
  186.3120  177.7380  144.4220 C   0  0  0  0  0  2  0  0  0  0  0  0
  188.6480  177.5770  140.9870 C   0  0  0  0  0  2  0  0  0  0  0  0
  189.8350  177.2980  139.6390 S   0  0  0  0  0  0  0  0  0  0  0  0
  188.5050  177.1760  138.4100 C   0  0  0  0  0  2  0  0  0  0  0  0
  187.7910  178.4400  138.3310 N   0  0  0  0  0  2  0  0  0  0  0  0
  186.6210  178.2170  137.5020 C   0  0  0  0  0  2  0  0  0  0  0  0
  185.3760  178.2560  138.3630 C   0  0  0  0  0  2  0  0  0  0  0  0
  185.6270  179.0110  139.5070 O   0  0  0  0  0  1  0  0  0  0  0  0
  1  8  1  0  0  0  0
  2 12  1  0  0  0  0
  2  1  2  0  0  0  0
  4  3  2  0  0  0  0
  5  6  2  0  0  0  0
  5 12  1  0  0  0  0
  7  2  1  0  0  0  0
  8  3  1  0  0  0  0
  8  9  2  0  0  0  0
 10  5  1  0  0  0  0
 11 19  1  6  0  0  0
 11 10  1  0  0  0  0
 11  7  1  0  0  0  0
 12  4  1  1  0  0  0
 13  1  1  6  0  0  0
 13 15  1  0  0  0  0
 14 16  1  0  0  0  0
 16 15  2  0  0  0  0
 17 18  1  0  0  0  0
 17 14  1  0  0  0  0
 18 13  1  0  0  0  0
 20 19  1  0  0  0  0
 21 20  1  0  0  0  0
 22 21  1  0  0  0  0
 23 22  1  0  0  0  0
 23 24  1  0  0  0  0
 24 25  1  0  0  0  0
M  END
>  <MODEL>
9

>  <REMARK>
 VINA RESULT:      -7.8      1.850      4.530
  Name = 
  7 active torsions:
  status: ('A' for Active; 'I' for Inactive)
    1  A    between atoms: C_1  and  C_5
    2  A    between atoms: C_2  and  C_12
    3  A    between atoms: C_6  and  S_15
    4  A    between atoms: C_6  and  C_23
    5  A    between atoms: C_12  and  N_25
    6  A    between atoms: S_15  and  C_21
    7  A    between atoms: C_21  and  N_25
                            x       y       z     vdW  Elec       q    Type
                         _______ _______ _______ _____ _____    ______ ____

>  <TORSDO>
F 7

$$$$
