=
 OpenBabel10262423143D

 34 38  0  0  1  0  0  0  0  0999 V2000
  181.3060  178.6730  138.7200 C   0  0  1  0  0  3  0  0  0  0  0  0
  179.9260  180.7560  135.6700 C   0  0  0  0  0  2  0  0  0  0  0  0
  181.0110  183.7040  136.4500 C   0  0  0  0  0  0  0  0  0  0  0  0
  181.2960  178.6640  135.7380 C   0  0  0  0  0  2  0  0  0  0  0  0
  180.8020  175.2520  138.1560 F   0  0  0  0  0  0  0  0  0  0  0  0
  181.7610  176.2410  138.0370 C   0  0  2  0  0  0  0  0  0  0  0  0
  180.7930  183.9550  135.1000 O   0  0  0  0  0  0  0  0  0  0  0  0
  182.7520  176.2000  139.2000 C   0  0  0  0  0  1  0  0  0  0  0  0
  182.0390  177.8290  136.7330 C   0  0  1  0  0  3  0  0  0  0  0  0
  181.1360  177.5440  137.8140 N   0  0  2  0  0  0  0  0  0  0  0  0
  182.6200  176.1400  136.4200 S   0  0  0  0  0  0  0  0  0  0  0  0
  179.2540  181.9040  136.4250 C   0  0  0  0  0  2  0  0  0  0  0  0
  181.8950  184.3590  137.0640 O   0  0  0  0  0  1  0  0  0  0  0  0
  180.2340  182.7140  137.1350 N   0  0  0  0  0  0  0  0  0  0  0  0
  180.4750  182.4040  138.5380 C   0  0  0  0  0  2  0  0  0  0  0  0
  181.0170  180.0090  136.4500 C   0  0  2  0  0  3  0  0  0  0  0  0
  181.3720  181.1790  138.6700 C   0  0  0  0  0  2  0  0  0  0  0  0
  180.7600  179.9460  138.0060 C   0  0  2  0  0  3  0  0  0  0  0  0
  181.1220  178.6570  141.1910 C   0  0  0  0  0  3  0  0  0  0  0  0
  180.5550  178.4450  140.0020 C   0  0  0  0  0  3  0  0  0  0  0  0
  180.3650  178.3730  142.4510 C   0  0  1  0  0  3  0  0  0  0  0  0
  181.1000  178.7910  143.7310 C   0  0  2  0  0  3  0  0  0  0  0  0
  180.0250  179.6790  143.1380 C   0  0  0  0  0  2  0  0  0  0  0  0
  182.4150  179.3640  143.4640 N   0  0  0  0  0  2  0  0  0  0  0  0
  184.6910  178.3570  141.7240 C   0  0  0  0  0  1  0  0  0  0  0  0
  186.0800  178.0950  145.2200 C   0  0  0  0  0  0  0  0  0  0  0  0
  185.9320  178.0360  143.8290 C   0  0  0  0  0  3  0  0  0  0  0  0
  184.7460  178.4430  143.2090 C   0  0  0  0  0  0  0  0  0  0  0  0
  183.8290  178.9840  145.3890 C   0  0  0  0  0  3  0  0  0  0  0  0
  183.6720  178.9240  144.0010 C   0  0  0  0  0  0  0  0  0  0  0  0
  185.0170  178.5750  145.9960 C   0  0  0  0  0  3  0  0  0  0  0  0
  187.3080  177.6700  145.8320 N   0  0  0  0  0  0  0  0  0  0  0  0
  188.4300  177.1970  145.0350 C   0  0  0  0  0  1  0  0  0  0  0  0
  187.4430  177.7030  147.1790 O   0  0  0  0  0  1  0  0  0  0  0  0
  1 20  1  1  0  0  0
  2 12  1  0  0  0  0
  2 16  1  0  0  0  0
  3 13  1  0  0  0  0
  3 14  1  0  0  0  0
  4 16  1  0  0  0  0
  6  5  1  0  0  0  0
  6  8  1  1  0  0  0
  7  3  2  0  0  0  0
  9  4  1  6  0  0  0
  9 10  1  0  0  0  0
 10  6  1  0  0  0  0
 10  1  1  0  0  0  0
 11  9  1  0  0  0  0
 11  6  1  0  0  0  0
 12 14  1  0  0  0  0
 14 15  1  0  0  0  0
 15 17  1  0  0  0  0
 16 18  1  0  0  0  0
 18 17  1  0  0  0  0
 18  1  1  0  0  0  0
 19 21  1  0  0  0  0
 20 19  2  0  0  0  0
 21 23  1  0  0  0  0
 21 22  1  0  0  0  0
 23 22  1  0  0  0  0
 24 22  1  0  0  0  0
 24 30  1  0  0  0  0
 25 28  1  0  0  0  0
 26 32  1  0  0  0  0
 26 31  1  0  0  0  0
 27 26  2  0  0  0  0
 28 27  1  0  0  0  0
 28 30  2  0  0  0  0
 29 31  2  0  0  0  0
 30 29  1  0  0  0  0
 32 34  1  0  0  0  0
 33 32  1  0  0  0  0
M  END
>  <MODEL>
1

>  <REMARK>
 VINA RESULT:      -8.3      0.000      0.000
  Name = 
  5 active torsions:
  status: ('A' for Active; 'I' for Inactive)
    1  A    between atoms: C_1  and  C_9
    2  A    between atoms: N_6  and  C_28
    3  A    between atoms: N_6  and  C_30
    4  A    between atoms: C_7  and  N_11
    5  A    between atoms: C_8  and  C_18
                            x       y       z     vdW  Elec       q    Type
                         _______ _______ _______ _____ _____    ______ ____

>  <TORSDO>
F 5

$$$$
=
 OpenBabel10262423143D

 34 38  0  0  1  0  0  0  0  0999 V2000
  185.1340  178.0620  139.6460 C   0  0  1  0  0  3  0  0  0  0  0  0
  188.0060  178.5920  136.9980 C   0  0  0  0  0  2  0  0  0  0  0  0
  190.4270  177.0110  138.4520 C   0  0  0  0  0  0  0  0  0  0  0  0
  185.6790  177.7130  136.7350 C   0  0  0  0  0  2  0  0  0  0  0  0
  182.0860  179.2050  138.3490 F   0  0  0  0  0  0  0  0  0  0  0  0
  182.8310  178.0510  138.5110 C   0  0  2  0  0  0  0  0  0  0  0  0
  190.9670  177.0060  137.1720 O   0  0  0  0  0  0  0  0  0  0  0  0
  182.3490  177.2390  139.7120 C   0  0  0  0  0  1  0  0  0  0  0  0
  184.5250  177.2890  137.5900 C   0  0  1  0  0  3  0  0  0  0  0  0
  184.2620  178.3550  138.5160 N   0  0  2  0  0  0  0  0  0  0  0  0
  182.8350  177.0440  136.9780 S   0  0  0  0  0  0  0  0  0  0  0  0
  189.1180  179.0920  137.9210 C   0  0  0  0  0  2  0  0  0  0  0  0
  190.7350  176.0900  139.2550 O   0  0  0  0  0  1  0  0  0  0  0  0
  189.5340  178.0560  138.8560 N   0  0  0  0  0  0  0  0  0  0  0  0
  188.9230  178.0570  140.1790 C   0  0  0  0  0  2  0  0  0  0  0  0
  186.8960  177.7860  137.6870 C   0  0  2  0  0  3  0  0  0  0  0  0
  187.5220  177.4620  140.1220 C   0  0  0  0  0  2  0  0  0  0  0  0
  186.6080  178.2360  139.1720 C   0  0  2  0  0  3  0  0  0  0  0  0
  184.5040  178.5350  141.9950 C   0  0  0  0  0  3  0  0  0  0  0  0
  184.8520  178.9940  140.7920 C   0  0  0  0  0  3  0  0  0  0  0  0
  184.1810  179.4890  143.1030 C   0  0  1  0  0  3  0  0  0  0  0  0
  184.6980  179.0490  144.4790 C   0  0  2  0  0  3  0  0  0  0  0  0
  185.4660  180.0660  143.6600 C   0  0  0  0  0  2  0  0  0  0  0  0
  185.3860  177.7630  144.4380 N   0  0  0  0  0  2  0  0  0  0  0  0
  186.7500  178.2820  147.1010 C   0  0  0  0  0  1  0  0  0  0  0  0
  189.5480  177.0080  144.9170 C   0  0  0  0  0  0  0  0  0  0  0  0
  188.8150  177.5060  146.0010 C   0  0  0  0  0  3  0  0  0  0  0  0
  187.4460  177.7680  145.8890 C   0  0  0  0  0  0  0  0  0  0  0  0
  187.5230  177.0250  143.5810 C   0  0  0  0  0  3  0  0  0  0  0  0
  186.7850  177.5260  144.6570 C   0  0  0  0  0  0  0  0  0  0  0  0
  188.8890  176.7670  143.7040 C   0  0  0  0  0  3  0  0  0  0  0  0
  190.9530  176.7480  145.0570 N   0  0  0  0  0  0  0  0  0  0  0  0
  191.6890  175.9870  144.0570 C   0  0  0  0  0  1  0  0  0  0  0  0
  191.6260  177.2110  146.1370 O   0  0  0  0  0  1  0  0  0  0  0  0
  1 20  1  1  0  0  0
  2 16  1  0  0  0  0
  2 12  1  0  0  0  0
  3 14  1  0  0  0  0
  3 13  1  0  0  0  0
  4 16  1  0  0  0  0
  5  6  1  0  0  0  0
  6 10  1  0  0  0  0
  6  8  1  1  0  0  0
  7  3  2  0  0  0  0
  9  4  1  6  0  0  0
  9 10  1  0  0  0  0
 10  1  1  0  0  0  0
 11  9  1  0  0  0  0
 11  6  1  0  0  0  0
 12 14  1  0  0  0  0
 14 15  1  0  0  0  0
 16 18  1  0  0  0  0
 17 15  1  0  0  0  0
 18  1  1  0  0  0  0
 18 17  1  0  0  0  0
 19 21  1  0  0  0  0
 20 19  2  0  0  0  0
 21 23  1  0  0  0  0
 21 22  1  0  0  0  0
 23 22  1  0  0  0  0
 24 22  1  0  0  0  0
 24 30  1  0  0  0  0
 26 32  1  0  0  0  0
 26 27  1  0  0  0  0
 28 27  2  0  0  0  0
 28 25  1  0  0  0  0
 29 31  1  0  0  0  0
 29 30  2  0  0  0  0
 30 28  1  0  0  0  0
 31 26  2  0  0  0  0
 32 34  1  0  0  0  0
 33 32  1  0  0  0  0
M  END
>  <MODEL>
2

>  <REMARK>
 VINA RESULT:      -8.2      4.310      6.237
  Name = 
  5 active torsions:
  status: ('A' for Active; 'I' for Inactive)
    1  A    between atoms: C_1  and  C_9
    2  A    between atoms: N_6  and  C_28
    3  A    between atoms: N_6  and  C_30
    4  A    between atoms: C_7  and  N_11
    5  A    between atoms: C_8  and  C_18
                            x       y       z     vdW  Elec       q    Type
                         _______ _______ _______ _____ _____    ______ ____

>  <TORSDO>
F 5

$$$$
=
 OpenBabel10262423143D

 34 38  0  0  1  0  0  0  0  0999 V2000
  186.0810  177.6610  137.3160 C   0  0  1  0  0  3  0  0  0  0  0  0
  183.0340  176.3550  139.4500 C   0  0  0  0  0  2  0  0  0  0  0  0
  181.3410  179.0950  139.7700 C   0  0  0  0  0  0  0  0  0  0  0  0
  184.0070  175.5190  137.3030 C   0  0  0  0  0  2  0  0  0  0  0  0
  188.0510  174.9600  136.2660 F   0  0  0  0  0  0  0  0  0  0  0  0
  187.0330  175.7910  135.8370 C   0  0  2  0  0  0  0  0  0  0  0  0
  180.3040  178.2190  140.0680 O   0  0  0  0  0  1  0  0  0  0  0  0
  187.5640  176.9040  134.9350 C   0  0  0  0  0  1  0  0  0  0  0  0
  185.0110  175.9380  136.2740 C   0  0  1  0  0  3  0  0  0  0  0  0
  186.2290  176.2530  136.9680 N   0  0  2  0  0  0  0  0  0  0  0  0
  185.7020  174.8360  135.0100 S   0  0  0  0  0  0  0  0  0  0  0  0
  183.0290  177.4050  140.5610 C   0  0  0  0  0  2  0  0  0  0  0  0
  181.0750  180.2180  139.2670 O   0  0  0  0  0  0  0  0  0  0  0  0
  182.6990  178.7250  140.0390 N   0  0  0  0  0  0  0  0  0  0  0  0
  183.8040  179.6090  139.6950 C   0  0  0  0  0  2  0  0  0  0  0  0
  183.7230  176.7830  138.1470 C   0  0  2  0  0  3  0  0  0  0  0  0
  184.4090  179.2150  138.3530 C   0  0  0  0  0  2  0  0  0  0  0  0
  184.9310  177.7780  138.3590 C   0  0  2  0  0  3  0  0  0  0  0  0
  188.0410  177.5310  138.8260 C   0  0  0  0  0  3  0  0  0  0  0  0
  187.3570  178.2030  137.8990 C   0  0  0  0  0  3  0  0  0  0  0  0
  189.2810  178.1180  139.4240 C   0  0  1  0  0  3  0  0  0  0  0  0
  189.4140  177.8960  140.9360 C   0  0  2  0  0  3  0  0  0  0  0  0
  190.1570  177.0050  139.9610 C   0  0  0  0  0  2  0  0  0  0  0  0
  188.2810  177.1700  141.5020 N   0  0  0  0  0  2  0  0  0  0  0  0
  189.3080  176.8220  144.3390 C   0  0  0  0  0  1  0  0  0  0  0  0
  185.8750  178.3060  144.8250 C   0  0  0  0  0  0  0  0  0  0  0  0
  187.1450  177.7620  145.0550 C   0  0  0  0  0  3  0  0  0  0  0  0
  187.9690  177.3760  143.9930 C   0  0  0  0  0  0  0  0  0  0  0  0
  186.2470  178.0830  142.4380 C   0  0  0  0  0  3  0  0  0  0  0  0
  187.5140  177.5360  142.6590 C   0  0  0  0  0  0  0  0  0  0  0  0
  185.4330  178.4650  143.5050 C   0  0  0  0  0  3  0  0  0  0  0  0
  185.0470  178.6950  145.9320 N   0  0  0  0  0  0  0  0  0  0  0  0
  185.5610  178.7170  147.2940 C   0  0  0  0  0  1  0  0  0  0  0  0
  183.7570  179.0500  145.7240 O   0  0  0  0  0  1  0  0  0  0  0  0
  1 20  1  1  0  0  0
  1 18  1  0  0  0  0
  2 12  1  0  0  0  0
  3 14  1  0  0  0  0
  3  7  1  0  0  0  0
  4 16  1  0  0  0  0
  6  8  1  6  0  0  0
  6  5  1  0  0  0  0
  6 10  1  0  0  0  0
  9 10  1  0  0  0  0
  9  4  1  1  0  0  0
 10  1  1  0  0  0  0
 11  6  1  0  0  0  0
 11  9  1  0  0  0  0
 13  3  2  0  0  0  0
 14 12  1  0  0  0  0
 15 14  1  0  0  0  0
 16 18  1  0  0  0  0
 16  2  1  0  0  0  0
 17 18  1  0  0  0  0
 17 15  1  0  0  0  0
 19 21  1  0  0  0  0
 20 19  2  0  0  0  0
 21 23  1  0  0  0  0
 21 22  1  0  0  0  0
 22 24  1  0  0  0  0
 23 22  1  0  0  0  0
 24 30  1  0  0  0  0
 26 27  1  0  0  0  0
 26 32  1  0  0  0  0
 28 25  1  0  0  0  0
 28 27  2  0  0  0  0
 29 30  2  0  0  0  0
 29 31  1  0  0  0  0
 30 28  1  0  0  0  0
 31 26  2  0  0  0  0
 32 33  1  0  0  0  0
 34 32  1  0  0  0  0
M  END
>  <MODEL>
3

>  <REMARK>
 VINA RESULT:      -8.2      3.763      5.702
  Name = 
  5 active torsions:
  status: ('A' for Active; 'I' for Inactive)
    1  A    between atoms: C_1  and  C_9
    2  A    between atoms: N_6  and  C_28
    3  A    between atoms: N_6  and  C_30
    4  A    between atoms: C_7  and  N_11
    5  A    between atoms: C_8  and  C_18
                            x       y       z     vdW  Elec       q    Type
                         _______ _______ _______ _____ _____    ______ ____

>  <TORSDO>
F 5

$$$$
=
 OpenBabel10262423143D

 34 38  0  0  1  0  0  0  0  0999 V2000
  188.2020  177.6420  145.3530 C   0  0  1  0  0  3  0  0  0  0  0  0
  184.8950  179.7490  144.9420 C   0  0  0  0  0  2  0  0  0  0  0  0
  183.6870  178.4020  142.2570 C   0  0  0  0  0  0  0  0  0  0  0  0
  185.7930  178.4770  146.8990 C   0  0  0  0  0  2  0  0  0  0  0  0
  189.7170  178.3840  148.4240 F   0  0  0  0  0  0  0  0  0  0  0  0
  188.8750  177.4660  147.8250 C   0  0  2  0  0  0  0  0  0  0  0  0
  182.5040  178.9770  142.7060 O   0  0  0  0  0  1  0  0  0  0  0  0
  189.6240  176.1940  147.4320 C   0  0  0  0  0  1  0  0  0  0  0  0
  186.8930  177.5120  147.2160 C   0  0  1  0  0  3  0  0  0  0  0  0
  188.1190  178.0900  146.7380 N   0  0  2  0  0  0  0  0  0  0  0  0
  187.4330  177.0920  148.8950 S   0  0  0  0  0  0  0  0  0  0  0  0
  185.0280  180.1500  143.4720 C   0  0  0  0  0  2  0  0  0  0  0  0
  183.6370  177.3630  141.5460 O   0  0  0  0  0  0  0  0  0  0  0  0
  184.9500  178.9880  142.5980 N   0  0  0  0  0  0  0  0  0  0  0  0
  186.2030  178.3770  142.1750 C   0  0  0  0  0  2  0  0  0  0  0  0
  185.6980  178.5080  145.3550 C   0  0  2  0  0  3  0  0  0  0  0  0
  186.7830  177.5160  143.2900 C   0  0  0  0  0  2  0  0  0  0  0  0
  187.0490  178.3250  144.5600 C   0  0  2  0  0  3  0  0  0  0  0  0
  190.3270  177.1000  144.2000 C   0  0  0  0  0  3  0  0  0  0  0  0
  189.5280  178.0150  144.7510 C   0  0  0  0  0  3  0  0  0  0  0  0
  191.6630  177.4950  143.6530 C   0  0  1  0  0  3  0  0  0  0  0  0
  191.7970  177.3140  142.1360 C   0  0  2  0  0  3  0  0  0  0  0  0
  191.4970  178.6780  142.7230 C   0  0  0  0  0  2  0  0  0  0  0  0
  190.5920  176.7640  141.5240 N   0  0  0  0  0  2  0  0  0  0  0  0
  191.8520  176.0490  138.8550 C   0  0  0  0  0  1  0  0  0  0  0  0
  188.7510  177.9600  137.8760 C   0  0  0  0  0  0  0  0  0  0  0  0
  189.9510  177.2380  137.8320 C   0  0  0  0  0  3  0  0  0  0  0  0
  190.5890  176.8250  139.0050 C   0  0  0  0  0  0  0  0  0  0  0  0
  188.8170  177.8580  140.2990 C   0  0  0  0  0  3  0  0  0  0  0  0
  190.0160  177.1400  140.2640 C   0  0  0  0  0  0  0  0  0  0  0  0
  188.1880  178.2650  139.1220 C   0  0  0  0  0  3  0  0  0  0  0  0
  188.1150  178.3740  136.6570 N   0  0  0  0  0  0  0  0  0  0  0  0
  188.2790  177.6230  135.4220 C   0  0  0  0  0  1  0  0  0  0  0  0
  187.3430  179.4850  136.6370 O   0  0  0  0  0  1  0  0  0  0  0  0
  1 20  1  6  0  0  0
  1 10  1  0  0  0  0
  2 16  1  0  0  0  0
  3 14  1  0  0  0  0
  3  7  1  0  0  0  0
  6  8  1  6  0  0  0
  6  5  1  0  0  0  0
  6 11  1  0  0  0  0
  9  4  1  1  0  0  0
  9 11  1  0  0  0  0
 10  9  1  0  0  0  0
 10  6  1  0  0  0  0
 12  2  1  0  0  0  0
 13  3  2  0  0  0  0
 14 12  1  0  0  0  0
 15 14  1  0  0  0  0
 15 17  1  0  0  0  0
 16  4  1  0  0  0  0
 17 18  1  0  0  0  0
 18  1  1  0  0  0  0
 18 16  1  0  0  0  0
 19 20  2  0  0  0  0
 21 19  1  0  0  0  0
 22 23  1  0  0  0  0
 22 21  1  0  0  0  0
 23 21  1  0  0  0  0
 24 22  1  0  0  0  0
 25 28  1  0  0  0  0
 26 31  1  0  0  0  0
 27 26  2  0  0  0  0
 27 28  1  0  0  0  0
 28 30  2  0  0  0  0
 30 29  1  0  0  0  0
 30 24  1  0  0  0  0
 31 29  2  0  0  0  0
 32 26  1  0  0  0  0
 33 32  1  0  0  0  0
 34 32  1  0  0  0  0
M  END
>  <MODEL>
4

>  <REMARK>
 VINA RESULT:      -7.9      5.945      9.842
  Name = 
  5 active torsions:
  status: ('A' for Active; 'I' for Inactive)
    1  A    between atoms: C_1  and  C_9
    2  A    between atoms: N_6  and  C_28
    3  A    between atoms: N_6  and  C_30
    4  A    between atoms: C_7  and  N_11
    5  A    between atoms: C_8  and  C_18
                            x       y       z     vdW  Elec       q    Type
                         _______ _______ _______ _____ _____    ______ ____

>  <TORSDO>
F 5

$$$$
=
 OpenBabel10262423143D

 34 38  0  0  1  0  0  0  0  0999 V2000
  184.2740  178.4340  141.6490 C   0  0  1  0  0  3  0  0  0  0  0  0
  180.7490  179.4110  140.1780 C   0  0  0  0  0  2  0  0  0  0  0  0
  180.3010  176.9750  138.0950 C   0  0  0  0  0  0  0  0  0  0  0  0
  181.5200  179.1470  142.5420 C   0  0  0  0  0  2  0  0  0  0  0  0
  185.0670  180.5290  144.3430 F   0  0  0  0  0  0  0  0  0  0  0  0
  184.5310  179.2880  144.0570 C   0  0  2  0  0  0  0  0  0  0  0  0
  178.9710  177.3670  138.1850 O   0  0  0  0  0  1  0  0  0  0  0  0
  185.5650  178.1770  144.2390 C   0  0  0  0  0  1  0  0  0  0  0  0
  182.7120  178.6440  143.2960 C   0  0  1  0  0  3  0  0  0  0  0  0
  183.8700  179.2980  142.7510 N   0  0  2  0  0  0  0  0  0  0  0  0
  183.0240  178.9710  145.0530 S   0  0  0  0  0  0  0  0  0  0  0  0
  181.0550  179.3020  138.6830 C   0  0  0  0  0  2  0  0  0  0  0  0
  180.5730  175.7750  137.8220 O   0  0  0  0  0  0  0  0  0  0  0  0
  181.3510  177.9270  138.3050 N   0  0  0  0  0  0  0  0  0  0  0  0
  182.7520  177.5280  138.2570 C   0  0  0  0  0  2  0  0  0  0  0  0
  181.6890  178.6200  141.0980 C   0  0  2  0  0  3  0  0  0  0  0  0
  183.2830  177.2700  139.6620 C   0  0  0  0  0  2  0  0  0  0  0  0
  183.1670  178.5040  140.5550 C   0  0  2  0  0  3  0  0  0  0  0  0
  186.6940  178.1490  141.2010 C   0  0  0  0  0  3  0  0  0  0  0  0
  185.5890  178.8840  141.0740 C   0  0  0  0  0  3  0  0  0  0  0  0
  187.9990  178.6460  140.6620 C   0  0  1  0  0  3  0  0  0  0  0  0
  189.2250  178.1720  141.4530 C   0  0  2  0  0  3  0  0  0  0  0  0
  188.8210  177.4720  140.1720 C   0  0  0  0  0  2  0  0  0  0  0  0
  188.8710  177.3440  142.6010 N   0  0  0  0  0  2  0  0  0  0  0  0
  191.8640  176.8290  142.6260 C   0  0  0  0  0  1  0  0  0  0  0  0
  190.9540  176.8870  146.2860 C   0  0  0  0  0  0  0  0  0  0  0  0
  191.6640  176.7900  145.0830 C   0  0  0  0  0  3  0  0  0  0  0  0
  191.0210  176.9340  143.8490 C   0  0  0  0  0  0  0  0  0  0  0  0
  188.9230  177.2820  145.0170 C   0  0  0  0  0  3  0  0  0  0  0  0
  189.6250  177.1830  143.8120 C   0  0  0  0  0  0  0  0  0  0  0  0
  189.5760  177.1360  146.2420 C   0  0  0  0  0  3  0  0  0  0  0  0
  191.6370  176.7340  147.5390 N   0  0  0  0  0  0  0  0  0  0  0  0
  192.4610  175.5680  147.8180 C   0  0  0  0  0  1  0  0  0  0  0  0
  191.5230  177.6850  148.4960 O   0  0  0  0  0  1  0  0  0  0  0  0
  1 20  1  6  0  0  0
  1 10  1  0  0  0  0
  2 16  1  0  0  0  0
  3  7  1  0  0  0  0
  3 14  1  0  0  0  0
  6  8  1  1  0  0  0
  6  5  1  0  0  0  0
  6 11  1  0  0  0  0
  9  4  1  6  0  0  0
  9 11  1  0  0  0  0
 10  9  1  0  0  0  0
 10  6  1  0  0  0  0
 12  2  1  0  0  0  0
 13  3  2  0  0  0  0
 14 12  1  0  0  0  0
 15 14  1  0  0  0  0
 15 17  1  0  0  0  0
 16  4  1  0  0  0  0
 17 18  1  0  0  0  0
 18 16  1  0  0  0  0
 18  1  1  0  0  0  0
 20 19  2  0  0  0  0
 21 19  1  0  0  0  0
 21 22  1  0  0  0  0
 22 24  1  0  0  0  0
 23 21  1  0  0  0  0
 23 22  1  0  0  0  0
 24 30  1  0  0  0  0
 25 28  1  0  0  0  0
 26 32  1  0  0  0  0
 27 26  2  0  0  0  0
 28 27  1  0  0  0  0
 29 31  2  0  0  0  0
 30 28  2  0  0  0  0
 30 29  1  0  0  0  0
 31 26  1  0  0  0  0
 32 33  1  0  0  0  0
 32 34  1  0  0  0  0
M  END
>  <MODEL>
5

>  <REMARK>
 VINA RESULT:      -7.7      3.840      6.366
  Name = 
  5 active torsions:
  status: ('A' for Active; 'I' for Inactive)
    1  A    between atoms: C_1  and  C_9
    2  A    between atoms: N_6  and  C_28
    3  A    between atoms: N_6  and  C_30
    4  A    between atoms: C_7  and  N_11
    5  A    between atoms: C_8  and  C_18
                            x       y       z     vdW  Elec       q    Type
                         _______ _______ _______ _____ _____    ______ ____

>  <TORSDO>
F 5

$$$$
=
 OpenBabel10262423143D

 34 38  0  0  1  0  0  0  0  0999 V2000
  189.7100  174.8480  136.8530 C   0  0  1  0  0  3  0  0  0  0  0  0
  193.1130  174.4780  134.8960 C   0  0  0  0  0  2  0  0  0  0  0  0
  195.2030  174.5200  137.3660 C   0  0  0  0  0  0  0  0  0  0  0  0
  191.0210  173.1090  134.8160 C   0  0  0  0  0  2  0  0  0  0  0  0
  187.0150  174.3990  134.6600 F   0  0  0  0  0  0  0  0  0  0  0  0
  187.7920  173.7160  135.5780 C   0  0  2  0  0  0  0  0  0  0  0  0
  196.0550  173.9410  136.4330 O   0  0  0  0  0  0  0  0  0  0  0  0
  187.0880  173.6010  136.9290 C   0  0  0  0  0  1  0  0  0  0  0  0
  189.7270  172.9730  135.5570 C   0  0  1  0  0  3  0  0  0  0  0  0
  189.1400  174.2810  135.6380 N   0  0  2  0  0  0  0  0  0  0  0  0
  188.2830  172.0700  134.9350 S   0  0  0  0  0  0  0  0  0  0  0  0
  193.8980  175.6300  135.5250 C   0  0  0  0  0  2  0  0  0  0  0  0
  195.3730  174.2750  138.5910 O   0  0  0  0  0  1  0  0  0  0  0  0
  194.1470  175.3890  136.9400 N   0  0  0  0  0  0  0  0  0  0  0  0
  193.2160  175.9710  137.8970 C   0  0  0  0  0  2  0  0  0  0  0  0
  191.9380  173.9530  135.7330 C   0  0  2  0  0  3  0  0  0  0  0  0
  191.9360  175.1480  137.9680 C   0  0  0  0  0  2  0  0  0  0  0  0
  191.2350  175.0590  136.6130 C   0  0  2  0  0  3  0  0  0  0  0  0
  188.7110  176.4740  138.4340 C   0  0  0  0  0  3  0  0  0  0  0  0
  189.0590  176.1630  137.1840 C   0  0  0  0  0  3  0  0  0  0  0  0
  188.0200  177.7690  138.7260 C   0  0  1  0  0  3  0  0  0  0  0  0
  188.2400  178.2900  140.1520 C   0  0  2  0  0  3  0  0  0  0  0  0
  189.0540  178.8410  138.9980 C   0  0  0  0  0  2  0  0  0  0  0  0
  189.0680  177.3970  140.9560 N   0  0  0  0  0  2  0  0  0  0  0  0
  191.6790  177.4270  142.5070 C   0  0  0  0  0  1  0  0  0  0  0  0
  189.0590  177.1990  145.2090 C   0  0  0  0  0  0  0  0  0  0  0  0
  190.2820  177.2710  144.5310 C   0  0  0  0  0  3  0  0  0  0  0  0
  190.3320  177.3380  143.1350 C   0  0  0  0  0  0  0  0  0  0  0  0
  187.9090  177.2650  143.0740 C   0  0  0  0  0  3  0  0  0  0  0  0
  189.1250  177.3330  142.3900 C   0  0  0  0  0  0  0  0  0  0  0  0
  187.8710  177.1990  144.4680 C   0  0  0  0  0  3  0  0  0  0  0  0
  189.0340  177.1300  146.6430 N   0  0  0  0  0  0  0  0  0  0  0  0
  187.8490  177.5040  147.4010 C   0  0  0  0  0  1  0  0  0  0  0  0
  190.1280  176.7110  147.3230 O   0  0  0  0  0  1  0  0  0  0  0  0
  1 20  1  6  0  0  0
  2 12  1  0  0  0  0
  2 16  1  0  0  0  0
  3 13  1  0  0  0  0
  4 16  1  0  0  0  0
  5  6  1  0  0  0  0
  6 10  1  0  0  0  0
  6  8  1  1  0  0  0
  7  3  2  0  0  0  0
  9  4  1  6  0  0  0
  9 10  1  0  0  0  0
 10  1  1  0  0  0  0
 11  9  1  0  0  0  0
 11  6  1  0  0  0  0
 12 14  1  0  0  0  0
 14  3  1  0  0  0  0
 14 15  1  0  0  0  0
 15 17  1  0  0  0  0
 16 18  1  0  0  0  0
 18  1  1  0  0  0  0
 18 17  1  0  0  0  0
 19 21  1  0  0  0  0
 20 19  2  0  0  0  0
 21 23  1  0  0  0  0
 21 22  1  0  0  0  0
 22 24  1  0  0  0  0
 23 22  1  0  0  0  0
 24 30  1  0  0  0  0
 25 28  1  0  0  0  0
 26 32  1  0  0  0  0
 27 26  1  0  0  0  0
 28 27  2  0  0  0  0
 29 31  1  0  0  0  0
 30 29  2  0  0  0  0
 30 28  1  0  0  0  0
 31 26  2  0  0  0  0
 32 34  1  0  0  0  0
 32 33  1  0  0  0  0
M  END
>  <MODEL>
6

>  <REMARK>
 VINA RESULT:      -7.3      7.644     10.113
  Name = 
  5 active torsions:
  status: ('A' for Active; 'I' for Inactive)
    1  A    between atoms: C_1  and  C_9
    2  A    between atoms: N_6  and  C_28
    3  A    between atoms: N_6  and  C_30
    4  A    between atoms: C_7  and  N_11
    5  A    between atoms: C_8  and  C_18
                            x       y       z     vdW  Elec       q    Type
                         _______ _______ _______ _____ _____    ______ ____

>  <TORSDO>
F 5

$$$$
=
 OpenBabel10262423143D

 34 38  0  0  1  0  0  0  0  0999 V2000
  188.5150  177.8300  141.2790 C   0  0  1  0  0  3  0  0  0  0  0  0
  191.6350  178.4120  143.6180 C   0  0  0  0  0  2  0  0  0  0  0  0
  190.6120  176.9450  146.3160 C   0  0  0  0  0  0  0  0  0  0  0  0
  191.4720  177.4460  141.3170 C   0  0  0  0  0  2  0  0  0  0  0  0
  189.2670  178.8400  138.0100 F   0  0  0  0  0  0  0  0  0  0  0  0
  189.2260  177.7170  138.8150 C   0  0  2  0  0  0  0  0  0  0  0  0
  191.9680  176.9350  146.6210 O   0  0  0  0  0  0  0  0  0  0  0  0
  187.9490  176.9100  138.5820 C   0  0  0  0  0  1  0  0  0  0  0  0
  190.4220  176.9970  140.3480 C   0  0  1  0  0  3  0  0  0  0  0  0
  189.4770  178.0710  140.2120 N   0  0  2  0  0  0  0  0  0  0  0  0
  190.7230  176.6820  138.5870 S   0  0  0  0  0  0  0  0  0  0  0  0
  190.9290  178.9680  144.8550 C   0  0  0  0  0  2  0  0  0  0  0  0
  189.8650  176.0500  146.7950 O   0  0  0  0  0  1  0  0  0  0  0  0
  190.0690  177.9650  145.4680 N   0  0  0  0  0  0  0  0  0  0  0  0
  188.6600  177.9690  145.1000 C   0  0  0  0  0  2  0  0  0  0  0  0
  190.7510  177.5800  142.6790 C   0  0  2  0  0  3  0  0  0  0  0  0
  188.4610  177.3240  143.7340 C   0  0  0  0  0  2  0  0  0  0  0  0
  189.2430  178.0470  142.6390 C   0  0  2  0  0  3  0  0  0  0  0  0
  186.0970  178.3610  141.3730 C   0  0  0  0  0  3  0  0  0  0  0  0
  187.3490  178.7720  141.1680 C   0  0  0  0  0  3  0  0  0  0  0  0
  184.9520  179.3100  141.2070 C   0  0  1  0  0  3  0  0  0  0  0  0
  183.9270  178.8780  140.1510 C   0  0  2  0  0  3  0  0  0  0  0  0
  183.6660  178.6260  141.6220 C   0  0  0  0  0  2  0  0  0  0  0  0
  184.2890  177.6270  139.4930 N   0  0  0  0  0  2  0  0  0  0  0  0
  184.7150  177.1080  136.5310 C   0  0  0  0  0  1  0  0  0  0  0  0
  181.6350  175.0880  137.3400 C   0  0  0  0  0  0  0  0  0  0  0  0
  182.7040  175.6890  136.6640 C   0  0  0  0  0  3  0  0  0  0  0  0
  183.6010  176.5290  137.3320 C   0  0  0  0  0  0  0  0  0  0  0  0
  182.3580  176.1740  139.3850 C   0  0  0  0  0  3  0  0  0  0  0  0
  183.4260  176.7800  138.7170 C   0  0  0  0  0  0  0  0  0  0  0  0
  181.4700  175.3370  138.7080 C   0  0  0  0  0  3  0  0  0  0  0  0
  180.7270  174.2300  136.6320 N   0  0  0  0  0  0  0  0  0  0  0  0
  181.2060  173.1100  135.8350 C   0  0  0  0  0  1  0  0  0  0  0  0
  179.3930  174.4520  136.6930 O   0  0  0  0  0  1  0  0  0  0  0  0
  1 20  1  6  0  0  0
  1 18  1  0  0  0  0
  2 12  1  0  0  0  0
  3  7  2  0  0  0  0
  3 13  1  0  0  0  0
  4 16  1  0  0  0  0
  5  6  1  0  0  0  0
  6  8  1  6  0  0  0
  6 10  1  0  0  0  0
  9  4  1  1  0  0  0
 10  9  1  0  0  0  0
 10  1  1  0  0  0  0
 11  6  1  0  0  0  0
 11  9  1  0  0  0  0
 12 14  1  0  0  0  0
 14  3  1  0  0  0  0
 15 14  1  0  0  0  0
 16  2  1  0  0  0  0
 17 15  1  0  0  0  0
 18 16  1  0  0  0  0
 18 17  1  0  0  0  0
 20 19  2  0  0  0  0
 21 19  1  0  0  0  0
 21 23  1  0  0  0  0
 22 21  1  0  0  0  0
 22 23  1  0  0  0  0
 24 22  1  0  0  0  0
 25 28  1  0  0  0  0
 26 31  1  0  0  0  0
 27 28  1  0  0  0  0
 27 26  2  0  0  0  0
 28 30  2  0  0  0  0
 30 29  1  0  0  0  0
 30 24  1  0  0  0  0
 31 29  2  0  0  0  0
 32 34  1  0  0  0  0
 32 26  1  0  0  0  0
 33 32  1  0  0  0  0
M  END
>  <MODEL>
7

>  <REMARK>
 VINA RESULT:      -7.2      4.814     10.072
  Name = 
  5 active torsions:
  status: ('A' for Active; 'I' for Inactive)
    1  A    between atoms: C_1  and  C_9
    2  A    between atoms: N_6  and  C_28
    3  A    between atoms: N_6  and  C_30
    4  A    between atoms: C_7  and  N_11
    5  A    between atoms: C_8  and  C_18
                            x       y       z     vdW  Elec       q    Type
                         _______ _______ _______ _____ _____    ______ ____

>  <TORSDO>
F 5

$$$$
=
 OpenBabel10262423143D

 34 38  0  0  1  0  0  0  0  0999 V2000
  191.4180  176.2400  137.3540 C   0  0  1  0  0  3  0  0  0  0  0  0
  187.8750  174.6200  136.7530 C   0  0  0  0  0  2  0  0  0  0  0  0
  186.3010  177.1390  135.4670 C   0  0  0  0  0  0  0  0  0  0  0  0
  190.1580  173.8620  136.0710 C   0  0  0  0  0  2  0  0  0  0  0  0
  193.7080  173.7770  138.3360 F   0  0  0  0  0  0  0  0  0  0  0  0
  193.2710  174.4680  137.2210 C   0  0  2  0  0  0  0  0  0  0  0  0
  185.4370  176.1500  135.0140 O   0  0  0  0  0  1  0  0  0  0  0  0
  194.2140  175.6180  136.8720 C   0  0  0  0  0  1  0  0  0  0  0  0
  191.5640  174.3770  136.0480 C   0  0  1  0  0  3  0  0  0  0  0  0
  191.8670  174.8540  137.3690 N   0  0  2  0  0  0  0  0  0  0  0  0
  193.0300  173.3410  135.7950 S   0  0  0  0  0  0  0  0  0  0  0  0
  186.9910  175.6860  137.4010 C   0  0  0  0  0  2  0  0  0  0  0  0
  186.4100  178.2110  134.8130 O   0  0  0  0  0  0  0  0  0  0  0  0
  187.0570  176.9430  136.6690 N   0  0  0  0  0  0  0  0  0  0  0  0
  188.0010  177.9490  137.1390 C   0  0  0  0  0  2  0  0  0  0  0  0
  189.2640  175.1000  136.3130 C   0  0  2  0  0  3  0  0  0  0  0  0
  189.4170  177.6010  136.6970 C   0  0  0  0  0  2  0  0  0  0  0  0
  189.8660  176.2400  137.2260 C   0  0  2  0  0  3  0  0  0  0  0  0
  191.1910  176.7360  139.7710 C   0  0  0  0  0  3  0  0  0  0  0  0
  191.8260  176.9460  138.6170 C   0  0  0  0  0  3  0  0  0  0  0  0
  191.5890  177.4900  141.0010 C   0  0  1  0  0  3  0  0  0  0  0  0
  190.4110  177.8860  141.9010 C   0  0  2  0  0  3  0  0  0  0  0  0
  191.2510  176.6670  142.2270 C   0  0  0  0  0  2  0  0  0  0  0  0
  189.1220  177.4670  141.3610 N   0  0  0  0  0  2  0  0  0  0  0  0
  188.2050  176.6780  144.1470 C   0  0  0  0  0  1  0  0  0  0  0  0
  185.2330  178.5220  142.7350 C   0  0  0  0  0  0  0  0  0  0  0  0
  186.0840  177.7990  143.5810 C   0  0  0  0  0  3  0  0  0  0  0  0
  187.3690  177.4320  143.1710 C   0  0  0  0  0  0  0  0  0  0  0  0
  186.9700  178.5200  141.0410 C   0  0  0  0  0  3  0  0  0  0  0  0
  187.8230  177.7960  141.8770 C   0  0  0  0  0  0  0  0  0  0  0  0
  185.6880  178.8820  141.4600 C   0  0  0  0  0  3  0  0  0  0  0  0
  183.9170  178.8870  143.1790 N   0  0  0  0  0  0  0  0  0  0  0  0
  183.6570  179.2590  144.5620 C   0  0  0  0  0  1  0  0  0  0  0  0
  182.8820  178.8890  142.3060 O   0  0  0  0  0  1  0  0  0  0  0  0
  1 10  1  0  0  0  0
  1 20  1  1  0  0  0
  2 12  1  0  0  0  0
  3 14  1  0  0  0  0
  4 16  1  0  0  0  0
  6  8  1  6  0  0  0
  6 10  1  0  0  0  0
  6  5  1  0  0  0  0
  7  3  1  0  0  0  0
  9  4  1  1  0  0  0
  9 10  1  0  0  0  0
 11  9  1  0  0  0  0
 11  6  1  0  0  0  0
 13  3  2  0  0  0  0
 14 15  1  0  0  0  0
 14 12  1  0  0  0  0
 16  2  1  0  0  0  0
 16 18  1  0  0  0  0
 17 15  1  0  0  0  0
 17 18  1  0  0  0  0
 18  1  1  0  0  0  0
 19 21  1  0  0  0  0
 20 19  2  0  0  0  0
 21 22  1  0  0  0  0
 21 23  1  0  0  0  0
 22 23  1  0  0  0  0
 24 30  1  0  0  0  0
 24 22  1  0  0  0  0
 26 32  1  0  0  0  0
 26 27  1  0  0  0  0
 28 27  2  0  0  0  0
 28 25  1  0  0  0  0
 29 31  1  0  0  0  0
 29 30  2  0  0  0  0
 30 28  1  0  0  0  0
 31 26  2  0  0  0  0
 32 33  1  0  0  0  0
 34 32  1  0  0  0  0
M  END
>  <MODEL>
8

>  <REMARK>
 VINA RESULT:      -7.1      6.618      8.902
  Name = 
  5 active torsions:
  status: ('A' for Active; 'I' for Inactive)
    1  A    between atoms: C_1  and  C_9
    2  A    between atoms: N_6  and  C_28
    3  A    between atoms: N_6  and  C_30
    4  A    between atoms: C_7  and  N_11
    5  A    between atoms: C_8  and  C_18
                            x       y       z     vdW  Elec       q    Type
                         _______ _______ _______ _____ _____    ______ ____

>  <TORSDO>
F 5

$$$$
=
 OpenBabel10262423143D

 34 38  0  0  1  0  0  0  0  0999 V2000
  185.2820  179.0380  140.4210 C   0  0  1  0  0  3  0  0  0  0  0  0
  183.5670  176.8600  137.6180 C   0  0  0  0  0  2  0  0  0  0  0  0
  181.4980  179.0270  136.3920 C   0  0  0  0  0  0  0  0  0  0  0  0
  185.9810  177.3020  138.1000 C   0  0  0  0  0  2  0  0  0  0  0  0
  187.9880  177.2930  141.8020 F   0  0  0  0  0  0  0  0  0  0  0  0
  187.6870  178.2500  140.8510 C   0  0  2  0  0  0  0  0  0  0  0  0
  181.4950  178.1580  135.3080 O   0  0  0  0  0  0  0  0  0  0  0  0
  187.9550  179.6610  141.3740 C   0  0  0  0  0  1  0  0  0  0  0  0
  186.8200  178.1870  138.9690 C   0  0  1  0  0  3  0  0  0  0  0  0
  186.3420  178.0430  140.3160 N   0  0  2  0  0  0  0  0  0  0  0  0
  188.5870  177.9330  139.2840 S   0  0  0  0  0  0  0  0  0  0  0  0
  182.0980  177.1370  137.9400 C   0  0  0  0  0  2  0  0  0  0  0  0
  181.2640  180.2500  136.2030 O   0  0  0  0  0  1  0  0  0  0  0  0
  181.7620  178.5360  137.7120 N   0  0  0  0  0  0  0  0  0  0  0  0
  181.8130  179.4360  138.8560 C   0  0  0  0  0  2  0  0  0  0  0  0
  184.5590  177.9110  138.1350 C   0  0  2  0  0  3  0  0  0  0  0  0
  183.2540  179.8200  139.1720 C   0  0  0  0  0  2  0  0  0  0  0  0
  184.1170  178.5980  139.4850 C   0  0  2  0  0  3  0  0  0  0  0  0
  184.9370  178.1390  142.7040 C   0  0  0  0  0  3  0  0  0  0  0  0
  184.7880  179.1420  141.8380 C   0  0  0  0  0  3  0  0  0  0  0  0
  184.3910  178.2530  144.0930 C   0  0  1  0  0  3  0  0  0  0  0  0
  185.4550  178.1580  145.1950 C   0  0  2  0  0  3  0  0  0  0  0  0
  184.9330  179.5080  144.7460 C   0  0  0  0  0  2  0  0  0  0  0  0
  186.7980  177.9470  144.6650 N   0  0  0  0  0  2  0  0  0  0  0  0
  186.9400  178.1940  147.6890 C   0  0  0  0  0  1  0  0  0  0  0  0
  190.4000  177.0310  146.7420 C   0  0  0  0  0  0  0  0  0  0  0  0
  189.2810  177.4550  147.4690 C   0  0  0  0  0  3  0  0  0  0  0  0
  188.0770  177.7660  146.8280 C   0  0  0  0  0  0  0  0  0  0  0  0
  189.1050  177.2240  144.6990 C   0  0  0  0  0  3  0  0  0  0  0  0
  187.9850  177.6510  145.4170 C   0  0  0  0  0  0  0  0  0  0  0  0
  190.3010  176.9160  145.3490 C   0  0  0  0  0  3  0  0  0  0  0  0
  191.6250  176.7190  147.4230 N   0  0  0  0  0  0  0  0  0  0  0  0
  192.4300  175.5650  147.0480 C   0  0  0  0  0  1  0  0  0  0  0  0
  192.0560  177.5020  148.4390 O   0  0  0  0  0  1  0  0  0  0  0  0
  1 20  1  1  0  0  0
  2 12  1  0  0  0  0
  2 16  1  0  0  0  0
  3 14  1  0  0  0  0
  4 16  1  0  0  0  0
  6  8  1  1  0  0  0
  6  5  1  0  0  0  0
  7  3  2  0  0  0  0
  9  4  1  6  0  0  0
  9 11  1  0  0  0  0
  9 10  1  0  0  0  0
 10  1  1  0  0  0  0
 10  6  1  0  0  0  0
 11  6  1  0  0  0  0
 13  3  1  0  0  0  0
 14 12  1  0  0  0  0
 14 15  1  0  0  0  0
 15 17  1  0  0  0  0
 16 18  1  0  0  0  0
 17 18  1  0  0  0  0
 18  1  1  0  0  0  0
 19 21  1  0  0  0  0
 20 19  2  0  0  0  0
 21 23  1  0  0  0  0
 21 22  1  0  0  0  0
 23 22  1  0  0  0  0
 24 22  1  0  0  0  0
 24 30  1  0  0  0  0
 26 32  1  0  0  0  0
 26 27  1  0  0  0  0
 28 27  2  0  0  0  0
 28 25  1  0  0  0  0
 29 31  1  0  0  0  0
 29 30  2  0  0  0  0
 30 28  1  0  0  0  0
 31 26  2  0  0  0  0
 32 34  1  0  0  0  0
 33 32  1  0  0  0  0
M  END
>  <MODEL>
9

>  <REMARK>
 VINA RESULT:      -7.1      3.299      5.205
  Name = 
  5 active torsions:
  status: ('A' for Active; 'I' for Inactive)
    1  A    between atoms: C_1  and  C_9
    2  A    between atoms: N_6  and  C_28
    3  A    between atoms: N_6  and  C_30
    4  A    between atoms: C_7  and  N_11
    5  A    between atoms: C_8  and  C_18
                            x       y       z     vdW  Elec       q    Type
                         _______ _______ _______ _____ _____    ______ ____

>  <TORSDO>
F 5

$$$$
