=
 OpenBabel10262421103D

 32 37  0  0  1  0  0  0  0  0999 V2000
  188.8350  177.2010  142.4230 C   0  0  1  0  0  3  0  0  0  0  0  0
  189.1100  177.7450  139.1140 C   0  0  0  0  0  0  0  0  0  0  0  0
  186.3260  177.6710  145.3560 C   0  0  0  0  0  0  0  0  0  0  0  0
  189.8670  178.3200  142.6650 C   0  0  0  0  0  2  0  0  0  0  0  0
  190.0560  178.0510  140.0100 N   0  0  0  0  0  0  0  0  0  0  0  0
  189.3820  176.8020  138.1210 C   0  0  0  0  0  0  0  0  0  0  0  0
  186.7400  177.1230  146.5250 F   0  0  0  0  0  0  0  0  0  0  0  0
  184.4060  177.6020  137.7480 C   0  0  0  0  0  3  0  0  0  0  0  0
  187.7680  178.1480  139.3870 N   0  0  0  0  0  0  0  0  0  0  0  0
  186.0780  176.3820  136.3470 C   0  0  0  0  0  2  0  0  0  0  0  0
  187.1110  176.8210  137.3470 C   0  0  0  0  0  0  0  0  0  0  0  0
  191.2070  177.3670  140.1070 C   0  0  0  0  0  0  0  0  0  0  0  0
  186.6100  178.0110  142.9830 C   0  0  0  0  0  0  0  0  0  0  0  0
  188.3410  176.4100  137.2110 N   0  0  0  0  0  0  0  0  0  0  0  0
  191.5180  176.4440  139.1550 N   0  0  0  0  0  0  0  0  0  0  0  0
  185.1790  178.4760  145.3260 C   0  0  0  0  0  3  0  0  0  0  0  0
  185.4570  178.8020  142.9370 C   0  0  0  0  0  3  0  0  0  0  0  0
  191.8980  177.4000  141.4060 C   0  0  0  0  0  3  0  0  0  0  0  0
  187.0190  177.4300  144.1670 C   0  0  0  0  0  0  0  0  0  0  0  0
  188.4760  176.4090  144.0350 S   0  0  0  0  0  0  0  0  0  0  0  0
  187.4740  178.7360  140.7060 C   0  0  0  0  0  2  0  0  0  0  0  0
  184.7350  179.0400  144.1140 C   0  0  0  0  0  0  0  0  0  0  0  0
  187.4710  177.6660  141.8230 C   0  0  1  0  0  3  0  0  0  0  0  0
  186.7370  177.7060  138.4860 C   0  0  0  0  0  0  0  0  0  0  0  0
  190.6490  176.1860  138.1310 C   0  0  0  0  0  0  0  0  0  0  0  0
  191.3020  177.8240  142.5440 C   0  0  0  0  0  3  0  0  0  0  0  0
  184.6820  176.8300  136.6940 C   0  0  0  0  0  3  0  0  0  0  0  0
  185.4620  178.0630  138.6630 C   0  0  0  0  0  3  0  0  0  0  0  0
  182.3380  179.3530  143.5880 C   0  0  0  0  0  1  0  0  0  0  0  0
  183.5900  179.8380  144.0550 O   0  0  0  0  0  0  0  0  0  0  0  0
  191.0200  175.1840  137.0910 C   0  0  0  0  0  2  0  0  0  0  0  0
  190.8200  173.8970  137.5890 O   0  0  0  0  0  1  0  0  0  0  0  0
  1  4  1  1  0  0  0
  1 20  1  0  0  0  0
  2  9  1  0  0  0  0
  2  5  1  0  0  0  0
  3  7  1  0  0  0  0
  5 12  2  0  0  0  0
  6 25  1  0  0  0  0
  6  2  2  0  0  0  0
  8 28  1  0  0  0  0
  9 21  1  0  0  0  0
 10 27  1  0  0  0  0
 10 11  1  0  0  0  0
 11 24  1  0  0  0  0
 12 18  1  0  0  0  0
 13 19  1  0  0  0  0
 14 11  2  0  0  0  0
 14  6  1  0  0  0  0
 15 12  1  0  0  0  0
 16  3  1  0  0  0  0
 17 13  2  0  0  0  0
 17 22  1  0  0  0  0
 18 26  2  0  0  0  0
 19  3  2  0  0  0  0
 20 19  1  0  0  0  0
 22 16  2  0  0  0  0
 23 21  1  6  0  0  0
 23  1  1  0  0  0  0
 23 13  1  0  0  0  0
 24 28  2  0  0  0  0
 24  9  1  0  0  0  0
 25 15  2  0  0  0  0
 26  4  1  0  0  0  0
 27  8  2  0  0  0  0
 29 30  1  0  0  0  0
 30 22  1  0  0  0  0
 31 32  1  0  0  0  0
 31 25  1  0  0  0  0
M  END
>  <MODEL>
1

>  <REMARK>
 VINA RESULT:      -9.0      0.000      0.000
  Name = 
  2 active torsions:
  status: ('A' for Active; 'I' for Inactive)
    1  A    between atoms: C_13  and  CA_29
    2  A    between atoms: O_15  and  C_26
                            x       y       z     vdW  Elec       q    Type
                         _______ _______ _______ _____ _____    ______ ____

>  <TORSDO>
F 2

$$$$
=
 OpenBabel10262421103D

 32 37  0  0  1  0  0  0  0  0999 V2000
  188.8930  176.1420  137.6800 C   0  0  1  0  0  3  0  0  0  0  0  0
  188.4650  178.4330  140.1060 C   0  0  0  0  0  0  0  0  0  0  0  0
  191.5840  173.7160  136.2670 C   0  0  0  0  0  0  0  0  0  0  0  0
  188.8690  177.2790  136.6390 C   0  0  0  0  0  2  0  0  0  0  0  0
  188.1000  178.6080  138.8300 N   0  0  0  0  0  0  0  0  0  0  0  0
  187.4900  178.4340  141.1060 C   0  0  0  0  0  0  0  0  0  0  0  0
  191.1240  172.8970  135.2890 F   0  0  0  0  0  0  0  0  0  0  0  0
  191.6800  176.8630  143.4550 C   0  0  0  0  0  3  0  0  0  0  0  0
  189.7780  177.9390  140.3700 N   0  0  0  0  0  0  0  0  0  0  0  0
  189.4050  177.5460  144.2340 C   0  0  0  0  0  3  0  0  0  0  0  0
  189.0780  177.8000  142.7890 C   0  0  0  0  0  0  0  0  0  0  0  0
  186.8160  178.6160  138.4400 C   0  0  0  0  0  0  0  0  0  0  0  0
  191.1790  175.3640  137.9830 C   0  0  0  0  0  0  0  0  0  0  0  0
  187.8690  178.1620  142.4660 N   0  0  0  0  0  0  0  0  0  0  0  0
  185.8320  178.6280  139.3810 N   0  0  0  0  0  0  0  0  0  0  0  0
  192.9530  173.7580  136.5600 C   0  0  0  0  0  3  0  0  0  0  0  0
  192.5420  175.4030  138.2980 C   0  0  0  0  0  3  0  0  0  0  0  0
  186.5400  178.2640  137.0380 C   0  0  0  0  0  3  0  0  0  0  0  0
  190.7050  174.5120  137.0060 C   0  0  0  0  0  0  0  0  0  0  0  0
  188.9370  174.5500  136.7730 S   0  0  0  0  0  0  0  0  0  0  0  0
  190.5990  177.5030  139.2270 C   0  0  0  0  0  2  0  0  0  0  0  0
  193.4380  174.5980  137.5820 C   0  0  0  0  0  0  0  0  0  0  0  0
  190.1130  176.1500  138.6540 C   0  0  1  0  0  3  0  0  0  0  0  0
  190.1180  177.6310  141.7340 C   0  0  1  0  0  3  0  0  0  0  0  0
  186.1460  178.5920  140.7120 C   0  0  0  0  0  0  0  0  0  0  0  0
  187.4530  177.6690  136.2370 C   0  0  0  0  0  3  0  0  0  0  0  0
  190.8010  177.0180  144.4480 C   0  0  0  0  0  3  0  0  0  0  0  0
  191.3350  177.1880  142.0620 C   0  0  0  0  0  3  0  0  0  0  0  0
  195.4340  173.6780  138.7180 C   0  0  0  0  0  1  0  0  0  0  0  0
  194.7970  174.6510  137.9010 O   0  0  0  0  0  0  0  0  0  0  0  0
  185.0530  178.6230  141.7240 C   0  0  0  0  0  2  0  0  0  0  0  0
  183.9620  177.8910  141.2580 O   0  0  0  0  0  1  0  0  0  0  0  0
  1  4  1  6  0  0  0
  1 23  1  0  0  0  0
  2  9  1  0  0  0  0
  2  6  2  0  0  0  0
  3 16  2  0  0  0  0
  3 19  1  0  0  0  0
  5  2  1  0  0  0  0
  6 14  1  0  0  0  0
  7  3  1  0  0  0  0
  8 27  1  0  0  0  0
  9 24  1  0  0  0  0
 10 27  2  0  0  0  0
 11 10  1  0  0  0  0
 12  5  2  0  0  0  0
 12 15  1  0  0  0  0
 13 17  1  0  0  0  0
 13 23  1  0  0  0  0
 14 11  2  0  0  0  0
 15 25  2  0  0  0  0
 16 22  1  0  0  0  0
 18 12  1  0  0  0  0
 19 13  2  0  0  0  0
 20 19  1  0  0  0  0
 20  1  1  0  0  0  0
 21  9  1  0  0  0  0
 22 30  1  0  0  0  0
 22 17  2  0  0  0  0
 23 21  1  6  0  0  0
 24 28  1  6  0  0  0
 24 11  1  0  0  0  0
 25  6  1  0  0  0  0
 25 31  1  0  0  0  0
 26  4  1  0  0  0  0
 26 18  2  0  0  0  0
 28  8  2  0  0  0  0
 30 29  1  0  0  0  0
 32 31  1  0  0  0  0
M  END
>  <MODEL>
2

>  <REMARK>
 VINA RESULT:      -8.4      3.284      8.154
  Name = 
  2 active torsions:
  status: ('A' for Active; 'I' for Inactive)
    1  A    between atoms: C_13  and  CA_29
    2  A    between atoms: O_15  and  C_26
                            x       y       z     vdW  Elec       q    Type
                         _______ _______ _______ _____ _____    ______ ____

>  <TORSDO>
F 2

$$$$
=
 OpenBabel10262421103D

 32 37  0  0  1  0  0  0  0  0999 V2000
  187.8690  176.6320  138.3550 C   0  0  1  0  0  3  0  0  0  0  0  0
  187.5390  178.5580  141.0940 C   0  0  0  0  0  0  0  0  0  0  0  0
  190.5800  174.7230  136.3220 C   0  0  0  0  0  0  0  0  0  0  0  0
  187.5890  177.8720  137.4830 C   0  0  0  0  0  2  0  0  0  0  0  0
  186.9900  178.8360  139.9060 N   0  0  0  0  0  0  0  0  0  0  0  0
  186.7130  178.3270  142.1960 C   0  0  0  0  0  0  0  0  0  0  0  0
  190.0780  173.9760  135.3090 F   0  0  0  0  0  0  0  0  0  0  0  0
  191.3200  177.0000  143.7950 C   0  0  0  0  0  3  0  0  0  0  0  0
  188.9200  178.1960  141.1310 N   0  0  0  0  0  0  0  0  0  0  0  0
  189.1120  177.3140  144.9270 C   0  0  0  0  0  3  0  0  0  0  0  0
  188.5700  177.6940  143.5770 C   0  0  0  0  0  0  0  0  0  0  0  0
  185.6710  178.7380  139.6780 C   0  0  0  0  0  0  0  0  0  0  0  0
  190.2430  176.1010  138.2760 C   0  0  0  0  0  0  0  0  0  0  0  0
  187.2970  177.9450  143.4520 N   0  0  0  0  0  0  0  0  0  0  0  0
  184.8270  178.5240  140.7250 N   0  0  0  0  0  0  0  0  0  0  0  0
  191.9640  174.8930  136.4510 C   0  0  0  0  0  3  0  0  0  0  0  0
  191.6240  176.2630  138.4260 C   0  0  0  0  0  3  0  0  0  0  0  0
  185.2470  178.5220  138.2860 C   0  0  0  0  0  3  0  0  0  0  0  0
  189.7310  175.3180  137.2600 C   0  0  0  0  0  0  0  0  0  0  0  0
  187.9530  175.1740  137.2500 S   0  0  0  0  0  0  0  0  0  0  0  0
  189.6200  177.9960  139.8500 C   0  0  0  0  0  2  0  0  0  0  0  0
  192.4940  175.6590  137.5080 C   0  0  0  0  0  0  0  0  0  0  0  0
  189.2020  176.6720  139.1680 C   0  0  1  0  0  3  0  0  0  0  0  0
  189.4700  177.7730  142.3910 C   0  0  1  0  0  3  0  0  0  0  0  0
  185.3190  178.3700  141.9910 C   0  0  0  0  0  0  0  0  0  0  0  0
  186.1000  178.1370  137.3090 C   0  0  0  0  0  3  0  0  0  0  0  0
  190.5710  176.9340  144.8990 C   0  0  0  0  0  3  0  0  0  0  0  0
  190.7590  177.4420  142.5090 C   0  0  0  0  0  3  0  0  0  0  0  0
  194.7550  174.7610  137.9540 C   0  0  0  0  0  1  0  0  0  0  0  0
  193.8710  175.8350  137.6650 O   0  0  0  0  0  0  0  0  0  0  0  0
  184.3740  178.1530  143.1230 C   0  0  0  0  0  2  0  0  0  0  0  0
  183.9930  179.3840  143.6570 O   0  0  0  0  0  1  0  0  0  0  0  0
  1  4  1  6  0  0  0
  1 23  1  0  0  0  0
  2  9  1  0  0  0  0
  2  6  2  0  0  0  0
  3 16  2  0  0  0  0
  3 19  1  0  0  0  0
  5  2  1  0  0  0  0
  6 14  1  0  0  0  0
  7  3  1  0  0  0  0
  8 27  1  0  0  0  0
  9 24  1  0  0  0  0
 11 10  1  0  0  0  0
 12  5  2  0  0  0  0
 12 15  1  0  0  0  0
 13 17  1  0  0  0  0
 13 23  1  0  0  0  0
 14 11  2  0  0  0  0
 15 25  2  0  0  0  0
 16 22  1  0  0  0  0
 18 12  1  0  0  0  0
 19 13  2  0  0  0  0
 20 19  1  0  0  0  0
 20  1  1  0  0  0  0
 21  9  1  0  0  0  0
 22 30  1  0  0  0  0
 22 17  2  0  0  0  0
 23 21  1  6  0  0  0
 24 28  1  6  0  0  0
 24 11  1  0  0  0  0
 25  6  1  0  0  0  0
 25 31  1  0  0  0  0
 26  4  1  0  0  0  0
 26 18  2  0  0  0  0
 27 10  2  0  0  0  0
 28  8  2  0  0  0  0
 30 29  1  0  0  0  0
 31 32  1  0  0  0  0
M  END
>  <MODEL>
3

>  <REMARK>
 VINA RESULT:      -8.4      3.021      8.041
  Name = 
  2 active torsions:
  status: ('A' for Active; 'I' for Inactive)
    1  A    between atoms: C_13  and  CA_29
    2  A    between atoms: O_15  and  C_26
                            x       y       z     vdW  Elec       q    Type
                         _______ _______ _______ _____ _____    ______ ____

>  <TORSDO>
F 2

$$$$
=
 OpenBabel10262421103D

 32 37  0  0  1  0  0  0  0  0999 V2000
  187.2820  177.5080  142.1270 C   0  0  1  0  0  3  0  0  0  0  0  0
  184.9390  178.7520  140.0590 C   0  0  0  0  0  0  0  0  0  0  0  0
  188.0950  177.1890  145.9170 C   0  0  0  0  0  0  0  0  0  0  0  0
  188.2460  178.6150  141.6570 C   0  0  0  0  0  2  0  0  0  0  0  0
  186.2560  178.9230  139.8960 N   0  0  0  0  0  0  0  0  0  0  0  0
  184.2100  178.0580  139.0910 C   0  0  0  0  0  0  0  0  0  0  0  0
  189.1900  176.4350  146.1800 F   0  0  0  0  0  0  0  0  0  0  0  0
  180.9740  178.5970  142.9360 C   0  0  0  0  0  3  0  0  0  0  0  0
  184.3810  179.0020  141.3490 N   0  0  0  0  0  0  0  0  0  0  0  0
  180.7490  177.8080  140.5740 C   0  0  0  0  0  2  0  0  0  0  0  0
  182.2180  178.0940  140.4270 C   0  0  0  0  0  0  0  0  0  0  0  0
  186.9500  178.3090  138.9230 C   0  0  0  0  0  0  0  0  0  0  0  0
  186.4600  178.0370  144.3560 C   0  0  0  0  0  0  0  0  0  0  0  0
  182.8120  177.8010  139.3050 N   0  0  0  0  0  0  0  0  0  0  0  0
  186.2790  177.6290  137.9530 N   0  0  0  0  0  0  0  0  0  0  0  0
  187.4720  177.9060  146.9470 C   0  0  0  0  0  3  0  0  0  0  0  0
  185.8190  178.7440  145.3790 C   0  0  0  0  0  3  0  0  0  0  0  0
  188.3900  178.1130  139.1510 C   0  0  0  0  0  3  0  0  0  0  0  0
  187.5600  177.2480  144.6270 C   0  0  0  0  0  0  0  0  0  0  0  0
  188.2190  176.3730  143.2190 S   0  0  0  0  0  0  0  0  0  0  0  0
  185.3050  179.2790  142.4630 C   0  0  0  0  0  2  0  0  0  0  0  0
  186.3260  178.6830  146.6830 C   0  0  0  0  0  0  0  0  0  0  0  0
  186.0380  177.9990  142.9320 C   0  0  1  0  0  3  0  0  0  0  0  0
  182.9910  178.6930  141.5520 C   0  0  0  0  0  0  0  0  0  0  0  0
  184.9150  177.5370  137.9880 C   0  0  0  0  0  0  0  0  0  0  0  0
  188.9670  178.2490  140.3660 C   0  0  0  0  0  3  0  0  0  0  0  0
  180.2220  178.0830  141.9590 C   0  0  0  0  0  3  0  0  0  0  0  0
  182.3930  178.9220  142.7250 C   0  0  0  0  0  3  0  0  0  0  0  0
  186.0910  180.6990  148.0960 C   0  0  0  0  0  1  0  0  0  0  0  0
  185.6810  179.4000  147.6940 O   0  0  0  0  0  0  0  0  0  0  0  0
  184.2020  176.8020  136.9040 C   0  0  0  0  0  2  0  0  0  0  0  0
  184.1980  175.4370  137.1880 O   0  0  0  0  0  1  0  0  0  0  0  0
  1  4  1  1  0  0  0
  1 23  1  0  0  0  0
  1 20  1  0  0  0  0
  2  9  1  0  0  0  0
  3  7  1  0  0  0  0
  3 16  1  0  0  0  0
  5  2  1  0  0  0  0
  6 14  1  0  0  0  0
  6  2  2  0  0  0  0
  9 24  1  0  0  0  0
  9 21  1  0  0  0  0
 10 27  1  0  0  0  0
 11 10  1  0  0  0  0
 11 24  1  0  0  0  0
 12 18  1  0  0  0  0
 12  5  2  0  0  0  0
 13 19  1  0  0  0  0
 13 17  2  0  0  0  0
 14 11  2  0  0  0  0
 15 25  2  0  0  0  0
 15 12  1  0  0  0  0
 17 22  1  0  0  0  0
 18 26  2  0  0  0  0
 19  3  2  0  0  0  0
 20 19  1  0  0  0  0
 22 16  2  0  0  0  0
 22 30  1  0  0  0  0
 23 21  1  6  0  0  0
 23 13  1  0  0  0  0
 24 28  2  0  0  0  0
 25  6  1  0  0  0  0
 26  4  1  0  0  0  0
 27  8  2  0  0  0  0
 28  8  1  0  0  0  0
 30 29  1  0  0  0  0
 31 32  1  0  0  0  0
 31 25  1  0  0  0  0
M  END
>  <MODEL>
4

>  <REMARK>
 VINA RESULT:      -8.2      2.579      4.535
  Name = 
  2 active torsions:
  status: ('A' for Active; 'I' for Inactive)
    1  A    between atoms: C_13  and  CA_29
    2  A    between atoms: O_15  and  C_26
                            x       y       z     vdW  Elec       q    Type
                         _______ _______ _______ _____ _____    ______ ____

>  <TORSDO>
F 2

$$$$
=
 OpenBabel10262421103D

 32 37  0  0  1  0  0  0  0  0999 V2000
  187.8680  177.3350  141.8030 C   0  0  1  0  0  3  0  0  0  0  0  0
  185.8060  178.4660  139.3970 C   0  0  0  0  0  0  0  0  0  0  0  0
  188.1620  177.1470  145.6760 C   0  0  0  0  0  0  0  0  0  0  0  0
  188.8670  178.4490  141.4330 C   0  0  0  0  0  2  0  0  0  0  0  0
  187.1300  178.6600  139.4080 N   0  0  0  0  0  0  0  0  0  0  0  0
  185.2290  177.7270  138.3620 C   0  0  0  0  0  0  0  0  0  0  0  0
  189.2250  176.4260  146.1100 F   0  0  0  0  0  0  0  0  0  0  0  0
  181.4900  178.3080  141.7130 C   0  0  0  0  0  3  0  0  0  0  0  0
  185.0730  178.7410  140.5910 N   0  0  0  0  0  0  0  0  0  0  0  0
  181.6030  177.4450  139.3690 C   0  0  0  0  0  2  0  0  0  0  0  0
  183.0720  177.7580  139.4140 C   0  0  0  0  0  0  0  0  0  0  0  0
  187.9600  178.0340  138.5600 C   0  0  0  0  0  0  0  0  0  0  0  0
  186.7410  177.9120  143.8820 C   0  0  0  0  0  0  0  0  0  0  0  0
  183.8190  177.4450  138.3930 N   0  0  0  0  0  0  0  0  0  0  0  0
  187.4410  177.3110  137.5300 N   0  0  0  0  0  0  0  0  0  0  0  0
  187.3930  177.8800  146.5880 C   0  0  0  0  0  3  0  0  0  0  0  0
  185.9540  178.6350  144.7850 C   0  0  0  0  0  3  0  0  0  0  0  0
  189.3600  177.8770  138.9860 C   0  0  0  0  0  3  0  0  0  0  0  0
  187.8080  177.1560  144.3250 C   0  0  0  0  0  0  0  0  0  0  0  0
  188.6670  176.2540  143.0480 S   0  0  0  0  0  0  0  0  0  0  0  0
  185.8320  179.0710  141.8100 C   0  0  0  0  0  2  0  0  0  0  0  0
  186.2790  178.6230  146.1470 C   0  0  0  0  0  0  0  0  0  0  0  0
  186.5170  177.8230  142.4160 C   0  0  1  0  0  3  0  0  0  0  0  0
  183.6740  178.4070  140.6130 C   0  0  0  0  0  0  0  0  0  0  0  0
  186.0860  177.1900  137.3820 C   0  0  0  0  0  0  0  0  0  0  0  0
  189.7630  178.0620  140.2640 C   0  0  0  0  0  3  0  0  0  0  0  0
  180.8870  177.7480  140.6600 C   0  0  0  0  0  3  0  0  0  0  0  0
  182.9190  178.6580  141.6860 C   0  0  0  0  0  3  0  0  0  0  0  0
  186.0410  180.1610  148.0700 C   0  0  0  0  0  1  0  0  0  0  0  0
  185.4900  179.3550  147.0370 O   0  0  0  0  0  0  0  0  0  0  0  0
  185.5410  176.4070  136.2360 C   0  0  0  0  0  2  0  0  0  0  0  0
  185.5820  175.0460  136.5370 O   0  0  0  0  0  1  0  0  0  0  0  0
  1  4  1  1  0  0  0
  1 23  1  0  0  0  0
  1 20  1  0  0  0  0
  2  5  1  0  0  0  0
  2  9  1  0  0  0  0
  3  7  1  0  0  0  0
  3 16  1  0  0  0  0
  6 14  1  0  0  0  0
  6  2  2  0  0  0  0
  9 24  1  0  0  0  0
  9 21  1  0  0  0  0
 10 11  1  0  0  0  0
 10 27  1  0  0  0  0
 11 24  1  0  0  0  0
 12 18  1  0  0  0  0
 12  5  2  0  0  0  0
 13 19  1  0  0  0  0
 13 17  2  0  0  0  0
 14 11  2  0  0  0  0
 15 12  1  0  0  0  0
 17 22  1  0  0  0  0
 18 26  2  0  0  0  0
 19  3  2  0  0  0  0
 20 19  1  0  0  0  0
 22 16  2  0  0  0  0
 22 30  1  0  0  0  0
 23 21  1  6  0  0  0
 23 13  1  0  0  0  0
 24 28  2  0  0  0  0
 25 15  2  0  0  0  0
 25  6  1  0  0  0  0
 26  4  1  0  0  0  0
 27  8  2  0  0  0  0
 28  8  1  0  0  0  0
 30 29  1  0  0  0  0
 31 32  1  0  0  0  0
 31 25  1  0  0  0  0
M  END
>  <MODEL>
5

>  <REMARK>
 VINA RESULT:      -8.1      2.208      3.681
  Name = 
  2 active torsions:
  status: ('A' for Active; 'I' for Inactive)
    1  A    between atoms: C_13  and  CA_29
    2  A    between atoms: O_15  and  C_26
                            x       y       z     vdW  Elec       q    Type
                         _______ _______ _______ _____ _____    ______ ____

>  <TORSDO>
F 2

$$$$
=
 OpenBabel10262421103D

 32 37  0  0  1  0  0  0  0  0999 V2000
  190.2920  177.6960  144.0480 C   0  0  1  0  0  3  0  0  0  0  0  0
  187.3030  177.2860  145.5380 C   0  0  0  0  0  0  0  0  0  0  0  0
  191.9440  177.5980  140.5290 C   0  0  0  0  0  0  0  0  0  0  0  0
  190.7630  176.3760  144.6900 C   0  0  0  0  0  2  0  0  0  0  0  0
  188.4460  176.7430  145.9760 N   0  0  0  0  0  0  0  0  0  0  0  0
  186.6260  178.2040  146.3420 C   0  0  0  0  0  0  0  0  0  0  0  0
  193.2430  177.9850  140.5220 F   0  0  0  0  0  0  0  0  0  0  0  0
  184.2630  178.4730  141.8820 C   0  0  0  0  0  3  0  0  0  0  0  0
  186.9830  177.1550  144.1530 N   0  0  0  0  0  0  0  0  0  0  0  0
  183.7880  179.3940  144.1570 C   0  0  0  0  0  3  0  0  0  0  0  0
  185.0410  178.6970  144.6090 C   0  0  0  0  0  0  0  0  0  0  0  0
  189.0680  177.1680  147.0880 C   0  0  0  0  0  0  0  0  0  0  0  0
  189.8400  177.3350  141.6840 C   0  0  0  0  0  0  0  0  0  0  0  0
  185.4450  178.8510  145.8380 N   0  0  0  0  0  0  0  0  0  0  0  0
  188.4400  178.0560  147.9060 N   0  0  0  0  0  0  0  0  0  0  0  0
  191.3690  177.0510  139.3740 C   0  0  0  0  0  3  0  0  0  0  0  0
  189.2500  176.8040  140.5320 C   0  0  0  0  0  3  0  0  0  0  0  0
  190.5160  176.9220  147.1790 C   0  0  0  0  0  3  0  0  0  0  0  0
  191.1560  177.7550  141.6720 C   0  0  0  0  0  0  0  0  0  0  0  0
  191.7310  178.4580  143.2080 S   0  0  0  0  0  0  0  0  0  0  0  0
  187.9970  176.5710  143.2570 C   0  0  0  0  0  2  0  0  0  0  0  0
  190.0160  176.6570  139.3690 C   0  0  0  0  0  0  0  0  0  0  0  0
  189.1580  177.5570  142.9840 C   0  0  1  0  0  3  0  0  0  0  0  0
  185.8220  177.8490  143.6640 C   0  0  1  0  0  3  0  0  0  0  0  0
  187.2030  178.5430  147.5820 C   0  0  0  0  0  0  0  0  0  0  0  0
  191.2700  176.5700  146.1130 C   0  0  0  0  0  3  0  0  0  0  0  0
  183.5090  179.2270  142.6850 C   0  0  0  0  0  3  0  0  0  0  0  0
  185.4450  177.7550  142.3850 C   0  0  0  0  0  3  0  0  0  0  0  0
  188.1690  176.5780  137.7250 C   0  0  0  0  0  1  0  0  0  0  0  0
  189.4160  176.1180  138.2280 O   0  0  0  0  0  0  0  0  0  0  0  0
  186.5280  179.5010  148.5020 C   0  0  0  0  0  2  0  0  0  0  0  0
  186.1540  180.6440  147.7970 O   0  0  0  0  0  1  0  0  0  0  0  0
  1  4  1  6  0  0  0
  2  5  1  0  0  0  0
  2  6  2  0  0  0  0
  3 19  1  0  0  0  0
  4 26  1  0  0  0  0
  5 12  2  0  0  0  0
  6 25  1  0  0  0  0
  7  3  1  0  0  0  0
  8 28  2  0  0  0  0
  8 27  1  0  0  0  0
  9  2  1  0  0  0  0
 10 11  1  0  0  0  0
 11 14  2  0  0  0  0
 12 18  1  0  0  0  0
 12 15  1  0  0  0  0
 13 23  1  0  0  0  0
 14  6  1  0  0  0  0
 16  3  2  0  0  0  0
 17 13  1  0  0  0  0
 19 13  2  0  0  0  0
 19 20  1  0  0  0  0
 20  1  1  0  0  0  0
 21  9  1  0  0  0  0
 22 16  1  0  0  0  0
 22 17  2  0  0  0  0
 23 21  1  1  0  0  0
 23  1  1  0  0  0  0
 24 28  1  6  0  0  0
 24  9  1  0  0  0  0
 24 11  1  0  0  0  0
 25 15  2  0  0  0  0
 25 31  1  0  0  0  0
 26 18  2  0  0  0  0
 27 10  2  0  0  0  0
 29 30  1  0  0  0  0
 30 22  1  0  0  0  0
 32 31  1  0  0  0  0
M  END
>  <MODEL>
6

>  <REMARK>
 VINA RESULT:      -7.9      3.530      7.248
  Name = 
  2 active torsions:
  status: ('A' for Active; 'I' for Inactive)
    1  A    between atoms: C_13  and  CA_29
    2  A    between atoms: O_15  and  C_26
                            x       y       z     vdW  Elec       q    Type
                         _______ _______ _______ _____ _____    ______ ____

>  <TORSDO>
F 2

$$$$
=
 OpenBabel10262421103D

 32 37  0  0  1  0  0  0  0  0999 V2000
  190.1150  176.8660  142.2530 C   0  0  1  0  0  3  0  0  0  0  0  0
  187.9370  178.6280  140.3890 C   0  0  0  0  0  0  0  0  0  0  0  0
  191.0010  176.1360  145.9680 C   0  0  0  0  0  0  0  0  0  0  0  0
  191.2320  177.8330  141.8120 C   0  0  0  0  0  2  0  0  0  0  0  0
  189.2580  178.5920  140.1740 N   0  0  0  0  0  0  0  0  0  0  0  0
  187.0680  178.1360  139.4130 C   0  0  0  0  0  0  0  0  0  0  0  0
  191.9650  175.1960  146.1270 F   0  0  0  0  0  0  0  0  0  0  0  0
  184.1100  178.9080  143.4380 C   0  0  0  0  0  3  0  0  0  0  0  0
  187.4760  178.8680  141.7190 N   0  0  0  0  0  0  0  0  0  0  0  0
  183.6700  178.3460  141.0410 C   0  0  0  0  0  2  0  0  0  0  0  0
  185.1600  178.3970  140.8440 C   0  0  0  0  0  0  0  0  0  0  0  0
  189.8030  177.9480  139.1300 C   0  0  0  0  0  0  0  0  0  0  0  0
  189.4750  177.3550  144.5490 C   0  0  0  0  0  0  0  0  0  0  0  0
  185.6560  178.0950  139.6770 N   0  0  0  0  0  0  0  0  0  0  0  0
  188.9940  177.4610  138.1500 N   0  0  0  0  0  0  0  0  0  0  0  0
  190.5450  176.8670  147.0730 C   0  0  0  0  0  3  0  0  0  0  0  0
  188.9980  178.0790  145.6470 C   0  0  0  0  0  3  0  0  0  0  0  0
  191.1980  177.5030  139.2740 C   0  0  0  0  0  3  0  0  0  0  0  0
  190.4370  176.3780  144.7130 C   0  0  0  0  0  0  0  0  0  0  0  0
  190.8890  175.5150  143.2180 S   0  0  0  0  0  0  0  0  0  0  0  0
  188.4740  178.9070  142.8030 C   0  0  0  0  0  2  0  0  0  0  0  0
  189.5360  177.8380  146.9190 C   0  0  0  0  0  0  0  0  0  0  0  0
  189.0000  177.4930  143.1490 C   0  0  1  0  0  3  0  0  0  0  0  0
  186.0620  178.7760  141.9670 C   0  0  0  0  0  0  0  0  0  0  0  0
  187.6350  177.5910  138.2440 C   0  0  0  0  0  0  0  0  0  0  0  0
  191.8340  177.4520  140.4660 C   0  0  0  0  0  3  0  0  0  0  0  0
  183.2470  178.5980  142.4660 C   0  0  0  0  0  3  0  0  0  0  0  0
  185.5550  179.0120  143.1810 C   0  0  0  0  0  3  0  0  0  0  0  0
  187.9930  178.1190  148.8320 C   0  0  0  0  0  1  0  0  0  0  0  0
  189.0560  178.5740  148.0060 O   0  0  0  0  0  0  0  0  0  0  0  0
  186.7710  177.0650  137.1500 C   0  0  0  0  0  2  0  0  0  0  0  0
  186.7770  175.6710  137.1770 O   0  0  0  0  0  1  0  0  0  0  0  0
  1  4  1  1  0  0  0
  1 23  1  0  0  0  0
  1 20  1  0  0  0  0
  2  9  1  0  0  0  0
  3  7  1  0  0  0  0
  3 16  1  0  0  0  0
  5  2  1  0  0  0  0
  6 14  1  0  0  0  0
  6  2  2  0  0  0  0
  9 24  1  0  0  0  0
  9 21  1  0  0  0  0
 10 27  1  0  0  0  0
 11 10  1  0  0  0  0
 11 24  1  0  0  0  0
 12 18  1  0  0  0  0
 12  5  2  0  0  0  0
 13 19  1  0  0  0  0
 13 17  2  0  0  0  0
 14 11  2  0  0  0  0
 15 25  2  0  0  0  0
 15 12  1  0  0  0  0
 17 22  1  0  0  0  0
 18 26  2  0  0  0  0
 19  3  2  0  0  0  0
 20 19  1  0  0  0  0
 22 16  2  0  0  0  0
 22 30  1  0  0  0  0
 23 21  1  6  0  0  0
 23 13  1  0  0  0  0
 24 28  2  0  0  0  0
 25  6  1  0  0  0  0
 26  4  1  0  0  0  0
 27  8  2  0  0  0  0
 28  8  1  0  0  0  0
 30 29  1  0  0  0  0
 31 32  1  0  0  0  0
 31 25  1  0  0  0  0
M  END
>  <MODEL>
7

>  <REMARK>
 VINA RESULT:      -7.8      2.668      4.199
  Name = 
  2 active torsions:
  status: ('A' for Active; 'I' for Inactive)
    1  A    between atoms: C_13  and  CA_29
    2  A    between atoms: O_15  and  C_26
                            x       y       z     vdW  Elec       q    Type
                         _______ _______ _______ _____ _____    ______ ____

>  <TORSDO>
F 2

$$$$
=
 OpenBabel10262421103D

 32 37  0  0  1  0  0  0  0  0999 V2000
  182.7850  177.4260  140.4310 C   0  0  1  0  0  3  0  0  0  0  0  0
  185.1670  179.0230  142.1910 C   0  0  0  0  0  0  0  0  0  0  0  0
  182.0820  176.0650  136.8570 C   0  0  0  0  0  0  0  0  0  0  0  0
  181.9220  178.7020  140.4930 C   0  0  0  0  0  2  0  0  0  0  0  0
  183.8680  179.3470  142.2120 N   0  0  0  0  0  0  0  0  0  0  0  0
  185.7850  178.5880  143.3650 C   0  0  0  0  0  0  0  0  0  0  0  0
  180.9260  175.3640  136.7550 F   0  0  0  0  0  0  0  0  0  0  0  0
  189.1970  177.6770  139.7480 C   0  0  0  0  0  3  0  0  0  0  0  0
  185.7930  178.8280  140.9230 N   0  0  0  0  0  0  0  0  0  0  0  0
  189.2550  177.6110  142.2460 C   0  0  0  0  0  3  0  0  0  0  0  0
  187.8180  178.0520  142.2080 C   0  0  0  0  0  0  0  0  0  0  0  0
  183.0820  179.1120  143.2740 C   0  0  0  0  0  0  0  0  0  0  0  0
  183.7370  177.1950  138.2030 C   0  0  0  0  0  0  0  0  0  0  0  0
  187.1570  178.1590  143.3260 N   0  0  0  0  0  0  0  0  0  0  0  0
  183.6440  178.6970  144.4430 N   0  0  0  0  0  0  0  0  0  0  0  0
  182.8100  176.3870  135.7040 C   0  0  0  0  0  3  0  0  0  0  0  0
  184.4830  177.5080  137.0610 C   0  0  0  0  0  3  0  0  0  0  0  0
  181.6380  178.9830  143.0220 C   0  0  0  0  0  3  0  0  0  0  0  0
  182.5720  176.4590  138.1040 C   0  0  0  0  0  0  0  0  0  0  0  0
  181.7780  176.1030  139.6620 S   0  0  0  0  0  0  0  0  0  0  0  0
  184.9430  178.8400  139.7190 C   0  0  0  0  0  2  0  0  0  0  0  0
  184.0190  177.1050  135.8020 C   0  0  0  0  0  0  0  0  0  0  0  0
  184.1010  177.5470  139.5990 C   0  0  1  0  0  3  0  0  0  0  0  0
  187.1510  178.3540  140.9100 C   0  0  1  0  0  3  0  0  0  0  0  0
  184.9930  178.4810  144.5240 C   0  0  0  0  0  0  0  0  0  0  0  0
  181.1220  178.8000  141.7850 C   0  0  0  0  0  3  0  0  0  0  0  0
  189.8570  177.4140  140.8790 C   0  0  0  0  0  3  0  0  0  0  0  0
  187.8110  178.1720  139.7620 C   0  0  0  0  0  3  0  0  0  0  0  0
  186.1900  177.4820  134.6770 C   0  0  0  0  0  1  0  0  0  0  0  0
  184.7700  177.4310  134.6690 O   0  0  0  0  0  0  0  0  0  0  0  0
  185.5870  178.0430  145.8190 C   0  0  0  0  0  2  0  0  0  0  0  0
  184.8610  178.5890  146.8770 O   0  0  0  0  0  1  0  0  0  0  0  0
  1  4  1  6  0  0  0
  2  5  1  0  0  0  0
  2  6  2  0  0  0  0
  3 19  1  0  0  0  0
  4 26  1  0  0  0  0
  5 12  2  0  0  0  0
  6 25  1  0  0  0  0
  7  3  1  0  0  0  0
  8 28  2  0  0  0  0
  8 27  1  0  0  0  0
  9  2  1  0  0  0  0
 11 10  1  0  0  0  0
 11 14  2  0  0  0  0
 12 15  1  0  0  0  0
 13 23  1  0  0  0  0
 14  6  1  0  0  0  0
 15 25  2  0  0  0  0
 16 22  1  0  0  0  0
 16  3  2  0  0  0  0
 17 13  1  0  0  0  0
 18 12  1  0  0  0  0
 19 13  2  0  0  0  0
 19 20  1  0  0  0  0
 20  1  1  0  0  0  0
 21  9  1  0  0  0  0
 22 17  2  0  0  0  0
 23 21  1  6  0  0  0
 23  1  1  0  0  0  0
 24 28  1  6  0  0  0
 24  9  1  0  0  0  0
 24 11  1  0  0  0  0
 25 31  1  0  0  0  0
 26 18  2  0  0  0  0
 27 10  2  0  0  0  0
 30 29  1  0  0  0  0
 30 22  1  0  0  0  0
 31 32  1  0  0  0  0
M  END
>  <MODEL>
8

>  <REMARK>
 VINA RESULT:      -7.6      3.635      7.832
  Name = 
  2 active torsions:
  status: ('A' for Active; 'I' for Inactive)
    1  A    between atoms: C_13  and  CA_29
    2  A    between atoms: O_15  and  C_26
                            x       y       z     vdW  Elec       q    Type
                         _______ _______ _______ _____ _____    ______ ____

>  <TORSDO>
F 2

$$$$
=
 OpenBabel10262421103D

 32 37  0  0  1  0  0  0  0  0999 V2000
  182.7090  177.4810  138.3140 C   0  0  1  0  0  3  0  0  0  0  0  0
  182.9800  179.3110  141.1250 C   0  0  0  0  0  0  0  0  0  0  0  0
  184.9110  175.8650  135.5470 C   0  0  0  0  0  0  0  0  0  0  0  0
  182.1050  178.7100  137.6050 C   0  0  0  0  0  2  0  0  0  0  0  0
  182.1090  179.5650  140.1400 N   0  0  0  0  0  0  0  0  0  0  0  0
  182.5040  178.9840  142.3960 C   0  0  0  0  0  0  0  0  0  0  0  0
  184.2150  175.0970  134.6720 F   0  0  0  0  0  0  0  0  0  0  0  0
  187.4630  178.0380  142.6420 C   0  0  0  0  0  3  0  0  0  0  0  0
  184.3430  179.0720  140.7740 N   0  0  0  0  0  0  0  0  0  0  0  0
  185.6260  178.1300  144.3360 C   0  0  0  0  0  3  0  0  0  0  0  0
  184.7100  178.4890  143.2000 C   0  0  0  0  0  0  0  0  0  0  0  0
  180.7900  179.3540  140.2700 C   0  0  0  0  0  0  0  0  0  0  0  0
  185.0070  177.1650  137.5790 C   0  0  0  0  0  0  0  0  0  0  0  0
  183.4350  178.6290  143.4320 N   0  0  0  0  0  0  0  0  0  0  0  0
  180.2810  179.0440  141.4940 N   0  0  0  0  0  0  0  0  0  0  0  0
  186.2610  176.1540  135.3070 C   0  0  0  0  0  3  0  0  0  0  0  0
  186.3600  177.4460  137.3600 C   0  0  0  0  0  3  0  0  0  0  0  0
  180.0230  179.1310  139.0350 C   0  0  0  0  0  3  0  0  0  0  0  0
  184.3040  176.3610  136.7030 C   0  0  0  0  0  0  0  0  0  0  0  0
  182.6060  176.0600  137.1630 S   0  0  0  0  0  0  0  0  0  0  0  0
  184.6840  178.9630  139.3450 C   0  0  0  0  0  2  0  0  0  0  0  0
  186.9940  176.9410  136.2170 C   0  0  0  0  0  0  0  0  0  0  0  0
  184.2040  177.6210  138.7420 C   0  0  1  0  0  3  0  0  0  0  0  0
  185.2460  178.6730  141.8210 C   0  0  1  0  0  3  0  0  0  0  0  0
  181.1090  178.9070  142.5750 C   0  0  0  0  0  0  0  0  0  0  0  0
  180.6080  178.8440  137.8490 C   0  0  0  0  0  3  0  0  0  0  0  0
  187.0480  177.8810  143.9020 C   0  0  0  0  0  3  0  0  0  0  0  0
  186.5410  178.4560  141.5740 C   0  0  0  0  0  3  0  0  0  0  0  0
  189.0500  178.1970  136.7790 C   0  0  0  0  0  1  0  0  0  0  0  0
  188.3430  177.2360  136.0070 O   0  0  0  0  0  0  0  0  0  0  0  0
  180.5260  178.5830  143.9080 C   0  0  0  0  0  2  0  0  0  0  0  0
  179.3050  177.9310  143.7390 O   0  0  0  0  0  1  0  0  0  0  0  0
  1  4  1  6  0  0  0
  1 23  1  0  0  0  0
  2  6  2  0  0  0  0
  3 19  1  0  0  0  0
  4 26  1  0  0  0  0
  5 12  2  0  0  0  0
  5  2  1  0  0  0  0
  6 25  1  0  0  0  0
  6 14  1  0  0  0  0
  7  3  1  0  0  0  0
  8 27  1  0  0  0  0
  9  2  1  0  0  0  0
  9 24  1  0  0  0  0
 11 14  2  0  0  0  0
 11 10  1  0  0  0  0
 12 15  1  0  0  0  0
 13 23  1  0  0  0  0
 15 25  2  0  0  0  0
 16  3  2  0  0  0  0
 16 22  1  0  0  0  0
 17 13  1  0  0  0  0
 18 12  1  0  0  0  0
 19 20  1  0  0  0  0
 19 13  2  0  0  0  0
 20  1  1  0  0  0  0
 21  9  1  0  0  0  0
 22 17  2  0  0  0  0
 23 21  1  6  0  0  0
 24 28  1  6  0  0  0
 24 11  1  0  0  0  0
 25 31  1  0  0  0  0
 26 18  2  0  0  0  0
 27 10  2  0  0  0  0
 28  8  2  0  0  0  0
 30 22  1  0  0  0  0
 30 29  1  0  0  0  0
 32 31  1  0  0  0  0
M  END
>  <MODEL>
9

>  <REMARK>
 VINA RESULT:      -7.0      4.066      8.839
  Name = 
  2 active torsions:
  status: ('A' for Active; 'I' for Inactive)
    1  A    between atoms: C_13  and  CA_29
    2  A    between atoms: O_15  and  C_26
                            x       y       z     vdW  Elec       q    Type
                         _______ _______ _______ _____ _____    ______ ____

>  <TORSDO>
F 2

$$$$
