=
 OpenBabel10262423283D

 34 39  0  0  0  0  0  0  0  0999 V2000
  187.6580  178.0150  143.1690 C   0  0  0  0  0  3  0  0  0  0  0  0
  191.2470  177.5850  142.0820 C   0  0  0  0  0  0  0  0  0  0  0  0
  191.9390  177.8490  144.4310 C   0  0  0  0  0  3  0  0  0  0  0  0
  187.0940  177.6050  145.4600 C   0  0  0  0  0  3  0  0  0  0  0  0
  189.0160  177.7110  143.3950 C   0  0  0  0  0  0  0  0  0  0  0  0
  188.4280  177.3160  145.7370 C   0  0  0  0  0  0  0  0  0  0  0  0
  190.0360  176.7140  147.3680 C   0  0  0  0  0  3  0  0  0  0  0  0
  188.7530  176.9280  146.9970 N   0  0  0  0  0  0  0  0  0  0  0  0
  186.7020  178.0010  144.1840 C   0  0  0  0  0  0  0  0  0  0  0  0
  190.7770  177.3200  145.1460 C   0  0  0  0  0  0  0  0  0  0  0  0
  189.4310  177.4480  144.7290 C   0  0  0  0  0  0  0  0  0  0  0  0
  191.0610  176.9380  146.4590 C   0  0  0  0  0  3  0  0  0  0  0  0
  191.8850  177.3720  140.8520 C   0  0  0  0  0  3  0  0  0  0  0  0
  191.1680  177.0080  139.7140 C   0  0  0  0  0  0  0  0  0  0  0  0
  189.7910  176.8460  139.7950 C   0  0  0  0  0  3  0  0  0  0  0  0
  192.1010  177.9670  143.1550 N   0  0  0  0  0  0  0  0  0  0  0  0
  189.1420  177.0740  141.0060 C   0  0  0  0  0  3  0  0  0  0  0  0
  189.8390  177.4580  142.1730 C   0  0  0  0  0  0  0  0  0  0  0  0
  183.0600  179.0030  144.6940 C   0  0  0  0  0  3  0  0  0  0  0  0
  184.8010  178.3110  142.5700 C   0  0  0  0  0  3  0  0  0  0  0  0
  181.3600  179.0520  141.4160 N   0  0  0  0  0  0  0  0  0  0  0  0
  180.2940  179.1990  140.4680 C   0  0  0  0  0  0  0  0  0  0  0  0
  181.2300  179.2560  142.8640 C   0  0  0  0  0  2  0  0  0  0  0  0
  180.4980  178.9900  139.2430 O   0  0  0  0  0  0  0  0  0  0  0  0
  182.6110  178.9650  143.3760 C   0  0  0  0  0  0  0  0  0  0  0  0
  178.9310  179.6000  140.9170 C   0  0  0  0  0  1  0  0  0  0  0  0
  182.7060  178.6790  141.1270 C   0  0  0  0  0  0  0  0  0  0  0  0
  183.4640  178.6280  142.3500 C   0  0  0  0  0  0  0  0  0  0  0  0
  183.1510  178.4330  139.9740 O   0  0  0  0  0  0  0  0  0  0  0  0
  185.2880  178.3400  143.8950 C   0  0  0  0  0  0  0  0  0  0  0  0
  184.4050  178.6880  144.9480 C   0  0  0  0  0  3  0  0  0  0  0  0
  191.8780  176.7550  138.4310 C   0  0  0  0  0  2  0  0  0  0  0  0
  193.3140  176.7400  138.6560 N   0  0  0  0  0  2  0  0  0  0  0  0
  193.8270  175.5640  137.9770 C   0  0  0  0  0  1  0  0  0  0  0  0
  1  5  2  0  0  0  0
  1  9  1  0  0  0  0
  2 18  1  0  0  0  0
  2 16  1  0  0  0  0
  3 10  1  0  0  0  0
  4  6  1  0  0  0  0
  5 11  1  0  0  0  0
  6  8  1  0  0  0  0
  8  7  2  0  0  0  0
  9  4  2  0  0  0  0
 10 12  2  0  0  0  0
 11 10  1  0  0  0  0
 11  6  2  0  0  0  0
 12  7  1  0  0  0  0
 13  2  2  0  0  0  0
 14 15  2  0  0  0  0
 14 13  1  0  0  0  0
 15 17  1  0  0  0  0
 16  3  2  0  0  0  0
 17 18  2  0  0  0  0
 18  5  1  0  0  0  0
 19 31  1  0  0  0  0
 20 30  1  0  0  0  0
 21 23  1  0  0  0  0
 22 26  1  0  0  0  0
 22 21  1  0  0  0  0
 23 25  1  0  0  0  0
 24 22  2  0  0  0  0
 25 19  2  0  0  0  0
 27 21  1  0  0  0  0
 27 28  1  0  0  0  0
 28 20  2  0  0  0  0
 28 25  1  0  0  0  0
 29 27  2  0  0  0  0
 30  9  1  0  0  0  0
 30 31  2  0  0  0  0
 32 33  1  0  0  0  0
 32 14  1  0  0  0  0
 34 33  1  0  0  0  0
M  END
>  <MODEL>
1

>  <REMARK>
 VINA RESULT:     -11.6      0.000      0.000
  Name = 
  3 active torsions:
  status: ('A' for Active; 'I' for Inactive)
    1  A    between atoms: C_3  and  N_13
    2  A    between atoms: C_3  and  C_25
    3  A    between atoms: C_18  and  C_30
                            x       y       z     vdW  Elec       q    Type
                         _______ _______ _______ _____ _____    ______ ____

>  <TORSDO>
F 3

$$$$
=
 OpenBabel10262423283D

 34 39  0  0  0  0  0  0  0  0999 V2000
  184.7030  178.0410  142.2350 C   0  0  0  0  0  3  0  0  0  0  0  0
  183.2980  177.7320  138.7460 C   0  0  0  0  0  0  0  0  0  0  0  0
  181.0320  177.9100  139.6950 C   0  0  0  0  0  3  0  0  0  0  0  0
  183.3400  179.0250  143.9410 C   0  0  0  0  0  3  0  0  0  0  0  0
  183.6950  178.2030  141.2630 C   0  0  0  0  0  0  0  0  0  0  0  0
  182.3070  179.1870  143.0210 C   0  0  0  0  0  0  0  0  0  0  0  0
  180.0880  179.9170  142.6300 C   0  0  0  0  0  3  0  0  0  0  0  0
  181.1680  179.8000  143.4360 N   0  0  0  0  0  0  0  0  0  0  0  0
  184.5330  178.4100  143.5690 C   0  0  0  0  0  0  0  0  0  0  0  0
  181.2680  178.7370  140.8790 C   0  0  0  0  0  0  0  0  0  0  0  0
  182.4310  178.7000  141.6850 C   0  0  0  0  0  0  0  0  0  0  0  0
  180.1150  179.3610  141.3590 C   0  0  0  0  0  3  0  0  0  0  0  0
  183.8560  177.5780  137.4690 C   0  0  0  0  0  3  0  0  0  0  0  0
  185.2170  177.7710  137.2420 C   0  0  0  0  0  0  0  0  0  0  0  0
  186.0440  178.1300  138.2990 C   0  0  0  0  0  3  0  0  0  0  0  0
  181.8980  177.4890  138.8340 N   0  0  0  0  0  0  0  0  0  0  0  0
  185.5060  178.2680  139.5760 C   0  0  0  0  0  3  0  0  0  0  0  0
  184.1330  178.0640  139.8410 C   0  0  0  0  0  0  0  0  0  0  0  0
  186.4530  178.3740  146.8620 C   0  0  0  0  0  3  0  0  0  0  0  0
  186.8670  177.6800  144.1470 C   0  0  0  0  0  3  0  0  0  0  0  0
  189.8440  177.0450  146.2570 N   0  0  0  0  0  0  0  0  0  0  0  0
  191.1890  176.6380  146.5460 C   0  0  0  0  0  0  0  0  0  0  0  0
  188.8990  177.5800  147.2450 C   0  0  0  0  0  2  0  0  0  0  0  0
  191.9330  176.2020  145.6280 O   0  0  0  0  0  0  0  0  0  0  0  0
  187.6690  177.8520  146.4280 C   0  0  0  0  0  0  0  0  0  0  0  0
  191.7250  176.7250  147.9330 C   0  0  0  0  0  1  0  0  0  0  0  0
  189.2040  177.0120  144.9830 C   0  0  0  0  0  0  0  0  0  0  0  0
  187.8620  177.5170  145.1070 C   0  0  0  0  0  0  0  0  0  0  0  0
  189.7420  176.6030  143.9190 O   0  0  0  0  0  0  0  0  0  0  0  0
  185.6220  178.2070  144.5540 C   0  0  0  0  0  0  0  0  0  0  0  0
  185.4300  178.5510  145.9160 C   0  0  0  0  0  3  0  0  0  0  0  0
  185.7740  177.6330  135.8690 C   0  0  0  0  0  2  0  0  0  0  0  0
  187.1420  178.1230  135.8400 N   0  0  0  0  0  2  0  0  0  0  0  0
  187.8900  177.2140  134.9920 C   0  0  0  0  0  1  0  0  0  0  0  0
  1  9  1  0  0  0  0
  2 16  1  0  0  0  0
  2 18  1  0  0  0  0
  3 10  1  0  0  0  0
  5 11  1  0  0  0  0
  5  1  2  0  0  0  0
  6  8  1  0  0  0  0
  6  4  1  0  0  0  0
  7  8  2  0  0  0  0
  9  4  2  0  0  0  0
  9 30  1  0  0  0  0
 10 12  2  0  0  0  0
 10 11  1  0  0  0  0
 11  6  2  0  0  0  0
 12  7  1  0  0  0  0
 13  2  2  0  0  0  0
 14 13  1  0  0  0  0
 14 15  2  0  0  0  0
 15 17  1  0  0  0  0
 16  3  2  0  0  0  0
 17 18  2  0  0  0  0
 18  5  1  0  0  0  0
 20 30  2  0  0  0  0
 20 28  1  0  0  0  0
 21 22  1  0  0  0  0
 21 23  1  0  0  0  0
 22 26  1  0  0  0  0
 24 22  2  0  0  0  0
 25 19  1  0  0  0  0
 25 23  1  0  0  0  0
 27 28  1  0  0  0  0
 27 21  1  0  0  0  0
 28 25  2  0  0  0  0
 29 27  2  0  0  0  0
 30 31  1  0  0  0  0
 31 19  2  0  0  0  0
 32 14  1  0  0  0  0
 33 32  1  0  0  0  0
 34 33  1  0  0  0  0
M  END
>  <MODEL>
2

>  <REMARK>
 VINA RESULT:     -10.8      3.661      8.174
  Name = 
  3 active torsions:
  status: ('A' for Active; 'I' for Inactive)
    1  A    between atoms: C_3  and  N_13
    2  A    between atoms: C_3  and  C_25
    3  A    between atoms: C_18  and  C_30
                            x       y       z     vdW  Elec       q    Type
                         _______ _______ _______ _____ _____    ______ ____

>  <TORSDO>
F 3

$$$$
=
 OpenBabel10262423283D

 34 39  0  0  0  0  0  0  0  0999 V2000
  183.9040  178.0680  141.9340 C   0  0  0  0  0  3  0  0  0  0  0  0
  182.4070  177.5970  138.5010 C   0  0  0  0  0  0  0  0  0  0  0  0
  180.1750  177.9600  139.4790 C   0  0  0  0  0  3  0  0  0  0  0  0
  182.6320  179.2370  143.5930 C   0  0  0  0  0  3  0  0  0  0  0  0
  182.8840  178.2170  140.9720 C   0  0  0  0  0  0  0  0  0  0  0  0
  181.5880  179.3910  142.6840 C   0  0  0  0  0  0  0  0  0  0  0  0
  179.4020  180.2100  142.2840 C   0  0  0  0  0  3  0  0  0  0  0  0
  180.4920  180.0900  143.0760 N   0  0  0  0  0  0  0  0  0  0  0  0
  183.7820  178.5360  143.2430 C   0  0  0  0  0  0  0  0  0  0  0  0
  180.4800  178.8520  140.5980 C   0  0  0  0  0  0  0  0  0  0  0  0
  181.6570  178.8080  141.3820 C   0  0  0  0  0  0  0  0  0  0  0  0
  179.3710  179.5670  141.0540 C   0  0  0  0  0  3  0  0  0  0  0  0
  182.9280  177.3270  137.2280 C   0  0  0  0  0  3  0  0  0  0  0  0
  184.2910  177.4310  136.9630 C   0  0  0  0  0  0  0  0  0  0  0  0
  185.1590  177.8170  137.9770 C   0  0  0  0  0  3  0  0  0  0  0  0
  180.9990  177.4360  138.6330 N   0  0  0  0  0  0  0  0  0  0  0  0
  184.6580  178.0690  139.2510 C   0  0  0  0  0  3  0  0  0  0  0  0
  183.2830  177.9580  139.5550 C   0  0  0  0  0  0  0  0  0  0  0  0
  185.7170  178.4840  146.5260 C   0  0  0  0  0  3  0  0  0  0  0  0
  186.1390  177.8600  143.7960 C   0  0  0  0  0  3  0  0  0  0  0  0
  189.1420  177.2650  145.8800 N   0  0  0  0  0  0  0  0  0  0  0  0
  190.4990  176.8910  146.1550 C   0  0  0  0  0  0  0  0  0  0  0  0
  188.1860  177.7510  146.8820 C   0  0  0  0  0  2  0  0  0  0  0  0
  191.2520  176.4960  145.2250 O   0  0  0  0  0  0  0  0  0  0  0  0
  186.9460  178.0060  146.0770 C   0  0  0  0  0  0  0  0  0  0  0  0
  191.0390  176.9630  147.5410 C   0  0  0  0  0  1  0  0  0  0  0  0
  188.4970  177.2420  144.6080 C   0  0  0  0  0  0  0  0  0  0  0  0
  187.1420  177.7050  144.7480 C   0  0  0  0  0  0  0  0  0  0  0  0
  189.0420  176.8710  143.5330 O   0  0  0  0  0  0  0  0  0  0  0  0
  184.8810  178.3430  144.2190 C   0  0  0  0  0  0  0  0  0  0  0  0
  184.6850  178.6510  145.5890 C   0  0  0  0  0  3  0  0  0  0  0  0
  184.8100  177.1700  135.5930 C   0  0  0  0  0  2  0  0  0  0  0  0
  185.9410  176.2590  135.6590 N   0  0  0  0  0  2  0  0  0  0  0  0
  185.3980  174.9170  135.5700 C   0  0  0  0  0  1  0  0  0  0  0  0
  1  9  1  0  0  0  0
  2 16  1  0  0  0  0
  2 18  1  0  0  0  0
  3 10  1  0  0  0  0
  5 11  1  0  0  0  0
  5  1  2  0  0  0  0
  6  8  1  0  0  0  0
  6  4  1  0  0  0  0
  7  8  2  0  0  0  0
  9  4  2  0  0  0  0
  9 30  1  0  0  0  0
 10 12  2  0  0  0  0
 10 11  1  0  0  0  0
 11  6  2  0  0  0  0
 12  7  1  0  0  0  0
 13  2  2  0  0  0  0
 14 13  1  0  0  0  0
 14 15  2  0  0  0  0
 15 17  1  0  0  0  0
 16  3  2  0  0  0  0
 17 18  2  0  0  0  0
 18  5  1  0  0  0  0
 20 30  2  0  0  0  0
 20 28  1  0  0  0  0
 21 22  1  0  0  0  0
 21 23  1  0  0  0  0
 22 26  1  0  0  0  0
 24 22  2  0  0  0  0
 25 19  1  0  0  0  0
 25 23  1  0  0  0  0
 27 28  1  0  0  0  0
 27 21  1  0  0  0  0
 28 25  2  0  0  0  0
 29 27  2  0  0  0  0
 30 31  1  0  0  0  0
 31 19  2  0  0  0  0
 32 33  1  0  0  0  0
 32 14  1  0  0  0  0
 34 33  1  0  0  0  0
M  END
>  <MODEL>
3

>  <REMARK>
 VINA RESULT:     -10.3      3.806      8.450
  Name = 
  3 active torsions:
  status: ('A' for Active; 'I' for Inactive)
    1  A    between atoms: C_3  and  N_13
    2  A    between atoms: C_3  and  C_25
    3  A    between atoms: C_18  and  C_30
                            x       y       z     vdW  Elec       q    Type
                         _______ _______ _______ _____ _____    ______ ____

>  <TORSDO>
F 3

$$$$
=
 OpenBabel10262423283D

 34 39  0  0  0  0  0  0  0  0999 V2000
  184.1410  178.0260  140.6450 C   0  0  0  0  0  3  0  0  0  0  0  0
  184.1920  177.3380  136.9350 C   0  0  0  0  0  0  0  0  0  0  0  0
  181.7330  177.1990  136.9760 C   0  0  0  0  0  3  0  0  0  0  0  0
  182.1240  178.8600  141.6330 C   0  0  0  0  0  3  0  0  0  0  0  0
  183.5570  177.9810  139.3630 C   0  0  0  0  0  0  0  0  0  0  0  0
  181.4970  178.8130  140.3900 C   0  0  0  0  0  0  0  0  0  0  0  0
  179.5100  179.1650  139.1500 C   0  0  0  0  0  3  0  0  0  0  0  0
  180.2170  179.2570  140.3000 N   0  0  0  0  0  0  0  0  0  0  0  0
  183.4380  178.4240  141.7830 C   0  0  0  0  0  0  0  0  0  0  0  0
  181.4010  178.1060  138.0750 C   0  0  0  0  0  0  0  0  0  0  0  0
  182.1740  178.2910  139.2460 C   0  0  0  0  0  0  0  0  0  0  0  0
  180.0810  178.5620  138.0380 C   0  0  0  0  0  3  0  0  0  0  0  0
  185.2010  177.2150  135.9700 C   0  0  0  0  0  3  0  0  0  0  0  0
  186.5110  177.6100  136.2320 C   0  0  0  0  0  0  0  0  0  0  0  0
  186.8290  178.1440  137.4740 C   0  0  0  0  0  3  0  0  0  0  0  0
  182.9050  176.8810  136.5350 N   0  0  0  0  0  0  0  0  0  0  0  0
  185.8410  178.2530  138.4490 C   0  0  0  0  0  3  0  0  0  0  0  0
  184.5080  177.8480  138.2180 C   0  0  0  0  0  0  0  0  0  0  0  0
  183.9980  178.9080  145.5220 C   0  0  0  0  0  3  0  0  0  0  0  0
  185.4430  178.0380  143.2470 C   0  0  0  0  0  3  0  0  0  0  0  0
  187.4680  177.9560  146.3480 N   0  0  0  0  0  0  0  0  0  0  0  0
  188.6390  177.7430  147.1490 C   0  0  0  0  0  0  0  0  0  0  0  0
  186.1840  178.4540  146.8540 C   0  0  0  0  0  2  0  0  0  0  0  0
  189.7030  177.3240  146.6220 O   0  0  0  0  0  0  0  0  0  0  0  0
  185.3260  178.5030  145.6230 C   0  0  0  0  0  0  0  0  0  0  0  0
  188.6140  178.0140  148.6130 C   0  0  0  0  0  1  0  0  0  0  0  0
  187.3510  177.7360  144.9430 C   0  0  0  0  0  0  0  0  0  0  0  0
  186.0220  178.0810  144.5130 C   0  0  0  0  0  0  0  0  0  0  0  0
  188.2770  177.3050  144.2040 O   0  0  0  0  0  0  0  0  0  0  0  0
  184.0970  178.4420  143.1100 C   0  0  0  0  0  0  0  0  0  0  0  0
  183.3870  178.8750  144.2580 C   0  0  0  0  0  3  0  0  0  0  0  0
  187.5530  177.4980  135.1760 C   0  0  0  0  0  2  0  0  0  0  0  0
  188.8590  177.8040  135.7370 N   0  0  0  0  0  2  0  0  0  0  0  0
  189.7690  176.7860  135.2470 C   0  0  0  0  0  1  0  0  0  0  0  0
  1  9  1  0  0  0  0
  2 18  1  0  0  0  0
  3 10  1  0  0  0  0
  4  9  2  0  0  0  0
  5  1  2  0  0  0  0
  6  4  1  0  0  0  0
  7  8  2  0  0  0  0
  8  6  1  0  0  0  0
  9 30  1  0  0  0  0
 10 11  1  0  0  0  0
 11  5  1  0  0  0  0
 11  6  2  0  0  0  0
 12 10  2  0  0  0  0
 12  7  1  0  0  0  0
 13 14  1  0  0  0  0
 13  2  2  0  0  0  0
 14 15  2  0  0  0  0
 15 17  1  0  0  0  0
 16  2  1  0  0  0  0
 16  3  2  0  0  0  0
 18 17  2  0  0  0  0
 18  5  1  0  0  0  0
 19 25  1  0  0  0  0
 20 28  1  0  0  0  0
 21 23  1  0  0  0  0
 21 22  1  0  0  0  0
 22 26  1  0  0  0  0
 24 22  2  0  0  0  0
 25 23  1  0  0  0  0
 27 21  1  0  0  0  0
 28 27  1  0  0  0  0
 28 25  2  0  0  0  0
 29 27  2  0  0  0  0
 30 20  2  0  0  0  0
 30 31  1  0  0  0  0
 31 19  2  0  0  0  0
 32 33  1  0  0  0  0
 32 14  1  0  0  0  0
 34 33  1  0  0  0  0
M  END
>  <MODEL>
4

>  <REMARK>
 VINA RESULT:     -10.0      3.580      8.022
  Name = 
  3 active torsions:
  status: ('A' for Active; 'I' for Inactive)
    1  A    between atoms: C_3  and  N_13
    2  A    between atoms: C_3  and  C_25
    3  A    between atoms: C_18  and  C_30
                            x       y       z     vdW  Elec       q    Type
                         _______ _______ _______ _____ _____    ______ ____

>  <TORSDO>
F 3

$$$$
=
 OpenBabel10262423283D

 34 39  0  0  0  0  0  0  0  0999 V2000
  190.4590  176.6800  139.6160 C   0  0  0  0  0  3  0  0  0  0  0  0
  191.7490  175.5270  136.2620 C   0  0  0  0  0  0  0  0  0  0  0  0
  189.5150  175.9480  135.3130 C   0  0  0  0  0  3  0  0  0  0  0  0
  188.5050  178.0630  139.6830 C   0  0  0  0  0  3  0  0  0  0  0  0
  190.4200  176.6030  138.2090 C   0  0  0  0  0  0  0  0  0  0  0  0
  188.4120  177.9990  138.2950 C   0  0  0  0  0  0  0  0  0  0  0  0
  187.2140  178.6240  136.3500 C   0  0  0  0  0  3  0  0  0  0  0  0
  187.4240  178.7030  137.6840 N   0  0  0  0  0  0  0  0  0  0  0  0
  189.5020  177.3680  140.3620 C   0  0  0  0  0  0  0  0  0  0  0  0
  189.0330  177.0400  136.1580 C   0  0  0  0  0  0  0  0  0  0  0  0
  189.3170  177.1970  137.5360 C   0  0  0  0  0  0  0  0  0  0  0  0
  187.9920  177.7710  135.5800 C   0  0  0  0  0  3  0  0  0  0  0  0
  192.9830  175.0590  135.7890 C   0  0  0  0  0  3  0  0  0  0  0  0
  194.1460  175.1810  136.5460 C   0  0  0  0  0  0  0  0  0  0  0  0
  194.0900  175.7850  137.7960 C   0  0  0  0  0  3  0  0  0  0  0  0
  190.6430  175.3220  135.3900 N   0  0  0  0  0  0  0  0  0  0  0  0
  192.8670  176.2370  138.2860 C   0  0  0  0  0  3  0  0  0  0  0  0
  191.6680  176.1140  137.5490 C   0  0  0  0  0  0  0  0  0  0  0  0
  190.9080  177.1940  143.9010 C   0  0  0  0  0  3  0  0  0  0  0  0
  188.4310  177.6750  142.6150 C   0  0  0  0  0  3  0  0  0  0  0  0
  188.1830  177.8380  146.3070 N   0  0  0  0  0  0  0  0  0  0  0  0
  187.5340  177.9980  147.5760 C   0  0  0  0  0  0  0  0  0  0  0  0
  189.6080  177.5350  146.1260 C   0  0  0  0  0  2  0  0  0  0  0  0
  186.3000  178.2450  147.6330 O   0  0  0  0  0  0  0  0  0  0  0  0
  189.7550  177.4600  144.6340 C   0  0  0  0  0  0  0  0  0  0  0  0
  188.3060  177.8760  148.8430 C   0  0  0  0  0  1  0  0  0  0  0  0
  187.5690  177.9310  145.0230 C   0  0  0  0  0  0  0  0  0  0  0  0
  188.5540  177.6930  144.0010 C   0  0  0  0  0  0  0  0  0  0  0  0
  186.3500  178.1830  144.8260 O   0  0  0  0  0  0  0  0  0  0  0  0
  189.5820  177.4080  141.8420 C   0  0  0  0  0  0  0  0  0  0  0  0
  190.8150  177.1700  142.5000 C   0  0  0  0  0  3  0  0  0  0  0  0
  195.4470  174.7050  136.0030 C   0  0  0  0  0  2  0  0  0  0  0  0
  196.5220  175.5640  136.4720 N   0  0  0  0  0  2  0  0  0  0  0  0
  197.2580  175.9870  135.2950 C   0  0  0  0  0  1  0  0  0  0  0  0
  1  9  1  0  0  0  0
  2 18  1  0  0  0  0
  3 16  2  0  0  0  0
  3 10  1  0  0  0  0
  4  9  2  0  0  0  0
  5  1  2  0  0  0  0
  6  4  1  0  0  0  0
  7  8  2  0  0  0  0
  8  6  1  0  0  0  0
  9 30  1  0  0  0  0
 10 11  1  0  0  0  0
 11  5  1  0  0  0  0
 11  6  2  0  0  0  0
 12 10  2  0  0  0  0
 12  7  1  0  0  0  0
 13  2  2  0  0  0  0
 13 14  1  0  0  0  0
 14 15  2  0  0  0  0
 15 17  1  0  0  0  0
 16  2  1  0  0  0  0
 18  5  1  0  0  0  0
 18 17  2  0  0  0  0
 19 25  1  0  0  0  0
 20 28  1  0  0  0  0
 21 22  1  0  0  0  0
 22 24  2  0  0  0  0
 22 26  1  0  0  0  0
 23 21  1  0  0  0  0
 25 23  1  0  0  0  0
 27 21  1  0  0  0  0
 28 25  2  0  0  0  0
 28 27  1  0  0  0  0
 29 27  2  0  0  0  0
 30 31  1  0  0  0  0
 30 20  2  0  0  0  0
 31 19  2  0  0  0  0
 32 33  1  0  0  0  0
 32 14  1  0  0  0  0
 34 33  1  0  0  0  0
M  END
>  <MODEL>
5

>  <REMARK>
 VINA RESULT:      -9.8      4.054      7.414
  Name = 
  3 active torsions:
  status: ('A' for Active; 'I' for Inactive)
    1  A    between atoms: C_3  and  N_13
    2  A    between atoms: C_3  and  C_25
    3  A    between atoms: C_18  and  C_30
                            x       y       z     vdW  Elec       q    Type
                         _______ _______ _______ _____ _____    ______ ____

>  <TORSDO>
F 3

$$$$
=
 OpenBabel10262423283D

 34 39  0  0  0  0  0  0  0  0999 V2000
  188.2650  177.4390  142.4320 C   0  0  0  0  0  3  0  0  0  0  0  0
  185.6110  178.0020  145.0560 C   0  0  0  0  0  0  0  0  0  0  0  0
  187.1590  177.0990  146.7460 C   0  0  0  0  0  3  0  0  0  0  0  0
  190.5480  177.2500  143.1290 C   0  0  0  0  0  3  0  0  0  0  0  0
  187.8210  177.6200  143.7580 C   0  0  0  0  0  0  0  0  0  0  0  0
  190.1560  177.4030  144.4560 C   0  0  0  0  0  0  0  0  0  0  0  0
  190.8170  177.4890  146.7290 C   0  0  0  0  0  3  0  0  0  0  0  0
  191.1210  177.4310  145.4120 N   0  0  0  0  0  0  0  0  0  0  0  0
  189.6040  177.2210  142.1070 C   0  0  0  0  0  0  0  0  0  0  0  0
  188.4600  177.4650  146.1850 C   0  0  0  0  0  0  0  0  0  0  0  0
  188.7750  177.5040  144.8060 C   0  0  0  0  0  0  0  0  0  0  0  0
  189.4880  177.4740  147.1300 C   0  0  0  0  0  3  0  0  0  0  0  0
  184.3040  178.5090  145.0420 C   0  0  0  0  0  3  0  0  0  0  0  0
  183.7990  179.1880  143.9360 C   0  0  0  0  0  0  0  0  0  0  0  0
  184.6050  179.3770  142.8210 C   0  0  0  0  0  3  0  0  0  0  0  0
  185.9880  177.3170  146.2450 N   0  0  0  0  0  0  0  0  0  0  0  0
  185.8990  178.8610  142.8130 C   0  0  0  0  0  3  0  0  0  0  0  0
  186.4340  178.1550  143.9130 C   0  0  0  0  0  0  0  0  0  0  0  0
  189.4200  176.8250  138.3200 C   0  0  0  0  0  3  0  0  0  0  0  0
  191.3770  176.8340  140.3680 C   0  0  0  0  0  3  0  0  0  0  0  0
  192.8280  176.2840  137.0050 N   0  0  0  0  0  0  0  0  0  0  0  0
  193.8640  176.0430  136.0430 C   0  0  0  0  0  0  0  0  0  0  0  0
  191.4000  176.4130  136.6870 C   0  0  0  0  0  2  0  0  0  0  0  0
  195.0630  175.9340  136.4130 O   0  0  0  0  0  0  0  0  0  0  0  0
  190.7690  176.6390  138.0300 C   0  0  0  0  0  0  0  0  0  0  0  0
  193.5390  175.9160  134.5950 C   0  0  0  0  0  1  0  0  0  0  0  0
  192.9960  176.4290  138.4140 C   0  0  0  0  0  0  0  0  0  0  0  0
  191.7140  176.6450  139.0310 C   0  0  0  0  0  0  0  0  0  0  0  0
  194.1030  176.3730  139.0150 O   0  0  0  0  0  0  0  0  0  0  0  0
  190.0160  177.0260  140.6970 C   0  0  0  0  0  0  0  0  0  0  0  0
  189.0490  177.0180  139.6610 C   0  0  0  0  0  3  0  0  0  0  0  0
  182.4190  179.7440  143.9640 C   0  0  0  0  0  2  0  0  0  0  0  0
  181.5510  178.9520  143.1070 N   0  0  0  0  0  2  0  0  0  0  0  0
  180.5370  178.3710  143.9670 C   0  0  0  0  0  1  0  0  0  0  0  0
  1  5  1  0  0  0  0
  2 16  1  0  0  0  0
  4  6  2  0  0  0  0
  5 18  1  0  0  0  0
  5 11  2  0  0  0  0
  6 11  1  0  0  0  0
  6  8  1  0  0  0  0
  7 12  1  0  0  0  0
  8  7  2  0  0  0  0
  9  1  2  0  0  0  0
  9  4  1  0  0  0  0
 10  3  1  0  0  0  0
 10 12  2  0  0  0  0
 11 10  1  0  0  0  0
 13  2  1  0  0  0  0
 14 32  1  0  0  0  0
 14 13  2  0  0  0  0
 15 14  1  0  0  0  0
 16  3  2  0  0  0  0
 17 15  2  0  0  0  0
 17 18  1  0  0  0  0
 18  2  2  0  0  0  0
 19 31  1  0  0  0  0
 20 30  1  0  0  0  0
 21 27  1  0  0  0  0
 22 24  2  0  0  0  0
 22 21  1  0  0  0  0
 23 21  1  0  0  0  0
 23 25  1  0  0  0  0
 25 19  2  0  0  0  0
 25 28  1  0  0  0  0
 26 22  1  0  0  0  0
 27 29  2  0  0  0  0
 27 28  1  0  0  0  0
 28 20  2  0  0  0  0
 30  9  1  0  0  0  0
 31 30  2  0  0  0  0
 33 32  1  0  0  0  0
 33 34  1  0  0  0  0
M  END
>  <MODEL>
6

>  <REMARK>
 VINA RESULT:      -9.8      3.420      8.717
  Name = 
  3 active torsions:
  status: ('A' for Active; 'I' for Inactive)
    1  A    between atoms: C_3  and  N_13
    2  A    between atoms: C_3  and  C_25
    3  A    between atoms: C_18  and  C_30
                            x       y       z     vdW  Elec       q    Type
                         _______ _______ _______ _____ _____    ______ ____

>  <TORSDO>
F 3

$$$$
=
 OpenBabel10262423283D

 34 39  0  0  0  0  0  0  0  0999 V2000
  187.8930  177.8110  142.0040 C   0  0  0  0  0  3  0  0  0  0  0  0
  191.0380  177.2200  140.0030 C   0  0  0  0  0  0  0  0  0  0  0  0
  192.3470  177.4930  142.0730 C   0  0  0  0  0  3  0  0  0  0  0  0
  187.9540  177.4600  144.3730 C   0  0  0  0  0  3  0  0  0  0  0  0
  189.2500  177.4560  141.8640 C   0  0  0  0  0  0  0  0  0  0  0  0
  189.3020  177.1220  144.2880 C   0  0  0  0  0  0  0  0  0  0  0  0
  191.2690  176.4820  145.4410 C   0  0  0  0  0  3  0  0  0  0  0  0
  189.9410  176.7410  145.4240 N   0  0  0  0  0  0  0  0  0  0  0  0
  187.2460  177.8510  143.2390 C   0  0  0  0  0  0  0  0  0  0  0  0
  191.4040  177.0220  143.0870 C   0  0  0  0  0  0  0  0  0  0  0  0
  190.0000  177.1970  143.0450 C   0  0  0  0  0  0  0  0  0  0  0  0
  192.0180  176.6500  144.2850 C   0  0  0  0  0  3  0  0  0  0  0  0
  191.3130  176.9620  138.6530 C   0  0  0  0  0  3  0  0  0  0  0  0
  190.3040  176.6090  137.7600 C   0  0  0  0  0  0  0  0  0  0  0  0
  188.9950  176.5030  138.2130 C   0  0  0  0  0  3  0  0  0  0  0  0
  192.1620  177.5840  140.7970 N   0  0  0  0  0  0  0  0  0  0  0  0
  188.7040  176.7770  139.5470 C   0  0  0  0  0  3  0  0  0  0  0  0
  189.7030  177.1510  140.4730 C   0  0  0  0  0  0  0  0  0  0  0  0
  183.9150  179.0160  144.6810 C   0  0  0  0  0  3  0  0  0  0  0  0
  184.9900  178.2020  142.1900 C   0  0  0  0  0  3  0  0  0  0  0  0
  181.3920  179.0590  141.9860 N   0  0  0  0  0  0  0  0  0  0  0  0
  180.1140  179.2280  141.3580 C   0  0  0  0  0  0  0  0  0  0  0  0
  181.6670  179.3020  143.4080 C   0  0  0  0  0  2  0  0  0  0  0  0
  179.9690  178.9820  140.1310 O   0  0  0  0  0  0  0  0  0  0  0  0
  183.1240  178.9660  143.5360 C   0  0  0  0  0  0  0  0  0  0  0  0
  178.9380  179.6960  142.1450 C   0  0  0  0  0  1  0  0  0  0  0  0
  182.5950  178.6230  141.3560 C   0  0  0  0  0  0  0  0  0  0  0  0
  183.6540  178.5690  142.3290 C   0  0  0  0  0  0  0  0  0  0  0  0
  182.7010  178.3320  140.1350 O   0  0  0  0  0  0  0  0  0  0  0  0
  185.8190  178.2420  143.3320 C   0  0  0  0  0  0  0  0  0  0  0  0
  185.2670  178.6510  144.5720 C   0  0  0  0  0  3  0  0  0  0  0  0
  190.6320  176.3080  136.3410 C   0  0  0  0  0  2  0  0  0  0  0  0
  190.6820  174.8690  136.1400 N   0  0  0  0  0  2  0  0  0  0  0  0
  189.4660  174.5050  135.4370 C   0  0  0  0  0  1  0  0  0  0  0  0
  1  9  1  0  0  0  0
  2 18  1  0  0  0  0
  2 16  1  0  0  0  0
  3 10  1  0  0  0  0
  5  1  2  0  0  0  0
  5 11  1  0  0  0  0
  6  4  1  0  0  0  0
  6  8  1  0  0  0  0
  8  7  2  0  0  0  0
  9 30  1  0  0  0  0
  9  4  2  0  0  0  0
 10 12  2  0  0  0  0
 11 10  1  0  0  0  0
 11  6  2  0  0  0  0
 12  7  1  0  0  0  0
 13  2  2  0  0  0  0
 14 15  2  0  0  0  0
 14 13  1  0  0  0  0
 15 17  1  0  0  0  0
 16  3  2  0  0  0  0
 17 18  2  0  0  0  0
 18  5  1  0  0  0  0
 20 28  2  0  0  0  0
 20 30  1  0  0  0  0
 21 23  1  0  0  0  0
 22 21  1  0  0  0  0
 22 26  1  0  0  0  0
 23 25  1  0  0  0  0
 24 22  2  0  0  0  0
 25 19  2  0  0  0  0
 27 21  1  0  0  0  0
 27 28  1  0  0  0  0
 28 25  1  0  0  0  0
 29 27  2  0  0  0  0
 30 31  2  0  0  0  0
 31 19  1  0  0  0  0
 32 14  1  0  0  0  0
 33 32  1  0  0  0  0
 34 33  1  0  0  0  0
M  END
>  <MODEL>
7

>  <REMARK>
 VINA RESULT:      -9.2      1.512      1.913
  Name = 
  3 active torsions:
  status: ('A' for Active; 'I' for Inactive)
    1  A    between atoms: C_3  and  N_13
    2  A    between atoms: C_3  and  C_25
    3  A    between atoms: C_18  and  C_30
                            x       y       z     vdW  Elec       q    Type
                         _______ _______ _______ _____ _____    ______ ____

>  <TORSDO>
F 3

$$$$
=
 OpenBabel10262423283D

 34 39  0  0  0  0  0  0  0  0999 V2000
  186.5090  178.2040  141.4520 C   0  0  0  0  0  3  0  0  0  0  0  0
  185.8420  178.5820  145.1480 C   0  0  0  0  0  0  0  0  0  0  0  0
  183.6720  179.6110  144.6000 C   0  0  0  0  0  3  0  0  0  0  0  0
  184.6530  178.2300  139.9400 C   0  0  0  0  0  3  0  0  0  0  0  0
  185.6680  178.3750  142.5710 C   0  0  0  0  0  0  0  0  0  0  0  0
  183.7830  178.4200  141.0110 C   0  0  0  0  0  0  0  0  0  0  0  0
  181.5480  178.7380  141.7260 C   0  0  0  0  0  3  0  0  0  0  0  0
  182.4510  178.4690  140.7550 N   0  0  0  0  0  0  0  0  0  0  0  0
  186.0290  178.1640  140.1430 C   0  0  0  0  0  0  0  0  0  0  0  0
  183.3450  178.9610  143.3310 C   0  0  0  0  0  0  0  0  0  0  0  0
  184.2810  178.5840  142.3390 C   0  0  0  0  0  0  0  0  0  0  0  0
  181.9860  179.0170  143.0140 C   0  0  0  0  0  3  0  0  0  0  0  0
  186.5510  178.2650  146.3140 C   0  0  0  0  0  3  0  0  0  0  0  0
  187.6710  177.4370  146.2830 C   0  0  0  0  0  0  0  0  0  0  0  0
  188.0960  176.9060  145.0710 C   0  0  0  0  0  3  0  0  0  0  0  0
  184.7280  179.4500  145.3260 N   0  0  0  0  0  0  0  0  0  0  0  0
  187.4130  177.2290  143.9020 C   0  0  0  0  0  3  0  0  0  0  0  0
  186.2830  178.0770  143.9000 C   0  0  0  0  0  0  0  0  0  0  0  0
  187.5460  178.4480  136.6580 C   0  0  0  0  0  3  0  0  0  0  0  0
  188.1260  177.2110  139.1390 C   0  0  0  0  0  3  0  0  0  0  0  0
  190.6830  176.5050  136.5550 N   0  0  0  0  0  0  0  0  0  0  0  0
  191.8770  175.9270  136.0090 C   0  0  0  0  0  0  0  0  0  0  0  0
  189.7480  177.3580  135.8110 C   0  0  0  0  0  2  0  0  0  0  0  0
  192.6140  175.1960  136.7220 O   0  0  0  0  0  0  0  0  0  0  0  0
  188.6880  177.6700  136.8260 C   0  0  0  0  0  0  0  0  0  0  0  0
  192.2640  176.1820  134.5940 C   0  0  0  0  0  1  0  0  0  0  0  0
  190.1970  176.3480  137.8870 C   0  0  0  0  0  0  0  0  0  0  0  0
  188.9630  177.0730  138.0360 C   0  0  0  0  0  0  0  0  0  0  0  0
  190.7700  175.6750  138.7850 O   0  0  0  0  0  0  0  0  0  0  0  0
  186.9580  177.9940  139.0020 C   0  0  0  0  0  0  0  0  0  0  0  0
  186.6810  178.6060  137.7540 C   0  0  0  0  0  3  0  0  0  0  0  0
  188.3840  177.0920  147.5420 C   0  0  0  0  0  2  0  0  0  0  0  0
  189.6670  177.7730  147.5860 N   0  0  0  0  0  2  0  0  0  0  0  0
  190.6830  176.7560  147.3930 C   0  0  0  0  0  1  0  0  0  0  0  0
  1  5  1  0  0  0  0
  2 16  1  0  0  0  0
  2 13  1  0  0  0  0
  3 16  2  0  0  0  0
  4  9  1  0  0  0  0
  4  6  2  0  0  0  0
  5 18  1  0  0  0  0
  6 11  1  0  0  0  0
  7 12  1  0  0  0  0
  8  6  1  0  0  0  0
  8  7  2  0  0  0  0
  9  1  2  0  0  0  0
 10  3  1  0  0  0  0
 11  5  2  0  0  0  0
 11 10  1  0  0  0  0
 12 10  2  0  0  0  0
 14 13  2  0  0  0  0
 14 32  1  0  0  0  0
 15 14  1  0  0  0  0
 17 15  2  0  0  0  0
 18 17  1  0  0  0  0
 18  2  2  0  0  0  0
 19 25  2  0  0  0  0
 19 31  1  0  0  0  0
 21 27  1  0  0  0  0
 22 21  1  0  0  0  0
 22 24  2  0  0  0  0
 23 21  1  0  0  0  0
 23 25  1  0  0  0  0
 25 28  1  0  0  0  0
 26 22  1  0  0  0  0
 27 28  1  0  0  0  0
 27 29  2  0  0  0  0
 28 20  2  0  0  0  0
 30 20  1  0  0  0  0
 30  9  1  0  0  0  0
 31 30  2  0  0  0  0
 32 33  1  0  0  0  0
 34 33  1  0  0  0  0
M  END
>  <MODEL>
8

>  <REMARK>
 VINA RESULT:      -9.1      3.202      8.405
  Name = 
  3 active torsions:
  status: ('A' for Active; 'I' for Inactive)
    1  A    between atoms: C_3  and  N_13
    2  A    between atoms: C_3  and  C_25
    3  A    between atoms: C_18  and  C_30
                            x       y       z     vdW  Elec       q    Type
                         _______ _______ _______ _____ _____    ______ ____

>  <TORSDO>
F 3

$$$$
=
 OpenBabel10262423283D

 34 39  0  0  0  0  0  0  0  0999 V2000
  187.8000  177.6800  143.2900 C   0  0  0  0  0  3  0  0  0  0  0  0
  184.6560  178.2060  145.3100 C   0  0  0  0  0  0  0  0  0  0  0  0
  185.8920  177.5070  147.3240 C   0  0  0  0  0  3  0  0  0  0  0  0
  189.9100  177.6860  144.4230 C   0  0  0  0  0  3  0  0  0  0  0  0
  187.0960  177.9030  144.4900 C   0  0  0  0  0  0  0  0  0  0  0  0
  189.2580  177.8860  145.6370 C   0  0  0  0  0  0  0  0  0  0  0  0
  189.4550  178.1450  147.9830 C   0  0  0  0  0  3  0  0  0  0  0  0
  190.0130  178.0340  146.7550 N   0  0  0  0  0  0  0  0  0  0  0  0
  189.1870  177.5360  143.2430 C   0  0  0  0  0  0  0  0  0  0  0  0
  187.2550  177.9290  146.9990 C   0  0  0  0  0  0  0  0  0  0  0  0
  187.8320  177.9120  145.7070 C   0  0  0  0  0  0  0  0  0  0  0  0
  188.0760  178.0610  148.1210 C   0  0  0  0  0  3  0  0  0  0  0  0
  183.3510  178.6200  145.0120 C   0  0  0  0  0  3  0  0  0  0  0  0
  183.0350  179.2010  143.7860 C   0  0  0  0  0  0  0  0  0  0  0  0
  184.0320  179.3810  142.8360 C   0  0  0  0  0  3  0  0  0  0  0  0
  184.8320  177.6160  146.5940 N   0  0  0  0  0  0  0  0  0  0  0  0
  185.3290  178.9560  143.1110 C   0  0  0  0  0  3  0  0  0  0  0  0
  185.6780  178.3500  144.3400 C   0  0  0  0  0  0  0  0  0  0  0  0
  191.9640  177.1120  140.6670 C   0  0  0  0  0  3  0  0  0  0  0  0
  189.1360  177.0220  140.7840 C   0  0  0  0  0  3  0  0  0  0  0  0
  190.4490  176.3860  137.3790 N   0  0  0  0  0  0  0  0  0  0  0  0
  190.3810  176.1130  135.9730 C   0  0  0  0  0  0  0  0  0  0  0  0
  191.6910  176.5880  138.1350 C   0  0  0  0  0  2  0  0  0  0  0  0
  189.2650  175.9670  135.4060 O   0  0  0  0  0  0  0  0  0  0  0  0
  191.2040  176.8500  139.5300 C   0  0  0  0  0  0  0  0  0  0  0  0
  191.6250  175.9970  135.1620 C   0  0  0  0  0  1  0  0  0  0  0  0
  189.3450  176.5190  138.2720 C   0  0  0  0  0  0  0  0  0  0  0  0
  189.8290  176.8070  139.5960 C   0  0  0  0  0  0  0  0  0  0  0  0
  188.1350  176.4010  137.9400 O   0  0  0  0  0  0  0  0  0  0  0  0
  189.8780  177.2910  141.9550 C   0  0  0  0  0  0  0  0  0  0  0  0
  191.2930  177.3330  141.8800 C   0  0  0  0  0  3  0  0  0  0  0  0
  181.6470  179.6610  143.5100 C   0  0  0  0  0  2  0  0  0  0  0  0
  180.6970  178.6510  143.9460 N   0  0  0  0  0  2  0  0  0  0  0  0
  179.4140  179.3170  144.0770 C   0  0  0  0  0  1  0  0  0  0  0  0
  1  5  1  0  0  0  0
  2 16  1  0  0  0  0
  4  6  2  0  0  0  0
  5 11  2  0  0  0  0
  6 11  1  0  0  0  0
  6  8  1  0  0  0  0
  7 12  1  0  0  0  0
  8  7  2  0  0  0  0
  9  1  2  0  0  0  0
  9  4  1  0  0  0  0
 10  3  1  0  0  0  0
 10 12  2  0  0  0  0
 11 10  1  0  0  0  0
 13  2  1  0  0  0  0
 14 13  2  0  0  0  0
 15 17  2  0  0  0  0
 15 14  1  0  0  0  0
 16  3  2  0  0  0  0
 17 18  1  0  0  0  0
 18  5  1  0  0  0  0
 18  2  2  0  0  0  0
 19 31  1  0  0  0  0
 20 30  1  0  0  0  0
 21 23  1  0  0  0  0
 21 27  1  0  0  0  0
 22 21  1  0  0  0  0
 23 25  1  0  0  0  0
 24 22  2  0  0  0  0
 25 28  1  0  0  0  0
 25 19  2  0  0  0  0
 26 22  1  0  0  0  0
 27 28  1  0  0  0  0
 28 20  2  0  0  0  0
 29 27  2  0  0  0  0
 30  9  1  0  0  0  0
 31 30  2  0  0  0  0
 32 14  1  0  0  0  0
 32 33  1  0  0  0  0
 33 34  1  0  0  0  0
M  END
>  <MODEL>
9

>  <REMARK>
 VINA RESULT:      -9.1      2.363      8.068
  Name = 
  3 active torsions:
  status: ('A' for Active; 'I' for Inactive)
    1  A    between atoms: C_3  and  N_13
    2  A    between atoms: C_3  and  C_25
    3  A    between atoms: C_18  and  C_30
                            x       y       z     vdW  Elec       q    Type
                         _______ _______ _______ _____ _____    ______ ____

>  <TORSDO>
F 3

$$$$
