=
 OpenBabel10262421133D

 32 36  0  0  1  0  0  0  0  0999 V2000
  188.3840  177.8950  142.7700 C   0  0  0  0  0  0  0  0  0  0  0  0
  185.5990  178.3510  142.9160 C   0  0  0  0  0  0  0  0  0  0  0  0
  189.8960  177.8300  142.7750 C   0  0  0  0  0  3  0  0  0  0  0  0
  187.6590  178.1320  141.5620 C   0  0  2  0  0  3  0  0  0  0  0  0
  185.4620  178.6320  140.5140 C   0  0  0  0  0  3  0  0  0  0  0  0
  182.1100  178.8240  144.2780 C   0  0  0  0  0  3  0  0  0  0  0  0
  186.2490  178.3730  141.6510 C   0  0  0  0  0  0  0  0  0  0  0  0
  182.0830  179.0820  141.9250 O   0  0  0  0  0  0  0  0  0  0  0  0
  183.4630  178.8450  141.8410 C   0  0  0  0  0  0  0  0  0  0  0  0
  188.3340  178.0980  140.3730 C   0  0  0  0  0  0  0  0  0  0  0  0
  184.0920  178.8650  140.6020 C   0  0  0  0  0  3  0  0  0  0  0  0
  189.7690  177.7490  140.3240 C   0  0  0  0  0  3  0  0  0  0  0  0
  186.3460  178.0870  144.0650 C   0  0  0  0  0  3  0  0  0  0  0  0
  187.7140  177.8520  144.0100 C   0  0  0  0  0  0  0  0  0  0  0  0
  184.2070  178.5890  143.0090 C   0  0  0  0  0  0  0  0  0  0  0  0
  190.4880  177.5910  141.4270 C   0  0  0  0  0  3  0  0  0  0  0  0
  181.4220  179.0660  143.1600 C   0  0  0  0  0  3  0  0  0  0  0  0
  183.5630  178.5760  144.1910 C   0  0  0  0  0  3  0  0  0  0  0  0
  188.5010  177.5540  147.7130 C   0  0  0  0  0  0  0  0  0  0  0  0
  187.8940  177.7620  148.9470 O   0  0  0  0  0  1  0  0  0  0  0  0
  188.4200  177.5880  145.2840 C   0  0  0  0  0  0  0  0  0  0  0  0
  189.8180  177.0900  147.6620 C   0  0  0  0  0  3  0  0  0  0  0  0
  189.7470  177.1350  145.2470 C   0  0  0  0  0  3  0  0  0  0  0  0
  187.8000  177.8120  146.5290 C   0  0  0  0  0  0  0  0  0  0  0  0
  186.5000  178.3050  146.5920 O   0  0  0  0  0  1  0  0  0  0  0  0
  190.4490  176.8820  146.4270 C   0  0  0  0  0  0  0  0  0  0  0  0
  192.3840  175.6720  147.3800 C   0  0  0  0  0  1  0  0  0  0  0  0
  191.7680  176.4260  146.3460 O   0  0  0  0  0  0  0  0  0  0  0  0
  187.6890  178.3570  139.1580 O   0  0  0  0  0  0  0  0  0  0  0  0
  188.0060  177.6700  138.0070 N   0  0  0  0  0  2  0  0  0  0  0  0
  188.1050  178.6570  136.9470 C   0  0  0  0  0  2  0  0  0  0  0  0
  188.9870  179.6650  137.3330 O   0  0  0  0  0  1  0  0  0  0  0  0
  1  3  1  0  0  0  0
  1 14  2  0  0  0  0
  2 15  1  0  0  0  0
  2 13  2  0  0  0  0
  4 10  1  6  0  0  0
  4  7  1  0  0  0  0
  4  1  1  0  0  0  0
  5 11  1  0  0  0  0
  5  7  2  0  0  0  0
  7  2  1  0  0  0  0
  8 17  1  0  0  0  0
  9  8  1  0  0  0  0
  9 15  1  0  0  0  0
 11  9  2  0  0  0  0
 12 10  2  0  0  0  0
 12 16  1  0  0  0  0
 14 13  1  0  0  0  0
 14 21  1  0  0  0  0
 15 18  2  0  0  0  0
 16  3  2  0  0  0  0
 17  6  2  0  0  0  0
 18  6  1  0  0  0  0
 19 20  1  0  0  0  0
 21 24  1  0  0  0  0
 22 19  1  0  0  0  0
 23 21  2  0  0  0  0
 23 26  1  0  0  0  0
 24 25  1  0  0  0  0
 24 19  2  0  0  0  0
 26 22  2  0  0  0  0
 28 26  1  0  0  0  0
 28 27  1  0  0  0  0
 29 10  1  0  0  0  0
 30 29  1  0  0  0  0
 31 32  1  0  0  0  0
 31 30  1  0  0  0  0
M  END
>  <MODEL>
1

>  <REMARK>
 VINA RESULT:     -11.0      0.000      0.000
  Name = 
  5 active torsions:
  status: ('A' for Active; 'I' for Inactive)
    1  A    between atoms: C_13  and  N_18
    2  A    between atoms: C_14  and  O_29
    3  A    between atoms: O_15  and  C_26
    4  A    between atoms: C_16  and  C_27
    5  A    between atoms: N_18  and  O_29
                            x       y       z     vdW  Elec       q    Type
                         _______ _______ _______ _____ _____    ______ ____

>  <TORSDO>
F 5

$$$$
=
 OpenBabel10262421133D

 32 36  0  0  0  0  0  0  0  0999 V2000
  189.2760  177.2440  143.0220 C   0  0  0  0  0  0  0  0  0  0  0  0
  186.5710  177.9700  143.3890 C   0  0  0  0  0  0  0  0  0  0  0  0
  190.6560  176.6830  142.7520 C   0  0  0  0  0  2  0  0  0  0  0  0
  188.7560  177.3150  144.3500 C   0  0  0  0  0  0  0  0  0  0  0  0
  186.7800  177.7510  145.7930 C   0  0  0  0  0  3  0  0  0  0  0  0
  183.0020  178.9780  142.6850 C   0  0  0  0  0  3  0  0  0  0  0  0
  187.3790  177.6740  144.5220 C   0  0  0  0  0  0  0  0  0  0  0  0
  183.3100  178.7360  145.0200 O   0  0  0  0  0  0  0  0  0  0  0  0
  184.6570  178.3860  144.8480 C   0  0  0  0  0  0  0  0  0  0  0  0
  189.5950  177.0600  145.4000 C   0  0  0  0  0  0  0  0  0  0  0  0
  185.4420  178.1000  145.9580 C   0  0  0  0  0  3  0  0  0  0  0  0
  191.0310  176.7910  145.1760 C   0  0  0  0  0  3  0  0  0  0  0  0
  187.1330  177.9140  142.1140 C   0  0  0  0  0  3  0  0  0  0  0  0
  188.4640  177.5670  141.9160 C   0  0  0  0  0  0  0  0  0  0  0  0
  185.2100  178.3240  143.5540 C   0  0  0  0  0  0  0  0  0  0  0  0
  191.5340  176.6490  143.9580 C   0  0  0  0  0  3  0  0  0  0  0  0
  182.4950  179.0300  143.9180 C   0  0  0  0  0  3  0  0  0  0  0  0
  184.4190  178.6090  142.5030 C   0  0  0  0  0  3  0  0  0  0  0  0
  188.7220  177.9980  138.1510 C   0  0  0  0  0  0  0  0  0  0  0  0
  187.9930  178.5250  137.0920 O   0  0  0  0  0  1  0  0  0  0  0  0
  188.9670  177.5280  140.5240 C   0  0  0  0  0  0  0  0  0  0  0  0
  189.9640  177.4060  137.9070 C   0  0  0  0  0  3  0  0  0  0  0  0
  190.2050  176.9240  140.2630 C   0  0  0  0  0  3  0  0  0  0  0  0
  188.2150  178.0550  139.4560 C   0  0  0  0  0  0  0  0  0  0  0  0
  186.9630  178.6180  139.6820 O   0  0  0  0  0  1  0  0  0  0  0  0
  190.7100  176.8610  138.9620 C   0  0  0  0  0  0  0  0  0  0  0  0
  192.6660  176.3850  137.5260 C   0  0  0  0  0  1  0  0  0  0  0  0
  191.9510  176.2560  138.7470 O   0  0  0  0  0  0  0  0  0  0  0  0
  189.1370  177.0800  146.7220 O   0  0  0  0  0  0  0  0  0  0  0  0
  189.9240  177.5400  147.7560 N   0  0  0  0  0  2  0  0  0  0  0  0
  189.0540  178.3000  148.6340 C   0  0  0  0  0  2  0  0  0  0  0  0
  187.9330  177.5340  148.9520 O   0  0  0  0  0  1  0  0  0  0  0  0
  1  4  1  0  0  0  0
  2 15  1  0  0  0  0
  2  7  1  0  0  0  0
  3  1  1  0  0  0  0
  3 16  1  0  0  0  0
  4  7  1  0  0  0  0
  4 10  2  0  0  0  0
  5 11  1  0  0  0  0
  6 17  2  0  0  0  0
  7  5  2  0  0  0  0
  9  8  1  0  0  0  0
  9 11  2  0  0  0  0
 10 29  1  0  0  0  0
 12 10  1  0  0  0  0
 13  2  2  0  0  0  0
 14 13  1  0  0  0  0
 14  1  2  0  0  0  0
 15  9  1  0  0  0  0
 16 12  2  0  0  0  0
 17  8  1  0  0  0  0
 18  6  1  0  0  0  0
 18 15  2  0  0  0  0
 19 24  1  0  0  0  0
 20 19  1  0  0  0  0
 21 14  1  0  0  0  0
 22 19  2  0  0  0  0
 22 26  1  0  0  0  0
 23 21  1  0  0  0  0
 24 25  1  0  0  0  0
 24 21  2  0  0  0  0
 26 23  2  0  0  0  0
 27 28  1  0  0  0  0
 28 26  1  0  0  0  0
 29 30  1  0  0  0  0
 30 31  1  0  0  0  0
 31 32  1  0  0  0  0
M  END
>  <MODEL>
2

>  <REMARK>
 VINA RESULT:     -10.8      2.496      6.406
  Name = 
  5 active torsions:
  status: ('A' for Active; 'I' for Inactive)
    1  A    between atoms: C_13  and  N_18
    2  A    between atoms: C_14  and  O_29
    3  A    between atoms: O_15  and  C_26
    4  A    between atoms: C_16  and  C_27
    5  A    between atoms: N_18  and  O_29
                            x       y       z     vdW  Elec       q    Type
                         _______ _______ _______ _____ _____    ______ ____

>  <TORSDO>
F 5

$$$$
=
 OpenBabel10262421133D

 32 36  0  0  1  0  0  0  0  0999 V2000
  186.3560  178.0610  144.2270 C   0  0  0  0  0  0  0  0  0  0  0  0
  186.8250  178.2240  141.4460 C   0  0  0  0  0  0  0  0  0  0  0  0
  186.1210  177.7760  145.6950 C   0  0  0  0  0  3  0  0  0  0  0  0
  185.2800  178.4390  143.3680 C   0  0  2  0  0  3  0  0  0  0  0  0
  184.5210  178.8550  141.0370 C   0  0  0  0  0  3  0  0  0  0  0  0
  188.5400  178.0970  138.0850 C   0  0  0  0  0  3  0  0  0  0  0  0
  185.5280  178.5080  141.9570 C   0  0  0  0  0  0  0  0  0  0  0  0
  186.2710  178.7070  137.7930 O   0  0  0  0  0  0  0  0  0  0  0  0
  186.0320  178.6400  139.1730 C   0  0  0  0  0  0  0  0  0  0  0  0
  184.0680  178.7410  143.9250 C   0  0  0  0  0  0  0  0  0  0  0  0
  184.7640  178.9210  139.6680 C   0  0  0  0  0  3  0  0  0  0  0  0
  183.8880  178.7510  145.3920 C   0  0  0  0  0  3  0  0  0  0  0  0
  187.8500  177.8850  142.3290 C   0  0  0  0  0  3  0  0  0  0  0  0
  187.6390  177.8090  143.7000 C   0  0  0  0  0  0  0  0  0  0  0  0
  187.0740  178.2890  140.0540 C   0  0  0  0  0  0  0  0  0  0  0  0
  184.8410  178.3400  146.2160 C   0  0  0  0  0  3  0  0  0  0  0  0
  187.5400  178.4300  137.2670 C   0  0  0  0  0  3  0  0  0  0  0  0
  188.2890  178.0250  139.5380 C   0  0  0  0  0  3  0  0  0  0  0  0
  190.9550  176.3820  144.8790 C   0  0  0  0  0  0  0  0  0  0  0  0
  192.0490  175.6860  144.3780 O   0  0  0  0  0  1  0  0  0  0  0  0
  188.7880  177.4360  144.5550 C   0  0  0  0  0  0  0  0  0  0  0  0
  190.9250  176.7380  146.2300 C   0  0  0  0  0  3  0  0  0  0  0  0
  188.7650  177.7750  145.9150 C   0  0  0  0  0  3  0  0  0  0  0  0
  189.8870  176.7210  144.0390 C   0  0  0  0  0  0  0  0  0  0  0  0
  189.9130  176.3320  142.7030 O   0  0  0  0  0  1  0  0  0  0  0  0
  189.8270  177.4340  146.7560 C   0  0  0  0  0  0  0  0  0  0  0  0
  188.5470  178.1140  148.7600 C   0  0  0  0  0  1  0  0  0  0  0  0
  189.7670  177.7970  148.1040 O   0  0  0  0  0  0  0  0  0  0  0  0
  182.9650  179.0840  143.1350 O   0  0  0  0  0  0  0  0  0  0  0  0
  181.6850  179.1110  143.6460 N   0  0  0  0  0  2  0  0  0  0  0  0
  180.8090  179.4880  142.5530 C   0  0  0  0  0  2  0  0  0  0  0  0
  180.1040  180.6400  142.9000 O   0  0  0  0  0  1  0  0  0  0  0  0
  1  3  1  0  0  0  0
  2  7  1  0  0  0  0
  2 13  2  0  0  0  0
  3 16  2  0  0  0  0
  4  7  1  1  0  0  0
  4 10  1  0  0  0  0
  4  1  1  0  0  0  0
  5  7  2  0  0  0  0
  6 18  1  0  0  0  0
  8  9  1  0  0  0  0
  9 11  2  0  0  0  0
  9 15  1  0  0  0  0
 10 12  2  0  0  0  0
 11  5  1  0  0  0  0
 12 16  1  0  0  0  0
 13 14  1  0  0  0  0
 14  1  2  0  0  0  0
 14 21  1  0  0  0  0
 15  2  1  0  0  0  0
 17  8  1  0  0  0  0
 17  6  2  0  0  0  0
 18 15  2  0  0  0  0
 19 22  1  0  0  0  0
 20 19  1  0  0  0  0
 21 23  2  0  0  0  0
 22 26  2  0  0  0  0
 23 26  1  0  0  0  0
 24 21  1  0  0  0  0
 24 19  2  0  0  0  0
 25 24  1  0  0  0  0
 26 28  1  0  0  0  0
 28 27  1  0  0  0  0
 29 30  1  0  0  0  0
 29 10  1  0  0  0  0
 31 32  1  0  0  0  0
 31 30  1  0  0  0  0
M  END
>  <MODEL>
3

>  <REMARK>
 VINA RESULT:     -10.8      2.146      5.327
  Name = 
  5 active torsions:
  status: ('A' for Active; 'I' for Inactive)
    1  A    between atoms: C_13  and  N_18
    2  A    between atoms: C_14  and  O_29
    3  A    between atoms: O_15  and  C_26
    4  A    between atoms: C_16  and  C_27
    5  A    between atoms: N_18  and  O_29
                            x       y       z     vdW  Elec       q    Type
                         _______ _______ _______ _____ _____    ______ ____

>  <TORSDO>
F 5

$$$$
=
 OpenBabel10262421133D

 32 36  0  0  0  0  0  0  0  0999 V2000
  188.0560  177.8390  141.5240 C   0  0  0  0  0  0  0  0  0  0  0  0
  189.3980  177.1860  143.9230 C   0  0  0  0  0  0  0  0  0  0  0  0
  187.4630  178.3420  140.2250 C   0  0  0  0  0  2  0  0  0  0  0  0
  187.3790  178.0290  142.7670 C   0  0  0  0  0  0  0  0  0  0  0  0
  187.4890  177.8780  145.2450 C   0  0  0  0  0  3  0  0  0  0  0  0
  192.0560  176.0410  146.3470 C   0  0  0  0  0  3  0  0  0  0  0  0
  188.0750  177.7050  143.9770 C   0  0  0  0  0  0  0  0  0  0  0  0
  190.1390  176.7420  147.5470 O   0  0  0  0  0  0  0  0  0  0  0  0
  189.4610  177.0580  146.3610 C   0  0  0  0  0  0  0  0  0  0  0  0
  186.0920  178.4920  142.7500 C   0  0  0  0  0  0  0  0  0  0  0  0
  188.1670  177.5620  146.4200 C   0  0  0  0  0  3  0  0  0  0  0  0
  185.3830  178.7180  141.4730 C   0  0  0  0  0  3  0  0  0  0  0  0
  190.0070  176.9920  142.6830 C   0  0  0  0  0  3  0  0  0  0  0  0
  189.3590  177.3000  141.4930 C   0  0  0  0  0  0  0  0  0  0  0  0
  190.0900  176.8650  145.1160 C   0  0  0  0  0  0  0  0  0  0  0  0
  186.0000  178.6190  140.3040 C   0  0  0  0  0  3  0  0  0  0  0  0
  191.4440  176.2320  147.5180 C   0  0  0  0  0  3  0  0  0  0  0  0
  191.3430  176.3740  145.0980 C   0  0  0  0  0  3  0  0  0  0  0  0
  192.1510  176.9410  138.9440 C   0  0  0  0  0  0  0  0  0  0  0  0
  193.5360  177.0290  138.8690 O   0  0  0  0  0  1  0  0  0  0  0  0
  190.0900  177.0640  140.2280 C   0  0  0  0  0  0  0  0  0  0  0  0
  191.4160  176.6300  137.7970 C   0  0  0  0  0  3  0  0  0  0  0  0
  189.3650  176.7650  139.0660 C   0  0  0  0  0  3  0  0  0  0  0  0
  191.4930  177.1670  140.1600 C   0  0  0  0  0  0  0  0  0  0  0  0
  192.2330  177.5080  141.2880 O   0  0  0  0  0  1  0  0  0  0  0  0
  190.0180  176.5440  137.8520 C   0  0  0  0  0  0  0  0  0  0  0  0
  187.8630  176.5040  136.6380 C   0  0  0  0  0  1  0  0  0  0  0  0
  189.2570  176.2420  136.7190 O   0  0  0  0  0  0  0  0  0  0  0  0
  185.3860  178.7320  143.9350 O   0  0  0  0  0  0  0  0  0  0  0  0
  184.2390  179.4970  143.9540 N   0  0  0  0  0  2  0  0  0  0  0  0
  183.4290  179.0030  145.0520 C   0  0  0  0  0  2  0  0  0  0  0  0
  184.2020  178.9510  146.2110 O   0  0  0  0  0  1  0  0  0  0  0  0
  1  4  1  0  0  0  0
  2  7  1  0  0  0  0
  2 15  1  0  0  0  0
  3 16  1  0  0  0  0
  3  1  1  0  0  0  0
  4  7  1  0  0  0  0
  5 11  1  0  0  0  0
  6 17  2  0  0  0  0
  7  5  2  0  0  0  0
  9 11  2  0  0  0  0
  9  8  1  0  0  0  0
 10  4  2  0  0  0  0
 10 29  1  0  0  0  0
 12 10  1  0  0  0  0
 13  2  2  0  0  0  0
 14  1  2  0  0  0  0
 14 13  1  0  0  0  0
 15  9  1  0  0  0  0
 16 12  2  0  0  0  0
 17  8  1  0  0  0  0
 18 15  2  0  0  0  0
 18  6  1  0  0  0  0
 19 24  1  0  0  0  0
 20 19  1  0  0  0  0
 21 14  1  0  0  0  0
 22 26  1  0  0  0  0
 22 19  2  0  0  0  0
 23 21  1  0  0  0  0
 24 21  2  0  0  0  0
 24 25  1  0  0  0  0
 26 23  2  0  0  0  0
 27 28  1  0  0  0  0
 28 26  1  0  0  0  0
 29 30  1  0  0  0  0
 30 31  1  0  0  0  0
 31 32  1  0  0  0  0
M  END
>  <MODEL>
4

>  <REMARK>
 VINA RESULT:     -10.6      2.456      7.497
  Name = 
  5 active torsions:
  status: ('A' for Active; 'I' for Inactive)
    1  A    between atoms: C_13  and  N_18
    2  A    between atoms: C_14  and  O_29
    3  A    between atoms: O_15  and  C_26
    4  A    between atoms: C_16  and  C_27
    5  A    between atoms: N_18  and  O_29
                            x       y       z     vdW  Elec       q    Type
                         _______ _______ _______ _____ _____    ______ ____

>  <TORSDO>
F 5

$$$$
=
 OpenBabel10262421133D

 32 36  0  0  1  0  0  0  0  0999 V2000
  185.3360  178.4050  143.9710 C   0  0  0  0  0  0  0  0  0  0  0  0
  187.6640  177.8760  142.4590 C   0  0  0  0  0  0  0  0  0  0  0  0
  184.1070  178.8760  144.7190 C   0  0  0  0  0  3  0  0  0  0  0  0
  186.5570  178.1290  144.6590 C   0  0  2  0  0  3  0  0  0  0  0  0
  188.9810  177.6100  144.4750 C   0  0  0  0  0  3  0  0  0  0  0  0
  190.0030  177.3570  139.5430 C   0  0  0  0  0  3  0  0  0  0  0  0
  187.7330  177.8730  143.8800 C   0  0  0  0  0  0  0  0  0  0  0  0
  191.2010  177.1180  141.5700 O   0  0  0  0  0  0  0  0  0  0  0  0
  190.0490  177.3680  142.3290 C   0  0  0  0  0  0  0  0  0  0  0  0
  186.5500  178.0990  146.0260 C   0  0  0  0  0  0  0  0  0  0  0  0
  190.1220  177.3610  143.7170 C   0  0  0  0  0  3  0  0  0  0  0  0
  185.2920  178.2710  146.7820 C   0  0  0  0  0  3  0  0  0  0  0  0
  186.4410  178.1230  141.8340 C   0  0  0  0  0  3  0  0  0  0  0  0
  185.2850  178.3760  142.5620 C   0  0  0  0  0  0  0  0  0  0  0  0
  188.8220  177.6250  141.6860 C   0  0  0  0  0  0  0  0  0  0  0  0
  184.1550  178.5970  146.1840 C   0  0  0  0  0  3  0  0  0  0  0  0
  191.1560  177.1170  140.1700 C   0  0  0  0  0  3  0  0  0  0  0  0
  188.7900  177.6220  140.3400 C   0  0  0  0  0  3  0  0  0  0  0  0
  182.8620  179.3910  139.8200 C   0  0  0  0  0  0  0  0  0  0  0  0
  182.8760  179.8980  138.5260 O   0  0  0  0  0  1  0  0  0  0  0  0
  184.0370  178.6340  141.8090 C   0  0  0  0  0  0  0  0  0  0  0  0
  181.6400  179.1210  140.4410 C   0  0  0  0  0  3  0  0  0  0  0  0
  182.8040  178.3810  142.4240 C   0  0  0  0  0  3  0  0  0  0  0  0
  184.0630  179.1570  140.5010 C   0  0  0  0  0  0  0  0  0  0  0  0
  185.2730  179.4610  139.8850 O   0  0  0  0  0  1  0  0  0  0  0  0
  181.6040  178.6180  141.7490 C   0  0  0  0  0  0  0  0  0  0  0  0
  180.2170  178.5310  143.7940 C   0  0  0  0  0  1  0  0  0  0  0  0
  180.3970  178.3450  142.3980 O   0  0  0  0  0  0  0  0  0  0  0  0
  187.7200  177.8690  146.7590 O   0  0  0  0  0  0  0  0  0  0  0  0
  187.7640  178.0310  148.1270 N   0  0  0  0  0  2  0  0  0  0  0  0
  189.1590  178.2180  148.4790 C   0  0  0  0  0  2  0  0  0  0  0  0
  189.9430  177.3100  147.7680 O   0  0  0  0  0  1  0  0  0  0  0  0
  1  4  1  0  0  0  0
  1  3  1  0  0  0  0
  2  7  1  0  0  0  0
  3 16  2  0  0  0  0
  4  7  1  6  0  0  0
  4 10  1  0  0  0  0
  6 17  2  0  0  0  0
  6 18  1  0  0  0  0
  7  5  2  0  0  0  0
  8  9  1  0  0  0  0
  9 11  2  0  0  0  0
 10 29  1  0  0  0  0
 10 12  2  0  0  0  0
 11  5  1  0  0  0  0
 13  2  2  0  0  0  0
 13 14  1  0  0  0  0
 14  1  2  0  0  0  0
 15  9  1  0  0  0  0
 15  2  1  0  0  0  0
 16 12  1  0  0  0  0
 17  8  1  0  0  0  0
 18 15  2  0  0  0  0
 19 22  2  0  0  0  0
 19 24  1  0  0  0  0
 20 19  1  0  0  0  0
 21 23  1  0  0  0  0
 21 14  1  0  0  0  0
 22 26  1  0  0  0  0
 24 21  2  0  0  0  0
 25 24  1  0  0  0  0
 26 28  1  0  0  0  0
 26 23  2  0  0  0  0
 28 27  1  0  0  0  0
 29 30  1  0  0  0  0
 30 31  1  0  0  0  0
 32 31  1  0  0  0  0
M  END
>  <MODEL>
5

>  <REMARK>
 VINA RESULT:     -10.6      2.546      8.098
  Name = 
  5 active torsions:
  status: ('A' for Active; 'I' for Inactive)
    1  A    between atoms: C_13  and  N_18
    2  A    between atoms: C_14  and  O_29
    3  A    between atoms: O_15  and  C_26
    4  A    between atoms: C_16  and  C_27
    5  A    between atoms: N_18  and  O_29
                            x       y       z     vdW  Elec       q    Type
                         _______ _______ _______ _____ _____    ______ ____

>  <TORSDO>
F 5

$$$$
=
 OpenBabel10262421133D

 32 36  0  0  0  0  0  0  0  0999 V2000
  185.8520  178.3430  141.8790 C   0  0  0  0  0  0  0  0  0  0  0  0
  186.8740  178.1000  144.5020 C   0  0  0  0  0  0  0  0  0  0  0  0
  185.4030  178.6460  140.4660 C   0  0  0  0  0  2  0  0  0  0  0  0
  184.9570  178.4800  142.9830 C   0  0  0  0  0  0  0  0  0  0  0  0
  184.6820  178.5050  145.4540 C   0  0  0  0  0  3  0  0  0  0  0  0
  189.2530  177.6200  147.3930 C   0  0  0  0  0  3  0  0  0  0  0  0
  185.4890  178.3660  144.3090 C   0  0  0  0  0  0  0  0  0  0  0  0
  187.0740  178.0250  148.2220 O   0  0  0  0  0  0  0  0  0  0  0  0
  186.5550  178.1350  146.9230 C   0  0  0  0  0  0  0  0  0  0  0  0
  183.6290  178.6930  142.7320 C   0  0  0  0  0  0  0  0  0  0  0  0
  185.2020  178.3930  146.7400 C   0  0  0  0  0  3  0  0  0  0  0  0
  183.1120  178.7050  141.3470 C   0  0  0  0  0  3  0  0  0  0  0  0
  187.7030  177.9470  143.3910 C   0  0  0  0  0  3  0  0  0  0  0  0
  187.2150  178.0540  142.0940 C   0  0  0  0  0  0  0  0  0  0  0  0
  187.4050  177.9870  145.8100 C   0  0  0  0  0  0  0  0  0  0  0  0
  183.9200  178.6510  140.2980 C   0  0  0  0  0  3  0  0  0  0  0  0
  188.4340  177.7650  148.4360 C   0  0  0  0  0  3  0  0  0  0  0  0
  188.7090  177.7370  146.0260 C   0  0  0  0  0  3  0  0  0  0  0  0
  190.1750  176.8890  140.0190 C   0  0  0  0  0  0  0  0  0  0  0  0
  191.2690  176.0370  140.1170 O   0  0  0  0  0  1  0  0  0  0  0  0
  188.1740  177.8820  140.9800 C   0  0  0  0  0  0  0  0  0  0  0  0
  189.9690  177.6140  138.8430 C   0  0  0  0  0  3  0  0  0  0  0  0
  187.9870  178.6130  139.7990 C   0  0  0  0  0  3  0  0  0  0  0  0
  189.2870  177.0240  141.0930 C   0  0  0  0  0  0  0  0  0  0  0  0
  189.5210  176.3220  142.2720 O   0  0  0  0  0  1  0  0  0  0  0  0
  188.8750  178.4840  138.7280 C   0  0  0  0  0  0  0  0  0  0  0  0
  187.6770  178.8590  136.5980 C   0  0  0  0  0  1  0  0  0  0  0  0
  188.6470  179.2270  137.5670 O   0  0  0  0  0  0  0  0  0  0  0  0
  182.7070  178.8710  143.7690 O   0  0  0  0  0  0  0  0  0  0  0  0
  181.4270  179.3240  143.5340 N   0  0  0  0  0  2  0  0  0  0  0  0
  180.5260  178.3370  144.0980 C   0  0  0  0  0  2  0  0  0  0  0  0
  179.3820  178.2470  143.3060 O   0  0  0  0  0  1  0  0  0  0  0  0
  1 14  2  0  0  0  0
  1  4  1  0  0  0  0
  2 15  1  0  0  0  0
  3  1  1  0  0  0  0
  4  7  1  0  0  0  0
  5 11  1  0  0  0  0
  6 17  2  0  0  0  0
  7  2  1  0  0  0  0
  7  5  2  0  0  0  0
  8 17  1  0  0  0  0
  9  8  1  0  0  0  0
 10  4  2  0  0  0  0
 10 29  1  0  0  0  0
 11  9  2  0  0  0  0
 12 10  1  0  0  0  0
 13  2  2  0  0  0  0
 14 13  1  0  0  0  0
 15 18  2  0  0  0  0
 15  9  1  0  0  0  0
 16  3  1  0  0  0  0
 16 12  2  0  0  0  0
 18  6  1  0  0  0  0
 19 20  1  0  0  0  0
 19 24  1  0  0  0  0
 21 24  2  0  0  0  0
 21 14  1  0  0  0  0
 22 19  2  0  0  0  0
 23 21  1  0  0  0  0
 24 25  1  0  0  0  0
 26 22  1  0  0  0  0
 26 23  2  0  0  0  0
 27 28  1  0  0  0  0
 28 26  1  0  0  0  0
 30 29  1  0  0  0  0
 30 31  1  0  0  0  0
 32 31  1  0  0  0  0
M  END
>  <MODEL>
6

>  <REMARK>
 VINA RESULT:     -10.4      2.222      6.974
  Name = 
  5 active torsions:
  status: ('A' for Active; 'I' for Inactive)
    1  A    between atoms: C_13  and  N_18
    2  A    between atoms: C_14  and  O_29
    3  A    between atoms: O_15  and  C_26
    4  A    between atoms: C_16  and  C_27
    5  A    between atoms: N_18  and  O_29
                            x       y       z     vdW  Elec       q    Type
                         _______ _______ _______ _____ _____    ______ ____

>  <TORSDO>
F 5

$$$$
=
 OpenBabel10262421133D

 32 36  0  0  1  0  0  0  0  0999 V2000
  187.7250  177.8650  143.6040 C   0  0  0  0  0  0  0  0  0  0  0  0
  189.2650  177.5030  141.2630 C   0  0  0  0  0  0  0  0  0  0  0  0
  186.9000  177.8610  144.8730 C   0  0  0  0  0  3  0  0  0  0  0  0
  187.1250  178.1330  142.3360 C   0  0  2  0  0  3  0  0  0  0  0  0
  187.3970  178.1570  139.8650 C   0  0  0  0  0  3  0  0  0  0  0  0
  192.1360  176.6950  138.9500 C   0  0  0  0  0  3  0  0  0  0  0  0
  187.9130  177.9340  141.1550 C   0  0  0  0  0  0  0  0  0  0  0  0
  190.2520  177.3460  137.6740 O   0  0  0  0  0  0  0  0  0  0  0  0
  189.4840  177.5400  138.8310 C   0  0  0  0  0  0  0  0  0  0  0  0
  185.8350  178.5850  142.3000 C   0  0  0  0  0  0  0  0  0  0  0  0
  188.1650  177.9640  138.7200 C   0  0  0  0  0  3  0  0  0  0  0  0
  185.0950  178.8680  143.5480 C   0  0  0  0  0  3  0  0  0  0  0  0
  189.8140  177.2820  142.5260 C   0  0  0  0  0  3  0  0  0  0  0  0
  189.0740  177.4640  143.6870 C   0  0  0  0  0  0  0  0  0  0  0  0
  190.0480  177.3050  140.1000 C   0  0  0  0  0  0  0  0  0  0  0  0
  185.5930  178.5680  144.7390 C   0  0  0  0  0  3  0  0  0  0  0  0
  191.5850  176.9210  137.7560 C   0  0  0  0  0  3  0  0  0  0  0  0
  191.3280  176.8970  140.1680 C   0  0  0  0  0  3  0  0  0  0  0  0
  191.4970  176.1550  146.3030 C   0  0  0  0  0  0  0  0  0  0  0  0
  192.6380  175.3660  146.3910 O   0  0  0  0  0  1  0  0  0  0  0  0
  189.7420  177.1970  144.9810 C   0  0  0  0  0  0  0  0  0  0  0  0
  190.9520  176.7110  147.4620 C   0  0  0  0  0  3  0  0  0  0  0  0
  189.1990  177.7380  146.1540 C   0  0  0  0  0  3  0  0  0  0  0  0
  190.8930  176.3880  145.0610 C   0  0  0  0  0  0  0  0  0  0  0  0
  191.4250  175.8010  143.9170 O   0  0  0  0  0  1  0  0  0  0  0  0
  189.7960  177.5030  147.3950 C   0  0  0  0  0  0  0  0  0  0  0  0
  187.8220  178.2120  148.7040 C   0  0  0  0  0  1  0  0  0  0  0  0
  189.2250  178.0670  148.5390 O   0  0  0  0  0  0  0  0  0  0  0  0
  185.1790  178.8320  141.0890 O   0  0  0  0  0  0  0  0  0  0  0  0
  183.8290  178.5990  140.9330 N   0  0  0  0  0  2  0  0  0  0  0  0
  183.4550  179.1680  139.6510 C   0  0  0  0  0  2  0  0  0  0  0  0
  184.4050  180.1130  139.2680 O   0  0  0  0  0  1  0  0  0  0  0  0
  1 14  2  0  0  0  0
  1  3  1  0  0  0  0
  2 13  2  0  0  0  0
  4  7  1  1  0  0  0
  4  1  1  0  0  0  0
  5  7  2  0  0  0  0
  6 18  1  0  0  0  0
  7  2  1  0  0  0  0
  8 17  1  0  0  0  0
  8  9  1  0  0  0  0
  9 15  1  0  0  0  0
 10  4  1  0  0  0  0
 10 12  2  0  0  0  0
 11  9  2  0  0  0  0
 11  5  1  0  0  0  0
 12 16  1  0  0  0  0
 13 14  1  0  0  0  0
 14 21  1  0  0  0  0
 15 18  2  0  0  0  0
 15  2  1  0  0  0  0
 16  3  2  0  0  0  0
 17  6  2  0  0  0  0
 19 20  1  0  0  0  0
 19 22  1  0  0  0  0
 21 24  1  0  0  0  0
 21 23  2  0  0  0  0
 23 26  1  0  0  0  0
 24 19  2  0  0  0  0
 25 24  1  0  0  0  0
 26 22  2  0  0  0  0
 26 28  1  0  0  0  0
 28 27  1  0  0  0  0
 29 10  1  0  0  0  0
 30 29  1  0  0  0  0
 31 30  1  0  0  0  0
 32 31  1  0  0  0  0
M  END
>  <MODEL>
7

>  <REMARK>
 VINA RESULT:     -10.1      1.981      5.381
  Name = 
  5 active torsions:
  status: ('A' for Active; 'I' for Inactive)
    1  A    between atoms: C_13  and  N_18
    2  A    between atoms: C_14  and  O_29
    3  A    between atoms: O_15  and  C_26
    4  A    between atoms: C_16  and  C_27
    5  A    between atoms: N_18  and  O_29
                            x       y       z     vdW  Elec       q    Type
                         _______ _______ _______ _____ _____    ______ ____

>  <TORSDO>
F 5

$$$$
=
 OpenBabel10262421133D

 32 36  0  0  0  0  0  0  0  0999 V2000
  189.3210  177.7580  143.0390 C   0  0  0  0  0  0  0  0  0  0  0  0
  186.5440  178.1950  143.3220 C   0  0  0  0  0  0  0  0  0  0  0  0
  190.7610  177.3380  142.8380 C   0  0  0  0  0  2  0  0  0  0  0  0
  188.7820  177.9380  144.3500 C   0  0  0  0  0  0  0  0  0  0  0  0
  186.7510  178.3160  145.7340 C   0  0  0  0  0  3  0  0  0  0  0  0
  182.8880  178.6670  142.5100 C   0  0  0  0  0  3  0  0  0  0  0  0
  187.3690  178.1480  144.4800 C   0  0  0  0  0  0  0  0  0  0  0  0
  183.1970  178.7670  144.8550 O   0  0  0  0  0  0  0  0  0  0  0  0
  184.5780  178.5630  144.7240 C   0  0  0  0  0  0  0  0  0  0  0  0
  189.6330  177.9240  145.4200 C   0  0  0  0  0  0  0  0  0  0  0  0
  185.3800  178.5200  145.8580 C   0  0  0  0  0  3  0  0  0  0  0  0
  191.0930  177.8020  145.2260 C   0  0  0  0  0  3  0  0  0  0  0  0
  187.1230  178.0420  142.0620 C   0  0  0  0  0  3  0  0  0  0  0  0
  188.4880  177.8350  141.9050 C   0  0  0  0  0  0  0  0  0  0  0  0
  185.1490  178.4010  143.4460 C   0  0  0  0  0  0  0  0  0  0  0  0
  191.6230  177.5660  144.0350 C   0  0  0  0  0  3  0  0  0  0  0  0
  182.3650  178.8160  143.7290 C   0  0  0  0  0  3  0  0  0  0  0  0
  184.3410  178.4500  142.3710 C   0  0  0  0  0  3  0  0  0  0  0  0
  190.3780  176.5280  138.8810 C   0  0  0  0  0  0  0  0  0  0  0  0
  191.2550  175.5050  138.5390 O   0  0  0  0  0  1  0  0  0  0  0  0
  189.0070  177.6780  140.5280 C   0  0  0  0  0  0  0  0  0  0  0  0
  189.9740  177.4440  137.9070 C   0  0  0  0  0  3  0  0  0  0  0  0
  188.6220  178.5980  139.5430 C   0  0  0  0  0  3  0  0  0  0  0  0
  189.9040  176.6440  140.1940 C   0  0  0  0  0  0  0  0  0  0  0  0
  190.3390  175.7450  141.1630 O   0  0  0  0  0  1  0  0  0  0  0  0
  189.0960  178.4880  138.2340 C   0  0  0  0  0  0  0  0  0  0  0  0
  187.6160  179.1750  136.3770 C   0  0  0  0  0  1  0  0  0  0  0  0
  188.6820  179.4230  137.2830 O   0  0  0  0  0  0  0  0  0  0  0  0
  189.1620  178.0580  146.7310 O   0  0  0  0  0  0  0  0  0  0  0  0
  189.4170  177.1070  147.6950 N   0  0  0  0  0  2  0  0  0  0  0  0
  188.2230  177.0170  148.5150 C   0  0  0  0  0  2  0  0  0  0  0  0
  187.9510  178.2630  149.0780 O   0  0  0  0  0  1  0  0  0  0  0  0
  1  4  1  0  0  0  0
  2 15  1  0  0  0  0
  2  7  1  0  0  0  0
  3  1  1  0  0  0  0
  3 16  1  0  0  0  0
  4  7  1  0  0  0  0
  4 10  2  0  0  0  0
  5 11  1  0  0  0  0
  6 17  2  0  0  0  0
  7  5  2  0  0  0  0
  9  8  1  0  0  0  0
  9 11  2  0  0  0  0
 10 29  1  0  0  0  0
 12 10  1  0  0  0  0
 13  2  2  0  0  0  0
 14 13  1  0  0  0  0
 14  1  2  0  0  0  0
 15  9  1  0  0  0  0
 16 12  2  0  0  0  0
 17  8  1  0  0  0  0
 18  6  1  0  0  0  0
 18 15  2  0  0  0  0
 19 24  1  0  0  0  0
 20 19  1  0  0  0  0
 21 14  1  0  0  0  0
 22 26  1  0  0  0  0
 22 19  2  0  0  0  0
 23 21  1  0  0  0  0
 24 21  2  0  0  0  0
 24 25  1  0  0  0  0
 26 23  2  0  0  0  0
 27 28  1  0  0  0  0
 28 26  1  0  0  0  0
 29 30  1  0  0  0  0
 30 31  1  0  0  0  0
 31 32  1  0  0  0  0
M  END
>  <MODEL>
8

>  <REMARK>
 VINA RESULT:      -9.7      2.447      6.614
  Name = 
  5 active torsions:
  status: ('A' for Active; 'I' for Inactive)
    1  A    between atoms: C_13  and  N_18
    2  A    between atoms: C_14  and  O_29
    3  A    between atoms: O_15  and  C_26
    4  A    between atoms: C_16  and  C_27
    5  A    between atoms: N_18  and  O_29
                            x       y       z     vdW  Elec       q    Type
                         _______ _______ _______ _____ _____    ______ ____

>  <TORSDO>
F 5

$$$$
=
 OpenBabel10262421133D

 32 36  0  0  0  0  0  0  0  0999 V2000
  187.5590  178.0340  141.3950 C   0  0  0  0  0  0  0  0  0  0  0  0
  189.0320  177.4330  143.7300 C   0  0  0  0  0  0  0  0  0  0  0  0
  186.6820  178.1800  140.1700 C   0  0  0  0  0  2  0  0  0  0  0  0
  188.9500  177.7310  141.2740 C   0  0  0  0  0  0  0  0  0  0  0  0
  191.0520  177.0900  142.4360 C   0  0  0  0  0  3  0  0  0  0  0  0
  189.9250  176.8040  147.3440 C   0  0  0  0  0  3  0  0  0  0  0  0
  189.6840  177.4170  142.4650 C   0  0  0  0  0  0  0  0  0  0  0  0
  191.8410  176.4910  145.9890 O   0  0  0  0  0  0  0  0  0  0  0  0
  191.1210  176.8000  144.8260 C   0  0  0  0  0  0  0  0  0  0  0  0
  189.5280  177.7740  140.0350 C   0  0  0  0  0  0  0  0  0  0  0  0
  191.7620  176.7850  143.5940 C   0  0  0  0  0  3  0  0  0  0  0  0
  188.7520  178.1990  138.8510 C   0  0  0  0  0  3  0  0  0  0  0  0
  187.6790  177.7620  143.7990 C   0  0  0  0  0  3  0  0  0  0  0  0
  186.9420  178.0690  142.6620 C   0  0  0  0  0  0  0  0  0  0  0  0
  189.7520  177.1220  144.9090 C   0  0  0  0  0  0  0  0  0  0  0  0
  187.4470  178.4200  138.9120 C   0  0  0  0  0  3  0  0  0  0  0  0
  191.2200  176.4990  147.2460 C   0  0  0  0  0  3  0  0  0  0  0  0
  189.1650  177.1270  146.1200 C   0  0  0  0  0  3  0  0  0  0  0  0
  183.6170  179.0280  144.2280 C   0  0  0  0  0  0  0  0  0  0  0  0
  183.0850  179.3590  145.4680 O   0  0  0  0  0  1  0  0  0  0  0  0
  185.5090  178.4000  142.8360 C   0  0  0  0  0  0  0  0  0  0  0  0
  182.7840  178.9950  143.1070 C   0  0  0  0  0  3  0  0  0  0  0  0
  184.6590  178.3580  141.7230 C   0  0  0  0  0  3  0  0  0  0  0  0
  184.9780  178.7230  144.1000 C   0  0  0  0  0  0  0  0  0  0  0  0
  185.7920  178.7270  145.2290 O   0  0  0  0  0  1  0  0  0  0  0  0
  183.3000  178.6560  141.8480 C   0  0  0  0  0  0  0  0  0  0  0  0
  182.9250  179.0600  139.4370 C   0  0  0  0  0  1  0  0  0  0  0  0
  182.4890  178.6080  140.7110 O   0  0  0  0  0  0  0  0  0  0  0  0
  190.8760  177.4530  139.8460 O   0  0  0  0  0  0  0  0  0  0  0  0
  191.2650  176.3380  139.1340 N   0  0  0  0  0  2  0  0  0  0  0  0
  192.3780  176.7460  138.2970 C   0  0  0  0  0  2  0  0  0  0  0  0
  193.5470  176.7640  139.0570 O   0  0  0  0  0  1  0  0  0  0  0  0
  1 14  2  0  0  0  0
  2 13  2  0  0  0  0
  2 15  1  0  0  0  0
  3  1  1  0  0  0  0
  4  1  1  0  0  0  0
  4  7  1  0  0  0  0
  5  7  2  0  0  0  0
  5 11  1  0  0  0  0
  7  2  1  0  0  0  0
  8 17  1  0  0  0  0
  9 15  1  0  0  0  0
  9  8  1  0  0  0  0
 10  4  2  0  0  0  0
 11  9  2  0  0  0  0
 12 16  2  0  0  0  0
 12 10  1  0  0  0  0
 14 21  1  0  0  0  0
 14 13  1  0  0  0  0
 15 18  2  0  0  0  0
 16  3  1  0  0  0  0
 17  6  2  0  0  0  0
 18  6  1  0  0  0  0
 19 20  1  0  0  0  0
 21 24  2  0  0  0  0
 22 19  2  0  0  0  0
 23 26  2  0  0  0  0
 23 21  1  0  0  0  0
 24 19  1  0  0  0  0
 24 25  1  0  0  0  0
 26 22  1  0  0  0  0
 27 28  1  0  0  0  0
 28 26  1  0  0  0  0
 29 10  1  0  0  0  0
 30 29  1  0  0  0  0
 31 32  1  0  0  0  0
 31 30  1  0  0  0  0
M  END
>  <MODEL>
9

>  <REMARK>
 VINA RESULT:      -9.7      1.936      6.389
  Name = 
  5 active torsions:
  status: ('A' for Active; 'I' for Inactive)
    1  A    between atoms: C_13  and  N_18
    2  A    between atoms: C_14  and  O_29
    3  A    between atoms: O_15  and  C_26
    4  A    between atoms: C_16  and  C_27
    5  A    between atoms: N_18  and  O_29
                            x       y       z     vdW  Elec       q    Type
                         _______ _______ _______ _____ _____    ______ ____

>  <TORSDO>
F 5

$$$$
