=
 OpenBabel10262420553D

 28 32  0  0  1  0  0  0  0  0999 V2000
  190.1180  177.3520  142.3580 C   0  0  0  0  0  0  0  0  0  0  0  0
  185.3050  177.5910  143.2220 C   0  0  0  0  0  3  0  0  0  0  0  0
  189.8420  177.7770  147.1800 C   0  0  0  0  0  2  0  0  0  0  0  0
  185.6570  178.7870  145.4570 C   0  0  1  0  0  3  0  0  0  0  0  0
  187.1780  176.8570  144.7030 C   0  0  1  0  0  3  0  0  0  0  0  0
  184.0540  179.6440  143.6780 C   0  0  2  0  0  3  0  0  0  0  0  0
  186.3110  178.0380  144.2520 C   0  0  1  0  0  3  0  0  0  0  0  0
  186.9860  177.4680  147.1370 C   0  0  0  0  0  2  0  0  0  0  0  0
  184.2720  179.3920  145.1680 C   0  0  0  0  0  2  0  0  0  0  0  0
  189.9870  177.6520  144.7570 C   0  0  0  0  0  0  0  0  0  0  0  0
  188.1460  176.3790  143.6140 C   0  0  0  0  0  2  0  0  0  0  0  0
  185.5830  177.9110  146.7090 C   0  0  0  0  0  2  0  0  0  0  0  0
  191.8890  178.4500  143.5730 C   0  0  0  0  0  3  0  0  0  0  0  0
  189.2390  177.5140  146.0220 C   0  0  0  0  0  0  0  0  0  0  0  0
  191.2010  178.2700  144.7310 N   0  0  0  0  0  0  0  0  0  0  0  0
  182.7610  180.1190  143.4640 O   0  0  0  0  0  1  0  0  0  0  0  0
  184.2470  178.3570  142.9360 C   0  0  0  0  0  3  0  0  0  0  0  0
  187.8410  177.1620  145.9810 N   0  0  0  0  0  0  0  0  0  0  0  0
  191.3570  177.9970  142.3660 C   0  0  0  0  0  3  0  0  0  0  0  0
  189.4150  177.1800  143.5650 C   0  0  0  0  0  0  0  0  0  0  0  0
  189.5540  176.8900  141.0530 C   0  0  0  0  0  2  0  0  0  0  0  0
  188.9000  178.0530  140.3290 C   0  0  1  0  0  3  0  0  0  0  0  0
  189.4450  178.1500  138.9220 C   0  0  0  0  0  2  0  0  0  0  0  0
  188.0870  177.5170  139.1640 C   0  0  2  0  0  3  0  0  0  0  0  0
  187.0230  178.4560  138.8360 N   0  0  0  0  0  0  0  0  0  0  0  0
  184.9270  179.3770  139.4320 N   0  0  0  0  0  2  0  0  0  0  0  0
  186.9680  179.0010  137.5960 O   0  0  0  0  0  1  0  0  0  0  0  0
  185.9310  178.6270  139.7420 C   0  0  0  0  0  3  0  0  0  0  0  0
  1 19  2  0  0  0  0
  1 20  1  0  0  0  0
  4  9  1  6  0  0  0
  4 12  1  0  0  0  0
  5 11  1  6  0  0  0
  5 18  1  0  0  0  0
  6 16  1  1  0  0  0
  6  9  1  0  0  0  0
  7  2  1  6  0  0  0
  7  5  1  0  0  0  0
  7  4  1  0  0  0  0
 10 14  1  0  0  0  0
 12  8  1  0  0  0  0
 13 15  2  0  0  0  0
 14  3  2  0  0  0  0
 15 10  1  0  0  0  0
 17  2  2  0  0  0  0
 17  6  1  0  0  0  0
 18 14  1  0  0  0  0
 18  8  1  0  0  0  0
 19 13  1  0  0  0  0
 20 11  1  0  0  0  0
 20 10  2  0  0  0  0
 21  1  1  0  0  0  0
 22 21  1  1  0  0  0
 23 24  1  0  0  0  0
 23 22  1  0  0  0  0
 24 25  1  6  0  0  0
 24 22  1  0  0  0  0
 25 28  1  0  0  0  0
 26 28  2  0  0  0  0
 27 25  1  0  0  0  0
M  END
>  <MODEL>
1

>  <REMARK>
 VINA RESULT:      -8.6      0.000      0.000
  Name = 
  3 active torsions:
  status: ('A' for Active; 'I' for Inactive)
    1  A    between atoms: C_1  and  C_2
    2  A    between atoms: C_2  and  C_3
    3  A    between atoms: N_6  and  C_11
                            x       y       z     vdW  Elec       q    Type
                         _______ _______ _______ _____ _____    ______ ____

>  <TORSDO>
F 3

$$$$
=
 OpenBabel10262420553D

 28 32  0  0  1  0  0  0  0  0999 V2000
  190.0550  177.8440  142.5820 C   0  0  0  0  0  0  0  0  0  0  0  0
  185.1850  177.7170  143.0670 C   0  0  0  0  0  3  0  0  0  0  0  0
  189.3820  177.9470  147.3820 C   0  0  0  0  0  2  0  0  0  0  0  0
  185.2810  178.7910  145.3880 C   0  0  1  0  0  3  0  0  0  0  0  0
  186.9850  177.0140  144.6500 C   0  0  1  0  0  3  0  0  0  0  0  0
  183.7640  179.6520  143.5380 C   0  0  2  0  0  3  0  0  0  0  0  0
  186.0760  178.1630  144.1990 C   0  0  1  0  0  3  0  0  0  0  0  0
  186.5660  177.4570  147.0920 C   0  0  0  0  0  2  0  0  0  0  0  0
  183.8840  179.3220  145.0240 C   0  0  0  0  0  2  0  0  0  0  0  0
  189.7200  177.9830  144.9760 C   0  0  0  0  0  0  0  0  0  0  0  0
  188.0650  176.6680  143.6160 C   0  0  0  0  0  2  0  0  0  0  0  0
  185.1720  177.8350  146.5780 C   0  0  0  0  0  2  0  0  0  0  0  0
  191.6470  178.9760  143.9960 C   0  0  0  0  0  3  0  0  0  0  0  0
  188.8890  177.7190  146.1660 C   0  0  0  0  0  0  0  0  0  0  0  0
  190.8860  178.6790  145.0830 N   0  0  0  0  0  0  0  0  0  0  0  0
  182.4610  180.0560  143.2480 O   0  0  0  0  0  1  0  0  0  0  0  0
  184.1010  178.4290  142.7420 C   0  0  0  0  0  3  0  0  0  0  0  0
  187.5250  177.2800  145.9930 N   0  0  0  0  0  0  0  0  0  0  0  0
  191.2420  178.5660  142.7270 C   0  0  0  0  0  3  0  0  0  0  0  0
  189.2750  177.5510  143.7160 C   0  0  0  0  0  0  0  0  0  0  0  0
  189.6250  177.4290  141.2110 C   0  0  0  0  0  2  0  0  0  0  0  0
  190.7280  176.6300  140.5400 C   0  0  1  0  0  3  0  0  0  0  0  0
  190.3080  176.2570  139.1370 C   0  0  0  0  0  2  0  0  0  0  0  0
  191.2610  177.4170  139.3570 C   0  0  2  0  0  3  0  0  0  0  0  0
  192.6310  177.0110  139.0740 N   0  0  0  0  0  0  0  0  0  0  0  0
  194.0740  175.6210  137.8160 N   0  0  0  0  0  2  0  0  0  0  0  0
  193.6240  177.3570  139.9280 O   0  0  0  0  0  1  0  0  0  0  0  0
  192.8830  176.0740  138.0240 C   0  0  0  0  0  3  0  0  0  0  0  0
  1 19  2  0  0  0  0
  1 20  1  0  0  0  0
  4  9  1  6  0  0  0
  4 12  1  0  0  0  0
  5 11  1  6  0  0  0
  5 18  1  0  0  0  0
  6 16  1  1  0  0  0
  6  9  1  0  0  0  0
  7  2  1  6  0  0  0
  7  5  1  0  0  0  0
  7  4  1  0  0  0  0
 10 15  1  0  0  0  0
 10 14  1  0  0  0  0
 11 20  1  0  0  0  0
 12  8  1  0  0  0  0
 13 15  2  0  0  0  0
 14  3  2  0  0  0  0
 17  2  2  0  0  0  0
 17  6  1  0  0  0  0
 18 14  1  0  0  0  0
 18  8  1  0  0  0  0
 19 13  1  0  0  0  0
 20 10  2  0  0  0  0
 21  1  1  0  0  0  0
 22 21  1  1  0  0  0
 23 24  1  0  0  0  0
 23 22  1  0  0  0  0
 24 25  1  6  0  0  0
 24 22  1  0  0  0  0
 25 27  1  0  0  0  0
 26 28  2  0  0  0  0
 28 25  1  0  0  0  0
M  END
>  <MODEL>
2

>  <REMARK>
 VINA RESULT:      -8.1      2.508      3.096
  Name = 
  3 active torsions:
  status: ('A' for Active; 'I' for Inactive)
    1  A    between atoms: C_1  and  C_2
    2  A    between atoms: C_2  and  C_3
    3  A    between atoms: N_6  and  C_11
                            x       y       z     vdW  Elec       q    Type
                         _______ _______ _______ _____ _____    ______ ____

>  <TORSDO>
F 3

$$$$
=
 OpenBabel10262420553D

 28 32  0  0  1  0  0  0  0  0999 V2000
  187.7720  177.1350  142.7010 C   0  0  0  0  0  0  0  0  0  0  0  0
  185.6630  178.0410  138.3770 C   0  0  0  0  0  3  0  0  0  0  0  0
  191.4900  177.1170  139.5910 C   0  0  0  0  0  2  0  0  0  0  0  0
  187.5890  176.9540  137.0890 C   0  0  1  0  0  3  0  0  0  0  0  0
  188.0060  178.4380  139.1460 C   0  0  1  0  0  3  0  0  0  0  0  0
  185.1510  176.3580  136.6770 C   0  0  2  0  0  3  0  0  0  0  0  0
  187.0480  177.4520  138.4680 C   0  0  1  0  0  3  0  0  0  0  0  0
  189.8230  178.0550  137.4470 C   0  0  0  0  0  2  0  0  0  0  0  0
  186.5050  176.6560  136.0380 C   0  0  0  0  0  2  0  0  0  0  0  0
  189.6190  177.0390  141.1390 C   0  0  0  0  0  0  0  0  0  0  0  0
  187.7210  178.6100  140.6430 C   0  0  0  0  0  2  0  0  0  0  0  0
  188.6280  177.9090  136.4980 C   0  0  0  0  0  2  0  0  0  0  0  0
  189.7010  175.7550  143.1390 C   0  0  0  0  0  3  0  0  0  0  0  0
  190.2210  177.4280  139.8490 C   0  0  0  0  0  0  0  0  0  0  0  0
  190.2550  176.1640  141.9670 N   0  0  0  0  0  0  0  0  0  0  0  0
  184.1920  176.1710  135.6840 O   0  0  0  0  0  1  0  0  0  0  0  0
  184.7600  177.5140  137.5440 C   0  0  0  0  0  3  0  0  0  0  0  0
  189.4040  178.0810  138.8550 N   0  0  0  0  0  0  0  0  0  0  0  0
  188.4480  176.2310  143.5240 C   0  0  0  0  0  3  0  0  0  0  0  0
  188.3560  177.5430  141.4880 C   0  0  0  0  0  0  0  0  0  0  0  0
  186.4210  177.6210  143.1200 C   0  0  0  0  0  2  0  0  0  0  0  0
  186.5500  178.5500  144.3130 C   0  0  1  0  0  3  0  0  0  0  0  0
  185.1800  179.0290  144.7370 C   0  0  0  0  0  2  0  0  0  0  0  0
  185.8650  177.9170  145.5110 C   0  0  2  0  0  3  0  0  0  0  0  0
  186.4460  178.4370  146.7400 N   0  0  0  0  0  0  0  0  0  0  0  0
  187.9890  178.1130  148.5040 N   0  0  0  0  0  2  0  0  0  0  0  0
  185.8390  179.4590  147.3900 O   0  0  0  0  0  1  0  0  0  0  0  0
  187.5210  177.7300  147.3630 C   0  0  0  0  0  3  0  0  0  0  0  0
  1 21  1  0  0  0  0
  1 19  1  0  0  0  0
  3 14  2  0  0  0  0
  4  9  1  6  0  0  0
  4  7  1  0  0  0  0
  5 11  1  1  0  0  0
  6 16  1  6  0  0  0
  6 17  1  0  0  0  0
  7  2  1  6  0  0  0
  7  5  1  0  0  0  0
  8 18  1  0  0  0  0
  9  6  1  0  0  0  0
 10 20  1  0  0  0  0
 10 15  2  0  0  0  0
 11 20  1  0  0  0  0
 12  4  1  0  0  0  0
 12  8  1  0  0  0  0
 13 19  2  0  0  0  0
 14 10  1  0  0  0  0
 15 13  1  0  0  0  0
 17  2  2  0  0  0  0
 18  5  1  0  0  0  0
 18 14  1  0  0  0  0
 20  1  2  0  0  0  0
 22 21  1  6  0  0  0
 22 23  1  0  0  0  0
 22 24  1  0  0  0  0
 23 24  1  0  0  0  0
 24 25  1  1  0  0  0
 25 28  1  0  0  0  0
 25 27  1  0  0  0  0
 28 26  2  0  0  0  0
M  END
>  <MODEL>
3

>  <REMARK>
 VINA RESULT:      -8.0      2.318      6.893
  Name = 
  3 active torsions:
  status: ('A' for Active; 'I' for Inactive)
    1  A    between atoms: C_1  and  C_2
    2  A    between atoms: C_2  and  C_3
    3  A    between atoms: N_6  and  C_11
                            x       y       z     vdW  Elec       q    Type
                         _______ _______ _______ _____ _____    ______ ____

>  <TORSDO>
F 3

$$$$
=
 OpenBabel10262420553D

 28 32  0  0  1  0  0  0  0  0999 V2000
  183.6540  178.4050  139.2960 C   0  0  0  0  0  0  0  0  0  0  0  0
  187.8440  178.2260  141.8200 C   0  0  0  0  0  3  0  0  0  0  0  0
  182.2180  178.7210  143.9160 C   0  0  0  0  0  2  0  0  0  0  0  0
  186.6620  177.3930  143.9310 C   0  0  1  0  0  3  0  0  0  0  0  0
  185.6310  179.2080  142.4320 C   0  0  1  0  0  3  0  0  0  0  0  0
  188.7180  176.2480  142.9660 C   0  0  2  0  0  3  0  0  0  0  0  0
  186.5170  177.9580  142.4820 C   0  0  1  0  0  3  0  0  0  0  0  0
  184.9280  178.9750  144.8380 C   0  0  0  0  0  2  0  0  0  0  0  0
  188.0160  176.7290  144.2340 C   0  0  0  0  0  2  0  0  0  0  0  0
  182.9280  178.4750  141.6050 C   0  0  0  0  0  0  0  0  0  0  0  0
  185.1330  179.5280  141.0170 C   0  0  0  0  0  2  0  0  0  0  0  0
  186.3590  178.4490  144.9960 C   0  0  0  0  0  2  0  0  0  0  0  0
  181.5020  177.5340  139.9500 C   0  0  0  0  0  3  0  0  0  0  0  0
  183.2010  178.7930  143.0190 C   0  0  0  0  0  0  0  0  0  0  0  0
  181.7590  177.8790  141.2400 N   0  0  0  0  0  0  0  0  0  0  0  0
  189.9690  175.7260  143.2880 O   0  0  0  0  0  1  0  0  0  0  0  0
  188.8810  177.4090  142.0340 C   0  0  0  0  0  3  0  0  0  0  0  0
  184.5480  179.1130  143.4250 N   0  0  0  0  0  0  0  0  0  0  0  0
  182.4470  177.7880  138.9570 C   0  0  0  0  0  3  0  0  0  0  0  0
  183.9070  178.7490  140.6370 C   0  0  0  0  0  0  0  0  0  0  0  0
  184.6640  178.6520  138.2220 C   0  0  0  0  0  2  0  0  0  0  0  0
  185.9410  177.8880  138.5240 C   0  0  1  0  0  3  0  0  0  0  0  0
  186.2600  176.9520  137.3810 C   0  0  0  0  0  2  0  0  0  0  0  0
  187.0000  178.2710  137.5060 C   0  0  2  0  0  3  0  0  0  0  0  0
  188.3250  178.0590  138.0720 N   0  0  0  0  0  0  0  0  0  0  0  0
  189.9590  176.5030  138.7830 N   0  0  0  0  0  2  0  0  0  0  0  0
  188.9770  179.0910  138.6600 O   0  0  0  0  0  1  0  0  0  0  0  0
  188.8310  176.7280  138.1960 C   0  0  0  0  0  3  0  0  0  0  0  0
  1 20  1  0  0  0  0
  2 17  2  0  0  0  0
  4  9  1  1  0  0  0
  4 12  1  0  0  0  0
  5 11  1  6  0  0  0
  5  7  1  0  0  0  0
  5 18  1  0  0  0  0
  6 16  1  1  0  0  0
  6  9  1  0  0  0  0
  7  2  1  1  0  0  0
  7  4  1  0  0  0  0
  8 12  1  0  0  0  0
 10 14  1  0  0  0  0
 13 15  2  0  0  0  0
 14 18  1  0  0  0  0
 14  3  2  0  0  0  0
 15 10  1  0  0  0  0
 17  6  1  0  0  0  0
 18  8  1  0  0  0  0
 19  1  2  0  0  0  0
 19 13  1  0  0  0  0
 20 11  1  0  0  0  0
 20 10  2  0  0  0  0
 21  1  1  0  0  0  0
 22 21  1  6  0  0  0
 23 24  1  0  0  0  0
 23 22  1  0  0  0  0
 24 25  1  1  0  0  0
 24 22  1  0  0  0  0
 25 28  1  0  0  0  0
 25 27  1  0  0  0  0
 28 26  2  0  0  0  0
M  END
>  <MODEL>
4

>  <REMARK>
 VINA RESULT:      -7.7      2.825      5.825
  Name = 
  3 active torsions:
  status: ('A' for Active; 'I' for Inactive)
    1  A    between atoms: C_1  and  C_2
    2  A    between atoms: C_2  and  C_3
    3  A    between atoms: N_6  and  C_11
                            x       y       z     vdW  Elec       q    Type
                         _______ _______ _______ _____ _____    ______ ____

>  <TORSDO>
F 3

$$$$
=
 OpenBabel10262420553D

 28 32  0  0  1  0  0  0  0  0999 V2000
  187.5800  177.8000  147.1760 C   0  0  0  0  0  0  0  0  0  0  0  0
  188.5230  176.6450  142.5130 C   0  0  0  0  0  3  0  0  0  0  0  0
  183.7580  179.5610  144.7680 C   0  0  0  0  0  2  0  0  0  0  0  0
  187.0100  178.5130  141.6330 C   0  0  1  0  0  3  0  0  0  0  0  0
  186.3470  177.0800  143.6610 C   0  0  1  0  0  3  0  0  0  0  0  0
  189.4010  178.1860  140.8280 C   0  0  2  0  0  3  0  0  0  0  0  0
  187.5060  177.6990  142.8710 C   0  0  1  0  0  3  0  0  0  0  0  0
  184.6000  178.3040  142.3260 C   0  0  0  0  0  2  0  0  0  0  0  0
  187.9600  178.4930  140.4230 C   0  0  0  0  0  2  0  0  0  0  0  0
  185.7130  178.7570  145.9670 C   0  0  0  0  0  0  0  0  0  0  0  0
  186.7550  176.6500  145.0760 C   0  0  0  0  0  2  0  0  0  0  0  0
  185.6070  178.0920  141.1900 C   0  0  0  0  0  2  0  0  0  0  0  0
  186.4280  179.7490  148.0070 C   0  0  0  0  0  3  0  0  0  0  0  0
  184.8280  178.7680  144.7860 C   0  0  0  0  0  0  0  0  0  0  0  0
  185.5960  179.7110  146.9320 N   0  0  0  0  0  0  0  0  0  0  0  0
  190.2030  178.1050  139.6910 O   0  0  0  0  0  1  0  0  0  0  0  0
  189.4300  176.8800  141.5600 C   0  0  0  0  0  3  0  0  0  0  0  0
  185.1730  177.9680  143.6360 N   0  0  0  0  0  0  0  0  0  0  0  0
  187.4370  178.7970  148.1440 C   0  0  0  0  0  3  0  0  0  0  0  0
  186.7150  177.7780  146.0660 C   0  0  0  0  0  0  0  0  0  0  0  0
  188.6790  176.7980  147.3290 C   0  0  0  0  0  2  0  0  0  0  0  0
  189.9520  177.3210  146.6870 C   0  0  1  0  0  3  0  0  0  0  0  0
  191.1240  176.4590  147.1000 C   0  0  0  0  0  2  0  0  0  0  0  0
  190.4930  176.2710  145.7330 C   0  0  2  0  0  3  0  0  0  0  0  0
  191.3030  176.9120  144.7070 N   0  0  0  0  0  0  0  0  0  0  0  0
  191.8180  178.8980  143.5290 N   0  0  0  0  0  2  0  0  0  0  0  0
  192.0020  176.1500  143.8300 O   0  0  0  0  0  1  0  0  0  0  0  0
  191.1860  178.3200  144.4960 C   0  0  0  0  0  3  0  0  0  0  0  0
  1 21  1  0  0  0  0
  1 19  1  0  0  0  0
  3 14  2  0  0  0  0
  4  9  1  6  0  0  0
  4  7  1  0  0  0  0
  5 11  1  1  0  0  0
  6 16  1  6  0  0  0
  6 17  1  0  0  0  0
  7  2  1  6  0  0  0
  7  5  1  0  0  0  0
  8 18  1  0  0  0  0
  9  6  1  0  0  0  0
 10 20  1  0  0  0  0
 10 15  2  0  0  0  0
 11 20  1  0  0  0  0
 12  4  1  0  0  0  0
 12  8  1  0  0  0  0
 13 19  2  0  0  0  0
 14 10  1  0  0  0  0
 15 13  1  0  0  0  0
 17  2  2  0  0  0  0
 18  5  1  0  0  0  0
 18 14  1  0  0  0  0
 20  1  2  0  0  0  0
 22 23  1  0  0  0  0
 22 21  1  1  0  0  0
 24 25  1  6  0  0  0
 24 22  1  0  0  0  0
 24 23  1  0  0  0  0
 26 28  2  0  0  0  0
 27 25  1  0  0  0  0
 28 25  1  0  0  0  0
M  END
>  <MODEL>
5

>  <REMARK>
 VINA RESULT:      -7.6      2.545      6.009
  Name = 
  3 active torsions:
  status: ('A' for Active; 'I' for Inactive)
    1  A    between atoms: C_1  and  C_2
    2  A    between atoms: C_2  and  C_3
    3  A    between atoms: N_6  and  C_11
                            x       y       z     vdW  Elec       q    Type
                         _______ _______ _______ _____ _____    ______ ____

>  <TORSDO>
F 3

$$$$
=
 OpenBabel10262420553D

 28 32  0  0  1  0  0  0  0  0999 V2000
  190.1920  177.1480  141.4770 C   0  0  0  0  0  0  0  0  0  0  0  0
  185.6030  177.6120  143.1170 C   0  0  0  0  0  3  0  0  0  0  0  0
  190.7070  177.2520  146.2970 C   0  0  0  0  0  2  0  0  0  0  0  0
  186.3840  178.6260  145.3330 C   0  0  1  0  0  3  0  0  0  0  0  0
  187.6290  176.6660  144.2320 C   0  0  1  0  0  3  0  0  0  0  0  0
  184.5850  179.6980  143.8900 C   0  0  2  0  0  3  0  0  0  0  0  0
  186.7870  177.9250  143.9970 C   0  0  1  0  0  3  0  0  0  0  0  0
  187.8650  177.1170  146.6970 C   0  0  0  0  0  2  0  0  0  0  0  0
  185.0160  179.3310  145.3080 C   0  0  0  0  0  2  0  0  0  0  0  0
  190.4600  177.2880  143.8790 C   0  0  0  0  0  0  0  0  0  0  0  0
  188.3790  176.2080  142.9740 C   0  0  0  0  0  2  0  0  0  0  0  0
  186.4470  177.6710  146.5270 C   0  0  0  0  0  2  0  0  0  0  0  0
  192.2040  178.0520  142.4530 C   0  0  0  0  0  3  0  0  0  0  0  0
  189.9130  177.1070  145.2380 C   0  0  0  0  0  0  0  0  0  0  0  0
  191.6950  177.8330  143.6950 N   0  0  0  0  0  0  0  0  0  0  0  0
  183.3110  180.2630  143.9150 O   0  0  0  0  0  1  0  0  0  0  0  0
  184.5690  178.4560  143.0520 C   0  0  0  0  0  3  0  0  0  0  0  0
  188.5040  176.8420  145.4020 N   0  0  0  0  0  0  0  0  0  0  0  0
  191.4590  177.7170  141.3230 C   0  0  0  0  0  3  0  0  0  0  0  0
  189.6770  176.9350  142.7690 C   0  0  0  0  0  0  0  0  0  0  0  0
  189.3990  176.8120  140.2550 C   0  0  0  0  0  2  0  0  0  0  0  0
  190.2470  177.0190  139.0120 C   0  0  1  0  0  3  0  0  0  0  0  0
  191.0380  175.7640  138.7190 C   0  0  0  0  0  2  0  0  0  0  0  0
  189.7780  176.0650  137.9290 C   0  0  2  0  0  3  0  0  0  0  0  0
  190.1160  176.6050  136.6200 N   0  0  0  0  0  0  0  0  0  0  0  0
  189.3590  177.6850  134.6560 N   0  0  0  0  0  2  0  0  0  0  0  0
  191.3040  176.2870  136.0490 O   0  0  0  0  0  1  0  0  0  0  0  0
  189.1150  177.2830  135.8580 C   0  0  0  0  0  3  0  0  0  0  0  0
  1 20  1  0  0  0  0
  4  9  1  6  0  0  0
  4 12  1  0  0  0  0
  5 11  1  6  0  0  0
  5 18  1  0  0  0  0
  6 16  1  1  0  0  0
  6  9  1  0  0  0  0
  7  2  1  1  0  0  0
  7  5  1  0  0  0  0
  7  4  1  0  0  0  0
 10 14  1  0  0  0  0
 12  8  1  0  0  0  0
 13 15  2  0  0  0  0
 14 18  1  0  0  0  0
 14  3  2  0  0  0  0
 15 10  1  0  0  0  0
 17  2  2  0  0  0  0
 17  6  1  0  0  0  0
 18  8  1  0  0  0  0
 19  1  2  0  0  0  0
 19 13  1  0  0  0  0
 20 11  1  0  0  0  0
 20 10  2  0  0  0  0
 21  1  1  0  0  0  0
 22 21  1  1  0  0  0
 23 22  1  0  0  0  0
 24 25  1  6  0  0  0
 24 23  1  0  0  0  0
 24 22  1  0  0  0  0
 26 28  2  0  0  0  0
 27 25  1  0  0  0  0
 28 25  1  0  0  0  0
M  END
>  <MODEL>
6

>  <REMARK>
 VINA RESULT:      -7.6      2.103      2.354
  Name = 
  3 active torsions:
  status: ('A' for Active; 'I' for Inactive)
    1  A    between atoms: C_1  and  C_2
    2  A    between atoms: C_2  and  C_3
    3  A    between atoms: N_6  and  C_11
                            x       y       z     vdW  Elec       q    Type
                         _______ _______ _______ _____ _____    ______ ____

>  <TORSDO>
F 3

$$$$
=
 OpenBabel10262420553D

 28 32  0  0  1  0  0  0  0  0999 V2000
  186.9200  177.8800  142.7320 C   0  0  0  0  0  0  0  0  0  0  0  0
  187.9580  177.3250  137.9810 C   0  0  0  0  0  3  0  0  0  0  0  0
  191.6810  176.9650  142.7030 C   0  0  0  0  0  2  0  0  0  0  0  0
  190.0430  175.9310  138.4900 C   0  0  1  0  0  3  0  0  0  0  0  0
  189.4260  177.9980  139.8870 C   0  0  1  0  0  3  0  0  0  0  0  0
  188.2560  175.1800  136.8430 C   0  0  2  0  0  3  0  0  0  0  0  0
  188.8940  176.8270  139.0530 C   0  0  1  0  0  3  0  0  0  0  0  0
  191.7910  177.1390  139.8380 C   0  0  0  0  0  2  0  0  0  0  0  0
  189.7530  175.2920  137.1200 C   0  0  0  0  0  2  0  0  0  0  0  0
  189.2790  177.3370  142.7280 C   0  0  0  0  0  0  0  0  0  0  0  0
  188.3510  178.6280  140.7820 C   0  0  0  0  0  2  0  0  0  0  0  0
  191.3800  176.6730  138.4370 C   0  0  0  0  0  2  0  0  0  0  0  0
  187.9400  176.7530  144.6050 C   0  0  0  0  0  3  0  0  0  0  0  0
  190.5820  177.3120  142.0350 C   0  0  0  0  0  0  0  0  0  0  0  0
  189.1390  176.7830  143.9650 N   0  0  0  0  0  0  0  0  0  0  0  0
  188.0500  174.6670  135.5640 O   0  0  0  0  0  1  0  0  0  0  0  0
  187.6420  176.5420  136.9450 C   0  0  0  0  0  3  0  0  0  0  0  0
  190.6370  177.5990  140.6230 N   0  0  0  0  0  0  0  0  0  0  0  0
  186.8100  177.2980  143.9980 C   0  0  0  0  0  3  0  0  0  0  0  0
  188.1670  177.8970  142.0810 C   0  0  0  0  0  0  0  0  0  0  0  0
  185.6940  178.4420  142.0880 C   0  0  0  0  0  2  0  0  0  0  0  0
  184.4990  178.2770  143.0100 C   0  0  1  0  0  3  0  0  0  0  0  0
  184.2930  179.5420  143.8120 C   0  0  0  0  0  2  0  0  0  0  0  0
  183.4190  179.2620  142.6030 C   0  0  2  0  0  3  0  0  0  0  0  0
  182.1160  178.7630  143.0230 N   0  0  0  0  0  0  0  0  0  0  0  0
  179.8800  178.2830  142.4190 N   0  0  0  0  0  2  0  0  0  0  0  0
  181.8440  178.6280  144.3440 O   0  0  0  0  0  1  0  0  0  0  0  0
  181.0710  178.6280  142.0590 C   0  0  0  0  0  3  0  0  0  0  0  0
  1 19  1  0  0  0  0
  4  9  1  6  0  0  0
  4  7  1  0  0  0  0
  5 18  1  0  0  0  0
  5 11  1  1  0  0  0
  6 16  1  6  0  0  0
  6 17  1  0  0  0  0
  6  9  1  0  0  0  0
  7  2  1  6  0  0  0
  7  5  1  0  0  0  0
  8 18  1  0  0  0  0
 10 15  2  0  0  0  0
 11 20  1  0  0  0  0
 12  4  1  0  0  0  0
 12  8  1  0  0  0  0
 14  3  2  0  0  0  0
 14 10  1  0  0  0  0
 15 13  1  0  0  0  0
 17  2  2  0  0  0  0
 18 14  1  0  0  0  0
 19 13  2  0  0  0  0
 20 10  1  0  0  0  0
 20  1  2  0  0  0  0
 21  1  1  0  0  0  0
 22 21  1  6  0  0  0
 22 23  1  0  0  0  0
 24 22  1  0  0  0  0
 24 25  1  1  0  0  0
 24 23  1  0  0  0  0
 25 27  1  0  0  0  0
 28 26  2  0  0  0  0
 28 25  1  0  0  0  0
M  END
>  <MODEL>
7

>  <REMARK>
 VINA RESULT:      -7.3      2.557      6.536
  Name = 
  3 active torsions:
  status: ('A' for Active; 'I' for Inactive)
    1  A    between atoms: C_1  and  C_2
    2  A    between atoms: C_2  and  C_3
    3  A    between atoms: N_6  and  C_11
                            x       y       z     vdW  Elec       q    Type
                         _______ _______ _______ _____ _____    ______ ____

>  <TORSDO>
F 3

$$$$
=
 OpenBabel10262420553D

 28 32  0  0  1  0  0  0  0  0999 V2000
  186.5940  178.2530  142.8830 C   0  0  0  0  0  0  0  0  0  0  0  0
  187.4900  177.8810  138.0850 C   0  0  0  0  0  3  0  0  0  0  0  0
  191.2050  176.7690  142.6950 C   0  0  0  0  0  2  0  0  0  0  0  0
  189.3950  176.2130  138.4620 C   0  0  1  0  0  3  0  0  0  0  0  0
  189.0550  178.2460  139.9970 C   0  0  1  0  0  3  0  0  0  0  0  0
  187.5060  175.7920  136.8110 C   0  0  2  0  0  3  0  0  0  0  0  0
  188.3720  177.2040  139.1040 C   0  0  1  0  0  3  0  0  0  0  0  0
  191.2960  177.1110  139.8440 C   0  0  0  0  0  2  0  0  0  0  0  0
  189.0100  175.7030  137.0620 C   0  0  0  0  0  2  0  0  0  0  0  0
  188.8690  177.4280  142.7940 C   0  0  0  0  0  0  0  0  0  0  0  0
  188.0780  178.9440  140.9520 C   0  0  0  0  0  2  0  0  0  0  0  0
  190.8120  176.7900  138.4260 C   0  0  0  0  0  2  0  0  0  0  0  0
  187.4940  176.8920  144.6600 C   0  0  0  0  0  3  0  0  0  0  0  0
  190.1490  177.2890  142.0730 C   0  0  0  0  0  0  0  0  0  0  0  0
  188.6790  176.8180  143.9970 N   0  0  0  0  0  0  0  0  0  0  0  0
  187.2210  175.3900  135.5070 O   0  0  0  0  0  1  0  0  0  0  0  0
  187.0650  177.2090  137.0100 C   0  0  0  0  0  3  0  0  0  0  0  0
  190.2190  177.6570  140.6800 N   0  0  0  0  0  0  0  0  0  0  0  0
  186.4310  177.6080  144.1120 C   0  0  0  0  0  3  0  0  0  0  0  0
  187.8240  178.1600  142.2070 C   0  0  0  0  0  0  0  0  0  0  0  0
  185.4370  178.9990  142.3020 C   0  0  0  0  0  2  0  0  0  0  0  0
  184.3670  178.0250  141.8420 C   0  0  1  0  0  3  0  0  0  0  0  0
  182.9980  178.6280  142.0620 C   0  0  0  0  0  2  0  0  0  0  0  0
  183.6120  178.6330  140.6730 C   0  0  2  0  0  3  0  0  0  0  0  0
  183.0340  177.5740  139.8580 N   0  0  0  0  0  0  0  0  0  0  0  0
  183.1110  176.3540  137.8330 N   0  0  0  0  0  2  0  0  0  0  0  0
  181.8120  177.0780  140.1710 O   0  0  0  0  0  1  0  0  0  0  0  0
  183.6560  177.2190  138.6220 C   0  0  0  0  0  3  0  0  0  0  0  0
  1 19  1  0  0  0  0
  4  9  1  6  0  0  0
  4  7  1  0  0  0  0
  5 18  1  0  0  0  0
  5 11  1  1  0  0  0
  6 16  1  6  0  0  0
  6 17  1  0  0  0  0
  6  9  1  0  0  0  0
  7  2  1  6  0  0  0
  7  5  1  0  0  0  0
  8 18  1  0  0  0  0
 10 15  2  0  0  0  0
 11 20  1  0  0  0  0
 12  4  1  0  0  0  0
 12  8  1  0  0  0  0
 14  3  2  0  0  0  0
 14 10  1  0  0  0  0
 15 13  1  0  0  0  0
 17  2  2  0  0  0  0
 18 14  1  0  0  0  0
 19 13  2  0  0  0  0
 20 10  1  0  0  0  0
 20  1  2  0  0  0  0
 21  1  1  0  0  0  0
 22 23  1  0  0  0  0
 22 21  1  1  0  0  0
 24 25  1  6  0  0  0
 24 22  1  0  0  0  0
 24 23  1  0  0  0  0
 25 27  1  0  0  0  0
 26 28  2  0  0  0  0
 28 25  1  0  0  0  0
M  END
>  <MODEL>
8

>  <REMARK>
 VINA RESULT:      -7.3      2.307      6.048
  Name = 
  3 active torsions:
  status: ('A' for Active; 'I' for Inactive)
    1  A    between atoms: C_1  and  C_2
    2  A    between atoms: C_2  and  C_3
    3  A    between atoms: N_6  and  C_11
                            x       y       z     vdW  Elec       q    Type
                         _______ _______ _______ _____ _____    ______ ____

>  <TORSDO>
F 3

$$$$
=
 OpenBabel10262420553D

 28 32  0  0  1  0  0  0  0  0999 V2000
  187.8610  177.5480  142.3240 C   0  0  0  0  0  0  0  0  0  0  0  0
  187.3150  176.4460  137.5860 C   0  0  0  0  0  3  0  0  0  0  0  0
  192.4150  177.2380  140.6920 C   0  0  0  0  0  2  0  0  0  0  0  0
  189.6510  175.4100  137.4470 C   0  0  1  0  0  3  0  0  0  0  0  0
  189.2050  177.5640  138.7770 C   0  0  1  0  0  3  0  0  0  0  0  0
  187.5670  174.2120  136.6190 C   0  0  2  0  0  3  0  0  0  0  0  0
  188.6260  176.2280  138.2970 C   0  0  1  0  0  3  0  0  0  0  0  0
  191.5230  177.0090  137.9700 C   0  0  0  0  0  2  0  0  0  0  0  0
  189.0290  174.5490  136.3350 C   0  0  0  0  0  2  0  0  0  0  0  0
  190.1360  177.3080  141.5320 C   0  0  0  0  0  0  0  0  0  0  0  0
  188.4040  178.1780  139.9320 C   0  0  0  0  0  2  0  0  0  0  0  0
  190.7480  176.2980  136.8550 C   0  0  0  0  0  2  0  0  0  0  0  0
  189.6250  176.8390  143.8080 C   0  0  0  0  0  3  0  0  0  0  0  0
  191.1140  177.3460  140.4280 C   0  0  0  0  0  0  0  0  0  0  0  0
  190.5160  176.9260  142.7840 N   0  0  0  0  0  0  0  0  0  0  0  0
  187.0300  173.4980  135.5490 O   0  0  0  0  0  1  0  0  0  0  0  0
  186.8040  175.4880  136.8060 C   0  0  0  0  0  3  0  0  0  0  0  0
  190.6410  177.4300  139.0680 N   0  0  0  0  0  0  0  0  0  0  0  0
  188.2820  177.1450  143.5940 C   0  0  0  0  0  3  0  0  0  0  0  0
  188.7940  177.6260  141.2740 C   0  0  0  0  0  0  0  0  0  0  0  0
  186.4140  177.8530  142.1080 C   0  0  0  0  0  2  0  0  0  0  0  0
  185.9260  178.8350  143.1590 C   0  0  1  0  0  3  0  0  0  0  0  0
  184.5100  179.2600  142.8440 C   0  0  0  0  0  2  0  0  0  0  0  0
  184.7650  178.2150  143.9150 C   0  0  2  0  0  3  0  0  0  0  0  0
  184.6680  178.8110  145.2400 N   0  0  0  0  0  0  0  0  0  0  0  0
  185.7190  179.2230  147.3190 N   0  0  0  0  0  2  0  0  0  0  0  0
  183.4590  179.1930  145.7170 O   0  0  0  0  0  1  0  0  0  0  0  0
  185.8050  178.7910  146.1050 C   0  0  0  0  0  3  0  0  0  0  0  0
  1 19  1  0  0  0  0
  4  9  1  6  0  0  0
  4  7  1  0  0  0  0
  5 18  1  0  0  0  0
  5 11  1  1  0  0  0
  6 16  1  6  0  0  0
  6 17  1  0  0  0  0
  7  2  1  6  0  0  0
  7  5  1  0  0  0  0
  8 18  1  0  0  0  0
  9  6  1  0  0  0  0
 10 15  2  0  0  0  0
 11 20  1  0  0  0  0
 12  4  1  0  0  0  0
 12  8  1  0  0  0  0
 14  3  2  0  0  0  0
 14 10  1  0  0  0  0
 15 13  1  0  0  0  0
 17  2  2  0  0  0  0
 18 14  1  0  0  0  0
 19 13  2  0  0  0  0
 20 10  1  0  0  0  0
 20  1  2  0  0  0  0
 21  1  1  0  0  0  0
 22 21  1  6  0  0  0
 22 24  1  0  0  0  0
 23 22  1  0  0  0  0
 23 24  1  0  0  0  0
 24 25  1  1  0  0  0
 25 27  1  0  0  0  0
 25 28  1  0  0  0  0
 28 26  2  0  0  0  0
M  END
>  <MODEL>
9

>  <REMARK>
 VINA RESULT:      -7.1      2.573      7.002
  Name = 
  3 active torsions:
  status: ('A' for Active; 'I' for Inactive)
    1  A    between atoms: C_1  and  C_2
    2  A    between atoms: C_2  and  C_3
    3  A    between atoms: N_6  and  C_11
                            x       y       z     vdW  Elec       q    Type
                         _______ _______ _______ _____ _____    ______ ____

>  <TORSDO>
F 3

$$$$
