=
 OpenBabel10262419453D

 25 27  0  0  1  0  0  0  0  0999 V2000
  187.2890  177.9200  146.1930 C   0  0  0  0  0  0  0  0  0  0  0  0
  188.5490  177.3990  145.8370 C   0  0  0  0  0  0  0  0  0  0  0  0
  188.0150  178.0950  148.4490 C   0  0  0  0  0  3  0  0  0  0  0  0
  189.2330  177.5940  148.1210 N   0  0  0  0  0  0  0  0  0  0  0  0
  190.7920  176.6950  146.4830 N   0  0  0  0  0  0  0  0  0  0  0  0
  191.8400  176.5100  147.4730 C   0  0  0  0  0  1  0  0  0  0  0  0
  188.8510  176.9910  144.4930 N   0  0  0  0  0  0  0  0  0  0  0  0
  187.0620  178.2510  147.4940 N   0  0  0  0  0  0  0  0  0  0  0  0
  191.0270  176.3180  145.1510 N   0  0  0  0  0  2  0  0  0  0  0  0
  190.0060  176.4930  144.1620 C   0  0  0  0  0  0  0  0  0  0  0  0
  189.5170  177.2440  146.8390 C   0  0  0  0  0  0  0  0  0  0  0  0
  186.2040  178.1250  145.1960 C   0  0  1  0  0  3  0  0  0  0  0  0
  184.1990  178.5610  143.3070 C   0  0  0  0  0  3  0  0  0  0  0  0
  184.9250  178.5930  145.5720 C   0  0  0  0  0  0  0  0  0  0  0  0
  183.9680  178.7930  144.6260 N   0  0  0  0  0  0  0  0  0  0  0  0
  185.4460  178.1040  142.8860 C   0  0  0  0  0  3  0  0  0  0  0  0
  184.6480  178.8140  146.7800 O   0  0  0  0  0  0  0  0  0  0  0  0
  186.4460  177.8910  143.8340 C   0  0  0  0  0  3  0  0  0  0  0  0
  190.2520  176.0620  142.7570 C   0  0  0  0  0  2  0  0  0  0  0  0
  190.4220  177.2560  141.8690 C   0  0  0  0  0  0  0  0  0  0  0  0
  191.5380  177.7240  141.7080 O   0  0  0  0  0  0  0  0  0  0  0  0
  188.8410  179.0020  141.8140 F   0  0  0  0  0  0  0  0  0  0  0  0
  189.5900  178.1940  139.8500 F   0  0  0  0  0  0  0  0  0  0  0  0
  188.2080  176.9520  141.1210 F   0  0  0  0  0  0  0  0  0  0  0  0
  189.2510  177.8610  141.1490 C   0  0  0  0  0  0  0  0  0  0  0  0
  1  8  1  0  0  0  0
  2  1  2  0  0  0  0
  2 11  1  0  0  0  0
  4  3  1  0  0  0  0
  5 11  1  0  0  0  0
  5  6  1  0  0  0  0
  7  2  1  0  0  0  0
  8  3  2  0  0  0  0
  9  5  1  0  0  0  0
 10  7  2  0  0  0  0
 10  9  1  0  0  0  0
 11  4  2  0  0  0  0
 12 14  1  0  0  0  0
 12  1  1  6  0  0  0
 13 15  2  0  0  0  0
 14 17  2  0  0  0  0
 15 14  1  0  0  0  0
 16 13  1  0  0  0  0
 16 18  2  0  0  0  0
 18 12  1  0  0  0  0
 19 10  1  0  0  0  0
 20 19  1  0  0  0  0
 21 20  2  0  0  0  0
 23 25  1  0  0  0  0
 24 25  1  0  0  0  0
 25 22  1  0  0  0  0
 25 20  1  0  0  0  0
M  END
>  <MODEL>
1

>  <REMARK>
 VINA RESULT:      -9.1      0.000      0.000
  Name = 
  4 active torsions:
  status: ('A' for Active; 'I' for Inactive)
    1  A    between atoms: C_1  and  C_5
    2  A    between atoms: C_6  and  C_15
    3  A    between atoms: C_6  and  C_23
    4  A    between atoms: C_15  and  C_21
                            x       y       z     vdW  Elec       q    Type
                         _______ _______ _______ _____ _____    ______ ____

>  <TORSDO>
F 4

$$$$
=
 OpenBabel10262419453D

 25 27  0  0  1  0  0  0  0  0999 V2000
  185.9800  178.5170  142.4290 C   0  0  0  0  0  0  0  0  0  0  0  0
  187.2010  178.2900  141.7620 C   0  0  0  0  0  0  0  0  0  0  0  0
  184.9310  178.9230  140.3350 C   0  0  0  0  0  3  0  0  0  0  0  0
  186.1000  178.7070  139.6800 N   0  0  0  0  0  0  0  0  0  0  0  0
  188.4770  178.1850  139.6870 N   0  0  0  0  0  0  0  0  0  0  0  0
  188.5750  178.2760  138.2400 C   0  0  0  0  0  1  0  0  0  0  0  0
  188.4130  177.9940  142.4750 N   0  0  0  0  0  0  0  0  0  0  0  0
  184.8800  178.8290  141.6890 N   0  0  0  0  0  0  0  0  0  0  0  0
  189.6250  177.8950  140.4400 N   0  0  0  0  0  2  0  0  0  0  0  0
  189.5460  177.8010  141.8680 C   0  0  0  0  0  0  0  0  0  0  0  0
  187.2310  178.3950  140.3650 C   0  0  0  0  0  0  0  0  0  0  0  0
  185.8530  178.4210  143.9080 C   0  0  1  0  0  3  0  0  0  0  0  0
  185.5840  178.1890  146.6740 C   0  0  0  0  0  3  0  0  0  0  0  0
  184.9440  179.2250  144.6310 C   0  0  0  0  0  0  0  0  0  0  0  0
  184.8380  179.0880  145.9800 N   0  0  0  0  0  0  0  0  0  0  0  0
  186.4920  177.3710  146.0050 C   0  0  0  0  0  3  0  0  0  0  0  0
  184.2350  180.0850  144.0450 O   0  0  0  0  0  0  0  0  0  0  0  0
  186.6200  177.4890  144.6220 C   0  0  0  0  0  3  0  0  0  0  0  0
  190.7760  177.5240  142.6620 C   0  0  0  0  0  2  0  0  0  0  0  0
  190.7480  178.2910  143.9470 C   0  0  0  0  0  0  0  0  0  0  0  0
  190.9630  179.4930  143.9280 O   0  0  0  0  0  0  0  0  0  0  0  0
  189.7650  176.4260  144.9990 F   0  0  0  0  0  0  0  0  0  0  0  0
  191.5780  177.3480  145.9650 F   0  0  0  0  0  0  0  0  0  0  0  0
  189.6080  178.4370  146.0040 F   0  0  0  0  0  0  0  0  0  0  0  0
  190.4250  177.6150  145.2490 C   0  0  0  0  0  0  0  0  0  0  0  0
  2  1  1  0  0  0  0
  2  7  1  0  0  0  0
  3  8  1  0  0  0  0
  4  3  2  0  0  0  0
  4 11  1  0  0  0  0
  5 11  1  0  0  0  0
  5  9  1  0  0  0  0
  6  5  1  0  0  0  0
  8  1  2  0  0  0  0
  9 10  1  0  0  0  0
 10  7  2  0  0  0  0
 10 19  1  0  0  0  0
 11  2  2  0  0  0  0
 12  1  1  6  0  0  0
 12 18  1  0  0  0  0
 12 14  1  0  0  0  0
 14 15  1  0  0  0  0
 15 13  2  0  0  0  0
 16 13  1  0  0  0  0
 17 14  2  0  0  0  0
 18 16  2  0  0  0  0
 19 20  1  0  0  0  0
 20 25  1  0  0  0  0
 21 20  2  0  0  0  0
 22 25  1  0  0  0  0
 25 23  1  0  0  0  0
 25 24  1  0  0  0  0
M  END
>  <MODEL>
2

>  <REMARK>
 VINA RESULT:      -9.0      2.899      5.043
  Name = 
  4 active torsions:
  status: ('A' for Active; 'I' for Inactive)
    1  A    between atoms: C_1  and  C_5
    2  A    between atoms: C_6  and  C_15
    3  A    between atoms: C_6  and  C_23
    4  A    between atoms: C_15  and  C_21
                            x       y       z     vdW  Elec       q    Type
                         _______ _______ _______ _____ _____    ______ ____

>  <TORSDO>
F 4

$$$$
=
 OpenBabel10262419453D

 25 27  0  0  1  0  0  0  0  0999 V2000
  188.9650  177.6320  142.1400 C   0  0  0  0  0  0  0  0  0  0  0  0
  187.6510  177.8780  142.5870 C   0  0  0  0  0  0  0  0  0  0  0  0
  188.3440  178.3560  139.9640 C   0  0  0  0  0  3  0  0  0  0  0  0
  187.0750  178.5970  140.3800 N   0  0  0  0  0  0  0  0  0  0  0  0
  185.3700  178.5990  142.1160 N   0  0  0  0  0  0  0  0  0  0  0  0
  184.3500  179.1080  141.2150 C   0  0  0  0  0  1  0  0  0  0  0  0
  187.2430  177.6060  143.9380 N   0  0  0  0  0  0  0  0  0  0  0  0
  189.2690  177.8790  140.8360 N   0  0  0  0  0  0  0  0  0  0  0  0
  185.0350  178.3170  143.4490 N   0  0  0  0  0  2  0  0  0  0  0  0
  186.0280  177.8140  144.3510 C   0  0  0  0  0  0  0  0  0  0  0  0
  186.7120  178.3670  141.6690 C   0  0  0  0  0  0  0  0  0  0  0  0
  190.0280  177.1190  143.0460 C   0  0  1  0  0  3  0  0  0  0  0  0
  191.9780  176.1310  144.7770 C   0  0  0  0  0  3  0  0  0  0  0  0
  190.7030  177.9620  143.9560 C   0  0  0  0  0  0  0  0  0  0  0  0
  191.6510  177.4490  144.7860 N   0  0  0  0  0  0  0  0  0  0  0  0
  191.3370  175.2580  143.9010 C   0  0  0  0  0  3  0  0  0  0  0  0
  190.4520  179.1960  144.0010 O   0  0  0  0  0  0  0  0  0  0  0  0
  190.3610  175.7560  143.0400 C   0  0  0  0  0  3  0  0  0  0  0  0
  185.6570  177.4880  145.7570 C   0  0  0  0  0  2  0  0  0  0  0  0
  186.3190  178.4410  146.7040 C   0  0  0  0  0  0  0  0  0  0  0  0
  185.7800  179.5090  146.9460 O   0  0  0  0  0  0  0  0  0  0  0  0
  187.5930  176.7550  147.7440 F   0  0  0  0  0  0  0  0  0  0  0  0
  188.6870  178.3130  146.5440 F   0  0  0  0  0  0  0  0  0  0  0  0
  187.7590  178.8650  148.5190 F   0  0  0  0  0  0  0  0  0  0  0  0
  187.6110  178.0890  147.3840 C   0  0  0  0  0  0  0  0  0  0  0  0
  1  2  1  0  0  0  0
  2  7  1  0  0  0  0
  3  4  2  0  0  0  0
  3  8  1  0  0  0  0
  4 11  1  0  0  0  0
  5  9  1  0  0  0  0
  6  5  1  0  0  0  0
  7 10  2  0  0  0  0
  8  1  2  0  0  0  0
  9 10  1  0  0  0  0
 10 19  1  0  0  0  0
 11  5  1  0  0  0  0
 11  2  2  0  0  0  0
 12  1  1  1  0  0  0
 12 14  1  0  0  0  0
 13 15  2  0  0  0  0
 14 17  2  0  0  0  0
 14 15  1  0  0  0  0
 16 13  1  0  0  0  0
 18 12  1  0  0  0  0
 18 16  2  0  0  0  0
 19 20  1  0  0  0  0
 20 21  2  0  0  0  0
 20 25  1  0  0  0  0
 23 25  1  0  0  0  0
 25 22  1  0  0  0  0
 25 24  1  0  0  0  0
M  END
>  <MODEL>
3

>  <REMARK>
 VINA RESULT:      -8.9      2.861      6.599
  Name = 
  4 active torsions:
  status: ('A' for Active; 'I' for Inactive)
    1  A    between atoms: C_1  and  C_5
    2  A    between atoms: C_6  and  C_15
    3  A    between atoms: C_6  and  C_23
    4  A    between atoms: C_15  and  C_21
                            x       y       z     vdW  Elec       q    Type
                         _______ _______ _______ _____ _____    ______ ____

>  <TORSDO>
F 4

$$$$
=
 OpenBabel10262419453D

 25 27  0  0  1  0  0  0  0  0999 V2000
  188.4380  178.1260  141.7150 C   0  0  0  0  0  0  0  0  0  0  0  0
  187.0680  178.3530  141.9520 C   0  0  0  0  0  0  0  0  0  0  0  0
  188.0660  178.4070  139.3840 C   0  0  0  0  0  3  0  0  0  0  0  0
  186.7440  178.6270  139.5980 N   0  0  0  0  0  0  0  0  0  0  0  0
  184.8330  178.8130  141.0930 N   0  0  0  0  0  0  0  0  0  0  0  0
  183.9120  179.0810  140.0000 C   0  0  0  0  0  1  0  0  0  0  0  0
  186.5050  178.2950  143.2730 N   0  0  0  0  0  0  0  0  0  0  0  0
  188.8940  178.1600  140.4320 N   0  0  0  0  0  0  0  0  0  0  0  0
  184.3450  178.7480  142.4070 N   0  0  0  0  0  2  0  0  0  0  0  0
  185.2380  178.4860  143.4960 C   0  0  0  0  0  0  0  0  0  0  0  0
  186.2310  178.6030  140.8560 C   0  0  0  0  0  0  0  0  0  0  0  0
  189.4010  177.8590  142.8170 C   0  0  1  0  0  3  0  0  0  0  0  0
  191.2520  177.3570  144.8420 C   0  0  0  0  0  3  0  0  0  0  0  0
  189.5230  176.5800  143.4060 C   0  0  0  0  0  0  0  0  0  0  0  0
  190.4350  176.3690  144.3930 N   0  0  0  0  0  0  0  0  0  0  0  0
  191.1730  178.6340  144.2900 C   0  0  0  0  0  3  0  0  0  0  0  0
  188.7840  175.6280  143.0400 O   0  0  0  0  0  0  0  0  0  0  0  0
  190.2480  178.8780  143.2750 C   0  0  0  0  0  3  0  0  0  0  0  0
  184.7070  178.3880  144.8840 C   0  0  0  0  0  2  0  0  0  0  0  0
  185.7220  178.8850  145.8660 C   0  0  0  0  0  0  0  0  0  0  0  0
  185.6790  180.0510  146.2270 O   0  0  0  0  0  0  0  0  0  0  0  0
  187.9940  178.2600  145.8730 F   0  0  0  0  0  0  0  0  0  0  0  0
  186.8540  178.1170  147.8100 F   0  0  0  0  0  0  0  0  0  0  0  0
  186.4330  176.6570  146.1490 F   0  0  0  0  0  0  0  0  0  0  0  0
  186.7650  177.9680  146.4370 C   0  0  0  0  0  0  0  0  0  0  0  0
  1  2  1  0  0  0  0
  2  7  1  0  0  0  0
  3  4  2  0  0  0  0
  3  8  1  0  0  0  0
  4 11  1  0  0  0  0
  5  9  1  0  0  0  0
  6  5  1  0  0  0  0
  7 10  2  0  0  0  0
  8  1  2  0  0  0  0
  9 10  1  0  0  0  0
 10 19  1  0  0  0  0
 11  5  1  0  0  0  0
 11  2  2  0  0  0  0
 12  1  1  6  0  0  0
 12 18  1  0  0  0  0
 12 14  1  0  0  0  0
 14 15  1  0  0  0  0
 15 13  2  0  0  0  0
 16 13  1  0  0  0  0
 17 14  2  0  0  0  0
 18 16  2  0  0  0  0
 19 20  1  0  0  0  0
 20 21  2  0  0  0  0
 20 25  1  0  0  0  0
 22 25  1  0  0  0  0
 24 25  1  0  0  0  0
 25 23  1  0  0  0  0
M  END
>  <MODEL>
4

>  <REMARK>
 VINA RESULT:      -8.7      2.998      6.704
  Name = 
  4 active torsions:
  status: ('A' for Active; 'I' for Inactive)
    1  A    between atoms: C_1  and  C_5
    2  A    between atoms: C_6  and  C_15
    3  A    between atoms: C_6  and  C_23
    4  A    between atoms: C_15  and  C_21
                            x       y       z     vdW  Elec       q    Type
                         _______ _______ _______ _____ _____    ______ ____

>  <TORSDO>
F 4

$$$$
=
 OpenBabel10262419453D

 25 27  0  0  1  0  0  0  0  0999 V2000
  189.5020  177.3010  141.3090 C   0  0  0  0  0  0  0  0  0  0  0  0
  188.4240  177.7420  140.5150 C   0  0  0  0  0  0  0  0  0  0  0  0
  190.5750  176.4660  139.3610 C   0  0  0  0  0  3  0  0  0  0  0  0
  189.5440  176.8850  138.5840 N   0  0  0  0  0  0  0  0  0  0  0  0
  187.3690  177.9450  138.3270 N   0  0  0  0  0  0  0  0  0  0  0  0
  187.3590  177.7430  136.8880 C   0  0  0  0  0  1  0  0  0  0  0  0
  187.2690  178.3790  141.0870 N   0  0  0  0  0  0  0  0  0  0  0  0
  190.5460  176.6730  140.7020 N   0  0  0  0  0  0  0  0  0  0  0  0
  186.2710  178.5640  138.9440 N   0  0  0  0  0  2  0  0  0  0  0  0
  186.2640  178.7720  140.3620 C   0  0  0  0  0  0  0  0  0  0  0  0
  188.4740  177.5160  139.1330 C   0  0  0  0  0  0  0  0  0  0  0  0
  189.5380  177.5040  142.7830 C   0  0  1  0  0  3  0  0  0  0  0  0
  189.6620  177.8590  145.5460 C   0  0  0  0  0  3  0  0  0  0  0  0
  188.7980  176.6870  143.6660 C   0  0  0  0  0  0  0  0  0  0  0  0
  188.8790  176.8870  145.0080 N   0  0  0  0  0  0  0  0  0  0  0  0
  190.4140  178.6880  144.7160 C   0  0  0  0  0  3  0  0  0  0  0  0
  188.0440  175.7780  143.2260 O   0  0  0  0  0  0  0  0  0  0  0  0
  190.3510  178.5040  143.3360 C   0  0  0  0  0  3  0  0  0  0  0  0
  185.0810  179.4020  141.0130 C   0  0  0  0  0  2  0  0  0  0  0  0
  184.4290  178.4350  141.9530 C   0  0  0  0  0  0  0  0  0  0  0  0
  183.7870  177.5030  141.4950 O   0  0  0  0  0  0  0  0  0  0  0  0
  184.9440  179.8710  143.7480 F   0  0  0  0  0  0  0  0  0  0  0  0
  183.4000  178.2690  144.0890 F   0  0  0  0  0  0  0  0  0  0  0  0
  185.5700  177.7100  143.8830 F   0  0  0  0  0  0  0  0  0  0  0  0
  184.5830  178.5720  143.4400 C   0  0  0  0  0  0  0  0  0  0  0  0
  2  7  1  0  0  0  0
  2  1  2  0  0  0  0
  3  8  2  0  0  0  0
  4 11  2  0  0  0  0
  4  3  1  0  0  0  0
  5  9  1  0  0  0  0
  5 11  1  0  0  0  0
  6  5  1  0  0  0  0
  8  1  1  0  0  0  0
  9 10  1  0  0  0  0
 10 19  1  0  0  0  0
 10  7  2  0  0  0  0
 11  2  1  0  0  0  0
 12  1  1  1  0  0  0
 12 18  1  0  0  0  0
 12 14  1  0  0  0  0
 14 15  1  0  0  0  0
 15 13  2  0  0  0  0
 16 13  1  0  0  0  0
 17 14  2  0  0  0  0
 18 16  2  0  0  0  0
 19 20  1  0  0  0  0
 20 25  1  0  0  0  0
 21 20  2  0  0  0  0
 25 22  1  0  0  0  0
 25 24  1  0  0  0  0
 25 23  1  0  0  0  0
M  END
>  <MODEL>
5

>  <REMARK>
 VINA RESULT:      -8.7      3.626      6.720
  Name = 
  4 active torsions:
  status: ('A' for Active; 'I' for Inactive)
    1  A    between atoms: C_1  and  C_5
    2  A    between atoms: C_6  and  C_15
    3  A    between atoms: C_6  and  C_23
    4  A    between atoms: C_15  and  C_21
                            x       y       z     vdW  Elec       q    Type
                         _______ _______ _______ _____ _____    ______ ____

>  <TORSDO>
F 4

$$$$
=
 OpenBabel10262419453D

 25 27  0  0  1  0  0  0  0  0999 V2000
  189.0580  177.0530  143.7620 C   0  0  0  0  0  0  0  0  0  0  0  0
  188.4980  177.5170  142.5550 C   0  0  0  0  0  0  0  0  0  0  0  0
  190.7800  175.9740  142.5310 C   0  0  0  0  0  3  0  0  0  0  0  0
  190.2520  176.4140  141.3610 N   0  0  0  0  0  0  0  0  0  0  0  0
  188.5470  177.6290  140.1210 N   0  0  0  0  0  0  0  0  0  0  0  0
  189.1510  177.3120  138.8370 C   0  0  0  0  0  1  0  0  0  0  0  0
  187.2880  178.2930  142.5270 N   0  0  0  0  0  0  0  0  0  0  0  0
  190.1850  176.2910  143.7100 N   0  0  0  0  0  0  0  0  0  0  0  0
  187.3660  178.3870  140.1590 N   0  0  0  0  0  2  0  0  0  0  0  0
  186.7570  178.7090  141.4150 C   0  0  0  0  0  0  0  0  0  0  0  0
  189.1260  177.1750  141.3510 C   0  0  0  0  0  0  0  0  0  0  0  0
  188.4620  177.3710  145.0880 C   0  0  1  0  0  3  0  0  0  0  0  0
  187.3350  178.0260  147.5540 C   0  0  0  0  0  3  0  0  0  0  0  0
  189.2630  177.5890  146.2320 C   0  0  0  0  0  0  0  0  0  0  0  0
  188.6820  177.9050  147.4200 N   0  0  0  0  0  0  0  0  0  0  0  0
  186.5040  177.8250  146.4540 C   0  0  0  0  0  3  0  0  0  0  0  0
  190.5170  177.4790  146.1730 O   0  0  0  0  0  0  0  0  0  0  0  0
  187.0730  177.5010  145.2230 C   0  0  0  0  0  3  0  0  0  0  0  0
  185.4870  179.4870  141.4460 C   0  0  0  0  0  2  0  0  0  0  0  0
  184.4150  178.7050  142.1390 C   0  0  0  0  0  0  0  0  0  0  0  0
  183.9630  177.7070  141.5990 O   0  0  0  0  0  0  0  0  0  0  0  0
  184.7040  180.1260  143.9960 F   0  0  0  0  0  0  0  0  0  0  0  0
  182.6040  179.5400  143.4330 F   0  0  0  0  0  0  0  0  0  0  0  0
  183.9860  178.0190  144.3520 F   0  0  0  0  0  0  0  0  0  0  0  0
  183.9160  179.1050  143.4980 C   0  0  0  0  0  0  0  0  0  0  0  0
  2  1  2  0  0  0  0
  3  8  2  0  0  0  0
  4  3  1  0  0  0  0
  5  9  1  0  0  0  0
  5 11  1  0  0  0  0
  6  5  1  0  0  0  0
  7  2  1  0  0  0  0
  8  1  1  0  0  0  0
  9 10  1  0  0  0  0
 10 19  1  0  0  0  0
 10  7  2  0  0  0  0
 11  4  2  0  0  0  0
 11  2  1  0  0  0  0
 12  1  1  6  0  0  0
 12 18  1  0  0  0  0
 12 14  1  0  0  0  0
 14 15  1  0  0  0  0
 15 13  2  0  0  0  0
 16 13  1  0  0  0  0
 17 14  2  0  0  0  0
 18 16  2  0  0  0  0
 19 20  1  0  0  0  0
 20 25  1  0  0  0  0
 21 20  2  0  0  0  0
 23 25  1  0  0  0  0
 25 22  1  0  0  0  0
 25 24  1  0  0  0  0
M  END
>  <MODEL>
6

>  <REMARK>
 VINA RESULT:      -8.7      3.067      5.649
  Name = 
  4 active torsions:
  status: ('A' for Active; 'I' for Inactive)
    1  A    between atoms: C_1  and  C_5
    2  A    between atoms: C_6  and  C_15
    3  A    between atoms: C_6  and  C_23
    4  A    between atoms: C_15  and  C_21
                            x       y       z     vdW  Elec       q    Type
                         _______ _______ _______ _____ _____    ______ ____

>  <TORSDO>
F 4

$$$$
=
 OpenBabel10262419453D

 25 27  0  0  1  0  0  0  0  0999 V2000
  185.5210  178.4010  144.3510 C   0  0  0  0  0  0  0  0  0  0  0  0
  185.9150  178.4430  142.9980 C   0  0  0  0  0  0  0  0  0  0  0  0
  183.2880  178.8880  143.7010 C   0  0  0  0  0  3  0  0  0  0  0  0
  183.6530  178.9320  142.3940 N   0  0  0  0  0  0  0  0  0  0  0  0
  185.3450  178.7790  140.6520 N   0  0  0  0  0  0  0  0  0  0  0  0
  184.3860  179.0550  139.5950 C   0  0  0  0  0  1  0  0  0  0  0  0
  187.2820  178.2520  142.5970 N   0  0  0  0  0  0  0  0  0  0  0  0
  184.2140  178.6280  144.6590 N   0  0  0  0  0  0  0  0  0  0  0  0
  186.6950  178.5800  140.3240 N   0  0  0  0  0  2  0  0  0  0  0  0
  187.6540  178.3070  141.3530 C   0  0  0  0  0  0  0  0  0  0  0  0
  184.9430  178.7160  142.0260 C   0  0  0  0  0  0  0  0  0  0  0  0
  186.4830  178.1120  145.4490 C   0  0  1  0  0  3  0  0  0  0  0  0
  188.2660  177.5130  147.5080 C   0  0  0  0  0  3  0  0  0  0  0  0
  186.2440  178.5290  146.7780 C   0  0  0  0  0  0  0  0  0  0  0  0
  187.1340  178.2220  147.7580 N   0  0  0  0  0  0  0  0  0  0  0  0
  188.5440  177.0760  146.2140 C   0  0  0  0  0  3  0  0  0  0  0  0
  185.2180  179.2000  147.0690 O   0  0  0  0  0  0  0  0  0  0  0  0
  187.6480  177.3760  145.1900 C   0  0  0  0  0  3  0  0  0  0  0  0
  189.0900  178.1280  141.0000 C   0  0  0  0  0  2  0  0  0  0  0  0
  189.7810  177.3000  142.0390 C   0  0  0  0  0  0  0  0  0  0  0  0
  189.5570  176.1010  142.0900 O   0  0  0  0  0  0  0  0  0  0  0  0
  191.9280  178.2310  142.3090 F   0  0  0  0  0  0  0  0  0  0  0  0
  190.2530  179.0630  143.5630 F   0  0  0  0  0  0  0  0  0  0  0  0
  191.0640  177.0080  143.9930 F   0  0  0  0  0  0  0  0  0  0  0  0
  190.7680  177.9130  142.9910 C   0  0  0  0  0  0  0  0  0  0  0  0
  1  8  1  0  0  0  0
  2  1  2  0  0  0  0
  3  8  2  0  0  0  0
  4  3  1  0  0  0  0
  5 11  1  0  0  0  0
  6  5  1  0  0  0  0
  7  2  1  0  0  0  0
  9  5  1  0  0  0  0
  9 10  1  0  0  0  0
 10  7  2  0  0  0  0
 11  4  2  0  0  0  0
 11  2  1  0  0  0  0
 12  1  1  1  0  0  0
 12 14  1  0  0  0  0
 13 15  2  0  0  0  0
 14 17  2  0  0  0  0
 14 15  1  0  0  0  0
 16 13  1  0  0  0  0
 18 12  1  0  0  0  0
 18 16  2  0  0  0  0
 19 10  1  0  0  0  0
 19 20  1  0  0  0  0
 20 21  2  0  0  0  0
 20 25  1  0  0  0  0
 22 25  1  0  0  0  0
 25 23  1  0  0  0  0
 25 24  1  0  0  0  0
M  END
>  <MODEL>
7

>  <REMARK>
 VINA RESULT:      -8.6      2.202      4.932
  Name = 
  4 active torsions:
  status: ('A' for Active; 'I' for Inactive)
    1  A    between atoms: C_1  and  C_5
    2  A    between atoms: C_6  and  C_15
    3  A    between atoms: C_6  and  C_23
    4  A    between atoms: C_15  and  C_21
                            x       y       z     vdW  Elec       q    Type
                         _______ _______ _______ _____ _____    ______ ____

>  <TORSDO>
F 4

$$$$
=
 OpenBabel10262419453D

 25 27  0  0  1  0  0  0  0  0999 V2000
  189.3640  177.8950  142.7090 C   0  0  0  0  0  0  0  0  0  0  0  0
  189.0440  177.6240  144.0540 C   0  0  0  0  0  0  0  0  0  0  0  0
  191.6710  177.6500  143.2250 C   0  0  0  0  0  3  0  0  0  0  0  0
  191.3770  177.3880  144.5240 N   0  0  0  0  0  0  0  0  0  0  0  0
  189.7660  177.1170  146.3270 N   0  0  0  0  0  0  0  0  0  0  0  0
  190.8020  176.8450  147.3100 C   0  0  0  0  0  1  0  0  0  0  0  0
  187.6880  177.6390  144.5310 N   0  0  0  0  0  0  0  0  0  0  0  0
  190.6740  177.9000  142.3370 N   0  0  0  0  0  0  0  0  0  0  0  0
  188.4220  177.1410  146.7300 N   0  0  0  0  0  2  0  0  0  0  0  0
  187.3880  177.4070  145.7750 C   0  0  0  0  0  0  0  0  0  0  0  0
  190.0880  177.3720  144.9540 C   0  0  0  0  0  0  0  0  0  0  0  0
  188.3210  178.1680  141.6840 C   0  0  1  0  0  3  0  0  0  0  0  0
  186.3360  178.6280  139.7790 C   0  0  0  0  0  3  0  0  0  0  0  0
  188.5550  177.9540  140.3070 C   0  0  0  0  0  0  0  0  0  0  0  0
  187.5660  178.1900  139.4040 N   0  0  0  0  0  0  0  0  0  0  0  0
  186.0550  178.8490  141.1260 C   0  0  0  0  0  3  0  0  0  0  0  0
  189.6790  177.5610  139.8970 O   0  0  0  0  0  0  0  0  0  0  0  0
  187.0500  178.6140  142.0740 C   0  0  0  0  0  3  0  0  0  0  0  0
  185.9660  177.4620  146.2170 C   0  0  0  0  0  2  0  0  0  0  0  0
  185.3850  178.8130  145.9310 C   0  0  0  0  0  0  0  0  0  0  0  0
  185.6830  179.7530  146.6500 O   0  0  0  0  0  0  0  0  0  0  0  0
  183.1870  179.2570  145.2100 F   0  0  0  0  0  0  0  0  0  0  0  0
  184.8850  180.1250  144.0140 F   0  0  0  0  0  0  0  0  0  0  0  0
  184.4830  177.9120  143.9500 F   0  0  0  0  0  0  0  0  0  0  0  0
  184.4740  179.0340  144.7580 C   0  0  0  0  0  0  0  0  0  0  0  0
  1  2  1  0  0  0  0
  2  7  1  0  0  0  0
  2 11  2  0  0  0  0
  3  4  2  0  0  0  0
  4 11  1  0  0  0  0
  5  9  1  0  0  0  0
  5  6  1  0  0  0  0
  7 10  2  0  0  0  0
  8  1  2  0  0  0  0
  8  3  1  0  0  0  0
 10 19  1  0  0  0  0
 10  9  1  0  0  0  0
 11  5  1  0  0  0  0
 12 18  1  0  0  0  0
 12  1  1  1  0  0  0
 13 16  1  0  0  0  0
 14 12  1  0  0  0  0
 15 13  2  0  0  0  0
 15 14  1  0  0  0  0
 16 18  2  0  0  0  0
 17 14  2  0  0  0  0
 20 19  1  0  0  0  0
 20 21  2  0  0  0  0
 23 25  1  0  0  0  0
 24 25  1  0  0  0  0
 25 22  1  0  0  0  0
 25 20  1  0  0  0  0
M  END
>  <MODEL>
8

>  <REMARK>
 VINA RESULT:      -8.6      2.660      5.023
  Name = 
  4 active torsions:
  status: ('A' for Active; 'I' for Inactive)
    1  A    between atoms: C_1  and  C_5
    2  A    between atoms: C_6  and  C_15
    3  A    between atoms: C_6  and  C_23
    4  A    between atoms: C_15  and  C_21
                            x       y       z     vdW  Elec       q    Type
                         _______ _______ _______ _____ _____    ______ ____

>  <TORSDO>
F 4

$$$$
=
 OpenBabel10262419453D

 25 27  0  0  1  0  0  0  0  0999 V2000
  185.5880  178.4850  144.9770 C   0  0  0  0  0  0  0  0  0  0  0  0
  186.8670  177.9010  145.0770 C   0  0  0  0  0  0  0  0  0  0  0  0
  185.6610  179.0030  147.2950 C   0  0  0  0  0  3  0  0  0  0  0  0
  186.8920  178.4440  147.4060 N   0  0  0  0  0  0  0  0  0  0  0  0
  188.7960  177.2810  146.4330 N   0  0  0  0  0  0  0  0  0  0  0  0
  189.5110  177.2420  147.6980 C   0  0  0  0  0  1  0  0  0  0  0  0
  187.5110  177.2830  143.9500 N   0  0  0  0  0  0  0  0  0  0  0  0
  185.0240  179.0190  146.0960 N   0  0  0  0  0  0  0  0  0  0  0  0
  189.3740  176.6980  145.2950 N   0  0  0  0  0  2  0  0  0  0  0  0
  188.6830  176.7270  144.0400 C   0  0  0  0  0  0  0  0  0  0  0  0
  187.5040  177.8930  146.3250 C   0  0  0  0  0  0  0  0  0  0  0  0
  184.8400  178.5440  143.6920 C   0  0  1  0  0  3  0  0  0  0  0  0
  183.4550  178.7120  141.2780 C   0  0  0  0  0  3  0  0  0  0  0  0
  183.4310  178.6350  143.6540 C   0  0  0  0  0  0  0  0  0  0  0  0
  182.7860  178.7130  142.4600 N   0  0  0  0  0  0  0  0  0  0  0  0
  184.8460  178.6280  141.2630 C   0  0  0  0  0  3  0  0  0  0  0  0
  182.7540  178.6280  144.7170 O   0  0  0  0  0  0  0  0  0  0  0  0
  185.5330  178.5480  142.4730 C   0  0  0  0  0  3  0  0  0  0  0  0
  189.2890  176.0780  142.8440 C   0  0  0  0  0  2  0  0  0  0  0  0
  190.0620  177.0810  142.0450 C   0  0  0  0  0  0  0  0  0  0  0  0
  189.5440  177.5840  141.0600 O   0  0  0  0  0  0  0  0  0  0  0  0
  191.3670  178.6640  143.2030 F   0  0  0  0  0  0  0  0  0  0  0  0
  192.0560  176.5210  143.2120 F   0  0  0  0  0  0  0  0  0  0  0  0
  192.2070  177.7400  141.3260 F   0  0  0  0  0  0  0  0  0  0  0  0
  191.4440  177.5040  142.4550 C   0  0  0  0  0  0  0  0  0  0  0  0
  1  2  2  0  0  0  0
  1  8  1  0  0  0  0
  2 11  1  0  0  0  0
  3  4  1  0  0  0  0
  5  6  1  0  0  0  0
  7 10  2  0  0  0  0
  7  2  1  0  0  0  0
  8  3  2  0  0  0  0
  9  5  1  0  0  0  0
 10  9  1  0  0  0  0
 11  5  1  0  0  0  0
 11  4  2  0  0  0  0
 12  1  1  1  0  0  0
 13 15  2  0  0  0  0
 14 12  1  0  0  0  0
 14 17  2  0  0  0  0
 15 14  1  0  0  0  0
 16 13  1  0  0  0  0
 16 18  2  0  0  0  0
 18 12  1  0  0  0  0
 19 10  1  0  0  0  0
 20 25  1  0  0  0  0
 20 19  1  0  0  0  0
 21 20  2  0  0  0  0
 24 25  1  0  0  0  0
 25 22  1  0  0  0  0
 25 23  1  0  0  0  0
M  END
>  <MODEL>
9

>  <REMARK>
 VINA RESULT:      -8.4      1.830      2.401
  Name = 
  4 active torsions:
  status: ('A' for Active; 'I' for Inactive)
    1  A    between atoms: C_1  and  C_5
    2  A    between atoms: C_6  and  C_15
    3  A    between atoms: C_6  and  C_23
    4  A    between atoms: C_15  and  C_21
                            x       y       z     vdW  Elec       q    Type
                         _______ _______ _______ _____ _____    ______ ____

>  <TORSDO>
F 4

$$$$
