=
 OpenBabel10262419273D

 31 34  0  0  1  0  0  0  0  0999 V2000
  189.6660  176.9080  140.3960 C   0  0  0  0  0  0  0  0  0  0  0  0
  187.4740  177.1020  143.6750 C   0  0  2  0  0  3  0  0  0  0  0  0
  188.2170  177.5350  145.0110 C   0  0  0  0  0  0  0  0  0  0  0  0
  190.3830  177.9550  144.0300 O   0  0  0  0  0  1  0  0  0  0  0  0
  188.0390  177.3660  142.2040 C   0  0  0  0  0  0  0  0  0  0  0  0
  189.0170  177.8690  139.6110 C   0  0  0  0  0  3  0  0  0  0  0  0
  189.6010  177.9120  145.1730 C   0  0  0  0  0  0  0  0  0  0  0  0
  185.8330  178.8760  143.0340 C   0  0  2  0  0  3  0  0  0  0  0  0
  191.0420  176.2870  139.4940 Cl  0  0  0  0  0  0  0  0  0  0  0  0
  186.1950  177.0220  146.1940 C   0  0  0  0  0  2  0  0  0  0  0  0
  190.1490  178.2250  146.4020 C   0  0  0  0  0  3  0  0  0  0  0  0
  186.4640  179.2260  141.7550 C   0  0  0  0  0  2  0  0  0  0  0  0
  185.9640  177.5230  143.6940 C   0  0  2  0  0  3  0  0  0  0  0  0
  189.1890  176.6190  141.7080 C   0  0  0  0  0  3  0  0  0  0  0  0
  189.3820  178.1440  147.5760 C   0  0  0  0  0  3  0  0  0  0  0  0
  187.5480  178.3780  141.4090 C   0  0  0  0  0  0  0  0  0  0  0  0
  188.0190  178.6200  140.0520 C   0  0  0  0  0  3  0  0  0  0  0  0
  185.4030  177.7270  145.1200 C   0  0  0  0  0  2  0  0  0  0  0  0
  187.5580  177.4540  146.1880 C   0  0  0  0  0  0  0  0  0  0  0  0
  188.0960  177.7200  147.4890 C   0  0  0  0  0  3  0  0  0  0  0  0
  181.6260  179.3010  143.1460 C   0  0  0  0  0  1  0  0  0  0  0  0
  184.1490  177.7800  141.0720 O   0  0  0  0  0  0  0  0  0  0  0  0
  183.6490  178.5590  141.9210 C   0  0  0  0  0  0  0  0  0  0  0  0
  182.3140  178.8800  141.8930 N   0  0  0  0  0  0  0  0  0  0  0  0
  184.5240  179.2940  142.7870 N   0  0  0  0  0  2  0  0  0  0  0  0
  181.4240  178.1380  141.0800 C   0  0  0  0  0  2  0  0  0  0  0  0
  180.6740  179.1380  140.1380 C   0  0  0  0  0  2  0  0  0  0  0  0
  182.2790  180.6410  138.8090 C   0  0  0  0  0  0  0  0  0  0  0  0
  181.6650  181.8020  138.2370 C   0  0  0  0  0  1  0  0  0  0  0  0
  183.5490  180.4530  138.9470 O   0  0  0  0  0  0  0  0  0  0  0  0
  181.4330  179.4020  138.9630 N   0  0  0  0  0  2  0  0  0  0  0  0
  1 14  1  0  0  0  0
  2  5  1  6  0  0  0
  2 13  1  0  0  0  0
  2  3  1  0  0  0  0
  3  7  2  0  0  0  0
  3 19  1  0  0  0  0
  4  7  1  0  0  0  0
  6 17  1  0  0  0  0
  6  1  2  0  0  0  0
  7 11  1  0  0  0  0
  8 25  1  6  0  0  0
  8 13  1  0  0  0  0
  9  1  1  0  0  0  0
 11 15  2  0  0  0  0
 12  8  1  0  0  0  0
 13 18  1  1  0  0  0
 14  5  2  0  0  0  0
 16 12  1  0  0  0  0
 16  5  1  0  0  0  0
 17 16  2  0  0  0  0
 18 10  1  0  0  0  0
 19 10  1  0  0  0  0
 19 20  2  0  0  0  0
 20 15  1  0  0  0  0
 22 23  2  0  0  0  0
 23 25  1  0  0  0  0
 24 23  1  0  0  0  0
 24 21  1  0  0  0  0
 26 24  1  0  0  0  0
 27 26  1  0  0  0  0
 28 30  2  0  0  0  0
 28 31  1  0  0  0  0
 29 28  1  0  0  0  0
 31 27  1  0  0  0  0
M  END
>  <MODEL>
1

>  <REMARK>
 VINA RESULT:      -8.1      0.000      0.000
  Name = 
  4 active torsions:
  status: ('A' for Active; 'I' for Inactive)
    1  A    between atoms: C_6  and  C_19
    2  A    between atoms: C_6  and  N_22
    3  A    between atoms: C_15  and  N_23
    4  A    between atoms: C_19  and  N_24
                            x       y       z     vdW  Elec       q    Type
                         _______ _______ _______ _____ _____    ______ ____

>  <TORSDO>
F 4

$$$$
=
 OpenBabel10262419273D

 31 34  0  0  1  0  0  0  0  0999 V2000
  192.2510  176.2580  136.3060 C   0  0  0  0  0  0  0  0  0  0  0  0
  188.7240  177.4180  137.6480 C   0  0  2  0  0  3  0  0  0  0  0  0
  187.4790  176.5010  137.2830 C   0  0  0  0  0  0  0  0  0  0  0  0
  188.7080  174.7630  136.1440 O   0  0  0  0  0  1  0  0  0  0  0  0
  190.2460  176.9370  137.5870 C   0  0  0  0  0  0  0  0  0  0  0  0
  192.9260  176.0740  137.5200 C   0  0  0  0  0  3  0  0  0  0  0  0
  187.4780  175.2590  136.5480 C   0  0  0  0  0  0  0  0  0  0  0  0
  189.1130  177.3320  140.1160 C   0  0  2  0  0  3  0  0  0  0  0  0
  193.3310  175.8080  134.9940 Cl  0  0  0  0  0  0  0  0  0  0  0  0
  186.0690  178.1930  138.2330 C   0  0  0  0  0  2  0  0  0  0  0  0
  186.3190  174.5710  136.2480 C   0  0  0  0  0  3  0  0  0  0  0  0
  190.4500  176.7300  140.0490 C   0  0  0  0  0  2  0  0  0  0  0  0
  188.5070  178.1650  139.0100 C   0  0  2  0  0  3  0  0  0  0  0  0
  190.8980  176.7070  136.3040 C   0  0  0  0  0  3  0  0  0  0  0  0
  185.0620  175.0810  136.6110 C   0  0  0  0  0  3  0  0  0  0  0  0
  190.9480  176.6070  138.7260 C   0  0  0  0  0  0  0  0  0  0  0  0
  192.3460  176.2000  138.7050 C   0  0  0  0  0  3  0  0  0  0  0  0
  187.0180  178.3120  139.3990 C   0  0  0  0  0  2  0  0  0  0  0  0
  186.2320  176.9370  137.5680 C   0  0  0  0  0  0  0  0  0  0  0  0
  185.0000  176.2840  137.2350 C   0  0  0  0  0  3  0  0  0  0  0  0
  190.4520  178.7320  143.8770 C   0  0  0  0  0  1  0  0  0  0  0  0
  188.3020  176.1690  142.5400 O   0  0  0  0  0  0  0  0  0  0  0  0
  188.9540  177.2410  142.5810 C   0  0  0  0  0  0  0  0  0  0  0  0
  189.2610  177.8420  143.7770 N   0  0  0  0  0  0  0  0  0  0  0  0
  189.1850  177.9590  141.3620 N   0  0  0  0  0  2  0  0  0  0  0  0
  189.0840  177.1350  144.9910 C   0  0  0  0  0  2  0  0  0  0  0  0
  187.9500  177.8390  145.8070 C   0  0  0  0  0  2  0  0  0  0  0  0
  185.6890  178.2220  144.6470 C   0  0  0  0  0  0  0  0  0  0  0  0
  184.7660  179.0180  145.3990 C   0  0  0  0  0  1  0  0  0  0  0  0
  185.5910  177.9450  143.3900 O   0  0  0  0  0  0  0  0  0  0  0  0
  186.6660  177.3660  145.4130 N   0  0  0  0  0  2  0  0  0  0  0  0
  1  6  1  0  0  0  0
  2  3  1  1  0  0  0
  2 13  1  0  0  0  0
  3 19  1  0  0  0  0
  4  7  1  0  0  0  0
  5  2  1  0  0  0  0
  5 16  2  0  0  0  0
  6 17  2  0  0  0  0
  7  3  2  0  0  0  0
  8 25  1  1  0  0  0
  9  1  1  0  0  0  0
 10 18  1  0  0  0  0
 11  7  1  0  0  0  0
 11 15  2  0  0  0  0
 12  8  1  0  0  0  0
 13 18  1  1  0  0  0
 13  8  1  0  0  0  0
 14  1  2  0  0  0  0
 14  5  1  0  0  0  0
 15 20  1  0  0  0  0
 16 12  1  0  0  0  0
 17 16  1  0  0  0  0
 19 10  1  0  0  0  0
 20 19  2  0  0  0  0
 22 23  2  0  0  0  0
 23 24  1  0  0  0  0
 24 21  1  0  0  0  0
 24 26  1  0  0  0  0
 25 23  1  0  0  0  0
 26 27  1  0  0  0  0
 28 29  1  0  0  0  0
 28 31  1  0  0  0  0
 30 28  2  0  0  0  0
 31 27  1  0  0  0  0
M  END
>  <MODEL>
2

>  <REMARK>
 VINA RESULT:      -7.8      3.556      7.368
  Name = 
  4 active torsions:
  status: ('A' for Active; 'I' for Inactive)
    1  A    between atoms: C_6  and  C_19
    2  A    between atoms: C_6  and  N_22
    3  A    between atoms: C_15  and  N_23
    4  A    between atoms: C_19  and  N_24
                            x       y       z     vdW  Elec       q    Type
                         _______ _______ _______ _____ _____    ______ ____

>  <TORSDO>
F 4

$$$$
=
 OpenBabel10262419273D

 31 34  0  0  1  0  0  0  0  0999 V2000
  190.9270  176.4130  146.2800 C   0  0  0  0  0  0  0  0  0  0  0  0
  187.7470  177.1380  144.0540 C   0  0  2  0  0  3  0  0  0  0  0  0
  186.5420  177.9050  144.7500 C   0  0  0  0  0  0  0  0  0  0  0  0
  187.6100  178.2710  146.8830 O   0  0  0  0  0  1  0  0  0  0  0  0
  189.2450  177.1210  144.6080 C   0  0  0  0  0  0  0  0  0  0  0  0
  191.8950  177.1290  145.5630 C   0  0  0  0  0  3  0  0  0  0  0  0
  186.4780  178.4150  146.0980 C   0  0  0  0  0  0  0  0  0  0  0  0
  188.7400  178.5970  142.2840 C   0  0  2  0  0  3  0  0  0  0  0  0
  191.6870  175.7220  147.7060 Cl  0  0  0  0  0  0  0  0  0  0  0  0
  185.2580  177.5030  142.7650 C   0  0  0  0  0  2  0  0  0  0  0  0
  185.3510  179.0280  146.6100 C   0  0  0  0  0  3  0  0  0  0  0  0
  190.0700  178.7120  142.8950 C   0  0  0  0  0  2  0  0  0  0  0  0
  187.8050  177.4340  142.5150 C   0  0  2  0  0  3  0  0  0  0  0  0
  189.5790  176.3770  145.8160 C   0  0  0  0  0  3  0  0  0  0  0  0
  184.1800  179.1420  145.8440 C   0  0  0  0  0  3  0  0  0  0  0  0
  190.2350  177.8970  144.0450 C   0  0  0  0  0  0  0  0  0  0  0  0
  191.6170  177.8770  144.5050 C   0  0  0  0  0  3  0  0  0  0  0  0
  186.4510  177.8950  141.9280 C   0  0  0  0  0  2  0  0  0  0  0  0
  185.3690  178.0280  144.0900 C   0  0  0  0  0  0  0  0  0  0  0  0
  184.1610  178.6100  144.5950 C   0  0  0  0  0  3  0  0  0  0  0  0
  188.6670  178.7330  138.0560 C   0  0  0  0  0  1  0  0  0  0  0  0
  190.3570  176.9470  140.6890 O   0  0  0  0  0  0  0  0  0  0  0  0
  189.7110  177.8670  140.1310 C   0  0  0  0  0  0  0  0  0  0  0  0
  189.7930  178.0750  138.7760 N   0  0  0  0  0  0  0  0  0  0  0  0
  189.0580  178.8490  140.9480 N   0  0  0  0  0  2  0  0  0  0  0  0
  190.3930  177.0980  137.9450 C   0  0  0  0  0  2  0  0  0  0  0  0
  189.5040  176.9300  136.6680 C   0  0  0  0  0  2  0  0  0  0  0  0
  190.4790  174.5540  136.6270 C   0  0  0  0  0  0  0  0  0  0  0  0
  191.5470  174.3690  135.6900 C   0  0  0  0  0  1  0  0  0  0  0  0
  190.1820  173.7530  137.5930 O   0  0  0  0  0  0  0  0  0  0  0  0
  189.4110  175.5620  136.2850 N   0  0  0  0  0  2  0  0  0  0  0  0
  1  9  1  0  0  0  0
  2  5  1  1  0  0  0
  2  3  1  0  0  0  0
  3  7  1  0  0  0  0
  5 14  2  0  0  0  0
  6  1  2  0  0  0  0
  7 11  2  0  0  0  0
  7  4  1  0  0  0  0
  8 25  1  6  0  0  0
  8 13  1  0  0  0  0
  8 12  1  0  0  0  0
 10 19  1  0  0  0  0
 12 16  1  0  0  0  0
 13 18  1  1  0  0  0
 13  2  1  0  0  0  0
 14  1  1  0  0  0  0
 15 11  1  0  0  0  0
 16 17  2  0  0  0  0
 16  5  1  0  0  0  0
 17  6  1  0  0  0  0
 18 10  1  0  0  0  0
 19 20  1  0  0  0  0
 19  3  2  0  0  0  0
 20 15  2  0  0  0  0
 21 24  1  0  0  0  0
 23 22  2  0  0  0  0
 23 25  1  0  0  0  0
 24 23  1  0  0  0  0
 26 24  1  0  0  0  0
 27 26  1  0  0  0  0
 28 30  2  0  0  0  0
 29 28  1  0  0  0  0
 31 28  1  0  0  0  0
 31 27  1  0  0  0  0
M  END
>  <MODEL>
3

>  <REMARK>
 VINA RESULT:      -7.8      4.018      6.399
  Name = 
  4 active torsions:
  status: ('A' for Active; 'I' for Inactive)
    1  A    between atoms: C_6  and  C_19
    2  A    between atoms: C_6  and  N_22
    3  A    between atoms: C_15  and  N_23
    4  A    between atoms: C_19  and  N_24
                            x       y       z     vdW  Elec       q    Type
                         _______ _______ _______ _____ _____    ______ ____

>  <TORSDO>
F 4

$$$$
=
 OpenBabel10262419273D

 31 34  0  0  1  0  0  0  0  0999 V2000
  192.2840  176.0240  136.2630 C   0  0  0  0  0  0  0  0  0  0  0  0
  188.8080  177.3320  137.6030 C   0  0  2  0  0  3  0  0  0  0  0  0
  187.5290  176.4550  137.2570 C   0  0  0  0  0  0  0  0  0  0  0  0
  188.6890  174.6560  136.1410 O   0  0  0  0  0  1  0  0  0  0  0  0
  190.3120  176.7960  137.5430 C   0  0  0  0  0  0  0  0  0  0  0  0
  192.9580  175.8350  137.4770 C   0  0  0  0  0  3  0  0  0  0  0  0
  187.4800  175.2030  136.5420 C   0  0  0  0  0  0  0  0  0  0  0  0
  189.2060  177.2710  140.0700 C   0  0  2  0  0  3  0  0  0  0  0  0
  193.3410  175.5160  134.9540 Cl  0  0  0  0  0  0  0  0  0  0  0  0
  186.1860  178.2110  138.1860 C   0  0  0  0  0  2  0  0  0  0  0  0
  186.2950  174.5520  136.2580 C   0  0  0  0  0  3  0  0  0  0  0  0
  190.5210  176.6200  140.0060 C   0  0  0  0  0  2  0  0  0  0  0  0
  188.6250  178.1070  138.9540 C   0  0  2  0  0  3  0  0  0  0  0  0
  190.9480  176.5220  136.2600 C   0  0  0  0  0  3  0  0  0  0  0  0
  185.0600  175.1130  136.6180 C   0  0  0  0  0  3  0  0  0  0  0  0
  191.0070  176.4580  138.6830 C   0  0  0  0  0  0  0  0  0  0  0  0
  192.3890  176.0000  138.6620 C   0  0  0  0  0  3  0  0  0  0  0  0
  187.1450  178.3140  139.3470 C   0  0  0  0  0  2  0  0  0  0  0  0
  186.3000  176.9400  137.5410 C   0  0  0  0  0  0  0  0  0  0  0  0
  185.0440  176.3270  137.2240 C   0  0  0  0  0  3  0  0  0  0  0  0
  190.5250  178.5310  143.8870 C   0  0  0  0  0  1  0  0  0  0  0  0
  188.0460  176.3440  142.4530 O   0  0  0  0  0  0  0  0  0  0  0  0
  188.8740  177.2860  142.5190 C   0  0  0  0  0  0  0  0  0  0  0  0
  189.2040  177.8610  143.7220 N   0  0  0  0  0  0  0  0  0  0  0  0
  189.3070  177.9140  141.3050 N   0  0  0  0  0  2  0  0  0  0  0  0
  188.8260  177.2340  144.9340 C   0  0  0  0  0  2  0  0  0  0  0  0
  189.6260  177.9030  146.1010 C   0  0  0  0  0  2  0  0  0  0  0  0
  191.5580  176.6000  147.1820 C   0  0  0  0  0  0  0  0  0  0  0  0
  192.1010  175.5580  146.3610 C   0  0  0  0  0  1  0  0  0  0  0  0
  192.1170  177.0930  148.2350 O   0  0  0  0  0  0  0  0  0  0  0  0
  190.0950  176.9270  147.0250 N   0  0  0  0  0  2  0  0  0  0  0  0
  1  6  1  0  0  0  0
  2  3  1  1  0  0  0
  2 13  1  0  0  0  0
  3 19  1  0  0  0  0
  4  7  1  0  0  0  0
  5  2  1  0  0  0  0
  5 16  2  0  0  0  0
  6 17  2  0  0  0  0
  7  3  2  0  0  0  0
  8 25  1  1  0  0  0
  9  1  1  0  0  0  0
 10 18  1  0  0  0  0
 11  7  1  0  0  0  0
 11 15  2  0  0  0  0
 12  8  1  0  0  0  0
 13 18  1  1  0  0  0
 13  8  1  0  0  0  0
 14  1  2  0  0  0  0
 14  5  1  0  0  0  0
 15 20  1  0  0  0  0
 16 12  1  0  0  0  0
 17 16  1  0  0  0  0
 19 10  1  0  0  0  0
 20 19  2  0  0  0  0
 22 23  2  0  0  0  0
 23 24  1  0  0  0  0
 24 21  1  0  0  0  0
 24 26  1  0  0  0  0
 25 23  1  0  0  0  0
 26 27  1  0  0  0  0
 27 31  1  0  0  0  0
 28 30  2  0  0  0  0
 29 28  1  0  0  0  0
 31 28  1  0  0  0  0
M  END
>  <MODEL>
4

>  <REMARK>
 VINA RESULT:      -7.7      4.052      8.427
  Name = 
  4 active torsions:
  status: ('A' for Active; 'I' for Inactive)
    1  A    between atoms: C_6  and  C_19
    2  A    between atoms: C_6  and  N_22
    3  A    between atoms: C_15  and  N_23
    4  A    between atoms: C_19  and  N_24
                            x       y       z     vdW  Elec       q    Type
                         _______ _______ _______ _____ _____    ______ ____

>  <TORSDO>
F 4

$$$$
=
 OpenBabel10262419273D

 31 34  0  0  1  0  0  0  0  0999 V2000
  184.9410  178.7190  144.7630 C   0  0  0  0  0  0  0  0  0  0  0  0
  188.8730  178.5490  144.4420 C   0  0  2  0  0  3  0  0  0  0  0  0
  189.6370  177.5990  145.4610 C   0  0  0  0  0  0  0  0  0  0  0  0
  187.6830  176.6990  146.5560 O   0  0  0  0  0  1  0  0  0  0  0  0
  187.3130  178.4480  144.1120 C   0  0  0  0  0  0  0  0  0  0  0  0
  184.5720  178.2410  143.4990 C   0  0  0  0  0  3  0  0  0  0  0  0
  189.0660  176.7460  146.4750 C   0  0  0  0  0  0  0  0  0  0  0  0
  189.1130  177.6360  142.1270 C   0  0  2  0  0  3  0  0  0  0  0  0
  183.4810  179.0200  145.6940 Cl  0  0  0  0  0  0  0  0  0  0  0  0
  191.6940  178.4900  144.6100 C   0  0  0  0  0  2  0  0  0  0  0  0
  189.8380  175.9960  147.3400 C   0  0  0  0  0  3  0  0  0  0  0  0
  187.6830  177.3900  141.9010 C   0  0  0  0  0  2  0  0  0  0  0  0
  189.6470  178.6760  143.0840 C   0  0  2  0  0  3  0  0  0  0  0  0
  186.3200  178.8500  145.1010 C   0  0  0  0  0  3  0  0  0  0  0  0
  191.2400  176.0660  147.3010 C   0  0  0  0  0  3  0  0  0  0  0  0
  186.8550  177.8710  142.9480 C   0  0  0  0  0  0  0  0  0  0  0  0
  185.4420  177.7970  142.6030 C   0  0  0  0  0  3  0  0  0  0  0  0
  191.1560  178.3600  143.2060 C   0  0  0  0  0  2  0  0  0  0  0  0
  190.9870  177.6320  145.5090 C   0  0  0  0  0  0  0  0  0  0  0  0
  191.8280  176.9120  146.4180 C   0  0  0  0  0  3  0  0  0  0  0  0
  189.4630  177.3110  137.9240 C   0  0  0  0  0  1  0  0  0  0  0  0
  190.9430  175.9020  140.8910 O   0  0  0  0  0  0  0  0  0  0  0  0
  190.3230  176.7260  140.1740 C   0  0  0  0  0  0  0  0  0  0  0  0
  190.5350  176.7890  138.8190 N   0  0  0  0  0  0  0  0  0  0  0  0
  189.5550  177.7570  140.8090 N   0  0  0  0  0  2  0  0  0  0  0  0
  191.2510  175.7590  138.1650 C   0  0  0  0  0  2  0  0  0  0  0  0
  192.4960  176.3970  137.4620 C   0  0  0  0  0  2  0  0  0  0  0  0
  194.6190  174.9500  137.4360 C   0  0  0  0  0  0  0  0  0  0  0  0
  194.3960  173.5680  137.7410 C   0  0  0  0  0  1  0  0  0  0  0  0
  195.6860  175.4380  136.9000 O   0  0  0  0  0  0  0  0  0  0  0  0
  193.7060  175.9670  138.0750 N   0  0  0  0  0  2  0  0  0  0  0  0
  1 14  1  0  0  0  0
  1  9  1  0  0  0  0
  2  5  1  6  0  0  0
  2  3  1  0  0  0  0
  3 19  2  0  0  0  0
  3  7  1  0  0  0  0
  5 14  2  0  0  0  0
  6  1  2  0  0  0  0
  7  4  1  0  0  0  0
  7 11  2  0  0  0  0
  8 25  1  6  0  0  0
  8 13  1  0  0  0  0
 10 19  1  0  0  0  0
 12  8  1  0  0  0  0
 12 16  1  0  0  0  0
 13 18  1  1  0  0  0
 13  2  1  0  0  0  0
 15 11  1  0  0  0  0
 16  5  1  0  0  0  0
 17 16  2  0  0  0  0
 17  6  1  0  0  0  0
 18 10  1  0  0  0  0
 19 20  1  0  0  0  0
 20 15  2  0  0  0  0
 21 24  1  0  0  0  0
 23 25  1  0  0  0  0
 23 22  2  0  0  0  0
 24 23  1  0  0  0  0
 26 24  1  0  0  0  0
 27 31  1  0  0  0  0
 27 26  1  0  0  0  0
 28 29  1  0  0  0  0
 28 31  1  0  0  0  0
 30 28  2  0  0  0  0
M  END
>  <MODEL>
5

>  <REMARK>
 VINA RESULT:      -7.5      4.339      7.471
  Name = 
  4 active torsions:
  status: ('A' for Active; 'I' for Inactive)
    1  A    between atoms: C_6  and  C_19
    2  A    between atoms: C_6  and  N_22
    3  A    between atoms: C_15  and  N_23
    4  A    between atoms: C_19  and  N_24
                            x       y       z     vdW  Elec       q    Type
                         _______ _______ _______ _____ _____    ______ ____

>  <TORSDO>
F 4

$$$$
=
 OpenBabel10262419273D

 31 34  0  0  1  0  0  0  0  0999 V2000
  190.6110  176.7140  139.1750 C   0  0  0  0  0  0  0  0  0  0  0  0
  188.5640  176.8720  142.5480 C   0  0  2  0  0  3  0  0  0  0  0  0
  189.3720  177.2520  143.8620 C   0  0  0  0  0  0  0  0  0  0  0  0
  191.5040  177.6470  142.8020 O   0  0  0  0  0  1  0  0  0  0  0  0
  189.0720  177.1610  141.0620 C   0  0  0  0  0  0  0  0  0  0  0  0
  189.9530  177.7110  138.4430 C   0  0  0  0  0  3  0  0  0  0  0  0
  190.7690  177.5920  143.9750 C   0  0  0  0  0  0  0  0  0  0  0  0
  186.9400  178.6990  142.0230 C   0  0  2  0  0  3  0  0  0  0  0  0
  191.9320  176.0870  138.2000 Cl  0  0  0  0  0  0  0  0  0  0  0  0
  187.3900  176.7530  145.1170 C   0  0  0  0  0  2  0  0  0  0  0  0
  191.3760  177.8590  145.1870 C   0  0  0  0  0  3  0  0  0  0  0  0
  187.5250  179.0680  140.7280 C   0  0  0  0  0  2  0  0  0  0  0  0
  187.0660  177.3260  142.6430 C   0  0  2  0  0  3  0  0  0  0  0  0
  190.1820  176.4010  140.4990 C   0  0  0  0  0  3  0  0  0  0  0  0
  190.6580  177.7650  146.3900 C   0  0  0  0  0  3  0  0  0  0  0  0
  188.5730  178.2060  140.3150 C   0  0  0  0  0  0  0  0  0  0  0  0
  188.9920  178.4730  138.9460 C   0  0  0  0  0  3  0  0  0  0  0  0
  186.5700  177.5040  144.0960 C   0  0  0  0  0  2  0  0  0  0  0  0
  188.7610  177.1540  145.0640 C   0  0  0  0  0  0  0  0  0  0  0  0
  189.3590  177.3730  146.3470 C   0  0  0  0  0  3  0  0  0  0  0  0
  182.7210  179.0030  142.0150 C   0  0  0  0  0  1  0  0  0  0  0  0
  185.3960  178.2520  139.7210 O   0  0  0  0  0  0  0  0  0  0  0  0
  184.8280  178.7160  140.7400 C   0  0  0  0  0  0  0  0  0  0  0  0
  183.4860  179.0090  140.7360 N   0  0  0  0  0  0  0  0  0  0  0  0
  185.6320  179.1530  141.8440 N   0  0  0  0  0  2  0  0  0  0  0  0
  182.6640  178.5480  139.6800 C   0  0  0  0  0  2  0  0  0  0  0  0
  182.4820  177.0010  139.8400 C   0  0  0  0  0  2  0  0  0  0  0  0
  183.4790  175.7860  137.8070 C   0  0  0  0  0  0  0  0  0  0  0  0
  184.1710  176.6410  136.8890 C   0  0  0  0  0  1  0  0  0  0  0  0
  183.5610  174.4990  137.8420 O   0  0  0  0  0  0  0  0  0  0  0  0
  182.3190  176.3710  138.5730 N   0  0  0  0  0  2  0  0  0  0  0  0
  1 14  1  0  0  0  0
  2  5  1  6  0  0  0
  2 13  1  0  0  0  0
  2  3  1  0  0  0  0
  3  7  2  0  0  0  0
  3 19  1  0  0  0  0
  4  7  1  0  0  0  0
  6 17  1  0  0  0  0
  6  1  2  0  0  0  0
  7 11  1  0  0  0  0
  8 25  1  6  0  0  0
  8 13  1  0  0  0  0
  9  1  1  0  0  0  0
 11 15  2  0  0  0  0
 12  8  1  0  0  0  0
 13 18  1  1  0  0  0
 14  5  2  0  0  0  0
 16 12  1  0  0  0  0
 16  5  1  0  0  0  0
 17 16  2  0  0  0  0
 18 10  1  0  0  0  0
 19 10  1  0  0  0  0
 19 20  2  0  0  0  0
 20 15  1  0  0  0  0
 22 23  2  0  0  0  0
 23 25  1  0  0  0  0
 24 23  1  0  0  0  0
 24 21  1  0  0  0  0
 26 27  1  0  0  0  0
 26 24  1  0  0  0  0
 28 30  2  0  0  0  0
 28 31  1  0  0  0  0
 29 28  1  0  0  0  0
 31 27  1  0  0  0  0
M  END
>  <MODEL>
6

>  <REMARK>
 VINA RESULT:      -7.0      1.997      2.440
  Name = 
  4 active torsions:
  status: ('A' for Active; 'I' for Inactive)
    1  A    between atoms: C_6  and  C_19
    2  A    between atoms: C_6  and  N_22
    3  A    between atoms: C_15  and  N_23
    4  A    between atoms: C_19  and  N_24
                            x       y       z     vdW  Elec       q    Type
                         _______ _______ _______ _____ _____    ______ ____

>  <TORSDO>
F 4

$$$$
=
 OpenBabel10262419273D

 31 34  0  0  1  0  0  0  0  0999 V2000
  184.9920  178.7230  145.1710 C   0  0  0  0  0  0  0  0  0  0  0  0
  188.8960  178.5760  144.6030 C   0  0  2  0  0  3  0  0  0  0  0  0
  189.7220  177.5920  145.5390 C   0  0  0  0  0  0  0  0  0  0  0  0
  187.8400  176.6490  146.7200 O   0  0  0  0  0  1  0  0  0  0  0  0
  187.3190  178.4820  144.3660 C   0  0  0  0  0  0  0  0  0  0  0  0
  184.5450  178.2880  143.9170 C   0  0  0  0  0  3  0  0  0  0  0  0
  189.2150  176.7030  146.5560 C   0  0  0  0  0  0  0  0  0  0  0  0
  188.9930  177.7450  142.2470 C   0  0  2  0  0  3  0  0  0  0  0  0
  183.5910  178.9870  146.2010 Cl  0  0  0  0  0  0  0  0  0  0  0  0
  191.7220  178.5180  144.5940 C   0  0  0  0  0  2  0  0  0  0  0  0
  190.0400  175.9260  147.3440 C   0  0  0  0  0  3  0  0  0  0  0  0
  187.5520  177.5030  142.1010 C   0  0  0  0  0  2  0  0  0  0  0  0
  189.5850  178.7520  143.2050 C   0  0  2  0  0  3  0  0  0  0  0  0
  186.3890  178.8450  145.4280 C   0  0  0  0  0  3  0  0  0  0  0  0
  191.4370  176.0010  147.2220 C   0  0  0  0  0  3  0  0  0  0  0  0
  186.7900  177.9440  143.2130 C   0  0  0  0  0  0  0  0  0  0  0  0
  185.3580  177.8780  142.9540 C   0  0  0  0  0  3  0  0  0  0  0  0
  191.0980  178.4360  143.2220 C   0  0  0  0  0  2  0  0  0  0  0  0
  191.0720  177.6280  145.5040 C   0  0  0  0  0  0  0  0  0  0  0  0
  191.9690  176.8790  146.3340 C   0  0  0  0  0  3  0  0  0  0  0  0
  189.0510  177.6170  138.0190 C   0  0  0  0  0  1  0  0  0  0  0  0
  190.6560  175.9980  140.8090 O   0  0  0  0  0  0  0  0  0  0  0  0
  190.0290  176.8830  140.1750 C   0  0  0  0  0  0  0  0  0  0  0  0
  190.1540  177.0060  138.8130 N   0  0  0  0  0  0  0  0  0  0  0  0
  189.3530  177.9130  140.9090 N   0  0  0  0  0  2  0  0  0  0  0  0
  190.7770  175.9790  138.0630 C   0  0  0  0  0  2  0  0  0  0  0  0
  189.6720  175.2280  137.2490 C   0  0  0  0  0  2  0  0  0  0  0  0
  189.0530  172.8670  136.4450 C   0  0  0  0  0  0  0  0  0  0  0  0
  187.9320  172.2870  137.1230 C   0  0  0  0  0  1  0  0  0  0  0  0
  189.5610  172.4450  135.3370 O   0  0  0  0  0  0  0  0  0  0  0  0
  189.9220  173.8270  137.2180 N   0  0  0  0  0  2  0  0  0  0  0  0
  1 14  1  0  0  0  0
  1  9  1  0  0  0  0
  2  5  1  6  0  0  0
  2  3  1  0  0  0  0
  3  7  1  0  0  0  0
  5 14  2  0  0  0  0
  6  1  2  0  0  0  0
  7  4  1  0  0  0  0
  7 11  2  0  0  0  0
  8 25  1  6  0  0  0
  8 13  1  0  0  0  0
 10 19  1  0  0  0  0
 12  8  1  0  0  0  0
 12 16  1  0  0  0  0
 13 18  1  1  0  0  0
 13  2  1  0  0  0  0
 15 11  1  0  0  0  0
 16  5  1  0  0  0  0
 17 16  2  0  0  0  0
 17  6  1  0  0  0  0
 18 10  1  0  0  0  0
 19  3  2  0  0  0  0
 19 20  1  0  0  0  0
 20 15  2  0  0  0  0
 21 24  1  0  0  0  0
 23 22  2  0  0  0  0
 23 25  1  0  0  0  0
 24 23  1  0  0  0  0
 26 24  1  0  0  0  0
 27 26  1  0  0  0  0
 28 29  1  0  0  0  0
 28 31  1  0  0  0  0
 30 28  2  0  0  0  0
 31 27  1  0  0  0  0
M  END
>  <MODEL>
7

>  <REMARK>
 VINA RESULT:      -6.9      4.308      6.648
  Name = 
  4 active torsions:
  status: ('A' for Active; 'I' for Inactive)
    1  A    between atoms: C_6  and  C_19
    2  A    between atoms: C_6  and  N_22
    3  A    between atoms: C_15  and  N_23
    4  A    between atoms: C_19  and  N_24
                            x       y       z     vdW  Elec       q    Type
                         _______ _______ _______ _____ _____    ______ ____

>  <TORSDO>
F 4

$$$$
=
 OpenBabel10262419273D

 31 34  0  0  1  0  0  0  0  0999 V2000
  190.7630  177.6950  141.6170 C   0  0  0  0  0  0  0  0  0  0  0  0
  189.5140  177.8010  137.8730 C   0  0  2  0  0  3  0  0  0  0  0  0
  189.7990  176.5160  136.9830 C   0  0  0  0  0  0  0  0  0  0  0  0
  190.7920  175.1620  138.7180 O   0  0  0  0  0  1  0  0  0  0  0  0
  189.5380  177.8150  139.4700 C   0  0  0  0  0  0  0  0  0  0  0  0
  189.5400  177.8270  142.2870 C   0  0  0  0  0  3  0  0  0  0  0  0
  190.4280  175.2820  137.3860 C   0  0  0  0  0  0  0  0  0  0  0  0
  187.0480  178.0380  138.2110 C   0  0  2  0  0  3  0  0  0  0  0  0
  192.0360  177.5000  142.8140 Cl  0  0  0  0  0  0  0  0  0  0  0  0
  188.9900  177.7540  135.0960 C   0  0  0  0  0  2  0  0  0  0  0  0
  190.6670  174.2440  136.5060 C   0  0  0  0  0  3  0  0  0  0  0  0
  187.0680  177.8790  139.6710 C   0  0  0  0  0  2  0  0  0  0  0  0
  188.2180  178.5500  137.4030 C   0  0  2  0  0  3  0  0  0  0  0  0
  190.8000  177.6980  140.1920 C   0  0  0  0  0  3  0  0  0  0  0  0
  190.3450  174.3650  135.1440 C   0  0  0  0  0  3  0  0  0  0  0  0
  188.3780  177.8120  140.2130 C   0  0  0  0  0  0  0  0  0  0  0  0
  188.3680  177.8600  141.6690 C   0  0  0  0  0  3  0  0  0  0  0  0
  187.8390  178.2560  135.9330 C   0  0  0  0  0  2  0  0  0  0  0  0
  189.5480  176.5630  135.6560 C   0  0  0  0  0  0  0  0  0  0  0  0
  189.8230  175.5350  134.6970 C   0  0  0  0  0  3  0  0  0  0  0  0
  183.5530  180.3010  138.9580 C   0  0  0  0  0  1  0  0  0  0  0  0
  184.4830  176.8970  138.2330 O   0  0  0  0  0  0  0  0  0  0  0  0
  184.5810  178.1470  138.2860 C   0  0  0  0  0  0  0  0  0  0  0  0
  183.4650  178.9460  138.3440 N   0  0  0  0  0  0  0  0  0  0  0  0
  185.8600  178.7530  138.0560 N   0  0  0  0  0  2  0  0  0  0  0  0
  182.1980  178.3760  138.6150 C   0  0  0  0  0  2  0  0  0  0  0  0
  181.6390  179.0240  139.9260 C   0  0  0  0  0  2  0  0  0  0  0  0
  182.8390  178.6280  142.1620 C   0  0  0  0  0  0  0  0  0  0  0  0
  184.2240  178.2810  142.0370 C   0  0  0  0  0  1  0  0  0  0  0  0
  182.2580  179.0160  143.2470 O   0  0  0  0  0  0  0  0  0  0  0  0
  181.9060  178.2030  141.0580 N   0  0  0  0  0  2  0  0  0  0  0  0
  1  6  1  0  0  0  0
  1  9  1  0  0  0  0
  2  3  1  1  0  0  0
  2  5  1  0  0  0  0
  3  7  1  0  0  0  0
  5 14  1  0  0  0  0
  5 16  2  0  0  0  0
  7  4  1  0  0  0  0
  8 25  1  1  0  0  0
  8 12  1  0  0  0  0
 10 19  1  0  0  0  0
 10 18  1  0  0  0  0
 11  7  2  0  0  0  0
 12 16  1  0  0  0  0
 13 18  1  6  0  0  0
 13  2  1  0  0  0  0
 13  8  1  0  0  0  0
 14  1  2  0  0  0  0
 15 11  1  0  0  0  0
 16 17  1  0  0  0  0
 17  6  2  0  0  0  0
 19  3  2  0  0  0  0
 20 15  2  0  0  0  0
 20 19  1  0  0  0  0
 22 23  2  0  0  0  0
 23 24  1  0  0  0  0
 24 26  1  0  0  0  0
 24 21  1  0  0  0  0
 25 23  1  0  0  0  0
 26 27  1  0  0  0  0
 27 31  1  0  0  0  0
 28 30  2  0  0  0  0
 29 28  1  0  0  0  0
 31 28  1  0  0  0  0
M  END
>  <MODEL>
8

>  <REMARK>
 VINA RESULT:      -6.8      3.125      6.466
  Name = 
  4 active torsions:
  status: ('A' for Active; 'I' for Inactive)
    1  A    between atoms: C_6  and  C_19
    2  A    between atoms: C_6  and  N_22
    3  A    between atoms: C_15  and  N_23
    4  A    between atoms: C_19  and  N_24
                            x       y       z     vdW  Elec       q    Type
                         _______ _______ _______ _____ _____    ______ ____

>  <TORSDO>
F 4

$$$$
=
 OpenBabel10262419273D

 31 34  0  0  1  0  0  0  0  0999 V2000
  190.7900  177.5470  141.7390 C   0  0  0  0  0  0  0  0  0  0  0  0
  189.5800  177.8010  137.9890 C   0  0  2  0  0  3  0  0  0  0  0  0
  189.9160  176.5720  137.0410 C   0  0  0  0  0  0  0  0  0  0  0  0
  190.9320  175.1650  138.7180 O   0  0  0  0  0  1  0  0  0  0  0  0
  189.5860  177.7360  139.5850 C   0  0  0  0  0  0  0  0  0  0  0  0
  189.5560  177.6070  142.3990 C   0  0  0  0  0  3  0  0  0  0  0  0
  190.5800  175.3390  137.3900 C   0  0  0  0  0  0  0  0  0  0  0  0
  187.1040  177.9430  138.3070 C   0  0  2  0  0  3  0  0  0  0  0  0
  192.0550  177.3330  142.9410 Cl  0  0  0  0  0  0  0  0  0  0  0  0
  189.0890  177.8770  135.2070 C   0  0  0  0  0  2  0  0  0  0  0  0
  190.8610  174.3550  136.4620 C   0  0  0  0  0  3  0  0  0  0  0  0
  187.1130  177.7120  139.7570 C   0  0  0  0  0  2  0  0  0  0  0  0
  188.2660  178.5310  137.5410 C   0  0  2  0  0  3  0  0  0  0  0  0
  190.8420  177.6230  140.3160 C   0  0  0  0  0  3  0  0  0  0  0  0
  190.5510  174.5340  135.1040 C   0  0  0  0  0  3  0  0  0  0  0  0
  188.4180  177.6590  140.3120 C   0  0  0  0  0  0  0  0  0  0  0  0
  188.3900  177.6340  141.7680 C   0  0  0  0  0  3  0  0  0  0  0  0
  187.9140  178.3000  136.0530 C   0  0  0  0  0  2  0  0  0  0  0  0
  189.6780  176.6770  135.7150 C   0  0  0  0  0  0  0  0  0  0  0  0
  189.9970  175.7080  134.7090 C   0  0  0  0  0  3  0  0  0  0  0  0
  183.3640  179.7550  139.0940 C   0  0  0  0  0  1  0  0  0  0  0  0
  184.6650  176.7510  137.5900 O   0  0  0  0  0  0  0  0  0  0  0  0
  184.6510  177.9340  138.0110 C   0  0  0  0  0  0  0  0  0  0  0  0
  183.4760  178.6380  138.1140 N   0  0  0  0  0  0  0  0  0  0  0  0
  185.8950  178.6280  138.1720 N   0  0  0  0  0  2  0  0  0  0  0  0
  182.2350  177.9660  138.0040 C   0  0  0  0  0  2  0  0  0  0  0  0
  181.7890  177.5240  139.4380 C   0  0  0  0  0  2  0  0  0  0  0  0
  180.7510  175.1950  139.1240 C   0  0  0  0  0  0  0  0  0  0  0  0
  179.7160  174.8780  140.0610 C   0  0  0  0  0  1  0  0  0  0  0  0
  180.9890  174.5620  138.0250 O   0  0  0  0  0  0  0  0  0  0  0  0
  181.8590  176.1100  139.5830 N   0  0  0  0  0  2  0  0  0  0  0  0
  1  6  1  0  0  0  0
  1  9  1  0  0  0  0
  2  3  1  6  0  0  0
  2  5  1  0  0  0  0
  3  7  1  0  0  0  0
  5 16  2  0  0  0  0
  5 14  1  0  0  0  0
  7  4  1  0  0  0  0
  8 25  1  1  0  0  0
  8 12  1  0  0  0  0
 10 19  1  0  0  0  0
 10 18  1  0  0  0  0
 11  7  2  0  0  0  0
 12 16  1  0  0  0  0
 13 18  1  6  0  0  0
 13  2  1  0  0  0  0
 13  8  1  0  0  0  0
 14  1  2  0  0  0  0
 15 11  1  0  0  0  0
 16 17  1  0  0  0  0
 17  6  2  0  0  0  0
 19  3  2  0  0  0  0
 20 15  2  0  0  0  0
 20 19  1  0  0  0  0
 22 23  2  0  0  0  0
 23 24  1  0  0  0  0
 23 25  1  0  0  0  0
 24 21  1  0  0  0  0
 26 24  1  0  0  0  0
 26 27  1  0  0  0  0
 27 31  1  0  0  0  0
 28 31  1  0  0  0  0
 28 29  1  0  0  0  0
 30 28  2  0  0  0  0
M  END
>  <MODEL>
9

>  <REMARK>
 VINA RESULT:      -6.5      3.442      6.635
  Name = 
  4 active torsions:
  status: ('A' for Active; 'I' for Inactive)
    1  A    between atoms: C_6  and  C_19
    2  A    between atoms: C_6  and  N_22
    3  A    between atoms: C_15  and  N_23
    4  A    between atoms: C_19  and  N_24
                            x       y       z     vdW  Elec       q    Type
                         _______ _______ _______ _____ _____    ______ ____

>  <TORSDO>
F 4

$$$$
