=
 OpenBabel10252414533D

 34 38  0  0  1  0  0  0  0  0999 V2000
  180.5130  178.8420  138.5380 C   0  0  2  0  0  3  0  0  0  0  0  0
  179.4500  180.2170  140.5980 C   0  0  1  0  0  3  0  0  0  0  0  0
  181.0730  178.3040  141.0380 C   0  0  0  0  0  2  0  0  0  0  0  0
  182.9030  178.4940  142.7460 C   0  0  2  0  0  3  0  0  0  0  0  0
  180.7330  180.6090  140.1720 O   0  0  0  0  0  0  0  0  0  0  0  0
  180.5480  179.6460  142.9880 C   0  0  0  0  0  2  0  0  0  0  0  0
  180.4230  179.2350  140.0260 C   0  0  1  0  0  0  0  0  0  0  0  0
  183.4330  179.4090  139.5310 C   0  0  0  0  0  2  0  0  0  0  0  0
  181.7610  178.0310  138.2140 C   0  0  0  0  0  3  0  0  0  0  0  0
  179.4150  180.3260  142.1580 C   0  0  0  0  0  2  0  0  0  0  0  0
  183.8700  177.9590  141.6650 C   0  0  0  0  0  2  0  0  0  0  0  0
  184.4000  179.0180  140.6720 C   0  0  1  0  0  3  0  0  0  0  0  0
  181.6900  179.1630  142.1030 C   0  0  2  0  0  3  0  0  0  0  0  0
  183.0230  178.2650  138.6390 C   0  0  0  0  0  3  0  0  0  0  0  0
  188.1590  178.3240  140.5370 C   0  0  0  0  0  0  0  0  0  0  0  0
  188.3660  178.0190  139.1200 C   0  0  0  0  0  3  0  0  0  0  0  0
  185.7730  178.6790  140.1750 C   0  0  0  0  0  0  0  0  0  0  0  0
  187.3410  178.0580  138.2690 C   0  0  0  0  0  3  0  0  0  0  0  0
  186.8130  178.6460  141.0190 C   0  0  0  0  0  3  0  0  0  0  0  0
  185.9380  178.4230  138.6940 C   0  0  0  0  0  2  0  0  0  0  0  0
  189.1300  178.3030  141.3380 O   0  0  0  0  0  0  0  0  0  0  0  0
  179.3670  179.6690  136.8320 C   0  0  0  0  0  1  0  0  0  0  0  0
  180.4290  179.9520  137.6910 O   0  0  0  0  0  0  0  0  0  0  0  0
  183.6430  179.4570  143.6640 C   0  0  0  0  0  2  0  0  0  0  0  0
  183.6460  178.9320  145.0890 C   0  0  0  0  0  2  0  0  0  0  0  0
  185.0630  178.8820  145.6310 C   0  0  0  0  0  2  0  0  0  0  0  0
  185.9990  178.2480  144.6140 C   0  0  0  0  0  2  0  0  0  0  0  0
  187.8070  176.1630  143.3050 O   0  0  0  0  0  0  0  0  0  0  0  0
  186.8340  177.1560  145.2640 C   0  0  1  0  0  3  0  0  0  0  0  0
  188.0030  176.7890  144.3790 C   0  0  0  0  0  0  0  0  0  0  0  0
  189.6220  177.7060  145.9460 C   0  0  0  0  0  3  0  0  0  0  0  0
  188.5440  177.8990  146.9300 C   0  0  0  0  0  3  0  0  0  0  0  0
  187.2700  177.6280  146.6280 C   0  0  0  0  0  3  0  0  0  0  0  0
  189.3730  177.1760  144.7490 C   0  0  0  0  0  3  0  0  0  0  0  0
  1 23  1  6  0  0  0
  1  7  1  0  0  0  0
  2 10  1  1  0  0  0
  4 24  1  6  0  0  0
  5  2  1  0  0  0  0
  7  5  1  0  0  0  0
  7  2  1  0  0  0  0
  7  3  1  1  0  0  0
  8 12  1  0  0  0  0
  9  1  1  0  0  0  0
  9 14  2  0  0  0  0
 10  6  1  0  0  0  0
 11  4  1  0  0  0  0
 12 17  1  6  0  0  0
 12 11  1  0  0  0  0
 13  3  1  6  0  0  0
 13  4  1  0  0  0  0
 13  6  1  0  0  0  0
 14  8  1  0  0  0  0
 15 19  1  0  0  0  0
 15 21  2  0  0  0  0
 16 15  1  0  0  0  0
 17 19  2  0  0  0  0
 18 20  1  0  0  0  0
 18 16  2  0  0  0  0
 20 17  1  0  0  0  0
 22 23  1  0  0  0  0
 24 25  1  0  0  0  0
 25 26  1  0  0  0  0
 27 26  1  0  0  0  0
 28 30  2  0  0  0  0
 29 27  1  6  0  0  0
 29 33  1  0  0  0  0
 30 34  1  0  0  0  0
 30 29  1  0  0  0  0
 31 32  1  0  0  0  0
 33 32  2  0  0  0  0
 34 31  2  0  0  0  0
M  END
>  <MODEL>
1

>  <REMARK>
 VINA RESULT:      -8.9      0.000      0.000
  Name = 
  7 active torsions:
  status: ('A' for Active; 'I' for Inactive)
    1  A    between atoms: C_1  and  O_19
    2  A    between atoms: C_3  and  C_13
    3  A    between atoms: C_3  and  C_17
    4  A    between atoms: C_5  and  C_18
    5  A    between atoms: C_12  and  C_28
    6  A    between atoms: C_17  and  C_29
    7  A    between atoms: C_18  and  C_29
                            x       y       z     vdW  Elec       q    Type
                         _______ _______ _______ _____ _____    ______ ____

>  <TORSDO>
F 7

$$$$
=
 OpenBabel10252414533D

 34 38  0  0  1  0  0  0  0  0999 V2000
  188.9880  177.1160  146.6600 C   0  0  2  0  0  3  0  0  0  0  0  0
  191.1010  177.9570  145.2150 C   0  0  1  0  0  3  0  0  0  0  0  0
  189.2070  176.6790  144.0890 C   0  0  0  0  0  2  0  0  0  0  0  0
  188.2740  177.3890  141.8690 C   0  0  2  0  0  3  0  0  0  0  0  0
  189.9560  178.7760  145.1940 O   0  0  0  0  0  0  0  0  0  0  0  0
  190.8010  177.6740  142.5550 C   0  0  0  0  0  2  0  0  0  0  0  0
  189.7230  177.3850  145.3330 C   0  0  1  0  0  0  0  0  0  0  0  0
  186.9710  178.5800  144.7570 C   0  0  0  0  0  2  0  0  0  0  0  0
  187.5140  176.7860  146.4640 C   0  0  0  0  0  3  0  0  0  0  0  0
  191.7210  177.9740  143.7780 C   0  0  0  0  0  2  0  0  0  0  0  0
  186.8680  177.2600  142.4990 C   0  0  0  0  0  2  0  0  0  0  0  0
  186.4000  178.4800  143.3230 C   0  0  1  0  0  3  0  0  0  0  0  0
  189.3280  177.6430  142.9450 C   0  0  2  0  0  3  0  0  0  0  0  0
  186.6380  177.4080  145.6440 C   0  0  0  0  0  3  0  0  0  0  0  0
  182.7890  178.6770  142.0790 C   0  0  0  0  0  0  0  0  0  0  0  0
  182.0540  178.9810  143.3100 C   0  0  0  0  0  3  0  0  0  0  0  0
  184.9110  178.6450  143.2820 C   0  0  0  0  0  0  0  0  0  0  0  0
  182.7080  179.1270  144.4620 C   0  0  0  0  0  3  0  0  0  0  0  0
  184.2440  178.5090  142.1270 C   0  0  0  0  0  3  0  0  0  0  0  0
  184.2100  179.0080  144.5710 C   0  0  0  0  0  2  0  0  0  0  0  0
  182.1730  178.5540  140.9880 O   0  0  0  0  0  0  0  0  0  0  0  0
  188.3100  177.8300  148.6450 C   0  0  0  0  0  1  0  0  0  0  0  0
  189.1260  178.1730  147.5660 O   0  0  0  0  0  0  0  0  0  0  0  0
  188.2690  178.4990  140.8280 C   0  0  0  0  0  2  0  0  0  0  0  0
  188.0930  177.9180  139.4360 C   0  0  0  0  0  2  0  0  0  0  0  0
  189.2880  178.2600  138.5640 C   0  0  0  0  0  2  0  0  0  0  0  0
  189.7290  177.0430  137.7670 C   0  0  0  0  0  2  0  0  0  0  0  0
  190.1690  174.0290  137.5420 O   0  0  0  0  0  0  0  0  0  0  0  0
  190.5980  176.1320  138.6190 C   0  0  1  0  0  3  0  0  0  0  0  0
  191.0170  174.9130  137.8300 C   0  0  0  0  0  0  0  0  0  0  0  0
  193.3500  175.6000  137.7920 C   0  0  0  0  0  3  0  0  0  0  0  0
  193.0330  176.6910  138.7280 C   0  0  0  0  0  3  0  0  0  0  0  0
  191.7780  176.9240  139.1250 C   0  0  0  0  0  3  0  0  0  0  0  0
  192.4070  174.7560  137.3750 C   0  0  0  0  0  3  0  0  0  0  0  0
  1 23  1  1  0  0  0
  2 10  1  6  0  0  0
  2  7  1  0  0  0  0
  4 24  1  6  0  0  0
  4 11  1  0  0  0  0
  4 13  1  0  0  0  0
  5  2  1  0  0  0  0
  5  7  1  0  0  0  0
  6 10  1  0  0  0  0
  7  3  1  6  0  0  0
  7  1  1  0  0  0  0
  8 14  1  0  0  0  0
  9  1  1  0  0  0  0
 11 12  1  0  0  0  0
 12 17  1  1  0  0  0
 12  8  1  0  0  0  0
 13  6  1  6  0  0  0
 13  3  1  0  0  0  0
 14  9  2  0  0  0  0
 15 19  1  0  0  0  0
 15 16  1  0  0  0  0
 16 18  2  0  0  0  0
 17 20  1  0  0  0  0
 18 20  1  0  0  0  0
 19 17  2  0  0  0  0
 21 15  2  0  0  0  0
 23 22  1  0  0  0  0
 25 24  1  0  0  0  0
 26 25  1  0  0  0  0
 27 26  1  0  0  0  0
 28 30  2  0  0  0  0
 29 27  1  6  0  0  0
 29 33  1  0  0  0  0
 30 29  1  0  0  0  0
 31 32  1  0  0  0  0
 32 33  2  0  0  0  0
 34 31  2  0  0  0  0
 34 30  1  0  0  0  0
M  END
>  <MODEL>
2

>  <REMARK>
 VINA RESULT:      -8.8      2.739      8.657
  Name = 
  7 active torsions:
  status: ('A' for Active; 'I' for Inactive)
    1  A    between atoms: C_1  and  O_19
    2  A    between atoms: C_3  and  C_13
    3  A    between atoms: C_3  and  C_17
    4  A    between atoms: C_5  and  C_18
    5  A    between atoms: C_12  and  C_28
    6  A    between atoms: C_17  and  C_29
    7  A    between atoms: C_18  and  C_29
                            x       y       z     vdW  Elec       q    Type
                         _______ _______ _______ _____ _____    ______ ____

>  <TORSDO>
F 7

$$$$
=
 OpenBabel10252414533D

 34 38  0  0  1  0  0  0  0  0999 V2000
  183.6990  179.3440  143.5890 C   0  0  2  0  0  3  0  0  0  0  0  0
  183.6020  178.4410  141.0510 C   0  0  1  0  0  3  0  0  0  0  0  0
  185.7320  179.5130  141.9490 C   0  0  0  0  0  2  0  0  0  0  0  0
  187.9970  178.5320  141.4880 C   0  0  2  0  0  3  0  0  0  0  0  0
  184.1720  177.5780  142.0070 O   0  0  0  0  0  0  0  0  0  0  0  0
  185.9830  178.4260  139.7950 C   0  0  0  0  0  2  0  0  0  0  0  0
  184.3430  178.9650  142.2410 C   0  0  1  0  0  0  0  0  0  0  0  0
  186.2290  177.6030  144.2220 C   0  0  0  0  0  2  0  0  0  0  0  0
  184.7240  179.5900  144.6870 C   0  0  0  0  0  3  0  0  0  0  0  0
  184.4300  178.2970  139.7310 C   0  0  0  0  0  2  0  0  0  0  0  0
  188.2850  178.6700  143.0010 C   0  0  0  0  0  2  0  0  0  0  0  0
  187.7360  177.5260  143.8840 C   0  0  1  0  0  3  0  0  0  0  0  0
  186.4940  178.4380  141.2300 C   0  0  2  0  0  3  0  0  0  0  0  0
  185.8200  178.8480  144.9660 C   0  0  0  0  0  3  0  0  0  0  0  0
  190.7530  176.9180  146.1540 C   0  0  0  0  0  0  0  0  0  0  0  0
  190.1350  176.8610  147.4810 C   0  0  0  0  0  3  0  0  0  0  0  0
  188.5890  177.2960  145.0950 C   0  0  0  0  0  0  0  0  0  0  0  0
  188.8150  176.9950  147.6120 C   0  0  0  0  0  3  0  0  0  0  0  0
  189.9160  177.1510  144.9750 C   0  0  0  0  0  3  0  0  0  0  0  0
  187.8920  177.1950  146.4330 C   0  0  0  0  0  2  0  0  0  0  0  0
  191.9980  176.7760  146.0290 O   0  0  0  0  0  0  0  0  0  0  0  0
  181.5250  179.0310  143.8850 C   0  0  0  0  0  1  0  0  0  0  0  0
  182.7600  178.3950  144.0120 O   0  0  0  0  0  0  0  0  0  0  0  0
  188.7290  177.3180  140.9360 C   0  0  0  0  0  2  0  0  0  0  0  0
  190.2320  177.5220  141.0230 C   0  0  0  0  0  2  0  0  0  0  0  0
  190.8620  177.4130  139.6470 C   0  0  0  0  0  2  0  0  0  0  0  0
  189.9610  176.6220  138.7120 C   0  0  0  0  0  2  0  0  0  0  0  0
  189.9440  175.2770  135.9690 O   0  0  0  0  0  0  0  0  0  0  0  0
  189.9360  177.2560  137.3300 C   0  0  1  0  0  3  0  0  0  0  0  0
  189.3190  176.3100  136.3260 C   0  0  0  0  0  0  0  0  0  0  0  0
  187.3660  177.7260  136.0210 C   0  0  0  0  0  3  0  0  0  0  0  0
  188.0110  178.7730  136.8320 C   0  0  0  0  0  3  0  0  0  0  0  0
  189.1970  178.5680  137.4140 C   0  0  0  0  0  3  0  0  0  0  0  0
  187.9820  176.5700  135.7730 C   0  0  0  0  0  3  0  0  0  0  0  0
  1 23  1  1  0  0  0
  1  9  1  0  0  0  0
  2 10  1  6  0  0  0
  2  5  1  0  0  0  0
  2  7  1  0  0  0  0
  4 24  1  1  0  0  0
  4 11  1  0  0  0  0
  5  7  1  0  0  0  0
  7  3  1  6  0  0  0
  7  1  1  0  0  0  0
  8 14  1  0  0  0  0
  9 14  2  0  0  0  0
 10  6  1  0  0  0  0
 11 12  1  0  0  0  0
 12  8  1  0  0  0  0
 12 17  1  1  0  0  0
 13  6  1  6  0  0  0
 13  4  1  0  0  0  0
 13  3  1  0  0  0  0
 15 16  1  0  0  0  0
 16 18  2  0  0  0  0
 17 20  1  0  0  0  0
 19 17  2  0  0  0  0
 19 15  1  0  0  0  0
 20 18  1  0  0  0  0
 21 15  2  0  0  0  0
 22 23  1  0  0  0  0
 24 25  1  0  0  0  0
 26 25  1  0  0  0  0
 27 26  1  0  0  0  0
 28 30  2  0  0  0  0
 29 33  1  0  0  0  0
 29 27  1  1  0  0  0
 30 29  1  0  0  0  0
 31 32  1  0  0  0  0
 32 33  2  0  0  0  0
 34 31  2  0  0  0  0
 34 30  1  0  0  0  0
M  END
>  <MODEL>
3

>  <REMARK>
 VINA RESULT:      -8.7      2.675      7.077
  Name = 
  7 active torsions:
  status: ('A' for Active; 'I' for Inactive)
    1  A    between atoms: C_1  and  O_19
    2  A    between atoms: C_3  and  C_13
    3  A    between atoms: C_3  and  C_17
    4  A    between atoms: C_5  and  C_18
    5  A    between atoms: C_12  and  C_28
    6  A    between atoms: C_17  and  C_29
    7  A    between atoms: C_18  and  C_29
                            x       y       z     vdW  Elec       q    Type
                         _______ _______ _______ _____ _____    ______ ____

>  <TORSDO>
F 7

$$$$
=
 OpenBabel10252414533D

 34 38  0  0  1  0  0  0  0  0999 V2000
  181.4600  178.7990  141.2180 C   0  0  2  0  0  3  0  0  0  0  0  0
  182.3140  177.7160  138.9020 C   0  0  1  0  0  3  0  0  0  0  0  0
  183.8090  179.3250  140.1920 C   0  0  0  0  0  2  0  0  0  0  0  0
  186.2590  178.8790  140.5120 C   0  0  2  0  0  3  0  0  0  0  0  0
  182.7360  177.0850  140.0880 O   0  0  0  0  0  0  0  0  0  0  0  0
  184.9110  178.1750  138.3630 C   0  0  0  0  0  2  0  0  0  0  0  0
  182.5410  178.4870  140.1650 C   0  0  1  0  0  0  0  0  0  0  0  0
  183.9860  177.7600  142.7570 C   0  0  0  0  0  2  0  0  0  0  0  0
  182.0360  179.3620  142.5100 C   0  0  0  0  0  3  0  0  0  0  0  0
  183.5100  177.6760  137.8940 C   0  0  0  0  0  2  0  0  0  0  0  0
  186.0470  179.1910  142.0120 C   0  0  0  0  0  2  0  0  0  0  0  0
  185.5070  178.0180  142.8600 C   0  0  1  0  0  3  0  0  0  0  0  0
  184.9560  178.4120  139.8670 C   0  0  2  0  0  3  0  0  0  0  0  0
  183.1250  178.9240  143.1790 C   0  0  0  0  0  3  0  0  0  0  0  0
  187.6050  177.5560  146.0240 C   0  0  0  0  0  0  0  0  0  0  0  0
  186.8170  178.2780  147.0260 C   0  0  0  0  0  3  0  0  0  0  0  0
  185.9870  178.0870  144.2790 C   0  0  0  0  0  0  0  0  0  0  0  0
  185.6680  178.8600  146.6830 C   0  0  0  0  0  3  0  0  0  0  0  0
  187.1360  177.4990  144.6370 C   0  0  0  0  0  3  0  0  0  0  0  0
  185.1080  178.8020  145.2800 C   0  0  0  0  0  2  0  0  0  0  0  0
  188.6830  176.9940  146.3510 O   0  0  0  0  0  0  0  0  0  0  0  0
  179.3490  178.1260  141.2620 C   0  0  0  0  0  1  0  0  0  0  0  0
  180.6540  177.6890  141.4940 O   0  0  0  0  0  0  0  0  0  0  0  0
  187.3570  177.8360  140.3570 C   0  0  0  0  0  2  0  0  0  0  0  0
  188.7060  178.5110  140.1790 C   0  0  0  0  0  2  0  0  0  0  0  0
  189.7930  177.4730  139.9690 C   0  0  0  0  0  2  0  0  0  0  0  0
  190.7910  177.5100  141.1150 C   0  0  0  0  0  2  0  0  0  0  0  0
  190.2760  175.0620  142.8680 O   0  0  0  0  0  0  0  0  0  0  0  0
  190.0720  177.4180  142.4520 C   0  0  1  0  0  3  0  0  0  0  0  0
  190.5700  176.2280  143.2390 C   0  0  0  0  0  0  0  0  0  0  0  0
  191.6170  177.6360  144.9230 C   0  0  0  0  0  3  0  0  0  0  0  0
  190.9860  178.8180  144.3120 C   0  0  0  0  0  3  0  0  0  0  0  0
  190.2610  178.7180  143.1930 C   0  0  0  0  0  3  0  0  0  0  0  0
  191.4160  176.4150  144.4270 C   0  0  0  0  0  3  0  0  0  0  0  0
  1 23  1  1  0  0  0
  1  9  1  0  0  0  0
  2 10  1  6  0  0  0
  2  5  1  0  0  0  0
  2  7  1  0  0  0  0
  4 24  1  1  0  0  0
  4 11  1  0  0  0  0
  5  7  1  0  0  0  0
  7  3  1  1  0  0  0
  7  1  1  0  0  0  0
  8 12  1  0  0  0  0
  8 14  1  0  0  0  0
  9 14  2  0  0  0  0
 10  6  1  0  0  0  0
 11 12  1  0  0  0  0
 12 17  1  1  0  0  0
 13  6  1  6  0  0  0
 13  3  1  0  0  0  0
 13  4  1  0  0  0  0
 15 21  2  0  0  0  0
 15 16  1  0  0  0  0
 17 19  2  0  0  0  0
 17 20  1  0  0  0  0
 18 16  2  0  0  0  0
 19 15  1  0  0  0  0
 20 18  1  0  0  0  0
 22 23  1  0  0  0  0
 25 24  1  0  0  0  0
 26 25  1  0  0  0  0
 26 27  1  0  0  0  0
 28 30  2  0  0  0  0
 29 27  1  6  0  0  0
 29 33  1  0  0  0  0
 29 30  1  0  0  0  0
 30 34  1  0  0  0  0
 32 31  1  0  0  0  0
 33 32  2  0  0  0  0
 34 31  2  0  0  0  0
M  END
>  <MODEL>
4

>  <REMARK>
 VINA RESULT:      -8.4      1.867      4.867
  Name = 
  7 active torsions:
  status: ('A' for Active; 'I' for Inactive)
    1  A    between atoms: C_1  and  O_19
    2  A    between atoms: C_3  and  C_13
    3  A    between atoms: C_3  and  C_17
    4  A    between atoms: C_5  and  C_18
    5  A    between atoms: C_12  and  C_28
    6  A    between atoms: C_17  and  C_29
    7  A    between atoms: C_18  and  C_29
                            x       y       z     vdW  Elec       q    Type
                         _______ _______ _______ _____ _____    ______ ____

>  <TORSDO>
F 7

$$$$
=
 OpenBabel10252414533D

 34 38  0  0  1  0  0  0  0  0999 V2000
  188.9960  177.1300  146.8380 C   0  0  2  0  0  3  0  0  0  0  0  0
  191.1100  177.9420  145.3770 C   0  0  1  0  0  3  0  0  0  0  0  0
  189.2080  176.6580  144.2730 C   0  0  0  0  0  2  0  0  0  0  0  0
  188.2740  177.3430  142.0450 C   0  0  2  0  0  3  0  0  0  0  0  0
  189.9690  178.7660  145.3480 O   0  0  0  0  0  0  0  0  0  0  0  0
  190.8030  177.6250  142.7220 C   0  0  0  0  0  2  0  0  0  0  0  0
  189.7300  177.3780  145.5060 C   0  0  1  0  0  0  0  0  0  0  0  0
  186.9820  178.5790  144.9200 C   0  0  0  0  0  2  0  0  0  0  0  0
  187.5200  176.8050  146.6490 C   0  0  0  0  0  3  0  0  0  0  0  0
  191.7270  177.9360  143.9400 C   0  0  0  0  0  2  0  0  0  0  0  0
  186.8690  177.2290  142.6800 C   0  0  0  0  0  2  0  0  0  0  0  0
  186.4080  178.4630  143.4890 C   0  0  1  0  0  3  0  0  0  0  0  0
  189.3310  177.6060  143.1160 C   0  0  2  0  0  3  0  0  0  0  0  0
  186.6450  177.4200  145.8240 C   0  0  0  0  0  3  0  0  0  0  0  0
  182.7960  178.6650  142.2490 C   0  0  0  0  0  0  0  0  0  0  0  0
  182.0650  178.9840  143.4770 C   0  0  0  0  0  3  0  0  0  0  0  0
  184.9190  178.6340  143.4480 C   0  0  0  0  0  0  0  0  0  0  0  0
  182.7210  179.1380  144.6270 C   0  0  0  0  0  3  0  0  0  0  0  0
  184.2500  178.4900  142.2960 C   0  0  0  0  0  3  0  0  0  0  0  0
  184.2230  179.0120  144.7350 C   0  0  0  0  0  2  0  0  0  0  0  0
  182.1780  178.5340  141.1600 O   0  0  0  0  0  0  0  0  0  0  0  0
  188.2780  177.9050  148.7860 C   0  0  0  0  0  1  0  0  0  0  0  0
  189.1420  178.1990  147.7300 O   0  0  0  0  0  0  0  0  0  0  0  0
  188.2720  178.4400  140.9890 C   0  0  0  0  0  2  0  0  0  0  0  0
  188.3500  177.8350  139.5990 C   0  0  0  0  0  2  0  0  0  0  0  0
  189.7840  177.8330  139.1020 C   0  0  0  0  0  2  0  0  0  0  0  0
  190.2790  176.4080  138.9130 C   0  0  0  0  0  2  0  0  0  0  0  0
  190.2780  173.6870  137.5250 O   0  0  0  0  0  0  0  0  0  0  0  0
  190.4200  176.0830  137.4340 C   0  0  1  0  0  3  0  0  0  0  0  0
  189.7600  174.7600  137.1200 C   0  0  0  0  0  0  0  0  0  0  0  0
  188.0150  175.8160  135.7950 C   0  0  0  0  0  3  0  0  0  0  0  0
  188.7280  177.1000  135.9000 C   0  0  0  0  0  3  0  0  0  0  0  0
  189.8400  177.2200  136.6310 C   0  0  0  0  0  3  0  0  0  0  0  0
  188.5020  174.7110  136.3600 C   0  0  0  0  0  3  0  0  0  0  0  0
  1 23  1  1  0  0  0
  2 10  1  6  0  0  0
  2  7  1  0  0  0  0
  4 24  1  6  0  0  0
  4 11  1  0  0  0  0
  4 13  1  0  0  0  0
  5  2  1  0  0  0  0
  5  7  1  0  0  0  0
  6 10  1  0  0  0  0
  7  3  1  6  0  0  0
  7  1  1  0  0  0  0
  8 14  1  0  0  0  0
  9  1  1  0  0  0  0
 11 12  1  0  0  0  0
 12 17  1  1  0  0  0
 12  8  1  0  0  0  0
 13  6  1  6  0  0  0
 13  3  1  0  0  0  0
 14  9  2  0  0  0  0
 15 19  1  0  0  0  0
 15 16  1  0  0  0  0
 16 18  2  0  0  0  0
 17 20  1  0  0  0  0
 18 20  1  0  0  0  0
 19 17  2  0  0  0  0
 21 15  2  0  0  0  0
 23 22  1  0  0  0  0
 25 24  1  0  0  0  0
 26 25  1  0  0  0  0
 27 26  1  0  0  0  0
 29 27  1  1  0  0  0
 30 29  1  0  0  0  0
 30 28  2  0  0  0  0
 31 32  1  0  0  0  0
 31 34  2  0  0  0  0
 32 33  2  0  0  0  0
 33 29  1  0  0  0  0
 34 30  1  0  0  0  0
M  END
>  <MODEL>
5

>  <REMARK>
 VINA RESULT:      -8.4      2.640      8.892
  Name = 
  7 active torsions:
  status: ('A' for Active; 'I' for Inactive)
    1  A    between atoms: C_1  and  O_19
    2  A    between atoms: C_3  and  C_13
    3  A    between atoms: C_3  and  C_17
    4  A    between atoms: C_5  and  C_18
    5  A    between atoms: C_12  and  C_28
    6  A    between atoms: C_17  and  C_29
    7  A    between atoms: C_18  and  C_29
                            x       y       z     vdW  Elec       q    Type
                         _______ _______ _______ _____ _____    ______ ____

>  <TORSDO>
F 7

$$$$
=
 OpenBabel10252414533D

 34 38  0  0  1  0  0  0  0  0999 V2000
  188.9950  177.1450  146.8550 C   0  0  2  0  0  3  0  0  0  0  0  0
  191.1260  177.8950  145.3860 C   0  0  1  0  0  3  0  0  0  0  0  0
  189.2190  176.5980  144.3050 C   0  0  0  0  0  2  0  0  0  0  0  0
  188.3050  177.2290  142.0530 C   0  0  2  0  0  3  0  0  0  0  0  0
  189.9930  178.7280  145.3260 O   0  0  0  0  0  0  0  0  0  0  0  0
  190.8330  177.5060  142.7390 C   0  0  0  0  0  2  0  0  0  0  0  0
  189.7400  177.3480  145.5220 C   0  0  1  0  0  0  0  0  0  0  0  0
  187.0080  178.5580  144.8830 C   0  0  0  0  0  2  0  0  0  0  0  0
  187.5170  176.8280  146.6660 C   0  0  0  0  0  3  0  0  0  0  0  0
  191.7520  177.8430  143.9530 C   0  0  0  0  0  2  0  0  0  0  0  0
  186.8950  177.1460  142.6820 C   0  0  0  0  0  2  0  0  0  0  0  0
  186.4420  178.4070  143.4530 C   0  0  1  0  0  3  0  0  0  0  0  0
  189.3580  177.5120  143.1230 C   0  0  2  0  0  3  0  0  0  0  0  0
  186.6540  177.4290  145.8170 C   0  0  0  0  0  3  0  0  0  0  0  0
  182.8420  178.6300  142.1790 C   0  0  0  0  0  0  0  0  0  0  0  0
  182.1030  178.9660  143.3980 C   0  0  0  0  0  3  0  0  0  0  0  0
  184.9550  178.5910  143.3970 C   0  0  0  0  0  0  0  0  0  0  0  0
  182.7510  179.1250  144.5520 C   0  0  0  0  0  3  0  0  0  0  0  0
  184.2940  178.4430  142.2410 C   0  0  0  0  0  3  0  0  0  0  0  0
  184.2500  178.9870  144.6740 C   0  0  0  0  0  2  0  0  0  0  0  0
  182.2330  178.4950  141.0860 O   0  0  0  0  0  0  0  0  0  0  0  0
  188.3530  177.9320  148.8250 C   0  0  0  0  0  1  0  0  0  0  0  0
  189.1450  178.2370  147.7180 O   0  0  0  0  0  0  0  0  0  0  0  0
  188.3210  178.2950  140.9670 C   0  0  0  0  0  2  0  0  0  0  0  0
  189.1480  177.8300  139.7810 C   0  0  0  0  0  2  0  0  0  0  0  0
  188.4610  178.1980  138.4790 C   0  0  0  0  0  2  0  0  0  0  0  0
  187.6960  177.0060  137.9280 C   0  0  0  0  0  2  0  0  0  0  0  0
  186.0470  175.4910  135.8500 O   0  0  0  0  0  0  0  0  0  0  0  0
  186.4780  177.4680  137.1430 C   0  0  1  0  0  3  0  0  0  0  0  0
  185.6320  176.2850  136.7340 C   0  0  0  0  0  0  0  0  0  0  0  0
  183.8070  176.9380  138.2040 C   0  0  0  0  0  3  0  0  0  0  0  0
  184.5000  178.2080  138.4810 C   0  0  0  0  0  3  0  0  0  0  0  0
  185.7120  178.4620  137.9790 C   0  0  0  0  0  3  0  0  0  0  0  0
  184.3330  176.0350  137.3760 C   0  0  0  0  0  3  0  0  0  0  0  0
  1 23  1  1  0  0  0
  2 10  1  6  0  0  0
  2  7  1  0  0  0  0
  4 24  1  6  0  0  0
  4 11  1  0  0  0  0
  4 13  1  0  0  0  0
  5  2  1  0  0  0  0
  5  7  1  0  0  0  0
  6 10  1  0  0  0  0
  7  3  1  6  0  0  0
  7  1  1  0  0  0  0
  8 14  1  0  0  0  0
  9  1  1  0  0  0  0
 11 12  1  0  0  0  0
 12 17  1  1  0  0  0
 12  8  1  0  0  0  0
 13  6  1  6  0  0  0
 13  3  1  0  0  0  0
 14  9  2  0  0  0  0
 15 19  1  0  0  0  0
 15 16  1  0  0  0  0
 16 18  2  0  0  0  0
 17 20  1  0  0  0  0
 18 20  1  0  0  0  0
 19 17  2  0  0  0  0
 21 15  2  0  0  0  0
 23 22  1  0  0  0  0
 25 24  1  0  0  0  0
 26 25  1  0  0  0  0
 27 26  1  0  0  0  0
 28 30  2  0  0  0  0
 29 27  1  1  0  0  0
 29 33  1  0  0  0  0
 30 29  1  0  0  0  0
 30 34  1  0  0  0  0
 31 32  1  0  0  0  0
 33 32  2  0  0  0  0
 34 31  2  0  0  0  0
M  END
>  <MODEL>
6

>  <REMARK>
 VINA RESULT:      -8.3      2.311      8.786
  Name = 
  7 active torsions:
  status: ('A' for Active; 'I' for Inactive)
    1  A    between atoms: C_1  and  O_19
    2  A    between atoms: C_3  and  C_13
    3  A    between atoms: C_3  and  C_17
    4  A    between atoms: C_5  and  C_18
    5  A    between atoms: C_12  and  C_28
    6  A    between atoms: C_17  and  C_29
    7  A    between atoms: C_18  and  C_29
                            x       y       z     vdW  Elec       q    Type
                         _______ _______ _______ _____ _____    ______ ____

>  <TORSDO>
F 7

$$$$
=
 OpenBabel10252414533D

 34 38  0  0  1  0  0  0  0  0999 V2000
  189.3020  178.0420  137.0630 C   0  0  2  0  0  3  0  0  0  0  0  0
  190.4770  176.7670  139.1260 C   0  0  1  0  0  3  0  0  0  0  0  0
  188.8920  178.7130  139.5590 C   0  0  0  0  0  2  0  0  0  0  0  0
  187.1640  178.6260  141.3790 C   0  0  2  0  0  3  0  0  0  0  0  0
  189.1690  176.3630  138.7970 O   0  0  0  0  0  0  0  0  0  0  0  0
  189.5240  177.4700  141.5430 C   0  0  0  0  0  2  0  0  0  0  0  0
  189.4770  177.7260  138.5610 C   0  0  1  0  0  0  0  0  0  0  0  0
  186.4420  177.5490  138.2520 C   0  0  0  0  0  2  0  0  0  0  0  0
  188.0410  178.8440  136.7700 C   0  0  0  0  0  3  0  0  0  0  0  0
  190.6030  176.7400  140.6850 C   0  0  0  0  0  2  0  0  0  0  0  0
  186.1380  179.1120  140.3300 C   0  0  0  0  0  2  0  0  0  0  0  0
  185.5460  178.0070  139.4250 C   0  0  1  0  0  3  0  0  0  0  0  0
  188.3350  177.9150  140.7020 C   0  0  2  0  0  3  0  0  0  0  0  0
  186.8050  178.6420  137.2790 C   0  0  0  0  0  3  0  0  0  0  0  0
  182.3190  179.9070  138.6440 C   0  0  0  0  0  0  0  0  0  0  0  0
  181.4500  178.8430  138.1370 C   0  0  0  0  0  3  0  0  0  0  0  0
  184.1470  178.3300  138.9920 C   0  0  0  0  0  0  0  0  0  0  0  0
  181.8930  177.5870  138.0740 C   0  0  0  0  0  3  0  0  0  0  0  0
  183.6880  179.5870  139.0580 C   0  0  0  0  0  3  0  0  0  0  0  0
  183.2780  177.1850  138.5250 C   0  0  0  0  0  2  0  0  0  0  0  0
  181.8960  181.0900  138.7180 O   0  0  0  0  0  0  0  0  0  0  0  0
  189.2740  177.3520  134.9570 C   0  0  0  0  0  1  0  0  0  0  0  0
  189.3310  176.8880  136.2710 O   0  0  0  0  0  0  0  0  0  0  0  0
  186.4750  177.7180  142.3870 C   0  0  0  0  0  2  0  0  0  0  0  0
  185.4150  178.4880  143.1540 C   0  0  0  0  0  2  0  0  0  0  0  0
  185.5770  178.2690  144.6480 C   0  0  0  0  0  2  0  0  0  0  0  0
  186.7930  177.4000  144.9270 C   0  0  0  0  0  2  0  0  0  0  0  0
  186.8320  178.3090  147.8430 O   0  0  0  0  0  0  0  0  0  0  0  0
  187.8560  178.1920  145.6740 C   0  0  1  0  0  3  0  0  0  0  0  0
  187.7970  177.8890  147.1530 C   0  0  0  0  0  0  0  0  0  0  0  0
  189.9510  176.7590  147.1220 C   0  0  0  0  0  3  0  0  0  0  0  0
  190.1520  177.2030  145.7320 C   0  0  0  0  0  3  0  0  0  0  0  0
  189.2040  177.8770  145.0740 C   0  0  0  0  0  3  0  0  0  0  0  0
  188.8490  177.0870  147.7960 C   0  0  0  0  0  3  0  0  0  0  0  0
  1 23  1  6  0  0  0
  1  7  1  0  0  0  0
  2 10  1  1  0  0  0
  4 24  1  1  0  0  0
  5  2  1  0  0  0  0
  7  5  1  0  0  0  0
  7  2  1  0  0  0  0
  7  3  1  1  0  0  0
  8 12  1  0  0  0  0
  9  1  1  0  0  0  0
  9 14  2  0  0  0  0
 10  6  1  0  0  0  0
 11  4  1  0  0  0  0
 12 17  1  6  0  0  0
 12 11  1  0  0  0  0
 13  3  1  6  0  0  0
 13  4  1  0  0  0  0
 13  6  1  0  0  0  0
 14  8  1  0  0  0  0
 15 21  2  0  0  0  0
 15 19  1  0  0  0  0
 16 15  1  0  0  0  0
 17 19  2  0  0  0  0
 18 16  2  0  0  0  0
 18 20  1  0  0  0  0
 20 17  1  0  0  0  0
 22 23  1  0  0  0  0
 24 25  1  0  0  0  0
 25 26  1  0  0  0  0
 26 27  1  0  0  0  0
 29 27  1  6  0  0  0
 29 30  1  0  0  0  0
 30 34  1  0  0  0  0
 30 28  2  0  0  0  0
 31 34  2  0  0  0  0
 32 31  1  0  0  0  0
 33 29  1  0  0  0  0
 33 32  2  0  0  0  0
M  END
>  <MODEL>
7

>  <REMARK>
 VINA RESULT:      -8.3      2.204      6.257
  Name = 
  7 active torsions:
  status: ('A' for Active; 'I' for Inactive)
    1  A    between atoms: C_1  and  O_19
    2  A    between atoms: C_3  and  C_13
    3  A    between atoms: C_3  and  C_17
    4  A    between atoms: C_5  and  C_18
    5  A    between atoms: C_12  and  C_28
    6  A    between atoms: C_17  and  C_29
    7  A    between atoms: C_18  and  C_29
                            x       y       z     vdW  Elec       q    Type
                         _______ _______ _______ _____ _____    ______ ____

>  <TORSDO>
F 7

$$$$
=
 OpenBabel10252414533D

 34 38  0  0  1  0  0  0  0  0999 V2000
  191.4830  177.2460  145.8810 C   0  0  2  0  0  3  0  0  0  0  0  0
  189.4000  176.7100  147.5050 C   0  0  1  0  0  3  0  0  0  0  0  0
  189.1660  178.4420  145.6520 C   0  0  0  0  0  2  0  0  0  0  0  0
  187.1230  178.5480  144.1970 C   0  0  2  0  0  3  0  0  0  0  0  0
  189.4200  176.0460  146.2630 O   0  0  0  0  0  0  0  0  0  0  0  0
  187.0810  177.8350  146.7310 C   0  0  0  0  0  2  0  0  0  0  0  0
  189.9990  177.3390  146.2860 C   0  0  1  0  0  0  0  0  0  0  0  0
  189.7770  176.6390  143.3200 C   0  0  0  0  0  2  0  0  0  0  0  0
  191.7440  177.7540  144.4690 C   0  0  0  0  0  3  0  0  0  0  0  0
  187.9140  177.0860  147.8170 C   0  0  0  0  0  2  0  0  0  0  0  0
  188.0780  178.6010  142.9820 C   0  0  0  0  0  2  0  0  0  0  0  0
  188.6090  177.2320  142.5000 C   0  0  1  0  0  3  0  0  0  0  0  0
  187.8010  177.8760  145.3890 C   0  0  2  0  0  3  0  0  0  0  0  0
  191.0140  177.5010  143.3600 C   0  0  0  0  0  3  0  0  0  0  0  0
  190.1720  176.5190  139.0830 C   0  0  0  0  0  0  0  0  0  0  0  0
  189.3040  177.2790  138.1810 C   0  0  0  0  0  3  0  0  0  0  0  0
  188.8770  177.2250  141.0250 C   0  0  0  0  0  0  0  0  0  0  0  0
  188.2870  177.9890  138.6700 C   0  0  0  0  0  3  0  0  0  0  0  0
  189.9010  176.5230  140.5230 C   0  0  0  0  0  3  0  0  0  0  0  0
  187.9790  178.0680  140.1470 C   0  0  0  0  0  2  0  0  0  0  0  0
  191.1420  175.8610  138.6230 O   0  0  0  0  0  0  0  0  0  0  0  0
  192.4480  175.8910  147.3440 C   0  0  0  0  0  1  0  0  0  0  0  0
  191.9920  175.9510  146.0270 O   0  0  0  0  0  0  0  0  0  0  0  0
  185.8420  177.8240  143.8090 C   0  0  0  0  0  2  0  0  0  0  0  0
  184.6300  178.6730  144.1520 C   0  0  0  0  0  2  0  0  0  0  0  0
  183.6240  178.6430  143.0160 C   0  0  0  0  0  2  0  0  0  0  0  0
  184.3380  178.5240  141.6790 C   0  0  0  0  0  2  0  0  0  0  0  0
  184.5550  180.1260  139.0870 O   0  0  0  0  0  0  0  0  0  0  0  0
  183.3460  178.6370  140.5310 C   0  0  1  0  0  3  0  0  0  0  0  0
  184.0620  178.9790  139.2460 C   0  0  0  0  0  0  0  0  0  0  0  0
  183.5720  176.8090  138.2620 C   0  0  0  0  0  3  0  0  0  0  0  0
  182.6940  176.5020  139.4040 C   0  0  0  0  0  3  0  0  0  0  0  0
  182.5720  177.3460  140.4330 C   0  0  0  0  0  3  0  0  0  0  0  0
  184.2100  177.9760  138.1800 C   0  0  0  0  0  3  0  0  0  0  0  0
  1 23  1  6  0  0  0
  1  7  1  0  0  0  0
  2 10  1  6  0  0  0
  4 24  1  6  0  0  0
  4 13  1  0  0  0  0
  5  7  1  0  0  0  0
  5  2  1  0  0  0  0
  6 10  1  0  0  0  0
  7  3  1  6  0  0  0
  7  2  1  0  0  0  0
  8 14  1  0  0  0  0
  9  1  1  0  0  0  0
 11  4  1  0  0  0  0
 12 17  1  6  0  0  0
 12 11  1  0  0  0  0
 12  8  1  0  0  0  0
 13  3  1  1  0  0  0
 13  6  1  0  0  0  0
 14  9  2  0  0  0  0
 15 19  1  0  0  0  0
 16 18  2  0  0  0  0
 16 15  1  0  0  0  0
 18 20  1  0  0  0  0
 19 17  2  0  0  0  0
 20 17  1  0  0  0  0
 21 15  2  0  0  0  0
 23 22  1  0  0  0  0
 24 25  1  0  0  0  0
 26 25  1  0  0  0  0
 27 26  1  0  0  0  0
 28 30  2  0  0  0  0
 29 27  1  1  0  0  0
 30 29  1  0  0  0  0
 31 32  1  0  0  0  0
 32 33  2  0  0  0  0
 33 29  1  0  0  0  0
 34 31  2  0  0  0  0
 34 30  1  0  0  0  0
M  END
>  <MODEL>
8

>  <REMARK>
 VINA RESULT:      -8.2      2.443      8.266
  Name = 
  7 active torsions:
  status: ('A' for Active; 'I' for Inactive)
    1  A    between atoms: C_1  and  O_19
    2  A    between atoms: C_3  and  C_13
    3  A    between atoms: C_3  and  C_17
    4  A    between atoms: C_5  and  C_18
    5  A    between atoms: C_12  and  C_28
    6  A    between atoms: C_17  and  C_29
    7  A    between atoms: C_18  and  C_29
                            x       y       z     vdW  Elec       q    Type
                         _______ _______ _______ _____ _____    ______ ____

>  <TORSDO>
F 7

$$$$
=
 OpenBabel10252414533D

 34 38  0  0  1  0  0  0  0  0999 V2000
  183.6960  179.2500  143.5910 C   0  0  2  0  0  3  0  0  0  0  0  0
  183.5580  178.4690  141.0150 C   0  0  1  0  0  3  0  0  0  0  0  0
  185.6780  179.5600  141.9100 C   0  0  0  0  0  2  0  0  0  0  0  0
  187.9570  178.6720  141.3450 C   0  0  2  0  0  3  0  0  0  0  0  0
  184.1770  177.5790  141.9120 O   0  0  0  0  0  0  0  0  0  0  0  0
  185.9030  178.5880  139.7000 C   0  0  0  0  0  2  0  0  0  0  0  0
  184.3150  178.9570  142.2100 C   0  0  1  0  0  0  0  0  0  0  0  0
  186.2920  177.5580  144.0730 C   0  0  0  0  0  2  0  0  0  0  0  0
  184.7430  179.4730  144.6740 C   0  0  0  0  0  3  0  0  0  0  0  0
  184.3530  178.4150  139.6690 C   0  0  0  0  0  2  0  0  0  0  0  0
  188.2820  178.7440  142.8550 C   0  0  0  0  0  2  0  0  0  0  0  0
  187.7900  177.5420  143.6930 C   0  0  1  0  0  3  0  0  0  0  0  0
  186.4520  178.5450  141.1200 C   0  0  2  0  0  3  0  0  0  0  0  0
  185.8660  178.7520  144.8880 C   0  0  0  0  0  3  0  0  0  0  0  0
  189.0560  177.0540  147.2690 C   0  0  0  0  0  0  0  0  0  0  0  0
  190.4760  176.7650  147.0570 C   0  0  0  0  0  3  0  0  0  0  0  0
  188.6820  177.2800  144.8700 C   0  0  0  0  0  0  0  0  0  0  0  0
  190.9810  176.7490  145.8240 C   0  0  0  0  0  3  0  0  0  0  0  0
  188.1880  177.3010  146.1150 C   0  0  0  0  0  3  0  0  0  0  0  0
  190.1480  177.0370  144.5960 C   0  0  0  0  0  2  0  0  0  0  0  0
  188.5830  177.0840  148.4350 O   0  0  0  0  0  0  0  0  0  0  0  0
  181.5500  178.8810  144.0030 C   0  0  0  0  0  1  0  0  0  0  0  0
  182.7970  178.2550  143.9900 O   0  0  0  0  0  0  0  0  0  0  0  0
  188.7100  177.5080  140.7140 C   0  0  0  0  0  2  0  0  0  0  0  0
  189.2770  177.9150  139.3650 C   0  0  0  0  0  2  0  0  0  0  0  0
  189.4160  176.7020  138.4630 C   0  0  0  0  0  2  0  0  0  0  0  0
  190.7440  176.0040  138.7130 C   0  0  0  0  0  2  0  0  0  0  0  0
  193.5630  177.0720  139.2070 O   0  0  0  0  0  0  0  0  0  0  0  0
  191.7880  176.4650  137.7080 C   0  0  1  0  0  3  0  0  0  0  0  0
  193.1770  176.3110  138.2820 C   0  0  0  0  0  0  0  0  0  0  0  0
  193.7540  174.5470  136.7100 C   0  0  0  0  0  3  0  0  0  0  0  0
  192.4950  174.7950  135.9870 C   0  0  0  0  0  3  0  0  0  0  0  0
  191.6040  175.6870  136.4290 C   0  0  0  0  0  3  0  0  0  0  0  0
  194.0820  175.2640  137.7840 C   0  0  0  0  0  3  0  0  0  0  0  0
  1 23  1  1  0  0  0
  1  9  1  0  0  0  0
  2 10  1  6  0  0  0
  2  5  1  0  0  0  0
  2  7  1  0  0  0  0
  4 24  1  1  0  0  0
  4 11  1  0  0  0  0
  5  7  1  0  0  0  0
  7  3  1  6  0  0  0
  7  1  1  0  0  0  0
  8 14  1  0  0  0  0
  9 14  2  0  0  0  0
 10  6  1  0  0  0  0
 11 12  1  0  0  0  0
 12  8  1  0  0  0  0
 12 17  1  1  0  0  0
 13  6  1  6  0  0  0
 13  4  1  0  0  0  0
 13  3  1  0  0  0  0
 15 21  2  0  0  0  0
 16 15  1  0  0  0  0
 17 19  2  0  0  0  0
 18 16  2  0  0  0  0
 19 15  1  0  0  0  0
 20 17  1  0  0  0  0
 20 18  1  0  0  0  0
 23 22  1  0  0  0  0
 25 24  1  0  0  0  0
 26 27  1  0  0  0  0
 26 25  1  0  0  0  0
 29 30  1  0  0  0  0
 29 27  1  1  0  0  0
 30 28  2  0  0  0  0
 31 34  2  0  0  0  0
 32 33  2  0  0  0  0
 32 31  1  0  0  0  0
 33 29  1  0  0  0  0
 34 30  1  0  0  0  0
M  END
>  <MODEL>
9

>  <REMARK>
 VINA RESULT:      -7.9      3.120      7.247
  Name = 
  7 active torsions:
  status: ('A' for Active; 'I' for Inactive)
    1  A    between atoms: C_1  and  O_19
    2  A    between atoms: C_3  and  C_13
    3  A    between atoms: C_3  and  C_17
    4  A    between atoms: C_5  and  C_18
    5  A    between atoms: C_12  and  C_28
    6  A    between atoms: C_17  and  C_29
    7  A    between atoms: C_18  and  C_29
                            x       y       z     vdW  Elec       q    Type
                         _______ _______ _______ _____ _____    ______ ____

>  <TORSDO>
F 7

$$$$
