=
 OpenBabel10252415053D

 34 39  0  0  1  0  0  0  0  0999 V2000
  185.7270  176.0280  137.1670 C   0  0  2  0  0  3  0  0  0  0  0  0
  187.1370  178.1370  137.0080 C   0  0  0  0  0  0  0  0  0  0  0  0
  184.8710  178.2410  138.0620 C   0  0  1  0  0  3  0  0  0  0  0  0
  183.6810  178.5640  141.6020 C   0  0  0  0  0  2  0  0  0  0  0  0
  187.3110  176.4590  135.2260 C   0  0  0  0  0  2  0  0  0  0  0  0
  188.0760  177.4720  136.0580 C   0  0  0  0  0  2  0  0  0  0  0  0
  186.3240  178.1970  140.2620 C   0  0  0  0  0  2  0  0  0  0  0  0
  185.9630  177.4460  137.4800 N   0  0  0  0  0  0  0  0  0  0  0  0
  184.9450  178.2850  142.4290 C   0  0  0  0  0  2  0  0  0  0  0  0
  186.7080  175.4180  136.1560 C   0  0  0  0  0  2  0  0  0  0  0  0
  183.4490  177.6150  137.9070 C   0  0  2  0  0  3  0  0  0  0  0  0
  184.2940  175.8620  136.7100 C   0  0  0  0  0  2  0  0  0  0  0  0
  187.3860  179.3110  137.3910 O   0  0  0  0  0  0  0  0  0  0  0  0
  183.8820  177.9390  140.2320 C   0  0  1  0  0  3  0  0  0  0  0  0
  182.7400  177.9390  139.2260 C   0  0  1  0  0  3  0  0  0  0  0  0
  186.2330  178.7360  141.7020 C   0  0  1  0  0  3  0  0  0  0  0  0
  185.0450  178.5880  139.5380 C   0  0  2  0  0  3  0  0  0  0  0  0
  183.4670  176.2080  137.7860 O   0  0  0  0  0  0  0  0  0  0  0  0
  181.7990  181.6000  138.6460 C   0  0  0  0  0  0  0  0  0  0  0  0
  180.4790  181.6060  139.1020 C   0  0  0  0  0  3  0  0  0  0  0  0
  181.9700  179.2320  139.1640 C   0  0  0  0  0  0  0  0  0  0  0  0
  179.9020  180.4290  139.5890 C   0  0  0  0  0  3  0  0  0  0  0  0
  182.5440  180.4180  138.6770 C   0  0  0  0  0  3  0  0  0  0  0  0
  180.6470  179.2460  139.6200 C   0  0  0  0  0  3  0  0  0  0  0  0
  182.3580  182.7400  138.1760 F   0  0  0  0  0  0  0  0  0  0  0  0
  187.6700  177.1200  142.9130 C   0  0  0  0  0  3  0  0  0  0  0  0
  187.4520  178.3690  142.4910 C   0  0  0  0  0  3  0  0  0  0  0  0
  190.1500  176.0370  141.7850 O   0  0  0  0  0  1  0  0  0  0  0  0
  188.8940  176.7760  143.7020 C   0  0  1  0  0  3  0  0  0  0  0  0
  190.1650  176.9350  142.8520 C   0  0  1  0  0  3  0  0  0  0  0  0
  191.4480  177.6080  144.9010 C   0  0  0  0  0  2  0  0  0  0  0  0
  190.1980  177.4080  145.7510 C   0  0  0  0  0  2  0  0  0  0  0  0
  188.9530  177.6970  144.9200 C   0  0  0  0  0  2  0  0  0  0  0  0
  191.4110  176.6740  143.6970 C   0  0  0  0  0  2  0  0  0  0  0  0
  1 10  1  6  0  0  0
  1  8  1  0  0  0  0
  2 13  2  0  0  0  0
  2  8  1  0  0  0  0
  3  8  1  1  0  0  0
  3 17  1  0  0  0  0
  4  9  1  0  0  0  0
  5  6  1  0  0  0  0
  5 10  1  0  0  0  0
  6  2  1  0  0  0  0
  7 16  1  0  0  0  0
 11 18  1  1  0  0  0
 11  3  1  0  0  0  0
 11 15  1  0  0  0  0
 12  1  1  0  0  0  0
 12 18  1  0  0  0  0
 14  4  1  1  0  0  0
 15 21  1  6  0  0  0
 15 14  1  0  0  0  0
 16  9  1  0  0  0  0
 16 27  1  1  0  0  0
 17 14  1  0  0  0  0
 17  7  1  1  0  0  0
 19 23  2  0  0  0  0
 19 20  1  0  0  0  0
 20 22  2  0  0  0  0
 21 24  2  0  0  0  0
 22 24  1  0  0  0  0
 23 21  1  0  0  0  0
 25 19  1  0  0  0  0
 27 26  2  0  0  0  0
 29 26  1  6  0  0  0
 29 33  1  0  0  0  0
 30 28  1  6  0  0  0
 30 34  1  0  0  0  0
 30 29  1  0  0  0  0
 31 32  1  0  0  0  0
 33 32  1  0  0  0  0
 34 31  1  0  0  0  0
M  END
>  <MODEL>
1

>  <REMARK>
 VINA RESULT:      -8.8      0.000      0.000
  Name = 
  3 active torsions:
  status: ('A' for Active; 'I' for Inactive)
    1  A    between atoms: C_3  and  C_13
    2  A    between atoms: C_12  and  C_28
    3  A    between atoms: C_17  and  C_29
                            x       y       z     vdW  Elec       q    Type
                         _______ _______ _______ _____ _____    ______ ____

>  <TORSDO>
F 3

$$$$
=
 OpenBabel10252415053D

 34 39  0  0  1  0  0  0  0  0999 V2000
  184.5230  175.6910  137.2080 C   0  0  2  0  0  3  0  0  0  0  0  0
  186.2380  177.4750  137.7860 C   0  0  0  0  0  0  0  0  0  0  0  0
  183.8450  178.1220  137.4560 C   0  0  1  0  0  3  0  0  0  0  0  0
  181.0950  179.1330  139.7940 C   0  0  0  0  0  2  0  0  0  0  0  0
  186.9350  175.5640  136.4130 C   0  0  0  0  0  2  0  0  0  0  0  0
  187.3590  176.5310  137.5030 C   0  0  0  0  0  2  0  0  0  0  0  0
  183.8900  178.1240  140.0920 C   0  0  0  0  0  2  0  0  0  0  0  0
  184.8710  177.0740  137.5680 N   0  0  0  0  0  0  0  0  0  0  0  0
  181.6470  178.7510  141.1760 C   0  0  0  0  0  2  0  0  0  0  0  0
  185.7220  174.7840  136.8960 C   0  0  0  0  0  2  0  0  0  0  0  0
  182.6130  177.7420  136.5740 C   0  0  2  0  0  3  0  0  0  0  0  0
  183.5420  175.7190  136.0570 C   0  0  0  0  0  2  0  0  0  0  0  0
  186.5060  178.6280  138.2180 O   0  0  0  0  0  0  0  0  0  0  0  0
  181.8340  178.3000  138.7600 C   0  0  1  0  0  3  0  0  0  0  0  0
  181.4160  178.3640  137.2990 C   0  0  1  0  0  3  0  0  0  0  0  0
  183.1870  178.8630  141.2460 C   0  0  1  0  0  3  0  0  0  0  0  0
  183.2990  178.6310  138.7860 C   0  0  2  0  0  3  0  0  0  0  0  0
  182.3780  176.3500  136.5120 O   0  0  0  0  0  0  0  0  0  0  0  0
  180.8040  182.1370  137.1640 C   0  0  0  0  0  0  0  0  0  0  0  0
  180.4790  182.3010  135.8160 C   0  0  0  0  0  3  0  0  0  0  0  0
  181.1000  179.7520  136.8050 C   0  0  0  0  0  0  0  0  0  0  0  0
  180.4620  181.1950  134.9610 C   0  0  0  0  0  3  0  0  0  0  0  0
  181.1140  180.8670  137.6590 C   0  0  0  0  0  3  0  0  0  0  0  0
  180.7710  179.9240  135.4560 C   0  0  0  0  0  3  0  0  0  0  0  0
  180.8190  183.2080  137.9930 F   0  0  0  0  0  0  0  0  0  0  0  0
  185.0070  178.3490  142.8480 C   0  0  0  0  0  3  0  0  0  0  0  0
  183.7010  178.3980  142.5740 C   0  0  0  0  0  3  0  0  0  0  0  0
  187.5540  176.9730  143.3120 O   0  0  0  0  0  1  0  0  0  0  0  0
  185.4980  177.8780  144.1800 C   0  0  1  0  0  3  0  0  0  0  0  0
  187.0340  177.8780  144.2370 C   0  0  1  0  0  3  0  0  0  0  0  0
  186.9410  178.4290  146.6840 C   0  0  0  0  0  2  0  0  0  0  0  0
  185.4180  178.3850  146.6370 C   0  0  0  0  0  2  0  0  0  0  0  0
  184.9280  178.8020  145.2550 C   0  0  0  0  0  2  0  0  0  0  0  0
  187.5190  177.4880  145.6330 C   0  0  0  0  0  2  0  0  0  0  0  0
  1 12  1  6  0  0  0
  1  8  1  0  0  0  0
  2 13  2  0  0  0  0
  3  8  1  1  0  0  0
  3 17  1  0  0  0  0
  4  9  1  0  0  0  0
  5 10  1  0  0  0  0
  5  6  1  0  0  0  0
  6  2  1  0  0  0  0
  7 16  1  0  0  0  0
  8  2  1  0  0  0  0
  9 16  1  0  0  0  0
 10  1  1  0  0  0  0
 11 18  1  1  0  0  0
 11 15  1  0  0  0  0
 11  3  1  0  0  0  0
 12 18  1  0  0  0  0
 14 17  1  0  0  0  0
 14  4  1  1  0  0  0
 15 21  1  6  0  0  0
 15 14  1  0  0  0  0
 16 27  1  1  0  0  0
 17  7  1  1  0  0  0
 19 23  1  0  0  0  0
 19 25  1  0  0  0  0
 20 19  2  0  0  0  0
 21 23  2  0  0  0  0
 22 24  2  0  0  0  0
 22 20  1  0  0  0  0
 24 21  1  0  0  0  0
 27 26  2  0  0  0  0
 29 26  1  6  0  0  0
 29 30  1  0  0  0  0
 29 33  1  0  0  0  0
 30 28  1  6  0  0  0
 30 34  1  0  0  0  0
 32 31  1  0  0  0  0
 33 32  1  0  0  0  0
 34 31  1  0  0  0  0
M  END
>  <MODEL>
2

>  <REMARK>
 VINA RESULT:      -8.3      1.982      2.909
  Name = 
  3 active torsions:
  status: ('A' for Active; 'I' for Inactive)
    1  A    between atoms: C_3  and  C_13
    2  A    between atoms: C_12  and  C_28
    3  A    between atoms: C_17  and  C_29
                            x       y       z     vdW  Elec       q    Type
                         _______ _______ _______ _____ _____    ______ ____

>  <TORSDO>
F 3

$$$$
=
 OpenBabel10252415053D

 34 39  0  0  1  0  0  0  0  0999 V2000
  188.1330  177.5540  135.7290 C   0  0  2  0  0  3  0  0  0  0  0  0
  187.0750  175.6800  137.0800 C   0  0  0  0  0  0  0  0  0  0  0  0
  189.5610  175.7610  136.8140 C   0  0  1  0  0  3  0  0  0  0  0  0
  192.3780  176.6630  139.1160 C   0  0  0  0  0  2  0  0  0  0  0  0
  185.8540  176.5860  135.1550 C   0  0  0  0  0  2  0  0  0  0  0  0
  185.7210  176.0300  136.5600 C   0  0  0  0  0  2  0  0  0  0  0  0
  189.3960  176.7540  139.2510 C   0  0  0  0  0  2  0  0  0  0  0  0
  188.2430  176.3820  136.6110 N   0  0  0  0  0  0  0  0  0  0  0  0
  191.6680  177.3460  140.2950 C   0  0  0  0  0  2  0  0  0  0  0  0
  186.7190  177.8360  135.2020 C   0  0  0  0  0  2  0  0  0  0  0  0
  190.6390  176.1480  135.7520 C   0  0  2  0  0  3  0  0  0  0  0  0
  189.1220  177.4040  134.5940 C   0  0  0  0  0  2  0  0  0  0  0  0
  187.1820  174.7610  137.9350 O   0  0  0  0  0  0  0  0  0  0  0  0
  191.4550  176.7510  137.9120 C   0  0  1  0  0  3  0  0  0  0  0  0
  191.9390  176.2710  136.5520 C   0  0  1  0  0  3  0  0  0  0  0  0
  190.2490  176.7810  140.5330 C   0  0  1  0  0  3  0  0  0  0  0  0
  190.1820  176.0040  138.1860 C   0  0  2  0  0  3  0  0  0  0  0  0
  190.4060  177.4050  135.1510 O   0  0  0  0  0  0  0  0  0  0  0  0
  192.9370  172.6000  136.1550 C   0  0  0  0  0  0  0  0  0  0  0  0
  194.2130  172.6140  136.7220 C   0  0  0  0  0  3  0  0  0  0  0  0
  192.7160  174.9800  136.5910 C   0  0  0  0  0  0  0  0  0  0  0  0
  194.7430  173.8050  137.2250 C   0  0  0  0  0  3  0  0  0  0  0  0
  192.1890  173.7790  136.0890 C   0  0  0  0  0  3  0  0  0  0  0  0
  193.9940  174.9850  137.1600 C   0  0  0  0  0  3  0  0  0  0  0  0
  192.4230  171.4450  135.6690 F   0  0  0  0  0  0  0  0  0  0  0  0
  188.8530  176.8990  142.5780 C   0  0  0  0  0  3  0  0  0  0  0  0
  189.5500  177.5280  141.6270 C   0  0  0  0  0  3  0  0  0  0  0  0
  186.1810  178.0850  142.3520 O   0  0  0  0  0  1  0  0  0  0  0  0
  188.1600  177.6650  143.6600 C   0  0  1  0  0  3  0  0  0  0  0  0
  186.6330  177.5250  143.5480 C   0  0  1  0  0  3  0  0  0  0  0  0
  186.4380  177.6790  146.0450 C   0  0  0  0  0  2  0  0  0  0  0  0
  187.9480  177.8620  146.1530 C   0  0  0  0  0  2  0  0  0  0  0  0
  188.6430  177.1330  145.0080 C   0  0  0  0  0  2  0  0  0  0  0  0
  185.9430  178.2320  144.7140 C   0  0  0  0  0  2  0  0  0  0  0  0
  1 12  1  6  0  0  0
  1  8  1  0  0  0  0
  2 13  2  0  0  0  0
  3  8  1  6  0  0  0
  3 17  1  0  0  0  0
  4  9  1  0  0  0  0
  5 10  1  0  0  0  0
  5  6  1  0  0  0  0
  6  2  1  0  0  0  0
  7 16  1  0  0  0  0
  8  2  1  0  0  0  0
  9 16  1  0  0  0  0
 10  1  1  0  0  0  0
 11 18  1  1  0  0  0
 11 15  1  0  0  0  0
 11  3  1  0  0  0  0
 12 18  1  0  0  0  0
 14 17  1  0  0  0  0
 14  4  1  1  0  0  0
 15 21  1  1  0  0  0
 15 14  1  0  0  0  0
 16 27  1  1  0  0  0
 17  7  1  1  0  0  0
 19 20  1  0  0  0  0
 20 22  2  0  0  0  0
 21 24  2  0  0  0  0
 23 19  2  0  0  0  0
 23 21  1  0  0  0  0
 24 22  1  0  0  0  0
 25 19  1  0  0  0  0
 27 26  2  0  0  0  0
 29 26  1  6  0  0  0
 29 33  1  0  0  0  0
 30 28  1  6  0  0  0
 30 29  1  0  0  0  0
 30 34  1  0  0  0  0
 31 32  1  0  0  0  0
 33 32  1  0  0  0  0
 34 31  1  0  0  0  0
M  END
>  <MODEL>
3

>  <REMARK>
 VINA RESULT:      -7.7      4.618      8.017
  Name = 
  3 active torsions:
  status: ('A' for Active; 'I' for Inactive)
    1  A    between atoms: C_3  and  C_13
    2  A    between atoms: C_12  and  C_28
    3  A    between atoms: C_17  and  C_29
                            x       y       z     vdW  Elec       q    Type
                         _______ _______ _______ _____ _____    ______ ____

>  <TORSDO>
F 3

$$$$
=
 OpenBabel10252415053D

 34 39  0  0  1  0  0  0  0  0999 V2000
  182.1520  174.9220  136.9880 C   0  0  2  0  0  3  0  0  0  0  0  0
  184.2170  175.5970  135.6700 C   0  0  0  0  0  0  0  0  0  0  0  0
  182.6190  177.3560  136.4520 C   0  0  1  0  0  3  0  0  0  0  0  0
  182.7490  179.9410  139.1630 C   0  0  0  0  0  2  0  0  0  0  0  0
  183.1400  173.4510  135.1650 C   0  0  0  0  0  2  0  0  0  0  0  0
  184.4660  174.1790  135.2780 C   0  0  0  0  0  2  0  0  0  0  0  0
  184.4760  177.6640  138.2990 C   0  0  0  0  0  2  0  0  0  0  0  0
  183.0500  175.9490  136.4390 N   0  0  0  0  0  0  0  0  0  0  0  0
  183.9510  179.5040  140.0140 C   0  0  0  0  0  2  0  0  0  0  0  0
  182.4440  173.4900  136.5160 C   0  0  0  0  0  2  0  0  0  0  0  0
  181.0880  177.5710  136.6670 C   0  0  2  0  0  3  0  0  0  0  0  0
  180.7210  175.3160  136.6930 C   0  0  0  0  0  2  0  0  0  0  0  0
  185.0410  176.4820  135.3170 O   0  0  0  0  0  0  0  0  0  0  0  0
  182.2620  178.7230  138.3960 C   0  0  1  0  0  3  0  0  0  0  0  0
  180.9960  178.8130  137.5590 C   0  0  1  0  0  3  0  0  0  0  0  0
  185.0400  178.7990  139.1730 C   0  0  1  0  0  3  0  0  0  0  0  0
  183.3390  178.2380  137.4690 C   0  0  2  0  0  3  0  0  0  0  0  0
  180.4670  176.5150  137.3710 O   0  0  0  0  0  0  0  0  0  0  0  0
  180.7180  182.5060  136.6020 C   0  0  0  0  0  0  0  0  0  0  0  0
  180.6070  182.4090  135.2140 C   0  0  0  0  0  3  0  0  0  0  0  0
  180.8690  180.0860  136.7620 C   0  0  0  0  0  0  0  0  0  0  0  0
  180.6260  181.1540  134.5960 C   0  0  0  0  0  3  0  0  0  0  0  0
  180.8480  181.3490  137.3760 C   0  0  0  0  0  3  0  0  0  0  0  0
  180.7550  179.9960  135.3700 C   0  0  0  0  0  3  0  0  0  0  0  0
  180.6990  183.7210  137.2000 F   0  0  0  0  0  0  0  0  0  0  0  0
  186.4450  178.8780  141.2140 C   0  0  0  0  0  3  0  0  0  0  0  0
  186.1540  178.3040  140.0430 C   0  0  0  0  0  3  0  0  0  0  0  0
  186.2100  178.1600  144.0460 O   0  0  0  0  0  1  0  0  0  0  0  0
  187.5640  178.3690  142.0660 C   0  0  1  0  0  3  0  0  0  0  0  0
  187.0390  177.4480  143.1790 C   0  0  1  0  0  3  0  0  0  0  0  0
  189.1550  176.1050  143.0630 C   0  0  0  0  0  2  0  0  0  0  0  0
  189.6950  177.0450  141.9900 C   0  0  0  0  0  2  0  0  0  0  0  0
  188.5420  177.6110  141.1690 C   0  0  0  0  0  2  0  0  0  0  0  0
  188.1990  176.8590  143.9800 C   0  0  0  0  0  2  0  0  0  0  0  0
  1 10  1  6  0  0  0
  2  8  1  0  0  0  0
  3  8  1  1  0  0  0
  3 11  1  0  0  0  0
  3 17  1  0  0  0  0
  4  9  1  0  0  0  0
  5  6  1  0  0  0  0
  5 10  1  0  0  0  0
  6  2  1  0  0  0  0
  7 16  1  0  0  0  0
  8  1  1  0  0  0  0
 11 18  1  1  0  0  0
 11 15  1  0  0  0  0
 12  1  1  0  0  0  0
 12 18  1  0  0  0  0
 13  2  2  0  0  0  0
 14  4  1  6  0  0  0
 15 21  1  6  0  0  0
 15 14  1  0  0  0  0
 16  9  1  0  0  0  0
 16 27  1  1  0  0  0
 17  7  1  1  0  0  0
 17 14  1  0  0  0  0
 19 25  1  0  0  0  0
 19 23  1  0  0  0  0
 20 19  2  0  0  0  0
 21 23  2  0  0  0  0
 22 20  1  0  0  0  0
 22 24  2  0  0  0  0
 24 21  1  0  0  0  0
 27 26  2  0  0  0  0
 29 26  1  6  0  0  0
 29 30  1  0  0  0  0
 30 34  1  0  0  0  0
 30 28  1  1  0  0  0
 31 34  1  0  0  0  0
 32 31  1  0  0  0  0
 33 32  1  0  0  0  0
 33 29  1  0  0  0  0
M  END
>  <MODEL>
4

>  <REMARK>
 VINA RESULT:      -6.6      2.365      3.498
  Name = 
  3 active torsions:
  status: ('A' for Active; 'I' for Inactive)
    1  A    between atoms: C_3  and  C_13
    2  A    between atoms: C_12  and  C_28
    3  A    between atoms: C_17  and  C_29
                            x       y       z     vdW  Elec       q    Type
                         _______ _______ _______ _____ _____    ______ ____

>  <TORSDO>
F 3

$$$$
=
 OpenBabel10252415053D

 34 39  0  0  1  0  0  0  0  0999 V2000
  180.8740  181.8360  137.8180 C   0  0  2  0  0  3  0  0  0  0  0  0
  179.5410  181.0800  139.8460 C   0  0  0  0  0  0  0  0  0  0  0  0
  180.4840  179.3730  138.2800 C   0  0  1  0  0  3  0  0  0  0  0  0
  183.3520  176.9690  138.5000 C   0  0  0  0  0  2  0  0  0  0  0  0
  178.9310  183.1860  138.7460 C   0  0  0  0  0  2  0  0  0  0  0  0
  179.0500  182.4700  140.0780 C   0  0  0  0  0  2  0  0  0  0  0  0
  182.2900  179.1890  140.1920 C   0  0  0  0  0  2  0  0  0  0  0  0
  180.3660  180.7760  138.7040 N   0  0  0  0  0  0  0  0  0  0  0  0
  184.1360  177.4630  139.7250 C   0  0  0  0  0  2  0  0  0  0  0  0
  180.3020  183.2340  138.0900 C   0  0  0  0  0  2  0  0  0  0  0  0
  180.7580  179.1680  136.7560 C   0  0  2  0  0  3  0  0  0  0  0  0
  180.6490  181.4200  136.3810 C   0  0  0  0  0  2  0  0  0  0  0  0
  179.2220  180.1760  140.6630 O   0  0  0  0  0  0  0  0  0  0  0  0
  182.5220  178.1340  137.9860 C   0  0  1  0  0  3  0  0  0  0  0  0
  181.7310  177.9870  136.6950 C   0  0  1  0  0  3  0  0  0  0  0  0
  183.2190  178.1140  140.7860 C   0  0  1  0  0  3  0  0  0  0  0  0
  181.5330  178.5600  139.0330 C   0  0  2  0  0  3  0  0  0  0  0  0
  181.4100  180.2670  136.1530 O   0  0  0  0  0  0  0  0  0  0  0  0
  180.9580  174.3330  135.8680 C   0  0  0  0  0  0  0  0  0  0  0  0
  179.6310  174.2450  136.2920 C   0  0  0  0  0  3  0  0  0  0  0  0
  181.0230  176.6650  136.5510 C   0  0  0  0  0  0  0  0  0  0  0  0
  178.9960  175.3610  136.8440 C   0  0  0  0  0  3  0  0  0  0  0  0
  181.6540  175.5390  135.9950 C   0  0  0  0  0  3  0  0  0  0  0  0
  179.6910  176.5680  136.9710 C   0  0  0  0  0  3  0  0  0  0  0  0
  181.5730  173.2520  135.3320 F   0  0  0  0  0  0  0  0  0  0  0  0
  184.5640  177.8770  142.8550 C   0  0  0  0  0  3  0  0  0  0  0  0
  184.0210  178.6670  141.9240 C   0  0  0  0  0  3  0  0  0  0  0  0
  183.4400  179.3650  145.1170 O   0  0  0  0  0  1  0  0  0  0  0  0
  185.3590  178.4510  143.9840 C   0  0  1  0  0  3  0  0  0  0  0  0
  184.5280  178.5060  145.2760 C   0  0  1  0  0  3  0  0  0  0  0  0
  186.6060  178.1160  146.6270 C   0  0  0  0  0  2  0  0  0  0  0  0
  187.4370  178.1050  145.3490 C   0  0  0  0  0  2  0  0  0  0  0  0
  186.5980  177.5810  144.1890 C   0  0  0  0  0  2  0  0  0  0  0  0
  185.3810  179.0040  146.4430 C   0  0  0  0  0  2  0  0  0  0  0  0
  1 12  1  6  0  0  0
  1 10  1  0  0  0  0
  1  8  1  0  0  0  0
  2  6  1  0  0  0  0
  2 13  2  0  0  0  0
  3  8  1  1  0  0  0
  3 17  1  0  0  0  0
  4  9  1  0  0  0  0
  5  6  1  0  0  0  0
  7 16  1  0  0  0  0
  8  2  1  0  0  0  0
  9 16  1  0  0  0  0
 10  5  1  0  0  0  0
 11 18  1  1  0  0  0
 11  3  1  0  0  0  0
 14  4  1  1  0  0  0
 14 17  1  0  0  0  0
 15 21  1  1  0  0  0
 15 11  1  0  0  0  0
 15 14  1  0  0  0  0
 16 27  1  1  0  0  0
 17  7  1  1  0  0  0
 18 12  1  0  0  0  0
 19 23  2  0  0  0  0
 19 20  1  0  0  0  0
 20 22  2  0  0  0  0
 21 24  2  0  0  0  0
 22 24  1  0  0  0  0
 23 21  1  0  0  0  0
 25 19  1  0  0  0  0
 27 26  2  0  0  0  0
 29 26  1  6  0  0  0
 29 33  1  0  0  0  0
 29 30  1  0  0  0  0
 30 28  1  6  0  0  0
 30 34  1  0  0  0  0
 32 31  1  0  0  0  0
 33 32  1  0  0  0  0
 34 31  1  0  0  0  0
M  END
>  <MODEL>
5

>  <REMARK>
 VINA RESULT:      -6.5      3.768      6.275
  Name = 
  3 active torsions:
  status: ('A' for Active; 'I' for Inactive)
    1  A    between atoms: C_3  and  C_13
    2  A    between atoms: C_12  and  C_28
    3  A    between atoms: C_17  and  C_29
                            x       y       z     vdW  Elec       q    Type
                         _______ _______ _______ _____ _____    ______ ____

>  <TORSDO>
F 3

$$$$
=
 OpenBabel10252415053D

 34 39  0  0  1  0  0  0  0  0999 V2000
  187.2520  177.2760  135.9950 C   0  0  2  0  0  3  0  0  0  0  0  0
  186.7960  175.0320  137.0970 C   0  0  0  0  0  0  0  0  0  0  0  0
  189.1570  175.7520  136.6890 C   0  0  1  0  0  3  0  0  0  0  0  0
  191.9040  176.9850  138.9220 C   0  0  0  0  0  2  0  0  0  0  0  0
  185.2130  175.8710  135.4210 C   0  0  0  0  0  2  0  0  0  0  0  0
  185.3530  175.1100  136.7260 C   0  0  0  0  0  2  0  0  0  0  0  0
  189.0100  176.3270  139.2580 C   0  0  0  0  0  2  0  0  0  0  0  0
  187.7170  176.0550  136.6720 N   0  0  0  0  0  0  0  0  0  0  0  0
  191.1760  177.3040  140.2360 C   0  0  0  0  0  2  0  0  0  0  0  0
  185.7660  177.2740  135.6110 C   0  0  0  0  0  2  0  0  0  0  0  0
  190.0050  176.5330  135.6360 C   0  0  2  0  0  3  0  0  0  0  0  0
  188.1310  177.5300  134.7900 C   0  0  0  0  0  2  0  0  0  0  0  0
  187.1970  174.0570  137.7860 O   0  0  0  0  0  0  0  0  0  0  0  0
  190.8710  177.0120  137.8080 C   0  0  1  0  0  3  0  0  0  0  0  0
  191.3140  176.8570  136.3610 C   0  0  1  0  0  3  0  0  0  0  0  0
  189.9570  176.3830  140.4720 C   0  0  1  0  0  3  0  0  0  0  0  0
  189.8380  175.9470  138.0400 C   0  0  2  0  0  3  0  0  0  0  0  0
  189.4290  177.7670  135.2580 O   0  0  0  0  0  0  0  0  0  0  0  0
  194.6760  175.0410  136.1870 C   0  0  0  0  0  0  0  0  0  0  0  0
  194.2750  173.7960  135.6970 C   0  0  0  0  0  3  0  0  0  0  0  0
  192.3680  175.8020  136.1460 C   0  0  0  0  0  0  0  0  0  0  0  0
  192.9250  173.5510  135.4300 C   0  0  0  0  0  3  0  0  0  0  0  0
  193.7270  176.0430  136.4100 C   0  0  0  0  0  3  0  0  0  0  0  0
  191.9750  174.5530  135.6530 C   0  0  0  0  0  3  0  0  0  0  0  0
  195.9840  175.2790  136.4440 F   0  0  0  0  0  0  0  0  0  0  0  0
  189.2320  176.0230  142.8140 C   0  0  0  0  0  3  0  0  0  0  0  0
  189.2170  176.7780  141.7120 C   0  0  0  0  0  3  0  0  0  0  0  0
  190.4680  176.8630  145.3360 O   0  0  0  0  0  1  0  0  0  0  0  0
  188.4830  176.4350  144.0420 C   0  0  1  0  0  3  0  0  0  0  0  0
  189.2900  177.4470  144.8700 C   0  0  1  0  0  3  0  0  0  0  0  0
  187.1560  178.5430  145.6070 C   0  0  0  0  0  2  0  0  0  0  0  0
  186.3540  177.5130  144.8200 C   0  0  0  0  0  2  0  0  0  0  0  0
  187.1520  177.0480  143.6080 C   0  0  0  0  0  2  0  0  0  0  0  0
  188.4740  177.9320  146.0680 C   0  0  0  0  0  2  0  0  0  0  0  0
  1 12  1  6  0  0  0
  1  8  1  0  0  0  0
  2 13  2  0  0  0  0
  3  8  1  1  0  0  0
  3 17  1  0  0  0  0
  4  9  1  0  0  0  0
  5 10  1  0  0  0  0
  5  6  1  0  0  0  0
  6  2  1  0  0  0  0
  7 16  1  0  0  0  0
  8  2  1  0  0  0  0
  9 16  1  0  0  0  0
 10  1  1  0  0  0  0
 11 18  1  1  0  0  0
 11 15  1  0  0  0  0
 11  3  1  0  0  0  0
 12 18  1  0  0  0  0
 14 17  1  0  0  0  0
 14  4  1  1  0  0  0
 15 21  1  1  0  0  0
 15 14  1  0  0  0  0
 16 27  1  1  0  0  0
 17  7  1  1  0  0  0
 19 23  1  0  0  0  0
 19 25  1  0  0  0  0
 20 19  2  0  0  0  0
 21 23  2  0  0  0  0
 22 24  2  0  0  0  0
 22 20  1  0  0  0  0
 24 21  1  0  0  0  0
 27 26  2  0  0  0  0
 29 26  1  6  0  0  0
 29 30  1  0  0  0  0
 30 28  1  1  0  0  0
 30 34  1  0  0  0  0
 31 34  1  0  0  0  0
 32 31  1  0  0  0  0
 33 29  1  0  0  0  0
 33 32  1  0  0  0  0
M  END
>  <MODEL>
6

>  <REMARK>
 VINA RESULT:      -6.5      4.581      7.716
  Name = 
  3 active torsions:
  status: ('A' for Active; 'I' for Inactive)
    1  A    between atoms: C_3  and  C_13
    2  A    between atoms: C_12  and  C_28
    3  A    between atoms: C_17  and  C_29
                            x       y       z     vdW  Elec       q    Type
                         _______ _______ _______ _____ _____    ______ ____

>  <TORSDO>
F 3

$$$$
=
 OpenBabel10252415053D

 34 39  0  0  1  0  0  0  0  0999 V2000
  181.1310  180.3650  140.0160 C   0  0  2  0  0  3  0  0  0  0  0  0
  180.8390  178.3190  141.4950 C   0  0  0  0  0  0  0  0  0  0  0  0
  182.3730  178.2100  139.5230 C   0  0  1  0  0  3  0  0  0  0  0  0
  186.1030  178.1690  139.1510 C   0  0  0  0  0  2  0  0  0  0  0  0
  178.9310  179.8260  141.1690 C   0  0  0  0  0  2  0  0  0  0  0  0
  179.6530  178.9330  142.1600 C   0  0  0  0  0  2  0  0  0  0  0  0
  184.1860  178.5300  141.4110 C   0  0  0  0  0  2  0  0  0  0  0  0
  181.5000  178.9960  140.4080 N   0  0  0  0  0  0  0  0  0  0  0  0
  186.6030  178.5840  140.5420 C   0  0  0  0  0  2  0  0  0  0  0  0
  179.8820  180.9210  140.7140 C   0  0  0  0  0  2  0  0  0  0  0  0
  182.4860  178.7510  138.0630 C   0  0  2  0  0  3  0  0  0  0  0  0
  180.9910  180.4210  138.5110 C   0  0  0  0  0  2  0  0  0  0  0  0
  181.2530  177.1990  141.8980 O   0  0  0  0  0  0  0  0  0  0  0  0
  184.6750  178.6700  139.0090 C   0  0  1  0  0  3  0  0  0  0  0  0
  183.9510  178.5220  137.6790 C   0  0  1  0  0  3  0  0  0  0  0  0
  185.6490  178.1260  141.6700 C   0  0  1  0  0  3  0  0  0  0  0  0
  183.7970  178.0130  140.0350 C   0  0  2  0  0  3  0  0  0  0  0  0
  182.2480  180.1400  137.9610 O   0  0  0  0  0  0  0  0  0  0  0  0
  183.7450  174.8120  136.7720 C   0  0  0  0  0  0  0  0  0  0  0  0
  184.6410  174.7540  135.7030 C   0  0  0  0  0  3  0  0  0  0  0  0
  184.1670  177.1940  137.0010 C   0  0  0  0  0  0  0  0  0  0  0  0
  185.3020  175.9120  135.2800 C   0  0  0  0  0  3  0  0  0  0  0  0
  183.5080  176.0270  137.4210 C   0  0  0  0  0  3  0  0  0  0  0  0
  185.0660  177.1280  135.9300 C   0  0  0  0  0  3  0  0  0  0  0  0
  183.1050  173.6900  137.1810 F   0  0  0  0  0  0  0  0  0  0  0  0
  186.4710  177.7880  143.9840 C   0  0  0  0  0  3  0  0  0  0  0  0
  186.1160  178.6230  143.0040 C   0  0  0  0  0  3  0  0  0  0  0  0
  184.7320  178.9870  146.0170 O   0  0  0  0  0  1  0  0  0  0  0  0
  186.9310  178.3060  145.3090 C   0  0  1  0  0  3  0  0  0  0  0  0
  185.8220  178.1890  146.3660 C   0  0  1  0  0  3  0  0  0  0  0  0
  187.5550  177.8110  148.1410 C   0  0  0  0  0  2  0  0  0  0  0  0
  188.6580  177.9720  147.1000 C   0  0  0  0  0  2  0  0  0  0  0  0
  188.1580  177.5030  145.7380 C   0  0  0  0  0  2  0  0  0  0  0  0
  186.3360  178.6310  147.7360 C   0  0  0  0  0  2  0  0  0  0  0  0
  1 12  1  6  0  0  0
  1  8  1  0  0  0  0
  1 10  1  0  0  0  0
  2 13  2  0  0  0  0
  2  6  1  0  0  0  0
  3 17  1  0  0  0  0
  3  8  1  1  0  0  0
  4  9  1  0  0  0  0
  5  6  1  0  0  0  0
  7 16  1  0  0  0  0
  8  2  1  0  0  0  0
  9 16  1  0  0  0  0
 10  5  1  0  0  0  0
 11 18  1  1  0  0  0
 11  3  1  0  0  0  0
 14  4  1  6  0  0  0
 14 17  1  0  0  0  0
 15 21  1  1  0  0  0
 15 11  1  0  0  0  0
 15 14  1  0  0  0  0
 16 27  1  1  0  0  0
 17  7  1  1  0  0  0
 18 12  1  0  0  0  0
 19 25  1  0  0  0  0
 19 23  1  0  0  0  0
 20 19  2  0  0  0  0
 21 23  2  0  0  0  0
 22 20  1  0  0  0  0
 22 24  2  0  0  0  0
 24 21  1  0  0  0  0
 27 26  2  0  0  0  0
 29 26  1  6  0  0  0
 29 33  1  0  0  0  0
 29 30  1  0  0  0  0
 30 28  1  6  0  0  0
 30 34  1  0  0  0  0
 32 31  1  0  0  0  0
 33 32  1  0  0  0  0
 34 31  1  0  0  0  0
M  END
>  <MODEL>
7

>  <REMARK>
 VINA RESULT:      -6.4      3.035      5.833
  Name = 
  3 active torsions:
  status: ('A' for Active; 'I' for Inactive)
    1  A    between atoms: C_3  and  C_13
    2  A    between atoms: C_12  and  C_28
    3  A    between atoms: C_17  and  C_29
                            x       y       z     vdW  Elec       q    Type
                         _______ _______ _______ _____ _____    ______ ____

>  <TORSDO>
F 3

$$$$
=
 OpenBabel10252415053D

 34 39  0  0  1  0  0  0  0  0999 V2000
  188.2650  178.0120  136.2160 C   0  0  2  0  0  3  0  0  0  0  0  0
  186.9690  175.8270  136.2780 C   0  0  0  0  0  0  0  0  0  0  0  0
  187.4170  177.0600  138.4080 C   0  0  1  0  0  3  0  0  0  0  0  0
  185.2780  179.1080  140.7060 C   0  0  0  0  0  2  0  0  0  0  0  0
  188.7300  176.1100  134.5940 C   0  0  0  0  0  2  0  0  0  0  0  0
  187.3590  175.5210  134.8710 C   0  0  0  0  0  2  0  0  0  0  0  0
  184.9120  177.8000  138.0460 C   0  0  0  0  0  2  0  0  0  0  0  0
  187.4760  177.0030  136.9390 N   0  0  0  0  0  0  0  0  0  0  0  0
  184.0050  179.3530  139.8820 C   0  0  0  0  0  2  0  0  0  0  0  0
  188.6620  177.6170  134.7860 C   0  0  0  0  0  2  0  0  0  0  0  0
  188.5280  177.9300  139.0760 C   0  0  2  0  0  3  0  0  0  0  0  0
  189.4800  178.3670  137.0450 C   0  0  0  0  0  2  0  0  0  0  0  0
  186.1890  175.0410  136.8800 O   0  0  0  0  0  0  0  0  0  0  0  0
  186.4000  178.7880  139.7320 C   0  0  1  0  0  3  0  0  0  0  0  0
  187.8220  178.6230  140.2450 C   0  0  1  0  0  3  0  0  0  0  0  0
  183.6990  178.1880  138.9130 C   0  0  1  0  0  3  0  0  0  0  0  0
  186.0820  177.5290  138.9790 C   0  0  2  0  0  3  0  0  0  0  0  0
  189.0220  178.9500  138.2330 O   0  0  0  0  0  0  0  0  0  0  0  0
  187.1120  177.2110  143.7280 C   0  0  0  0  0  0  0  0  0  0  0  0
  188.2130  176.3700  143.8990 C   0  0  0  0  0  3  0  0  0  0  0  0
  187.9300  177.8400  141.5290 C   0  0  0  0  0  0  0  0  0  0  0  0
  189.1740  176.2610  142.8890 C   0  0  0  0  0  3  0  0  0  0  0  0
  186.9690  177.9450  142.5480 C   0  0  0  0  0  3  0  0  0  0  0  0
  189.0330  176.9970  141.7080 C   0  0  0  0  0  3  0  0  0  0  0  0
  186.1820  177.3170  144.7070 F   0  0  0  0  0  0  0  0  0  0  0  0
  181.9490  179.7100  138.0390 C   0  0  0  0  0  3  0  0  0  0  0  0
  182.5070  178.4960  138.0610 C   0  0  0  0  0  3  0  0  0  0  0  0
  180.5480  182.2820  137.9090 O   0  0  0  0  0  1  0  0  0  0  0  0
  180.7560  179.9950  137.1820 C   0  0  1  0  0  3  0  0  0  0  0  0
  180.7040  181.4780  136.7800 C   0  0  1  0  0  3  0  0  0  0  0  0
  179.6460  180.8450  134.5940 C   0  0  0  0  0  2  0  0  0  0  0  0
  179.6570  179.3790  135.0120 C   0  0  0  0  0  2  0  0  0  0  0  0
  180.8380  179.1120  135.9380 C   0  0  0  0  0  2  0  0  0  0  0  0
  179.5370  181.7350  135.8270 C   0  0  0  0  0  2  0  0  0  0  0  0
  1 10  1  6  0  0  0
  1  8  1  0  0  0  0
  1 12  1  0  0  0  0
  2 13  2  0  0  0  0
  2  8  1  0  0  0  0
  3  8  1  6  0  0  0
  3 17  1  0  0  0  0
  3 11  1  0  0  0  0
  5 10  1  0  0  0  0
  5  6  1  0  0  0  0
  6  2  1  0  0  0  0
  7 16  1  0  0  0  0
  9  4  1  0  0  0  0
 11 18  1  6  0  0  0
 11 15  1  0  0  0  0
 12 18  1  0  0  0  0
 14 15  1  0  0  0  0
 14  4  1  1  0  0  0
 15 21  1  1  0  0  0
 16 27  1  6  0  0  0
 16  9  1  0  0  0  0
 17  7  1  6  0  0  0
 17 14  1  0  0  0  0
 19 20  1  0  0  0  0
 19 25  1  0  0  0  0
 21 24  2  0  0  0  0
 21 23  1  0  0  0  0
 22 20  2  0  0  0  0
 23 19  2  0  0  0  0
 24 22  1  0  0  0  0
 26 27  2  0  0  0  0
 29 26  1  1  0  0  0
 30 29  1  0  0  0  0
 30 28  1  1  0  0  0
 31 32  1  0  0  0  0
 31 34  1  0  0  0  0
 32 33  1  0  0  0  0
 33 29  1  0  0  0  0
 34 30  1  0  0  0  0
M  END
>  <MODEL>
8

>  <REMARK>
 VINA RESULT:      -6.3      2.790      7.985
  Name = 
  3 active torsions:
  status: ('A' for Active; 'I' for Inactive)
    1  A    between atoms: C_3  and  C_13
    2  A    between atoms: C_12  and  C_28
    3  A    between atoms: C_17  and  C_29
                            x       y       z     vdW  Elec       q    Type
                         _______ _______ _______ _____ _____    ______ ____

>  <TORSDO>
F 3

$$$$
=
 OpenBabel10252415053D

 34 39  0  0  1  0  0  0  0  0999 V2000
  191.8470  175.6330  136.1270 C   0  0  2  0  0  3  0  0  0  0  0  0
  190.3490  173.6430  136.6330 C   0  0  0  0  0  0  0  0  0  0  0  0
  190.6030  175.4630  138.3300 C   0  0  1  0  0  3  0  0  0  0  0  0
  188.3640  178.2310  139.5050 C   0  0  0  0  0  2  0  0  0  0  0  0
  192.3540  173.2970  135.2620 C   0  0  0  0  0  2  0  0  0  0  0  0
  190.9070  172.8910  135.4720 C   0  0  0  0  0  2  0  0  0  0  0  0
  188.2600  176.1690  137.3470 C   0  0  0  0  0  2  0  0  0  0  0  0
  190.8670  174.9430  136.9800 N   0  0  0  0  0  0  0  0  0  0  0  0
  187.2530  178.2630  138.4440 C   0  0  0  0  0  2  0  0  0  0  0  0
  192.4060  174.7890  134.9730 C   0  0  0  0  0  2  0  0  0  0  0  0
  191.6850  176.4460  138.8780 C   0  0  2  0  0  3  0  0  0  0  0  0
  192.9580  176.1740  137.0000 C   0  0  0  0  0  2  0  0  0  0  0  0
  189.4190  173.1250  137.3060 O   0  0  0  0  0  0  0  0  0  0  0  0
  189.5780  177.5680  138.8770 C   0  0  1  0  0  3  0  0  0  0  0  0
  190.8890  177.5060  139.6460 C   0  0  1  0  0  3  0  0  0  0  0  0
  186.9780  176.8670  137.8390 C   0  0  1  0  0  3  0  0  0  0  0  0
  189.2510  176.1510  138.5000 C   0  0  2  0  0  3  0  0  0  0  0  0
  192.3920  177.1240  137.8600 O   0  0  0  0  0  0  0  0  0  0  0  0
  189.4640  176.2640  142.9710 C   0  0  0  0  0  0  0  0  0  0  0  0
  190.5110  176.5810  143.8390 C   0  0  0  0  0  3  0  0  0  0  0  0
  190.7340  177.1640  141.1060 C   0  0  0  0  0  0  0  0  0  0  0  0
  191.6690  177.1900  143.3460 C   0  0  0  0  0  3  0  0  0  0  0  0
  189.5730  176.5540  141.6090 C   0  0  0  0  0  3  0  0  0  0  0  0
  191.7780  177.4810  141.9820 C   0  0  0  0  0  3  0  0  0  0  0  0
  188.3420  175.6760  143.4500 F   0  0  0  0  0  0  0  0  0  0  0  0
  184.6670  176.6750  136.9640 C   0  0  0  0  0  3  0  0  0  0  0  0
  185.9570  176.9470  136.7460 C   0  0  0  0  0  3  0  0  0  0  0  0
  183.8490  174.4310  135.2640 O   0  0  0  0  0  1  0  0  0  0  0  0
  183.6650  176.7580  135.8570 C   0  0  1  0  0  3  0  0  0  0  0  0
  182.9430  175.4150  135.6600 C   0  0  1  0  0  3  0  0  0  0  0  0
  180.8640  176.6360  134.9660 C   0  0  0  0  0  2  0  0  0  0  0  0
  181.5920  177.9660  135.1190 C   0  0  0  0  0  2  0  0  0  0  0  0
  182.6580  177.8540  136.2030 C   0  0  0  0  0  2  0  0  0  0  0  0
  181.8560  175.5410  134.5940 C   0  0  0  0  0  2  0  0  0  0  0  0
  1 10  1  6  0  0  0
  1  8  1  0  0  0  0
  1 12  1  0  0  0  0
  2  8  1  0  0  0  0
  2 13  2  0  0  0  0
  3  8  1  6  0  0  0
  3 17  1  0  0  0  0
  3 11  1  0  0  0  0
  5  6  1  0  0  0  0
  6  2  1  0  0  0  0
  7 16  1  0  0  0  0
  9  4  1  0  0  0  0
 10  5  1  0  0  0  0
 11 18  1  6  0  0  0
 11 15  1  0  0  0  0
 12 18  1  0  0  0  0
 14  4  1  1  0  0  0
 14 15  1  0  0  0  0
 15 21  1  1  0  0  0
 16 27  1  6  0  0  0
 16  9  1  0  0  0  0
 17  7  1  6  0  0  0
 17 14  1  0  0  0  0
 19 25  1  0  0  0  0
 19 20  1  0  0  0  0
 21 23  1  0  0  0  0
 21 24  2  0  0  0  0
 22 20  2  0  0  0  0
 23 19  2  0  0  0  0
 24 22  1  0  0  0  0
 27 26  2  0  0  0  0
 29 33  1  0  0  0  0
 29 26  1  1  0  0  0
 30 28  1  6  0  0  0
 30 29  1  0  0  0  0
 31 32  1  0  0  0  0
 32 33  1  0  0  0  0
 34 31  1  0  0  0  0
 34 30  1  0  0  0  0
M  END
>  <MODEL>
9

>  <REMARK>
 VINA RESULT:      -6.1      3.788      8.728
  Name = 
  3 active torsions:
  status: ('A' for Active; 'I' for Inactive)
    1  A    between atoms: C_3  and  C_13
    2  A    between atoms: C_12  and  C_28
    3  A    between atoms: C_17  and  C_29
                            x       y       z     vdW  Elec       q    Type
                         _______ _______ _______ _____ _____    ______ ____

>  <TORSDO>
F 3

$$$$
