=
 OpenBabel10262420553D

 28 31  0  0  1  0  0  0  0  0999 V2000
  181.1020  180.3810  137.2560 C   0  0  2  0  0  3  0  0  0  0  0  0
  183.6840  178.2480  141.6950 C   0  0  0  0  0  3  0  0  0  0  0  0
  180.4290  175.5050  138.2180 C   0  0  0  0  0  1  0  0  0  0  0  0
  181.3660  178.3900  142.4100 C   0  0  0  0  0  0  0  0  0  0  0  0
  181.8880  177.7000  140.0260 C   0  0  2  0  0  3  0  0  0  0  0  0
  183.1530  178.9470  143.9500 C   0  0  0  0  0  0  0  0  0  0  0  0
  182.3200  178.1020  141.4120 C   0  0  0  0  0  0  0  0  0  0  0  0
  179.5820  178.1060  140.6820 C   0  0  0  0  0  2  0  0  0  0  0  0
  181.7910  178.8000  143.6770 C   0  0  0  0  0  3  0  0  0  0  0  0
  180.3540  177.9290  137.5910 C   0  0  1  0  0  3  0  0  0  0  0  0
  182.1680  178.8340  139.0200 C   0  0  2  0  0  3  0  0  0  0  0  0
  179.9020  178.1660  142.1720 C   0  0  0  0  0  2  0  0  0  0  0  0
  179.5510  179.2180  135.6330 C   0  0  0  0  0  2  0  0  0  0  0  0
  179.9840  176.8870  138.6610 C   0  0  2  0  0  3  0  0  0  0  0  0
  179.1560  178.2090  136.6970 C   0  0  0  0  0  2  0  0  0  0  0  0
  183.5780  179.3710  145.2400 N   0  0  0  0  0  1  0  0  0  0  0  0
  184.0990  178.6690  142.9610 C   0  0  0  0  0  3  0  0  0  0  0  0
  180.4970  177.1780  140.0130 N   0  0  1  0  0  0  0  0  0  0  0  0
  179.9110  180.5340  136.3060 C   0  0  0  0  0  2  0  0  0  0  0  0
  180.9010  179.2070  138.2370 C   0  0  1  0  0  3  0  0  0  0  0  0
  181.2730  181.9230  138.1550 S   0  0  0  0  0  0  0  0  0  0  0  0
  180.3950  181.8770  139.3750 O   0  0  0  0  0  0  0  0  0  0  0  0
  182.7050  182.0870  138.5860 O   0  0  0  0  0  0  0  0  0  0  0  0
  181.7400  184.4880  137.4180 C   0  0  0  0  0  1  0  0  0  0  0  0
  180.8020  183.3260  137.1630 C   0  0  0  0  0  2  0  0  0  0  0  0
  183.3030  178.3730  138.1050 C   0  0  0  0  0  2  0  0  0  0  0  0
  184.6310  178.9580  138.5390 C   0  0  0  0  0  2  0  0  0  0  0  0
  185.7560  178.0660  138.0550 C   0  0  0  0  0  1  0  0  0  0  0  0
  1 21  1  1  0  0  0
  1 20  1  0  0  0  0
  2 17  1  0  0  0  0
  4  9  2  0  0  0  0
  5  7  1  1  0  0  0
  6 16  1  0  0  0  0
  7  2  2  0  0  0  0
  7  4  1  0  0  0  0
  8 12  1  0  0  0  0
  9  6  1  0  0  0  0
 10 15  1  1  0  0  0
 10 20  1  0  0  0  0
 10 14  1  0  0  0  0
 11 26  1  6  0  0  0
 11  5  1  0  0  0  0
 12  4  1  0  0  0  0
 13 19  1  0  0  0  0
 13 15  1  0  0  0  0
 14  3  1  6  0  0  0
 14 18  1  0  0  0  0
 17  6  2  0  0  0  0
 18  5  1  0  0  0  0
 18  8  1  6  0  0  0
 19  1  1  0  0  0  0
 20 11  1  0  0  0  0
 21 23  2  0  0  0  0
 21 22  2  0  0  0  0
 25 24  1  0  0  0  0
 25 21  1  0  0  0  0
 26 27  1  0  0  0  0
 28 27  1  0  0  0  0
M  END
>  <MODEL>
1

>  <REMARK>
 VINA RESULT:      -5.9      0.000      0.000
  Name = 
  4 active torsions:
  status: ('A' for Active; 'I' for Inactive)
    1  A    between atoms: C_1  and  S_2
    2  A    between atoms: S_2  and  C_11
    3  A    between atoms: C_6  and  C_28
    4  A    between atoms: C_17  and  C_28
                            x       y       z     vdW  Elec       q    Type
                         _______ _______ _______ _____ _____    ______ ____

>  <TORSDO>
F 4

$$$$
=
 OpenBabel10262420553D

 28 31  0  0  1  0  0  0  0  0999 V2000
  179.7410  176.7910  138.8910 C   0  0  2  0  0  3  0  0  0  0  0  0
  182.7280  179.1010  142.9730 C   0  0  0  0  0  3  0  0  0  0  0  0
  181.3740  181.4840  138.2090 C   0  0  0  0  0  1  0  0  0  0  0  0
  184.3910  178.6070  141.2730 C   0  0  0  0  0  0  0  0  0  0  0  0
  182.1080  179.4520  140.5640 C   0  0  2  0  0  3  0  0  0  0  0  0
  184.9010  178.2520  143.6160 C   0  0  0  0  0  0  0  0  0  0  0  0
  183.1040  179.0640  141.6250 C   0  0  0  0  0  0  0  0  0  0  0  0
  183.6890  178.7010  138.8760 C   0  0  0  0  0  2  0  0  0  0  0  0
  185.2850  178.2140  142.2730 C   0  0  0  0  0  3  0  0  0  0  0  0
  180.6150  179.0990  138.1190 C   0  0  1  0  0  3  0  0  0  0  0  0
  180.9780  178.4070  140.4730 C   0  0  2  0  0  3  0  0  0  0  0  0
  184.8610  178.6310  139.8480 C   0  0  0  0  0  2  0  0  0  0  0  0
  179.1120  177.7830  136.6520 C   0  0  0  0  0  2  0  0  0  0  0  0
  181.8330  180.0380  138.1700 C   0  0  2  0  0  3  0  0  0  0  0  0
  180.3320  178.6860  136.6830 C   0  0  0  0  0  2  0  0  0  0  0  0
  185.8140  177.8440  144.6280 N   0  0  0  0  0  1  0  0  0  0  0  0
  183.6240  178.6970  143.9660 C   0  0  0  0  0  3  0  0  0  0  0  0
  182.7730  179.7730  139.2750 N   0  0  1  0  0  0  0  0  0  0  0  0
  179.4190  176.5070  137.4210 C   0  0  0  0  0  2  0  0  0  0  0  0
  180.8170  177.8880  139.0360 C   0  0  1  0  0  3  0  0  0  0  0  0
  180.3120  175.2570  139.6220 S   0  0  0  0  0  0  0  0  0  0  0  0
  179.9880  174.1210  138.6910 O   0  0  0  0  0  0  0  0  0  0  0  0
  181.8020  175.3250  139.8130 O   0  0  0  0  0  0  0  0  0  0  0  0
  179.5100  173.4550  141.4800 C   0  0  0  0  0  1  0  0  0  0  0  0
  179.5390  174.9440  141.1970 C   0  0  0  0  0  2  0  0  0  0  0  0
  179.7010  179.0570  141.0030 C   0  0  0  0  0  2  0  0  0  0  0  0
  179.2840  178.4500  142.3270 C   0  0  0  0  0  2  0  0  0  0  0  0
  179.0660  179.5540  143.3410 C   0  0  0  0  0  1  0  0  0  0  0  0
  1 20  1  0  0  0  0
  1 21  1  6  0  0  0
  2 17  1  0  0  0  0
  4  7  1  0  0  0  0
  4  9  2  0  0  0  0
  5  7  1  1  0  0  0
  6 17  2  0  0  0  0
  6 16  1  0  0  0  0
  7  2  2  0  0  0  0
  8 12  1  0  0  0  0
  9  6  1  0  0  0  0
 10 15  1  6  0  0  0
 10 14  1  0  0  0  0
 10 20  1  0  0  0  0
 11  5  1  0  0  0  0
 11 26  1  6  0  0  0
 12  4  1  0  0  0  0
 13 15  1  0  0  0  0
 13 19  1  0  0  0  0
 14  3  1  1  0  0  0
 14 18  1  0  0  0  0
 18  8  1  6  0  0  0
 18  5  1  0  0  0  0
 19  1  1  0  0  0  0
 20 11  1  0  0  0  0
 21 23  2  0  0  0  0
 21 25  1  0  0  0  0
 22 21  2  0  0  0  0
 25 24  1  0  0  0  0
 26 27  1  0  0  0  0
 27 28  1  0  0  0  0
M  END
>  <MODEL>
2

>  <REMARK>
 VINA RESULT:      -5.5      2.851      5.122
  Name = 
  4 active torsions:
  status: ('A' for Active; 'I' for Inactive)
    1  A    between atoms: C_1  and  S_2
    2  A    between atoms: S_2  and  C_11
    3  A    between atoms: C_6  and  C_28
    4  A    between atoms: C_17  and  C_28
                            x       y       z     vdW  Elec       q    Type
                         _______ _______ _______ _____ _____    ______ ____

>  <TORSDO>
F 4

$$$$
=
 OpenBabel10262420553D

 28 31  0  0  1  0  0  0  0  0999 V2000
  183.1960  177.7010  138.9400 C   0  0  2  0  0  3  0  0  0  0  0  0
  179.3700  181.7330  138.7850 C   0  0  0  0  0  3  0  0  0  0  0  0
  178.9310  176.7670  136.4710 C   0  0  0  0  0  1  0  0  0  0  0  0
  180.2990  181.7560  136.5400 C   0  0  0  0  0  0  0  0  0  0  0  0
  179.9390  179.5350  137.7090 C   0  0  2  0  0  3  0  0  0  0  0  0
  179.7660  183.8390  137.6600 C   0  0  0  0  0  0  0  0  0  0  0  0
  179.8500  181.0380  137.6680 C   0  0  0  0  0  0  0  0  0  0  0  0
  181.1110  179.5960  135.5800 C   0  0  0  0  0  2  0  0  0  0  0  0
  180.2430  183.1530  136.5400 C   0  0  0  0  0  3  0  0  0  0  0  0
  181.2460  176.9800  137.4010 C   0  0  1  0  0  3  0  0  0  0  0  0
  181.0350  179.0840  138.6960 C   0  0  2  0  0  3  0  0  0  0  0  0
  180.7420  181.0480  135.2940 C   0  0  0  0  0  2  0  0  0  0  0  0
  183.1080  175.4120  137.8680 C   0  0  0  0  0  2  0  0  0  0  0  0
  180.2570  177.4930  136.3400 C   0  0  2  0  0  3  0  0  0  0  0  0
  182.1590  175.9230  136.7980 C   0  0  0  0  0  2  0  0  0  0  0  0
  179.7180  185.2610  137.6560 N   0  0  0  0  0  1  0  0  0  0  0  0
  179.3270  183.1290  138.7810 C   0  0  0  0  0  3  0  0  0  0  0  0
  180.0420  178.9520  136.3470 N   0  0  1  0  0  0  0  0  0  0  0  0
  184.0030  176.5540  138.3250 C   0  0  0  0  0  2  0  0  0  0  0  0
  182.0370  178.1380  138.0190 C   0  0  1  0  0  3  0  0  0  0  0  0
  184.3250  179.0660  139.2140 S   0  0  0  0  0  0  0  0  0  0  0  0
  185.4940  178.9290  138.2780 O   0  0  0  0  0  0  0  0  0  0  0  0
  183.6140  180.3600  138.9260 O   0  0  0  0  0  0  0  0  0  0  0  0
  184.0270  178.2830  141.7900 C   0  0  0  0  0  1  0  0  0  0  0  0
  184.9320  179.0980  140.8890 C   0  0  0  0  0  2  0  0  0  0  0  0
  180.3420  178.4360  139.8950 C   0  0  0  0  0  2  0  0  0  0  0  0
  180.5950  179.2180  141.1660 C   0  0  0  0  0  2  0  0  0  0  0  0
  179.2770  179.5000  141.8560 C   0  0  0  0  0  1  0  0  0  0  0  0
  1 21  1  6  0  0  0
  4  9  2  0  0  0  0
  4  7  1  0  0  0  0
  5  7  1  6  0  0  0
  5 11  1  0  0  0  0
  6 17  2  0  0  0  0
  7  2  2  0  0  0  0
  9  6  1  0  0  0  0
 10 15  1  6  0  0  0
 10 20  1  0  0  0  0
 11 26  1  1  0  0  0
 12  8  1  0  0  0  0
 12  4  1  0  0  0  0
 13 19  1  0  0  0  0
 14 18  1  0  0  0  0
 14  3  1  1  0  0  0
 14 10  1  0  0  0  0
 15 13  1  0  0  0  0
 16  6  1  0  0  0  0
 17  2  1  0  0  0  0
 18  8  1  1  0  0  0
 18  5  1  0  0  0  0
 19  1  1  0  0  0  0
 20 11  1  0  0  0  0
 20  1  1  0  0  0  0
 21 25  1  0  0  0  0
 22 21  2  0  0  0  0
 23 21  2  0  0  0  0
 25 24  1  0  0  0  0
 26 27  1  0  0  0  0
 27 28  1  0  0  0  0
M  END
>  <MODEL>
3

>  <REMARK>
 VINA RESULT:      -4.8      2.710      5.748
  Name = 
  4 active torsions:
  status: ('A' for Active; 'I' for Inactive)
    1  A    between atoms: C_1  and  S_2
    2  A    between atoms: S_2  and  C_11
    3  A    between atoms: C_6  and  C_28
    4  A    between atoms: C_17  and  C_28
                            x       y       z     vdW  Elec       q    Type
                         _______ _______ _______ _____ _____    ______ ____

>  <TORSDO>
F 4

$$$$
=
 OpenBabel10262420553D

 28 31  0  0  1  0  0  0  0  0999 V2000
  185.1460  176.1640  137.6120 C   0  0  2  0  0  3  0  0  0  0  0  0
  181.6340  180.3290  138.7230 C   0  0  0  0  0  3  0  0  0  0  0  0
  180.4100  174.9710  138.7540 C   0  0  0  0  0  1  0  0  0  0  0  0
  180.9550  179.6000  136.5070 C   0  0  0  0  0  0  0  0  0  0  0  0
  181.6520  177.8680  138.2220 C   0  0  2  0  0  3  0  0  0  0  0  0
  181.0050  181.9620  137.0510 C   0  0  0  0  0  0  0  0  0  0  0  0
  181.3880  179.2930  137.8140 C   0  0  0  0  0  0  0  0  0  0  0  0
  181.2270  177.1840  135.9280 C   0  0  0  0  0  2  0  0  0  0  0  0
  180.7550  180.9340  136.1390 C   0  0  0  0  0  3  0  0  0  0  0  0
  182.7590  175.2190  137.9210 C   0  0  1  0  0  3  0  0  0  0  0  0
  183.1650  177.6210  138.3840 C   0  0  2  0  0  3  0  0  0  0  0  0
  180.6010  178.5170  135.5320 C   0  0  0  0  0  2  0  0  0  0  0  0
  184.6680  173.6820  137.5500 C   0  0  0  0  0  2  0  0  0  0  0  0
  181.2750  175.4920  137.6200 C   0  0  2  0  0  3  0  0  0  0  0  0
  183.2100  173.9470  137.2180 C   0  0  0  0  0  2  0  0  0  0  0  0
  180.8060  183.3170  136.6670 N   0  0  0  0  0  1  0  0  0  0  0  0
  181.4420  181.6600  138.3430 C   0  0  0  0  0  3  0  0  0  0  0  0
  180.9490  176.9030  137.3380 N   0  0  1  0  0  0  0  0  0  0  0  0
  185.5170  174.8140  136.9920 C   0  0  0  0  0  2  0  0  0  0  0  0
  183.6260  176.4240  137.5410 C   0  0  1  0  0  3  0  0  0  0  0  0
  186.0380  177.4320  136.7110 S   0  0  0  0  0  0  0  0  0  0  0  0
  185.2300  177.8400  135.5110 O   0  0  0  0  0  0  0  0  0  0  0  0
  186.2320  178.6280  137.6020 O   0  0  0  0  0  0  0  0  0  0  0  0
  188.6960  177.8920  136.4600 C   0  0  0  0  0  1  0  0  0  0  0  0
  187.6320  176.8560  136.1590 C   0  0  0  0  0  2  0  0  0  0  0  0
  183.4470  177.4250  139.8740 C   0  0  0  0  0  2  0  0  0  0  0  0
  184.2530  178.5760  140.4380 C   0  0  0  0  0  2  0  0  0  0  0  0
  184.0830  178.6220  141.9420 C   0  0  0  0  0  1  0  0  0  0  0  0
  1 21  1  6  0  0  0
  4  7  1  0  0  0  0
  5  7  1  6  0  0  0
  5 11  1  0  0  0  0
  6 17  2  0  0  0  0
  7  2  2  0  0  0  0
  9  4  2  0  0  0  0
  9  6  1  0  0  0  0
 10 15  1  6  0  0  0
 11 26  1  1  0  0  0
 12  8  1  0  0  0  0
 12  4  1  0  0  0  0
 14 10  1  0  0  0  0
 14  3  1  1  0  0  0
 15 13  1  0  0  0  0
 16  6  1  0  0  0  0
 17  2  1  0  0  0  0
 18  8  1  6  0  0  0
 18 14  1  0  0  0  0
 18  5  1  0  0  0  0
 19 13  1  0  0  0  0
 19  1  1  0  0  0  0
 20  1  1  0  0  0  0
 20 10  1  0  0  0  0
 20 11  1  0  0  0  0
 21 23  2  0  0  0  0
 22 21  2  0  0  0  0
 25 24  1  0  0  0  0
 25 21  1  0  0  0  0
 26 27  1  0  0  0  0
 27 28  1  0  0  0  0
M  END
>  <MODEL>
4

>  <REMARK>
 VINA RESULT:      -4.7      3.226      5.896
  Name = 
  4 active torsions:
  status: ('A' for Active; 'I' for Inactive)
    1  A    between atoms: C_1  and  S_2
    2  A    between atoms: S_2  and  C_11
    3  A    between atoms: C_6  and  C_28
    4  A    between atoms: C_17  and  C_28
                            x       y       z     vdW  Elec       q    Type
                         _______ _______ _______ _____ _____    ______ ____

>  <TORSDO>
F 4

$$$$
=
 OpenBabel10262420553D

 28 31  0  0  1  0  0  0  0  0999 V2000
  182.6690  179.2420  142.1090 C   0  0  2  0  0  3  0  0  0  0  0  0
  184.0460  177.8770  136.8980 C   0  0  0  0  0  3  0  0  0  0  0  0
  178.9550  178.0340  138.9620 C   0  0  0  0  0  1  0  0  0  0  0  0
  183.4700  175.7410  137.9030 C   0  0  0  0  0  0  0  0  0  0  0  0
  182.1070  177.7960  138.4930 C   0  0  2  0  0  3  0  0  0  0  0  0
  185.3550  175.9070  136.3880 C   0  0  0  0  0  0  0  0  0  0  0  0
  183.2180  177.1190  137.7340 C   0  0  0  0  0  0  0  0  0  0  0  0
  181.7190  175.7130  139.6850 C   0  0  0  0  0  2  0  0  0  0  0  0
  184.5320  175.1420  137.2180 C   0  0  0  0  0  3  0  0  0  0  0  0
  180.5590  178.4530  140.8390 C   0  0  1  0  0  3  0  0  0  0  0  0
  182.6820  178.7200  139.5850 C   0  0  2  0  0  3  0  0  0  0  0  0
  182.5570  174.8790  138.7230 C   0  0  0  0  0  2  0  0  0  0  0  0
  180.3710  179.2940  143.1630 C   0  0  0  0  0  2  0  0  0  0  0  0
  180.0460  177.4200  139.8190 C   0  0  2  0  0  3  0  0  0  0  0  0
  179.8710  178.2500  142.1800 C   0  0  0  0  0  2  0  0  0  0  0  0
  186.4380  175.2920  135.7000 N   0  0  0  0  0  1  0  0  0  0  0  0
  185.1110  177.2730  136.2250 C   0  0  0  0  0  3  0  0  0  0  0  0
  181.0890  176.8230  138.9650 N   0  0  1  0  0  0  0  0  0  0  0  0
  181.8580  179.0820  143.3990 C   0  0  0  0  0  2  0  0  0  0  0  0
  182.0850  178.3910  140.9610 C   0  0  1  0  0  3  0  0  0  0  0  0
  184.3520  178.7390  142.4660 S   0  0  0  0  0  0  0  0  0  0  0  0
  184.6100  177.4050  141.8220 O   0  0  0  0  0  0  0  0  0  0  0  0
  185.3030  179.7530  141.8930 O   0  0  0  0  0  0  0  0  0  0  0  0
  186.0510  178.0940  144.4760 C   0  0  0  0  0  1  0  0  0  0  0  0
  184.6430  178.5950  144.2180 C   0  0  0  0  0  2  0  0  0  0  0  0
  182.4080  180.1640  139.1630 C   0  0  0  0  0  2  0  0  0  0  0  0
  181.5570  180.2190  137.9110 C   0  0  0  0  0  2  0  0  0  0  0  0
  180.8240  181.5430  137.8580 C   0  0  0  0  0  1  0  0  0  0  0  0
  1 21  1  1  0  0  0
  1 19  1  0  0  0  0
  2  7  1  0  0  0  0
  4 12  1  0  0  0  0
  5  7  1  1  0  0  0
  5 18  1  0  0  0  0
  5 11  1  0  0  0  0
  6  9  2  0  0  0  0
  7  4  2  0  0  0  0
  9  4  1  0  0  0  0
 10 20  1  0  0  0  0
 10 15  1  1  0  0  0
 11 26  1  6  0  0  0
 11 20  1  0  0  0  0
 12  8  1  0  0  0  0
 13 19  1  0  0  0  0
 14  3  1  6  0  0  0
 14 10  1  0  0  0  0
 15 13  1  0  0  0  0
 16  6  1  0  0  0  0
 17  6  1  0  0  0  0
 17  2  2  0  0  0  0
 18  8  1  1  0  0  0
 18 14  1  0  0  0  0
 20  1  1  0  0  0  0
 21 25  1  0  0  0  0
 22 21  2  0  0  0  0
 23 21  2  0  0  0  0
 25 24  1  0  0  0  0
 27 26  1  0  0  0  0
 28 27  1  0  0  0  0
M  END
>  <MODEL>
5

>  <REMARK>
 VINA RESULT:      -4.7      2.825      5.888
  Name = 
  4 active torsions:
  status: ('A' for Active; 'I' for Inactive)
    1  A    between atoms: C_1  and  S_2
    2  A    between atoms: S_2  and  C_11
    3  A    between atoms: C_6  and  C_28
    4  A    between atoms: C_17  and  C_28
                            x       y       z     vdW  Elec       q    Type
                         _______ _______ _______ _____ _____    ______ ____

>  <TORSDO>
F 4

$$$$
=
 OpenBabel10262420553D

 28 31  0  0  1  0  0  0  0  0999 V2000
  184.8960  175.7600  137.4250 C   0  0  2  0  0  3  0  0  0  0  0  0
  181.6610  180.0920  138.7260 C   0  0  0  0  0  3  0  0  0  0  0  0
  180.2150  174.7930  138.9450 C   0  0  0  0  0  1  0  0  0  0  0  0
  180.7830  179.3610  136.5810 C   0  0  0  0  0  0  0  0  0  0  0  0
  181.5350  177.6240  138.2690 C   0  0  2  0  0  3  0  0  0  0  0  0
  180.9750  181.7260  137.0770 C   0  0  0  0  0  0  0  0  0  0  0  0
  181.3020  179.0540  137.8560 C   0  0  0  0  0  0  0  0  0  0  0  0
  180.9070  176.9270  136.0260 C   0  0  0  0  0  2  0  0  0  0  0  0
  180.6120  180.6960  136.2050 C   0  0  0  0  0  3  0  0  0  0  0  0
  182.5010  174.9250  137.9320 C   0  0  1  0  0  3  0  0  0  0  0  0
  183.0450  177.3140  138.3200 C   0  0  2  0  0  3  0  0  0  0  0  0
  180.3100  178.2800  135.6550 C   0  0  0  0  0  2  0  0  0  0  0  0
  184.3080  173.3010  137.4440 C   0  0  0  0  0  2  0  0  0  0  0  0
  181.0110  175.2590  137.7400 C   0  0  2  0  0  3  0  0  0  0  0  0
  182.8420  173.6250  137.2200 C   0  0  0  0  0  2  0  0  0  0  0  0
  180.8060  183.0830  136.6850 N   0  0  0  0  0  1  0  0  0  0  0  0
  181.4970  181.4240  138.3380 C   0  0  0  0  0  3  0  0  0  0  0  0
  180.7260  176.6780  137.4590 N   0  0  1  0  0  0  0  0  0  0  0  0
  185.1600  174.3850  136.8040 C   0  0  0  0  0  2  0  0  0  0  0  0
  183.3870  176.0850  137.4650 C   0  0  1  0  0  3  0  0  0  0  0  0
  185.7700  176.9740  136.4360 S   0  0  0  0  0  0  0  0  0  0  0  0
  186.9480  176.3110  135.7770 O   0  0  0  0  0  0  0  0  0  0  0  0
  184.8460  177.5030  135.3740 O   0  0  0  0  0  0  0  0  0  0  0  0
  187.3810  177.8480  138.4310 C   0  0  0  0  0  1  0  0  0  0  0  0
  186.3580  178.3350  137.4240 C   0  0  0  0  0  2  0  0  0  0  0  0
  183.4310  177.1270  139.7870 C   0  0  0  0  0  2  0  0  0  0  0  0
  184.1370  178.3520  140.3300 C   0  0  0  0  0  2  0  0  0  0  0  0
  184.2090  178.2640  141.8400 C   0  0  0  0  0  1  0  0  0  0  0  0
  1 21  1  6  0  0  0
  1 20  1  0  0  0  0
  4  7  1  0  0  0  0
  5  7  1  6  0  0  0
  5 11  1  0  0  0  0
  6 17  2  0  0  0  0
  7  2  2  0  0  0  0
  9  4  2  0  0  0  0
  9  6  1  0  0  0  0
 10 15  1  6  0  0  0
 11 26  1  1  0  0  0
 12  8  1  0  0  0  0
 12  4  1  0  0  0  0
 14 10  1  0  0  0  0
 14  3  1  1  0  0  0
 15 13  1  0  0  0  0
 16  6  1  0  0  0  0
 17  2  1  0  0  0  0
 18  8  1  6  0  0  0
 18 14  1  0  0  0  0
 18  5  1  0  0  0  0
 19  1  1  0  0  0  0
 19 13  1  0  0  0  0
 20 10  1  0  0  0  0
 20 11  1  0  0  0  0
 21 25  1  0  0  0  0
 22 21  2  0  0  0  0
 23 21  2  0  0  0  0
 25 24  1  0  0  0  0
 26 27  1  0  0  0  0
 27 28  1  0  0  0  0
M  END
>  <MODEL>
6

>  <REMARK>
 VINA RESULT:      -4.7      3.339      5.854
  Name = 
  4 active torsions:
  status: ('A' for Active; 'I' for Inactive)
    1  A    between atoms: C_1  and  S_2
    2  A    between atoms: S_2  and  C_11
    3  A    between atoms: C_6  and  C_28
    4  A    between atoms: C_17  and  C_28
                            x       y       z     vdW  Elec       q    Type
                         _______ _______ _______ _____ _____    ______ ____

>  <TORSDO>
F 4

$$$$
=
 OpenBabel10262420553D

 28 31  0  0  1  0  0  0  0  0999 V2000
  182.7010  173.5790  136.9500 C   0  0  2  0  0  3  0  0  0  0  0  0
  186.2300  177.6300  138.3840 C   0  0  0  0  0  3  0  0  0  0  0  0
  181.3050  178.3110  136.0420 C   0  0  0  0  0  1  0  0  0  0  0  0
  186.4220  177.5510  135.9630 C   0  0  0  0  0  0  0  0  0  0  0  0
  184.1460  177.2380  137.0370 C   0  0  2  0  0  3  0  0  0  0  0  0
  188.3950  177.8810  137.3320 C   0  0  0  0  0  0  0  0  0  0  0  0
  185.6270  177.4980  137.1270 C   0  0  0  0  0  0  0  0  0  0  0  0
  184.4030  176.8980  134.6430 C   0  0  0  0  0  2  0  0  0  0  0  0
  187.8010  177.7540  136.0740 C   0  0  0  0  0  3  0  0  0  0  0  0
  181.7810  175.8530  136.1320 C   0  0  1  0  0  3  0  0  0  0  0  0
  183.8110  175.8250  137.5550 C   0  0  2  0  0  3  0  0  0  0  0  0
  185.8040  177.4980  134.5970 C   0  0  0  0  0  2  0  0  0  0  0  0
  180.4460  173.7880  135.8260 C   0  0  0  0  0  2  0  0  0  0  0  0
  182.1920  177.2000  135.5110 C   0  0  2  0  0  3  0  0  0  0  0  0
  180.8600  175.1000  135.1840 C   0  0  0  0  0  2  0  0  0  0  0  0
  189.8000  178.0810  137.4370 N   0  0  0  0  0  1  0  0  0  0  0  0
  187.6100  177.8220  138.4860 C   0  0  0  0  0  3  0  0  0  0  0  0
  183.6130  177.5550  135.6870 N   0  0  1  0  0  0  0  0  0  0  0  0
  181.6780  172.9190  136.0210 C   0  0  0  0  0  2  0  0  0  0  0  0
  183.0130  175.0270  136.5140 C   0  0  1  0  0  3  0  0  0  0  0  0
  184.1890  172.5800  136.9080 S   0  0  0  0  0  0  0  0  0  0  0  0
  184.9730  172.8180  138.1690 O   0  0  0  0  0  0  0  0  0  0  0  0
  183.8060  171.1270  136.8340 O   0  0  0  0  0  0  0  0  0  0  0  0
  186.4280  173.7750  135.9600 C   0  0  0  0  0  1  0  0  0  0  0  0
  185.2180  172.9810  135.5100 C   0  0  0  0  0  2  0  0  0  0  0  0
  183.0540  175.9820  138.8730 C   0  0  0  0  0  2  0  0  0  0  0  0
  182.8150  177.4410  139.2010 C   0  0  0  0  0  2  0  0  0  0  0  0
  183.1520  177.6930  140.6560 C   0  0  0  0  0  1  0  0  0  0  0  0
  1 21  1  6  0  0  0
  2 17  1  0  0  0  0
  4  9  2  0  0  0  0
  4  7  1  0  0  0  0
  5  7  1  6  0  0  0
  5 11  1  0  0  0  0
  6 16  1  0  0  0  0
  6 17  2  0  0  0  0
  7  2  2  0  0  0  0
  9  6  1  0  0  0  0
 10 15  1  6  0  0  0
 10 20  1  0  0  0  0
 11 26  1  1  0  0  0
 12  8  1  0  0  0  0
 12  4  1  0  0  0  0
 13 19  1  0  0  0  0
 14 18  1  0  0  0  0
 14  3  1  1  0  0  0
 14 10  1  0  0  0  0
 15 13  1  0  0  0  0
 18  8  1  6  0  0  0
 18  5  1  0  0  0  0
 19  1  1  0  0  0  0
 20  1  1  0  0  0  0
 20 11  1  0  0  0  0
 21 22  2  0  0  0  0
 23 21  2  0  0  0  0
 25 24  1  0  0  0  0
 25 21  1  0  0  0  0
 26 27  1  0  0  0  0
 27 28  1  0  0  0  0
M  END
>  <MODEL>
7

>  <REMARK>
 VINA RESULT:      -4.6      4.756      7.233
  Name = 
  4 active torsions:
  status: ('A' for Active; 'I' for Inactive)
    1  A    between atoms: C_1  and  S_2
    2  A    between atoms: S_2  and  C_11
    3  A    between atoms: C_6  and  C_28
    4  A    between atoms: C_17  and  C_28
                            x       y       z     vdW  Elec       q    Type
                         _______ _______ _______ _____ _____    ______ ____

>  <TORSDO>
F 4

$$$$
=
 OpenBabel10262420553D

 28 31  0  0  1  0  0  0  0  0999 V2000
  180.2750  180.2360  140.3220 C   0  0  2  0  0  3  0  0  0  0  0  0
  182.9140  176.3030  137.4080 C   0  0  0  0  0  3  0  0  0  0  0  0
  180.8060  180.9600  135.3870 C   0  0  0  0  0  1  0  0  0  0  0  0
  180.5840  175.9860  136.7960 C   0  0  0  0  0  0  0  0  0  0  0  0
  181.4780  178.3410  137.0910 C   0  0  2  0  0  3  0  0  0  0  0  0
  182.0200  174.0680  137.1620 C   0  0  0  0  0  0  0  0  0  0  0  0
  181.6660  176.8460  137.0780 C   0  0  0  0  0  0  0  0  0  0  0  0
  179.0970  177.9940  136.7420 C   0  0  0  0  0  2  0  0  0  0  0  0
  180.7730  174.6020  136.8280 C   0  0  0  0  0  3  0  0  0  0  0  0
  180.1620  180.8090  137.8030 C   0  0  1  0  0  3  0  0  0  0  0  0
  181.5440  178.8830  138.5330 C   0  0  2  0  0  3  0  0  0  0  0  0
  179.2560  176.5270  136.3570 C   0  0  0  0  0  2  0  0  0  0  0  0
  179.2300  182.3780  139.4790 C   0  0  0  0  0  2  0  0  0  0  0  0
  179.9810  180.1940  136.4040 C   0  0  2  0  0  3  0  0  0  0  0  0
  179.0170  181.7630  138.1070 C   0  0  0  0  0  2  0  0  0  0  0  0
  182.2030  172.6580  137.2000 N   0  0  0  0  0  1  0  0  0  0  0  0
  183.0910  174.9180  137.4490 C   0  0  0  0  0  3  0  0  0  0  0  0
  180.2780  178.7520  136.3180 N   0  0  1  0  0  0  0  0  0  0  0  0
  179.1750  181.2810  140.5300 C   0  0  0  0  0  2  0  0  0  0  0  0
  180.2990  179.7170  138.8690 C   0  0  1  0  0  3  0  0  0  0  0  0
  179.9590  178.8880  141.4620 S   0  0  0  0  0  0  0  0  0  0  0  0
  181.2720  178.3470  141.9540 O   0  0  0  0  0  0  0  0  0  0  0  0
  179.1710  179.4070  142.6340 O   0  0  0  0  0  0  0  0  0  0  0  0
  179.9380  176.3530  140.5070 C   0  0  0  0  0  1  0  0  0  0  0  0
  179.0480  177.5670  140.6890 C   0  0  0  0  0  2  0  0  0  0  0  0
  182.8360  179.6880  138.6680 C   0  0  0  0  0  2  0  0  0  0  0  0
  183.7590  179.0770  139.7020 C   0  0  0  0  0  2  0  0  0  0  0  0
  185.0540  178.6590  139.0370 C   0  0  0  0  0  1  0  0  0  0  0  0
  1 19  1  0  0  0  0
  1 21  1  1  0  0  0
  2 17  1  0  0  0  0
  4  9  2  0  0  0  0
  4  7  1  0  0  0  0
  5  7  1  1  0  0  0
  5 11  1  0  0  0  0
  6 16  1  0  0  0  0
  6 17  2  0  0  0  0
  7  2  2  0  0  0  0
  9  6  1  0  0  0  0
 10 15  1  1  0  0  0
 10 20  1  0  0  0  0
 11 26  1  6  0  0  0
 11 20  1  0  0  0  0
 12  8  1  0  0  0  0
 12  4  1  0  0  0  0
 13 19  1  0  0  0  0
 14  3  1  6  0  0  0
 14 10  1  0  0  0  0
 15 13  1  0  0  0  0
 18 14  1  0  0  0  0
 18  8  1  1  0  0  0
 18  5  1  0  0  0  0
 20  1  1  0  0  0  0
 21 22  2  0  0  0  0
 21 23  2  0  0  0  0
 24 25  1  0  0  0  0
 25 21  1  0  0  0  0
 26 27  1  0  0  0  0
 28 27  1  0  0  0  0
M  END
>  <MODEL>
8

>  <REMARK>
 VINA RESULT:      -4.4      3.190      5.337
  Name = 
  4 active torsions:
  status: ('A' for Active; 'I' for Inactive)
    1  A    between atoms: C_1  and  S_2
    2  A    between atoms: S_2  and  C_11
    3  A    between atoms: C_6  and  C_28
    4  A    between atoms: C_17  and  C_28
                            x       y       z     vdW  Elec       q    Type
                         _______ _______ _______ _____ _____    ______ ____

>  <TORSDO>
F 4

$$$$
=
 OpenBabel10262420553D

 28 31  0  0  1  0  0  0  0  0999 V2000
  180.4310  179.8020  137.1160 C   0  0  2  0  0  3  0  0  0  0  0  0
  180.8070  174.3770  138.2770 C   0  0  0  0  0  3  0  0  0  0  0  0
  183.2100  178.4570  141.0680 C   0  0  0  0  0  1  0  0  0  0  0  0
  182.9790  174.8970  137.3200 C   0  0  0  0  0  0  0  0  0  0  0  0
  181.8680  176.5790  138.8570 C   0  0  2  0  0  3  0  0  0  0  0  0
  181.8740  172.8110  136.7720 C   0  0  0  0  0  0  0  0  0  0  0  0
  181.8960  175.2490  138.1520 C   0  0  0  0  0  0  0  0  0  0  0  0
  183.9070  177.1890  137.6830 C   0  0  0  0  0  2  0  0  0  0  0  0
  182.9660  173.6740  136.6440 C   0  0  0  0  0  3  0  0  0  0  0  0
  182.1140  179.4490  139.0470 C   0  0  1  0  0  3  0  0  0  0  0  0
  180.8110  177.5060  138.2240 C   0  0  2  0  0  3  0  0  0  0  0  0
  184.1990  175.7640  137.2260 C   0  0  0  0  0  2  0  0  0  0  0  0
  181.5350  181.7420  138.3030 C   0  0  0  0  0  2  0  0  0  0  0  0
  183.2370  178.5260  139.5520 C   0  0  2  0  0  3  0  0  0  0  0  0
  182.6640  180.8410  138.7750 C   0  0  0  0  0  2  0  0  0  0  0  0
  181.8640  171.5700  136.0750 N   0  0  0  0  0  1  0  0  0  0  0  0
  180.7970  173.1610  137.5890 C   0  0  0  0  0  3  0  0  0  0  0  0
  183.2260  177.1670  138.9800 N   0  0  1  0  0  0  0  0  0  0  0  0
  181.0010  181.2170  136.9800 C   0  0  0  0  0  2  0  0  0  0  0  0
  181.4270  178.8520  137.8140 C   0  0  1  0  0  3  0  0  0  0  0  0
  180.0590  179.2120  135.4640 S   0  0  0  0  0  0  0  0  0  0  0  0
  178.9320  178.2200  135.5410 O   0  0  0  0  0  0  0  0  0  0  0  0
  179.6330  180.3730  134.6080 O   0  0  0  0  0  0  0  0  0  0  0  0
  181.2570  176.9210  134.6540 C   0  0  0  0  0  1  0  0  0  0  0  0
  181.4670  178.4210  134.7100 C   0  0  0  0  0  2  0  0  0  0  0  0
  179.6730  177.6710  139.2320 C   0  0  0  0  0  2  0  0  0  0  0  0
  179.9810  176.9550  140.5310 C   0  0  0  0  0  2  0  0  0  0  0  0
  179.6760  177.8720  141.6960 C   0  0  0  0  0  1  0  0  0  0  0  0
  1 21  1  6  0  0  0
  1 20  1  0  0  0  0
  4  7  2  0  0  0  0
  5  7  1  6  0  0  0
  5 18  1  0  0  0  0
  6 17  1  0  0  0  0
  7  2  1  0  0  0  0
  9  6  2  0  0  0  0
  9  4  1  0  0  0  0
 10 15  1  6  0  0  0
 10 14  1  0  0  0  0
 11  5  1  0  0  0  0
 11 26  1  1  0  0  0
 12  4  1  0  0  0  0
 12  8  1  0  0  0  0
 13 15  1  0  0  0  0
 14  3  1  1  0  0  0
 16  6  1  0  0  0  0
 17  2  2  0  0  0  0
 18  8  1  6  0  0  0
 18 14  1  0  0  0  0
 19  1  1  0  0  0  0
 19 13  1  0  0  0  0
 20 11  1  0  0  0  0
 20 10  1  0  0  0  0
 21 22  2  0  0  0  0
 23 21  2  0  0  0  0
 24 25  1  0  0  0  0
 25 21  1  0  0  0  0
 26 27  1  0  0  0  0
 27 28  1  0  0  0  0
M  END
>  <MODEL>
9

>  <REMARK>
 VINA RESULT:      -4.3      2.761      5.759
  Name = 
  4 active torsions:
  status: ('A' for Active; 'I' for Inactive)
    1  A    between atoms: C_1  and  S_2
    2  A    between atoms: S_2  and  C_11
    3  A    between atoms: C_6  and  C_28
    4  A    between atoms: C_17  and  C_28
                            x       y       z     vdW  Elec       q    Type
                         _______ _______ _______ _____ _____    ______ ____

>  <TORSDO>
F 4

$$$$
