=
 OpenBabel10262422013D

 30 33  0  0  1  0  0  0  0  0999 V2000
  190.2190  177.2130  140.1260 C   0  0  0  0  0  0  0  0  0  0  0  0
  189.6950  178.6060  138.2400 C   0  0  0  0  0  3  0  0  0  0  0  0
  185.4690  178.1180  139.5040 O   0  0  0  0  0  0  0  0  0  0  0  0
  188.6540  178.7490  142.1810 C   0  0  0  0  0  2  0  0  0  0  0  0
  189.7760  176.1510  140.9720 N   0  0  0  0  0  2  0  0  0  0  0  0
  190.7770  177.4350  144.2580 C   0  0  1  0  0  3  0  0  0  0  0  0
  190.9670  177.0620  142.9010 O   0  0  0  0  0  0  0  0  0  0  0  0
  189.8790  175.0300  143.0050 O   0  0  0  0  0  0  0  0  0  0  0  0
  185.6240  178.1700  143.0740 C   0  0  2  0  0  3  0  0  0  0  0  0
  185.1430  178.9300  140.6210 C   0  0  1  0  0  3  0  0  0  0  0  0
  190.2320  176.0260  142.3190 C   0  0  0  0  0  0  0  0  0  0  0  0
  188.5170  178.5470  143.7020 C   0  0  2  0  0  3  0  0  0  0  0  0
  188.8370  179.4160  137.3340 C   0  0  0  0  0  2  0  0  0  0  0  0
  186.4210  176.9590  143.5760 C   0  0  0  0  0  2  0  0  0  0  0  0
  192.1210  177.7230  144.8930 C   0  0  0  0  0  1  0  0  0  0  0  0
  191.4510  177.4790  140.0580 O   0  0  0  0  0  0  0  0  0  0  0  0
  186.7610  178.0930  138.9830 C   0  0  0  0  0  0  0  0  0  0  0  0
  187.7860  178.5330  136.7540 C   0  0  0  0  0  3  0  0  0  0  0  0
  189.8970  178.6900  144.3580 C   0  0  0  0  0  2  0  0  0  0  0  0
  189.2430  178.0100  139.3510 C   0  0  0  0  0  0  0  0  0  0  0  0
  187.5220  178.1760  141.3280 C   0  0  1  0  0  3  0  0  0  0  0  0
  183.6910  178.7090  141.0170 C   0  0  0  0  0  1  0  0  0  0  0  0
  186.1740  178.7950  141.7610 C   0  0  2  0  0  3  0  0  0  0  0  0
  187.6310  177.3480  145.5950 O   0  0  0  0  0  1  0  0  0  0  0  0
  186.8570  177.9540  137.5130 C   0  0  0  0  0  3  0  0  0  0  0  0
  187.8200  178.1730  139.8290 C   0  0  0  0  0  0  0  0  0  0  0  0
  187.7830  177.2800  144.2090 C   0  0  2  0  0  3  0  0  0  0  0  0
  185.3580  179.1240  144.1620 N   0  0  0  0  0  0  0  0  0  0  0  0
  184.2670  178.5970  144.9610 C   0  0  0  0  0  1  0  0  0  0  0  0
  184.9410  180.3130  143.6580 O   0  0  0  0  0  1  0  0  0  0  0  0
  1  5  1  0  0  0  0
  2 20  2  0  0  0  0
  3 10  1  0  0  0  0
  5 11  1  0  0  0  0
  6 19  1  0  0  0  0
  6 15  1  6  0  0  0
  7  6  1  0  0  0  0
  9 14  1  0  0  0  0
  9 28  1  1  0  0  0
 10 22  1  1  0  0  0
 10 23  1  0  0  0  0
 11  7  1  0  0  0  0
 11  8  2  0  0  0  0
 12  4  1  6  0  0  0
 12 27  1  0  0  0  0
 12 19  1  0  0  0  0
 13  2  1  0  0  0  0
 14 27  1  0  0  0  0
 16  1  2  0  0  0  0
 17  3  1  0  0  0  0
 17 26  2  0  0  0  0
 18 13  1  0  0  0  0
 18 25  2  0  0  0  0
 20 26  1  0  0  0  0
 20  1  1  0  0  0  0
 21 23  1  0  0  0  0
 21  4  1  1  0  0  0
 23  9  1  0  0  0  0
 25 17  1  0  0  0  0
 26 21  1  0  0  0  0
 27 24  1  0  0  0  0
 28 29  1  0  0  0  0
 30 28  1  0  0  0  0
M  END
>  <MODEL>
1

>  <REMARK>
 VINA RESULT:      -7.3      0.000      0.000
  Name = 
  1 active torsions:
  status: ('A' for Active; 'I' for Inactive)
    1  A    between atoms: N_7  and  C_10
                            x       y       z     vdW  Elec       q    Type
                         _______ _______ _______ _____ _____    ______ ____

>  <TORSDO>
F 1

$$$$
=
 OpenBabel10262422013D

 30 33  0  0  1  0  0  0  0  0999 V2000
  188.1060  177.9630  145.6040 C   0  0  0  0  0  0  0  0  0  0  0  0
  185.7370  177.7240  145.9270 C   0  0  0  0  0  3  0  0  0  0  0  0
  185.3650  179.5310  141.8900 O   0  0  0  0  0  0  0  0  0  0  0  0
  188.2580  176.6490  142.9060 C   0  0  0  0  0  2  0  0  0  0  0  0
  189.1460  178.7280  144.9940 N   0  0  0  0  0  2  0  0  0  0  0  0
  191.3320  176.0500  143.7690 C   0  0  1  0  0  3  0  0  0  0  0  0
  190.5720  176.7620  144.7360 O   0  0  0  0  0  0  0  0  0  0  0  0
  191.3240  178.8750  144.1950 O   0  0  0  0  0  0  0  0  0  0  0  0
  188.1030  178.1380  140.0650 C   0  0  2  0  0  3  0  0  0  0  0  0
  185.6570  178.6050  140.8560 C   0  0  1  0  0  3  0  0  0  0  0  0
  190.4060  178.1460  144.6580 C   0  0  0  0  0  0  0  0  0  0  0  0
  189.4680  176.3290  142.0070 C   0  0  2  0  0  3  0  0  0  0  0  0
  184.2960  177.7600  145.5590 C   0  0  0  0  0  2  0  0  0  0  0  0
  189.4280  178.6040  140.6820 C   0  0  0  0  0  2  0  0  0  0  0  0
  192.1660  174.9940  144.4620 C   0  0  0  0  0  1  0  0  0  0  0  0
  188.3760  177.2270  146.5930 O   0  0  0  0  0  0  0  0  0  0  0  0
  185.4690  179.1710  143.2320 C   0  0  0  0  0  0  0  0  0  0  0  0
  183.9310  179.1580  145.1930 C   0  0  0  0  0  3  0  0  0  0  0  0
  190.4080  175.3690  142.7480 C   0  0  0  0  0  2  0  0  0  0  0  0
  186.7260  178.0150  145.0720 C   0  0  0  0  0  0  0  0  0  0  0  0
  187.4900  177.9250  142.5610 C   0  0  1  0  0  3  0  0  0  0  0  0
  185.5290  179.2830  139.5010 C   0  0  0  0  0  1  0  0  0  0  0  0
  186.9820  177.8530  141.1030 C   0  0  2  0  0  3  0  0  0  0  0  0
  191.2080  177.0260  140.4940 O   0  0  0  0  0  1  0  0  0  0  0  0
  184.4650  179.7700  144.1370 C   0  0  0  0  0  3  0  0  0  0  0  0
  186.4670  178.3350  143.6200 C   0  0  0  0  0  0  0  0  0  0  0  0
  190.2500  177.5130  141.3850 C   0  0  2  0  0  3  0  0  0  0  0  0
  188.3200  177.0790  139.0660 N   0  0  0  0  0  0  0  0  0  0  0  0
  189.1850  177.6130  138.0310 C   0  0  0  0  0  1  0  0  0  0  0  0
  187.1490  176.7430  138.4700 O   0  0  0  0  0  1  0  0  0  0  0  0
  1 16  2  0  0  0  0
  3 17  1  0  0  0  0
  5  1  1  0  0  0  0
  6 15  1  1  0  0  0
  6  7  1  0  0  0  0
  8 11  2  0  0  0  0
  9 28  1  1  0  0  0
  9 14  1  0  0  0  0
  9 23  1  0  0  0  0
 10 22  1  6  0  0  0
 10 23  1  0  0  0  0
 10  3  1  0  0  0  0
 11  7  1  0  0  0  0
 11  5  1  0  0  0  0
 12 19  1  1  0  0  0
 12  4  1  0  0  0  0
 13  2  1  0  0  0  0
 14 27  1  0  0  0  0
 17 26  2  0  0  0  0
 17 25  1  0  0  0  0
 18 13  1  0  0  0  0
 19  6  1  0  0  0  0
 20  1  1  0  0  0  0
 20  2  2  0  0  0  0
 21  4  1  1  0  0  0
 21 26  1  0  0  0  0
 23 21  1  0  0  0  0
 24 27  1  0  0  0  0
 25 18  2  0  0  0  0
 26 20  1  0  0  0  0
 27 12  1  0  0  0  0
 29 28  1  0  0  0  0
 30 28  1  0  0  0  0
M  END
>  <MODEL>
2

>  <REMARK>
 VINA RESULT:      -6.8      1.707      5.244
  Name = 
  1 active torsions:
  status: ('A' for Active; 'I' for Inactive)
    1  A    between atoms: N_7  and  C_10
                            x       y       z     vdW  Elec       q    Type
                         _______ _______ _______ _____ _____    ______ ____

>  <TORSDO>
F 1

$$$$
=
 OpenBabel10262422013D

 30 33  0  0  1  0  0  0  0  0999 V2000
  183.2000  178.3420  142.6510 C   0  0  0  0  0  0  0  0  0  0  0  0
  184.4680  179.0810  144.5530 C   0  0  0  0  0  3  0  0  0  0  0  0
  187.9280  177.1590  142.5450 O   0  0  0  0  0  0  0  0  0  0  0  0
  185.0210  179.4370  140.5270 C   0  0  0  0  0  2  0  0  0  0  0  0
  183.0570  177.3440  141.6380 N   0  0  0  0  0  2  0  0  0  0  0  0
  182.3230  179.4390  138.7190 C   0  0  1  0  0  3  0  0  0  0  0  0
  182.1490  178.9570  140.0440 O   0  0  0  0  0  0  0  0  0  0  0  0
  182.2650  176.7060  139.5490 O   0  0  0  0  0  0  0  0  0  0  0  0
  187.4070  177.8490  139.0780 C   0  0  2  0  0  3  0  0  0  0  0  0
  188.4360  177.9430  141.4780 C   0  0  1  0  0  3  0  0  0  0  0  0
  182.4420  177.6340  140.3830 C   0  0  0  0  0  0  0  0  0  0  0  0
  184.8890  179.4480  138.9930 C   0  0  2  0  0  3  0  0  0  0  0  0
  185.6830  179.3220  145.3780 C   0  0  0  0  0  2  0  0  0  0  0  0
  186.1250  177.1580  138.5980 C   0  0  0  0  0  2  0  0  0  0  0  0
  181.1620  180.3390  138.3540 C   0  0  0  0  0  1  0  0  0  0  0  0
  182.2090  179.0630  142.9550 O   0  0  0  0  0  0  0  0  0  0  0  0
  186.8120  177.5670  143.2730 C   0  0  0  0  0  0  0  0  0  0  0  0
  186.3240  178.0110  145.6770 C   0  0  0  0  0  3  0  0  0  0  0  0
  183.6310  180.2360  138.5990 C   0  0  0  0  0  2  0  0  0  0  0  0
  184.5010  178.5440  143.3260 C   0  0  0  0  0  0  0  0  0  0  0  0
  185.8970  178.3290  141.1130 C   0  0  1  0  0  3  0  0  0  0  0  0
  189.6060  177.2290  140.8200 C   0  0  0  0  0  1  0  0  0  0  0  0
  187.3230  178.4190  140.5220 C   0  0  2  0  0  3  0  0  0  0  0  0
  184.9700  178.3210  136.8650 O   0  0  0  0  0  1  0  0  0  0  0  0
  186.8330  177.2410  144.7160 C   0  0  0  0  0  3  0  0  0  0  0  0
  185.7960  178.2010  142.6330 C   0  0  0  0  0  0  0  0  0  0  0  0
  184.9610  178.0950  138.2420 C   0  0  2  0  0  3  0  0  0  0  0  0
  187.9250  178.7820  138.0630 N   0  0  0  0  0  0  0  0  0  0  0  0
  188.4030  177.9970  136.9400 C   0  0  0  0  0  1  0  0  0  0  0  0
  188.9890  179.4680  138.5500 O   0  0  0  0  0  1  0  0  0  0  0  0
  1 16  2  0  0  0  0
  1 20  1  0  0  0  0
  2 13  1  0  0  0  0
  3 17  1  0  0  0  0
  5  1  1  0  0  0  0
  6 15  1  1  0  0  0
  6  7  1  0  0  0  0
  7 11  1  0  0  0  0
  8 11  2  0  0  0  0
  9 28  1  6  0  0  0
  9 23  1  0  0  0  0
 10 22  1  6  0  0  0
 10  3  1  0  0  0  0
 11  5  1  0  0  0  0
 12 19  1  1  0  0  0
 12  4  1  0  0  0  0
 13 18  1  0  0  0  0
 14  9  1  0  0  0  0
 17 25  1  0  0  0  0
 19  6  1  0  0  0  0
 20  2  2  0  0  0  0
 21  4  1  1  0  0  0
 21 26  1  0  0  0  0
 23 21  1  0  0  0  0
 23 10  1  0  0  0  0
 24 27  1  0  0  0  0
 25 18  2  0  0  0  0
 26 17  2  0  0  0  0
 26 20  1  0  0  0  0
 27 14  1  0  0  0  0
 27 12  1  0  0  0  0
 28 30  1  0  0  0  0
 29 28  1  0  0  0  0
M  END
>  <MODEL>
3

>  <REMARK>
 VINA RESULT:      -6.7      2.364      7.284
  Name = 
  1 active torsions:
  status: ('A' for Active; 'I' for Inactive)
    1  A    between atoms: N_7  and  C_10
                            x       y       z     vdW  Elec       q    Type
                         _______ _______ _______ _____ _____    ______ ____

>  <TORSDO>
F 1

$$$$
=
 OpenBabel10262422013D

 30 33  0  0  1  0  0  0  0  0999 V2000
  188.0240  178.2370  144.5350 C   0  0  0  0  0  0  0  0  0  0  0  0
  185.7600  177.8690  143.8210 C   0  0  0  0  0  3  0  0  0  0  0  0
  187.2800  178.7400  139.7430 O   0  0  0  0  0  0  0  0  0  0  0  0
  189.3500  176.3990  142.5610 C   0  0  0  0  0  2  0  0  0  0  0  0
  189.2420  178.9420  144.2910 N   0  0  0  0  0  2  0  0  0  0  0  0
  191.6940  176.2640  144.8060 C   0  0  1  0  0  3  0  0  0  0  0  0
  190.5940  177.0950  145.1460 O   0  0  0  0  0  0  0  0  0  0  0  0
  191.5480  179.1030  144.5280 O   0  0  0  0  0  0  0  0  0  0  0  0
  190.5200  177.2330  139.6890 C   0  0  2  0  0  3  0  0  0  0  0  0
  187.9890  177.6450  139.1860 C   0  0  1  0  0  3  0  0  0  0  0  0
  190.5070  178.4130  144.6900 C   0  0  0  0  0  0  0  0  0  0  0  0
  190.8280  176.0010  142.3900 C   0  0  2  0  0  3  0  0  0  0  0  0
  184.6390  177.7020  142.8560 C   0  0  0  0  0  2  0  0  0  0  0  0
  191.4340  177.9310  140.7050 C   0  0  0  0  0  2  0  0  0  0  0  0
  192.1060  175.4540  146.0170 C   0  0  0  0  0  1  0  0  0  0  0  0
  187.8060  177.7530  145.6800 O   0  0  0  0  0  0  0  0  0  0  0  0
  186.7620  178.6830  141.0350 C   0  0  0  0  0  0  0  0  0  0  0  0
  184.5050  178.9530  142.0580 C   0  0  0  0  0  3  0  0  0  0  0  0
  191.3160  175.3040  143.6670 C   0  0  0  0  0  2  0  0  0  0  0  0
  187.0330  178.0560  143.4510 C   0  0  0  0  0  0  0  0  0  0  0  0
  188.8440  177.5020  141.6310 C   0  0  1  0  0  3  0  0  0  0  0  0
  188.4980  178.0060  137.7990 C   0  0  0  0  0  1  0  0  0  0  0  0
  189.0460  177.0790  140.1580 C   0  0  2  0  0  3  0  0  0  0  0  0
  193.0770  176.5090  141.6880 O   0  0  0  0  0  1  0  0  0  0  0  0
  185.4690  179.3720  141.2390 C   0  0  0  0  0  3  0  0  0  0  0  0
  187.4620  178.0370  142.0040 C   0  0  0  0  0  0  0  0  0  0  0  0
  191.8300  177.0890  141.9260 C   0  0  2  0  0  3  0  0  0  0  0  0
  191.1430  176.0090  139.1600 N   0  0  0  0  0  0  0  0  0  0  0  0
  192.1980  176.4050  138.2460 C   0  0  0  0  0  1  0  0  0  0  0  0
  190.2440  175.2920  138.4410 O   0  0  0  0  0  1  0  0  0  0  0  0
  1 16  2  0  0  0  0
  3 17  1  0  0  0  0
  5  1  1  0  0  0  0
  5 11  1  0  0  0  0
  6  7  1  0  0  0  0
  6 15  1  1  0  0  0
  8 11  2  0  0  0  0
  9 28  1  1  0  0  0
  9 23  1  0  0  0  0
  9 14  1  0  0  0  0
 10 22  1  6  0  0  0
 10  3  1  0  0  0  0
 10 23  1  0  0  0  0
 11  7  1  0  0  0  0
 12  4  1  1  0  0  0
 12 19  1  0  0  0  0
 13  2  1  0  0  0  0
 14 27  1  0  0  0  0
 17 25  1  0  0  0  0
 17 26  2  0  0  0  0
 18 13  1  0  0  0  0
 19  6  1  0  0  0  0
 20  2  2  0  0  0  0
 20  1  1  0  0  0  0
 21 26  1  0  0  0  0
 21  4  1  1  0  0  0
 23 21  1  0  0  0  0
 24 27  1  0  0  0  0
 25 18  2  0  0  0  0
 26 20  1  0  0  0  0
 27 12  1  0  0  0  0
 29 28  1  0  0  0  0
 30 28  1  0  0  0  0
M  END
>  <MODEL>
4

>  <REMARK>
 VINA RESULT:      -6.6      1.784      5.232
  Name = 
  1 active torsions:
  status: ('A' for Active; 'I' for Inactive)
    1  A    between atoms: N_7  and  C_10
                            x       y       z     vdW  Elec       q    Type
                         _______ _______ _______ _____ _____    ______ ____

>  <TORSDO>
F 1

$$$$
=
 OpenBabel10262422013D

 30 33  0  0  1  0  0  0  0  0999 V2000
  187.2930  177.5310  142.7030 C   0  0  0  0  0  0  0  0  0  0  0  0
  185.6130  179.1270  143.3360 C   0  0  0  0  0  3  0  0  0  0  0  0
  186.3610  177.7360  147.4840 O   0  0  0  0  0  0  0  0  0  0  0  0
  189.4040  178.4040  144.6550 C   0  0  0  0  0  2  0  0  0  0  0  0
  187.9090  176.2780  143.0060 N   0  0  0  0  0  2  0  0  0  0  0  0
  191.4410  177.1140  142.4790 C   0  0  1  0  0  3  0  0  0  0  0  0
  190.0660  177.0210  142.1330 O   0  0  0  0  0  0  0  0  0  0  0  0
  189.7360  174.8510  142.8430 O   0  0  0  0  0  0  0  0  0  0  0  0
  189.8900  177.1860  147.5870 C   0  0  2  0  0  3  0  0  0  0  0  0
  187.5560  178.2750  148.0260 C   0  0  1  0  0  3  0  0  0  0  0  0
  189.2570  175.9960  142.6280 C   0  0  0  0  0  0  0  0  0  0  0  0
  190.8520  177.9180  144.8580 C   0  0  2  0  0  3  0  0  0  0  0  0
  184.7690  179.9310  144.2610 C   0  0  0  0  0  2  0  0  0  0  0  0
  190.2670  176.0540  146.6220 C   0  0  0  0  0  2  0  0  0  0  0  0
  192.2430  177.5030  141.2550 C   0  0  0  0  0  1  0  0  0  0  0  0
  187.3890  178.0040  141.5370 O   0  0  0  0  0  0  0  0  0  0  0  0
  185.9710  178.0160  146.1750 C   0  0  0  0  0  0  0  0  0  0  0  0
  183.9540  179.0030  145.0940 C   0  0  0  0  0  3  0  0  0  0  0  0
  191.6540  178.1700  143.5740 C   0  0  0  0  0  2  0  0  0  0  0  0
  186.5630  178.2800  143.7500 C   0  0  0  0  0  0  0  0  0  0  0  0
  188.3630  177.8110  145.6050 C   0  0  1  0  0  3  0  0  0  0  0  0
  187.7670  177.7520  149.4380 C   0  0  0  0  0  1  0  0  0  0  0  0
  188.7550  178.1140  147.0690 C   0  0  2  0  0  3  0  0  0  0  0  0
  192.4310  176.2770  145.6430 O   0  0  0  0  0  1  0  0  0  0  0  0
  184.5160  178.1550  145.9550 C   0  0  0  0  0  3  0  0  0  0  0  0
  186.9190  178.1200  145.2080 C   0  0  0  0  0  0  0  0  0  0  0  0
  191.0740  176.4790  145.3870 C   0  0  2  0  0  3  0  0  0  0  0  0
  191.0860  177.8780  148.0940 N   0  0  0  0  0  0  0  0  0  0  0  0
  192.0320  176.8690  148.5320 C   0  0  0  0  0  1  0  0  0  0  0  0
  190.7740  178.6280  149.1800 O   0  0  0  0  0  1  0  0  0  0  0  0
  1  5  1  0  0  0  0
  1 20  1  0  0  0  0
  2 20  2  0  0  0  0
  2 13  1  0  0  0  0
  3 10  1  0  0  0  0
  4 12  1  0  0  0  0
  6 15  1  6  0  0  0
  6 19  1  0  0  0  0
  7  6  1  0  0  0  0
  7 11  1  0  0  0  0
  9 28  1  6  0  0  0
 10 22  1  1  0  0  0
 11  8  2  0  0  0  0
 11  5  1  0  0  0  0
 12 19  1  6  0  0  0
 12 27  1  0  0  0  0
 13 18  1  0  0  0  0
 14  9  1  0  0  0  0
 16  1  2  0  0  0  0
 17  3  1  0  0  0  0
 18 25  2  0  0  0  0
 20 26  1  0  0  0  0
 21  4  1  6  0  0  0
 21 23  1  0  0  0  0
 23  9  1  0  0  0  0
 23 10  1  0  0  0  0
 25 17  1  0  0  0  0
 26 21  1  0  0  0  0
 26 17  2  0  0  0  0
 27 24  1  0  0  0  0
 27 14  1  0  0  0  0
 28 29  1  0  0  0  0
 28 30  1  0  0  0  0
M  END
>  <MODEL>
5

>  <REMARK>
 VINA RESULT:      -6.6      2.888      5.832
  Name = 
  1 active torsions:
  status: ('A' for Active; 'I' for Inactive)
    1  A    between atoms: N_7  and  C_10
                            x       y       z     vdW  Elec       q    Type
                         _______ _______ _______ _____ _____    ______ ____

>  <TORSDO>
F 1

$$$$
=
 OpenBabel10262422013D

 30 33  0  0  1  0  0  0  0  0999 V2000
  186.2690  178.6380  141.4450 C   0  0  0  0  0  0  0  0  0  0  0  0
  186.5270  177.8030  143.6830 C   0  0  0  0  0  3  0  0  0  0  0  0
  182.3980  179.2960  144.3350 O   0  0  0  0  0  0  0  0  0  0  0  0
  183.6430  177.3080  140.8420 C   0  0  0  0  0  2  0  0  0  0  0  0
  185.6560  179.6240  140.6130 N   0  0  0  0  0  2  0  0  0  0  0  0
  184.6310  177.5630  137.7580 C   0  0  1  0  0  3  0  0  0  0  0  0
  185.5380  178.0880  138.7170 O   0  0  0  0  0  0  0  0  0  0  0  0
  184.9210  180.3020  138.5150 O   0  0  0  0  0  0  0  0  0  0  0  0
  180.7300  178.5960  141.2540 C   0  0  2  0  0  3  0  0  0  0  0  0
  181.4200  178.4400  143.7690 C   0  0  1  0  0  3  0  0  0  0  0  0
  185.3890  179.3780  139.2320 C   0  0  0  0  0  0  0  0  0  0  0  0
  182.8000  177.2800  139.5530 C   0  0  2  0  0  3  0  0  0  0  0  0
  186.1120  177.4490  145.0680 C   0  0  0  0  0  2  0  0  0  0  0  0
  181.3670  179.4140  140.1220 C   0  0  0  0  0  2  0  0  0  0  0  0
  185.4000  176.7870  136.7100 C   0  0  0  0  0  1  0  0  0  0  0  0
  187.3000  178.0350  141.0360 O   0  0  0  0  0  0  0  0  0  0  0  0
  183.7590  179.0270  144.2000 C   0  0  0  0  0  0  0  0  0  0  0  0
  185.6680  178.6880  145.7650 C   0  0  0  0  0  3  0  0  0  0  0  0
  183.6150  176.6260  138.4290 C   0  0  0  0  0  2  0  0  0  0  0  0
  185.6910  178.3080  142.7670 C   0  0  0  0  0  0  0  0  0  0  0  0
  183.2130  178.3260  141.8990 C   0  0  1  0  0  3  0  0  0  0  0  0
  180.0300  179.0090  144.0100 C   0  0  0  0  0  1  0  0  0  0  0  0
  181.7450  178.0680  142.3070 C   0  0  2  0  0  3  0  0  0  0  0  0
  181.3110  178.3480  137.9890 O   0  0  0  0  0  1  0  0  0  0  0  0
  184.6020  179.3780  145.3630 C   0  0  0  0  0  3  0  0  0  0  0  0
  184.2180  178.4940  143.0380 C   0  0  0  0  0  0  0  0  0  0  0  0
  182.1460  178.6010  139.0780 C   0  0  2  0  0  3  0  0  0  0  0  0
  179.7910  177.5930  140.7270 N   0  0  0  0  0  0  0  0  0  0  0  0
  178.9310  178.2510  139.7620 C   0  0  0  0  0  1  0  0  0  0  0  0
  178.9910  177.1270  141.7180 O   0  0  0  0  0  1  0  0  0  0  0  0
  1 20  1  0  0  0  0
  2 13  1  0  0  0  0
  5  1  1  0  0  0  0
  6 15  1  6  0  0  0
  6 19  1  0  0  0  0
  6  7  1  0  0  0  0
  7 11  1  0  0  0  0
  8 11  2  0  0  0  0
  9 28  1  6  0  0  0
  9 23  1  0  0  0  0
 10 22  1  6  0  0  0
 10  3  1  0  0  0  0
 11  5  1  0  0  0  0
 12 19  1  6  0  0  0
 12  4  1  0  0  0  0
 13 18  1  0  0  0  0
 14  9  1  0  0  0  0
 16  1  2  0  0  0  0
 17  3  1  0  0  0  0
 17 25  1  0  0  0  0
 20 26  1  0  0  0  0
 20  2  2  0  0  0  0
 21  4  1  6  0  0  0
 21 23  1  0  0  0  0
 21 26  1  0  0  0  0
 23 10  1  0  0  0  0
 24 27  1  0  0  0  0
 25 18  2  0  0  0  0
 26 17  2  0  0  0  0
 27 12  1  0  0  0  0
 27 14  1  0  0  0  0
 28 30  1  0  0  0  0
 29 28  1  0  0  0  0
M  END
>  <MODEL>
6

>  <REMARK>
 VINA RESULT:      -6.5      3.269      6.915
  Name = 
  1 active torsions:
  status: ('A' for Active; 'I' for Inactive)
    1  A    between atoms: N_7  and  C_10
                            x       y       z     vdW  Elec       q    Type
                         _______ _______ _______ _____ _____    ______ ____

>  <TORSDO>
F 1

$$$$
=
 OpenBabel10262422013D

 30 33  0  0  1  0  0  0  0  0999 V2000
  190.4470  177.6460  145.4370 C   0  0  0  0  0  0  0  0  0  0  0  0
  189.4110  176.6120  147.3420 C   0  0  0  0  0  3  0  0  0  0  0  0
  185.7900  178.8930  146.1630 O   0  0  0  0  0  0  0  0  0  0  0  0
  188.3270  176.9500  143.4240 C   0  0  0  0  0  2  0  0  0  0  0  0
  190.4920  178.7990  144.5940 N   0  0  0  0  0  2  0  0  0  0  0  0
  190.7650  177.2190  141.2950 C   0  0  1  0  0  3  0  0  0  0  0  0
  191.1270  177.4670  142.6470 O   0  0  0  0  0  0  0  0  0  0  0  0
  191.0290  179.7700  142.5520 O   0  0  0  0  0  0  0  0  0  0  0  0
  185.8310  178.7920  142.5910 C   0  0  2  0  0  3  0  0  0  0  0  0
  185.1200  178.3070  145.0580 C   0  0  1  0  0  3  0  0  0  0  0  0
  190.9280  178.7180  143.2370 C   0  0  0  0  0  0  0  0  0  0  0  0
  188.2590  177.1970  141.9050 C   0  0  2  0  0  3  0  0  0  0  0  0
  188.3060  176.2520  148.2710 C   0  0  0  0  0  2  0  0  0  0  0  0
  187.0650  179.5380  142.0650 C   0  0  0  0  0  2  0  0  0  0  0  0
  191.8360  176.3780  140.6350 C   0  0  0  0  0  1  0  0  0  0  0  0
  191.4420  176.8710  145.4810 O   0  0  0  0  0  0  0  0  0  0  0  0
  186.9760  178.3530  146.6570 C   0  0  0  0  0  0  0  0  0  0  0  0
  187.7560  177.5020  148.8670 C   0  0  0  0  0  3  0  0  0  0  0  0
  189.4260  176.4710  141.2220 C   0  0  0  0  0  2  0  0  0  0  0  0
  189.2380  177.3500  146.2370 C   0  0  0  0  0  0  0  0  0  0  0  0
  187.5750  177.9550  144.2980 C   0  0  1  0  0  3  0  0  0  0  0  0
  183.9010  179.1390  144.6910 C   0  0  0  0  0  1  0  0  0  0  0  0
  186.0820  177.9850  143.8960 C   0  0  2  0  0  3  0  0  0  0  0  0
  187.9420  178.6690  140.0240 O   0  0  0  0  0  1  0  0  0  0  0  0
  187.1540  178.4300  148.1230 C   0  0  0  0  0  3  0  0  0  0  0  0
  187.8770  177.8230  145.7900 C   0  0  0  0  0  0  0  0  0  0  0  0
  188.1380  178.6590  141.4060 C   0  0  2  0  0  3  0  0  0  0  0  0
  185.1530  178.0520  141.5150 N   0  0  0  0  0  0  0  0  0  0  0  0
  184.7900  179.0030  140.4800 C   0  0  0  0  0  1  0  0  0  0  0  0
  184.0000  177.5030  141.9710 O   0  0  0  0  0  1  0  0  0  0  0  0
  1 16  2  0  0  0  0
  1 20  1  0  0  0  0
  2 13  1  0  0  0  0
  3 17  1  0  0  0  0
  5  1  1  0  0  0  0
  6 15  1  1  0  0  0
  6  7  1  0  0  0  0
  7 11  1  0  0  0  0
  8 11  2  0  0  0  0
  9 28  1  6  0  0  0
  9 23  1  0  0  0  0
 10 22  1  6  0  0  0
 10  3  1  0  0  0  0
 11  5  1  0  0  0  0
 12 19  1  6  0  0  0
 12  4  1  0  0  0  0
 13 18  1  0  0  0  0
 14  9  1  0  0  0  0
 17 25  1  0  0  0  0
 19  6  1  0  0  0  0
 20  2  2  0  0  0  0
 21  4  1  6  0  0  0
 21 26  1  0  0  0  0
 23 21  1  0  0  0  0
 23 10  1  0  0  0  0
 24 27  1  0  0  0  0
 25 18  2  0  0  0  0
 26 20  1  0  0  0  0
 26 17  2  0  0  0  0
 27 12  1  0  0  0  0
 27 14  1  0  0  0  0
 28 30  1  0  0  0  0
 29 28  1  0  0  0  0
M  END
>  <MODEL>
7

>  <REMARK>
 VINA RESULT:      -6.1      2.377      5.691
  Name = 
  1 active torsions:
  status: ('A' for Active; 'I' for Inactive)
    1  A    between atoms: N_7  and  C_10
                            x       y       z     vdW  Elec       q    Type
                         _______ _______ _______ _____ _____    ______ ____

>  <TORSDO>
F 1

$$$$
=
 OpenBabel10262422013D

 30 33  0  0  1  0  0  0  0  0999 V2000
  179.7060  176.6800  140.3480 C   0  0  0  0  0  0  0  0  0  0  0  0
  179.2910  174.4490  139.5580 C   0  0  0  0  0  3  0  0  0  0  0  0
  181.7480  175.6170  136.0510 O   0  0  0  0  0  0  0  0  0  0  0  0
  182.6920  176.6530  140.0190 C   0  0  0  0  0  2  0  0  0  0  0  0
  179.9450  178.0400  139.9830 N   0  0  0  0  0  2  0  0  0  0  0  0
  182.6100  178.9200  142.3430 C   0  0  1  0  0  3  0  0  0  0  0  0
  181.3370  178.4240  141.9530 O   0  0  0  0  0  0  0  0  0  0  0  0
  180.7900  180.1390  140.5100 O   0  0  0  0  0  0  0  0  0  0  0  0
  184.3210  177.6690  137.4430 C   0  0  2  0  0  3  0  0  0  0  0  0
  183.1360  175.6170  136.3410 C   0  0  1  0  0  3  0  0  0  0  0  0
  180.6710  178.9280  140.8330 C   0  0  0  0  0  0  0  0  0  0  0  0
  183.7550  177.7100  140.3740 C   0  0  2  0  0  3  0  0  0  0  0  0
  179.4250  173.2680  138.6630 C   0  0  0  0  0  2  0  0  0  0  0  0
  183.7040  178.9380  138.0450 C   0  0  0  0  0  2  0  0  0  0  0  0
  182.6590  179.0490  143.8510 C   0  0  0  0  0  1  0  0  0  0  0  0
  179.2760  176.4150  141.5050 O   0  0  0  0  0  0  0  0  0  0  0  0
  180.8050  175.3220  137.0330 C   0  0  0  0  0  0  0  0  0  0  0  0
  178.9750  173.6510  137.2960 C   0  0  0  0  0  3  0  0  0  0  0  0
  183.7260  177.9690  141.8860 C   0  0  0  0  0  2  0  0  0  0  0  0
  179.9780  175.5870  139.3890 C   0  0  0  0  0  0  0  0  0  0  0  0
  182.2420  176.6250  138.5570 C   0  0  1  0  0  3  0  0  0  0  0  0
  183.9240  176.0390  135.1100 C   0  0  0  0  0  1  0  0  0  0  0  0
  183.4610  176.3880  137.6370 C   0  0  2  0  0  3  0  0  0  0  0  0
  184.8750  179.7980  139.9370 O   0  0  0  0  0  1  0  0  0  0  0  0
  179.6150  174.5720  136.5770 C   0  0  0  0  0  3  0  0  0  0  0  0
  181.0170  175.7450  138.3070 C   0  0  0  0  0  0  0  0  0  0  0  0
  183.7610  179.0390  139.5770 C   0  0  2  0  0  3  0  0  0  0  0  0
  185.7400  177.5360  137.8120 N   0  0  0  0  0  0  0  0  0  0  0  0
  186.5110  178.3970  136.9340 C   0  0  0  0  0  1  0  0  0  0  0  0
  186.1680  176.2670  137.5990 O   0  0  0  0  0  1  0  0  0  0  0  0
  1 16  2  0  0  0  0
  3 10  1  0  0  0  0
  3 17  1  0  0  0  0
  5  1  1  0  0  0  0
  5 11  1  0  0  0  0
  6 15  1  1  0  0  0
  7  6  1  0  0  0  0
  8 11  2  0  0  0  0
  9 23  1  0  0  0  0
  9 28  1  1  0  0  0
  9 14  1  0  0  0  0
 10 22  1  6  0  0  0
 10 23  1  0  0  0  0
 11  7  1  0  0  0  0
 12  4  1  6  0  0  0
 12 19  1  0  0  0  0
 13  2  1  0  0  0  0
 14 27  1  0  0  0  0
 17 26  2  0  0  0  0
 18 13  1  0  0  0  0
 19  6  1  0  0  0  0
 20  2  2  0  0  0  0
 20  1  1  0  0  0  0
 21  4  1  1  0  0  0
 23 21  1  0  0  0  0
 25 17  1  0  0  0  0
 25 18  2  0  0  0  0
 26 21  1  0  0  0  0
 26 20  1  0  0  0  0
 27 24  1  0  0  0  0
 27 12  1  0  0  0  0
 29 28  1  0  0  0  0
 30 28  1  0  0  0  0
M  END
>  <MODEL>
8

>  <REMARK>
 VINA RESULT:      -6.0      4.783      8.335
  Name = 
  1 active torsions:
  status: ('A' for Active; 'I' for Inactive)
    1  A    between atoms: N_7  and  C_10
                            x       y       z     vdW  Elec       q    Type
                         _______ _______ _______ _____ _____    ______ ____

>  <TORSDO>
F 1

$$$$
=
 OpenBabel10262422013D

 30 33  0  0  1  0  0  0  0  0999 V2000
  191.0030  175.0600  135.3710 C   0  0  0  0  0  0  0  0  0  0  0  0
  192.6580  173.6680  136.4180 C   0  0  0  0  0  3  0  0  0  0  0  0
  192.8930  176.8670  139.4860 O   0  0  0  0  0  0  0  0  0  0  0  0
  189.2880  175.5050  137.7970 C   0  0  0  0  0  2  0  0  0  0  0  0
  190.5560  176.3970  135.1390 N   0  0  0  0  0  2  0  0  0  0  0  0
  186.9410  175.9950  135.6060 C   0  0  1  0  0  3  0  0  0  0  0  0
  188.2160  175.7010  135.0540 O   0  0  0  0  0  0  0  0  0  0  0  0
  188.8440  177.8740  134.6030 O   0  0  0  0  0  0  0  0  0  0  0  0
  189.5130  177.9660  139.8490 C   0  0  2  0  0  3  0  0  0  0  0  0
  191.8020  176.8280  140.3910 C   0  0  1  0  0  3  0  0  0  0  0  0
  189.1830  176.6930  134.8820 C   0  0  0  0  0  0  0  0  0  0  0  0
  187.9530  176.2560  137.9650 C   0  0  2  0  0  3  0  0  0  0  0  0
  193.6150  173.2380  137.4730 C   0  0  0  0  0  2  0  0  0  0  0  0
  189.0260  178.5910  138.5350 C   0  0  0  0  0  2  0  0  0  0  0  0
  185.8750  175.2350  134.8460 C   0  0  0  0  0  1  0  0  0  0  0  0
  190.6320  174.1380  134.5940 O   0  0  0  0  0  0  0  0  0  0  0  0
  192.9800  175.9730  138.4200 C   0  0  0  0  0  0  0  0  0  0  0  0
  194.6510  174.2970  137.6390 C   0  0  0  0  0  3  0  0  0  0  0  0
  186.8840  175.5900  137.0870 C   0  0  0  0  0  2  0  0  0  0  0  0
  191.8780  174.7520  136.5240 C   0  0  0  0  0  0  0  0  0  0  0  0
  190.5440  176.2840  138.1880 C   0  0  1  0  0  3  0  0  0  0  0  0
  191.9280  177.9530  141.4050 C   0  0  0  0  0  1  0  0  0  0  0  0
  190.4440  176.7350  139.6630 C   0  0  2  0  0  3  0  0  0  0  0  0
  186.6960  178.3050  138.1150 O   0  0  0  0  0  1  0  0  0  0  0  0
  194.3440  175.5180  138.0740 C   0  0  0  0  0  3  0  0  0  0  0  0
  191.8470  175.6020  137.7710 C   0  0  0  0  0  0  0  0  0  0  0  0
  187.9510  177.7940  137.7820 C   0  0  2  0  0  3  0  0  0  0  0  0
  188.4010  177.7760  140.7960 N   0  0  0  0  0  0  0  0  0  0  0  0
  188.2890  178.9800  141.5980 C   0  0  0  0  0  1  0  0  0  0  0  0
  188.6740  176.7560  141.6480 O   0  0  0  0  0  1  0  0  0  0  0  0
  1 20  1  0  0  0  0
  2 20  2  0  0  0  0
  2 13  1  0  0  0  0
  3 10  1  0  0  0  0
  4 12  1  0  0  0  0
  5  1  1  0  0  0  0
  6 15  1  6  0  0  0
  6 19  1  0  0  0  0
  7  6  1  0  0  0  0
  8 11  2  0  0  0  0
  9 28  1  1  0  0  0
 10 22  1  6  0  0  0
 11  7  1  0  0  0  0
 11  5  1  0  0  0  0
 12 19  1  6  0  0  0
 13 18  1  0  0  0  0
 14  9  1  0  0  0  0
 16  1  2  0  0  0  0
 17  3  1  0  0  0  0
 18 25  2  0  0  0  0
 20 26  1  0  0  0  0
 21  4  1  1  0  0  0
 21 23  1  0  0  0  0
 23  9  1  0  0  0  0
 23 10  1  0  0  0  0
 25 17  1  0  0  0  0
 26 21  1  0  0  0  0
 26 17  2  0  0  0  0
 27 12  1  0  0  0  0
 27 24  1  0  0  0  0
 27 14  1  0  0  0  0
 28 29  1  0  0  0  0
 28 30  1  0  0  0  0
M  END
>  <MODEL>
9

>  <REMARK>
 VINA RESULT:      -5.5      3.745      7.013
  Name = 
  1 active torsions:
  status: ('A' for Active; 'I' for Inactive)
    1  A    between atoms: N_7  and  C_10
                            x       y       z     vdW  Elec       q    Type
                         _______ _______ _______ _____ _____    ______ ____

>  <TORSDO>
F 1

$$$$
