=
 OpenBabel10262419273D

 31 35  0  0  1  0  0  0  0  0999 V2000
  180.0660  179.6940  142.0160 C   0  0  0  0  0  0  0  0  0  0  0  0
  183.5470  178.6390  140.8790 C   0  0  1  0  0  3  0  0  0  0  0  0
  183.2890  177.6180  139.7940 C   0  0  0  0  0  0  0  0  0  0  0  0
  182.0880  175.6780  138.9490 C   0  0  0  0  0  3  0  0  0  0  0  0
  182.3510  178.9080  141.7720 C   0  0  0  0  0  0  0  0  0  0  0  0
  180.1240  179.4520  143.3900 C   0  0  0  0  0  3  0  0  0  0  0  0
  182.2870  176.6440  139.9380 C   0  0  0  0  0  3  0  0  0  0  0  0
  184.8800  178.7370  143.0750 C   0  0  2  0  0  3  0  0  0  0  0  0
  178.9310  180.1870  141.4620 F   0  0  0  0  0  0  0  0  0  0  0  0
  186.3440  178.2580  139.5400 C   0  0  0  0  0  2  0  0  0  0  0  0
  182.9010  175.6630  137.8140 C   0  0  0  0  0  3  0  0  0  0  0  0
  183.6600  178.1700  143.7910 C   0  0  0  0  0  2  0  0  0  0  0  0
  184.8680  178.3030  141.6060 C   0  0  2  0  0  3  0  0  0  0  0  0
  181.1760  179.4270  141.2100 C   0  0  0  0  0  3  0  0  0  0  0  0
  183.9200  176.6080  137.6720 C   0  0  0  0  0  3  0  0  0  0  0  0
  182.4130  178.6940  143.1620 C   0  0  0  0  0  0  0  0  0  0  0  0
  181.2970  178.9530  143.9620 C   0  0  0  0  0  3  0  0  0  0  0  0
  186.0340  178.9560  140.8630 C   0  0  0  0  0  2  0  0  0  0  0  0
  184.1240  177.5820  138.6560 C   0  0  0  0  0  0  0  0  0  0  0  0
  185.2680  178.5330  138.4960 C   0  0  0  0  0  2  0  0  0  0  0  0
  185.6240  179.2620  145.7730 O   0  0  0  0  0  0  0  0  0  0  0  0
  186.4050  178.5420  145.0920 C   0  0  0  0  0  0  0  0  0  0  0  0
  186.0910  178.2530  143.7250 N   0  0  0  0  0  2  0  0  0  0  0  0
  190.0370  176.9500  146.7380 C   0  0  0  0  0  0  0  0  0  0  0  0
  188.6920  177.6100  144.8410 C   0  0  0  0  0  3  0  0  0  0  0  0
  186.8100  178.2110  147.9800 O   0  0  0  0  0  1  0  0  0  0  0  0
  191.3010  176.3960  147.2900 C   0  0  0  0  0  1  0  0  0  0  0  0
  189.8810  177.0910  145.3590 C   0  0  0  0  0  3  0  0  0  0  0  0
  187.8120  177.8480  147.0880 C   0  0  0  0  0  0  0  0  0  0  0  0
  187.6450  177.9950  145.6920 C   0  0  0  0  0  0  0  0  0  0  0  0
  189.0050  177.3270  147.5990 C   0  0  0  0  0  3  0  0  0  0  0  0
  1  6  1  0  0  0  0
  2  3  1  6  0  0  0
  2 13  1  0  0  0  0
  2  5  1  0  0  0  0
  3  7  1  0  0  0  0
  4  7  2  0  0  0  0
  5 16  2  0  0  0  0
  6 17  2  0  0  0  0
  8 23  1  1  0  0  0
  8 12  1  0  0  0  0
  9  1  1  0  0  0  0
 10 18  1  0  0  0  0
 11  4  1  0  0  0  0
 13 18  1  6  0  0  0
 13  8  1  0  0  0  0
 14  5  1  0  0  0  0
 14  1  2  0  0  0  0
 15 11  2  0  0  0  0
 15 19  1  0  0  0  0
 16 12  1  0  0  0  0
 16 17  1  0  0  0  0
 19  3  2  0  0  0  0
 20 19  1  0  0  0  0
 20 10  1  0  0  0  0
 22 30  1  0  0  0  0
 22 21  2  0  0  0  0
 23 22  1  0  0  0  0
 24 27  1  0  0  0  0
 24 31  1  0  0  0  0
 25 28  1  0  0  0  0
 25 30  2  0  0  0  0
 28 24  2  0  0  0  0
 29 31  2  0  0  0  0
 29 26  1  0  0  0  0
 30 29  1  0  0  0  0
M  END
>  <MODEL>
1

>  <REMARK>
 VINA RESULT:      -9.5      0.000      0.000
  Name = 
  2 active torsions:
  status: ('A' for Active; 'I' for Inactive)
    1  A    between atoms: C_9  and  C_22
    2  A    between atoms: C_15  and  N_23
                            x       y       z     vdW  Elec       q    Type
                         _______ _______ _______ _____ _____    ______ ____

>  <TORSDO>
F 2

$$$$
=
 OpenBabel10262419273D

 31 35  0  0  1  0  0  0  0  0999 V2000
  180.2290  179.6890  138.5570 C   0  0  0  0  0  0  0  0  0  0  0  0
  183.8220  178.4510  138.8420 C   0  0  1  0  0  3  0  0  0  0  0  0
  183.9130  177.3370  137.8240 C   0  0  0  0  0  0  0  0  0  0  0  0
  182.9870  175.3530  136.7620 C   0  0  0  0  0  3  0  0  0  0  0  0
  182.4030  178.8310  139.2190 C   0  0  0  0  0  0  0  0  0  0  0  0
  179.7790  179.5770  139.8740 C   0  0  0  0  0  3  0  0  0  0  0  0
  182.8720  176.4040  137.6740 C   0  0  0  0  0  3  0  0  0  0  0  0
  184.2850  178.7270  141.3560 C   0  0  2  0  0  3  0  0  0  0  0  0
  179.3960  180.1520  137.5940 F   0  0  0  0  0  0  0  0  0  0  0  0
  186.8870  177.8800  138.6390 C   0  0  0  0  0  2  0  0  0  0  0  0
  184.1500  175.2110  136.0020 C   0  0  0  0  0  3  0  0  0  0  0  0
  182.8610  178.2580  141.6270 C   0  0  0  0  0  2  0  0  0  0  0  0
  184.7750  178.1550  140.0210 C   0  0  2  0  0  3  0  0  0  0  0  0
  181.5370  179.3200  138.2300 C   0  0  0  0  0  3  0  0  0  0  0  0
  185.2020  176.1150  136.1610 C   0  0  0  0  0  3  0  0  0  0  0  0
  181.9520  178.7480  140.5500 C   0  0  0  0  0  0  0  0  0  0  0  0
  180.6410  179.1080  140.8700 C   0  0  0  0  0  3  0  0  0  0  0  0
  186.1640  178.7070  139.6990 C   0  0  0  0  0  2  0  0  0  0  0  0
  185.0950  177.1730  137.0700 C   0  0  0  0  0  0  0  0  0  0  0  0
  186.2720  178.0780  137.2580 C   0  0  0  0  0  2  0  0  0  0  0  0
  184.5610  180.0030  143.8860 O   0  0  0  0  0  0  0  0  0  0  0  0
  185.2420  178.9590  143.6930 C   0  0  0  0  0  0  0  0  0  0  0  0
  185.1550  178.2800  142.4360 N   0  0  0  0  0  2  0  0  0  0  0  0
  187.8910  177.4070  146.6950 C   0  0  0  0  0  0  0  0  0  0  0  0
  187.3670  177.8770  144.3830 C   0  0  0  0  0  3  0  0  0  0  0  0
  184.5760  179.0020  146.5510 O   0  0  0  0  0  1  0  0  0  0  0  0
  188.8190  176.8650  147.7200 C   0  0  0  0  0  1  0  0  0  0  0  0
  188.2420  177.3680  145.3460 C   0  0  0  0  0  3  0  0  0  0  0  0
  185.7860  178.4670  146.1240 C   0  0  0  0  0  0  0  0  0  0  0  0
  186.1320  178.4320  144.7540 C   0  0  0  0  0  0  0  0  0  0  0  0
  186.6660  177.9550  147.0820 C   0  0  0  0  0  3  0  0  0  0  0  0
  1  6  1  0  0  0  0
  2  3  1  6  0  0  0
  2  5  1  0  0  0  0
  2 13  1  0  0  0  0
  4  7  2  0  0  0  0
  5 16  2  0  0  0  0
  6 17  2  0  0  0  0
  7  3  1  0  0  0  0
  8 12  1  0  0  0  0
  8 23  1  1  0  0  0
  9  1  1  0  0  0  0
 10 18  1  0  0  0  0
 11 15  2  0  0  0  0
 11  4  1  0  0  0  0
 13 18  1  6  0  0  0
 13  8  1  0  0  0  0
 14  1  2  0  0  0  0
 14  5  1  0  0  0  0
 15 19  1  0  0  0  0
 16 17  1  0  0  0  0
 16 12  1  0  0  0  0
 19 20  1  0  0  0  0
 19  3  2  0  0  0  0
 20 10  1  0  0  0  0
 22 21  2  0  0  0  0
 22 30  1  0  0  0  0
 23 22  1  0  0  0  0
 24 31  1  0  0  0  0
 24 27  1  0  0  0  0
 25 30  2  0  0  0  0
 25 28  1  0  0  0  0
 28 24  2  0  0  0  0
 29 26  1  0  0  0  0
 29 31  2  0  0  0  0
 30 29  1  0  0  0  0
M  END
>  <MODEL>
2

>  <REMARK>
 VINA RESULT:      -8.7      1.633      2.352
  Name = 
  2 active torsions:
  status: ('A' for Active; 'I' for Inactive)
    1  A    between atoms: C_9  and  C_22
    2  A    between atoms: C_15  and  N_23
                            x       y       z     vdW  Elec       q    Type
                         _______ _______ _______ _____ _____    ______ ____

>  <TORSDO>
F 2

$$$$
=
 OpenBabel10262419273D

 31 35  0  0  1  0  0  0  0  0999 V2000
  187.2150  178.1690  135.8440 C   0  0  0  0  0  0  0  0  0  0  0  0
  190.3470  176.8340  137.5550 C   0  0  1  0  0  3  0  0  0  0  0  0
  190.6730  175.5670  136.7980 C   0  0  0  0  0  0  0  0  0  0  0  0
  189.9790  173.4810  135.7550 C   0  0  0  0  0  3  0  0  0  0  0  0
  188.9310  177.3330  137.3460 C   0  0  0  0  0  0  0  0  0  0  0  0
  186.3290  178.2920  136.9160 C   0  0  0  0  0  3  0  0  0  0  0  0
  189.6620  174.6700  136.4150 C   0  0  0  0  0  3  0  0  0  0  0  0
  189.9400  177.4920  140.0070 C   0  0  2  0  0  3  0  0  0  0  0  0
  186.8160  178.5060  134.5940 F   0  0  0  0  0  0  0  0  0  0  0  0
  193.2220  176.1010  138.5370 C   0  0  0  0  0  2  0  0  0  0  0  0
  191.3120  173.1650  135.4860 C   0  0  0  0  0  3  0  0  0  0  0  0
  188.4700  177.1380  139.8140 C   0  0  0  0  0  2  0  0  0  0  0  0
  190.8010  176.6910  139.0250 C   0  0  2  0  0  3  0  0  0  0  0  0
  188.5120  177.6940  136.0580 C   0  0  0  0  0  3  0  0  0  0  0  0
  192.3290  174.0350  135.8860 C   0  0  0  0  0  3  0  0  0  0  0  0
  188.0420  177.4880  138.4280 C   0  0  0  0  0  0  0  0  0  0  0  0
  186.7440  177.9530  138.2070 C   0  0  0  0  0  3  0  0  0  0  0  0
  192.2630  177.1210  139.1480 C   0  0  0  0  0  2  0  0  0  0  0  0
  192.0210  175.2300  136.5440 C   0  0  0  0  0  0  0  0  0  0  0  0
  193.1440  176.1000  137.0140 C   0  0  0  0  0  2  0  0  0  0  0  0
  188.8190  178.6680  142.3460 O   0  0  0  0  0  0  0  0  0  0  0  0
  189.7240  177.8050  142.5140 C   0  0  0  0  0  0  0  0  0  0  0  0
  190.3350  177.1880  141.3760 N   0  0  0  0  0  2  0  0  0  0  0  0
  191.0880  176.6920  146.4310 C   0  0  0  0  0  0  0  0  0  0  0  0
  191.4860  176.9990  144.0660 C   0  0  0  0  0  3  0  0  0  0  0  0
  187.9790  177.9000  144.8730 O   0  0  0  0  0  1  0  0  0  0  0  0
  191.5770  176.3030  147.7790 C   0  0  0  0  0  1  0  0  0  0  0  0
  191.9470  176.6330  145.3330 C   0  0  0  0  0  3  0  0  0  0  0  0
  189.3000  177.4840  144.9970 C   0  0  0  0  0  0  0  0  0  0  0  0
  190.1630  177.4280  143.8790 C   0  0  0  0  0  0  0  0  0  0  0  0
  189.7690  177.1160  146.2620 C   0  0  0  0  0  3  0  0  0  0  0  0
  1 14  2  0  0  0  0
  1  6  1  0  0  0  0
  2  3  1  1  0  0  0
  2 13  1  0  0  0  0
  4  7  1  0  0  0  0
  5  2  1  0  0  0  0
  5 16  2  0  0  0  0
  6 17  2  0  0  0  0
  7  3  2  0  0  0  0
  8 23  1  1  0  0  0
  9  1  1  0  0  0  0
 10 18  1  0  0  0  0
 11  4  2  0  0  0  0
 11 15  1  0  0  0  0
 12  8  1  0  0  0  0
 13 18  1  6  0  0  0
 13  8  1  0  0  0  0
 14  5  1  0  0  0  0
 15 19  2  0  0  0  0
 16 12  1  0  0  0  0
 17 16  1  0  0  0  0
 19  3  1  0  0  0  0
 19 20  1  0  0  0  0
 20 10  1  0  0  0  0
 21 22  2  0  0  0  0
 22 30  1  0  0  0  0
 23 22  1  0  0  0  0
 24 27  1  0  0  0  0
 25 28  1  0  0  0  0
 26 29  1  0  0  0  0
 28 24  2  0  0  0  0
 29 31  2  0  0  0  0
 30 25  2  0  0  0  0
 30 29  1  0  0  0  0
 31 24  1  0  0  0  0
M  END
>  <MODEL>
3

>  <REMARK>
 VINA RESULT:      -8.4      4.920      6.873
  Name = 
  2 active torsions:
  status: ('A' for Active; 'I' for Inactive)
    1  A    between atoms: C_9  and  C_22
    2  A    between atoms: C_15  and  N_23
                            x       y       z     vdW  Elec       q    Type
                         _______ _______ _______ _____ _____    ______ ____

>  <TORSDO>
F 2

$$$$
=
 OpenBabel10262419273D

 31 35  0  0  1  0  0  0  0  0999 V2000
  191.3210  178.5470  143.5810 C   0  0  0  0  0  0  0  0  0  0  0  0
  187.7520  178.5040  144.9150 C   0  0  1  0  0  3  0  0  0  0  0  0
  187.8740  177.8690  146.2820 C   0  0  0  0  0  0  0  0  0  0  0  0
  188.7720  176.1470  147.7480 C   0  0  0  0  0  3  0  0  0  0  0  0
  188.9480  178.2660  144.0130 C   0  0  0  0  0  0  0  0  0  0  0  0
  191.1830  177.8790  142.3620 C   0  0  0  0  0  3  0  0  0  0  0  0
  188.7020  176.7530  146.4920 C   0  0  0  0  0  3  0  0  0  0  0  0
  186.3860  178.0890  142.7770 C   0  0  2  0  0  3  0  0  0  0  0  0
  192.5370  179.0030  143.9690 F   0  0  0  0  0  0  0  0  0  0  0  0
  184.9720  179.0430  146.2350 C   0  0  0  0  0  2  0  0  0  0  0  0
  188.0020  176.6380  148.8040 C   0  0  0  0  0  3  0  0  0  0  0  0
  187.4760  177.1280  142.3180 C   0  0  0  0  0  2  0  0  0  0  0  0
  186.3730  178.1660  144.3070 C   0  0  2  0  0  3  0  0  0  0  0  0
  190.2080  178.7430  144.4020 C   0  0  0  0  0  3  0  0  0  0  0  0
  187.1540  177.7290  148.6020 C   0  0  0  0  0  3  0  0  0  0  0  0
  188.8100  177.6200  142.7700 C   0  0  0  0  0  0  0  0  0  0  0  0
  189.9280  177.4170  141.9570 C   0  0  0  0  0  3  0  0  0  0  0  0
  185.3500  179.2070  144.7640 C   0  0  0  0  0  2  0  0  0  0  0  0
  187.0800  178.3440  147.3480 C   0  0  0  0  0  0  0  0  0  0  0  0
  186.1090  179.4670  147.1570 C   0  0  0  0  0  2  0  0  0  0  0  0
  184.8070  179.3780  140.7890 O   0  0  0  0  0  0  0  0  0  0  0  0
  184.3510  178.3090  141.2800 C   0  0  0  0  0  0  0  0  0  0  0  0
  185.0940  177.6220  142.2930 N   0  0  0  0  0  2  0  0  0  0  0  0
  180.6400  176.6560  139.8870 C   0  0  0  0  0  0  0  0  0  0  0  0
  183.0560  176.7530  139.8440 C   0  0  0  0  0  3  0  0  0  0  0  0
  181.7490  179.2090  142.2970 O   0  0  0  0  0  1  0  0  0  0  0  0
  179.3660  176.0740  139.3930 C   0  0  0  0  0  1  0  0  0  0  0  0
  181.8580  176.2040  139.3790 C   0  0  0  0  0  3  0  0  0  0  0  0
  181.8140  178.2130  141.3300 C   0  0  0  0  0  0  0  0  0  0  0  0
  183.0530  177.7610  140.8210 C   0  0  0  0  0  0  0  0  0  0  0  0
  180.6200  177.6580  140.8590 C   0  0  0  0  0  3  0  0  0  0  0  0
  1  9  1  0  0  0  0
  1 14  1  0  0  0  0
  2  5  1  6  0  0  0
  2  3  1  0  0  0  0
  3  7  2  0  0  0  0
  3 19  1  0  0  0  0
  4 11  2  0  0  0  0
  5 14  2  0  0  0  0
  6  1  2  0  0  0  0
  7  4  1  0  0  0  0
  8 23  1  1  0  0  0
  8 13  1  0  0  0  0
 10 20  1  0  0  0  0
 12 16  1  0  0  0  0
 12  8  1  0  0  0  0
 13 18  1  6  0  0  0
 13  2  1  0  0  0  0
 15 11  1  0  0  0  0
 16  5  1  0  0  0  0
 17  6  1  0  0  0  0
 17 16  2  0  0  0  0
 18 10  1  0  0  0  0
 19 15  2  0  0  0  0
 20 19  1  0  0  0  0
 21 22  2  0  0  0  0
 22 23  1  0  0  0  0
 24 31  1  0  0  0  0
 25 30  2  0  0  0  0
 27 24  1  0  0  0  0
 28 25  1  0  0  0  0
 28 24  2  0  0  0  0
 29 26  1  0  0  0  0
 30 22  1  0  0  0  0
 30 29  1  0  0  0  0
 31 29  2  0  0  0  0
M  END
>  <MODEL>
4

>  <REMARK>
 VINA RESULT:      -8.1      3.437      8.773
  Name = 
  2 active torsions:
  status: ('A' for Active; 'I' for Inactive)
    1  A    between atoms: C_9  and  C_22
    2  A    between atoms: C_15  and  N_23
                            x       y       z     vdW  Elec       q    Type
                         _______ _______ _______ _____ _____    ______ ____

>  <TORSDO>
F 2

$$$$
=
 OpenBabel10262419273D

 31 35  0  0  1  0  0  0  0  0999 V2000
  187.5260  178.2160  135.9280 C   0  0  0  0  0  0  0  0  0  0  0  0
  190.1900  177.3290  138.5050 C   0  0  1  0  0  3  0  0  0  0  0  0
  190.8270  176.0700  137.9620 C   0  0  0  0  0  0  0  0  0  0  0  0
  190.6400  173.8690  136.9420 C   0  0  0  0  0  3  0  0  0  0  0  0
  188.8420  177.6550  137.8910 C   0  0  0  0  0  0  0  0  0  0  0  0
  186.3760  178.2940  136.7150 C   0  0  0  0  0  3  0  0  0  0  0  0
  190.0450  175.0470  137.3990 C   0  0  0  0  0  3  0  0  0  0  0  0
  189.0740  178.0620  140.7020 C   0  0  2  0  0  3  0  0  0  0  0  0
  187.4500  178.4430  134.5940 F   0  0  0  0  0  0  0  0  0  0  0  0
  192.7470  176.9740  140.2640 C   0  0  0  0  0  2  0  0  0  0  0  0
  192.0200  173.6920  137.0600 C   0  0  0  0  0  3  0  0  0  0  0  0
  187.7520  177.5360  140.1560 C   0  0  0  0  0  2  0  0  0  0  0  0
  190.2400  177.3130  140.0490 C   0  0  2  0  0  3  0  0  0  0  0  0
  188.7560  177.9010  136.5130 C   0  0  0  0  0  3  0  0  0  0  0  0
  192.8040  174.6890  137.6440 C   0  0  0  0  0  3  0  0  0  0  0  0
  187.6840  177.7640  138.6840 C   0  0  0  0  0  0  0  0  0  0  0  0
  186.4550  178.0690  138.0920 C   0  0  0  0  0  3  0  0  0  0  0  0
  191.5670  177.9100  140.5180 C   0  0  0  0  0  2  0  0  0  0  0  0
  192.2180  175.8740  138.1010 C   0  0  0  0  0  0  0  0  0  0  0  0
  193.0850  176.8870  138.7800 C   0  0  0  0  0  2  0  0  0  0  0  0
  186.8890  178.4950  142.4760 O   0  0  0  0  0  0  0  0  0  0  0  0
  187.9730  178.0970  142.9860 C   0  0  0  0  0  0  0  0  0  0  0  0
  189.1100  177.8740  142.1460 N   0  0  0  0  0  2  0  0  0  0  0  0
  188.1790  177.4160  147.2210 C   0  0  0  0  0  0  0  0  0  0  0  0
  186.8990  177.7720  145.2010 C   0  0  0  0  0  3  0  0  0  0  0  0
  190.5230  177.8050  144.4090 O   0  0  0  0  0  1  0  0  0  0  0  0
  188.2310  177.1810  148.6870 C   0  0  0  0  0  1  0  0  0  0  0  0
  186.9470  177.5500  146.5790 C   0  0  0  0  0  3  0  0  0  0  0  0
  189.3220  177.7240  145.1040 C   0  0  0  0  0  0  0  0  0  0  0  0
  188.0790  177.8620  144.4450 C   0  0  0  0  0  0  0  0  0  0  0  0
  189.3620  177.5030  146.4840 C   0  0  0  0  0  3  0  0  0  0  0  0
  1 14  2  0  0  0  0
  1  6  1  0  0  0  0
  2  5  1  1  0  0  0
  2 13  1  0  0  0  0
  3 19  1  0  0  0  0
  3  2  1  0  0  0  0
  4 11  2  0  0  0  0
  4  7  1  0  0  0  0
  5 16  2  0  0  0  0
  6 17  2  0  0  0  0
  7  3  2  0  0  0  0
  8 23  1  1  0  0  0
  9  1  1  0  0  0  0
 10 18  1  0  0  0  0
 11 15  1  0  0  0  0
 12  8  1  0  0  0  0
 13 18  1  6  0  0  0
 13  8  1  0  0  0  0
 14  5  1  0  0  0  0
 15 19  2  0  0  0  0
 16 12  1  0  0  0  0
 17 16  1  0  0  0  0
 19 20  1  0  0  0  0
 20 10  1  0  0  0  0
 21 22  2  0  0  0  0
 22 30  1  0  0  0  0
 23 22  1  0  0  0  0
 24 27  1  0  0  0  0
 25 28  2  0  0  0  0
 26 29  1  0  0  0  0
 28 24  1  0  0  0  0
 29 31  1  0  0  0  0
 30 29  2  0  0  0  0
 30 25  1  0  0  0  0
 31 24  2  0  0  0  0
M  END
>  <MODEL>
5

>  <REMARK>
 VINA RESULT:      -7.9      4.556      6.670
  Name = 
  2 active torsions:
  status: ('A' for Active; 'I' for Inactive)
    1  A    between atoms: C_9  and  C_22
    2  A    between atoms: C_15  and  N_23
                            x       y       z     vdW  Elec       q    Type
                         _______ _______ _______ _____ _____    ______ ____

>  <TORSDO>
F 2

$$$$
=
 OpenBabel10262419273D

 31 35  0  0  1  0  0  0  0  0999 V2000
  182.4130  179.4710  139.7680 C   0  0  0  0  0  0  0  0  0  0  0  0
  186.1030  178.6230  139.3280 C   0  0  1  0  0  3  0  0  0  0  0  0
  186.1320  177.7080  138.1250 C   0  0  0  0  0  0  0  0  0  0  0  0
  185.2320  175.8310  136.8650 C   0  0  0  0  0  3  0  0  0  0  0  0
  184.7320  178.7710  139.9590 C   0  0  0  0  0  0  0  0  0  0  0  0
  182.1860  179.0950  141.0940 C   0  0  0  0  0  3  0  0  0  0  0  0
  185.1690  176.6990  137.9570 C   0  0  0  0  0  3  0  0  0  0  0  0
  186.9260  178.5370  141.7620 C   0  0  2  0  0  3  0  0  0  0  0  0
  181.4020  179.9860  139.0280 F   0  0  0  0  0  0  0  0  0  0  0  0
  189.1370  178.4480  138.6040 C   0  0  0  0  0  2  0  0  0  0  0  0
  186.2700  175.9490  135.9380 C   0  0  0  0  0  3  0  0  0  0  0  0
  185.6090  177.8700  142.1400 C   0  0  0  0  0  2  0  0  0  0  0  0
  187.2500  178.2500  140.2930 C   0  0  2  0  0  3  0  0  0  0  0  0
  183.6820  179.3130  139.2030 C   0  0  0  0  0  3  0  0  0  0  0  0
  187.2500  176.9290  136.1090 C   0  0  0  0  0  3  0  0  0  0  0  0
  184.5030  178.4220  141.3040 C   0  0  0  0  0  0  0  0  0  0  0  0
  183.2310  178.5720  141.8610 C   0  0  0  0  0  3  0  0  0  0  0  0
  188.5170  179.0030  139.8850 C   0  0  0  0  0  2  0  0  0  0  0  0
  187.1920  177.8060  137.1980 C   0  0  0  0  0  0  0  0  0  0  0  0
  188.2990  178.7970  137.3790 C   0  0  0  0  0  2  0  0  0  0  0  0
  186.7880  178.2730  144.5940 O   0  0  0  0  0  0  0  0  0  0  0  0
  187.8560  177.9030  144.0350 C   0  0  0  0  0  0  0  0  0  0  0  0
  187.9900  178.0220  142.6140 N   0  0  0  0  0  2  0  0  0  0  0  0
  191.0400  176.3090  146.4360 C   0  0  0  0  0  0  0  0  0  0  0  0
  188.8310  177.2700  146.2280 C   0  0  0  0  0  3  0  0  0  0  0  0
  190.3770  176.9500  142.8720 O   0  0  0  0  0  1  0  0  0  0  0  0
  192.1310  175.7610  147.2820 C   0  0  0  0  0  1  0  0  0  0  0  0
  189.8560  176.7540  147.0250 C   0  0  0  0  0  3  0  0  0  0  0  0
  190.1780  176.8960  144.2460 C   0  0  0  0  0  0  0  0  0  0  0  0
  188.9740  177.3480  144.8340 C   0  0  0  0  0  0  0  0  0  0  0  0
  191.1990  176.3810  145.0500 C   0  0  0  0  0  3  0  0  0  0  0  0
  1  6  1  0  0  0  0
  2  3  1  6  0  0  0
  2  5  1  0  0  0  0
  2 13  1  0  0  0  0
  4  7  2  0  0  0  0
  5 16  2  0  0  0  0
  6 17  2  0  0  0  0
  7  3  1  0  0  0  0
  8 12  1  0  0  0  0
  8 23  1  1  0  0  0
  9  1  1  0  0  0  0
 10 18  1  0  0  0  0
 11 15  2  0  0  0  0
 11  4  1  0  0  0  0
 13 18  1  6  0  0  0
 13  8  1  0  0  0  0
 14  1  2  0  0  0  0
 14  5  1  0  0  0  0
 15 19  1  0  0  0  0
 16 17  1  0  0  0  0
 16 12  1  0  0  0  0
 19 20  1  0  0  0  0
 19  3  2  0  0  0  0
 20 10  1  0  0  0  0
 22 21  2  0  0  0  0
 22 30  1  0  0  0  0
 23 22  1  0  0  0  0
 24 28  1  0  0  0  0
 24 27  1  0  0  0  0
 25 28  2  0  0  0  0
 26 29  1  0  0  0  0
 29 30  2  0  0  0  0
 29 31  1  0  0  0  0
 30 25  1  0  0  0  0
 31 24  2  0  0  0  0
M  END
>  <MODEL>
6

>  <REMARK>
 VINA RESULT:      -7.7      2.104      3.061
  Name = 
  2 active torsions:
  status: ('A' for Active; 'I' for Inactive)
    1  A    between atoms: C_9  and  C_22
    2  A    between atoms: C_15  and  N_23
                            x       y       z     vdW  Elec       q    Type
                         _______ _______ _______ _____ _____    ______ ____

>  <TORSDO>
F 2

$$$$
=
 OpenBabel10262419273D

 31 35  0  0  1  0  0  0  0  0999 V2000
  187.8420  178.0570  148.3650 C   0  0  0  0  0  0  0  0  0  0  0  0
  188.4020  177.3780  144.6570 C   0  0  1  0  0  3  0  0  0  0  0  0
  189.7950  177.9010  144.3910 C   0  0  0  0  0  0  0  0  0  0  0  0
  191.5030  179.6140  144.6520 C   0  0  0  0  0  3  0  0  0  0  0  0
  187.7830  177.8930  145.9430 C   0  0  0  0  0  0  0  0  0  0  0  0
  186.6570  178.7970  148.3480 C   0  0  0  0  0  3  0  0  0  0  0  0
  190.2310  179.1180  144.9420 C   0  0  0  0  0  3  0  0  0  0  0  0
  186.0500  177.7430  143.6850 C   0  0  2  0  0  3  0  0  0  0  0  0
  188.4510  177.7810  149.5440 F   0  0  0  0  0  0  0  0  0  0  0  0
  189.0830  176.2610  141.8200 C   0  0  0  0  0  2  0  0  0  0  0  0
  192.3490  178.9090  143.7930 C   0  0  0  0  0  3  0  0  0  0  0  0
  185.8790  178.9110  144.6480 C   0  0  0  0  0  2  0  0  0  0  0  0
  187.5380  177.5290  143.3860 C   0  0  2  0  0  3  0  0  0  0  0  0
  188.4010  177.6030  147.1680 C   0  0  0  0  0  3  0  0  0  0  0  0
  191.9180  177.7120  143.2160 C   0  0  0  0  0  3  0  0  0  0  0  0
  186.5740  178.6140  145.9340 C   0  0  0  0  0  0  0  0  0  0  0  0
  186.0240  179.0740  147.1340 C   0  0  0  0  0  3  0  0  0  0  0  0
  187.7170  176.2940  142.5030 C   0  0  0  0  0  2  0  0  0  0  0  0
  190.6460  177.2060  143.5040 C   0  0  0  0  0  0  0  0  0  0  0  0
  190.1990  175.9560  142.8120 C   0  0  0  0  0  2  0  0  0  0  0  0
  183.2860  178.4000  143.4990 O   0  0  0  0  0  0  0  0  0  0  0  0
  183.9410  178.3620  142.4210 C   0  0  0  0  0  0  0  0  0  0  0  0
  185.3320  178.0250  142.4490 N   0  0  0  0  0  2  0  0  0  0  0  0
  181.9450  179.1930  138.7110 C   0  0  0  0  0  0  0  0  0  0  0  0
  181.9130  178.3890  140.9900 C   0  0  0  0  0  3  0  0  0  0  0  0
  185.3390  179.4970  140.1030 O   0  0  0  0  0  1  0  0  0  0  0  0
  181.2390  179.4740  137.4350 C   0  0  0  0  0  1  0  0  0  0  0  0
  181.2470  178.6530  139.7910 C   0  0  0  0  0  3  0  0  0  0  0  0
  183.9820  179.2080  140.0270 C   0  0  0  0  0  0  0  0  0  0  0  0
  183.2830  178.6600  141.1270 C   0  0  0  0  0  0  0  0  0  0  0  0
  183.3080  179.4690  138.8300 C   0  0  0  0  0  3  0  0  0  0  0  0
  1  9  1  0  0  0  0
  2  3  1  6  0  0  0
  2  5  1  0  0  0  0
  3  7  1  0  0  0  0
  4  7  2  0  0  0  0
  5 14  1  0  0  0  0
  6  1  1  0  0  0  0
  8 23  1  6  0  0  0
  8 12  1  0  0  0  0
 10 18  1  0  0  0  0
 10 20  1  0  0  0  0
 11  4  1  0  0  0  0
 12 16  1  0  0  0  0
 13 18  1  6  0  0  0
 13  8  1  0  0  0  0
 13  2  1  0  0  0  0
 14  1  2  0  0  0  0
 15 19  1  0  0  0  0
 15 11  2  0  0  0  0
 16  5  2  0  0  0  0
 16 17  1  0  0  0  0
 17  6  2  0  0  0  0
 19  3  2  0  0  0  0
 20 19  1  0  0  0  0
 22 23  1  0  0  0  0
 22 21  2  0  0  0  0
 24 31  2  0  0  0  0
 24 28  1  0  0  0  0
 25 30  1  0  0  0  0
 27 24  1  0  0  0  0
 28 25  2  0  0  0  0
 29 26  1  0  0  0  0
 29 30  2  0  0  0  0
 30 22  1  0  0  0  0
 31 29  1  0  0  0  0
M  END
>  <MODEL>
7

>  <REMARK>
 VINA RESULT:      -7.7      3.228      8.201
  Name = 
  2 active torsions:
  status: ('A' for Active; 'I' for Inactive)
    1  A    between atoms: C_9  and  C_22
    2  A    between atoms: C_15  and  N_23
                            x       y       z     vdW  Elec       q    Type
                         _______ _______ _______ _____ _____    ______ ____

>  <TORSDO>
F 2

$$$$
=
 OpenBabel10262419273D

 31 35  0  0  1  0  0  0  0  0999 V2000
  180.2810  180.1710  136.9260 C   0  0  0  0  0  0  0  0  0  0  0  0
  183.5190  178.2590  137.5450 C   0  0  1  0  0  3  0  0  0  0  0  0
  183.2120  176.8510  137.0890 C   0  0  0  0  0  0  0  0  0  0  0  0
  181.7280  174.9250  137.0050 C   0  0  0  0  0  3  0  0  0  0  0  0
  182.2900  179.1130  137.7890 C   0  0  0  0  0  0  0  0  0  0  0  0
  180.0190  180.7130  138.1860 C   0  0  0  0  0  3  0  0  0  0  0  0
  181.9830  176.2420  137.3930 C   0  0  0  0  0  3  0  0  0  0  0  0
  184.4010  179.3800  139.6850 C   0  0  2  0  0  3  0  0  0  0  0  0
  179.4350  180.4130  135.8950 F   0  0  0  0  0  0  0  0  0  0  0  0
  186.3210  176.8780  137.4650 C   0  0  0  0  0  2  0  0  0  0  0  0
  182.7050  174.1950  136.3250 C   0  0  0  0  0  3  0  0  0  0  0  0
  182.9650  179.4460  140.1910 C   0  0  0  0  0  2  0  0  0  0  0  0
  184.5500  178.2190  138.6950 C   0  0  2  0  0  3  0  0  0  0  0  0
  181.4140  179.3770  136.7270 C   0  0  0  0  0  3  0  0  0  0  0  0
  183.9410  174.7800  136.0410 C   0  0  0  0  0  3  0  0  0  0  0  0
  182.0350  179.6860  139.0500 C   0  0  0  0  0  0  0  0  0  0  0  0
  180.8960  180.4710  139.2460 C   0  0  0  0  0  3  0  0  0  0  0  0
  185.9620  178.2160  138.1090 C   0  0  0  0  0  2  0  0  0  0  0  0
  184.2040  176.1000  136.4230 C   0  0  0  0  0  0  0  0  0  0  0  0
  185.5650  176.6640  136.1580 C   0  0  0  0  0  2  0  0  0  0  0  0
  183.9290  177.6530  141.8990 O   0  0  0  0  0  0  0  0  0  0  0  0
  185.0150  178.2950  141.8930 C   0  0  0  0  0  0  0  0  0  0  0  0
  185.3040  179.1880  140.8130 N   0  0  0  0  0  2  0  0  0  0  0  0
  187.7730  177.8450  145.1540 C   0  0  0  0  0  0  0  0  0  0  0  0
  185.5410  178.2510  144.3190 C   0  0  0  0  0  3  0  0  0  0  0  0
  187.8680  177.7450  141.4760 O   0  0  0  0  0  1  0  0  0  0  0  0
  188.7130  177.6930  146.2940 C   0  0  0  0  0  1  0  0  0  0  0  0
  186.4230  178.1070  145.3920 C   0  0  0  0  0  3  0  0  0  0  0  0
  187.3620  177.8690  142.7640 C   0  0  0  0  0  0  0  0  0  0  0  0
  185.9930  178.1350  142.9960 C   0  0  0  0  0  0  0  0  0  0  0  0
  188.2390  177.7270  143.8440 C   0  0  0  0  0  3  0  0  0  0  0  0
  1  6  1  0  0  0  0
  2  3  1  1  0  0  0
  2  5  1  0  0  0  0
  2 13  1  0  0  0  0
  3  7  1  0  0  0  0
  4  7  2  0  0  0  0
  5 16  2  0  0  0  0
  6 17  2  0  0  0  0
  8 12  1  0  0  0  0
  8 23  1  1  0  0  0
  9  1  1  0  0  0  0
 10 18  1  0  0  0  0
 11  4  1  0  0  0  0
 13 18  1  6  0  0  0
 13  8  1  0  0  0  0
 14  1  2  0  0  0  0
 14  5  1  0  0  0  0
 15 11  2  0  0  0  0
 15 19  1  0  0  0  0
 16 17  1  0  0  0  0
 16 12  1  0  0  0  0
 19  3  2  0  0  0  0
 20 19  1  0  0  0  0
 20 10  1  0  0  0  0
 22 21  2  0  0  0  0
 22 30  1  0  0  0  0
 23 22  1  0  0  0  0
 24 28  1  0  0  0  0
 24 27  1  0  0  0  0
 25 28  2  0  0  0  0
 26 29  1  0  0  0  0
 29 30  2  0  0  0  0
 29 31  1  0  0  0  0
 30 25  1  0  0  0  0
 31 24  2  0  0  0  0
M  END
>  <MODEL>
8

>  <REMARK>
 VINA RESULT:      -7.6      2.622      3.783
  Name = 
  2 active torsions:
  status: ('A' for Active; 'I' for Inactive)
    1  A    between atoms: C_9  and  C_22
    2  A    between atoms: C_15  and  N_23
                            x       y       z     vdW  Elec       q    Type
                         _______ _______ _______ _____ _____    ______ ____

>  <TORSDO>
F 2

$$$$
=
 OpenBabel10262419273D

 31 35  0  0  1  0  0  0  0  0999 V2000
  180.6230  180.6270  136.9630 C   0  0  0  0  0  0  0  0  0  0  0  0
  182.8340  177.5610  137.4510 C   0  0  1  0  0  3  0  0  0  0  0  0
  181.8570  176.4350  137.7010 C   0  0  0  0  0  0  0  0  0  0  0  0
  179.8670  175.5560  138.7910 C   0  0  0  0  0  3  0  0  0  0  0  0
  182.2430  178.9460  137.6340 C   0  0  0  0  0  0  0  0  0  0  0  0
  181.1380  181.5090  137.9150 C   0  0  0  0  0  3  0  0  0  0  0  0
  180.7380  176.6160  138.5310 C   0  0  0  0  0  3  0  0  0  0  0  0
  184.8800  178.5610  138.6460 C   0  0  2  0  0  3  0  0  0  0  0  0
  179.5860  181.0060  136.1780 F   0  0  0  0  0  0  0  0  0  0  0  0
  184.5930  174.9890  137.2220 C   0  0  0  0  0  2  0  0  0  0  0  0
  180.1150  174.2970  138.2390 C   0  0  0  0  0  3  0  0  0  0  0  0
  183.9300  179.4560  139.4320 C   0  0  0  0  0  2  0  0  0  0  0  0
  184.1510  177.2860  138.2110 C   0  0  2  0  0  3  0  0  0  0  0  0
  181.1760  179.3510  136.8200 C   0  0  0  0  0  3  0  0  0  0  0  0
  181.2390  174.0970  137.4360 C   0  0  0  0  0  3  0  0  0  0  0  0
  182.7760  179.8510  138.5720 C   0  0  0  0  0  0  0  0  0  0  0  0
  182.2140  181.1210  138.7180 C   0  0  0  0  0  3  0  0  0  0  0  0
  185.0710  176.4350  137.3350 C   0  0  0  0  0  2  0  0  0  0  0  0
  182.1150  175.1540  137.1670 C   0  0  0  0  0  0  0  0  0  0  0  0
  183.3430  174.8790  136.3570 C   0  0  0  0  0  2  0  0  0  0  0  0
  187.6110  178.8510  137.8970 O   0  0  0  0  0  0  0  0  0  0  0  0
  187.3770  178.3990  139.0510 C   0  0  0  0  0  0  0  0  0  0  0  0
  186.0240  178.2190  139.4800 N   0  0  0  0  0  2  0  0  0  0  0  0
  190.5480  177.4210  141.7780 C   0  0  0  0  0  0  0  0  0  0  0  0
  188.3560  178.3380  141.3320 C   0  0  0  0  0  3  0  0  0  0  0  0
  189.8720  177.1270  138.1710 O   0  0  0  0  0  1  0  0  0  0  0  0
  191.6350  177.0910  142.7350 C   0  0  0  0  0  1  0  0  0  0  0  0
  189.3770  178.0270  142.2340 C   0  0  0  0  0  3  0  0  0  0  0  0
  189.6810  177.4360  139.5130 C   0  0  0  0  0  0  0  0  0  0  0  0
  188.4910  178.0490  139.9650 C   0  0  0  0  0  0  0  0  0  0  0  0
  190.6990  177.1280  140.4210 C   0  0  0  0  0  3  0  0  0  0  0  0
  1  6  1  0  0  0  0
  2  5  1  1  0  0  0
  2  3  1  0  0  0  0
  2 13  1  0  0  0  0
  3  7  1  0  0  0  0
  5 16  2  0  0  0  0
  6 17  2  0  0  0  0
  7  4  2  0  0  0  0
  8 12  1  0  0  0  0
  8 23  1  1  0  0  0
  9  1  1  0  0  0  0
 10 18  1  0  0  0  0
 11  4  1  0  0  0  0
 13 18  1  6  0  0  0
 13  8  1  0  0  0  0
 14  1  2  0  0  0  0
 14  5  1  0  0  0  0
 15 11  2  0  0  0  0
 16 17  1  0  0  0  0
 16 12  1  0  0  0  0
 19 15  1  0  0  0  0
 19  3  2  0  0  0  0
 20 19  1  0  0  0  0
 20 10  1  0  0  0  0
 21 22  2  0  0  0  0
 22 23  1  0  0  0  0
 22 30  1  0  0  0  0
 24 28  1  0  0  0  0
 24 27  1  0  0  0  0
 25 28  2  0  0  0  0
 26 29  1  0  0  0  0
 29 30  2  0  0  0  0
 29 31  1  0  0  0  0
 30 25  1  0  0  0  0
 31 24  2  0  0  0  0
M  END
>  <MODEL>
9

>  <REMARK>
 VINA RESULT:      -7.3      4.152      5.114
  Name = 
  2 active torsions:
  status: ('A' for Active; 'I' for Inactive)
    1  A    between atoms: C_9  and  C_22
    2  A    between atoms: C_15  and  N_23
                            x       y       z     vdW  Elec       q    Type
                         _______ _______ _______ _____ _____    ______ ____

>  <TORSDO>
F 2

$$$$
