=
 OpenBabel10262422483D

 37 44  0  0  1  0  0  0  0  0999 V2000
  187.5350  177.5190  139.6890 C   0  0  0  0  0  2  0  0  0  0  0  0
  190.4080  177.4370  143.4230 C   0  0  0  0  0  0  0  0  0  0  0  0
  186.2750  177.9120  144.1640 C   0  0  0  0  0  0  0  0  0  0  0  0
  187.9390  177.9880  138.3610 N   0  0  0  0  0  0  0  0  0  0  0  0
  183.8600  178.1980  141.3390 O   0  0  0  0  0  0  0  0  0  0  0  0
  188.5130  177.5840  145.0490 C   0  0  0  0  0  0  0  0  0  0  0  0
  185.7860  178.2250  142.9680 C   0  0  0  0  0  0  0  0  0  0  0  0
  185.4780  177.9880  137.9750 C   0  0  0  0  0  0  0  0  0  0  0  0
  187.6890  177.8090  144.0550 C   0  0  0  0  0  0  0  0  0  0  0  0
  184.3150  178.3990  142.6590 C   0  0  0  0  0  0  0  0  0  0  0  0
  187.9320  177.4130  146.4000 C   0  0  0  0  0  3  0  0  0  0  0  0
  186.8220  178.5240  137.5650 C   0  0  0  0  0  2  0  0  0  0  0  0
  188.0830  178.0640  142.7210 C   0  0  0  0  0  0  0  0  0  0  0  0
  190.5030  175.9680  143.0520 C   0  0  0  0  0  1  0  0  0  0  0  0
  184.6960  178.8120  145.7770 C   0  0  0  0  0  3  0  0  0  0  0  0
  186.5910  177.4550  146.5890 C   0  0  0  0  0  3  0  0  0  0  0  0
  189.5340  178.1660  142.3620 C   0  0  0  0  0  2  0  0  0  0  0  0
  184.7170  178.6550  139.0800 C   0  0  1  0  0  3  0  0  0  0  0  0
  184.7850  177.9010  140.3190 C   0  0  1  0  0  3  0  0  0  0  0  0
  185.5780  177.6590  145.4600 C   0  0  2  0  0  3  0  0  0  0  0  0
  186.9740  178.3170  142.0240 C   0  0  0  0  0  0  0  0  0  0  0  0
  189.8890  177.5490  144.7730 O   0  0  0  0  0  0  0  0  0  0  0  0
  183.4020  178.7950  143.5910 C   0  0  0  0  0  0  0  0  0  0  0  0
  191.8020  178.0250  143.3860 C   0  0  0  0  0  1  0  0  0  0  0  0
  185.5990  179.1280  140.1810 N   0  0  1  0  0  0  0  0  0  0  0  0
  185.0130  177.0110  137.4100 O   0  0  0  0  0  0  0  0  0  0  0  0
  186.9500  178.6580  140.5450 C   0  0  2  0  0  3  0  0  0  0  0  0
  183.7450  179.2700  144.9610 C   0  0  0  0  0  3  0  0  0  0  0  0
  180.9610  178.5770  144.1210 C   0  0  0  0  0  3  0  0  0  0  0  0
  181.9720  178.9440  143.2150 C   0  0  0  0  0  0  0  0  0  0  0  0
  181.6040  179.4030  141.9400 C   0  0  0  0  0  3  0  0  0  0  0  0
  179.9010  179.9890  140.2920 N   0  0  0  0  0  1  0  0  0  0  0  0
  179.2630  179.1590  142.4970 C   0  0  0  0  0  3  0  0  0  0  0  0
  180.2580  179.5150  141.5840 C   0  0  0  0  0  0  0  0  0  0  0  0
  179.6140  178.6880  143.7640 C   0  0  0  0  0  3  0  0  0  0  0  0
  189.7700  176.3900  138.2940 C   0  0  0  0  0  1  0  0  0  0  0  0
  188.4700  176.8360  137.6520 C   0  0  0  0  0  2  0  0  0  0  0  0
  1 27  1  0  0  0  0
  2 22  1  0  0  0  0
  3 20  1  0  0  0  0
  4  1  1  0  0  0  0
  5 10  1  0  0  0  0
  6 11  1  0  0  0  0
  7  3  2  0  0  0  0
  9  3  1  0  0  0  0
  9  6  2  0  0  0  0
 10  7  1  0  0  0  0
 10 23  2  0  0  0  0
 11 16  2  0  0  0  0
 12  8  1  0  0  0  0
 12  4  1  0  0  0  0
 13  9  1  0  0  0  0
 14  2  1  0  0  0  0
 17 13  1  0  0  0  0
 17  2  1  0  0  0  0
 18  8  1  6  0  0  0
 18 25  1  0  0  0  0
 18 19  1  0  0  0  0
 19  5  1  1  0  0  0
 20 15  1  1  0  0  0
 20 16  1  0  0  0  0
 21 13  2  0  0  0  0
 21  7  1  0  0  0  0
 22  6  1  0  0  0  0
 23 28  1  0  0  0  0
 24  2  1  0  0  0  0
 25 19  1  0  0  0  0
 25 27  1  0  0  0  0
 26  8  2  0  0  0  0
 27 21  1  0  0  0  0
 28 15  2  0  0  0  0
 30 23  1  0  0  0  0
 30 29  2  0  0  0  0
 31 30  1  0  0  0  0
 32 34  1  0  0  0  0
 33 35  2  0  0  0  0
 34 31  2  0  0  0  0
 34 33  1  0  0  0  0
 35 29  1  0  0  0  0
 37 36  1  0  0  0  0
 37  4  1  0  0  0  0
M  END
>  <MODEL>
1

>  <REMARK>
 VINA RESULT:     -11.7      0.000      0.000
  Name = 
  2 active torsions:
  status: ('A' for Active; 'I' for Inactive)
    1  A    between atoms: N_5  and  C_23
    2  A    between atoms: C_6  and  C_31
                            x       y       z     vdW  Elec       q    Type
                         _______ _______ _______ _____ _____    ______ ____

>  <TORSDO>
F 2

$$$$
=
 OpenBabel10262422483D

 37 44  0  0  1  0  0  0  0  0999 V2000
  189.4260  177.2120  139.1500 C   0  0  0  0  0  2  0  0  0  0  0  0
  190.6120  177.4850  143.7020 C   0  0  0  0  0  0  0  0  0  0  0  0
  186.5370  178.0240  142.7220 C   0  0  0  0  0  0  0  0  0  0  0  0
  190.3320  177.5540  138.0500 N   0  0  0  0  0  0  0  0  0  0  0  0
  185.4250  178.0410  139.1640 O   0  0  0  0  0  0  0  0  0  0  0  0
  188.2400  177.7830  144.4370 C   0  0  0  0  0  0  0  0  0  0  0  0
  186.5640  178.2230  141.4070 C   0  0  0  0  0  0  0  0  0  0  0  0
  188.2170  177.5160  136.7330 C   0  0  0  0  0  0  0  0  0  0  0  0
  187.8770  177.9120  143.1840 C   0  0  0  0  0  0  0  0  0  0  0  0
  185.3370  178.3660  140.5340 C   0  0  0  0  0  0  0  0  0  0  0  0
  187.1730  177.7400  145.4630 C   0  0  0  0  0  3  0  0  0  0  0  0
  189.6330  178.0120  136.8370 C   0  0  0  0  0  2  0  0  0  0  0  0
  188.7680  178.0410  142.0940 C   0  0  0  0  0  0  0  0  0  0  0  0
  190.7900  175.9870  143.5260 C   0  0  0  0  0  1  0  0  0  0  0  0
  184.4880  179.0720  143.5030 C   0  0  0  0  0  3  0  0  0  0  0  0
  185.8670  177.7980  145.1080 C   0  0  0  0  0  3  0  0  0  0  0  0
  190.2470  178.1100  142.3240 C   0  0  0  0  0  2  0  0  0  0  0  0
  187.1100  178.2830  137.3900 C   0  0  1  0  0  3  0  0  0  0  0  0
  186.6630  177.6500  138.6180 C   0  0  1  0  0  3  0  0  0  0  0  0
  185.3820  177.8940  143.6580 C   0  0  2  0  0  3  0  0  0  0  0  0
  188.0290  178.2260  140.9990 C   0  0  0  0  0  0  0  0  0  0  0  0
  189.6130  177.7230  144.7260 O   0  0  0  0  0  0  0  0  0  0  0  0
  184.1480  178.8470  140.9960 C   0  0  0  0  0  0  0  0  0  0  0  0
  191.9310  178.0670  144.1620 C   0  0  0  0  0  1  0  0  0  0  0  0
  187.5100  178.8590  138.7020 N   0  0  1  0  0  0  0  0  0  0  0  0
  187.9740  176.4890  136.1190 O   0  0  0  0  0  0  0  0  0  0  0  0
  188.5950  178.4260  139.6060 C   0  0  2  0  0  3  0  0  0  0  0  0
  183.9470  179.4490  142.3440 C   0  0  0  0  0  3  0  0  0  0  0  0
  182.9780  179.9250  139.0580 C   0  0  0  0  0  3  0  0  0  0  0  0
  182.9830  178.9590  140.0790 C   0  0  0  0  0  0  0  0  0  0  0  0
  181.8530  178.1430  140.2460 C   0  0  0  0  0  3  0  0  0  0  0  0
  179.6160  177.4320  139.5730 N   0  0  0  0  0  1  0  0  0  0  0  0
  180.7620  179.2260  138.3790 C   0  0  0  0  0  3  0  0  0  0  0  0
  180.7500  178.2720  139.3970 C   0  0  0  0  0  0  0  0  0  0  0  0
  181.8740  180.0540  138.2100 C   0  0  0  0  0  3  0  0  0  0  0  0
  192.5340  176.5250  137.9890 C   0  0  0  0  0  1  0  0  0  0  0  0
  191.0540  176.3400  137.7080 C   0  0  0  0  0  2  0  0  0  0  0  0
  1 27  1  0  0  0  0
  2 24  1  0  0  0  0
  2 22  1  0  0  0  0
  3  9  1  0  0  0  0
  3 20  1  0  0  0  0
  4  1  1  0  0  0  0
  5 10  1  0  0  0  0
  6 22  1  0  0  0  0
  6 11  1  0  0  0  0
  7  3  2  0  0  0  0
  8 12  1  0  0  0  0
  9  6  2  0  0  0  0
 10 23  2  0  0  0  0
 10  7  1  0  0  0  0
 12  4  1  0  0  0  0
 13 17  1  0  0  0  0
 13  9  1  0  0  0  0
 14  2  1  0  0  0  0
 16 11  2  0  0  0  0
 17  2  1  0  0  0  0
 18  8  1  1  0  0  0
 18 19  1  0  0  0  0
 18 25  1  0  0  0  0
 19 25  1  0  0  0  0
 19  5  1  6  0  0  0
 20 15  1  1  0  0  0
 20 16  1  0  0  0  0
 21  7  1  0  0  0  0
 21 13  2  0  0  0  0
 23 28  1  0  0  0  0
 25 27  1  0  0  0  0
 26  8  2  0  0  0  0
 27 21  1  0  0  0  0
 28 15  2  0  0  0  0
 29 30  1  0  0  0  0
 30 31  2  0  0  0  0
 30 23  1  0  0  0  0
 33 34  2  0  0  0  0
 34 32  1  0  0  0  0
 34 31  1  0  0  0  0
 35 33  1  0  0  0  0
 35 29  2  0  0  0  0
 37 36  1  0  0  0  0
 37  4  1  0  0  0  0
M  END
>  <MODEL>
2

>  <REMARK>
 VINA RESULT:     -10.0      1.742      2.583
  Name = 
  2 active torsions:
  status: ('A' for Active; 'I' for Inactive)
    1  A    between atoms: N_5  and  C_23
    2  A    between atoms: C_6  and  C_31
                            x       y       z     vdW  Elec       q    Type
                         _______ _______ _______ _____ _____    ______ ____

>  <TORSDO>
F 2

$$$$
=
 OpenBabel10262422483D

 37 44  0  0  1  0  0  0  0  0999 V2000
  188.8160  177.3290  139.7760 C   0  0  0  0  0  2  0  0  0  0  0  0
  190.6570  177.5760  144.1070 C   0  0  0  0  0  0  0  0  0  0  0  0
  186.4640  177.9680  143.7540 C   0  0  0  0  0  0  0  0  0  0  0  0
  189.5360  177.7250  138.5620 N   0  0  0  0  0  0  0  0  0  0  0  0
  184.8350  177.9970  140.4010 O   0  0  0  0  0  0  0  0  0  0  0  0
  188.4110  177.7670  145.1920 C   0  0  0  0  0  0  0  0  0  0  0  0
  186.2880  178.1880  142.4540 C   0  0  0  0  0  0  0  0  0  0  0  0
  187.2510  177.6230  137.5730 C   0  0  0  0  0  0  0  0  0  0  0  0
  187.8610  177.9020  144.0100 C   0  0  0  0  0  0  0  0  0  0  0  0
  184.9400  178.2960  141.7760 C   0  0  0  0  0  0  0  0  0  0  0  0
  187.5110  177.6650  146.3630 C   0  0  0  0  0  3  0  0  0  0  0  0
  188.6470  178.1740  137.4760 C   0  0  0  0  0  2  0  0  0  0  0  0
  188.5750  178.0840  142.8030 C   0  0  0  0  0  0  0  0  0  0  0  0
  190.8620  176.0900  143.8750 C   0  0  0  0  0  1  0  0  0  0  0  0
  184.5160  178.9200  144.8530 C   0  0  0  0  0  3  0  0  0  0  0  0
  186.1650  177.6760  146.2070 C   0  0  0  0  0  3  0  0  0  0  0  0
  190.0680  178.2080  142.8120 C   0  0  0  0  0  2  0  0  0  0  0  0
  186.2270  178.3350  138.4030 C   0  0  1  0  0  3  0  0  0  0  0  0
  185.9910  177.6640  139.6690 C   0  0  1  0  0  3  0  0  0  0  0  0
  185.4670  177.7760  144.8480 C   0  0  2  0  0  3  0  0  0  0  0  0
  187.6740  178.2570  141.8340 C   0  0  0  0  0  0  0  0  0  0  0  0
  189.8130  177.7570  145.2730 O   0  0  0  0  0  0  0  0  0  0  0  0
  183.8160  178.7220  142.4190 C   0  0  0  0  0  0  0  0  0  0  0  0
  192.0070  178.2030  144.3790 C   0  0  0  0  0  1  0  0  0  0  0  0
  186.7960  178.9050  139.6540 N   0  0  1  0  0  0  0  0  0  0  0  0
  186.9580  176.5980  136.9790 O   0  0  0  0  0  0  0  0  0  0  0  0
  188.0180  178.5020  140.3770 C   0  0  2  0  0  3  0  0  0  0  0  0
  183.7950  179.2940  143.7950 C   0  0  0  0  0  3  0  0  0  0  0  0
  181.3090  178.7120  142.3880 C   0  0  0  0  0  3  0  0  0  0  0  0
  182.5240  178.8020  141.6880 C   0  0  0  0  0  0  0  0  0  0  0  0
  182.4930  178.9170  140.2890 C   0  0  0  0  0  3  0  0  0  0  0  0
  181.2590  179.0890  138.1890 N   0  0  0  0  0  1  0  0  0  0  0  0
  180.0740  178.8860  140.3130 C   0  0  0  0  0  3  0  0  0  0  0  0
  181.2750  178.9640  139.6050 C   0  0  0  0  0  0  0  0  0  0  0  0
  180.0900  178.7590  141.7040 C   0  0  0  0  0  3  0  0  0  0  0  0
  190.7130  176.7640  136.6640 C   0  0  0  0  0  1  0  0  0  0  0  0
  190.2440  176.5470  138.0910 C   0  0  0  0  0  2  0  0  0  0  0  0
  1 27  1  0  0  0  0
  2 24  1  0  0  0  0
  2 22  1  0  0  0  0
  3  9  1  0  0  0  0
  3 20  1  0  0  0  0
  4  1  1  0  0  0  0
  5 10  1  0  0  0  0
  6 22  1  0  0  0  0
  6 11  1  0  0  0  0
  7  3  2  0  0  0  0
  9  6  2  0  0  0  0
 10 23  2  0  0  0  0
 10  7  1  0  0  0  0
 12  8  1  0  0  0  0
 12  4  1  0  0  0  0
 13 17  1  0  0  0  0
 13  9  1  0  0  0  0
 14  2  1  0  0  0  0
 16 11  2  0  0  0  0
 17  2  1  0  0  0  0
 18  8  1  6  0  0  0
 18 25  1  0  0  0  0
 18 19  1  0  0  0  0
 19  5  1  1  0  0  0
 20 15  1  1  0  0  0
 20 16  1  0  0  0  0
 21  7  1  0  0  0  0
 21 13  2  0  0  0  0
 23 28  1  0  0  0  0
 25 19  1  0  0  0  0
 25 27  1  0  0  0  0
 26  8  2  0  0  0  0
 27 21  1  0  0  0  0
 28 15  2  0  0  0  0
 30 29  2  0  0  0  0
 30 23  1  0  0  0  0
 31 30  1  0  0  0  0
 32 34  1  0  0  0  0
 33 35  2  0  0  0  0
 34 31  2  0  0  0  0
 34 33  1  0  0  0  0
 35 29  1  0  0  0  0
 36 37  1  0  0  0  0
 37  4  1  0  0  0  0
M  END
>  <MODEL>
3

>  <REMARK>
 VINA RESULT:      -9.9      1.189      1.422
  Name = 
  2 active torsions:
  status: ('A' for Active; 'I' for Inactive)
    1  A    between atoms: N_5  and  C_23
    2  A    between atoms: C_6  and  C_31
                            x       y       z     vdW  Elec       q    Type
                         _______ _______ _______ _____ _____    ______ ____

>  <TORSDO>
F 2

$$$$
=
 OpenBabel10262422483D

 37 44  0  0  1  0  0  0  0  0999 V2000
  184.7230  178.0640  139.1130 C   0  0  0  0  0  2  0  0  0  0  0  0
  188.5700  177.5410  136.4430 C   0  0  0  0  0  0  0  0  0  0  0  0
  189.0680  177.3080  140.6330 C   0  0  0  0  0  0  0  0  0  0  0  0
  183.5580  178.8590  138.7150 N   0  0  0  0  0  0  0  0  0  0  0  0
  186.1850  177.8900  142.9240 O   0  0  0  0  0  0  0  0  0  0  0  0
  190.0370  177.0860  138.4170 C   0  0  0  0  0  0  0  0  0  0  0  0
  187.9290  177.8080  141.1030 C   0  0  2  0  0  3  0  0  0  0  0  0
  182.9880  178.6270  141.1300 C   0  0  0  0  0  0  0  0  0  0  0  0
  189.0510  177.4140  139.2150 C   0  0  0  0  0  0  0  0  0  0  0  0
  187.5490  177.8550  142.5660 C   0  0  0  0  0  0  0  0  0  0  0  0
  191.2740  176.5520  139.0330 C   0  0  0  0  0  3  0  0  0  0  0  0
  182.8060  179.4070  139.8580 C   0  0  0  0  0  2  0  0  0  0  0  0
  187.8340  178.0020  138.7970 C   0  0  0  0  0  0  0  0  0  0  0  0
  187.9080  176.2120  136.1230 C   0  0  0  0  0  1  0  0  0  0  0  0
  190.7050  177.6250  142.4010 C   0  0  0  0  0  3  0  0  0  0  0  0
  191.3610  176.3780  140.3740 C   0  0  0  0  0  3  0  0  0  0  0  0
  187.6190  178.3650  137.3600 C   0  0  0  0  0  2  0  0  0  0  0  0
  184.1460  178.9330  142.0310 C   0  0  1  0  0  3  0  0  0  0  0  0
  185.2020  177.9430  141.9170 C   0  0  1  0  0  3  0  0  0  0  0  0
  190.2240  176.6910  141.3490 C   0  0  0  0  0  0  0  0  0  0  0  0
  187.1210  178.2560  139.8950 C   0  0  0  0  0  0  0  0  0  0  0  0
  189.8680  177.2880  137.0380 O   0  0  0  0  0  0  0  0  0  0  0  0
  188.4690  177.9180  143.5710 C   0  0  0  0  0  0  0  0  0  0  0  0
  188.7660  178.2960  135.1470 C   0  0  0  0  0  1  0  0  0  0  0  0
  185.3870  179.2650  141.2800 N   0  0  1  0  0  0  0  0  0  0  0  0
  182.1970  177.7450  141.4220 O   0  0  0  0  0  0  0  0  0  0  0  0
  185.7490  178.9040  139.8950 C   0  0  2  0  0  3  0  0  0  0  0  0
  189.9310  178.1230  143.3670 C   0  0  0  0  0  3  0  0  0  0  0  0
  188.9150  177.6270  146.0210 C   0  0  0  0  0  3  0  0  0  0  0  0
  188.0220  177.9600  144.9880 C   0  0  0  0  0  0  0  0  0  0  0  0
  186.6950  178.2810  145.3170 C   0  0  0  0  0  3  0  0  0  0  0  0
  184.9310  178.6280  146.9690 N   0  0  0  0  0  1  0  0  0  0  0  0
  187.1750  177.9720  147.6680 C   0  0  0  0  0  3  0  0  0  0  0  0
  186.2750  178.2930  146.6500 C   0  0  0  0  0  0  0  0  0  0  0  0
  188.4940  177.6370  147.3540 C   0  0  0  0  0  3  0  0  0  0  0  0
  183.2670  176.5740  137.9390 C   0  0  0  0  0  1  0  0  0  0  0  0
  182.6670  177.9660  137.9920 C   0  0  0  0  0  2  0  0  0  0  0  0
  1 27  1  0  0  0  0
  2 22  1  0  0  0  0
  2 17  1  0  0  0  0
  3  7  1  0  0  0  0
  3 20  1  0  0  0  0
  4  1  1  0  0  0  0
  4 12  1  0  0  0  0
  6 11  2  0  0  0  0
  6  9  1  0  0  0  0
  7 21  1  6  0  0  0
  7 10  1  0  0  0  0
  8 26  2  0  0  0  0
  9  3  2  0  0  0  0
 10  5  1  0  0  0  0
 10 23  2  0  0  0  0
 11 16  1  0  0  0  0
 12  8  1  0  0  0  0
 13  9  1  0  0  0  0
 13 21  2  0  0  0  0
 14  2  1  0  0  0  0
 15 28  2  0  0  0  0
 16 20  2  0  0  0  0
 17 13  1  0  0  0  0
 18  8  1  6  0  0  0
 19 18  1  0  0  0  0
 19  5  1  1  0  0  0
 20 15  1  0  0  0  0
 22  6  1  0  0  0  0
 23 30  1  0  0  0  0
 24  2  1  0  0  0  0
 25 19  1  0  0  0  0
 25 18  1  0  0  0  0
 27 21  1  0  0  0  0
 27 25  1  0  0  0  0
 28 23  1  0  0  0  0
 29 35  1  0  0  0  0
 30 31  1  0  0  0  0
 30 29  2  0  0  0  0
 31 34  2  0  0  0  0
 34 32  1  0  0  0  0
 34 33  1  0  0  0  0
 35 33  2  0  0  0  0
 36 37  1  0  0  0  0
 37  4  1  0  0  0  0
M  END
>  <MODEL>
4

>  <REMARK>
 VINA RESULT:      -9.8      2.234      6.036
  Name = 
  2 active torsions:
  status: ('A' for Active; 'I' for Inactive)
    1  A    between atoms: N_5  and  C_23
    2  A    between atoms: C_6  and  C_31
                            x       y       z     vdW  Elec       q    Type
                         _______ _______ _______ _____ _____    ______ ____

>  <TORSDO>
F 2

$$$$
=
 OpenBabel10262422483D

 37 44  0  0  1  0  0  0  0  0999 V2000
  188.8280  177.8150  141.1380 C   0  0  0  0  0  2  0  0  0  0  0  0
  184.3110  178.5600  142.2540 C   0  0  0  0  0  0  0  0  0  0  0  0
  187.0340  178.0230  145.4400 C   0  0  0  0  0  0  0  0  0  0  0  0
  189.2650  177.1750  139.8940 N   0  0  0  0  0  0  0  0  0  0  0  0
  190.6130  177.2280  144.7650 O   0  0  0  0  0  0  0  0  0  0  0  0
  184.7840  178.5710  144.7100 C   0  0  0  0  0  0  0  0  0  0  0  0
  188.1090  177.5190  144.8400 C   0  0  0  0  0  0  0  0  0  0  0  0
  191.4270  177.0150  141.1220 C   0  0  0  0  0  0  0  0  0  0  0  0
  186.0070  178.1690  144.4670 C   0  0  0  0  0  0  0  0  0  0  0  0
  189.4270  177.2400  145.5280 C   0  0  0  0  0  0  0  0  0  0  0  0
  184.4340  178.9110  146.1080 C   0  0  0  0  0  3  0  0  0  0  0  0
  190.5590  176.4830  140.0160 C   0  0  0  0  0  2  0  0  0  0  0  0
  186.4820  177.7400  143.2060 C   0  0  0  0  0  0  0  0  0  0  0  0
  184.6450  179.9620  141.7770 C   0  0  0  0  0  1  0  0  0  0  0  0
  187.1750  177.3000  147.7560 C   0  0  0  0  0  3  0  0  0  0  0  0
  185.3630  178.8410  147.0920 C   0  0  0  0  0  3  0  0  0  0  0  0
  185.5540  177.6480  142.0340 C   0  0  0  0  0  2  0  0  0  0  0  0
  191.2650  176.4840  142.5140 C   0  0  1  0  0  3  0  0  0  0  0  0
  190.5480  177.4130  143.3710 C   0  0  1  0  0  3  0  0  0  0  0  0
  186.8200  178.4320  146.8600 C   0  0  2  0  0  3  0  0  0  0  0  0
  187.7440  177.3410  143.3750 C   0  0  0  0  0  0  0  0  0  0  0  0
  183.8790  178.6240  143.6370 O   0  0  0  0  0  0  0  0  0  0  0  0
  189.5240  176.9450  146.8560 C   0  0  0  0  0  0  0  0  0  0  0  0
  183.1700  178.0330  141.4100 C   0  0  0  0  0  1  0  0  0  0  0  0
  189.8450  176.2140  142.8650 N   0  0  1  0  0  0  0  0  0  0  0  0
  192.2550  177.8790  140.8850 O   0  0  0  0  0  0  0  0  0  0  0  0
  188.6230  176.7890  142.2680 C   0  0  2  0  0  3  0  0  0  0  0  0
  188.3610  176.6900  147.7510 C   0  0  0  0  0  3  0  0  0  0  0  0
  191.5680  175.5200  147.1290 C   0  0  0  0  0  3  0  0  0  0  0  0
  190.8540  176.6830  147.4650 C   0  0  0  0  0  0  0  0  0  0  0  0
  191.3960  177.5590  148.4200 C   0  0  0  0  0  3  0  0  0  0  0  0
  193.1740  178.1930  149.9670 N   0  0  0  0  0  1  0  0  0  0  0  0
  193.3400  176.1400  148.6580 C   0  0  0  0  0  3  0  0  0  0  0  0
  192.6340  177.2920  149.0090 C   0  0  0  0  0  0  0  0  0  0  0  0
  192.8070  175.2530  147.7200 C   0  0  0  0  0  3  0  0  0  0  0  0
  189.8000  177.6380  137.5680 C   0  0  0  0  0  1  0  0  0  0  0  0
  189.4250  178.2340  138.9110 C   0  0  0  0  0  2  0  0  0  0  0  0
  1 27  1  0  0  0  0
  2 22  1  0  0  0  0
  3 20  1  0  0  0  0
  4 12  1  0  0  0  0
  4  1  1  0  0  0  0
  5 10  1  0  0  0  0
  6 11  1  0  0  0  0
  7  3  2  0  0  0  0
  7 10  1  0  0  0  0
  9  6  2  0  0  0  0
  9  3  1  0  0  0  0
 10 23  2  0  0  0  0
 11 16  2  0  0  0  0
 12  8  1  0  0  0  0
 13 21  2  0  0  0  0
 13  9  1  0  0  0  0
 14  2  1  0  0  0  0
 17  2  1  0  0  0  0
 17 13  1  0  0  0  0
 18  8  1  6  0  0  0
 18 25  1  0  0  0  0
 18 19  1  0  0  0  0
 19  5  1  1  0  0  0
 20 16  1  6  0  0  0
 20 15  1  0  0  0  0
 21  7  1  0  0  0  0
 22  6  1  0  0  0  0
 23 30  1  0  0  0  0
 23 28  1  0  0  0  0
 24  2  1  0  0  0  0
 25 19  1  0  0  0  0
 26  8  2  0  0  0  0
 27 25  1  0  0  0  0
 27 21  1  0  0  0  0
 28 15  2  0  0  0  0
 29 30  2  0  0  0  0
 29 35  1  0  0  0  0
 30 31  1  0  0  0  0
 31 34  2  0  0  0  0
 33 34  1  0  0  0  0
 34 32  1  0  0  0  0
 35 33  2  0  0  0  0
 36 37  1  0  0  0  0
 37  4  1  0  0  0  0
M  END
>  <MODEL>
5

>  <REMARK>
 VINA RESULT:      -9.7      3.254      7.498
  Name = 
  2 active torsions:
  status: ('A' for Active; 'I' for Inactive)
    1  A    between atoms: N_5  and  C_23
    2  A    between atoms: C_6  and  C_31
                            x       y       z     vdW  Elec       q    Type
                         _______ _______ _______ _____ _____    ______ ____

>  <TORSDO>
F 2

$$$$
=
 OpenBabel10262422483D

 37 44  0  0  1  0  0  0  0  0999 V2000
  188.4730  177.9990  140.0640 C   0  0  0  0  0  2  0  0  0  0  0  0
  183.7960  178.5650  140.0040 C   0  0  0  0  0  0  0  0  0  0  0  0
  185.6950  178.5100  143.7770 C   0  0  0  0  0  0  0  0  0  0  0  0
  189.2190  177.2700  139.0340 N   0  0  0  0  0  0  0  0  0  0  0  0
  189.3600  177.8780  144.0500 O   0  0  0  0  0  0  0  0  0  0  0  0
  183.6660  178.8420  142.4860 C   0  0  0  0  0  0  0  0  0  0  0  0
  186.9010  178.0190  143.5040 C   0  0  0  0  0  0  0  0  0  0  0  0
  191.0280  177.3650  140.7440 C   0  0  0  0  0  0  0  0  0  0  0  0
  184.9260  178.4970  142.5820 C   0  0  0  0  0  0  0  0  0  0  0  0
  188.0250  177.8900  144.5080 C   0  0  0  0  0  0  0  0  0  0  0  0
  182.9800  179.2940  143.7180 C   0  0  0  0  0  3  0  0  0  0  0  0
  190.4710  176.6750  139.5300 C   0  0  0  0  0  2  0  0  0  0  0  0
  185.7050  177.9780  141.5210 C   0  0  0  0  0  0  0  0  0  0  0  0
  184.1810  179.9320  139.4690 C   0  0  0  0  0  1  0  0  0  0  0  0
  185.3050  178.0250  146.1270 C   0  0  0  0  0  3  0  0  0  0  0  0
  183.6480  179.3780  144.8930 C   0  0  0  0  0  3  0  0  0  0  0  0
  185.0880  177.7160  140.1820 C   0  0  0  0  0  2  0  0  0  0  0  0
  190.5590  176.9630  142.1090 C   0  0  1  0  0  3  0  0  0  0  0  0
  189.6230  177.9230  142.6670 C   0  0  1  0  0  3  0  0  0  0  0  0
  185.1330  179.0400  145.0550 C   0  0  2  0  0  3  0  0  0  0  0  0
  186.9040  177.6770  142.0230 C   0  0  0  0  0  0  0  0  0  0  0  0
  183.0430  178.7350  141.2320 O   0  0  0  0  0  0  0  0  0  0  0  0
  187.8130  177.7320  145.8460 C   0  0  0  0  0  0  0  0  0  0  0  0
  182.9100  177.8880  138.9790 C   0  0  0  0  0  1  0  0  0  0  0  0
  189.1070  176.6400  142.1450 N   0  0  1  0  0  0  0  0  0  0  0  0
  191.8560  178.2530  140.6150 O   0  0  0  0  0  0  0  0  0  0  0  0
  188.0430  177.0760  141.2190 C   0  0  2  0  0  3  0  0  0  0  0  0
  186.4800  177.4920  146.4670 C   0  0  0  0  0  3  0  0  0  0  0  0
  188.9830  178.3380  147.9780 C   0  0  0  0  0  3  0  0  0  0  0  0
  188.9670  177.6130  146.7740 C   0  0  0  0  0  0  0  0  0  0  0  0
  190.0790  176.8210  146.4450 C   0  0  0  0  0  3  0  0  0  0  0  0
  192.2890  175.9230  146.9680 N   0  0  0  0  0  1  0  0  0  0  0  0
  191.1720  177.4500  148.5100 C   0  0  0  0  0  3  0  0  0  0  0  0
  191.1730  176.7360  147.3110 C   0  0  0  0  0  0  0  0  0  0  0  0
  190.0780  178.2530  148.8430 C   0  0  0  0  0  3  0  0  0  0  0  0
  188.3300  178.6270  137.2230 C   0  0  0  0  0  1  0  0  0  0  0  0
  189.5690  178.2370  138.0070 C   0  0  0  0  0  2  0  0  0  0  0  0
  1 27  1  0  0  0  0
  2 17  1  0  0  0  0
  2 22  1  0  0  0  0
  3 20  1  0  0  0  0
  4 12  1  0  0  0  0
  4  1  1  0  0  0  0
  5 10  1  0  0  0  0
  6  9  2  0  0  0  0
  6 11  1  0  0  0  0
  7  3  2  0  0  0  0
  7 10  1  0  0  0  0
  9  3  1  0  0  0  0
 10 23  2  0  0  0  0
 11 16  2  0  0  0  0
 12  8  1  0  0  0  0
 13 21  2  0  0  0  0
 13  9  1  0  0  0  0
 14  2  1  0  0  0  0
 15 28  2  0  0  0  0
 17 13  1  0  0  0  0
 18  8  1  6  0  0  0
 18 25  1  0  0  0  0
 18 19  1  0  0  0  0
 19  5  1  1  0  0  0
 20 16  1  6  0  0  0
 20 15  1  0  0  0  0
 21  7  1  0  0  0  0
 22  6  1  0  0  0  0
 23 28  1  0  0  0  0
 23 30  1  0  0  0  0
 24  2  1  0  0  0  0
 25 19  1  0  0  0  0
 26  8  2  0  0  0  0
 27 21  1  0  0  0  0
 27 25  1  0  0  0  0
 29 35  1  0  0  0  0
 30 29  2  0  0  0  0
 31 30  1  0  0  0  0
 31 34  2  0  0  0  0
 32 34  1  0  0  0  0
 33 35  2  0  0  0  0
 34 33  1  0  0  0  0
 36 37  1  0  0  0  0
 37  4  1  0  0  0  0
M  END
>  <MODEL>
6

>  <REMARK>
 VINA RESULT:      -9.6      2.462      6.730
  Name = 
  2 active torsions:
  status: ('A' for Active; 'I' for Inactive)
    1  A    between atoms: N_5  and  C_23
    2  A    between atoms: C_6  and  C_31
                            x       y       z     vdW  Elec       q    Type
                         _______ _______ _______ _____ _____    ______ ____

>  <TORSDO>
F 2

$$$$
=
 OpenBabel10262422483D

 37 44  0  0  1  0  0  0  0  0999 V2000
  186.9430  178.3320  144.8620 C   0  0  0  0  0  2  0  0  0  0  0  0
  191.0880  176.7500  143.2750 C   0  0  0  0  0  0  0  0  0  0  0  0
  188.2640  178.0200  140.3990 C   0  0  0  0  0  0  0  0  0  0  0  0
  186.3270  177.8860  146.1160 N   0  0  0  0  0  0  0  0  0  0  0  0
  184.8570  179.1200  141.4390 O   0  0  0  0  0  0  0  0  0  0  0  0
  190.5140  177.2520  140.8920 C   0  0  0  0  0  0  0  0  0  0  0  0
  187.1310  178.0850  141.0930 C   0  0  0  0  0  0  0  0  0  0  0  0
  184.3190  178.9890  145.1370 C   0  0  0  0  0  0  0  0  0  0  0  0
  189.2830  177.5160  141.2540 C   0  0  2  0  0  3  0  0  0  0  0  0
  185.8160  178.5960  140.5470 C   0  0  0  0  0  0  0  0  0  0  0  0
  190.8880  177.5030  139.4810 C   0  0  0  0  0  3  0  0  0  0  0  0
  184.8570  177.9770  146.1100 C   0  0  0  0  0  2  0  0  0  0  0  0
  188.7460  177.2680  142.5380 C   0  0  0  0  0  0  0  0  0  0  0  0
  191.5720  178.0670  143.8540 C   0  0  0  0  0  1  0  0  0  0  0  0
  187.5990  177.7130  138.0820 C   0  0  0  0  0  3  0  0  0  0  0  0
  189.9910  178.0220  138.6080 C   0  0  0  0  0  3  0  0  0  0  0  0
  189.5720  176.5930  143.5900 C   0  0  0  0  0  2  0  0  0  0  0  0
  184.0780  178.5960  143.7110 C   0  0  1  0  0  3  0  0  0  0  0  0
  185.1100  179.1020  142.8250 C   0  0  1  0  0  3  0  0  0  0  0  0
  188.5570  178.4010  138.9860 C   0  0  0  0  0  0  0  0  0  0  0  0
  187.4540  177.5960  142.4960 C   0  0  0  0  0  0  0  0  0  0  0  0
  191.3880  176.7220  141.8560 O   0  0  0  0  0  0  0  0  0  0  0  0
  185.4830  178.5300  139.2260 C   0  0  0  0  0  0  0  0  0  0  0  0
  191.8410  175.6280  143.9550 C   0  0  0  0  0  1  0  0  0  0  0  0
  185.1170  177.6690  143.1870 N   0  0  1  0  0  0  0  0  0  0  0  0
  184.0850  180.1280  145.5090 O   0  0  0  0  0  0  0  0  0  0  0  0
  186.4980  177.4670  143.6680 C   0  0  2  0  0  3  0  0  0  0  0  0
  186.2730  177.8040  138.1920 C   0  0  0  0  0  3  0  0  0  0  0  0
  183.7760  180.3610  139.0940 C   0  0  0  0  0  3  0  0  0  0  0  0
  184.1730  179.0540  138.7620 C   0  0  0  0  0  0  0  0  0  0  0  0
  183.2900  178.2440  138.0300 C   0  0  0  0  0  3  0  0  0  0  0  0
  181.1670  177.9040  136.8720 N   0  0  0  0  0  1  0  0  0  0  0  0
  181.6700  180.0380  137.9450 C   0  0  0  0  0  3  0  0  0  0  0  0
  182.0480  178.7340  137.6190 C   0  0  0  0  0  0  0  0  0  0  0  0
  182.5330  180.8510  138.6830 C   0  0  0  0  0  3  0  0  0  0  0  0
  187.8800  178.0610  147.9780 C   0  0  0  0  0  1  0  0  0  0  0  0
  186.8170  178.7700  147.1610 C   0  0  0  0  0  2  0  0  0  0  0  0
  1  4  1  0  0  0  0
  2 17  1  0  0  0  0
  2 14  1  0  0  0  0
  2 24  1  0  0  0  0
  3  7  2  0  0  0  0
  4 37  1  0  0  0  0
  6  9  1  0  0  0  0
  6 22  1  0  0  0  0
  7 21  1  0  0  0  0
  8 26  2  0  0  0  0
  8 12  1  0  0  0  0
  9  3  1  6  0  0  0
  9 13  1  0  0  0  0
 10  7  1  0  0  0  0
 10  5  1  0  0  0  0
 11  6  2  0  0  0  0
 12  4  1  0  0  0  0
 13 17  1  0  0  0  0
 15 28  2  0  0  0  0
 15 20  1  0  0  0  0
 16 20  2  0  0  0  0
 16 11  1  0  0  0  0
 18  8  1  1  0  0  0
 19  5  1  6  0  0  0
 19 25  1  0  0  0  0
 19 18  1  0  0  0  0
 20  3  1  0  0  0  0
 21 13  2  0  0  0  0
 21 27  1  0  0  0  0
 22  2  1  0  0  0  0
 23 10  2  0  0  0  0
 25 27  1  0  0  0  0
 25 18  1  0  0  0  0
 27  1  1  0  0  0  0
 28 23  1  0  0  0  0
 30 29  1  0  0  0  0
 30 23  1  0  0  0  0
 31 30  2  0  0  0  0
 32 34  1  0  0  0  0
 33 35  1  0  0  0  0
 34 33  2  0  0  0  0
 34 31  1  0  0  0  0
 35 29  2  0  0  0  0
 37 36  1  0  0  0  0
M  END
>  <MODEL>
7

>  <REMARK>
 VINA RESULT:      -9.4      2.383      5.589
  Name = 
  2 active torsions:
  status: ('A' for Active; 'I' for Inactive)
    1  A    between atoms: N_5  and  C_23
    2  A    between atoms: C_6  and  C_31
                            x       y       z     vdW  Elec       q    Type
                         _______ _______ _______ _____ _____    ______ ____

>  <TORSDO>
F 2

$$$$
=
 OpenBabel10262422483D

 37 44  0  0  1  0  0  0  0  0999 V2000
  189.0760  177.3390  144.0710 C   0  0  0  0  0  2  0  0  0  0  0  0
  184.9240  179.3640  143.1390 C   0  0  0  0  0  0  0  0  0  0  0  0
  187.2170  178.0330  139.8480 C   0  0  0  0  0  0  0  0  0  0  0  0
  189.8880  177.6530  145.2490 N   0  0  0  0  0  0  0  0  0  0  0  0
  190.6140  176.5840  140.3620 O   0  0  0  0  0  0  0  0  0  0  0  0
  185.1320  178.9600  140.6790 C   0  0  0  0  0  0  0  0  0  0  0  0
  188.4200  177.8290  140.3780 C   0  0  0  0  0  0  0  0  0  0  0  0
  191.6400  176.4440  143.9550 C   0  0  0  0  0  0  0  0  0  0  0  0
  186.3700  178.5690  140.8570 C   0  0  2  0  0  3  0  0  0  0  0  0
  189.5990  177.2410  139.6350 C   0  0  0  0  0  0  0  0  0  0  0  0
  184.5560  178.8280  139.3210 C   0  0  0  0  0  3  0  0  0  0  0  0
  191.3300  177.4380  145.0390 C   0  0  0  0  0  2  0  0  0  0  0  0
  187.0910  178.6920  142.0670 C   0  0  0  0  0  0  0  0  0  0  0  0
  184.3990  178.0600  143.7140 C   0  0  0  0  0  1  0  0  0  0  0  0
  187.6000  178.4220  137.4800 C   0  0  0  0  0  3  0  0  0  0  0  0
  185.2780  178.2870  138.3100 C   0  0  0  0  0  3  0  0  0  0  0  0
  186.4770  179.3710  143.2530 C   0  0  0  0  0  2  0  0  0  0  0  0
  191.7290  176.9010  142.5300 C   0  0  1  0  0  3  0  0  0  0  0  0
  190.5470  176.5390  141.7680 C   0  0  1  0  0  3  0  0  0  0  0  0
  186.7080  177.7640  138.4710 C   0  0  0  0  0  0  0  0  0  0  0  0
  188.3310  178.2570  141.8340 C   0  0  0  0  0  0  0  0  0  0  0  0
  184.4450  179.5030  141.7760 O   0  0  0  0  0  0  0  0  0  0  0  0
  189.7610  177.3580  138.2860 C   0  0  0  0  0  0  0  0  0  0  0  0
  184.3730  180.5030  143.9680 C   0  0  0  0  0  1  0  0  0  0  0  0
  190.7210  177.9430  142.1980 N   0  0  1  0  0  0  0  0  0  0  0  0
  191.8140  175.2690  144.2360 O   0  0  0  0  0  0  0  0  0  0  0  0
  189.4390  178.2330  142.8700 C   0  0  2  0  0  3  0  0  0  0  0  0
  188.9150  178.2110  137.4050 C   0  0  0  0  0  3  0  0  0  0  0  0
  190.8830  176.3780  136.2700 C   0  0  0  0  0  3  0  0  0  0  0  0
  190.9450  176.7530  137.6230 C   0  0  0  0  0  0  0  0  0  0  0  0
  192.1240  176.4990  138.3430 C   0  0  0  0  0  3  0  0  0  0  0  0
  194.4140  175.6600  138.4580 N   0  0  0  0  0  1  0  0  0  0  0  0
  193.1540  175.5470  136.3710 C   0  0  0  0  0  3  0  0  0  0  0  0
  193.2240  175.9040  137.7190 C   0  0  0  0  0  0  0  0  0  0  0  0
  191.9840  175.7820  135.6470 C   0  0  0  0  0  3  0  0  0  0  0  0
  188.6350  177.5140  147.3280 C   0  0  0  0  0  1  0  0  0  0  0  0
  189.4600  176.7530  146.3070 C   0  0  0  0  0  2  0  0  0  0  0  0
  1  4  1  0  0  0  0
  2 17  1  0  0  0  0
  2 14  1  0  0  0  0
  2 24  1  0  0  0  0
  3  7  2  0  0  0  0
  4 37  1  0  0  0  0
  6  9  1  0  0  0  0
  6 22  1  0  0  0  0
  7 21  1  0  0  0  0
  8 26  2  0  0  0  0
  8 12  1  0  0  0  0
  9  3  1  6  0  0  0
  9 13  1  0  0  0  0
 10  5  1  0  0  0  0
 10  7  1  0  0  0  0
 11  6  2  0  0  0  0
 12  4  1  0  0  0  0
 13 17  1  0  0  0  0
 15 20  1  0  0  0  0
 16 20  2  0  0  0  0
 16 11  1  0  0  0  0
 18  8  1  1  0  0  0
 19  5  1  6  0  0  0
 19 25  1  0  0  0  0
 19 18  1  0  0  0  0
 20  3  1  0  0  0  0
 21 13  2  0  0  0  0
 21 27  1  0  0  0  0
 22  2  1  0  0  0  0
 23 10  2  0  0  0  0
 25 18  1  0  0  0  0
 25 27  1  0  0  0  0
 27  1  1  0  0  0  0
 28 15  2  0  0  0  0
 28 23  1  0  0  0  0
 29 30  1  0  0  0  0
 30 23  1  0  0  0  0
 30 31  2  0  0  0  0
 33 34  2  0  0  0  0
 34 31  1  0  0  0  0
 34 32  1  0  0  0  0
 35 29  2  0  0  0  0
 35 33  1  0  0  0  0
 37 36  1  0  0  0  0
M  END
>  <MODEL>
8

>  <REMARK>
 VINA RESULT:      -8.9      3.148      8.573
  Name = 
  2 active torsions:
  status: ('A' for Active; 'I' for Inactive)
    1  A    between atoms: N_5  and  C_23
    2  A    between atoms: C_6  and  C_31
                            x       y       z     vdW  Elec       q    Type
                         _______ _______ _______ _____ _____    ______ ____

>  <TORSDO>
F 2

$$$$
