=
 OpenBabel10262419443D

 25 29  0  0  1  0  0  0  0  0999 V2000
  189.2910  177.0160  144.1920 C   0  0  0  0  0  0  0  0  0  0  0  0
  188.5350  177.4280  145.2940 C   0  0  0  0  0  0  0  0  0  0  0  0
  191.2690  176.7270  145.5620 C   0  0  0  0  0  3  0  0  0  0  0  0
  188.8870  176.7910  142.7690 C   0  0  2  0  0  3  0  0  0  0  0  0
  189.7330  177.5270  140.1230 C   0  0  0  0  0  3  0  0  0  0  0  0
  190.5370  177.1560  146.6810 C   0  0  0  0  0  3  0  0  0  0  0  0
  190.1510  176.3600  142.1550 N   0  0  0  0  0  0  0  0  0  0  0  0
  190.4290  176.5910  140.7720 C   0  0  0  0  0  3  0  0  0  0  0  0
  188.4410  177.9260  147.6790 C   0  0  0  0  0  0  0  0  0  0  0  0
  189.0280  178.0150  148.9000 F   0  0  0  0  0  0  0  0  0  0  0  0
  187.1820  177.7590  145.1720 C   0  0  0  0  0  3  0  0  0  0  0  0
  188.7320  178.3400  140.8470 C   0  0  0  0  0  3  0  0  0  0  0  0
  190.6150  176.6610  144.3350 C   0  0  0  0  0  0  0  0  0  0  0  0
  191.1800  176.2570  143.1020 N   0  0  0  0  0  2  0  0  0  0  0  0
  187.0900  178.2590  147.5430 C   0  0  0  0  0  3  0  0  0  0  0  0
  188.3700  178.0370  142.1000 C   0  0  0  0  0  3  0  0  0  0  0  0
  186.4590  178.1690  146.2970 C   0  0  0  0  0  0  0  0  0  0  0  0
  189.1750  177.5060  146.5600 C   0  0  0  0  0  0  0  0  0  0  0  0
  185.0240  178.5470  146.1600 C   0  0  0  0  0  2  0  0  0  0  0  0
  184.5320  178.2360  144.7590 C   0  0  2  0  0  3  0  0  0  0  0  0
  184.7210  179.4650  143.8890 C   0  0  2  0  0  3  0  0  0  0  0  0
  183.3480  179.1200  144.4340 C   0  0  0  0  0  2  0  0  0  0  0  0
  184.8210  179.0560  142.4560 C   0  0  0  0  0  0  0  0  0  0  0  0
  184.2680  177.8550  142.0310 O   0  0  0  0  0  1  0  0  0  0  0  0
  185.4440  179.7800  141.6350 O   0  0  0  0  0  0  0  0  0  0  0  0
  1 13  2  0  0  0  0
  1  2  1  0  0  0  0
  2 18  1  0  0  0  0
  3  6  2  0  0  0  0
  4 16  1  6  0  0  0
  4  1  1  0  0  0  0
  5  8  2  0  0  0  0
  5 12  1  0  0  0  0
  7  4  1  0  0  0  0
  7 14  1  0  0  0  0
  8  7  1  0  0  0  0
  9 10  1  0  0  0  0
 11  2  2  0  0  0  0
 11 17  1  0  0  0  0
 12 16  2  0  0  0  0
 13  3  1  0  0  0  0
 14 13  1  0  0  0  0
 15  9  1  0  0  0  0
 17 15  2  0  0  0  0
 18  6  1  0  0  0  0
 18  9  2  0  0  0  0
 19 17  1  0  0  0  0
 20 19  1  1  0  0  0
 21 23  1  6  0  0  0
 21 22  1  0  0  0  0
 21 20  1  0  0  0  0
 22 20  1  0  0  0  0
 24 23  1  0  0  0  0
 25 23  2  0  0  0  0
M  END
>  <MODEL>
1

>  <REMARK>
 VINA RESULT:     -11.1      0.000      0.000
  Name = 
  3 active torsions:
  status: ('A' for Active; 'I' for Inactive)
    1  A    between atoms: C_2  and  C_21
    2  A    between atoms: C_6  and  C_15
    3  A    between atoms: C_6  and  C_23
                            x       y       z     vdW  Elec       q    Type
                         _______ _______ _______ _____ _____    ______ ____

>  <TORSDO>
F 3

$$$$
=
 OpenBabel10262419443D

 25 29  0  0  1  0  0  0  0  0999 V2000
  186.7980  178.4130  142.3320 C   0  0  0  0  0  0  0  0  0  0  0  0
  186.0790  178.4090  143.5320 C   0  0  0  0  0  0  0  0  0  0  0  0
  184.7810  178.7750  141.0370 C   0  0  0  0  0  3  0  0  0  0  0  0
  188.2700  178.3140  142.0840 C   0  0  2  0  0  3  0  0  0  0  0  0
  190.1100  176.8060  140.4710 C   0  0  0  0  0  3  0  0  0  0  0  0
  184.0340  178.7550  142.2260 C   0  0  0  0  0  3  0  0  0  0  0  0
  188.3410  178.3920  140.6180 N   0  0  0  0  0  0  0  0  0  0  0  0
  189.4020  177.7740  139.8850 C   0  0  0  0  0  3  0  0  0  0  0  0
  183.9240  178.5660  144.6610 C   0  0  0  0  0  0  0  0  0  0  0  0
  182.5760  178.7180  144.6360 F   0  0  0  0  0  0  0  0  0  0  0  0
  186.7140  178.2460  144.7670 C   0  0  0  0  0  3  0  0  0  0  0  0
  189.7590  176.3550  141.8350 C   0  0  0  0  0  3  0  0  0  0  0  0
  186.1610  178.6080  141.1260 C   0  0  0  0  0  0  0  0  0  0  0  0
  187.0770  178.5970  140.0470 N   0  0  0  0  0  2  0  0  0  0  0  0
  184.5710  178.3980  145.8900 C   0  0  0  0  0  3  0  0  0  0  0  0
  188.8630  177.0190  142.5750 C   0  0  0  0  0  3  0  0  0  0  0  0
  185.9610  178.2460  145.9450 C   0  0  0  0  0  0  0  0  0  0  0  0
  184.6700  178.5760  143.4740 C   0  0  0  0  0  0  0  0  0  0  0  0
  186.6360  178.0460  147.2580 C   0  0  0  0  0  2  0  0  0  0  0  0
  188.1340  178.2430  147.1120 C   0  0  2  0  0  3  0  0  0  0  0  0
  188.8410  176.9730  147.5490 C   0  0  2  0  0  3  0  0  0  0  0  0
  188.7860  178.1740  148.4750 C   0  0  0  0  0  2  0  0  0  0  0  0
  190.1800  176.8920  146.8930 C   0  0  0  0  0  0  0  0  0  0  0  0
  191.2890  176.4680  147.6170 O   0  0  0  0  0  1  0  0  0  0  0  0
  190.3200  177.2490  145.6930 O   0  0  0  0  0  0  0  0  0  0  0  0
  1  2  1  0  0  0  0
  2 11  1  0  0  0  0
  3 13  1  0  0  0  0
  3  6  2  0  0  0  0
  4  1  1  0  0  0  0
  4 16  1  6  0  0  0
  5 12  1  0  0  0  0
  6 18  1  0  0  0  0
  7  4  1  0  0  0  0
  8  5  2  0  0  0  0
  8  7  1  0  0  0  0
  9 15  2  0  0  0  0
 10  9  1  0  0  0  0
 11 17  2  0  0  0  0
 12 16  2  0  0  0  0
 13  1  2  0  0  0  0
 14  7  1  0  0  0  0
 14 13  1  0  0  0  0
 15 17  1  0  0  0  0
 17 19  1  0  0  0  0
 18  2  2  0  0  0  0
 18  9  1  0  0  0  0
 20 19  1  1  0  0  0
 20 21  1  0  0  0  0
 20 22  1  0  0  0  0
 21 23  1  6  0  0  0
 21 22  1  0  0  0  0
 23 24  1  0  0  0  0
 25 23  2  0  0  0  0
M  END
>  <MODEL>
2

>  <REMARK>
 VINA RESULT:     -10.3      3.078      5.148
  Name = 
  3 active torsions:
  status: ('A' for Active; 'I' for Inactive)
    1  A    between atoms: C_2  and  C_21
    2  A    between atoms: C_6  and  C_15
    3  A    between atoms: C_6  and  C_23
                            x       y       z     vdW  Elec       q    Type
                         _______ _______ _______ _____ _____    ______ ____

>  <TORSDO>
F 3

$$$$
=
 OpenBabel10262419443D

 25 29  0  0  1  0  0  0  0  0999 V2000
  187.9380  177.2720  143.8070 C   0  0  0  0  0  0  0  0  0  0  0  0
  186.7080  177.7720  144.2480 C   0  0  0  0  0  0  0  0  0  0  0  0
  188.8440  177.3090  146.0550 C   0  0  0  0  0  3  0  0  0  0  0  0
  188.3720  176.8310  142.4450 C   0  0  2  0  0  3  0  0  0  0  0  0
  190.5350  177.2670  140.6020 C   0  0  0  0  0  3  0  0  0  0  0  0
  187.6260  177.8300  146.5200 C   0  0  0  0  0  3  0  0  0  0  0  0
  189.7610  176.4140  142.6850 N   0  0  0  0  0  0  0  0  0  0  0  0
  190.7520  176.4770  141.6560 C   0  0  0  0  0  3  0  0  0  0  0  0
  185.3360  178.5750  146.0960 C   0  0  0  0  0  0  0  0  0  0  0  0
  185.1620  178.8670  147.4100 F   0  0  0  0  0  0  0  0  0  0  0  0
  185.6450  177.9880  143.3660 C   0  0  0  0  0  3  0  0  0  0  0  0
  189.3120  178.0960  140.5380 C   0  0  0  0  0  3  0  0  0  0  0  0
  188.9650  177.0340  144.6940 C   0  0  0  0  0  0  0  0  0  0  0  0
  190.1050  176.5100  144.0410 N   0  0  0  0  0  2  0  0  0  0  0  0
  184.2820  178.7900  145.2030 C   0  0  0  0  0  3  0  0  0  0  0  0
  188.3200  177.9380  141.4240 C   0  0  0  0  0  3  0  0  0  0  0  0
  184.4320  178.4910  143.8440 C   0  0  0  0  0  0  0  0  0  0  0  0
  186.5550  178.0630  145.6300 C   0  0  0  0  0  0  0  0  0  0  0  0
  183.3090  178.7450  142.8980 C   0  0  0  0  0  2  0  0  0  0  0  0
  183.8080  178.6910  141.4660 C   0  0  2  0  0  3  0  0  0  0  0  0
  182.6430  178.9540  140.5300 C   0  0  2  0  0  3  0  0  0  0  0  0
  183.1450  177.5380  140.7440 C   0  0  0  0  0  2  0  0  0  0  0  0
  183.1520  179.4870  139.2300 C   0  0  0  0  0  0  0  0  0  0  0  0
  184.3710  180.1520  139.1760 O   0  0  0  0  0  1  0  0  0  0  0  0
  182.4580  179.3710  138.1850 O   0  0  0  0  0  0  0  0  0  0  0  0
  1  2  2  0  0  0  0
  1 13  1  0  0  0  0
  2 18  1  0  0  0  0
  3  6  1  0  0  0  0
  4 16  1  6  0  0  0
  4  7  1  0  0  0  0
  4  1  1  0  0  0  0
  5  8  2  0  0  0  0
  7 14  1  0  0  0  0
  8  7  1  0  0  0  0
  9 10  1  0  0  0  0
 11 17  2  0  0  0  0
 11  2  1  0  0  0  0
 12  5  1  0  0  0  0
 12 16  2  0  0  0  0
 13  3  2  0  0  0  0
 14 13  1  0  0  0  0
 15  9  2  0  0  0  0
 17 15  1  0  0  0  0
 18  9  1  0  0  0  0
 18  6  2  0  0  0  0
 19 17  1  0  0  0  0
 20 19  1  1  0  0  0
 21 23  1  6  0  0  0
 21 22  1  0  0  0  0
 21 20  1  0  0  0  0
 22 20  1  0  0  0  0
 24 23  1  0  0  0  0
 25 23  2  0  0  0  0
M  END
>  <MODEL>
3

>  <REMARK>
 VINA RESULT:     -10.2      1.954      2.855
  Name = 
  3 active torsions:
  status: ('A' for Active; 'I' for Inactive)
    1  A    between atoms: C_2  and  C_21
    2  A    between atoms: C_6  and  C_15
    3  A    between atoms: C_6  and  C_23
                            x       y       z     vdW  Elec       q    Type
                         _______ _______ _______ _____ _____    ______ ____

>  <TORSDO>
F 3

$$$$
=
 OpenBabel10262419443D

 25 29  0  0  1  0  0  0  0  0999 V2000
  187.4860  178.2100  145.7390 C   0  0  0  0  0  0  0  0  0  0  0  0
  188.7680  177.6560  145.6690 C   0  0  0  0  0  0  0  0  0  0  0  0
  187.3920  177.8820  148.1380 C   0  0  0  0  0  3  0  0  0  0  0  0
  186.6360  178.8240  144.6710 C   0  0  2  0  0  3  0  0  0  0  0  0
  183.9610  178.6340  143.6380 C   0  0  0  0  0  3  0  0  0  0  0  0
  188.6710  177.3030  148.0920 C   0  0  0  0  0  3  0  0  0  0  0  0
  185.4310  179.2080  145.4200 N   0  0  0  0  0  0  0  0  0  0  0  0
  184.1490  179.2800  144.7910 C   0  0  0  0  0  3  0  0  0  0  0  0
  190.6470  176.6180  146.8250 C   0  0  0  0  0  0  0  0  0  0  0  0
  191.2410  176.1570  147.9550 F   0  0  0  0  0  0  0  0  0  0  0  0
  189.4590  177.5560  144.4570 C   0  0  0  0  0  3  0  0  0  0  0  0
  185.0510  177.8190  143.0600 C   0  0  0  0  0  3  0  0  0  0  0  0
  186.8310  178.3310  146.9450 C   0  0  0  0  0  0  0  0  0  0  0  0
  185.5620  178.9370  146.7890 N   0  0  0  0  0  2  0  0  0  0  0  0
  191.3250  176.5200  145.6070 C   0  0  0  0  0  3  0  0  0  0  0  0
  186.2900  177.8600  143.5670 C   0  0  0  0  0  3  0  0  0  0  0  0
  190.7390  176.9930  144.4270 C   0  0  0  0  0  0  0  0  0  0  0  0
  189.3660  177.1870  146.8690 C   0  0  0  0  0  0  0  0  0  0  0  0
  191.4630  176.8640  143.1320 C   0  0  0  0  0  2  0  0  0  0  0  0
  190.7890  177.7120  142.0690 C   0  0  2  0  0  3  0  0  0  0  0  0
  190.1740  176.7960  141.0270 C   0  0  2  0  0  3  0  0  0  0  0  0
  191.4860  177.5030  140.7420 C   0  0  0  0  0  2  0  0  0  0  0  0
  189.0520  177.5010  140.3380 C   0  0  0  0  0  0  0  0  0  0  0  0
  188.3820  178.5390  140.9730 O   0  0  0  0  0  1  0  0  0  0  0  0
  188.6810  177.1290  139.1930 O   0  0  0  0  0  0  0  0  0  0  0  0
  1 13  1  0  0  0  0
  2  1  2  0  0  0  0
  2 18  1  0  0  0  0
  4 16  1  6  0  0  0
  4  7  1  0  0  0  0
  4  1  1  0  0  0  0
  5  8  2  0  0  0  0
  6  3  1  0  0  0  0
  7 14  1  0  0  0  0
  8  7  1  0  0  0  0
  9 18  1  0  0  0  0
  9 10  1  0  0  0  0
 11  2  1  0  0  0  0
 12 16  2  0  0  0  0
 12  5  1  0  0  0  0
 13  3  2  0  0  0  0
 14 13  1  0  0  0  0
 15  9  2  0  0  0  0
 17 11  2  0  0  0  0
 17 15  1  0  0  0  0
 18  6  2  0  0  0  0
 19 17  1  0  0  0  0
 20 19  1  1  0  0  0
 21 23  1  6  0  0  0
 21 20  1  0  0  0  0
 22 21  1  0  0  0  0
 22 20  1  0  0  0  0
 23 24  1  0  0  0  0
 25 23  2  0  0  0  0
M  END
>  <MODEL>
4

>  <REMARK>
 VINA RESULT:     -10.0      2.483      5.160
  Name = 
  3 active torsions:
  status: ('A' for Active; 'I' for Inactive)
    1  A    between atoms: C_2  and  C_21
    2  A    between atoms: C_6  and  C_15
    3  A    between atoms: C_6  and  C_23
                            x       y       z     vdW  Elec       q    Type
                         _______ _______ _______ _____ _____    ______ ____

>  <TORSDO>
F 3

$$$$
=
 OpenBabel10262419443D

 25 29  0  0  1  0  0  0  0  0999 V2000
  187.5930  177.6960  145.1290 C   0  0  0  0  0  0  0  0  0  0  0  0
  186.3810  178.0450  144.5250 C   0  0  0  0  0  0  0  0  0  0  0  0
  186.6980  178.1100  147.3430 C   0  0  0  0  0  3  0  0  0  0  0  0
  188.8640  177.1860  144.5260 C   0  0  2  0  0  3  0  0  0  0  0  0
  191.6810  177.7500  144.5820 C   0  0  0  0  0  3  0  0  0  0  0  0
  185.4750  178.4850  146.7600 C   0  0  0  0  0  3  0  0  0  0  0  0
  189.7180  177.0140  145.7100 N   0  0  0  0  0  0  0  0  0  0  0  0
  191.1420  177.1200  145.6280 C   0  0  0  0  0  3  0  0  0  0  0  0
  184.0830  178.8200  144.7790 C   0  0  0  0  0  0  0  0  0  0  0  0
  183.0400  179.2190  145.5500 F   0  0  0  0  0  0  0  0  0  0  0  0
  186.2120  178.0000  143.1380 C   0  0  0  0  0  3  0  0  0  0  0  0
  190.8090  178.3700  143.5620 C   0  0  0  0  0  3  0  0  0  0  0  0
  187.7330  177.7140  146.5000 C   0  0  0  0  0  0  0  0  0  0  0  0
  189.0290  177.3060  146.8950 N   0  0  0  0  0  2  0  0  0  0  0  0
  183.9280  178.7750  143.3900 C   0  0  0  0  0  3  0  0  0  0  0  0
  189.4870  178.1570  143.5580 C   0  0  0  0  0  3  0  0  0  0  0  0
  184.9850  178.3600  142.5720 C   0  0  0  0  0  0  0  0  0  0  0  0
  185.3060  178.4550  145.3590 C   0  0  0  0  0  0  0  0  0  0  0  0
  184.8160  178.3360  141.0910 C   0  0  0  0  0  2  0  0  0  0  0  0
  183.3730  178.6270  140.7250 C   0  0  2  0  0  3  0  0  0  0  0  0
  182.7670  177.3870  140.0940 C   0  0  2  0  0  3  0  0  0  0  0  0
  183.2090  178.5480  139.2230 C   0  0  0  0  0  2  0  0  0  0  0  0
  181.2830  177.4090  140.2630 C   0  0  0  0  0  0  0  0  0  0  0  0
  180.7100  178.0960  141.3270 O   0  0  0  0  0  1  0  0  0  0  0  0
  180.5470  176.7700  139.4660 O   0  0  0  0  0  0  0  0  0  0  0  0
  1 13  1  0  0  0  0
  2  1  2  0  0  0  0
  2 18  1  0  0  0  0
  4 16  1  6  0  0  0
  4  1  1  0  0  0  0
  4  7  1  0  0  0  0
  5  8  2  0  0  0  0
  6  3  1  0  0  0  0
  7 14  1  0  0  0  0
  8  7  1  0  0  0  0
  9 18  1  0  0  0  0
  9 10  1  0  0  0  0
 11  2  1  0  0  0  0
 12  5  1  0  0  0  0
 13 14  1  0  0  0  0
 13  3  2  0  0  0  0
 15  9  2  0  0  0  0
 16 12  2  0  0  0  0
 17 11  2  0  0  0  0
 17 15  1  0  0  0  0
 18  6  2  0  0  0  0
 19 17  1  0  0  0  0
 20 19  1  6  0  0  0
 21 23  1  1  0  0  0
 21 20  1  0  0  0  0
 22 21  1  0  0  0  0
 22 20  1  0  0  0  0
 23 24  1  0  0  0  0
 25 23  2  0  0  0  0
M  END
>  <MODEL>
5

>  <REMARK>
 VINA RESULT:      -9.7      2.721      4.402
  Name = 
  3 active torsions:
  status: ('A' for Active; 'I' for Inactive)
    1  A    between atoms: C_2  and  C_21
    2  A    between atoms: C_6  and  C_15
    3  A    between atoms: C_6  and  C_23
                            x       y       z     vdW  Elec       q    Type
                         _______ _______ _______ _____ _____    ______ ____

>  <TORSDO>
F 3

$$$$
=
 OpenBabel10262419443D

 25 29  0  0  1  0  0  0  0  0999 V2000
  185.3590  178.5150  144.0040 C   0  0  0  0  0  0  0  0  0  0  0  0
  186.6610  178.0360  143.8290 C   0  0  0  0  0  0  0  0  0  0  0  0
  185.4560  178.1320  146.3950 C   0  0  0  0  0  3  0  0  0  0  0  0
  184.4030  179.1030  143.0140 C   0  0  2  0  0  3  0  0  0  0  0  0
  181.6750  178.7830  142.1680 C   0  0  0  0  0  3  0  0  0  0  0  0
  186.7590  177.6270  146.2440 C   0  0  0  0  0  3  0  0  0  0  0  0
  183.2350  179.4020  143.8550 N   0  0  0  0  0  0  0  0  0  0  0  0
  181.9090  179.4140  143.3200 C   0  0  0  0  0  3  0  0  0  0  0  0
  188.6730  177.0820  144.8240 C   0  0  0  0  0  0  0  0  0  0  0  0
  189.3710  176.6320  145.8980 F   0  0  0  0  0  0  0  0  0  0  0  0
  187.2690  178.0010  142.5710 C   0  0  0  0  0  3  0  0  0  0  0  0
  182.7640  178.0440  141.4940 C   0  0  0  0  0  3  0  0  0  0  0  0
  184.7870  178.5740  145.2560 C   0  0  0  0  0  0  0  0  0  0  0  0
  183.4780  179.1090  145.2050 N   0  0  0  0  0  2  0  0  0  0  0  0
  189.2670  177.0480  143.5590 C   0  0  0  0  0  3  0  0  0  0  0  0
  184.0320  178.1440  141.9130 C   0  0  0  0  0  3  0  0  0  0  0  0
  188.5720  177.5120  142.4360 C   0  0  0  0  0  0  0  0  0  0  0  0
  187.3690  177.5770  144.9730 C   0  0  0  0  0  0  0  0  0  0  0  0
  189.2070  177.4520  141.0900 C   0  0  0  0  0  2  0  0  0  0  0  0
  188.4400  178.3190  140.1100 C   0  0  2  0  0  3  0  0  0  0  0  0
  188.1060  177.4940  138.8810 C   0  0  2  0  0  3  0  0  0  0  0  0
  189.2520  178.4880  138.8440 C   0  0  0  0  0  2  0  0  0  0  0  0
  186.9080  178.0680  138.1990 C   0  0  0  0  0  0  0  0  0  0  0  0
  185.9420  178.7460  138.9330 O   0  0  0  0  0  1  0  0  0  0  0  0
  186.7470  177.9040  136.9600 O   0  0  0  0  0  0  0  0  0  0  0  0
  1 13  1  0  0  0  0
  2  1  2  0  0  0  0
  2 18  1  0  0  0  0
  4 16  1  6  0  0  0
  4  7  1  0  0  0  0
  4  1  1  0  0  0  0
  5  8  2  0  0  0  0
  6  3  1  0  0  0  0
  7 14  1  0  0  0  0
  8  7  1  0  0  0  0
  9 18  1  0  0  0  0
  9 10  1  0  0  0  0
 11  2  1  0  0  0  0
 12 16  2  0  0  0  0
 12  5  1  0  0  0  0
 13  3  2  0  0  0  0
 14 13  1  0  0  0  0
 15  9  2  0  0  0  0
 17 11  2  0  0  0  0
 17 15  1  0  0  0  0
 18  6  2  0  0  0  0
 19 17  1  0  0  0  0
 20 19  1  1  0  0  0
 21 23  1  6  0  0  0
 21 20  1  0  0  0  0
 22 21  1  0  0  0  0
 22 20  1  0  0  0  0
 23 24  1  0  0  0  0
 25 23  2  0  0  0  0
M  END
>  <MODEL>
6

>  <REMARK>
 VINA RESULT:      -9.7      2.929      5.692
  Name = 
  3 active torsions:
  status: ('A' for Active; 'I' for Inactive)
    1  A    between atoms: C_2  and  C_21
    2  A    between atoms: C_6  and  C_15
    3  A    between atoms: C_6  and  C_23
                            x       y       z     vdW  Elec       q    Type
                         _______ _______ _______ _____ _____    ______ ____

>  <TORSDO>
F 3

$$$$
=
 OpenBabel10262419443D

 25 29  0  0  1  0  0  0  0  0999 V2000
  187.5640  177.6620  145.2360 C   0  0  0  0  0  0  0  0  0  0  0  0
  186.7750  178.1570  144.1920 C   0  0  0  0  0  0  0  0  0  0  0  0
  185.8960  178.2680  146.8860 C   0  0  0  0  0  3  0  0  0  0  0  0
  188.8850  176.9600  145.2030 C   0  0  2  0  0  3  0  0  0  0  0  0
  191.4720  177.1280  146.4430 C   0  0  0  0  0  3  0  0  0  0  0  0
  185.0930  178.7910  145.8590 C   0  0  0  0  0  3  0  0  0  0  0  0
  189.1360  176.7100  146.6290 N   0  0  0  0  0  0  0  0  0  0  0  0
  190.4640  176.6130  147.1510 C   0  0  0  0  0  3  0  0  0  0  0  0
  184.7140  179.2520  143.4880 C   0  0  0  0  0  0  0  0  0  0  0  0
  183.5120  179.8180  143.7660 F   0  0  0  0  0  0  0  0  0  0  0  0
  187.1940  178.0910  142.8600 C   0  0  0  0  0  3  0  0  0  0  0  0
  191.2000  177.8300  145.1700 C   0  0  0  0  0  3  0  0  0  0  0  0
  187.1220  177.7050  146.5400 C   0  0  0  0  0  0  0  0  0  0  0  0
  188.0640  177.1330  147.4270 N   0  0  0  0  0  2  0  0  0  0  0  0
  185.1470  179.1830  142.1600 C   0  0  0  0  0  3  0  0  0  0  0  0
  189.9840  177.8030  144.6100 C   0  0  0  0  0  3  0  0  0  0  0  0
  186.3790  178.5990  141.8450 C   0  0  0  0  0  0  0  0  0  0  0  0
  185.5190  178.7390  144.5140 C   0  0  0  0  0  0  0  0  0  0  0  0
  186.8390  178.5510  140.4280 C   0  0  0  0  0  2  0  0  0  0  0  0
  187.9390  177.5180  140.2700 C   0  0  2  0  0  3  0  0  0  0  0  0
  189.2610  178.2350  140.0680 C   0  0  2  0  0  3  0  0  0  0  0  0
  188.5350  177.6250  138.8840 C   0  0  0  0  0  2  0  0  0  0  0  0
  190.3850  177.3470  140.4920 C   0  0  0  0  0  0  0  0  0  0  0  0
  190.1820  176.3780  141.4670 O   0  0  0  0  0  1  0  0  0  0  0  0
  191.5330  177.5020  139.9980 O   0  0  0  0  0  0  0  0  0  0  0  0
  1 13  1  0  0  0  0
  2 18  1  0  0  0  0
  2  1  2  0  0  0  0
  4 16  1  1  0  0  0
  4  1  1  0  0  0  0
  4  7  1  0  0  0  0
  5  8  2  0  0  0  0
  6  3  1  0  0  0  0
  7  8  1  0  0  0  0
  7 14  1  0  0  0  0
  9 10  1  0  0  0  0
  9 18  1  0  0  0  0
 11  2  1  0  0  0  0
 12  5  1  0  0  0  0
 13  3  2  0  0  0  0
 13 14  1  0  0  0  0
 15  9  2  0  0  0  0
 16 12  2  0  0  0  0
 17 15  1  0  0  0  0
 17 11  2  0  0  0  0
 18  6  2  0  0  0  0
 19 17  1  0  0  0  0
 20 19  1  6  0  0  0
 21 20  1  0  0  0  0
 21 23  1  1  0  0  0
 22 21  1  0  0  0  0
 22 20  1  0  0  0  0
 23 24  1  0  0  0  0
 25 23  2  0  0  0  0
M  END
>  <MODEL>
7

>  <REMARK>
 VINA RESULT:      -9.3      2.891      5.382
  Name = 
  3 active torsions:
  status: ('A' for Active; 'I' for Inactive)
    1  A    between atoms: C_2  and  C_21
    2  A    between atoms: C_6  and  C_15
    3  A    between atoms: C_6  and  C_23
                            x       y       z     vdW  Elec       q    Type
                         _______ _______ _______ _____ _____    ______ ____

>  <TORSDO>
F 3

$$$$
=
 OpenBabel10262419443D

 25 29  0  0  1  0  0  0  0  0999 V2000
  187.1560  177.8190  143.0650 C   0  0  0  0  0  0  0  0  0  0  0  0
  188.5270  177.5790  142.9330 C   0  0  0  0  0  0  0  0  0  0  0  0
  186.9810  178.5410  140.7580 C   0  0  0  0  0  3  0  0  0  0  0  0
  186.2390  177.5870  144.2250 C   0  0  2  0  0  3  0  0  0  0  0  0
  184.2630  179.0050  145.7570 C   0  0  0  0  0  3  0  0  0  0  0  0
  188.3610  178.3280  140.6050 C   0  0  0  0  0  3  0  0  0  0  0  0
  184.9470  178.0400  143.6910 N   0  0  0  0  0  0  0  0  0  0  0  0
  183.9250  178.5620  144.5440 C   0  0  0  0  0  3  0  0  0  0  0  0
  190.5160  177.6250  141.5230 C   0  0  0  0  0  0  0  0  0  0  0  0
  191.1290  177.8770  140.3390 F   0  0  0  0  0  0  0  0  0  0  0  0
  189.2920  177.0890  143.9950 C   0  0  0  0  0  3  0  0  0  0  0  0
  185.6810  178.9980  146.1780 C   0  0  0  0  0  3  0  0  0  0  0  0
  186.4090  178.2700  141.9990 C   0  0  0  0  0  0  0  0  0  0  0  0
  185.0460  178.4230  142.3460 N   0  0  0  0  0  2  0  0  0  0  0  0
  191.2710  177.1390  142.5950 C   0  0  0  0  0  3  0  0  0  0  0  0
  186.6190  178.3860  145.4440 C   0  0  0  0  0  3  0  0  0  0  0  0
  190.6620  176.8650  143.8250 C   0  0  0  0  0  0  0  0  0  0  0  0
  189.1400  177.8470  141.6790 C   0  0  0  0  0  0  0  0  0  0  0  0
  191.4800  176.3670  144.9660 C   0  0  0  0  0  2  0  0  0  0  0  0
  190.6100  176.1890  146.1960 C   0  0  2  0  0  3  0  0  0  0  0  0
  190.5570  177.5020  146.9540 C   0  0  2  0  0  3  0  0  0  0  0  0
  191.4510  176.3770  147.4400 C   0  0  0  0  0  2  0  0  0  0  0  0
  189.3120  177.5580  147.7770 C   0  0  0  0  0  0  0  0  0  0  0  0
  188.3980  176.5120  147.7360 O   0  0  0  0  0  0  0  0  0  0  0  0
  189.0650  178.5740  148.4810 O   0  0  0  0  0  1  0  0  0  0  0  0
  1  4  1  0  0  0  0
  2  1  1  0  0  0  0
  2 11  1  0  0  0  0
  3 13  1  0  0  0  0
  4 16  1  1  0  0  0
  5 12  1  0  0  0  0
  6  3  2  0  0  0  0
  6 18  1  0  0  0  0
  7  4  1  0  0  0  0
  7  8  1  0  0  0  0
  8  5  2  0  0  0  0
  9 18  1  0  0  0  0
  9 15  2  0  0  0  0
 10  9  1  0  0  0  0
 13 14  1  0  0  0  0
 13  1  2  0  0  0  0
 14  7  1  0  0  0  0
 15 17  1  0  0  0  0
 16 12  2  0  0  0  0
 17 11  2  0  0  0  0
 17 19  1  0  0  0  0
 18  2  2  0  0  0  0
 20 19  1  6  0  0  0
 20 21  1  0  0  0  0
 20 22  1  0  0  0  0
 21 22  1  0  0  0  0
 21 23  1  1  0  0  0
 23 25  1  0  0  0  0
 24 23  2  0  0  0  0
M  END
>  <MODEL>
8

>  <REMARK>
 VINA RESULT:      -9.1      3.367      6.294
  Name = 
  3 active torsions:
  status: ('A' for Active; 'I' for Inactive)
    1  A    between atoms: C_2  and  C_21
    2  A    between atoms: C_6  and  C_15
    3  A    between atoms: C_6  and  C_23
                            x       y       z     vdW  Elec       q    Type
                         _______ _______ _______ _____ _____    ______ ____

>  <TORSDO>
F 3

$$$$
=
 OpenBabel10262419443D

 25 29  0  0  1  0  0  0  0  0999 V2000
  187.4070  178.0540  144.4170 C   0  0  0  0  0  0  0  0  0  0  0  0
  188.5450  177.6080  143.7370 C   0  0  0  0  0  0  0  0  0  0  0  0
  188.2540  177.2290  146.5330 C   0  0  0  0  0  3  0  0  0  0  0  0
  186.2220  178.8220  143.9220 C   0  0  2  0  0  3  0  0  0  0  0  0
  183.3520  178.6840  143.9940 C   0  0  0  0  0  3  0  0  0  0  0  0
  189.3980  176.7530  145.8700 C   0  0  0  0  0  3  0  0  0  0  0  0
  185.4170  178.9660  145.1430 N   0  0  0  0  0  0  0  0  0  0  0  0
  183.9930  179.0870  145.0930 C   0  0  0  0  0  3  0  0  0  0  0  0
  190.7000  176.4720  143.8200 C   0  0  0  0  0  0  0  0  0  0  0  0
  191.6790  175.8240  144.5030 F   0  0  0  0  0  0  0  0  0  0  0  0
  188.7030  177.8050  142.3620 C   0  0  0  0  0  3  0  0  0  0  0  0
  184.1080  178.0770  142.8770 C   0  0  0  0  0  3  0  0  0  0  0  0
  187.2810  177.8810  145.7780 C   0  0  0  0  0  0  0  0  0  0  0  0
  186.0670  178.4250  146.2610 N   0  0  0  0  0  2  0  0  0  0  0  0
  190.8440  176.6720  142.4440 C   0  0  0  0  0  3  0  0  0  0  0  0
  185.4470  178.0890  142.8590 C   0  0  0  0  0  3  0  0  0  0  0  0
  189.8540  177.3420  141.7170 C   0  0  0  0  0  0  0  0  0  0  0  0
  189.5540  176.9380  144.4800 C   0  0  0  0  0  0  0  0  0  0  0  0
  190.0080  177.5310  140.2470 C   0  0  0  0  0  2  0  0  0  0  0  0
  188.8570  178.3540  139.7010 C   0  0  2  0  0  3  0  0  0  0  0  0
  188.1200  177.5350  138.6580 C   0  0  2  0  0  3  0  0  0  0  0  0
  189.0850  178.6250  138.2300 C   0  0  0  0  0  2  0  0  0  0  0  0
  186.7120  178.0220  138.5380 C   0  0  0  0  0  0  0  0  0  0  0  0
  186.0120  177.8520  137.3500 O   0  0  0  0  0  0  0  0  0  0  0  0
  186.1690  178.6250  139.5010 O   0  0  0  0  0  1  0  0  0  0  0  0
  1 13  1  0  0  0  0
  2  1  2  0  0  0  0
  2 18  1  0  0  0  0
  4 16  1  6  0  0  0
  4  1  1  0  0  0  0
  4  7  1  0  0  0  0
  5  8  2  0  0  0  0
  6  3  1  0  0  0  0
  7 14  1  0  0  0  0
  8  7  1  0  0  0  0
  9 18  1  0  0  0  0
  9 10  1  0  0  0  0
 11  2  1  0  0  0  0
 12  5  1  0  0  0  0
 13 14  1  0  0  0  0
 13  3  2  0  0  0  0
 15  9  2  0  0  0  0
 16 12  2  0  0  0  0
 17 11  2  0  0  0  0
 17 15  1  0  0  0  0
 18  6  2  0  0  0  0
 19 17  1  0  0  0  0
 20 19  1  6  0  0  0
 21 23  1  1  0  0  0
 21 20  1  0  0  0  0
 22 21  1  0  0  0  0
 22 20  1  0  0  0  0
 23 25  1  0  0  0  0
 24 23  2  0  0  0  0
M  END
>  <MODEL>
9

>  <REMARK>
 VINA RESULT:      -9.0      2.634      5.286
  Name = 
  3 active torsions:
  status: ('A' for Active; 'I' for Inactive)
    1  A    between atoms: C_2  and  C_21
    2  A    between atoms: C_6  and  C_15
    3  A    between atoms: C_6  and  C_23
                            x       y       z     vdW  Elec       q    Type
                         _______ _______ _______ _____ _____    ______ ____

>  <TORSDO>
F 3

$$$$
