=
 OpenBabel10262423003D

 37 41  0  0  1  0  0  0  0  0999 V2000
  183.3500  178.9040  139.1290 C   0  0  0  0  0  0  0  0  0  0  0  0
  181.1630  181.9330  138.4090 C   0  0  0  0  0  2  0  0  0  0  0  0
  183.1100  178.0840  138.0730 C   0  0  0  0  0  0  0  0  0  0  0  0
  182.0120  180.6980  138.1350 C   0  0  1  0  0  3  0  0  0  0  0  0
  182.4250  180.0410  139.4350 C   0  0  0  0  0  2  0  0  0  0  0  0
  181.2010  179.6810  137.3340 C   0  0  1  0  0  3  0  0  0  0  0  0
  179.9400  181.5310  136.2280 C   0  0  0  0  0  2  0  0  0  0  0  0
  180.7870  180.2810  135.9940 C   0  0  0  0  0  2  0  0  0  0  0  0
  181.9300  178.3370  137.1380 C   0  0  2  0  0  3  0  0  0  0  0  0
  180.7030  182.5490  137.0840 C   0  0  1  0  0  3  0  0  0  0  0  0
  181.3430  175.9270  136.7480 O   0  0  0  0  0  0  0  0  0  0  0  0
  180.4550  176.6110  135.8900 C   0  0  0  0  0  0  0  0  0  0  0  0
  179.1230  175.8890  135.8100 C   0  0  0  0  0  1  0  0  0  0  0  0
  181.1520  176.9870  134.5940 C   0  0  0  0  0  1  0  0  0  0  0  0
  180.8990  177.1940  137.1840 C   0  0  2  0  0  0  0  0  0  0  0  0
  179.9420  177.1490  138.2170 O   0  0  0  0  0  0  0  0  0  0  0  0
  180.3810  176.2040  139.1510 C   0  0  0  0  0  2  0  0  0  0  0  0
  180.6250  176.8860  140.4830 C   0  0  0  0  0  2  0  0  0  0  0  0
  180.0280  178.8420  141.9080 C   0  0  0  0  0  1  0  0  0  0  0  0
  179.6810  178.0620  140.6550 C   0  0  0  0  0  2  0  0  0  0  0  0
  183.9370  175.8530  138.2800 O   0  0  0  0  0  0  0  0  0  0  0  0
  185.0250  177.1860  136.7090 N   0  0  0  0  0  2  0  0  0  0  0  0
  184.0300  176.9770  137.7150 C   0  0  0  0  0  0  0  0  0  0  0  0
  188.5470  175.8370  136.2970 C   0  0  0  0  0  2  0  0  0  0  0  0
  187.3640  176.7620  136.0780 C   0  0  1  0  0  0  0  0  0  0  0  0
  187.5700  178.2720  136.2220 C   0  0  0  0  0  2  0  0  0  0  0  0
  188.8890  179.7950  137.4960 O   0  0  0  0  0  0  0  0  0  0  0  0
  189.4900  177.5650  137.7570 N   0  0  0  0  0  2  0  0  0  0  0  0
  188.6610  178.5940  137.2030 C   0  0  0  0  0  0  0  0  0  0  0  0
  186.4690  176.3670  134.9270 C   0  0  0  0  0  2  0  0  0  0  0  0
  189.1500  176.1480  137.6590 C   0  0  0  0  0  2  0  0  0  0  0  0
  185.9960  176.1590  136.3600 C   0  0  2  0  0  3  0  0  0  0  0  0
  179.8780  183.8120  137.3150 C   0  0  0  0  0  2  0  0  0  0  0  0
  180.7200  185.0790  137.2410 C   0  0  0  0  0  1  0  0  0  0  0  0
  184.5710  178.7930  139.9880 C   0  0  0  0  0  2  0  0  0  0  0  0
  184.9380  178.9450  142.4310 C   0  0  0  0  0  1  0  0  0  0  0  0
  184.2190  178.1890  141.3350 C   0  0  0  0  0  2  0  0  0  0  0  0
  1  5  1  0  0  0  0
  1 35  1  0  0  0  0
  3  1  2  0  0  0  0
  4  2  1  1  0  0  0
  4  5  1  0  0  0  0
  6  8  1  6  0  0  0
  6  4  1  0  0  0  0
  7 10  1  0  0  0  0
  8  7  1  0  0  0  0
  9 15  1  0  0  0  0
  9  6  1  0  0  0  0
  9  3  1  1  0  0  0
 10 33  1  1  0  0  0
 10  2  1  0  0  0  0
 11 15  1  0  0  0  0
 12 11  1  0  0  0  0
 12 15  1  0  0  0  0
 13 12  1  0  0  0  0
 14 12  1  0  0  0  0
 15 16  1  1  0  0  0
 16 17  1  0  0  0  0
 17 18  1  0  0  0  0
 18 20  1  0  0  0  0
 20 19  1  0  0  0  0
 22 23  1  0  0  0  0
 23  3  1  0  0  0  0
 23 21  2  0  0  0  0
 24 31  1  0  0  0  0
 25 30  1  6  0  0  0
 25 26  1  0  0  0  0
 25 24  1  0  0  0  0
 25 32  1  0  0  0  0
 26 29  1  0  0  0  0
 29 27  2  0  0  0  0
 29 28  1  0  0  0  0
 30 32  1  0  0  0  0
 31 28  1  0  0  0  0
 32 22  1  6  0  0  0
 34 33  1  0  0  0  0
 35 37  1  0  0  0  0
 37 36  1  0  0  0  0
M  END
>  <MODEL>
1

>  <REMARK>
 VINA RESULT:      -5.8      0.000      0.000
  Name = 
  10 active torsions:
  status: ('A' for Active; 'I' for Inactive)
    1  A    between atoms: C_3  and  C_32
    2  A    between atoms: C_4  and  C_24
    3  A    between atoms: C_10  and  C_27
    4  A    between atoms: N_14  and  C_37
    5  A    between atoms: C_17  and  C_26
    6  A    between atoms: C_17  and  O_33
    7  A    between atoms: C_24  and  C_28
    8  A    between atoms: C_26  and  C_34
    9  A    between atoms: C_29  and  C_36
   10  A    between atoms: O_33  and  C_36
                            x       y       z     vdW  Elec       q    Type
                         _______ _______ _______ _____ _____    ______ ____

>  <TORSDO>
F 10

$$$$
=
 OpenBabel10262423003D

 37 41  0  0  1  0  0  0  0  0999 V2000
  190.0470  176.0680  137.6350 C   0  0  0  0  0  0  0  0  0  0  0  0
  189.0150  172.7580  136.0670 C   0  0  0  0  0  2  0  0  0  0  0  0
  188.8690  176.5970  138.0570 C   0  0  0  0  0  0  0  0  0  0  0  0
  188.9580  173.9740  136.9850 C   0  0  1  0  0  3  0  0  0  0  0  0
  190.0650  174.9480  136.6420 C   0  0  0  0  0  2  0  0  0  0  0  0
  187.6250  174.6970  136.7990 C   0  0  1  0  0  3  0  0  0  0  0  0
  186.5020  172.5300  136.2720 C   0  0  0  0  0  2  0  0  0  0  0  0
  186.4710  173.7690  137.1650 C   0  0  0  0  0  2  0  0  0  0  0  0
  187.5370  176.0240  137.5790 C   0  0  2  0  0  3  0  0  0  0  0  0
  187.8520  171.8140  136.3870 C   0  0  1  0  0  3  0  0  0  0  0  0
  185.9470  176.5190  135.7000 O   0  0  0  0  0  0  0  0  0  0  0  0
  187.1110  177.2240  135.3230 C   0  0  0  0  0  0  0  0  0  0  0  0
  186.7490  178.5130  134.6080 C   0  0  0  0  0  1  0  0  0  0  0  0
  188.1080  176.2880  134.6620 C   0  0  0  0  0  1  0  0  0  0  0  0
  186.7330  177.0420  136.7490 C   0  0  2  0  0  0  0  0  0  0  0  0
  186.1860  178.1830  137.3700 O   0  0  0  0  0  0  0  0  0  0  0  0
  185.1320  177.7500  138.1830 C   0  0  0  0  0  2  0  0  0  0  0  0
  184.5340  178.9390  138.9090 C   0  0  0  0  0  2  0  0  0  0  0  0
  183.9910  178.2240  141.2340 C   0  0  0  0  0  1  0  0  0  0  0  0
  184.9870  178.9560  140.3570 C   0  0  0  0  0  2  0  0  0  0  0  0
  188.8940  178.8880  138.7320 O   0  0  0  0  0  0  0  0  0  0  0  0
  188.6550  177.3370  140.4530 N   0  0  0  0  0  2  0  0  0  0  0  0
  188.8130  177.6760  139.0730 C   0  0  0  0  0  0  0  0  0  0  0  0
  189.7240  178.7540  143.8060 C   0  0  0  0  0  2  0  0  0  0  0  0
  189.1120  177.7650  142.8310 C   0  0  1  0  0  0  0  0  0  0  0  0
  189.5290  176.2940  142.9110 C   0  0  0  0  0  2  0  0  0  0  0  0
  191.4510  174.9970  143.4640 O   0  0  0  0  0  0  0  0  0  0  0  0
  191.6650  177.2630  143.9340 N   0  0  0  0  0  2  0  0  0  0  0  0
  190.9330  176.1410  143.4250 C   0  0  0  0  0  0  0  0  0  0  0  0
  187.6390  177.9760  142.5720 C   0  0  0  0  0  2  0  0  0  0  0  0
  191.2390  178.6420  143.7110 C   0  0  0  0  0  2  0  0  0  0  0  0
  188.6570  178.3470  141.5010 C   0  0  2  0  0  3  0  0  0  0  0  0
  187.8960  170.5630  135.5120 C   0  0  0  0  0  2  0  0  0  0  0  0
  186.5280  170.1940  134.9550 C   0  0  0  0  0  1  0  0  0  0  0  0
  191.3750  176.4900  138.1830 C   0  0  0  0  0  2  0  0  0  0  0  0
  193.5280  176.1830  137.0030 C   0  0  0  0  0  1  0  0  0  0  0  0
  192.4490  175.4870  137.8040 C   0  0  0  0  0  2  0  0  0  0  0  0
  1  3  2  0  0  0  0
  1 35  1  0  0  0  0
  2 10  1  0  0  0  0
  3 23  1  0  0  0  0
  4  2  1  6  0  0  0
  5  4  1  0  0  0  0
  5  1  1  0  0  0  0
  6  4  1  0  0  0  0
  6  8  1  1  0  0  0
  6  9  1  0  0  0  0
  7 10  1  0  0  0  0
  7  8  1  0  0  0  0
  9  3  1  6  0  0  0
 10 33  1  6  0  0  0
 11 15  1  0  0  0  0
 12 11  1  0  0  0  0
 12 15  1  0  0  0  0
 13 12  1  0  0  0  0
 14 12  1  0  0  0  0
 15 16  1  1  0  0  0
 15  9  1  0  0  0  0
 16 17  1  0  0  0  0
 17 18  1  0  0  0  0
 18 20  1  0  0  0  0
 20 19  1  0  0  0  0
 21 23  2  0  0  0  0
 23 22  1  0  0  0  0
 25 30  1  1  0  0  0
 25 26  1  0  0  0  0
 25 24  1  0  0  0  0
 26 29  1  0  0  0  0
 29 27  2  0  0  0  0
 29 28  1  0  0  0  0
 31 24  1  0  0  0  0
 31 28  1  0  0  0  0
 32 22  1  6  0  0  0
 32 30  1  0  0  0  0
 32 25  1  0  0  0  0
 34 33  1  0  0  0  0
 36 37  1  0  0  0  0
 37 35  1  0  0  0  0
M  END
>  <MODEL>
2

>  <REMARK>
 VINA RESULT:      -5.4      3.968      8.331
  Name = 
  10 active torsions:
  status: ('A' for Active; 'I' for Inactive)
    1  A    between atoms: C_3  and  C_32
    2  A    between atoms: C_4  and  C_24
    3  A    between atoms: C_10  and  C_27
    4  A    between atoms: N_14  and  C_37
    5  A    between atoms: C_17  and  C_26
    6  A    between atoms: C_17  and  O_33
    7  A    between atoms: C_24  and  C_28
    8  A    between atoms: C_26  and  C_34
    9  A    between atoms: C_29  and  C_36
   10  A    between atoms: O_33  and  C_36
                            x       y       z     vdW  Elec       q    Type
                         _______ _______ _______ _____ _____    ______ ____

>  <TORSDO>
F 10

$$$$
=
 OpenBabel10262423003D

 37 41  0  0  1  0  0  0  0  0999 V2000
  185.2060  178.2040  139.4810 C   0  0  0  0  0  0  0  0  0  0  0  0
  183.0110  175.8900  137.4060 C   0  0  0  0  0  2  0  0  0  0  0  0
  184.5460  178.2850  140.6660 C   0  0  0  0  0  0  0  0  0  0  0  0
  183.6460  176.5130  138.6430 C   0  0  1  0  0  3  0  0  0  0  0  0
  184.5110  177.6940  138.2570 C   0  0  0  0  0  2  0  0  0  0  0  0
  182.5540  177.0220  139.5830 C   0  0  1  0  0  3  0  0  0  0  0  0
  181.0230  175.2040  138.8150 C   0  0  0  0  0  2  0  0  0  0  0  0
  181.6700  175.8630  140.0330 C   0  0  0  0  0  2  0  0  0  0  0  0
  183.1040  177.8010  140.7940 C   0  0  2  0  0  3  0  0  0  0  0  0
  182.0920  174.7370  137.8200 C   0  0  1  0  0  3  0  0  0  0  0  0
  182.6000  179.9110  142.0580 O   0  0  0  0  0  0  0  0  0  0  0  0
  181.6100  179.0190  142.5240 C   0  0  0  0  0  0  0  0  0  0  0  0
  180.3110  179.7540  142.7990 C   0  0  0  0  0  1  0  0  0  0  0  0
  182.1740  178.1200  143.6110 C   0  0  0  0  0  1  0  0  0  0  0  0
  182.1360  178.9490  141.1350 C   0  0  2  0  0  0  0  0  0  0  0  0
  181.2740  179.4620  140.1460 O   0  0  0  0  0  0  0  0  0  0  0  0
  182.0150  180.3690  139.3790 C   0  0  0  0  0  2  0  0  0  0  0  0
  181.6700  180.1910  137.9130 C   0  0  0  0  0  2  0  0  0  0  0  0
  180.6420  178.4570  136.4470 C   0  0  0  0  0  1  0  0  0  0  0  0
  180.5200  179.2120  137.7560 C   0  0  0  0  0  2  0  0  0  0  0  0
  185.3220  179.9730  142.1670 O   0  0  0  0  0  0  0  0  0  0  0  0
  185.7400  177.7770  142.8220 N   0  0  0  0  0  2  0  0  0  0  0  0
  185.2170  178.7430  141.9070 C   0  0  0  0  0  0  0  0  0  0  0  0
  188.8510  178.0580  144.9770 C   0  0  0  0  0  2  0  0  0  0  0  0
  187.7570  177.3790  144.1710 C   0  0  1  0  0  0  0  0  0  0  0  0
  188.1530  176.3640  143.0960 C   0  0  0  0  0  2  0  0  0  0  0  0
  189.9250  175.9830  141.5470 O   0  0  0  0  0  0  0  0  0  0  0  0
  190.3360  177.6990  143.0600 N   0  0  0  0  0  2  0  0  0  0  0  0
  189.4990  176.6750  142.5070 C   0  0  0  0  0  0  0  0  0  0  0  0
  186.5440  176.9820  144.9790 C   0  0  0  0  0  2  0  0  0  0  0  0
  189.8330  178.6940  144.0040 C   0  0  0  0  0  2  0  0  0  0  0  0
  186.4630  178.1660  144.0240 C   0  0  2  0  0  3  0  0  0  0  0  0
  181.4640  174.0620  136.6040 C   0  0  0  0  0  2  0  0  0  0  0  0
  180.1700  174.7360  136.1670 C   0  0  0  0  0  1  0  0  0  0  0  0
  186.6610  178.5240  139.3320 C   0  0  0  0  0  2  0  0  0  0  0  0
  188.3890  177.0220  138.3950 C   0  0  0  0  0  1  0  0  0  0  0  0
  187.2120  177.9120  138.0580 C   0  0  0  0  0  2  0  0  0  0  0  0
  1  3  2  0  0  0  0
  2 10  1  0  0  0  0
  3 23  1  0  0  0  0
  4  2  1  6  0  0  0
  4  6  1  0  0  0  0
  5  4  1  0  0  0  0
  5  1  1  0  0  0  0
  6  8  1  1  0  0  0
  6  9  1  0  0  0  0
  7  8  1  0  0  0  0
  9  3  1  6  0  0  0
  9 15  1  0  0  0  0
 10 33  1  6  0  0  0
 10  7  1  0  0  0  0
 11 12  1  0  0  0  0
 12 13  1  0  0  0  0
 12 14  1  0  0  0  0
 15 16  1  6  0  0  0
 15 11  1  0  0  0  0
 15 12  1  0  0  0  0
 17 16  1  0  0  0  0
 18 17  1  0  0  0  0
 19 20  1  0  0  0  0
 20 18  1  0  0  0  0
 23 21  2  0  0  0  0
 23 22  1  0  0  0  0
 25 26  1  6  0  0  0
 25 24  1  0  0  0  0
 25 30  1  0  0  0  0
 27 29  2  0  0  0  0
 28 31  1  0  0  0  0
 29 28  1  0  0  0  0
 29 26  1  0  0  0  0
 31 24  1  0  0  0  0
 32 22  1  6  0  0  0
 32 25  1  0  0  0  0
 32 30  1  0  0  0  0
 34 33  1  0  0  0  0
 35  1  1  0  0  0  0
 37 36  1  0  0  0  0
 37 35  1  0  0  0  0
M  END
>  <MODEL>
3

>  <REMARK>
 VINA RESULT:      -5.3      3.117      6.322
  Name = 
  10 active torsions:
  status: ('A' for Active; 'I' for Inactive)
    1  A    between atoms: C_3  and  C_32
    2  A    between atoms: C_4  and  C_24
    3  A    between atoms: C_10  and  C_27
    4  A    between atoms: N_14  and  C_37
    5  A    between atoms: C_17  and  C_26
    6  A    between atoms: C_17  and  O_33
    7  A    between atoms: C_24  and  C_28
    8  A    between atoms: C_26  and  C_34
    9  A    between atoms: C_29  and  C_36
   10  A    between atoms: O_33  and  C_36
                            x       y       z     vdW  Elec       q    Type
                         _______ _______ _______ _____ _____    ______ ____

>  <TORSDO>
F 10

$$$$
=
 OpenBabel10262423003D

 37 41  0  0  1  0  0  0  0  0999 V2000
  184.5060  179.0030  139.7130 C   0  0  0  0  0  0  0  0  0  0  0  0
  185.4540  178.2470  143.3190 C   0  0  0  0  0  2  0  0  0  0  0  0
  183.2010  179.3710  139.8000 C   0  0  0  0  0  0  0  0  0  0  0  0
  184.7130  178.8840  142.1490 C   0  0  1  0  0  3  0  0  0  0  0  0
  185.1690  178.2750  140.8400 C   0  0  0  0  0  2  0  0  0  0  0  0
  183.2130  178.6270  142.2870 C   0  0  1  0  0  3  0  0  0  0  0  0
  183.4210  178.6450  144.7760 C   0  0  0  0  0  2  0  0  0  0  0  0
  182.6920  179.2520  143.5780 C   0  0  0  0  0  2  0  0  0  0  0  0
  182.3970  179.1060  141.0710 C   0  0  2  0  0  3  0  0  0  0  0  0
  184.9370  178.8310  144.6380 C   0  0  1  0  0  3  0  0  0  0  0  0
  180.0820  178.6580  140.2080 O   0  0  0  0  0  0  0  0  0  0  0  0
  179.9730  178.3510  141.5820 C   0  0  0  0  0  0  0  0  0  0  0  0
  179.0120  177.1960  141.7980 C   0  0  0  0  0  1  0  0  0  0  0  0
  179.7730  179.6180  142.3950 C   0  0  0  0  0  1  0  0  0  0  0  0
  181.2340  178.1270  140.8280 C   0  0  2  0  0  0  0  0  0  0  0  0
  181.5020  176.7830  140.5000 O   0  0  0  0  0  0  0  0  0  0  0  0
  181.2540  176.6300  139.1310 C   0  0  0  0  0  2  0  0  0  0  0  0
  182.0500  175.4530  138.6020 C   0  0  0  0  0  2  0  0  0  0  0  0
  183.3700  176.5050  136.7690 C   0  0  0  0  0  1  0  0  0  0  0  0
  183.4300  175.9040  138.1590 C   0  0  0  0  0  2  0  0  0  0  0  0
  182.6390  181.3870  138.6510 O   0  0  0  0  0  0  0  0  0  0  0  0
  181.7530  179.4330  137.7430 N   0  0  0  0  0  2  0  0  0  0  0  0
  182.5270  180.1330  138.7210 C   0  0  0  0  0  0  0  0  0  0  0  0
  179.2100  181.9480  136.4750 C   0  0  0  0  0  2  0  0  0  0  0  0
  179.7350  180.7450  137.2380 C   0  0  1  0  0  0  0  0  0  0  0  0
  179.3970  180.6080  138.7240 C   0  0  0  0  0  2  0  0  0  0  0  0
  179.0190  182.0040  140.6200 O   0  0  0  0  0  0  0  0  0  0  0  0
  179.1870  183.1550  138.6070 N   0  0  0  0  0  2  0  0  0  0  0  0
  179.2130  181.9480  139.3790 C   0  0  0  0  0  0  0  0  0  0  0  0
  179.6780  179.4460  136.4690 C   0  0  0  0  0  2  0  0  0  0  0  0
  179.6350  183.2060  137.2180 C   0  0  0  0  0  2  0  0  0  0  0  0
  181.0190  180.1320  136.6980 C   0  0  2  0  0  3  0  0  0  0  0  0
  185.6810  178.2450  145.8350 C   0  0  0  0  0  2  0  0  0  0  0  0
  186.9700  177.5410  145.4310 C   0  0  0  0  0  1  0  0  0  0  0  0
  185.3810  179.3670  138.5540 C   0  0  0  0  0  2  0  0  0  0  0  0
  187.1560  178.5930  137.0130 C   0  0  0  0  0  1  0  0  0  0  0  0
  186.3420  178.2360  138.2380 C   0  0  0  0  0  2  0  0  0  0  0  0
  1  3  2  0  0  0  0
  1  5  1  0  0  0  0
  2 10  1  0  0  0  0
  4  5  1  6  0  0  0
  4  6  1  0  0  0  0
  4  2  1  0  0  0  0
  6  8  1  1  0  0  0
  8  7  1  0  0  0  0
  9  3  1  6  0  0  0
  9  6  1  0  0  0  0
 10  7  1  0  0  0  0
 10 33  1  1  0  0  0
 11 15  1  0  0  0  0
 11 12  1  0  0  0  0
 12 13  1  0  0  0  0
 12 14  1  0  0  0  0
 15 16  1  6  0  0  0
 15  9  1  0  0  0  0
 15 12  1  0  0  0  0
 17 16  1  0  0  0  0
 18 17  1  0  0  0  0
 19 20  1  0  0  0  0
 20 18  1  0  0  0  0
 21 23  2  0  0  0  0
 22 23  1  0  0  0  0
 23  3  1  0  0  0  0
 24 31  1  0  0  0  0
 24 25  1  0  0  0  0
 25 30  1  6  0  0  0
 25 26  1  0  0  0  0
 26 29  1  0  0  0  0
 28 29  1  0  0  0  0
 29 27  2  0  0  0  0
 30 32  1  0  0  0  0
 31 28  1  0  0  0  0
 32 25  1  0  0  0  0
 32 22  1  1  0  0  0
 34 33  1  0  0  0  0
 35  1  1  0  0  0  0
 36 37  1  0  0  0  0
 37 35  1  0  0  0  0
M  END
>  <MODEL>
4

>  <REMARK>
 VINA RESULT:      -5.0      2.695      7.245
  Name = 
  10 active torsions:
  status: ('A' for Active; 'I' for Inactive)
    1  A    between atoms: C_3  and  C_32
    2  A    between atoms: C_4  and  C_24
    3  A    between atoms: C_10  and  C_27
    4  A    between atoms: N_14  and  C_37
    5  A    between atoms: C_17  and  C_26
    6  A    between atoms: C_17  and  O_33
    7  A    between atoms: C_24  and  C_28
    8  A    between atoms: C_26  and  C_34
    9  A    between atoms: C_29  and  C_36
   10  A    between atoms: O_33  and  C_36
                            x       y       z     vdW  Elec       q    Type
                         _______ _______ _______ _____ _____    ______ ____

>  <TORSDO>
F 10

$$$$
=
 OpenBabel10262423003D

 37 41  0  0  1  0  0  0  0  0999 V2000
  185.9910  173.5610  137.3210 C   0  0  0  0  0  0  0  0  0  0  0  0
  189.3270  172.2990  135.9960 C   0  0  0  0  0  2  0  0  0  0  0  0
  185.9210  174.8310  136.8410 C   0  0  0  0  0  0  0  0  0  0  0  0
  188.0440  173.1200  136.0630 C   0  0  1  0  0  3  0  0  0  0  0  0
  187.2960  172.8280  137.3460 C   0  0  0  0  0  2  0  0  0  0  0  0
  188.3830  174.6090  136.0470 C   0  0  1  0  0  3  0  0  0  0  0  0
  190.4000  174.1540  134.6470 C   0  0  0  0  0  2  0  0  0  0  0  0
  189.1110  174.9660  134.7550 C   0  0  0  0  0  2  0  0  0  0  0  0
  187.1550  175.5170  136.2610 C   0  0  2  0  0  3  0  0  0  0  0  0
  190.1010  172.6520  134.7220 C   0  0  1  0  0  3  0  0  0  0  0  0
  186.5850  177.7280  137.3040 O   0  0  0  0  0  0  0  0  0  0  0  0
  187.6130  178.0630  136.3950 C   0  0  0  0  0  0  0  0  0  0  0  0
  188.4780  179.1790  136.9510 C   0  0  0  0  0  1  0  0  0  0  0  0
  187.0510  178.2150  134.9920 C   0  0  0  0  0  1  0  0  0  0  0  0
  187.5770  176.7470  137.0860 C   0  0  2  0  0  0  0  0  0  0  0  0
  188.4950  176.6040  138.1450 O   0  0  0  0  0  0  0  0  0  0  0  0
  187.9680  177.2830  139.2480 C   0  0  0  0  0  2  0  0  0  0  0  0
  189.0790  177.5780  140.2370 C   0  0  0  0  0  2  0  0  0  0  0  0
  188.6810  176.6960  142.5340 C   0  0  0  0  0  1  0  0  0  0  0  0
  188.5000  177.8820  141.6070 C   0  0  0  0  0  2  0  0  0  0  0  0
  184.2280  176.0310  135.6600 O   0  0  0  0  0  0  0  0  0  0  0  0
  183.8510  175.7460  137.9410 N   0  0  0  0  0  2  0  0  0  0  0  0
  184.6370  175.5690  136.7600 C   0  0  0  0  0  0  0  0  0  0  0  0
  181.7250  178.7720  138.7890 C   0  0  0  0  0  2  0  0  0  0  0  0
  182.6100  177.5630  139.0380 C   0  0  1  0  0  0  0  0  0  0  0  0
  183.8340  177.7170  139.9430 C   0  0  0  0  0  2  0  0  0  0  0  0
  185.4490  179.3730  140.5180 O   0  0  0  0  0  0  0  0  0  0  0  0
  183.6960  180.1660  139.2140 N   0  0  0  0  0  2  0  0  0  0  0  0
  184.3880  179.1120  139.8960 C   0  0  0  0  0  0  0  0  0  0  0  0
  181.8550  176.2690  139.2330 C   0  0  0  0  0  2  0  0  0  0  0  0
  182.6020  179.9070  138.2810 C   0  0  0  0  0  2  0  0  0  0  0  0
  182.6140  176.5140  137.9360 C   0  0  2  0  0  3  0  0  0  0  0  0
  191.3770  171.8230  134.6000 C   0  0  0  0  0  2  0  0  0  0  0  0
  192.5350  172.4170  135.3910 C   0  0  0  0  0  1  0  0  0  0  0  0
  184.7880  172.7880  137.7630 C   0  0  0  0  0  2  0  0  0  0  0  0
  182.8990  172.2170  136.2710 C   0  0  0  0  0  1  0  0  0  0  0  0
  184.3170  171.8600  136.6590 C   0  0  0  0  0  2  0  0  0  0  0  0
  1  5  1  0  0  0  0
  1 35  1  0  0  0  0
  3  1  2  0  0  0  0
  4  2  1  1  0  0  0
  4  5  1  0  0  0  0
  6  8  1  6  0  0  0
  6  4  1  0  0  0  0
  6  9  1  0  0  0  0
  7 10  1  0  0  0  0
  7  8  1  0  0  0  0
  9  3  1  1  0  0  0
  9 15  1  0  0  0  0
 10 33  1  1  0  0  0
 10  2  1  0  0  0  0
 12 13  1  0  0  0  0
 12 15  1  0  0  0  0
 12 11  1  0  0  0  0
 14 12  1  0  0  0  0
 15 11  1  0  0  0  0
 15 16  1  1  0  0  0
 16 17  1  0  0  0  0
 17 18  1  0  0  0  0
 18 20  1  0  0  0  0
 20 19  1  0  0  0  0
 21 23  2  0  0  0  0
 23  3  1  0  0  0  0
 23 22  1  0  0  0  0
 25 24  1  6  0  0  0
 25 30  1  0  0  0  0
 25 26  1  0  0  0  0
 28 29  1  0  0  0  0
 29 26  1  0  0  0  0
 29 27  2  0  0  0  0
 31 24  1  0  0  0  0
 31 28  1  0  0  0  0
 32 22  1  1  0  0  0
 32 25  1  0  0  0  0
 32 30  1  0  0  0  0
 33 34  1  0  0  0  0
 36 37  1  0  0  0  0
 37 35  1  0  0  0  0
M  END
>  <MODEL>
5

>  <REMARK>
 VINA RESULT:      -4.9      2.955      8.570
  Name = 
  10 active torsions:
  status: ('A' for Active; 'I' for Inactive)
    1  A    between atoms: C_3  and  C_32
    2  A    between atoms: C_4  and  C_24
    3  A    between atoms: C_10  and  C_27
    4  A    between atoms: N_14  and  C_37
    5  A    between atoms: C_17  and  C_26
    6  A    between atoms: C_17  and  O_33
    7  A    between atoms: C_24  and  C_28
    8  A    between atoms: C_26  and  C_34
    9  A    between atoms: C_29  and  C_36
   10  A    between atoms: O_33  and  C_36
                            x       y       z     vdW  Elec       q    Type
                         _______ _______ _______ _____ _____    ______ ____

>  <TORSDO>
F 10

$$$$
=
 OpenBabel10262423003D

 37 41  0  0  1  0  0  0  0  0999 V2000
  184.6990  178.2660  140.8500 C   0  0  0  0  0  0  0  0  0  0  0  0
  181.3810  179.0000  142.5610 C   0  0  0  0  0  2  0  0  0  0  0  0
  184.4130  178.4200  139.5300 C   0  0  0  0  0  0  0  0  0  0  0  0
  182.4720  179.0510  141.4980 C   0  0  1  0  0  3  0  0  0  0  0  0
  183.5990  178.1030  141.8520 C   0  0  0  0  0  2  0  0  0  0  0  0
  181.9000  178.6150  140.1500 C   0  0  1  0  0  3  0  0  0  0  0  0
  179.6690  179.5450  140.7770 C   0  0  0  0  0  2  0  0  0  0  0  0
  180.7800  179.5600  139.7280 C   0  0  0  0  0  2  0  0  0  0  0  0
  182.9680  178.4920  139.0450 C   0  0  2  0  0  3  0  0  0  0  0  0
  180.2220  179.9180  142.1570 C   0  0  1  0  0  3  0  0  0  0  0  0
  183.1960  177.3090  136.8430 O   0  0  0  0  0  0  0  0  0  0  0  0
  181.8170  177.6080  136.9000 C   0  0  0  0  0  0  0  0  0  0  0  0
  181.0020  176.5060  136.2470 C   0  0  0  0  0  1  0  0  0  0  0  0
  181.5670  179.0430  136.4690 C   0  0  0  0  0  1  0  0  0  0  0  0
  182.6060  177.3120  138.1250 C   0  0  2  0  0  0  0  0  0  0  0  0
  182.3990  176.0300  138.6720 O   0  0  0  0  0  0  0  0  0  0  0  0
  183.5160  175.2530  138.3460 C   0  0  0  0  0  2  0  0  0  0  0  0
  183.0670  174.0090  137.6050 C   0  0  0  0  0  2  0  0  0  0  0  0
  185.3460  172.9990  137.6050 C   0  0  0  0  0  1  0  0  0  0  0  0
  184.1930  173.4730  136.7400 C   0  0  0  0  0  2  0  0  0  0  0  0
  185.4050  179.5840  137.6950 O   0  0  0  0  0  0  0  0  0  0  0  0
  186.6000  177.7460  138.4830 N   0  0  0  0  0  2  0  0  0  0  0  0
  185.4770  178.6300  138.5170 C   0  0  0  0  0  0  0  0  0  0  0  0
  190.1770  177.4830  137.2430 C   0  0  0  0  0  2  0  0  0  0  0  0
  189.0220  177.9540  138.1100 C   0  0  1  0  0  0  0  0  0  0  0  0
  189.1610  177.8760  139.6320 C   0  0  0  0  0  2  0  0  0  0  0  0
  190.2070  176.5020  141.2750 O   0  0  0  0  0  0  0  0  0  0  0  0
  190.8160  176.0020  139.0880 N   0  0  0  0  0  2  0  0  0  0  0  0
  190.0640  176.7510  140.0510 C   0  0  0  0  0  0  0  0  0  0  0  0
  188.3430  179.2090  137.6140 C   0  0  0  0  0  2  0  0  0  0  0  0
  190.5340  176.0630  137.6570 C   0  0  0  0  0  2  0  0  0  0  0  0
  187.6430  177.8630  137.4740 C   0  0  2  0  0  3  0  0  0  0  0  0
  179.1230  179.9230  143.2160 C   0  0  0  0  0  2  0  0  0  0  0  0
  179.4010  178.9450  144.3490 C   0  0  0  0  0  1  0  0  0  0  0  0
  186.0900  178.3370  141.3980 C   0  0  0  0  0  2  0  0  0  0  0  0
  187.4140  177.3830  143.2580 C   0  0  0  0  0  1  0  0  0  0  0  0
  186.0930  178.0190  142.8820 C   0  0  0  0  0  2  0  0  0  0  0  0
  1 35  1  0  0  0  0
  1  5  1  0  0  0  0
  3  1  2  0  0  0  0
  4  5  1  1  0  0  0
  4  2  1  0  0  0  0
  6  8  1  6  0  0  0
  6  4  1  0  0  0  0
  7 10  1  0  0  0  0
  8  7  1  0  0  0  0
  9  3  1  1  0  0  0
  9  6  1  0  0  0  0
 10  2  1  0  0  0  0
 10 33  1  1  0  0  0
 11 12  1  0  0  0  0
 11 15  1  0  0  0  0
 12 15  1  0  0  0  0
 13 12  1  0  0  0  0
 14 12  1  0  0  0  0
 15 16  1  1  0  0  0
 15  9  1  0  0  0  0
 17 16  1  0  0  0  0
 18 17  1  0  0  0  0
 20 18  1  0  0  0  0
 20 19  1  0  0  0  0
 21 23  2  0  0  0  0
 22 23  1  0  0  0  0
 23  3  1  0  0  0  0
 24 31  1  0  0  0  0
 25 24  1  6  0  0  0
 25 26  1  0  0  0  0
 26 29  1  0  0  0  0
 28 29  1  0  0  0  0
 29 27  2  0  0  0  0
 30 25  1  0  0  0  0
 31 28  1  0  0  0  0
 32 30  1  0  0  0  0
 32 25  1  0  0  0  0
 32 22  1  1  0  0  0
 33 34  1  0  0  0  0
 35 37  1  0  0  0  0
 37 36  1  0  0  0  0
M  END
>  <MODEL>
6

>  <REMARK>
 VINA RESULT:      -4.7      2.347      4.164
  Name = 
  10 active torsions:
  status: ('A' for Active; 'I' for Inactive)
    1  A    between atoms: C_3  and  C_32
    2  A    between atoms: C_4  and  C_24
    3  A    between atoms: C_10  and  C_27
    4  A    between atoms: N_14  and  C_37
    5  A    between atoms: C_17  and  C_26
    6  A    between atoms: C_17  and  O_33
    7  A    between atoms: C_24  and  C_28
    8  A    between atoms: C_26  and  C_34
    9  A    between atoms: C_29  and  C_36
   10  A    between atoms: O_33  and  C_36
                            x       y       z     vdW  Elec       q    Type
                         _______ _______ _______ _____ _____    ______ ____

>  <TORSDO>
F 10

$$$$
=
 OpenBabel10262423003D

 37 41  0  0  1  0  0  0  0  0999 V2000
  184.5170  178.4190  139.6500 C   0  0  0  0  0  0  0  0  0  0  0  0
  181.1920  180.2690  139.6580 C   0  0  0  0  0  2  0  0  0  0  0  0
  184.5720  177.8770  138.4050 C   0  0  0  0  0  0  0  0  0  0  0  0
  182.4660  179.6410  139.1060 C   0  0  1  0  0  3  0  0  0  0  0  0
  183.2200  178.9210  140.2040 C   0  0  0  0  0  2  0  0  0  0  0  0
  182.1120  178.6160  138.0310 C   0  0  1  0  0  3  0  0  0  0  0  0
  180.0980  179.9490  137.3970 C   0  0  0  0  0  2  0  0  0  0  0  0
  181.3790  179.2970  136.8800 C   0  0  0  0  0  2  0  0  0  0  0  0
  183.3310  177.8220  137.5190 C   0  0  2  0  0  3  0  0  0  0  0  0
  180.4120  180.9410  138.5230 C   0  0  1  0  0  3  0  0  0  0  0  0
  183.7640  175.6160  136.4010 O   0  0  0  0  0  0  0  0  0  0  0  0
  182.5520  176.0370  135.8110 C   0  0  0  0  0  0  0  0  0  0  0  0
  181.6530  174.8480  135.5240 C   0  0  0  0  0  1  0  0  0  0  0  0
  182.8220  177.0250  134.6890 C   0  0  0  0  0  1  0  0  0  0  0  0
  182.8980  176.3750  137.2170 C   0  0  2  0  0  0  0  0  0  0  0  0
  182.2160  175.6250  138.1960 O   0  0  0  0  0  0  0  0  0  0  0  0
  180.9340  176.1720  138.3220 C   0  0  0  0  0  2  0  0  0  0  0  0
  180.3950  175.8790  139.7090 C   0  0  0  0  0  2  0  0  0  0  0  0
  178.9590  177.5960  140.8050 C   0  0  0  0  0  1  0  0  0  0  0  0
  178.9830  176.4180  139.8510 C   0  0  0  0  0  2  0  0  0  0  0  0
  186.0540  176.1850  137.6010 O   0  0  0  0  0  0  0  0  0  0  0  0
  186.8500  178.3690  137.4560 N   0  0  0  0  0  2  0  0  0  0  0  0
  185.8490  177.4120  137.8090 C   0  0  0  0  0  0  0  0  0  0  0  0
  190.4430  177.1950  137.7880 C   0  0  0  0  0  2  0  0  0  0  0  0
  189.2380  178.0990  137.9780 C   0  0  1  0  0  0  0  0  0  0  0  0
  188.8780  178.5620  139.3910 C   0  0  0  0  0  2  0  0  0  0  0  0
  188.9830  177.7530  141.6310 O   0  0  0  0  0  0  0  0  0  0  0  0
  190.0850  176.4140  140.0830 N   0  0  0  0  0  2  0  0  0  0  0  0
  189.2900  177.5560  140.4280 C   0  0  0  0  0  0  0  0  0  0  0  0
  189.0880  179.1670  136.9200 C   0  0  0  0  0  2  0  0  0  0  0  0
  190.2820  175.9880  138.7000 C   0  0  0  0  0  2  0  0  0  0  0  0
  188.1460  177.9700  136.9270 C   0  0  2  0  0  3  0  0  0  0  0  0
  179.1450  181.6140  139.0430 C   0  0  0  0  0  2  0  0  0  0  0  0
  179.0090  181.5110  140.5560 C   0  0  0  0  0  1  0  0  0  0  0  0
  185.7290  178.6340  140.5020 C   0  0  0  0  0  2  0  0  0  0  0  0
  185.7640  177.9310  142.8740 C   0  0  0  0  0  1  0  0  0  0  0  0
  185.3240  179.0140  141.9140 C   0  0  0  0  0  2  0  0  0  0  0  0
  1  5  1  0  0  0  0
  1 35  1  0  0  0  0
  3  1  2  0  0  0  0
  4  2  1  1  0  0  0
  4  5  1  0  0  0  0
  6  8  1  6  0  0  0
  6  4  1  0  0  0  0
  7 10  1  0  0  0  0
  8  7  1  0  0  0  0
  9  6  1  0  0  0  0
  9  3  1  1  0  0  0
 10 33  1  1  0  0  0
 10  2  1  0  0  0  0
 11 15  1  0  0  0  0
 12 11  1  0  0  0  0
 12 15  1  0  0  0  0
 13 12  1  0  0  0  0
 14 12  1  0  0  0  0
 15  9  1  0  0  0  0
 15 16  1  1  0  0  0
 16 17  1  0  0  0  0
 17 18  1  0  0  0  0
 18 20  1  0  0  0  0
 20 19  1  0  0  0  0
 21 23  2  0  0  0  0
 22 23  1  0  0  0  0
 23  3  1  0  0  0  0
 24 25  1  0  0  0  0
 24 31  1  0  0  0  0
 25 30  1  6  0  0  0
 25 26  1  0  0  0  0
 26 29  1  0  0  0  0
 28 29  1  0  0  0  0
 29 27  2  0  0  0  0
 30 32  1  0  0  0  0
 31 28  1  0  0  0  0
 32 22  1  1  0  0  0
 32 25  1  0  0  0  0
 33 34  1  0  0  0  0
 35 37  1  0  0  0  0
 37 36  1  0  0  0  0
M  END
>  <MODEL>
7

>  <REMARK>
 VINA RESULT:      -4.5      1.972      2.467
  Name = 
  10 active torsions:
  status: ('A' for Active; 'I' for Inactive)
    1  A    between atoms: C_3  and  C_32
    2  A    between atoms: C_4  and  C_24
    3  A    between atoms: C_10  and  C_27
    4  A    between atoms: N_14  and  C_37
    5  A    between atoms: C_17  and  C_26
    6  A    between atoms: C_17  and  O_33
    7  A    between atoms: C_24  and  C_28
    8  A    between atoms: C_26  and  C_34
    9  A    between atoms: C_29  and  C_36
   10  A    between atoms: O_33  and  C_36
                            x       y       z     vdW  Elec       q    Type
                         _______ _______ _______ _____ _____    ______ ____

>  <TORSDO>
F 10

$$$$
=
 OpenBabel10262423003D

 37 41  0  0  1  0  0  0  0  0999 V2000
  190.1280  176.3770  141.8640 C   0  0  0  0  0  0  0  0  0  0  0  0
  186.6820  177.5020  143.0200 C   0  0  0  0  0  2  0  0  0  0  0  0
  190.3060  177.0550  140.7000 C   0  0  0  0  0  0  0  0  0  0  0  0
  188.0330  177.5610  142.3180 C   0  0  1  0  0  3  0  0  0  0  0  0
  188.7630  176.2430  142.4650 C   0  0  0  0  0  2  0  0  0  0  0  0
  187.8290  177.8180  140.8260 C   0  0  1  0  0  3  0  0  0  0  0  0
  185.7680  179.1400  141.3180 C   0  0  0  0  0  2  0  0  0  0  0  0
  187.1250  179.1560  140.6180 C   0  0  0  0  0  2  0  0  0  0  0  0
  189.1340  177.7460  140.0090 C   0  0  2  0  0  3  0  0  0  0  0  0
  185.9320  178.8220  142.8090 C   0  0  1  0  0  3  0  0  0  0  0  0
  189.8420  177.2520  137.6510 O   0  0  0  0  0  0  0  0  0  0  0  0
  188.6960  178.0600  137.4750 C   0  0  0  0  0  0  0  0  0  0  0  0
  187.9160  177.6240  136.2490 C   0  0  0  0  0  1  0  0  0  0  0  0
  189.0560  179.5290  137.6180 C   0  0  0  0  0  1  0  0  0  0  0  0
  188.8310  177.1330  138.6290 C   0  0  2  0  0  0  0  0  0  0  0  0
  188.0700  175.9510  138.5360 O   0  0  0  0  0  0  0  0  0  0  0  0
  188.8050  175.0420  137.7660 C   0  0  0  0  0  2  0  0  0  0  0  0
  187.8740  173.9760  137.2190 C   0  0  0  0  0  2  0  0  0  0  0  0
  185.4730  173.3110  137.1640 C   0  0  0  0  0  1  0  0  0  0  0  0
  186.4410  174.4760  137.2170 C   0  0  0  0  0  2  0  0  0  0  0  0
  192.4350  178.1270  140.5490 O   0  0  0  0  0  0  0  0  0  0  0  0
  192.0640  176.4110  139.0170 N   0  0  0  0  0  2  0  0  0  0  0  0
  191.6510  177.2450  140.1030 C   0  0  0  0  0  0  0  0  0  0  0  0
  194.5020  175.9270  136.1510 C   0  0  0  0  0  2  0  0  0  0  0  0
  193.5660  175.5340  137.2800 C   0  0  1  0  0  0  0  0  0  0  0  0
  192.4790  174.4910  137.0090 C   0  0  0  0  0  2  0  0  0  0  0  0
  191.0790  173.7750  135.2180 O   0  0  0  0  0  0  0  0  0  0  0  0
  192.7110  175.3090  134.5960 N   0  0  0  0  0  2  0  0  0  0  0  0
  192.0310  174.5140  135.5760 C   0  0  0  0  0  0  0  0  0  0  0  0
  194.2400  175.3900  138.6240 C   0  0  0  0  0  2  0  0  0  0  0  0
  193.6570  176.3600  134.9610 C   0  0  0  0  0  2  0  0  0  0  0  0
  193.3450  176.5920  138.3500 C   0  0  2  0  0  3  0  0  0  0  0  0
  184.5860  178.8170  143.5290 C   0  0  0  0  0  2  0  0  0  0  0  0
  184.7360  178.8640  145.0440 C   0  0  0  0  0  1  0  0  0  0  0  0
  191.2610  175.8080  142.6600 C   0  0  0  0  0  2  0  0  0  0  0  0
  191.6480  177.8660  143.9780 C   0  0  0  0  0  1  0  0  0  0  0  0
  191.2790  176.4010  144.0570 C   0  0  0  0  0  2  0  0  0  0  0  0
  1  5  1  0  0  0  0
  1 35  1  0  0  0  0
  3  1  2  0  0  0  0
  4  5  1  6  0  0  0
  4  2  1  0  0  0  0
  6  8  1  1  0  0  0
  6  4  1  0  0  0  0
  7 10  1  0  0  0  0
  8  7  1  0  0  0  0
  9  3  1  1  0  0  0
  9  6  1  0  0  0  0
 10  2  1  0  0  0  0
 10 33  1  6  0  0  0
 11 15  1  0  0  0  0
 12 14  1  0  0  0  0
 12 11  1  0  0  0  0
 12 15  1  0  0  0  0
 13 12  1  0  0  0  0
 15 16  1  6  0  0  0
 15  9  1  0  0  0  0
 17 16  1  0  0  0  0
 18 17  1  0  0  0  0
 19 20  1  0  0  0  0
 20 18  1  0  0  0  0
 22 23  1  0  0  0  0
 23 21  2  0  0  0  0
 23  3  1  0  0  0  0
 25 24  1  6  0  0  0
 25 32  1  0  0  0  0
 25 30  1  0  0  0  0
 26 25  1  0  0  0  0
 27 29  2  0  0  0  0
 28 31  1  0  0  0  0
 28 29  1  0  0  0  0
 29 26  1  0  0  0  0
 31 24  1  0  0  0  0
 32 30  1  0  0  0  0
 32 22  1  1  0  0  0
 33 34  1  0  0  0  0
 35 37  1  0  0  0  0
 36 37  1  0  0  0  0
M  END
>  <MODEL>
8

>  <REMARK>
 VINA RESULT:      -4.4      5.275      7.936
  Name = 
  10 active torsions:
  status: ('A' for Active; 'I' for Inactive)
    1  A    between atoms: C_3  and  C_32
    2  A    between atoms: C_4  and  C_24
    3  A    between atoms: C_10  and  C_27
    4  A    between atoms: N_14  and  C_37
    5  A    between atoms: C_17  and  C_26
    6  A    between atoms: C_17  and  O_33
    7  A    between atoms: C_24  and  C_28
    8  A    between atoms: C_26  and  C_34
    9  A    between atoms: C_29  and  C_36
   10  A    between atoms: O_33  and  C_36
                            x       y       z     vdW  Elec       q    Type
                         _______ _______ _______ _____ _____    ______ ____

>  <TORSDO>
F 10

$$$$
=
 OpenBabel10262423003D

 37 41  0  0  1  0  0  0  0  0999 V2000
  185.8130  177.9140  138.7550 C   0  0  0  0  0  0  0  0  0  0  0  0
  183.7800  175.4580  136.6790 C   0  0  0  0  0  2  0  0  0  0  0  0
  185.0680  178.0660  139.8820 C   0  0  0  0  0  0  0  0  0  0  0  0
  184.3220  176.1630  137.9170 C   0  0  1  0  0  3  0  0  0  0  0  0
  185.2110  177.3220  137.5190 C   0  0  0  0  0  2  0  0  0  0  0  0
  183.1630  176.7220  138.7400 C   0  0  1  0  0  3  0  0  0  0  0  0
  181.6960  174.8490  137.9810 C   0  0  0  0  0  2  0  0  0  0  0  0
  182.2510  175.5880  139.1970 C   0  0  0  0  0  2  0  0  0  0  0  0
  183.6220  177.5810  139.9350 C   0  0  2  0  0  3  0  0  0  0  0  0
  182.8360  174.3270  137.0980 C   0  0  1  0  0  3  0  0  0  0  0  0
  181.3790  178.6170  139.4850 O   0  0  0  0  0  0  0  0  0  0  0  0
  182.2780  179.5600  138.9410 C   0  0  0  0  0  0  0  0  0  0  0  0
  181.7540  180.9720  139.1290 C   0  0  0  0  0  1  0  0  0  0  0  0
  182.7200  179.1330  137.5520 C   0  0  0  0  0  1  0  0  0  0  0  0
  182.6280  178.7410  140.1310 C   0  0  2  0  0  0  0  0  0  0  0  0
  182.5800  179.4270  141.3610 O   0  0  0  0  0  0  0  0  0  0  0  0
  181.6370  178.7750  142.1640 C   0  0  0  0  0  2  0  0  0  0  0  0
  181.9620  179.0220  143.6250 C   0  0  0  0  0  2  0  0  0  0  0  0
  183.7660  179.0020  145.3440 C   0  0  0  0  0  1  0  0  0  0  0  0
  183.4000  178.6360  143.9190 C   0  0  0  0  0  2  0  0  0  0  0  0
  185.6170  179.8440  141.3780 O   0  0  0  0  0  0  0  0  0  0  0  0
  186.2300  177.7110  142.0860 N   0  0  0  0  0  2  0  0  0  0  0  0
  185.6460  178.6060  141.1370 C   0  0  0  0  0  0  0  0  0  0  0  0
  189.1980  178.2180  144.3950 C   0  0  0  0  0  2  0  0  0  0  0  0
  188.1780  177.4580  143.5660 C   0  0  1  0  0  0  0  0  0  0  0  0
  188.6710  176.4060  142.5700 C   0  0  0  0  0  2  0  0  0  0  0  0
  190.5420  176.0130  141.1460 O   0  0  0  0  0  0  0  0  0  0  0  0
  190.8040  177.8180  142.5870 N   0  0  0  0  0  2  0  0  0  0  0  0
  190.0380  176.7370  142.0420 C   0  0  0  0  0  0  0  0  0  0  0  0
  186.9340  177.0580  144.3240 C   0  0  0  0  0  2  0  0  0  0  0  0
  190.2130  178.8400  143.4470 C   0  0  0  0  0  2  0  0  0  0  0  0
  186.8680  178.1880  143.3040 C   0  0  2  0  0  3  0  0  0  0  0  0
  182.3000  173.5720  135.8850 C   0  0  0  0  0  2  0  0  0  0  0  0
  181.0320  172.7890  136.2000 C   0  0  0  0  0  1  0  0  0  0  0  0
  187.2740  178.2340  138.6930 C   0  0  0  0  0  2  0  0  0  0  0  0
  188.9370  179.2990  137.2030 C   0  0  0  0  0  1  0  0  0  0  0  0
  187.7190  178.4020  137.2520 C   0  0  0  0  0  2  0  0  0  0  0  0
  1  3  2  0  0  0  0
  2 10  1  0  0  0  0
  3 23  1  0  0  0  0
  4  2  1  6  0  0  0
  4  6  1  0  0  0  0
  5  4  1  0  0  0  0
  5  1  1  0  0  0  0
  6  8  1  1  0  0  0
  6  9  1  0  0  0  0
  7  8  1  0  0  0  0
  9  3  1  6  0  0  0
  9 15  1  0  0  0  0
 10 33  1  6  0  0  0
 10  7  1  0  0  0  0
 11 15  1  0  0  0  0
 12 13  1  0  0  0  0
 12 11  1  0  0  0  0
 12 15  1  0  0  0  0
 14 12  1  0  0  0  0
 15 16  1  1  0  0  0
 16 17  1  0  0  0  0
 17 18  1  0  0  0  0
 18 20  1  0  0  0  0
 20 19  1  0  0  0  0
 23 21  2  0  0  0  0
 23 22  1  0  0  0  0
 25 26  1  6  0  0  0
 25 30  1  0  0  0  0
 25 24  1  0  0  0  0
 27 29  2  0  0  0  0
 28 31  1  0  0  0  0
 29 26  1  0  0  0  0
 29 28  1  0  0  0  0
 31 24  1  0  0  0  0
 32 22  1  6  0  0  0
 32 25  1  0  0  0  0
 32 30  1  0  0  0  0
 33 34  1  0  0  0  0
 35  1  1  0  0  0  0
 36 37  1  0  0  0  0
 37 35  1  0  0  0  0
M  END
>  <MODEL>
9

>  <REMARK>
 VINA RESULT:      -4.4      3.101      6.095
  Name = 
  10 active torsions:
  status: ('A' for Active; 'I' for Inactive)
    1  A    between atoms: C_3  and  C_32
    2  A    between atoms: C_4  and  C_24
    3  A    between atoms: C_10  and  C_27
    4  A    between atoms: N_14  and  C_37
    5  A    between atoms: C_17  and  C_26
    6  A    between atoms: C_17  and  O_33
    7  A    between atoms: C_24  and  C_28
    8  A    between atoms: C_26  and  C_34
    9  A    between atoms: C_29  and  C_36
   10  A    between atoms: O_33  and  C_36
                            x       y       z     vdW  Elec       q    Type
                         _______ _______ _______ _____ _____    ______ ____

>  <TORSDO>
F 10

$$$$
