=
 OpenBabel10262421083D

 32 38  0  0  1  0  0  0  0  0999 V2000
  185.2670  178.0340  143.4080 C   0  0  1  0  0  3  0  0  0  0  0  0
  185.0730  179.2960  141.2150 C   0  0  2  0  0  3  0  0  0  0  0  0
  184.6550  179.1220  144.1810 N   0  0  0  0  0  0  0  0  0  0  0  0
  184.7030  178.0220  142.0280 C   0  0  2  0  0  3  0  0  0  0  0  0
  184.8220  179.0310  139.7420 C   0  0  1  0  0  3  0  0  0  0  0  0
  186.2790  179.0540  140.3140 C   0  0  2  0  0  3  0  0  0  0  0  0
  183.2170  177.8390  142.0370 C   0  0  2  0  0  3  0  0  0  0  0  0
  182.7270  177.8700  140.5660 C   0  0  0  0  0  2  0  0  0  0  0  0
  182.6420  178.8970  142.8780 N   0  0  0  0  0  2  0  0  0  0  0  0
  187.5030  178.5900  142.3160 O   0  0  0  0  0  0  0  0  0  0  0  0
  186.8210  177.9290  143.3760 C   0  0  1  0  0  3  0  0  0  0  0  0
  187.1430  178.0160  141.0670 C   0  0  2  0  0  3  0  0  0  0  0  0
  183.9220  177.7780  139.5600 C   0  0  1  0  0  3  0  0  0  0  0  0
  183.4160  179.4880  143.9550 C   0  0  0  0  0  3  0  0  0  0  0  0
  189.4150  177.8690  146.2380 C   0  0  2  0  0  3  0  0  0  0  0  0
  188.0850  177.7910  149.1950 N   0  0  0  0  0  2  0  0  0  0  0  0
  190.3130  176.9840  147.0630 C   0  0  0  0  0  2  0  0  0  0  0  0
  186.7210  178.2950  147.2460 C   0  0  0  0  0  2  0  0  0  0  0  0
  187.4740  178.1660  144.7420 C   0  0  1  0  0  3  0  0  0  0  0  0
  188.8120  176.7900  147.1230 C   0  0  1  0  0  3  0  0  0  0  0  0
  186.4560  177.7350  145.8270 C   0  0  0  0  0  2  0  0  0  0  0  0
  188.8690  177.4840  144.8850 C   0  0  1  0  0  3  0  0  0  0  0  0
  189.8410  177.9630  143.8220 C   0  0  0  0  0  1  0  0  0  0  0  0
  187.8900  177.6280  147.9380 C   0  0  0  0  0  0  0  0  0  0  0  0
  188.4260  178.0300  138.9260 C   0  0  0  0  0  3  0  0  0  0  0  0
  190.6440  177.0720  138.7670 C   0  0  0  0  0  3  0  0  0  0  0  0
  189.4510  177.0180  140.8730 C   0  0  0  0  0  3  0  0  0  0  0  0
  190.5890  176.7170  140.1190 C   0  0  0  0  0  3  0  0  0  0  0  0
  189.5630  177.7290  138.1710 C   0  0  0  0  0  3  0  0  0  0  0  0
  188.3630  177.6730  140.2770 C   0  0  0  0  0  0  0  0  0  0  0  0
  183.4340  177.7400  138.2540 O   0  0  0  0  0  0  0  0  0  0  0  0
  184.5290  177.3540  137.4780 C   0  0  0  0  0  1  0  0  0  0  0  0
  1  3  1  6  0  0  0
  2  4  1  0  0  0  0
  4  7  1  0  0  0  0
  4  1  1  0  0  0  0
  5  6  1  0  0  0  0
  5  2  1  0  0  0  0
  6 12  1  0  0  0  0
  6  2  1  0  0  0  0
  7  9  1  0  0  0  0
  8  7  1  0  0  0  0
  9 14  1  0  0  0  0
 10 11  1  0  0  0  0
 11  1  1  0  0  0  0
 11 19  1  0  0  0  0
 12 10  1  0  0  0  0
 13  5  1  0  0  0  0
 13  8  1  0  0  0  0
 14  3  2  0  0  0  0
 15 17  1  0  0  0  0
 15 20  1  0  0  0  0
 17 20  1  0  0  0  0
 18 24  1  0  0  0  0
 19 22  1  0  0  0  0
 19 21  1  0  0  0  0
 20 24  1  0  0  0  0
 21 18  1  0  0  0  0
 22 15  1  0  0  0  0
 23 22  1  0  0  0  0
 24 16  2  0  0  0  0
 25 30  1  0  0  0  0
 26 28  2  0  0  0  0
 28 27  1  0  0  0  0
 29 26  1  0  0  0  0
 29 25  2  0  0  0  0
 30 27  2  0  0  0  0
 30 12  1  0  0  0  0
 31 13  1  0  0  0  0
 32 31  1  0  0  0  0
M  END
>  <MODEL>
1

>  <REMARK>
 VINA RESULT:      -9.2      0.000      0.000
  Name = 
  3 active torsions:
  status: ('A' for Active; 'I' for Inactive)
    1  A    between atoms: O_13  and  C_29
    2  A    between atoms: C_16  and  C_27
    3  A    between atoms: C_28  and  C_32
                            x       y       z     vdW  Elec       q    Type
                         _______ _______ _______ _____ _____    ______ ____

>  <TORSDO>
F 3

$$$$
=
 OpenBabel10262421083D

 32 38  0  0  1  0  0  0  0  0999 V2000
  185.6880  178.7180  141.5210 C   0  0  1  0  0  3  0  0  0  0  0  0
  185.6060  177.5130  143.7530 C   0  0  2  0  0  3  0  0  0  0  0  0
  184.5850  177.9270  140.9620 N   0  0  0  0  0  0  0  0  0  0  0  0
  185.5020  178.8660  142.9930 C   0  0  2  0  0  3  0  0  0  0  0  0
  185.8120  177.7910  145.2300 C   0  0  1  0  0  3  0  0  0  0  0  0
  187.0000  177.3030  144.3350 C   0  0  2  0  0  3  0  0  0  0  0  0
  184.2050  179.5360  143.3230 C   0  0  2  0  0  3  0  0  0  0  0  0
  184.0920  179.6160  144.8680 C   0  0  0  0  0  2  0  0  0  0  0  0
  183.1290  178.7640  142.6890 N   0  0  0  0  0  2  0  0  0  0  0  0
  187.8020  177.4060  142.0830 O   0  0  0  0  0  0  0  0  0  0  0  0
  187.1500  178.2960  141.1840 C   0  0  1  0  0  3  0  0  0  0  0  0
  187.9580  178.0200  143.3550 C   0  0  2  0  0  3  0  0  0  0  0  0
  185.4510  179.2650  145.5620 C   0  0  1  0  0  3  0  0  0  0  0  0
  183.3850  177.9890  141.4880 C   0  0  0  0  0  3  0  0  0  0  0  0
  188.8300  177.7460  137.7500 C   0  0  2  0  0  3  0  0  0  0  0  0
  186.8010  178.0890  135.2410 N   0  0  0  0  0  2  0  0  0  0  0  0
  189.6390  178.4000  136.6600 C   0  0  0  0  0  2  0  0  0  0  0  0
  185.9370  177.9210  137.5090 C   0  0  0  0  0  2  0  0  0  0  0  0
  187.3460  177.9050  139.7160 C   0  0  1  0  0  3  0  0  0  0  0  0
  188.2540  178.9240  136.9790 C   0  0  1  0  0  3  0  0  0  0  0  0
  186.1890  178.5410  138.9050 C   0  0  0  0  0  2  0  0  0  0  0  0
  188.7620  178.2570  139.1670 C   0  0  1  0  0  3  0  0  0  0  0  0
  189.8600  177.5840  139.9720 C   0  0  0  0  0  1  0  0  0  0  0  0
  186.9910  178.3040  136.4910 C   0  0  0  0  0  0  0  0  0  0  0  0
  189.7480  176.8060  144.6010 C   0  0  0  0  0  3  0  0  0  0  0  0
  192.0190  177.6400  144.6950 C   0  0  0  0  0  3  0  0  0  0  0  0
  190.3290  178.8710  143.4760 C   0  0  0  0  0  3  0  0  0  0  0  0
  191.6500  178.7380  143.9130 C   0  0  0  0  0  3  0  0  0  0  0  0
  191.0690  176.6740  145.0390 C   0  0  0  0  0  3  0  0  0  0  0  0
  189.3720  177.9050  143.8220 C   0  0  0  0  0  0  0  0  0  0  0  0
  185.3260  179.4160  146.9430 O   0  0  0  0  0  0  0  0  0  0  0  0
  186.3770  178.6700  147.4770 C   0  0  0  0  0  1  0  0  0  0  0  0
  1  3  1  1  0  0  0
  1  4  1  0  0  0  0
  2  6  1  0  0  0  0
  2  5  1  0  0  0  0
  3 14  2  0  0  0  0
  4  7  1  0  0  0  0
  4  2  1  0  0  0  0
  5 13  1  0  0  0  0
  6  5  1  0  0  0  0
  7  8  1  0  0  0  0
  8 13  1  0  0  0  0
  9  7  1  0  0  0  0
 10 12  1  0  0  0  0
 11  1  1  0  0  0  0
 11 10  1  0  0  0  0
 12 30  1  0  0  0  0
 12  6  1  0  0  0  0
 13 31  1  0  0  0  0
 14  9  1  0  0  0  0
 15 22  1  0  0  0  0
 16 24  2  0  0  0  0
 17 20  1  0  0  0  0
 17 15  1  0  0  0  0
 18 21  1  0  0  0  0
 19 11  1  0  0  0  0
 20 15  1  0  0  0  0
 21 19  1  0  0  0  0
 22 19  1  0  0  0  0
 22 23  1  0  0  0  0
 24 20  1  0  0  0  0
 24 18  1  0  0  0  0
 25 29  1  0  0  0  0
 26 29  2  0  0  0  0
 27 30  1  0  0  0  0
 27 28  2  0  0  0  0
 28 26  1  0  0  0  0
 30 25  2  0  0  0  0
 31 32  1  0  0  0  0
M  END
>  <MODEL>
2

>  <REMARK>
 VINA RESULT:      -8.9      2.275      6.527
  Name = 
  3 active torsions:
  status: ('A' for Active; 'I' for Inactive)
    1  A    between atoms: O_13  and  C_29
    2  A    between atoms: C_16  and  C_27
    3  A    between atoms: C_28  and  C_32
                            x       y       z     vdW  Elec       q    Type
                         _______ _______ _______ _____ _____    ______ ____

>  <TORSDO>
F 3

$$$$
=
 OpenBabel10262421083D

 32 38  0  0  1  0  0  0  0  0999 V2000
  183.5940  177.8710  141.5240 C   0  0  1  0  0  3  0  0  0  0  0  0
  183.1380  179.0450  139.3210 C   0  0  2  0  0  3  0  0  0  0  0  0
  182.7220  178.7780  142.2800 N   0  0  0  0  0  0  0  0  0  0  0  0
  183.0760  177.7210  140.1340 C   0  0  2  0  0  3  0  0  0  0  0  0
  182.9870  178.7250  137.8450 C   0  0  1  0  0  3  0  0  0  0  0  0
  184.3830  179.1040  138.4420 C   0  0  2  0  0  3  0  0  0  0  0  0
  181.6790  177.1810  140.1190 C   0  0  2  0  0  3  0  0  0  0  0  0
  181.2230  177.0900  138.6390 C   0  0  0  0  0  2  0  0  0  0  0  0
  180.8490  178.0680  140.9430 N   0  0  0  0  0  2  0  0  0  0  0  0
  185.6470  178.9550  140.4670 O   0  0  0  0  0  0  0  0  0  0  0  0
  185.1270  178.1480  141.5190 C   0  0  1  0  0  3  0  0  0  0  0  0
  185.4610  178.3090  139.2150 C   0  0  2  0  0  3  0  0  0  0  0  0
  182.4220  177.2910  137.6550 C   0  0  1  0  0  3  0  0  0  0  0  0
  181.4350  178.8310  142.0300 C   0  0  0  0  0  3  0  0  0  0  0  0
  187.3230  178.1680  144.6970 C   0  0  2  0  0  3  0  0  0  0  0  0
  185.7250  179.0610  147.3750 N   0  0  0  0  0  2  0  0  0  0  0  0
  187.8850  177.3180  145.8070 C   0  0  0  0  0  2  0  0  0  0  0  0
  184.7330  179.3980  145.1800 C   0  0  0  0  0  2  0  0  0  0  0  0
  185.6780  178.5390  142.8950 C   0  0  1  0  0  3  0  0  0  0  0  0
  186.3840  177.4800  145.6750 C   0  0  1  0  0  3  0  0  0  0  0  0
  184.4820  178.6030  143.8750 C   0  0  0  0  0  2  0  0  0  0  0  0
  186.8380  177.6170  143.3800 C   0  0  1  0  0  3  0  0  0  0  0  0
  188.0010  177.6140  142.4030 C   0  0  0  0  0  1  0  0  0  0  0  0
  185.6230  178.6640  146.1600 C   0  0  0  0  0  0  0  0  0  0  0  0
  186.7020  178.2670  137.0500 C   0  0  0  0  0  3  0  0  0  0  0  0
  189.1210  178.2330  136.9730 C   0  0  0  0  0  3  0  0  0  0  0  0
  187.9800  178.2640  139.1080 C   0  0  0  0  0  3  0  0  0  0  0  0
  189.1670  178.2420  138.3710 C   0  0  0  0  0  3  0  0  0  0  0  0
  187.8890  178.2460  136.3130 C   0  0  0  0  0  3  0  0  0  0  0  0
  186.7410  178.2730  138.4480 C   0  0  0  0  0  0  0  0  0  0  0  0
  181.9820  177.1330  136.3400 O   0  0  0  0  0  0  0  0  0  0  0  0
  183.1520  177.0310  135.5850 C   0  0  0  0  0  1  0  0  0  0  0  0
  1  3  1  6  0  0  0
  2  4  1  0  0  0  0
  4  1  1  0  0  0  0
  5  6  1  0  0  0  0
  5  2  1  0  0  0  0
  6 12  1  0  0  0  0
  6  2  1  0  0  0  0
  7  4  1  0  0  0  0
  7  9  1  0  0  0  0
  8  7  1  0  0  0  0
  9 14  1  0  0  0  0
 10 11  1  0  0  0  0
 11  1  1  0  0  0  0
 11 19  1  0  0  0  0
 12 10  1  0  0  0  0
 13  5  1  0  0  0  0
 13  8  1  0  0  0  0
 14  3  2  0  0  0  0
 15 20  1  0  0  0  0
 15 17  1  0  0  0  0
 18 24  1  0  0  0  0
 19 22  1  0  0  0  0
 19 21  1  0  0  0  0
 20 17  1  0  0  0  0
 20 24  1  0  0  0  0
 21 18  1  0  0  0  0
 22 15  1  0  0  0  0
 23 22  1  0  0  0  0
 24 16  2  0  0  0  0
 25 30  1  0  0  0  0
 26 28  2  0  0  0  0
 28 27  1  0  0  0  0
 29 26  1  0  0  0  0
 29 25  2  0  0  0  0
 30 27  2  0  0  0  0
 30 12  1  0  0  0  0
 31 13  1  0  0  0  0
 32 31  1  0  0  0  0
M  END
>  <MODEL>
3

>  <REMARK>
 VINA RESULT:      -8.7      1.720      2.669
  Name = 
  3 active torsions:
  status: ('A' for Active; 'I' for Inactive)
    1  A    between atoms: O_13  and  C_29
    2  A    between atoms: C_16  and  C_27
    3  A    between atoms: C_28  and  C_32
                            x       y       z     vdW  Elec       q    Type
                         _______ _______ _______ _____ _____    ______ ____

>  <TORSDO>
F 3

$$$$
=
 OpenBabel10262421083D

 32 38  0  0  1  0  0  0  0  0999 V2000
  183.7090  178.0560  141.9310 C   0  0  1  0  0  3  0  0  0  0  0  0
  183.1780  179.3460  139.8100 C   0  0  2  0  0  3  0  0  0  0  0  0
  182.9800  179.0030  142.7850 N   0  0  0  0  0  0  0  0  0  0  0  0
  183.0690  178.0020  140.5850 C   0  0  2  0  0  3  0  0  0  0  0  0
  182.8820  179.0950  138.3430 C   0  0  1  0  0  3  0  0  0  0  0  0
  184.3480  179.3360  138.8330 C   0  0  2  0  0  3  0  0  0  0  0  0
  181.6350  177.5780  140.6700 C   0  0  2  0  0  3  0  0  0  0  0  0
  181.0550  177.5800  139.2310 C   0  0  0  0  0  2  0  0  0  0  0  0
  180.9520  178.4980  141.5870 N   0  0  0  0  0  2  0  0  0  0  0  0
  185.7540  179.0080  140.7410 O   0  0  0  0  0  0  0  0  0  0  0  0
  185.2540  178.2070  141.8070 C   0  0  1  0  0  3  0  0  0  0  0  0
  185.4130  178.4270  139.4900 C   0  0  2  0  0  3  0  0  0  0  0  0
  182.1850  177.7200  138.1570 C   0  0  1  0  0  3  0  0  0  0  0  0
  181.6860  179.1700  142.6450 C   0  0  0  0  0  3  0  0  0  0  0  0
  187.7970  178.0460  144.7100 C   0  0  2  0  0  3  0  0  0  0  0  0
  186.4850  178.6280  147.6200 N   0  0  0  0  0  2  0  0  0  0  0  0
  188.5110  177.1280  145.6680 C   0  0  0  0  0  2  0  0  0  0  0  0
  185.2380  179.1120  145.5890 C   0  0  0  0  0  2  0  0  0  0  0  0
  185.9450  178.5000  143.1430 C   0  0  1  0  0  3  0  0  0  0  0  0
  187.0010  177.2330  145.7190 C   0  0  1  0  0  3  0  0  0  0  0  0
  184.8670  178.4240  144.2520 C   0  0  0  0  0  2  0  0  0  0  0  0
  187.1830  177.5920  143.4100 C   0  0  1  0  0  3  0  0  0  0  0  0
  188.2260  177.7270  142.3140 C   0  0  0  0  0  1  0  0  0  0  0  0
  186.2590  178.3350  146.3920 C   0  0  0  0  0  0  0  0  0  0  0  0
  187.8880  178.2530  139.2080 C   0  0  0  0  0  3  0  0  0  0  0  0
  188.9080  178.0790  137.0190 C   0  0  0  0  0  3  0  0  0  0  0  0
  186.5020  178.2530  137.2210 C   0  0  0  0  0  3  0  0  0  0  0  0
  187.6440  178.1360  136.4240 C   0  0  0  0  0  3  0  0  0  0  0  0
  189.0300  178.1360  138.4100 C   0  0  0  0  0  3  0  0  0  0  0  0
  186.6210  178.3150  138.6180 C   0  0  0  0  0  0  0  0  0  0  0  0
  181.6290  177.6480  136.8790 O   0  0  0  0  0  0  0  0  0  0  0  0
  181.1810  178.9430  136.6140 C   0  0  0  0  0  1  0  0  0  0  0  0
  1  3  1  1  0  0  0
  2  4  1  0  0  0  0
  4  7  1  0  0  0  0
  4  1  1  0  0  0  0
  5  6  1  0  0  0  0
  5  2  1  0  0  0  0
  6 12  1  0  0  0  0
  6  2  1  0  0  0  0
  7  9  1  0  0  0  0
  8  7  1  0  0  0  0
  9 14  1  0  0  0  0
 10 11  1  0  0  0  0
 11  1  1  0  0  0  0
 11 19  1  0  0  0  0
 12 10  1  0  0  0  0
 13  5  1  0  0  0  0
 13  8  1  0  0  0  0
 14  3  2  0  0  0  0
 15 17  1  0  0  0  0
 15 20  1  0  0  0  0
 17 20  1  0  0  0  0
 18 24  1  0  0  0  0
 19 22  1  0  0  0  0
 19 21  1  0  0  0  0
 20 24  1  0  0  0  0
 21 18  1  0  0  0  0
 22 15  1  0  0  0  0
 23 22  1  0  0  0  0
 24 16  2  0  0  0  0
 26 29  1  0  0  0  0
 27 30  2  0  0  0  0
 28 26  2  0  0  0  0
 28 27  1  0  0  0  0
 29 25  2  0  0  0  0
 30 25  1  0  0  0  0
 30 12  1  0  0  0  0
 31 13  1  0  0  0  0
 32 31  1  0  0  0  0
M  END
>  <MODEL>
4

>  <REMARK>
 VINA RESULT:      -8.6      1.673      2.538
  Name = 
  3 active torsions:
  status: ('A' for Active; 'I' for Inactive)
    1  A    between atoms: O_13  and  C_29
    2  A    between atoms: C_16  and  C_27
    3  A    between atoms: C_28  and  C_32
                            x       y       z     vdW  Elec       q    Type
                         _______ _______ _______ _____ _____    ______ ____

>  <TORSDO>
F 3

$$$$
=
 OpenBabel10262421083D

 32 38  0  0  1  0  0  0  0  0999 V2000
  189.7250  177.0100  141.3520 C   0  0  1  0  0  3  0  0  0  0  0  0
  189.7840  178.3290  143.5190 C   0  0  2  0  0  3  0  0  0  0  0  0
  190.9200  177.6770  140.8190 N   0  0  0  0  0  0  0  0  0  0  0  0
  189.8160  176.9310  142.8380 C   0  0  2  0  0  3  0  0  0  0  0  0
  189.4730  178.1520  144.9940 C   0  0  1  0  0  3  0  0  0  0  0  0
  188.3830  178.6830  144.0050 C   0  0  2  0  0  3  0  0  0  0  0  0
  191.0330  176.1780  143.2800 C   0  0  2  0  0  3  0  0  0  0  0  0
  191.0520  176.1770  144.8310 C   0  0  0  0  0  2  0  0  0  0  0  0
  192.2030  176.8240  142.6720 N   0  0  0  0  0  2  0  0  0  0  0  0
  187.7020  178.5180  141.7170 O   0  0  0  0  0  0  0  0  0  0  0  0
  188.3260  177.5290  140.9060 C   0  0  1  0  0  3  0  0  0  0  0  0
  187.4240  177.9910  143.0070 C   0  0  2  0  0  3  0  0  0  0  0  0
  189.6910  176.6750  145.4220 C   0  0  1  0  0  3  0  0  0  0  0  0
  192.0800  177.5480  141.4190 C   0  0  0  0  0  3  0  0  0  0  0  0
  186.8690  178.1580  137.3840 C   0  0  2  0  0  3  0  0  0  0  0  0
  188.8540  177.2670  134.9790 N   0  0  0  0  0  2  0  0  0  0  0  0
  185.9760  177.5990  136.3070 C   0  0  0  0  0  2  0  0  0  0  0  0
  189.6780  177.4180  137.2620 C   0  0  0  0  0  2  0  0  0  0  0  0
  188.2450  177.8500  139.4100 C   0  0  1  0  0  3  0  0  0  0  0  0
  187.2250  176.8430  136.7090 C   0  0  1  0  0  3  0  0  0  0  0  0
  189.2770  176.9530  138.6840 C   0  0  0  0  0  2  0  0  0  0  0  0
  186.8020  177.7400  138.8320 C   0  0  1  0  0  3  0  0  0  0  0  0
  185.8350  178.6630  139.5530 C   0  0  0  0  0  1  0  0  0  0  0  0
  188.5960  177.1760  136.2310 C   0  0  0  0  0  0  0  0  0  0  0  0
  185.6730  178.4500  144.7270 C   0  0  0  0  0  3  0  0  0  0  0  0
  183.3480  178.7530  144.1220 C   0  0  0  0  0  3  0  0  0  0  0  0
  184.9950  178.3030  142.4060 C   0  0  0  0  0  3  0  0  0  0  0  0
  183.6700  178.5540  142.7760 C   0  0  0  0  0  3  0  0  0  0  0  0
  184.3490  178.7010  145.0970 C   0  0  0  0  0  3  0  0  0  0  0  0
  186.0010  178.2460  143.3820 C   0  0  0  0  0  0  0  0  0  0  0  0
  189.7260  176.5930  146.8140 O   0  0  0  0  0  0  0  0  0  0  0  0
  191.0840  176.5610  147.1330 C   0  0  0  0  0  1  0  0  0  0  0  0
  1  3  1  1  0  0  0
  1  4  1  0  0  0  0
  2  6  1  0  0  0  0
  2  5  1  0  0  0  0
  3 14  2  0  0  0  0
  4  7  1  0  0  0  0
  4  2  1  0  0  0  0
  5 13  1  0  0  0  0
  6  5  1  0  0  0  0
  7  8  1  0  0  0  0
  8 13  1  0  0  0  0
  9  7  1  0  0  0  0
 10 12  1  0  0  0  0
 11  1  1  0  0  0  0
 11 10  1  0  0  0  0
 12 30  1  0  0  0  0
 12  6  1  0  0  0  0
 13 31  1  0  0  0  0
 14  9  1  0  0  0  0
 15 22  1  0  0  0  0
 16 24  2  0  0  0  0
 17 20  1  0  0  0  0
 17 15  1  0  0  0  0
 18 21  1  0  0  0  0
 19 11  1  0  0  0  0
 20 15  1  0  0  0  0
 21 19  1  0  0  0  0
 22 19  1  0  0  0  0
 22 23  1  0  0  0  0
 24 20  1  0  0  0  0
 24 18  1  0  0  0  0
 25 29  1  0  0  0  0
 26 29  2  0  0  0  0
 27 28  2  0  0  0  0
 27 30  1  0  0  0  0
 28 26  1  0  0  0  0
 30 25  2  0  0  0  0
 31 32  1  0  0  0  0
M  END
>  <MODEL>
5

>  <REMARK>
 VINA RESULT:      -8.6      3.084      8.133
  Name = 
  3 active torsions:
  status: ('A' for Active; 'I' for Inactive)
    1  A    between atoms: O_13  and  C_29
    2  A    between atoms: C_16  and  C_27
    3  A    between atoms: C_28  and  C_32
                            x       y       z     vdW  Elec       q    Type
                         _______ _______ _______ _____ _____    ______ ____

>  <TORSDO>
F 3

$$$$
=
 OpenBabel10262421083D

 32 38  0  0  1  0  0  0  0  0999 V2000
  186.6230  177.7970  138.7440 C   0  0  1  0  0  3  0  0  0  0  0  0
  189.0770  178.4080  138.9460 C   0  0  2  0  0  3  0  0  0  0  0  0
  186.3760  178.7980  137.6990 N   0  0  0  0  0  0  0  0  0  0  0  0
  188.0260  177.3030  138.6430 C   0  0  2  0  0  3  0  0  0  0  0  0
  190.4180  177.7510  139.2210 C   0  0  1  0  0  3  0  0  0  0  0  0
  189.5610  178.3390  140.3910 C   0  0  2  0  0  3  0  0  0  0  0  0
  188.3030  176.6900  137.3050 C   0  0  2  0  0  3  0  0  0  0  0  0
  189.7860  176.2370  137.2900 C   0  0  0  0  0  2  0  0  0  0  0  0
  187.9770  177.6900  136.2810 N   0  0  0  0  0  2  0  0  0  0  0  0
  187.2870  178.7320  141.0220 O   0  0  0  0  0  0  0  0  0  0  0  0
  186.2630  178.1570  140.2160 C   0  0  1  0  0  3  0  0  0  0  0  0
  188.3520  177.8080  141.1960 C   0  0  2  0  0  3  0  0  0  0  0  0
  190.4150  176.2800  138.7230 C   0  0  1  0  0  3  0  0  0  0  0  0
  186.9810  178.7150  136.5380 C   0  0  0  0  0  3  0  0  0  0  0  0
  182.7830  179.1670  141.5540 C   0  0  2  0  0  3  0  0  0  0  0  0
  180.7470  180.1810  139.2420 N   0  0  0  0  0  2  0  0  0  0  0  0
  181.4260  178.6520  141.9560 C   0  0  0  0  0  2  0  0  0  0  0  0
  183.1180  179.9250  138.7670 C   0  0  0  0  0  2  0  0  0  0  0  0
  184.9210  178.8840  140.3540 C   0  0  1  0  0  3  0  0  0  0  0  0
  181.8940  178.4880  140.5250 C   0  0  1  0  0  3  0  0  0  0  0  0
  184.2440  178.8800  138.9610 C   0  0  0  0  0  2  0  0  0  0  0  0
  184.0220  178.3090  141.4900 C   0  0  1  0  0  3  0  0  0  0  0  0
  184.7150  178.3650  142.8400 C   0  0  0  0  0  1  0  0  0  0  0  0
  181.8420  179.5650  139.4970 C   0  0  0  0  0  0  0  0  0  0  0  0
  189.9010  178.2180  143.1100 C   0  0  0  0  0  3  0  0  0  0  0  0
  189.3740  177.4700  145.3520 C   0  0  0  0  0  3  0  0  0  0  0  0
  187.8320  177.0320  143.5390 C   0  0  0  0  0  3  0  0  0  0  0  0
  188.1700  176.9290  144.8910 C   0  0  0  0  0  3  0  0  0  0  0  0
  190.2390  178.1150  144.4630 C   0  0  0  0  0  3  0  0  0  0  0  0
  188.6990  177.6750  142.6420 C   0  0  0  0  0  0  0  0  0  0  0  0
  191.7240  175.8000  138.6760 O   0  0  0  0  0  0  0  0  0  0  0  0
  192.2500  176.3210  137.4930 C   0  0  0  0  0  1  0  0  0  0  0  0
  1  3  1  6  0  0  0
  1 11  1  0  0  0  0
  2  5  1  0  0  0  0
  2  6  1  0  0  0  0
  4  1  1  0  0  0  0
  4  2  1  0  0  0  0
  5  6  1  0  0  0  0
  6 12  1  0  0  0  0
  7  4  1  0  0  0  0
  8  7  1  0  0  0  0
  8 13  1  0  0  0  0
  9 14  1  0  0  0  0
  9  7  1  0  0  0  0
 10 12  1  0  0  0  0
 11 19  1  0  0  0  0
 11 10  1  0  0  0  0
 12 30  1  0  0  0  0
 13  5  1  0  0  0  0
 14  3  2  0  0  0  0
 15 17  1  0  0  0  0
 16 24  2  0  0  0  0
 18 21  1  0  0  0  0
 18 24  1  0  0  0  0
 19 22  1  0  0  0  0
 20 15  1  0  0  0  0
 20 17  1  0  0  0  0
 21 19  1  0  0  0  0
 22 15  1  0  0  0  0
 22 23  1  0  0  0  0
 24 20  1  0  0  0  0
 25 29  1  0  0  0  0
 27 28  2  0  0  0  0
 28 26  1  0  0  0  0
 29 26  2  0  0  0  0
 30 25  2  0  0  0  0
 30 27  1  0  0  0  0
 31 13  1  0  0  0  0
 32 31  1  0  0  0  0
M  END
>  <MODEL>
6

>  <REMARK>
 VINA RESULT:      -8.3      2.971      6.901
  Name = 
  3 active torsions:
  status: ('A' for Active; 'I' for Inactive)
    1  A    between atoms: O_13  and  C_29
    2  A    between atoms: C_16  and  C_27
    3  A    between atoms: C_28  and  C_32
                            x       y       z     vdW  Elec       q    Type
                         _______ _______ _______ _____ _____    ______ ____

>  <TORSDO>
F 3

$$$$
=
 OpenBabel10262421083D

 32 38  0  0  1  0  0  0  0  0999 V2000
  189.8270  176.9030  143.2280 C   0  0  1  0  0  3  0  0  0  0  0  0
  189.2390  178.3220  145.2480 C   0  0  2  0  0  3  0  0  0  0  0  0
  191.1270  177.5600  143.0440 N   0  0  0  0  0  0  0  0  0  0  0  0
  189.4710  176.8940  144.6760 C   0  0  2  0  0  3  0  0  0  0  0  0
  188.5030  178.2090  146.5710 C   0  0  1  0  0  3  0  0  0  0  0  0
  187.7570  178.6790  145.2780 C   0  0  2  0  0  3  0  0  0  0  0  0
  190.5000  176.1790  145.4950 C   0  0  2  0  0  3  0  0  0  0  0  0
  190.0560  176.2500  146.9800 C   0  0  0  0  0  2  0  0  0  0  0  0
  191.7990  176.8120  145.2330 N   0  0  0  0  0  2  0  0  0  0  0  0
  187.7880  178.4000  142.9020 O   0  0  0  0  0  0  0  0  0  0  0  0
  188.6240  177.3820  142.3620 C   0  0  1  0  0  3  0  0  0  0  0  0
  187.1380  177.9300  144.0750 C   0  0  2  0  0  3  0  0  0  0  0  0
  188.5820  176.7570  147.1150 C   0  0  1  0  0  3  0  0  0  0  0  0
  192.0560  177.4750  143.9670 C   0  0  0  0  0  3  0  0  0  0  0  0
  188.2690  177.9390  138.5560 C   0  0  2  0  0  3  0  0  0  0  0  0
  190.7650  176.7830  136.8360 N   0  0  0  0  0  2  0  0  0  0  0  0
  187.6690  177.3950  137.2860 C   0  0  0  0  0  2  0  0  0  0  0  0
  190.9270  176.9880  139.2540 C   0  0  0  0  0  2  0  0  0  0  0  0
  188.9930  177.6330  140.8960 C   0  0  1  0  0  3  0  0  0  0  0  0
  188.6870  176.5690  138.0450 C   0  0  1  0  0  3  0  0  0  0  0  0
  190.1060  176.6260  140.5160 C   0  0  0  0  0  2  0  0  0  0  0  0
  187.7650  177.6010  139.9360 C   0  0  1  0  0  3  0  0  0  0  0  0
  186.7170  178.6280  140.3290 C   0  0  0  0  0  1  0  0  0  0  0  0
  190.1600  176.7760  137.9660 C   0  0  0  0  0  0  0  0  0  0  0  0
  184.9890  178.6280  145.1360 C   0  0  0  0  0  3  0  0  0  0  0  0
  182.9170  178.6940  143.8840 C   0  0  0  0  0  3  0  0  0  0  0  0
  184.9650  177.9990  142.7970 C   0  0  0  0  0  3  0  0  0  0  0  0
  183.5920  178.2530  142.7410 C   0  0  0  0  0  3  0  0  0  0  0  0
  183.6150  178.8820  145.0800 C   0  0  0  0  0  3  0  0  0  0  0  0
  185.6680  178.1830  143.9970 C   0  0  0  0  0  0  0  0  0  0  0  0
  188.2010  176.7400  148.4570 O   0  0  0  0  0  0  0  0  0  0  0  0
  188.2050  178.0810  148.8440 C   0  0  0  0  0  1  0  0  0  0  0  0
  1  3  1  1  0  0  0
  1  4  1  0  0  0  0
  2  6  1  0  0  0  0
  2  5  1  0  0  0  0
  3 14  2  0  0  0  0
  4  2  1  0  0  0  0
  4  7  1  0  0  0  0
  5 13  1  0  0  0  0
  6  5  1  0  0  0  0
  7  8  1  0  0  0  0
  8 13  1  0  0  0  0
  9  7  1  0  0  0  0
 10 12  1  0  0  0  0
 11 10  1  0  0  0  0
 11  1  1  0  0  0  0
 12  6  1  0  0  0  0
 13 31  1  0  0  0  0
 14  9  1  0  0  0  0
 15 22  1  0  0  0  0
 16 24  2  0  0  0  0
 17 20  1  0  0  0  0
 17 15  1  0  0  0  0
 18 21  1  0  0  0  0
 19 11  1  0  0  0  0
 20 15  1  0  0  0  0
 21 19  1  0  0  0  0
 22 23  1  0  0  0  0
 22 19  1  0  0  0  0
 24 20  1  0  0  0  0
 24 18  1  0  0  0  0
 26 29  2  0  0  0  0
 27 30  1  0  0  0  0
 28 27  2  0  0  0  0
 28 26  1  0  0  0  0
 29 25  1  0  0  0  0
 30 12  1  0  0  0  0
 30 25  2  0  0  0  0
 31 32  1  0  0  0  0
M  END
>  <MODEL>
7

>  <REMARK>
 VINA RESULT:      -8.1      2.797      7.817
  Name = 
  3 active torsions:
  status: ('A' for Active; 'I' for Inactive)
    1  A    between atoms: O_13  and  C_29
    2  A    between atoms: C_16  and  C_27
    3  A    between atoms: C_28  and  C_32
                            x       y       z     vdW  Elec       q    Type
                         _______ _______ _______ _____ _____    ______ ____

>  <TORSDO>
F 3

$$$$
=
 OpenBabel10262421083D

 32 38  0  0  1  0  0  0  0  0999 V2000
  187.9610  178.2580  141.1860 C   0  0  1  0  0  3  0  0  0  0  0  0
  187.1190  177.3670  138.9640 C   0  0  2  0  0  3  0  0  0  0  0  0
  188.7690  177.0610  141.4510 N   0  0  0  0  0  0  0  0  0  0  0  0
  187.8830  178.4940  139.7160 C   0  0  2  0  0  3  0  0  0  0  0  0
  186.7360  177.8680  137.5840 C   0  0  1  0  0  3  0  0  0  0  0  0
  185.6630  177.7470  138.7160 C   0  0  2  0  0  3  0  0  0  0  0  0
  189.2400  178.6790  139.1120 C   0  0  2  0  0  3  0  0  0  0  0  0
  189.0550  178.8870  137.5860 C   0  0  0  0  0  2  0  0  0  0  0  0
  190.0460  177.5010  139.4570 N   0  0  0  0  0  2  0  0  0  0  0  0
  185.4400  177.8780  141.0950 O   0  0  0  0  0  0  0  0  0  0  0  0
  186.5510  178.3610  141.8430 C   0  0  1  0  0  3  0  0  0  0  0  0
  185.2720  178.6470  139.9120 C   0  0  2  0  0  3  0  0  0  0  0  0
  187.5540  179.1360  137.2180 C   0  0  1  0  0  3  0  0  0  0  0  0
  189.7670  176.7410  140.6620 C   0  0  0  0  0  3  0  0  0  0  0  0
  185.5450  178.0890  145.5620 C   0  0  2  0  0  3  0  0  0  0  0  0
  188.0170  177.3420  147.5250 N   0  0  0  0  0  2  0  0  0  0  0  0
  185.3060  178.8680  146.8290 C   0  0  0  0  0  2  0  0  0  0  0  0
  188.2520  177.1270  145.1140 C   0  0  0  0  0  2  0  0  0  0  0  0
  186.5270  177.9040  143.3050 C   0  0  1  0  0  3  0  0  0  0  0  0
  186.6860  178.8620  146.2050 C   0  0  1  0  0  3  0  0  0  0  0  0
  187.9810  177.9550  143.8340 C   0  0  0  0  0  2  0  0  0  0  0  0
  185.5130  178.6990  144.1830 C   0  0  1  0  0  3  0  0  0  0  0  0
  184.0970  178.5910  143.6440 C   0  0  0  0  0  1  0  0  0  0  0  0
  187.6730  177.7580  146.3620 C   0  0  0  0  0  0  0  0  0  0  0  0
  183.5470  180.1140  138.8620 C   0  0  0  0  0  3  0  0  0  0  0  0
  181.2130  179.9840  139.4950 C   0  0  0  0  0  3  0  0  0  0  0  0
  182.8370  178.5380  140.5590 C   0  0  0  0  0  3  0  0  0  0  0  0
  181.5180  178.9760  140.4150 C   0  0  0  0  0  3  0  0  0  0  0  0
  182.2270  180.5520  138.7190 C   0  0  0  0  0  3  0  0  0  0  0  0
  183.8580  179.1090  139.7840 C   0  0  0  0  0  0  0  0  0  0  0  0
  187.4410  179.3870  135.8510 O   0  0  0  0  0  0  0  0  0  0  0  0
  187.1810  178.1400  135.2820 C   0  0  0  0  0  1  0  0  0  0  0  0
  1  3  1  6  0  0  0
  1 11  1  0  0  0  0
  2  4  1  0  0  0  0
  4  1  1  0  0  0  0
  5  6  1  0  0  0  0
  5  2  1  0  0  0  0
  6  2  1  0  0  0  0
  6 12  1  0  0  0  0
  7  9  1  0  0  0  0
  7  4  1  0  0  0  0
  8  7  1  0  0  0  0
  9 14  1  0  0  0  0
 10 11  1  0  0  0  0
 11 19  1  0  0  0  0
 12 10  1  0  0  0  0
 13  5  1  0  0  0  0
 13  8  1  0  0  0  0
 14  3  2  0  0  0  0
 15 20  1  0  0  0  0
 15 17  1  0  0  0  0
 18 24  1  0  0  0  0
 19 21  1  0  0  0  0
 19 22  1  0  0  0  0
 20 24  1  0  0  0  0
 20 17  1  0  0  0  0
 21 18  1  0  0  0  0
 22 15  1  0  0  0  0
 23 22  1  0  0  0  0
 24 16  2  0  0  0  0
 25 30  1  0  0  0  0
 26 28  2  0  0  0  0
 28 27  1  0  0  0  0
 29 25  2  0  0  0  0
 29 26  1  0  0  0  0
 30 12  1  0  0  0  0
 30 27  2  0  0  0  0
 31 13  1  0  0  0  0
 32 31  1  0  0  0  0
M  END
>  <MODEL>
8

>  <REMARK>
 VINA RESULT:      -7.8      2.416      5.142
  Name = 
  3 active torsions:
  status: ('A' for Active; 'I' for Inactive)
    1  A    between atoms: O_13  and  C_29
    2  A    between atoms: C_16  and  C_27
    3  A    between atoms: C_28  and  C_32
                            x       y       z     vdW  Elec       q    Type
                         _______ _______ _______ _____ _____    ______ ____

>  <TORSDO>
F 3

$$$$
=
 OpenBabel10262421083D

 32 38  0  0  1  0  0  0  0  0999 V2000
  182.4410  179.1070  138.0730 C   0  0  1  0  0  3  0  0  0  0  0  0
  180.8970  178.4040  139.9610 C   0  0  2  0  0  3  0  0  0  0  0  0
  181.7310  178.2900  137.0800 N   0  0  0  0  0  0  0  0  0  0  0  0
  181.4830  179.5720  139.1170 C   0  0  2  0  0  3  0  0  0  0  0  0
  180.2750  178.9720  141.2230 C   0  0  1  0  0  3  0  0  0  0  0  0
  181.6520  178.2300  141.2740 C   0  0  2  0  0  3  0  0  0  0  0  0
  180.3690  180.3800  138.5260 C   0  0  2  0  0  3  0  0  0  0  0  0
  179.4170  180.7890  139.6800 C   0  0  0  0  0  2  0  0  0  0  0  0
  179.7280  179.5640  137.4870 N   0  0  0  0  0  2  0  0  0  0  0  0
  183.5920  177.8050  139.9400 O   0  0  0  0  0  0  0  0  0  0  0  0
  183.7340  178.5280  138.7220 C   0  0  1  0  0  3  0  0  0  0  0  0
  183.1050  178.6610  140.9650 C   0  0  2  0  0  3  0  0  0  0  0  0
  180.0560  180.5030  141.0800 C   0  0  1  0  0  3  0  0  0  0  0  0
  180.4780  178.5400  136.7830 C   0  0  0  0  0  3  0  0  0  0  0  0
  185.5600  175.7260  136.7900 C   0  0  2  0  0  3  0  0  0  0  0  0
  188.5340  176.5580  135.7980 N   0  0  0  0  0  2  0  0  0  0  0  0
  186.3970  174.4820  136.9310 C   0  0  0  0  0  2  0  0  0  0  0  0
  186.9940  178.2500  136.6210 C   0  0  0  0  0  2  0  0  0  0  0  0
  184.6550  177.8260  137.7190 C   0  0  1  0  0  3  0  0  0  0  0  0
  186.9330  175.8040  137.4390 C   0  0  1  0  0  3  0  0  0  0  0  0
  186.0510  178.4870  137.8270 C   0  0  0  0  0  2  0  0  0  0  0  0
  184.6810  176.2760  137.8850 C   0  0  1  0  0  3  0  0  0  0  0  0
  183.2960  175.6710  137.7370 C   0  0  0  0  0  1  0  0  0  0  0  0
  187.5540  176.8450  136.5740 C   0  0  0  0  0  0  0  0  0  0  0  0
  183.3760  178.7370  143.4450 C   0  0  0  0  0  3  0  0  0  0  0  0
  185.5170  178.3340  144.5010 C   0  0  0  0  0  3  0  0  0  0  0  0
  185.3240  178.2530  142.0900 C   0  0  0  0  0  3  0  0  0  0  0  0
  186.1030  178.1450  143.2460 C   0  0  0  0  0  3  0  0  0  0  0  0
  184.1540  178.6290  144.6010 C   0  0  0  0  0  3  0  0  0  0  0  0
  183.9570  178.5530  142.1860 C   0  0  0  0  0  0  0  0  0  0  0  0
  179.1980  180.9470  142.0870 O   0  0  0  0  0  0  0  0  0  0  0  0
  179.4740  180.1210  143.1770 C   0  0  0  0  0  1  0  0  0  0  0  0
  1  3  1  1  0  0  0
  1 11  1  0  0  0  0
  1  4  1  0  0  0  0
  2  5  1  0  0  0  0
  2  6  1  0  0  0  0
  4  2  1  0  0  0  0
  5  6  1  0  0  0  0
  7  4  1  0  0  0  0
  7  8  1  0  0  0  0
  8 13  1  0  0  0  0
  9  7  1  0  0  0  0
 10 12  1  0  0  0  0
 11 10  1  0  0  0  0
 12  6  1  0  0  0  0
 12 30  1  0  0  0  0
 13  5  1  0  0  0  0
 13 31  1  0  0  0  0
 14  3  2  0  0  0  0
 14  9  1  0  0  0  0
 15 17  1  0  0  0  0
 15 20  1  0  0  0  0
 15 22  1  0  0  0  0
 16 24  2  0  0  0  0
 17 20  1  0  0  0  0
 18 21  1  0  0  0  0
 19 21  1  0  0  0  0
 19 22  1  0  0  0  0
 19 11  1  0  0  0  0
 23 22  1  0  0  0  0
 24 18  1  0  0  0  0
 24 20  1  0  0  0  0
 25 29  1  0  0  0  0
 26 29  2  0  0  0  0
 27 30  1  0  0  0  0
 27 28  2  0  0  0  0
 28 26  1  0  0  0  0
 30 25  2  0  0  0  0
 31 32  1  0  0  0  0
M  END
>  <MODEL>
9

>  <REMARK>
 VINA RESULT:      -7.6      4.066      7.538
  Name = 
  3 active torsions:
  status: ('A' for Active; 'I' for Inactive)
    1  A    between atoms: O_13  and  C_29
    2  A    between atoms: C_16  and  C_27
    3  A    between atoms: C_28  and  C_32
                            x       y       z     vdW  Elec       q    Type
                         _______ _______ _______ _____ _____    ______ ____

>  <TORSDO>
F 3

$$$$
