=
 OpenBabel10262420293D

 55 59  0  0  1  0  0  0  0  0999 V2000
  184.6100  176.7270  136.8110 C   0  0  1  0  0  3  0  0  0  0  0  0
  182.4480  177.7170  140.2610 C   0  0  0  0  0  2  0  0  0  0  0  0
  179.4260  173.0460  135.2280 C   0  0  0  0  0  2  0  0  0  0  0  0
  183.1570  178.7170  139.3630 C   0  0  0  0  0  2  0  0  0  0  0  0
  179.8310  177.9150  138.1320 O   0  0  0  0  0  0  0  0  0  0  0  0
  180.3420  175.7240  138.9220 C   0  0  2  0  0  3  0  0  0  0  0  0
  179.6420  175.1700  139.9990 O   0  0  0  0  0  1  0  0  0  0  0  0
  186.3160  178.1780  137.8310 C   0  0  0  0  0  0  0  0  0  0  0  0
  180.3280  177.2350  139.0210 C   0  0  0  0  0  0  0  0  0  0  0  0
  184.6580  178.6590  139.6030 C   0  0  1  0  0  3  0  0  0  0  0  0
  183.8910  176.4900  135.4950 C   0  0  0  0  0  2  0  0  0  0  0  0
  185.4150  179.2250  138.4100 C   0  0  0  0  0  2  0  0  0  0  0  0
  181.7620  172.4130  136.0750 C   0  0  2  0  0  3  0  0  0  0  0  0
  181.8180  175.7440  136.3610 C   0  0  0  0  0  3  0  0  0  0  0  0
  180.0300  174.4450  135.2780 C   0  0  0  0  0  2  0  0  0  0  0  0
  179.7320  175.2220  137.6120 C   0  0  0  0  0  2  0  0  0  0  0  0
  181.4120  173.4190  137.1760 C   0  0  0  0  0  2  0  0  0  0  0  0
  185.9080  175.9560  136.8190 C   0  0  0  0  0  2  0  0  0  0  0  0
  185.9200  177.4560  136.5770 C   0  0  1  0  0  3  0  0  0  0  0  0
  180.9450  177.9420  140.2000 C   0  0  1  0  0  3  0  0  0  0  0  0
  180.5110  171.9700  135.2960 C   0  0  0  0  0  2  0  0  0  0  0  0
  182.8700  175.4880  135.6730 N   0  0  0  0  0  0  0  0  0  0  0  0
  180.7640  174.7000  136.6030 C   0  0  2  0  0  0  0  0  0  0  0  0
  187.3890  177.9410  138.3660 O   0  0  0  0  0  0  0  0  0  0  0  0
  182.5720  171.2440  136.6200 C   0  0  0  0  0  3  0  0  0  0  0  0
  184.0010  171.6580  136.8820 C   0  0  0  0  0  1  0  0  0  0  0  0
  182.5370  170.0390  135.6980 C   0  0  0  0  0  1  0  0  0  0  0  0
  180.3480  177.5250  141.4030 O   0  0  0  0  0  0  0  0  0  0  0  0
  179.3440  179.5740  141.6910 F   0  0  0  0  0  0  0  0  0  0  0  0
  181.4490  179.2440  142.4710 F   0  0  0  0  0  0  0  0  0  0  0  0
  179.6560  178.1980  143.5690 C   0  0  0  0  0  1  0  0  0  0  0  0
  180.2180  178.6490  142.2410 C   0  0  0  0  0  0  0  0  0  0  0  0
  185.0620  179.3250  140.9280 C   0  0  0  0  0  2  0  0  0  0  0  0
  186.1470  178.5680  141.6940 C   0  0  0  0  0  2  0  0  0  0  0  0
  184.9040  179.5470  143.5040 O   0  0  0  0  0  1  0  0  0  0  0  0
  185.9920  178.7250  143.2010 C   0  0  1  0  0  3  0  0  0  0  0  0
  185.8630  177.3660  143.8870 C   0  0  0  0  0  2  0  0  0  0  0  0
  186.6760  177.2440  145.1780 C   0  0  2  0  0  3  0  0  0  0  0  0
  185.8980  180.1520  147.3930 N   0  0  0  0  0  1  0  0  0  0  0  0
  186.6770  178.5130  145.9050 N   0  0  0  0  0  0  0  0  0  0  0  0
  185.7760  178.8860  146.7610 C   0  0  0  0  0  0  0  0  0  0  0  0
  184.6670  178.0460  147.0880 N   0  0  0  0  0  1  0  0  0  0  0  0
  187.9880  176.8280  144.9100 O   0  0  0  0  0  0  0  0  0  0  0  0
  190.6760  177.3450  143.4910 C   0  0  2  0  0  3  0  0  0  0  0  0
  188.8090  177.9270  145.1800 C   0  0  1  0  0  3  0  0  0  0  0  0
  192.3540  174.5370  145.1460 C   0  0  0  0  0  2  0  0  0  0  0  0
  189.6550  178.1680  147.4690 C   0  0  0  0  0  2  0  0  0  0  0  0
  189.7930  177.5980  146.2710 C   0  0  0  0  0  0  0  0  0  0  0  0
  190.3190  176.7180  142.1550 C   0  0  0  0  0  1  0  0  0  0  0  0
  192.3900  175.0930  146.5770 C   0  0  0  0  0  2  0  0  0  0  0  0
  191.1670  175.7300  146.8660 O   0  0  0  0  0  0  0  0  0  0  0  0
  190.9670  176.2390  144.5200 C   0  0  2  0  0  3  0  0  0  0  0  0
  191.0250  176.8010  145.9590 C   0  0  1  0  0  3  0  0  0  0  0  0
  192.1860  175.5900  144.2190 O   0  0  0  0  0  0  0  0  0  0  0  0
  189.5630  178.3250  143.9090 C   0  0  0  0  0  2  0  0  0  0  0  0
  1 11  1  6  0  0  0
  1 18  1  0  0  0  0
  3 15  1  0  0  0  0
  3 21  1  0  0  0  0
  4 10  1  0  0  0  0
  4  2  1  0  0  0  0
  5  9  2  0  0  0  0
  6  9  1  0  0  0  0
  6  7  1  1  0  0  0
  8 24  2  0  0  0  0
  8 12  1  0  0  0  0
  9 20  1  0  0  0  0
 10 33  1  1  0  0  0
 11 22  1  0  0  0  0
 12 10  1  0  0  0  0
 13 25  1  1  0  0  0
 13 17  1  0  0  0  0
 14 23  1  0  0  0  0
 16  6  1  0  0  0  0
 19  1  1  0  0  0  0
 19 18  1  1  0  0  0
 19  8  1  0  0  0  0
 20  2  1  0  0  0  0
 20 28  1  1  0  0  0
 21 13  1  0  0  0  0
 22 14  2  0  0  0  0
 23 15  1  6  0  0  0
 23 17  1  0  0  0  0
 23 16  1  0  0  0  0
 25 26  1  0  0  0  0
 27 25  1  0  0  0  0
 28 32  1  0  0  0  0
 29 32  1  0  0  0  0
 32 30  1  0  0  0  0
 32 31  1  0  0  0  0
 33 34  1  0  0  0  0
 34 36  1  0  0  0  0
 36 35  1  6  0  0  0
 36 37  1  0  0  0  0
 38 37  1  6  0  0  0
 38 40  1  0  0  0  0
 40 41  2  0  0  0  0
 41 42  1  0  0  0  0
 41 39  1  0  0  0  0
 43 38  1  0  0  0  0
 44 49  1  6  0  0  0
 44 55  1  0  0  0  0
 44 52  1  0  0  0  0
 45 43  1  6  0  0  0
 45 48  1  0  0  0  0
 46 50  1  0  0  0  0
 48 47  2  0  0  0  0
 50 51  1  0  0  0  0
 52 54  1  6  0  0  0
 52 53  1  0  0  0  0
 53 48  1  1  0  0  0
 53 51  1  0  0  0  0
 54 46  1  0  0  0  0
 55 45  1  0  0  0  0
M  END
>  <MODEL>
1

>  <REMARK>
 VINA RESULT:      -7.7      0.000      0.000
  Name = 
  11 active torsions:
  status: ('A' for Active; 'I' for Inactive)
    1  A    between atoms: C_6  and  O_46
    2  A    between atoms: N_8  and  C_22
    3  A    between atoms: C_10  and  C_32
    4  A    between atoms: O_19  and  C_40
    5  A    between atoms: O_19  and  C_45
    6  A    between atoms: C_22  and  C_35
    7  A    between atoms: C_22  and  O_46
    8  A    between atoms: C_27  and  C_54
    9  A    between atoms: C_35  and  C_43
   10  A    between atoms: C_43  and  C_51
   11  A    between atoms: C_51  and  C_54
                            x       y       z     vdW  Elec       q    Type
                         _______ _______ _______ _____ _____    ______ ____

>  <TORSDO>
F 11

$$$$
=
 OpenBabel10262420293D

 55 59  0  0  1  0  0  0  0  0999 V2000
  184.8130  176.9430  136.9840 C   0  0  1  0  0  3  0  0  0  0  0  0
  182.9390  177.8530  140.6190 C   0  0  0  0  0  2  0  0  0  0  0  0
  178.9830  174.5810  135.1480 C   0  0  0  0  0  2  0  0  0  0  0  0
  183.8180  178.8100  139.8310 C   0  0  0  0  0  2  0  0  0  0  0  0
  180.3810  178.8400  138.6440 O   0  0  0  0  0  0  0  0  0  0  0  0
  180.4620  176.5050  139.1190 C   0  0  2  0  0  3  0  0  0  0  0  0
  179.6830  175.9550  140.1430 O   0  0  0  0  0  1  0  0  0  0  0  0
  186.7860  177.8850  138.1130 C   0  0  0  0  0  0  0  0  0  0  0  0
  180.7480  177.9630  139.4150 C   0  0  0  0  0  0  0  0  0  0  0  0
  185.2810  178.4310  140.0000 C   0  0  1  0  0  3  0  0  0  0  0  0
  184.0420  177.0300  135.6790 C   0  0  0  0  0  2  0  0  0  0  0  0
  186.1170  178.9980  138.8610 C   0  0  0  0  0  2  0  0  0  0  0  0
  181.1610  173.4000  135.8090 C   0  0  2  0  0  3  0  0  0  0  0  0
  181.8750  176.5870  136.5240 C   0  0  0  0  0  3  0  0  0  0  0  0
  179.8520  175.8170  135.3550 C   0  0  0  0  0  2  0  0  0  0  0  0
  179.7460  176.3130  137.7810 C   0  0  0  0  0  2  0  0  0  0  0  0
  181.0330  174.2960  137.0450 C   0  0  0  0  0  2  0  0  0  0  0  0
  185.9340  175.9410  136.8380 C   0  0  0  0  0  2  0  0  0  0  0  0
  186.2370  177.4300  136.7930 C   0  0  1  0  0  3  0  0  0  0  0  0
  181.5090  178.3700  140.6500 C   0  0  1  0  0  3  0  0  0  0  0  0
  179.8360  173.3170  135.0310 C   0  0  0  0  0  2  0  0  0  0  0  0
  182.8470  176.2290  135.7670 N   0  0  0  0  0  0  0  0  0  0  0  0
  180.6410  175.7440  136.6710 C   0  0  2  0  0  0  0  0  0  0  0  0
  187.7990  177.3750  138.5690 O   0  0  0  0  0  0  0  0  0  0  0  0
  181.7330  172.0340  136.1630 C   0  0  0  0  0  3  0  0  0  0  0  0
  180.6960  171.1830  136.8590 C   0  0  0  0  0  1  0  0  0  0  0  0
  182.9850  172.1360  137.0170 C   0  0  0  0  0  1  0  0  0  0  0  0
  180.8590  177.9160  141.8110 O   0  0  0  0  0  0  0  0  0  0  0  0
  180.7240  180.1880  142.1430 F   0  0  0  0  0  0  0  0  0  0  0  0
  182.0590  178.9420  143.4890 F   0  0  0  0  0  0  0  0  0  0  0  0
  179.7290  178.7580  143.7190 C   0  0  0  0  0  1  0  0  0  0  0  0
  180.8800  178.9570  142.7610 C   0  0  0  0  0  0  0  0  0  0  0  0
  185.8280  178.8210  141.3820 C   0  0  0  0  0  2  0  0  0  0  0  0
  187.2090  178.2390  141.6870 C   0  0  0  0  0  2  0  0  0  0  0  0
  186.0040  177.4470  143.6110 O   0  0  0  0  0  1  0  0  0  0  0  0
  187.2840  177.6630  143.0950 C   0  0  1  0  0  3  0  0  0  0  0  0
  188.1130  176.3800  143.1230 C   0  0  0  0  0  2  0  0  0  0  0  0
  189.5960  176.5940  142.8080 C   0  0  2  0  0  3  0  0  0  0  0  0
  190.8610  175.9580  139.3480 N   0  0  0  0  0  1  0  0  0  0  0  0
  189.9280  176.0270  141.5010 N   0  0  0  0  0  0  0  0  0  0  0  0
  190.6160  176.6260  140.5780 C   0  0  0  0  0  0  0  0  0  0  0  0
  191.1380  177.9420  140.7740 N   0  0  0  0  0  1  0  0  0  0  0  0
  190.4090  176.0410  143.8070 O   0  0  0  0  0  0  0  0  0  0  0  0
  191.2920  176.3220  146.7470 C   0  0  2  0  0  3  0  0  0  0  0  0
  191.2110  177.0840  144.2800 C   0  0  1  0  0  3  0  0  0  0  0  0
  187.9240  177.1680  147.9200 C   0  0  0  0  0  2  0  0  0  0  0  0
  190.3530  179.3680  144.0310 C   0  0  0  0  0  2  0  0  0  0  0  0
  190.3600  178.2390  144.7400 C   0  0  0  0  0  0  0  0  0  0  0  0
  191.3480  174.8420  147.0800 C   0  0  0  0  0  1  0  0  0  0  0  0
  187.7870  178.5520  147.2690 C   0  0  0  0  0  2  0  0  0  0  0  0
  188.3230  178.5160  145.9670 O   0  0  0  0  0  0  0  0  0  0  0  0
  189.8280  176.7910  146.7170 C   0  0  2  0  0  3  0  0  0  0  0  0
  189.6910  178.1930  146.0820 C   0  0  1  0  0  3  0  0  0  0  0  0
  189.2870  176.8120  148.0240 O   0  0  0  0  0  0  0  0  0  0  0  0
  192.0700  176.5820  145.4430 C   0  0  0  0  0  2  0  0  0  0  0  0
  1 11  1  6  0  0  0
  2 20  1  0  0  0  0
  3 15  1  0  0  0  0
  4 10  1  0  0  0  0
  4  2  1  0  0  0  0
  5  9  2  0  0  0  0
  6  9  1  0  0  0  0
  6  7  1  1  0  0  0
  8 24  2  0  0  0  0
  8 12  1  0  0  0  0
  9 20  1  0  0  0  0
 10 33  1  1  0  0  0
 11 22  1  0  0  0  0
 12 10  1  0  0  0  0
 13 25  1  1  0  0  0
 13 17  1  0  0  0  0
 14 23  1  0  0  0  0
 16  6  1  0  0  0  0
 18  1  1  0  0  0  0
 19 18  1  1  0  0  0
 19  1  1  0  0  0  0
 19  8  1  0  0  0  0
 20 28  1  1  0  0  0
 21  3  1  0  0  0  0
 21 13  1  0  0  0  0
 22 14  2  0  0  0  0
 23 15  1  6  0  0  0
 23 17  1  0  0  0  0
 23 16  1  0  0  0  0
 25 26  1  0  0  0  0
 25 27  1  0  0  0  0
 28 32  1  0  0  0  0
 29 32  1  0  0  0  0
 32 30  1  0  0  0  0
 32 31  1  0  0  0  0
 33 34  1  0  0  0  0
 34 36  1  0  0  0  0
 36 37  1  0  0  0  0
 36 35  1  6  0  0  0
 38 37  1  1  0  0  0
 38 43  1  0  0  0  0
 39 41  1  0  0  0  0
 40 38  1  0  0  0  0
 41 42  1  0  0  0  0
 41 40  2  0  0  0  0
 44 49  1  6  0  0  0
 45 43  1  1  0  0  0
 45 48  1  0  0  0  0
 45 55  1  0  0  0  0
 46 54  1  0  0  0  0
 47 48  2  0  0  0  0
 50 46  1  0  0  0  0
 51 53  1  0  0  0  0
 51 50  1  0  0  0  0
 52 44  1  0  0  0  0
 52 54  1  1  0  0  0
 53 48  1  6  0  0  0
 53 52  1  0  0  0  0
 55 44  1  0  0  0  0
M  END
>  <MODEL>
2

>  <REMARK>
 VINA RESULT:      -7.1      2.114      3.227
  Name = 
  11 active torsions:
  status: ('A' for Active; 'I' for Inactive)
    1  A    between atoms: C_6  and  O_46
    2  A    between atoms: N_8  and  C_22
    3  A    between atoms: C_10  and  C_32
    4  A    between atoms: O_19  and  C_40
    5  A    between atoms: O_19  and  C_45
    6  A    between atoms: C_22  and  C_35
    7  A    between atoms: C_22  and  O_46
    8  A    between atoms: C_27  and  C_54
    9  A    between atoms: C_35  and  C_43
   10  A    between atoms: C_43  and  C_51
   11  A    between atoms: C_51  and  C_54
                            x       y       z     vdW  Elec       q    Type
                         _______ _______ _______ _____ _____    ______ ____

>  <TORSDO>
F 11

$$$$
=
 OpenBabel10262420293D

 55 59  0  0  1  0  0  0  0  0999 V2000
  184.6840  176.3050  136.1570 C   0  0  1  0  0  3  0  0  0  0  0  0
  182.7980  177.5440  139.6880 C   0  0  0  0  0  2  0  0  0  0  0  0
  179.1980  172.9100  135.0130 C   0  0  0  0  0  2  0  0  0  0  0  0
  183.5120  178.4670  138.7140 C   0  0  0  0  0  2  0  0  0  0  0  0
  180.0750  177.8380  137.7080 O   0  0  0  0  0  0  0  0  0  0  0  0
  180.4970  175.6460  138.5470 C   0  0  2  0  0  3  0  0  0  0  0  0
  179.8300  175.1740  139.6830 O   0  0  0  0  0  1  0  0  0  0  0  0
  186.5340  177.6780  137.0220 C   0  0  0  0  0  0  0  0  0  0  0  0
  180.5820  177.1580  138.5910 C   0  0  0  0  0  0  0  0  0  0  0  0
  185.0190  178.3220  138.8690 C   0  0  1  0  0  3  0  0  0  0  0  0
  183.8740  176.0710  134.8950 C   0  0  0  0  0  2  0  0  0  0  0  0
  185.7360  178.7990  137.6140 C   0  0  0  0  0  2  0  0  0  0  0  0
  181.5370  172.1590  135.7470 C   0  0  2  0  0  3  0  0  0  0  0  0
  181.8150  175.4870  135.9060 C   0  0  0  0  0  3  0  0  0  0  0  0
  179.8890  174.2690  134.9770 C   0  0  0  0  0  2  0  0  0  0  0  0
  179.7800  175.1400  137.2940 C   0  0  0  0  0  2  0  0  0  0  0  0
  181.3170  173.2210  136.8290 C   0  0  0  0  0  2  0  0  0  0  0  0
  185.9300  175.4540  136.1190 C   0  0  0  0  0  2  0  0  0  0  0  0
  186.0200  176.9410  135.8210 C   0  0  1  0  0  3  0  0  0  0  0  0
  181.3110  177.8630  139.7060 C   0  0  1  0  0  3  0  0  0  0  0  0
  180.2170  171.7710  135.0590 C   0  0  0  0  0  2  0  0  0  0  0  0
  182.8060  175.1420  135.1690 N   0  0  0  0  0  0  0  0  0  0  0  0
  180.7160  174.5210  136.2470 C   0  0  2  0  0  0  0  0  0  0  0  0
  187.6210  177.3910  137.5030 O   0  0  0  0  0  0  0  0  0  0  0  0
  182.3050  170.9590  136.2870 C   0  0  0  0  0  3  0  0  0  0  0  0
  183.7490  171.3200  136.5460 C   0  0  0  0  0  1  0  0  0  0  0  0
  182.2240  169.7580  135.3620 C   0  0  0  0  0  1  0  0  0  0  0  0
  180.7630  177.5240  140.9550 O   0  0  0  0  0  0  0  0  0  0  0  0
  180.8220  179.8110  141.1890 F   0  0  0  0  0  0  0  0  0  0  0  0
  182.2590  178.5300  142.3900 F   0  0  0  0  0  0  0  0  0  0  0  0
  179.9810  178.5190  142.9620 C   0  0  0  0  0  1  0  0  0  0  0  0
  180.9890  178.5980  141.8390 C   0  0  0  0  0  0  0  0  0  0  0  0
  185.5410  179.0050  140.1420 C   0  0  0  0  0  2  0  0  0  0  0  0
  186.4720  178.1250  140.9770 C   0  0  0  0  0  2  0  0  0  0  0  0
  188.3530  179.3600  140.1300 O   0  0  0  0  0  1  0  0  0  0  0  0
  187.8790  178.0730  140.3930 C   0  0  1  0  0  3  0  0  0  0  0  0
  188.8310  177.3130  141.3150 C   0  0  0  0  0  2  0  0  0  0  0  0
  189.7760  178.2170  142.1110 C   0  0  2  0  0  3  0  0  0  0  0  0
  193.0730  177.0900  140.7580 N   0  0  0  0  0  1  0  0  0  0  0  0
  191.1640  177.7940  141.9280 N   0  0  0  0  0  0  0  0  0  0  0  0
  191.7110  177.4920  140.7900 C   0  0  0  0  0  0  0  0  0  0  0  0
  190.9740  177.5630  139.5680 N   0  0  0  0  0  1  0  0  0  0  0  0
  189.4380  178.2250  143.4710 O   0  0  0  0  0  0  0  0  0  0  0  0
  187.1190  176.8900  145.0020 C   0  0  2  0  0  3  0  0  0  0  0  0
  189.4480  176.8890  143.8850 C   0  0  1  0  0  3  0  0  0  0  0  0
  187.7450  178.7900  148.0740 C   0  0  0  0  0  2  0  0  0  0  0  0
  191.2280  176.1990  145.4240 C   0  0  0  0  0  2  0  0  0  0  0  0
  190.0320  176.7680  145.2680 C   0  0  0  0  0  0  0  0  0  0  0  0
  185.9870  177.6970  144.3920 C   0  0  0  0  0  1  0  0  0  0  0  0
  189.0850  178.1570  148.4750 C   0  0  0  0  0  2  0  0  0  0  0  0
  189.8840  177.9770  147.3290 O   0  0  0  0  0  0  0  0  0  0  0  0
  187.8570  177.7430  146.0480 C   0  0  2  0  0  3  0  0  0  0  0  0
  189.1950  177.0950  146.4690 C   0  0  1  0  0  3  0  0  0  0  0  0
  187.0470  177.9360  147.1920 O   0  0  0  0  0  0  0  0  0  0  0  0
  188.0190  176.3420  143.8790 C   0  0  0  0  0  2  0  0  0  0  0  0
  1 11  1  6  0  0  0
  2 20  1  0  0  0  0
  3 21  1  0  0  0  0
  4 10  1  0  0  0  0
  4  2  1  0  0  0  0
  5  9  2  0  0  0  0
  6  9  1  0  0  0  0
  6  7  1  1  0  0  0
  8 24  2  0  0  0  0
  8 12  1  0  0  0  0
  9 20  1  0  0  0  0
 10 33  1  1  0  0  0
 11 22  1  0  0  0  0
 12 10  1  0  0  0  0
 13 25  1  1  0  0  0
 13 17  1  0  0  0  0
 14 23  1  0  0  0  0
 15  3  1  0  0  0  0
 16  6  1  0  0  0  0
 18  1  1  0  0  0  0
 19 18  1  1  0  0  0
 19  1  1  0  0  0  0
 19  8  1  0  0  0  0
 20 28  1  1  0  0  0
 21 13  1  0  0  0  0
 22 14  2  0  0  0  0
 23 15  1  6  0  0  0
 23 17  1  0  0  0  0
 23 16  1  0  0  0  0
 25 26  1  0  0  0  0
 27 25  1  0  0  0  0
 28 32  1  0  0  0  0
 29 32  1  0  0  0  0
 32 30  1  0  0  0  0
 32 31  1  0  0  0  0
 33 34  1  0  0  0  0
 36 35  1  1  0  0  0
 36 34  1  0  0  0  0
 36 37  1  0  0  0  0
 38 37  1  6  0  0  0
 38 43  1  0  0  0  0
 39 41  1  0  0  0  0
 40 38  1  0  0  0  0
 41 40  2  0  0  0  0
 42 41  1  0  0  0  0
 44 49  1  6  0  0  0
 44 52  1  0  0  0  0
 45 43  1  1  0  0  0
 45 48  1  0  0  0  0
 46 50  1  0  0  0  0
 48 47  2  0  0  0  0
 51 50  1  0  0  0  0
 52 53  1  0  0  0  0
 52 54  1  1  0  0  0
 53 48  1  6  0  0  0
 53 51  1  0  0  0  0
 54 46  1  0  0  0  0
 55 45  1  0  0  0  0
 55 44  1  0  0  0  0
M  END
>  <MODEL>
3

>  <REMARK>
 VINA RESULT:      -6.8      2.191      3.317
  Name = 
  11 active torsions:
  status: ('A' for Active; 'I' for Inactive)
    1  A    between atoms: C_6  and  O_46
    2  A    between atoms: N_8  and  C_22
    3  A    between atoms: C_10  and  C_32
    4  A    between atoms: O_19  and  C_40
    5  A    between atoms: O_19  and  C_45
    6  A    between atoms: C_22  and  C_35
    7  A    between atoms: C_22  and  O_46
    8  A    between atoms: C_27  and  C_54
    9  A    between atoms: C_35  and  C_43
   10  A    between atoms: C_43  and  C_51
   11  A    between atoms: C_51  and  C_54
                            x       y       z     vdW  Elec       q    Type
                         _______ _______ _______ _____ _____    ______ ____

>  <TORSDO>
F 11

$$$$
=
 OpenBabel10262420293D

 55 59  0  0  1  0  0  0  0  0999 V2000
  184.3400  176.7630  136.8580 C   0  0  1  0  0  3  0  0  0  0  0  0
  182.4490  177.7870  140.4540 C   0  0  0  0  0  2  0  0  0  0  0  0
  178.9370  173.2800  135.5920 C   0  0  0  0  0  2  0  0  0  0  0  0
  183.1310  178.7730  139.5200 C   0  0  0  0  0  2  0  0  0  0  0  0
  179.7040  178.0990  138.5070 O   0  0  0  0  0  0  0  0  0  0  0  0
  180.1900  175.8830  139.2410 C   0  0  2  0  0  3  0  0  0  0  0  0
  179.5440  175.3420  140.3570 O   0  0  0  0  0  1  0  0  0  0  0  0
  186.1600  178.1430  137.7750 C   0  0  0  0  0  0  0  0  0  0  0  0
  180.2350  177.3930  139.3550 C   0  0  0  0  0  0  0  0  0  0  0  0
  184.6420  178.6600  139.6580 C   0  0  1  0  0  3  0  0  0  0  0  0
  183.5270  176.5660  135.5910 C   0  0  0  0  0  2  0  0  0  0  0  0
  185.3370  179.2140  138.4230 C   0  0  0  0  0  2  0  0  0  0  0  0
  181.3000  172.5580  136.2760 C   0  0  2  0  0  3  0  0  0  0  0  0
  181.4920  175.8810  136.5870 C   0  0  0  0  0  3  0  0  0  0  0  0
  179.5920  174.6570  135.6150 C   0  0  0  0  0  2  0  0  0  0  0  0
  179.4770  175.4170  137.9700 C   0  0  0  0  0  2  0  0  0  0  0  0
  181.0600  173.5620  137.4070 C   0  0  0  0  0  2  0  0  0  0  0  0
  185.6080  175.9470  136.7730 C   0  0  0  0  0  2  0  0  0  0  0  0
  185.6560  177.4480  136.5430 C   0  0  1  0  0  3  0  0  0  0  0  0
  180.9540  178.0650  140.4960 C   0  0  1  0  0  3  0  0  0  0  0  0
  179.9860  172.1670  135.5780 C   0  0  0  0  0  2  0  0  0  0  0  0
  182.4860  175.5970  135.8280 N   0  0  0  0  0  0  0  0  0  0  0  0
  180.4210  174.8720  136.8900 C   0  0  2  0  0  0  0  0  0  0  0  0
  187.2570  177.8630  138.2350 O   0  0  0  0  0  0  0  0  0  0  0  0
  182.1030  171.3550  136.7550 C   0  0  0  0  0  3  0  0  0  0  0  0
  183.5100  171.7630  137.1240 C   0  0  0  0  0  1  0  0  0  0  0  0
  182.1350  170.2370  135.7280 C   0  0  0  0  0  1  0  0  0  0  0  0
  180.4240  177.6550  141.7320 O   0  0  0  0  0  0  0  0  0  0  0  0
  180.4410  179.9230  142.1070 F   0  0  0  0  0  0  0  0  0  0  0  0
  181.9540  178.6060  143.1680 F   0  0  0  0  0  0  0  0  0  0  0  0
  179.7010  178.5030  143.8260 C   0  0  0  0  0  1  0  0  0  0  0  0
  180.6620  178.6770  142.6720 C   0  0  0  0  0  0  0  0  0  0  0  0
  185.1560  179.2970  140.9590 C   0  0  0  0  0  2  0  0  0  0  0  0
  185.7720  178.2950  141.9360 C   0  0  0  0  0  2  0  0  0  0  0  0
  184.7820  179.7130  143.6060 O   0  0  0  0  0  1  0  0  0  0  0  0
  185.8560  178.8580  143.3480 C   0  0  1  0  0  3  0  0  0  0  0  0
  185.9300  177.7390  144.3850 C   0  0  0  0  0  2  0  0  0  0  0  0
  187.1550  177.8200  145.2990 C   0  0  2  0  0  3  0  0  0  0  0  0
  185.9460  180.2220  147.8960 N   0  0  0  0  0  1  0  0  0  0  0  0
  187.0040  178.9120  146.2620 N   0  0  0  0  0  0  0  0  0  0  0  0
  185.9600  179.1150  147.0050 C   0  0  0  0  0  0  0  0  0  0  0  0
  184.8270  178.2460  146.9520 N   0  0  0  0  0  1  0  0  0  0  0  0
  188.3310  177.9790  144.5530 O   0  0  0  0  0  0  0  0  0  0  0  0
  191.3350  177.6910  143.9220 C   0  0  2  0  0  3  0  0  0  0  0  0
  189.0400  176.7800  144.6810 C   0  0  1  0  0  3  0  0  0  0  0  0
  190.8490  178.0730  140.3090 C   0  0  0  0  0  2  0  0  0  0  0  0
  188.2900  174.8790  143.3270 C   0  0  0  0  0  2  0  0  0  0  0  0
  189.0020  176.0040  143.3910 C   0  0  0  0  0  0  0  0  0  0  0  0
  191.7550  179.0990  144.3040 C   0  0  0  0  0  1  0  0  0  0  0  0
  190.1150  176.7540  140.0270 C   0  0  0  0  0  2  0  0  0  0  0  0
  189.1870  176.5020  141.0560 O   0  0  0  0  0  0  0  0  0  0  0  0
  190.6340  177.7150  142.5530 C   0  0  2  0  0  3  0  0  0  0  0  0
  189.9130  176.3790  142.2600 C   0  0  1  0  0  3  0  0  0  0  0  0
  191.5650  177.9830  141.5230 O   0  0  0  0  0  0  0  0  0  0  0  0
  190.4920  177.0820  145.0580 C   0  0  0  0  0  2  0  0  0  0  0  0
  1 11  1  6  0  0  0
  2 20  1  0  0  0  0
  3 15  1  0  0  0  0
  4 10  1  0  0  0  0
  4  2  1  0  0  0  0
  5  9  2  0  0  0  0
  6  9  1  0  0  0  0
  6  7  1  1  0  0  0
  8 24  2  0  0  0  0
  8 12  1  0  0  0  0
  9 20  1  0  0  0  0
 10 33  1  1  0  0  0
 11 22  1  0  0  0  0
 12 10  1  0  0  0  0
 13 25  1  1  0  0  0
 13 17  1  0  0  0  0
 14 23  1  0  0  0  0
 16  6  1  0  0  0  0
 18  1  1  0  0  0  0
 19 18  1  1  0  0  0
 19  1  1  0  0  0  0
 19  8  1  0  0  0  0
 20 28  1  1  0  0  0
 21  3  1  0  0  0  0
 21 13  1  0  0  0  0
 22 14  2  0  0  0  0
 23 15  1  6  0  0  0
 23 17  1  0  0  0  0
 23 16  1  0  0  0  0
 25 26  1  0  0  0  0
 27 25  1  0  0  0  0
 28 32  1  0  0  0  0
 29 32  1  0  0  0  0
 32 30  1  0  0  0  0
 32 31  1  0  0  0  0
 33 34  1  0  0  0  0
 34 36  1  0  0  0  0
 36 35  1  1  0  0  0
 36 37  1  0  0  0  0
 38 37  1  6  0  0  0
 38 40  1  0  0  0  0
 40 41  2  0  0  0  0
 41 39  1  0  0  0  0
 42 41  1  0  0  0  0
 43 38  1  0  0  0  0
 44 49  1  1  0  0  0
 44 55  1  0  0  0  0
 45 43  1  6  0  0  0
 45 55  1  0  0  0  0
 46 54  1  0  0  0  0
 47 48  2  0  0  0  0
 48 45  1  0  0  0  0
 50 46  1  0  0  0  0
 50 51  1  0  0  0  0
 52 54  1  6  0  0  0
 52 44  1  0  0  0  0
 53 51  1  6  0  0  0
 53 52  1  0  0  0  0
 53 48  1  0  0  0  0
M  END
>  <MODEL>
4

>  <REMARK>
 VINA RESULT:      -6.6      1.218      2.060
  Name = 
  11 active torsions:
  status: ('A' for Active; 'I' for Inactive)
    1  A    between atoms: C_6  and  O_46
    2  A    between atoms: N_8  and  C_22
    3  A    between atoms: C_10  and  C_32
    4  A    between atoms: O_19  and  C_40
    5  A    between atoms: O_19  and  C_45
    6  A    between atoms: C_22  and  C_35
    7  A    between atoms: C_22  and  O_46
    8  A    between atoms: C_27  and  C_54
    9  A    between atoms: C_35  and  C_43
   10  A    between atoms: C_43  and  C_51
   11  A    between atoms: C_51  and  C_54
                            x       y       z     vdW  Elec       q    Type
                         _______ _______ _______ _____ _____    ______ ____

>  <TORSDO>
F 11

$$$$
=
 OpenBabel10262420293D

 55 59  0  0  1  0  0  0  0  0999 V2000
  191.6580  177.2860  140.9720 C   0  0  1  0  0  3  0  0  0  0  0  0
  187.9910  176.9710  138.9710 C   0  0  0  0  0  2  0  0  0  0  0  0
  194.3600  175.6510  135.2310 C   0  0  0  0  0  2  0  0  0  0  0  0
  188.3950  178.1310  139.8650 C   0  0  0  0  0  2  0  0  0  0  0  0
  189.6270  178.5470  136.4690 O   0  0  0  0  0  0  0  0  0  0  0  0
  189.9310  176.1830  136.5590 C   0  0  2  0  0  3  0  0  0  0  0  0
  189.1680  175.3320  135.7530 O   0  0  0  0  0  1  0  0  0  0  0  0
  190.2170  177.8100  142.8970 C   0  0  0  0  0  0  0  0  0  0  0  0
  189.1690  177.4660  136.8190 C   0  0  0  0  0  0  0  0  0  0  0  0
  188.3080  177.7170  141.3260 C   0  0  1  0  0  3  0  0  0  0  0  0
  192.8900  177.7930  140.2440 C   0  0  0  0  0  2  0  0  0  0  0  0
  189.1730  178.6210  142.1930 C   0  0  0  0  0  2  0  0  0  0  0  0
  194.0420  174.3190  137.3990 C   0  0  2  0  0  3  0  0  0  0  0  0
  192.3090  177.1010  138.0560 C   0  0  0  0  0  3  0  0  0  0  0  0
  193.7330  176.7530  136.0790 C   0  0  0  0  0  2  0  0  0  0  0  0
  191.2830  176.4360  135.8890 C   0  0  0  0  0  2  0  0  0  0  0  0
  192.5880  174.7650  137.2200 C   0  0  0  0  0  2  0  0  0  0  0  0
  192.0820  176.3860  142.1080 C   0  0  0  0  0  2  0  0  0  0  0  0
  191.6320  177.8080  142.3970 C   0  0  1  0  0  3  0  0  0  0  0  0
  187.8430  177.4510  137.5350 C   0  0  1  0  0  3  0  0  0  0  0  0
  194.8500  174.4930  136.1010 C   0  0  0  0  0  2  0  0  0  0  0  0
  193.1080  177.0070  139.0550 N   0  0  0  0  0  0  0  0  0  0  0  0
  192.4860  176.2570  136.8260 C   0  0  2  0  0  0  0  0  0  0  0  0
  189.9170  177.1790  143.9000 O   0  0  0  0  0  0  0  0  0  0  0  0
  194.1300  172.9110  137.9730 C   0  0  0  0  0  3  0  0  0  0  0  0
  195.4300  172.7160  138.7180 C   0  0  0  0  0  1  0  0  0  0  0  0
  193.9740  171.8420  136.9060 C   0  0  0  0  0  1  0  0  0  0  0  0
  186.9150  176.6460  136.8530 O   0  0  0  0  0  0  0  0  0  0  0  0
  185.8550  178.6770  137.0480 F   0  0  0  0  0  0  0  0  0  0  0  0
  184.8210  176.8030  137.8010 F   0  0  0  0  0  0  0  0  0  0  0  0
  185.0370  177.1250  135.4850 C   0  0  0  0  0  1  0  0  0  0  0  0
  185.6770  177.3180  136.8400 C   0  0  0  0  0  0  0  0  0  0  0  0
  186.8570  177.6370  141.8230 C   0  0  0  0  0  2  0  0  0  0  0  0
  186.1970  179.0020  142.0220 C   0  0  0  0  0  2  0  0  0  0  0  0
  185.2160  179.3780  139.8590 O   0  0  0  0  0  1  0  0  0  0  0  0
  184.9200  179.1400  141.2030 C   0  0  1  0  0  3  0  0  0  0  0  0
  184.0280  177.9090  141.3610 C   0  0  0  0  0  2  0  0  0  0  0  0
  182.5760  178.1370  140.9310 C   0  0  2  0  0  3  0  0  0  0  0  0
  180.1240  179.5390  143.3790 N   0  0  0  0  0  1  0  0  0  0  0  0
  181.7360  178.4150  142.0960 N   0  0  0  0  0  0  0  0  0  0  0  0
  180.8720  179.3800  142.1820 C   0  0  0  0  0  0  0  0  0  0  0  0
  180.6540  180.2830  141.0960 N   0  0  0  0  0  1  0  0  0  0  0  0
  182.0830  177.0350  140.2180 O   0  0  0  0  0  0  0  0  0  0  0  0
  179.6230  175.4320  139.2780 C   0  0  2  0  0  3  0  0  0  0  0  0
  181.1170  177.5390  139.3410 C   0  0  1  0  0  3  0  0  0  0  0  0
  181.6130  173.1470  137.2140 C   0  0  0  0  0  2  0  0  0  0  0  0
  181.8670  178.2250  137.1100 C   0  0  0  0  0  2  0  0  0  0  0  0
  181.4860  177.2320  137.9140 C   0  0  0  0  0  0  0  0  0  0  0  0
  179.4390  174.5960  140.5330 C   0  0  0  0  0  1  0  0  0  0  0  0
  182.0540  174.1350  136.1250 C   0  0  0  0  0  2  0  0  0  0  0  0
  182.3930  175.3680  136.7160 O   0  0  0  0  0  0  0  0  0  0  0  0
  180.8030  174.8810  138.4600 C   0  0  2  0  0  3  0  0  0  0  0  0
  181.2340  175.8650  137.3490 C   0  0  1  0  0  3  0  0  0  0  0  0
  180.4670  173.6360  137.8800 O   0  0  0  0  0  0  0  0  0  0  0  0
  179.7570  176.9160  139.6670 C   0  0  0  0  0  2  0  0  0  0  0  0
  1 11  1  6  0  0  0
  1 18  1  0  0  0  0
  1 19  1  0  0  0  0
  2  4  1  0  0  0  0
  3 15  1  0  0  0  0
  3 21  1  0  0  0  0
  4 10  1  0  0  0  0
  5  9  2  0  0  0  0
  6  7  1  6  0  0  0
  6  9  1  0  0  0  0
  8 24  2  0  0  0  0
  9 20  1  0  0  0  0
 10 33  1  1  0  0  0
 10 12  1  0  0  0  0
 12  8  1  0  0  0  0
 13 25  1  6  0  0  0
 14 22  2  0  0  0  0
 15 23  1  0  0  0  0
 16  6  1  0  0  0  0
 17 13  1  0  0  0  0
 19 18  1  1  0  0  0
 19  8  1  0  0  0  0
 20 28  1  6  0  0  0
 20  2  1  0  0  0  0
 21 13  1  0  0  0  0
 22 11  1  0  0  0  0
 23 16  1  6  0  0  0
 23 17  1  0  0  0  0
 23 14  1  0  0  0  0
 25 26  1  0  0  0  0
 27 25  1  0  0  0  0
 31 32  1  0  0  0  0
 32 28  1  0  0  0  0
 32 29  1  0  0  0  0
 32 30  1  0  0  0  0
 33 34  1  0  0  0  0
 36 35  1  6  0  0  0
 36 37  1  0  0  0  0
 36 34  1  0  0  0  0
 38 37  1  1  0  0  0
 38 40  1  0  0  0  0
 40 41  2  0  0  0  0
 41 39  1  0  0  0  0
 42 41  1  0  0  0  0
 43 38  1  0  0  0  0
 44 55  1  0  0  0  0
 44 49  1  1  0  0  0
 45 55  1  0  0  0  0
 45 43  1  1  0  0  0
 46 54  1  0  0  0  0
 47 48  2  0  0  0  0
 48 45  1  0  0  0  0
 50 51  1  0  0  0  0
 50 46  1  0  0  0  0
 52 54  1  6  0  0  0
 52 44  1  0  0  0  0
 53 51  1  1  0  0  0
 53 48  1  0  0  0  0
 53 52  1  0  0  0  0
M  END
>  <MODEL>
5

>  <REMARK>
 VINA RESULT:      -6.3      4.223      9.793
  Name = 
  11 active torsions:
  status: ('A' for Active; 'I' for Inactive)
    1  A    between atoms: C_6  and  O_46
    2  A    between atoms: N_8  and  C_22
    3  A    between atoms: C_10  and  C_32
    4  A    between atoms: O_19  and  C_40
    5  A    between atoms: O_19  and  C_45
    6  A    between atoms: C_22  and  C_35
    7  A    between atoms: C_22  and  O_46
    8  A    between atoms: C_27  and  C_54
    9  A    between atoms: C_35  and  C_43
   10  A    between atoms: C_43  and  C_51
   11  A    between atoms: C_51  and  C_54
                            x       y       z     vdW  Elec       q    Type
                         _______ _______ _______ _____ _____    ______ ____

>  <TORSDO>
F 11

$$$$
=
 OpenBabel10262420293D

 55 59  0  0  1  0  0  0  0  0999 V2000
  191.7150  177.2830  140.9880 C   0  0  1  0  0  3  0  0  0  0  0  0
  188.0460  177.0030  138.9830 C   0  0  0  0  0  2  0  0  0  0  0  0
  194.4060  175.6470  135.2420 C   0  0  0  0  0  2  0  0  0  0  0  0
  188.4590  178.1570  139.8820 C   0  0  0  0  0  2  0  0  0  0  0  0
  189.6960  178.5750  136.4870 O   0  0  0  0  0  0  0  0  0  0  0  0
  189.9810  176.2090  136.5700 C   0  0  2  0  0  3  0  0  0  0  0  0
  189.2120  175.3670  135.7600 O   0  0  0  0  0  1  0  0  0  0  0  0
  190.2780  177.8120  142.9140 C   0  0  0  0  0  0  0  0  0  0  0  0
  189.2290  177.4970  136.8340 C   0  0  0  0  0  0  0  0  0  0  0  0
  188.3690  177.7380  141.3420 C   0  0  1  0  0  3  0  0  0  0  0  0
  192.9510  177.7820  140.2610 C   0  0  0  0  0  2  0  0  0  0  0  0
  189.2400  178.6330  142.2120 C   0  0  0  0  0  2  0  0  0  0  0  0
  194.0770  174.3090  137.4050 C   0  0  2  0  0  3  0  0  0  0  0  0
  192.3660  177.1030  138.0700 C   0  0  0  0  0  3  0  0  0  0  0  0
  193.7880  176.7510  136.0940 C   0  0  0  0  0  2  0  0  0  0  0  0
  191.3350  176.4530  135.9020 C   0  0  0  0  0  2  0  0  0  0  0  0
  192.6270  174.7670  137.2270 C   0  0  0  0  0  2  0  0  0  0  0  0
  192.1310  176.3750  142.1200 C   0  0  0  0  0  2  0  0  0  0  0  0
  191.6920  177.8000  142.4140 C   0  0  1  0  0  3  0  0  0  0  0  0
  187.9030  177.4890  137.5490 C   0  0  1  0  0  3  0  0  0  0  0  0
  194.8870  174.4820  136.1080 C   0  0  0  0  0  2  0  0  0  0  0  0
  193.1630  176.9990  139.0700 N   0  0  0  0  0  0  0  0  0  0  0  0
  192.5360  176.2610  136.8380 C   0  0  2  0  0  0  0  0  0  0  0  0
  189.9720  177.1800  143.9140 O   0  0  0  0  0  0  0  0  0  0  0  0
  194.1540  172.8990  137.9740 C   0  0  0  0  0  3  0  0  0  0  0  0
  195.4740  172.6750  138.6740 C   0  0  0  0  0  1  0  0  0  0  0  0
  193.9380  171.8350  136.9120 C   0  0  0  0  0  1  0  0  0  0  0  0
  186.9680  176.6940  136.8640 O   0  0  0  0  0  0  0  0  0  0  0  0
  185.8610  178.7080  136.9200 F   0  0  0  0  0  0  0  0  0  0  0  0
  184.8650  176.9150  135.9500 F   0  0  0  0  0  0  0  0  0  0  0  0
  186.6820  177.9310  134.8610 C   0  0  0  0  0  1  0  0  0  0  0  0
  186.0740  177.5490  136.1910 C   0  0  0  0  0  0  0  0  0  0  0  0
  186.9160  177.6680  141.8370 C   0  0  0  0  0  2  0  0  0  0  0  0
  186.0770  178.8920  141.4660 C   0  0  0  0  0  2  0  0  0  0  0  0
  183.8030  178.7210  142.2260 O   0  0  0  0  0  1  0  0  0  0  0  0
  184.6410  178.5130  141.1280 C   0  0  1  0  0  3  0  0  0  0  0  0
  184.1430  179.2780  139.9030 C   0  0  0  0  0  2  0  0  0  0  0  0
  182.9370  178.6310  139.2170 C   0  0  2  0  0  3  0  0  0  0  0  0
  183.2860  175.0620  138.1620 N   0  0  0  0  0  1  0  0  0  0  0  0
  183.3240  177.3700  138.5830 N   0  0  0  0  0  0  0  0  0  0  0  0
  182.8110  176.2090  138.8520 C   0  0  0  0  0  0  0  0  0  0  0  0
  181.7720  176.0600  139.8220 N   0  0  0  0  0  1  0  0  0  0  0  0
  182.3650  179.5000  138.2780 O   0  0  0  0  0  0  0  0  0  0  0  0
  180.2790  179.8390  136.0320 C   0  0  2  0  0  3  0  0  0  0  0  0
  180.9830  179.4460  138.4870 C   0  0  1  0  0  3  0  0  0  0  0  0
  180.9880  183.4090  135.5970 C   0  0  0  0  0  2  0  0  0  0  0  0
  180.0090  181.0950  140.0180 C   0  0  0  0  0  2  0  0  0  0  0  0
  180.4390  180.8180  138.7870 C   0  0  0  0  0  0  0  0  0  0  0  0
  181.1040  179.2450  134.9040 C   0  0  0  0  0  1  0  0  0  0  0  0
  180.4270  183.9270  136.9290 C   0  0  0  0  0  2  0  0  0  0  0  0
  180.7810  183.0410  137.9660 O   0  0  0  0  0  0  0  0  0  0  0  0
  180.7770  181.2610  136.3410 C   0  0  2  0  0  3  0  0  0  0  0  0
  180.1950  181.7910  137.6720 C   0  0  1  0  0  3  0  0  0  0  0  0
  180.4340  182.1460  135.2930 O   0  0  0  0  0  0  0  0  0  0  0  0
  180.2990  178.8820  137.2390 C   0  0  0  0  0  2  0  0  0  0  0  0
  1 11  1  6  0  0  0
  1 18  1  0  0  0  0
  1 19  1  0  0  0  0
  2  4  1  0  0  0  0
  3 15  1  0  0  0  0
  3 21  1  0  0  0  0
  4 10  1  0  0  0  0
  5  9  2  0  0  0  0
  6  7  1  6  0  0  0
  6  9  1  0  0  0  0
  8 24  2  0  0  0  0
  9 20  1  0  0  0  0
 10 33  1  1  0  0  0
 10 12  1  0  0  0  0
 12  8  1  0  0  0  0
 13 25  1  6  0  0  0
 14 22  2  0  0  0  0
 15 23  1  0  0  0  0
 16  6  1  0  0  0  0
 17 13  1  0  0  0  0
 19 18  1  1  0  0  0
 19  8  1  0  0  0  0
 20 28  1  6  0  0  0
 20  2  1  0  0  0  0
 21 13  1  0  0  0  0
 22 11  1  0  0  0  0
 23 16  1  6  0  0  0
 23 17  1  0  0  0  0
 23 14  1  0  0  0  0
 25 26  1  0  0  0  0
 27 25  1  0  0  0  0
 30 32  1  0  0  0  0
 31 32  1  0  0  0  0
 32 28  1  0  0  0  0
 32 29  1  0  0  0  0
 34 33  1  0  0  0  0
 36 34  1  0  0  0  0
 36 35  1  1  0  0  0
 37 36  1  0  0  0  0
 38 37  1  6  0  0  0
 39 41  1  0  0  0  0
 40 41  2  0  0  0  0
 40 38  1  0  0  0  0
 41 42  1  0  0  0  0
 43 38  1  0  0  0  0
 44 49  1  6  0  0  0
 44 52  1  0  0  0  0
 44 55  1  0  0  0  0
 45 43  1  6  0  0  0
 45 48  1  0  0  0  0
 46 50  1  0  0  0  0
 48 47  2  0  0  0  0
 50 51  1  0  0  0  0
 52 54  1  6  0  0  0
 52 53  1  0  0  0  0
 53 51  1  1  0  0  0
 53 48  1  0  0  0  0
 54 46  1  0  0  0  0
 55 45  1  0  0  0  0
M  END
>  <MODEL>
6

>  <REMARK>
 VINA RESULT:      -6.2      4.506     10.506
  Name = 
  11 active torsions:
  status: ('A' for Active; 'I' for Inactive)
    1  A    between atoms: C_6  and  O_46
    2  A    between atoms: N_8  and  C_22
    3  A    between atoms: C_10  and  C_32
    4  A    between atoms: O_19  and  C_40
    5  A    between atoms: O_19  and  C_45
    6  A    between atoms: C_22  and  C_35
    7  A    between atoms: C_22  and  O_46
    8  A    between atoms: C_27  and  C_54
    9  A    between atoms: C_35  and  C_43
   10  A    between atoms: C_43  and  C_51
   11  A    between atoms: C_51  and  C_54
                            x       y       z     vdW  Elec       q    Type
                         _______ _______ _______ _____ _____    ______ ____

>  <TORSDO>
F 11

$$$$
=
 OpenBabel10262420293D

 55 59  0  0  1  0  0  0  0  0999 V2000
  184.8990  176.7510  136.5930 C   0  0  1  0  0  3  0  0  0  0  0  0
  182.9460  177.3720  140.2480 C   0  0  0  0  0  2  0  0  0  0  0  0
  179.4810  173.5190  134.8230 C   0  0  0  0  0  2  0  0  0  0  0  0
  183.6590  178.4510  139.4500 C   0  0  0  0  0  2  0  0  0  0  0  0
  180.2460  177.9510  138.2990 O   0  0  0  0  0  0  0  0  0  0  0  0
  180.6900  175.6570  138.7760 C   0  0  2  0  0  3  0  0  0  0  0  0
  180.0150  174.9970  139.8080 O   0  0  0  0  0  1  0  0  0  0  0  0
  186.7160  177.9870  137.7000 C   0  0  0  0  0  0  0  0  0  0  0  0
  180.7510  177.1420  139.0680 C   0  0  0  0  0  0  0  0  0  0  0  0
  185.1660  178.3010  139.6030 C   0  0  1  0  0  3  0  0  0  0  0  0
  184.1100  176.7160  135.2970 C   0  0  0  0  0  2  0  0  0  0  0  0
  185.8930  178.9860  138.4540 C   0  0  0  0  0  2  0  0  0  0  0  0
  181.8210  172.6880  135.4620 C   0  0  2  0  0  3  0  0  0  0  0  0
  182.0460  175.9480  136.1660 C   0  0  0  0  0  3  0  0  0  0  0  0
  180.1520  174.8740  135.0200 C   0  0  0  0  0  2  0  0  0  0  0  0
  179.9980  175.3540  137.4460 C   0  0  0  0  0  2  0  0  0  0  0  0
  181.5700  173.5560  136.6980 C   0  0  0  0  0  2  0  0  0  0  0  0
  186.1580  175.9330  136.4370 C   0  0  0  0  0  2  0  0  0  0  0  0
  186.2290  177.4500  136.3870 C   0  0  1  0  0  3  0  0  0  0  0  0
  181.4540  177.6650  140.2940 C   0  0  1  0  0  3  0  0  0  0  0  0
  180.5170  172.4000  134.6980 C   0  0  0  0  0  2  0  0  0  0  0  0
  183.0530  175.7410  135.3980 N   0  0  0  0  0  0  0  0  0  0  0  0
  180.9570  174.9260  136.3270 C   0  0  2  0  0  0  0  0  0  0  0  0
  187.8000  177.6400  138.1460 O   0  0  0  0  0  0  0  0  0  0  0  0
  182.6000  171.4260  135.8110 C   0  0  0  0  0  3  0  0  0  0  0  0
  183.3860  171.6170  137.0870 C   0  0  0  0  0  1  0  0  0  0  0  0
  183.5230  170.9880  134.6880 C   0  0  0  0  0  1  0  0  0  0  0  0
  180.8940  177.1200  141.4620 O   0  0  0  0  0  0  0  0  0  0  0  0
  181.0880  179.3060  142.1490 F   0  0  0  0  0  0  0  0  0  0  0  0
  180.0840  177.7940  143.5110 F   0  0  0  0  0  0  0  0  0  0  0  0
  178.9620  178.4910  141.5690 C   0  0  0  0  0  1  0  0  0  0  0  0
  180.2990  178.1670  142.1930 C   0  0  0  0  0  0  0  0  0  0  0  0
  185.6600  178.7740  140.9780 C   0  0  0  0  0  2  0  0  0  0  0  0
  184.6790  178.4920  142.1170 C   0  0  0  0  0  2  0  0  0  0  0  0
  184.4800  178.3690  144.5100 O   0  0  0  0  0  1  0  0  0  0  0  0
  185.3920  178.3310  143.4540 C   0  0  1  0  0  3  0  0  0  0  0  0
  186.2200  177.0470  143.4860 C   0  0  0  0  0  2  0  0  0  0  0  0
  187.7240  177.2750  143.3130 C   0  0  2  0  0  3  0  0  0  0  0  0
  189.3490  176.4790  140.0420 N   0  0  0  0  0  1  0  0  0  0  0  0
  188.1980  176.6450  142.0810 N   0  0  0  0  0  0  0  0  0  0  0  0
  188.9670  177.2080  141.2000 C   0  0  0  0  0  0  0  0  0  0  0  0
  189.4450  178.5440  141.3740 N   0  0  0  0  0  1  0  0  0  0  0  0
  188.4370  176.7940  144.4200 O   0  0  0  0  0  0  0  0  0  0  0  0
  191.1370  178.1500  145.0300 C   0  0  2  0  0  3  0  0  0  0  0  0
  188.5820  177.8780  145.2920 C   0  0  1  0  0  3  0  0  0  0  0  0
  192.4100  175.2850  146.9310 C   0  0  0  0  0  2  0  0  0  0  0  0
  187.9070  177.5450  147.6250 C   0  0  0  0  0  2  0  0  0  0  0  0
  188.8490  177.3970  146.6940 C   0  0  0  0  0  0  0  0  0  0  0  0
  191.7900  177.9100  143.6810 C   0  0  0  0  0  1  0  0  0  0  0  0
  191.4790  175.3760  148.1490 C   0  0  0  0  0  2  0  0  0  0  0  0
  190.1730  175.6870  147.7220 O   0  0  0  0  0  0  0  0  0  0  0  0
  191.1450  176.8470  145.8470 C   0  0  2  0  0  3  0  0  0  0  0  0
  190.2250  176.9450  147.0850 C   0  0  1  0  0  3  0  0  0  0  0  0
  192.4590  176.5280  146.2610 O   0  0  0  0  0  0  0  0  0  0  0  0
  189.7390  178.7610  144.8210 C   0  0  0  0  0  2  0  0  0  0  0  0
  1 11  1  6  0  0  0
  2 20  1  0  0  0  0
  3 15  1  0  0  0  0
  4 10  1  0  0  0  0
  4  2  1  0  0  0  0
  5  9  2  0  0  0  0
  6  9  1  0  0  0  0
  6  7  1  1  0  0  0
  8 24  2  0  0  0  0
  8 12  1  0  0  0  0
  9 20  1  0  0  0  0
 10 33  1  1  0  0  0
 11 22  1  0  0  0  0
 12 10  1  0  0  0  0
 13 25  1  1  0  0  0
 13 17  1  0  0  0  0
 14 23  1  0  0  0  0
 16  6  1  0  0  0  0
 18  1  1  0  0  0  0
 19 18  1  1  0  0  0
 19  1  1  0  0  0  0
 19  8  1  0  0  0  0
 20 28  1  1  0  0  0
 21  3  1  0  0  0  0
 21 13  1  0  0  0  0
 22 14  2  0  0  0  0
 23 15  1  6  0  0  0
 23 17  1  0  0  0  0
 23 16  1  0  0  0  0
 25 26  1  0  0  0  0
 27 25  1  0  0  0  0
 28 32  1  0  0  0  0
 29 32  1  0  0  0  0
 31 32  1  0  0  0  0
 32 30  1  0  0  0  0
 33 34  1  0  0  0  0
 34 36  1  0  0  0  0
 36 37  1  0  0  0  0
 36 35  1  1  0  0  0
 38 37  1  1  0  0  0
 38 43  1  0  0  0  0
 39 41  1  0  0  0  0
 40 38  1  0  0  0  0
 41 42  1  0  0  0  0
 41 40  2  0  0  0  0
 44 49  1  6  0  0  0
 44 52  1  0  0  0  0
 45 43  1  6  0  0  0
 45 48  1  0  0  0  0
 46 50  1  0  0  0  0
 48 47  2  0  0  0  0
 51 50  1  0  0  0  0
 52 54  1  1  0  0  0
 52 53  1  0  0  0  0
 53 48  1  6  0  0  0
 53 51  1  0  0  0  0
 54 46  1  0  0  0  0
 55 44  1  0  0  0  0
 55 45  1  0  0  0  0
M  END
>  <MODEL>
7

>  <REMARK>
 VINA RESULT:      -6.2      1.699      2.206
  Name = 
  11 active torsions:
  status: ('A' for Active; 'I' for Inactive)
    1  A    between atoms: C_6  and  O_46
    2  A    between atoms: N_8  and  C_22
    3  A    between atoms: C_10  and  C_32
    4  A    between atoms: O_19  and  C_40
    5  A    between atoms: O_19  and  C_45
    6  A    between atoms: C_22  and  C_35
    7  A    between atoms: C_22  and  O_46
    8  A    between atoms: C_27  and  C_54
    9  A    between atoms: C_35  and  C_43
   10  A    between atoms: C_43  and  C_51
   11  A    between atoms: C_51  and  C_54
                            x       y       z     vdW  Elec       q    Type
                         _______ _______ _______ _____ _____    ______ ____

>  <TORSDO>
F 11

$$$$
=
 OpenBabel10262420293D

 55 59  0  0  1  0  0  0  0  0999 V2000
  186.4410  177.6510  137.2220 C   0  0  1  0  0  3  0  0  0  0  0  0
  188.4070  177.4180  140.9150 C   0  0  0  0  0  2  0  0  0  0  0  0
  181.0630  178.9420  140.7360 C   0  0  0  0  0  2  0  0  0  0  0  0
  188.9110  178.1950  139.7100 C   0  0  0  0  0  2  0  0  0  0  0  0
  186.5410  180.1310  141.6770 O   0  0  0  0  0  0  0  0  0  0  0  0
  185.4560  178.0280  141.9720 C   0  0  2  0  0  3  0  0  0  0  0  0
  185.3980  177.4240  143.2330 O   0  0  0  0  0  1  0  0  0  0  0  0
  188.6700  177.0910  136.3430 C   0  0  0  0  0  0  0  0  0  0  0  0
  186.6690  178.9320  141.8900 C   0  0  0  0  0  0  0  0  0  0  0  0
  189.4820  177.2380  138.6750 C   0  0  1  0  0  3  0  0  0  0  0  0
  185.3010  178.6340  137.0190 C   0  0  0  0  0  2  0  0  0  0  0  0
  189.5050  177.8870  137.2990 C   0  0  0  0  0  2  0  0  0  0  0  0
  181.7980  176.8380  139.4670 C   0  0  2  0  0  3  0  0  0  0  0  0
  184.5350  178.7450  139.2560 C   0  0  0  0  0  3  0  0  0  0  0  0
  182.3620  179.4800  140.1470 C   0  0  0  0  0  2  0  0  0  0  0  0
  184.1510  178.7830  141.7140 C   0  0  0  0  0  2  0  0  0  0  0  0
  183.0650  177.0210  140.3060 C   0  0  0  0  0  2  0  0  0  0  0  0
  186.2710  176.4840  136.2800 C   0  0  0  0  0  2  0  0  0  0  0  0
  187.2950  177.5630  135.9720 C   0  0  1  0  0  3  0  0  0  0  0  0
  188.0620  178.3780  142.0430 C   0  0  1  0  0  3  0  0  0  0  0  0
  180.6240  177.6580  140.0290 C   0  0  0  0  0  2  0  0  0  0  0  0
  184.2990  178.4310  138.0350 N   0  0  0  0  0  0  0  0  0  0  0  0
  183.5260  178.4970  140.3410 C   0  0  2  0  0  0  0  0  0  0  0  0
  189.1290  176.0740  135.8430 O   0  0  0  0  0  0  0  0  0  0  0  0
  181.4600  175.3650  139.2750 C   0  0  0  0  0  3  0  0  0  0  0  0
  181.1000  175.0810  137.8350 C   0  0  0  0  0  1  0  0  0  0  0  0
  180.3420  174.9050  140.1940 C   0  0  0  0  0  1  0  0  0  0  0  0
  188.2110  177.7340  143.2840 O   0  0  0  0  0  0  0  0  0  0  0  0
  190.1730  178.8850  142.9430 F   0  0  0  0  0  0  0  0  0  0  0  0
  190.2500  176.7550  143.7210 F   0  0  0  0  0  0  0  0  0  0  0  0
  189.4860  178.4570  145.1480 C   0  0  0  0  0  1  0  0  0  0  0  0
  189.5320  177.9400  143.7290 C   0  0  0  0  0  0  0  0  0  0  0  0
  190.8550  176.6860  139.0890 C   0  0  0  0  0  2  0  0  0  0  0  0
  191.9160  176.7830  137.9910 C   0  0  0  0  0  2  0  0  0  0  0  0
  192.3440  175.4230  136.0540 O   0  0  0  0  0  1  0  0  0  0  0  0
  192.2990  175.4110  137.4500 C   0  0  1  0  0  3  0  0  0  0  0  0
  193.6250  174.9370  138.0400 C   0  0  0  0  0  2  0  0  0  0  0  0
  194.8150  175.0840  137.0880 C   0  0  2  0  0  3  0  0  0  0  0  0
  195.1070  177.8550  134.5960 N   0  0  0  0  0  1  0  0  0  0  0  0
  194.5690  176.1570  136.1240 N   0  0  0  0  0  0  0  0  0  0  0  0
  195.4880  176.8330  135.5060 C   0  0  0  0  0  0  0  0  0  0  0  0
  196.8770  176.5660  135.7150 N   0  0  0  0  0  1  0  0  0  0  0  0
  195.0840  173.8780  136.4270 O   0  0  0  0  0  0  0  0  0  0  0  0
  197.7400  172.9530  137.6890 C   0  0  2  0  0  3  0  0  0  0  0  0
  195.1710  172.8980  137.4210 C   0  0  1  0  0  3  0  0  0  0  0  0
  198.8630  171.2510  134.6430 C   0  0  0  0  0  2  0  0  0  0  0  0
  194.3320  170.6610  136.8750 C   0  0  0  0  0  2  0  0  0  0  0  0
  195.3370  171.5340  136.8060 C   0  0  0  0  0  0  0  0  0  0  0  0
  198.4860  174.2710  137.5710 C   0  0  0  0  0  1  0  0  0  0  0  0
  197.8490  170.0980  134.6280 C   0  0  0  0  0  2  0  0  0  0  0  0
  196.5780  170.5840  134.9920 O   0  0  0  0  0  0  0  0  0  0  0  0
  197.6850  172.2670  136.3140 C   0  0  2  0  0  3  0  0  0  0  0  0
  196.6800  171.0920  136.3040 C   0  0  1  0  0  3  0  0  0  0  0  0
  198.9640  171.7930  135.9430 O   0  0  0  0  0  0  0  0  0  0  0  0
  196.3630  173.2010  138.3330 C   0  0  0  0  0  2  0  0  0  0  0  0
  1 18  1  6  0  0  0
  2 20  1  0  0  0  0
  4  2  1  0  0  0  0
  5  9  2  0  0  0  0
  6  7  1  1  0  0  0
  8 12  1  0  0  0  0
  9  6  1  0  0  0  0
  9 20  1  0  0  0  0
 10 33  1  1  0  0  0
 10  4  1  0  0  0  0
 11  1  1  0  0  0  0
 11 22  1  0  0  0  0
 12 10  1  0  0  0  0
 13 25  1  1  0  0  0
 13 21  1  0  0  0  0
 13 17  1  0  0  0  0
 15 23  1  0  0  0  0
 15  3  1  0  0  0  0
 16  6  1  0  0  0  0
 17 23  1  0  0  0  0
 19 18  1  6  0  0  0
 19  8  1  0  0  0  0
 19  1  1  0  0  0  0
 20 28  1  1  0  0  0
 21  3  1  0  0  0  0
 22 14  2  0  0  0  0
 23 14  1  6  0  0  0
 23 16  1  0  0  0  0
 24  8  2  0  0  0  0
 25 27  1  0  0  0  0
 26 25  1  0  0  0  0
 28 32  1  0  0  0  0
 29 32  1  0  0  0  0
 30 32  1  0  0  0  0
 32 31  1  0  0  0  0
 34 33  1  0  0  0  0
 36 35  1  6  0  0  0
 36 34  1  0  0  0  0
 36 37  1  0  0  0  0
 38 37  1  1  0  0  0
 39 41  1  0  0  0  0
 40 38  1  0  0  0  0
 41 42  1  0  0  0  0
 41 40  2  0  0  0  0
 43 38  1  0  0  0  0
 44 49  1  6  0  0  0
 44 55  1  0  0  0  0
 45 43  1  6  0  0  0
 45 55  1  0  0  0  0
 46 54  1  0  0  0  0
 48 47  2  0  0  0  0
 48 45  1  0  0  0  0
 50 46  1  0  0  0  0
 50 51  1  0  0  0  0
 52 54  1  1  0  0  0
 52 44  1  0  0  0  0
 53 51  1  6  0  0  0
 53 52  1  0  0  0  0
 53 48  1  0  0  0  0
M  END
>  <MODEL>
8

>  <REMARK>
 VINA RESULT:      -5.7      6.524      9.212
  Name = 
  11 active torsions:
  status: ('A' for Active; 'I' for Inactive)
    1  A    between atoms: C_6  and  O_46
    2  A    between atoms: N_8  and  C_22
    3  A    between atoms: C_10  and  C_32
    4  A    between atoms: O_19  and  C_40
    5  A    between atoms: O_19  and  C_45
    6  A    between atoms: C_22  and  C_35
    7  A    between atoms: C_22  and  O_46
    8  A    between atoms: C_27  and  C_54
    9  A    between atoms: C_35  and  C_43
   10  A    between atoms: C_43  and  C_51
   11  A    between atoms: C_51  and  C_54
                            x       y       z     vdW  Elec       q    Type
                         _______ _______ _______ _____ _____    ______ ____

>  <TORSDO>
F 11

$$$$
=
 OpenBabel10262420293D

 55 59  0  0  1  0  0  0  0  0999 V2000
  187.6820  177.2190  137.3870 C   0  0  1  0  0  3  0  0  0  0  0  0
  186.1210  177.7770  141.2350 C   0  0  0  0  0  2  0  0  0  0  0  0
  181.4370  176.6700  135.4800 C   0  0  0  0  0  2  0  0  0  0  0  0
  187.1900  178.6480  140.5970 C   0  0  0  0  0  2  0  0  0  0  0  0
  183.8420  179.7000  139.6450 O   0  0  0  0  0  0  0  0  0  0  0  0
  183.3780  177.3610  139.6530 C   0  0  2  0  0  3  0  0  0  0  0  0
  182.5040  176.8080  140.5950 O   0  0  0  0  0  1  0  0  0  0  0  0
  189.8350  177.4380  138.5580 C   0  0  0  0  0  0  0  0  0  0  0  0
  184.0020  178.6250  140.2090 C   0  0  0  0  0  0  0  0  0  0  0  0
  188.5260  177.9190  140.6010 C   0  0  1  0  0  3  0  0  0  0  0  0
  186.9360  177.7420  136.1720 C   0  0  0  0  0  2  0  0  0  0  0  0
  189.4570  178.4990  139.5450 C   0  0  0  0  0  2  0  0  0  0  0  0
  183.2850  174.9150  135.7680 C   0  0  2  0  0  3  0  0  0  0  0  0
  184.7370  177.6430  137.0430 C   0  0  0  0  0  3  0  0  0  0  0  0
  182.5750  177.6080  135.8710 C   0  0  0  0  0  2  0  0  0  0  0  0
  182.6200  177.6120  138.3480 C   0  0  0  0  0  2  0  0  0  0  0  0
  183.3860  175.5470  137.1600 C   0  0  0  0  0  2  0  0  0  0  0  0
  188.5340  176.0400  136.9830 C   0  0  0  0  0  2  0  0  0  0  0  0
  189.1780  177.3970  137.2090 C   0  0  1  0  0  3  0  0  0  0  0  0
  184.8530  178.5890  141.4510 C   0  0  1  0  0  3  0  0  0  0  0  0
  181.9680  175.2960  135.0690 C   0  0  0  0  0  2  0  0  0  0  0  0
  185.5880  177.2340  136.1740 N   0  0  0  0  0  0  0  0  0  0  0  0
  183.3420  177.0910  137.0970 C   0  0  2  0  0  0  0  0  0  0  0  0
  190.7050  176.6290  138.8440 O   0  0  0  0  0  0  0  0  0  0  0  0
  183.5240  173.4120  135.8160 C   0  0  0  0  0  3  0  0  0  0  0  0
  182.2130  172.6610  135.8360 C   0  0  0  0  0  1  0  0  0  0  0  0
  184.3800  173.0010  137.0000 C   0  0  0  0  0  1  0  0  0  0  0  0
  184.1300  178.0700  142.5390 O   0  0  0  0  0  0  0  0  0  0  0  0
  182.4550  179.6380  142.3840 F   0  0  0  0  0  0  0  0  0  0  0  0
  184.3660  180.1520  143.4960 F   0  0  0  0  0  0  0  0  0  0  0  0
  182.8650  178.6280  144.4660 C   0  0  0  0  0  1  0  0  0  0  0  0
  183.4740  179.1390  143.1810 C   0  0  0  0  0  0  0  0  0  0  0  0
  189.1660  177.8860  141.9970 C   0  0  0  0  0  2  0  0  0  0  0  0
  189.9890  176.6260  142.2690 C   0  0  0  0  0  2  0  0  0  0  0  0
  191.5800  178.3200  142.8850 O   0  0  0  0  0  1  0  0  0  0  0  0
  191.3160  176.9500  142.9430 C   0  0  1  0  0  3  0  0  0  0  0  0
  191.3410  176.4450  144.3840 C   0  0  0  0  0  2  0  0  0  0  0  0
  191.3070  177.5600  145.4320 C   0  0  2  0  0  3  0  0  0  0  0  0
  193.0220  175.6420  148.1430 N   0  0  0  0  0  1  0  0  0  0  0  0
  191.9720  177.1280  146.6610 N   0  0  0  0  0  0  0  0  0  0  0  0
  192.3960  175.9250  146.9000 C   0  0  0  0  0  0  0  0  0  0  0  0
  192.2510  174.8790  145.9360 N   0  0  0  0  0  1  0  0  0  0  0  0
  189.9900  177.9610  145.6980 O   0  0  0  0  0  0  0  0  0  0  0  0
  187.1420  176.7820  145.6690 C   0  0  2  0  0  3  0  0  0  0  0  0
  189.5030  177.0820  146.6720 C   0  0  1  0  0  3  0  0  0  0  0  0
  185.5570  179.9880  146.4740 C   0  0  0  0  0  2  0  0  0  0  0  0
  189.4450  177.8840  148.9870 C   0  0  0  0  0  2  0  0  0  0  0  0
  188.8510  177.8440  147.7950 C   0  0  0  0  0  0  0  0  0  0  0  0
  186.9580  176.7430  144.1620 C   0  0  0  0  0  1  0  0  0  0  0  0
  186.0550  180.1430  147.9180 C   0  0  0  0  0  2  0  0  0  0  0  0
  187.4030  179.7400  147.9970 O   0  0  0  0  0  0  0  0  0  0  0  0
  186.9770  178.2260  146.1720 C   0  0  2  0  0  3  0  0  0  0  0  0
  187.4590  178.3780  147.6330 C   0  0  1  0  0  3  0  0  0  0  0  0
  185.6270  178.6340  146.0770 O   0  0  0  0  0  0  0  0  0  0  0  0
  188.4870  176.1290  146.0370 C   0  0  0  0  0  2  0  0  0  0  0  0
  1 11  1  6  0  0  0
  2 20  1  0  0  0  0
  3 15  1  0  0  0  0
  4 10  1  0  0  0  0
  4  2  1  0  0  0  0
  5  9  2  0  0  0  0
  6  9  1  0  0  0  0
  6  7  1  1  0  0  0
  8 24  2  0  0  0  0
  8 12  1  0  0  0  0
  9 20  1  0  0  0  0
 10 33  1  1  0  0  0
 11 22  1  0  0  0  0
 12 10  1  0  0  0  0
 13 25  1  1  0  0  0
 13 17  1  0  0  0  0
 14 23  1  0  0  0  0
 16  6  1  0  0  0  0
 18  1  1  0  0  0  0
 19 18  1  6  0  0  0
 19  1  1  0  0  0  0
 19  8  1  0  0  0  0
 20 28  1  1  0  0  0
 21  3  1  0  0  0  0
 21 13  1  0  0  0  0
 22 14  2  0  0  0  0
 23 15  1  6  0  0  0
 23 17  1  0  0  0  0
 23 16  1  0  0  0  0
 25 26  1  0  0  0  0
 25 27  1  0  0  0  0
 28 32  1  0  0  0  0
 29 32  1  0  0  0  0
 32 30  1  0  0  0  0
 32 31  1  0  0  0  0
 33 34  1  0  0  0  0
 34 36  1  0  0  0  0
 36 35  1  1  0  0  0
 36 37  1  0  0  0  0
 38 37  1  6  0  0  0
 38 43  1  0  0  0  0
 38 40  1  0  0  0  0
 40 41  2  0  0  0  0
 41 39  1  0  0  0  0
 42 41  1  0  0  0  0
 44 49  1  6  0  0  0
 44 55  1  0  0  0  0
 44 52  1  0  0  0  0
 45 43  1  6  0  0  0
 45 48  1  0  0  0  0
 46 50  1  0  0  0  0
 48 47  2  0  0  0  0
 50 51  1  0  0  0  0
 52 54  1  1  0  0  0
 52 53  1  0  0  0  0
 53 48  1  6  0  0  0
 53 51  1  0  0  0  0
 54 46  1  0  0  0  0
 55 45  1  0  0  0  0
M  END
>  <MODEL>
9

>  <REMARK>
 VINA RESULT:      -5.0      2.571      4.545
  Name = 
  11 active torsions:
  status: ('A' for Active; 'I' for Inactive)
    1  A    between atoms: C_6  and  O_46
    2  A    between atoms: N_8  and  C_22
    3  A    between atoms: C_10  and  C_32
    4  A    between atoms: O_19  and  C_40
    5  A    between atoms: O_19  and  C_45
    6  A    between atoms: C_22  and  C_35
    7  A    between atoms: C_22  and  O_46
    8  A    between atoms: C_27  and  C_54
    9  A    between atoms: C_35  and  C_43
   10  A    between atoms: C_43  and  C_51
   11  A    between atoms: C_51  and  C_54
                            x       y       z     vdW  Elec       q    Type
                         _______ _______ _______ _____ _____    ______ ____

>  <TORSDO>
F 11

$$$$
