=
 OpenBabel10262420593D

 28 29  0  0  1  0  0  0  0  0999 V2000
  187.6350  177.1400  145.0350 C   0  0  0  0  0  2  0  0  0  0  0  0
  186.4530  177.6590  145.8370 C   0  0  2  0  0  3  0  0  0  0  0  0
  185.7910  178.8030  145.0840 C   0  0  0  0  0  2  0  0  0  0  0  0
  184.2900  178.7950  145.3200 C   0  0  0  0  0  2  0  0  0  0  0  0
  181.5390  178.9530  142.7350 C   0  0  0  0  0  3  0  0  0  0  0  0
  183.5690  178.7410  144.0180 C   0  0  0  0  0  0  0  0  0  0  0  0
  183.5760  178.4440  141.6250 C   0  0  0  0  0  0  0  0  0  0  0  0
  182.1940  178.9880  143.9700 C   0  0  0  0  0  3  0  0  0  0  0  0
  184.2680  178.4730  142.8390 C   0  0  0  0  0  3  0  0  0  0  0  0
  184.2410  178.1910  140.4740 F   0  0  0  0  0  0  0  0  0  0  0  0
  182.2370  178.6820  141.6000 N   0  0  0  0  0  0  0  0  0  0  0  0
  186.9320  178.1470  147.1960 C   0  0  0  0  0  2  0  0  0  0  0  0
  189.4150  178.1720  148.3170 S   0  0  0  0  0  1  0  0  0  0  0  0
  187.9860  177.2090  147.7500 C   0  0  0  0  0  2  0  0  0  0  0  0
  187.1880  176.7340  143.6350 C   0  0  0  0  0  2  0  0  0  0  0  0
  188.5630  177.8230  141.7300 C   0  0  2  0  0  0  0  0  0  0  0  0
  190.5120  177.6380  143.0110 C   0  0  1  0  0  3  0  0  0  0  0  0
  189.6810  178.5840  142.2710 N   0  0  0  0  0  2  0  0  0  0  0  0
  190.9920  178.2460  144.1700 O   0  0  0  0  0  1  0  0  0  0  0  0
  189.6670  176.4330  143.3780 C   0  0  2  0  0  3  0  0  0  0  0  0
  190.2970  175.2700  142.9330 O   0  0  0  0  0  1  0  0  0  0  0  0
  187.4290  178.6390  141.6720 O   0  0  0  0  0  1  0  0  0  0  0  0
  188.3570  176.6130  142.6470 C   0  0  1  0  0  3  0  0  0  0  0  0
  188.9140  177.3530  140.3210 C   0  0  0  0  0  2  0  0  0  0  0  0
  189.3990  178.4150  139.5540 O   0  0  0  0  0  0  0  0  0  0  0  0
  188.4200  178.6560  138.6490 N   0  0  0  0  0  2  0  0  0  0  0  0
  189.0730  178.9860  137.3930 C   0  0  0  0  0  2  0  0  0  0  0  0
  189.5980  177.8270  136.8190 O   0  0  0  0  0  1  0  0  0  0  0  0
  2  1  1  6  0  0  0
  2 12  1  0  0  0  0
  3  4  1  0  0  0  0
  3  2  1  0  0  0  0
  5  8  1  0  0  0  0
  6  4  1  0  0  0  0
  7  9  2  0  0  0  0
  8  6  2  0  0  0  0
  9  6  1  0  0  0  0
 10  7  1  0  0  0  0
 11  7  1  0  0  0  0
 11  5  2  0  0  0  0
 12 14  1  0  0  0  0
 14 13  1  0  0  0  0
 15  1  1  0  0  0  0
 16 22  1  6  0  0  0
 16 18  1  0  0  0  0
 16 23  1  0  0  0  0
 17 20  1  0  0  0  0
 17 19  1  1  0  0  0
 18 17  1  0  0  0  0
 20 21  1  6  0  0  0
 23 20  1  0  0  0  0
 23 15  1  1  0  0  0
 24 16  1  0  0  0  0
 25 24  1  0  0  0  0
 26 25  1  0  0  0  0
 27 26  1  0  0  0  0
 28 27  1  0  0  0  0
M  END
>  <MODEL>
1

>  <REMARK>
 VINA RESULT:      -7.4      0.000      0.000
  Name = 
  12 active torsions:
  status: ('A' for Active; 'I' for Inactive)
    1  A    between atoms: C_1  and  C_11
    2  A    between atoms: O_6  and  N_8
    3  A    between atoms: O_6  and  C_11
    4  A    between atoms: N_8  and  C_22
    5  A    between atoms: C_9  and  C_18
    6  A    between atoms: C_10  and  C_14
    7  A    between atoms: C_10  and  C_17
    8  A    between atoms: C_10  and  C_25
    9  A    between atoms: C_14  and  C_18
   10  A    between atoms: C_17  and  C_19
   11  A    between atoms: C_19  and  C_27
   12  A    between atoms: C_20  and  C_25
                            x       y       z     vdW  Elec       q    Type
                         _______ _______ _______ _____ _____    ______ ____

>  <TORSDO>
F 12

$$$$
=
 OpenBabel10262420593D

 28 29  0  0  1  0  0  0  0  0999 V2000
  187.8830  177.5780  144.7900 C   0  0  0  0  0  2  0  0  0  0  0  0
  187.1820  177.0960  146.0490 C   0  0  2  0  0  3  0  0  0  0  0  0
  185.8260  177.7750  146.1670 C   0  0  0  0  0  2  0  0  0  0  0  0
  185.7860  179.0310  145.3140 C   0  0  0  0  0  2  0  0  0  0  0  0
  183.8080  178.8410  142.1010 C   0  0  0  0  0  3  0  0  0  0  0  0
  184.6470  178.9630  144.3570 C   0  0  0  0  0  0  0  0  0  0  0  0
  182.2800  178.8240  143.9190 C   0  0  0  0  0  0  0  0  0  0  0  0
  184.8900  178.9250  142.9820 C   0  0  0  0  0  3  0  0  0  0  0  0
  183.3340  178.9060  144.8320 C   0  0  0  0  0  3  0  0  0  0  0  0
  181.0030  178.7630  144.3640 F   0  0  0  0  0  0  0  0  0  0  0  0
  182.5370  178.7940  142.5840 N   0  0  0  0  0  0  0  0  0  0  0  0
  188.0310  177.4270  147.2670 C   0  0  0  0  0  2  0  0  0  0  0  0
  190.6670  176.7410  147.3140 S   0  0  0  0  0  1  0  0  0  0  0  0
  189.3920  177.9390  146.8360 C   0  0  0  0  0  2  0  0  0  0  0  0
  187.7090  176.5650  143.6650 C   0  0  0  0  0  2  0  0  0  0  0  0
  189.0530  177.5380  141.6770 C   0  0  2  0  0  0  0  0  0  0  0  0
  190.9230  177.8110  143.0550 C   0  0  1  0  0  3  0  0  0  0  0  0
  190.0280  178.5150  142.1410 N   0  0  0  0  0  2  0  0  0  0  0  0
  191.2460  178.6430  144.1260 O   0  0  0  0  0  1  0  0  0  0  0  0
  190.2180  176.5700  143.5670 C   0  0  2  0  0  3  0  0  0  0  0  0
  191.0190  175.4510  143.3350 O   0  0  0  0  0  1  0  0  0  0  0  0
  187.8300  178.1740  141.4420 O   0  0  0  0  0  1  0  0  0  0  0  0
  188.9450  176.4590  142.7600 C   0  0  1  0  0  3  0  0  0  0  0  0
  189.5510  176.9170  140.3740 C   0  0  0  0  0  2  0  0  0  0  0  0
  190.1980  177.8740  139.5880 O   0  0  0  0  0  0  0  0  0  0  0  0
  189.8280  177.5780  138.3190 N   0  0  0  0  0  2  0  0  0  0  0  0
  188.6320  178.3520  138.0330 C   0  0  0  0  0  2  0  0  0  0  0  0
  188.9920  179.6210  137.5760 O   0  0  0  0  0  1  0  0  0  0  0  0
  2  1  1  6  0  0  0
  2  3  1  0  0  0  0
  2 12  1  0  0  0  0
  4  3  1  0  0  0  0
  5 11  2  0  0  0  0
  5  8  1  0  0  0  0
  6  9  1  0  0  0  0
  6  4  1  0  0  0  0
  7 10  1  0  0  0  0
  7  9  2  0  0  0  0
  8  6  2  0  0  0  0
 11  7  1  0  0  0  0
 14 12  1  0  0  0  0
 14 13  1  0  0  0  0
 15  1  1  0  0  0  0
 16 22  1  6  0  0  0
 16 18  1  0  0  0  0
 16 23  1  0  0  0  0
 17 20  1  0  0  0  0
 17 19  1  1  0  0  0
 18 17  1  0  0  0  0
 20 21  1  6  0  0  0
 23 20  1  0  0  0  0
 23 15  1  1  0  0  0
 24 16  1  0  0  0  0
 25 24  1  0  0  0  0
 26 25  1  0  0  0  0
 27 26  1  0  0  0  0
 28 27  1  0  0  0  0
M  END
>  <MODEL>
2

>  <REMARK>
 VINA RESULT:      -7.3      1.376      1.719
  Name = 
  12 active torsions:
  status: ('A' for Active; 'I' for Inactive)
    1  A    between atoms: C_1  and  C_11
    2  A    between atoms: O_6  and  N_8
    3  A    between atoms: O_6  and  C_11
    4  A    between atoms: N_8  and  C_22
    5  A    between atoms: C_9  and  C_18
    6  A    between atoms: C_10  and  C_14
    7  A    between atoms: C_10  and  C_17
    8  A    between atoms: C_10  and  C_25
    9  A    between atoms: C_14  and  C_18
   10  A    between atoms: C_17  and  C_19
   11  A    between atoms: C_19  and  C_27
   12  A    between atoms: C_20  and  C_25
                            x       y       z     vdW  Elec       q    Type
                         _______ _______ _______ _____ _____    ______ ____

>  <TORSDO>
F 12

$$$$
=
 OpenBabel10262420593D

 28 29  0  0  1  0  0  0  0  0999 V2000
  189.0710  177.4180  141.2930 C   0  0  0  0  0  2  0  0  0  0  0  0
  189.2700  176.2980  142.3020 C   0  0  2  0  0  3  0  0  0  0  0  0
  188.2340  176.4220  143.4090 C   0  0  0  0  0  2  0  0  0  0  0  0
  187.1740  177.4440  143.0310 C   0  0  0  0  0  2  0  0  0  0  0  0
  186.3380  178.2570  146.6240 C   0  0  0  0  0  3  0  0  0  0  0  0
  186.4310  177.8810  144.2450 C   0  0  0  0  0  0  0  0  0  0  0  0
  184.4570  178.8000  145.2800 C   0  0  0  0  0  0  0  0  0  0  0  0
  187.0450  177.8230  145.4990 C   0  0  0  0  0  3  0  0  0  0  0  0
  185.1310  178.3780  144.1310 C   0  0  0  0  0  3  0  0  0  0  0  0
  183.1990  179.2890  145.1840 F   0  0  0  0  0  0  0  0  0  0  0  0
  185.0700  178.7310  146.4920 N   0  0  0  0  0  0  0  0  0  0  0  0
  190.6690  176.3870  142.8950 C   0  0  0  0  0  2  0  0  0  0  0  0
  191.4240  176.8330  145.4740 S   0  0  0  0  0  1  0  0  0  0  0  0
  190.7320  177.4910  143.9320 C   0  0  0  0  0  2  0  0  0  0  0  0
  189.8070  177.1000  139.9970 C   0  0  0  0  0  2  0  0  0  0  0  0
  188.6240  178.2230  137.9860 C   0  0  2  0  0  0  0  0  0  0  0  0
  189.6360  176.7050  136.5220 C   0  0  1  0  0  3  0  0  0  0  0  0
  189.4440  178.1280  136.7850 N   0  0  0  0  0  2  0  0  0  0  0  0
  190.9370  176.4840  136.0740 O   0  0  0  0  0  1  0  0  0  0  0  0
  189.4010  175.9360  137.8090 C   0  0  2  0  0  3  0  0  0  0  0  0
  188.4490  174.9400  137.5890 O   0  0  0  0  0  1  0  0  0  0  0  0
  188.9760  179.3740  138.7000 O   0  0  0  0  0  1  0  0  0  0  0  0
  188.8620  176.9450  138.7960 C   0  0  1  0  0  3  0  0  0  0  0  0
  187.1560  178.3170  137.5820 C   0  0  0  0  0  2  0  0  0  0  0  0
  186.3300  178.2780  138.7080 O   0  0  0  0  0  0  0  0  0  0  0  0
  185.3200  179.1330  138.4180 N   0  0  0  0  0  2  0  0  0  0  0  0
  184.4560  179.1840  139.5860 C   0  0  0  0  0  2  0  0  0  0  0  0
  185.1980  179.5750  140.7020 O   0  0  0  0  0  1  0  0  0  0  0  0
  2  1  1  6  0  0  0
  2 12  1  0  0  0  0
  2  3  1  0  0  0  0
  4  3  1  0  0  0  0
  4  6  1  0  0  0  0
  6  8  1  0  0  0  0
  7 11  2  0  0  0  0
  8  5  2  0  0  0  0
  9  6  2  0  0  0  0
  9  7  1  0  0  0  0
 10  7  1  0  0  0  0
 11  5  1  0  0  0  0
 12 14  1  0  0  0  0
 14 13  1  0  0  0  0
 15  1  1  0  0  0  0
 16 22  1  1  0  0  0
 16 23  1  0  0  0  0
 17 19  1  1  0  0  0
 17 18  1  0  0  0  0
 17 20  1  0  0  0  0
 18 16  1  0  0  0  0
 20 21  1  6  0  0  0
 20 23  1  0  0  0  0
 23 15  1  1  0  0  0
 24 16  1  0  0  0  0
 24 25  1  0  0  0  0
 26 25  1  0  0  0  0
 26 27  1  0  0  0  0
 27 28  1  0  0  0  0
M  END
>  <MODEL>
3

>  <REMARK>
 VINA RESULT:      -7.1      2.809      4.821
  Name = 
  12 active torsions:
  status: ('A' for Active; 'I' for Inactive)
    1  A    between atoms: C_1  and  C_11
    2  A    between atoms: O_6  and  N_8
    3  A    between atoms: O_6  and  C_11
    4  A    between atoms: N_8  and  C_22
    5  A    between atoms: C_9  and  C_18
    6  A    between atoms: C_10  and  C_14
    7  A    between atoms: C_10  and  C_17
    8  A    between atoms: C_10  and  C_25
    9  A    between atoms: C_14  and  C_18
   10  A    between atoms: C_17  and  C_19
   11  A    between atoms: C_19  and  C_27
   12  A    between atoms: C_20  and  C_25
                            x       y       z     vdW  Elec       q    Type
                         _______ _______ _______ _____ _____    ______ ____

>  <TORSDO>
F 12

$$$$
=
 OpenBabel10262420593D

 28 29  0  0  1  0  0  0  0  0999 V2000
  189.0080  177.2880  140.9410 C   0  0  0  0  0  2  0  0  0  0  0  0
  189.9240  176.4650  141.8320 C   0  0  2  0  0  3  0  0  0  0  0  0
  189.2520  176.2360  143.1780 C   0  0  0  0  0  2  0  0  0  0  0  0
  187.8770  176.8820  143.2000 C   0  0  0  0  0  2  0  0  0  0  0  0
  185.9580  178.1720  146.1880 C   0  0  0  0  0  3  0  0  0  0  0  0
  187.5440  177.3250  144.5830 C   0  0  0  0  0  0  0  0  0  0  0  0
  188.1710  177.6630  146.8860 C   0  0  0  0  0  0  0  0  0  0  0  0
  186.2570  177.7800  144.8800 C   0  0  0  0  0  3  0  0  0  0  0  0
  188.5080  177.2600  145.5920 C   0  0  0  0  0  3  0  0  0  0  0  0
  189.0920  177.6000  147.8750 F   0  0  0  0  0  0  0  0  0  0  0  0
  186.9140  178.1080  147.1550 N   0  0  0  0  0  0  0  0  0  0  0  0
  191.2400  177.2020  142.0320 C   0  0  0  0  0  2  0  0  0  0  0  0
  191.3740  179.0590  144.0200 S   0  0  0  0  0  1  0  0  0  0  0  0
  191.5530  177.3280  143.5100 C   0  0  0  0  0  2  0  0  0  0  0  0
  189.6500  177.5030  139.5750 C   0  0  0  0  0  2  0  0  0  0  0  0
  188.4810  178.4060  137.4490 C   0  0  2  0  0  0  0  0  0  0  0  0
  189.4170  176.6780  136.1810 C   0  0  1  0  0  3  0  0  0  0  0  0
  189.2800  178.1290  136.2620 N   0  0  0  0  0  2  0  0  0  0  0  0
  190.7040  176.3540  135.7520 O   0  0  0  0  0  1  0  0  0  0  0  0
  189.1730  176.0870  137.5560 C   0  0  2  0  0  3  0  0  0  0  0  0
  188.1840  175.1080  137.4730 O   0  0  0  0  0  1  0  0  0  0  0  0
  188.8830  179.6240  138.0070 O   0  0  0  0  0  1  0  0  0  0  0  0
  188.6840  177.2330  138.4130 C   0  0  1  0  0  3  0  0  0  0  0  0
  187.0110  178.5010  137.0490 C   0  0  0  0  0  2  0  0  0  0  0  0
  186.1920  177.9700  138.0480 O   0  0  0  0  0  0  0  0  0  0  0  0
  185.4640  179.0240  138.4870 N   0  0  0  0  0  2  0  0  0  0  0  0
  184.9420  178.6650  139.7950 C   0  0  0  0  0  2  0  0  0  0  0  0
  185.3880  179.5830  140.7470 O   0  0  0  0  0  1  0  0  0  0  0  0
  2  1  1  6  0  0  0
  2 12  1  0  0  0  0
  2  3  1  0  0  0  0
  3  4  1  0  0  0  0
  4  6  1  0  0  0  0
  5 11  1  0  0  0  0
  6  8  1  0  0  0  0
  6  9  2  0  0  0  0
  7 11  2  0  0  0  0
  7 10  1  0  0  0  0
  8  5  2  0  0  0  0
  9  7  1  0  0  0  0
 12 14  1  0  0  0  0
 14 13  1  0  0  0  0
 15  1  1  0  0  0  0
 16 22  1  1  0  0  0
 16 23  1  0  0  0  0
 17 19  1  1  0  0  0
 17 18  1  0  0  0  0
 17 20  1  0  0  0  0
 18 16  1  0  0  0  0
 20 21  1  6  0  0  0
 20 23  1  0  0  0  0
 23 15  1  1  0  0  0
 24 16  1  0  0  0  0
 24 25  1  0  0  0  0
 25 26  1  0  0  0  0
 26 27  1  0  0  0  0
 27 28  1  0  0  0  0
M  END
>  <MODEL>
4

>  <REMARK>
 VINA RESULT:      -7.0      3.431      5.574
  Name = 
  12 active torsions:
  status: ('A' for Active; 'I' for Inactive)
    1  A    between atoms: C_1  and  C_11
    2  A    between atoms: O_6  and  N_8
    3  A    between atoms: O_6  and  C_11
    4  A    between atoms: N_8  and  C_22
    5  A    between atoms: C_9  and  C_18
    6  A    between atoms: C_10  and  C_14
    7  A    between atoms: C_10  and  C_17
    8  A    between atoms: C_10  and  C_25
    9  A    between atoms: C_14  and  C_18
   10  A    between atoms: C_17  and  C_19
   11  A    between atoms: C_19  and  C_27
   12  A    between atoms: C_20  and  C_25
                            x       y       z     vdW  Elec       q    Type
                         _______ _______ _______ _____ _____    ______ ____

>  <TORSDO>
F 12

$$$$
=
 OpenBabel10262420593D

 28 29  0  0  1  0  0  0  0  0999 V2000
  188.9430  177.6410  141.3240 C   0  0  0  0  0  2  0  0  0  0  0  0
  189.1240  177.2200  142.7730 C   0  0  2  0  0  3  0  0  0  0  0  0
  187.7660  176.9100  143.3860 C   0  0  0  0  0  2  0  0  0  0  0  0
  186.7060  177.8410  142.8230 C   0  0  0  0  0  2  0  0  0  0  0  0
  183.5900  179.0230  144.6020 C   0  0  0  0  0  3  0  0  0  0  0  0
  185.7620  178.2500  143.8990 C   0  0  0  0  0  0  0  0  0  0  0  0
  185.2530  178.5680  146.2350 C   0  0  0  0  0  0  0  0  0  0  0  0
  184.4670  178.6620  143.5750 C   0  0  0  0  0  3  0  0  0  0  0  0
  186.1580  178.1960  145.2380 C   0  0  0  0  0  3  0  0  0  0  0  0
  185.6210  178.5150  147.5360 F   0  0  0  0  0  0  0  0  0  0  0  0
  183.9980  178.9710  145.8980 N   0  0  0  0  0  0  0  0  0  0  0  0
  189.7960  178.3410  143.5520 C   0  0  0  0  0  2  0  0  0  0  0  0
  191.3640  176.8750  145.2290 S   0  0  0  0  0  1  0  0  0  0  0  0
  189.9280  177.9610  145.0140 C   0  0  0  0  0  2  0  0  0  0  0  0
  189.8620  176.8310  140.4180 C   0  0  0  0  0  2  0  0  0  0  0  0
  189.9160  176.2710  137.8900 C   0  0  2  0  0  0  0  0  0  0  0  0
  187.9290  177.4630  137.5680 C   0  0  1  0  0  3  0  0  0  0  0  0
  188.5650  176.1660  137.3550 N   0  0  0  0  0  2  0  0  0  0  0  0
  186.5960  177.2750  137.9310 O   0  0  0  0  0  1  0  0  0  0  0  0
  188.6640  178.1890  138.6780 C   0  0  2  0  0  3  0  0  0  0  0  0
  189.0550  179.4510  138.2290 O   0  0  0  0  0  1  0  0  0  0  0  0
  190.3160  175.0290  138.3950 O   0  0  0  0  0  1  0  0  0  0  0  0
  189.8890  177.3540  138.9740 C   0  0  1  0  0  3  0  0  0  0  0  0
  190.8660  176.6830  136.7690 C   0  0  0  0  0  2  0  0  0  0  0  0
  191.8250  175.6920  136.5450 O   0  0  0  0  0  0  0  0  0  0  0  0
  193.0110  176.3180  136.7320 N   0  0  0  0  0  2  0  0  0  0  0  0
  193.6130  175.7420  137.9240 C   0  0  0  0  0  2  0  0  0  0  0  0
  193.6550  176.7000  138.9380 O   0  0  0  0  0  1  0  0  0  0  0  0
  2  1  1  6  0  0  0
  2  3  1  0  0  0  0
  2 12  1  0  0  0  0
  4  3  1  0  0  0  0
  4  6  1  0  0  0  0
  5 11  1  0  0  0  0
  6  9  2  0  0  0  0
  7 10  1  0  0  0  0
  8  6  1  0  0  0  0
  8  5  2  0  0  0  0
  9  7  1  0  0  0  0
 11  7  2  0  0  0  0
 12 14  1  0  0  0  0
 14 13  1  0  0  0  0
 15  1  1  0  0  0  0
 16 22  1  1  0  0  0
 16 23  1  0  0  0  0
 17 19  1  1  0  0  0
 17 20  1  0  0  0  0
 18 17  1  0  0  0  0
 18 16  1  0  0  0  0
 20 21  1  6  0  0  0
 20 23  1  0  0  0  0
 23 15  1  1  0  0  0
 24 16  1  0  0  0  0
 25 26  1  0  0  0  0
 25 24  1  0  0  0  0
 26 27  1  0  0  0  0
 27 28  1  0  0  0  0
M  END
>  <MODEL>
5

>  <REMARK>
 VINA RESULT:      -6.9      3.012      4.749
  Name = 
  12 active torsions:
  status: ('A' for Active; 'I' for Inactive)
    1  A    between atoms: C_1  and  C_11
    2  A    between atoms: O_6  and  N_8
    3  A    between atoms: O_6  and  C_11
    4  A    between atoms: N_8  and  C_22
    5  A    between atoms: C_9  and  C_18
    6  A    between atoms: C_10  and  C_14
    7  A    between atoms: C_10  and  C_17
    8  A    between atoms: C_10  and  C_25
    9  A    between atoms: C_14  and  C_18
   10  A    between atoms: C_17  and  C_19
   11  A    between atoms: C_19  and  C_27
   12  A    between atoms: C_20  and  C_25
                            x       y       z     vdW  Elec       q    Type
                         _______ _______ _______ _____ _____    ______ ____

>  <TORSDO>
F 12

$$$$
=
 OpenBabel10262420593D

 28 29  0  0  1  0  0  0  0  0999 V2000
  187.2430  178.8130  141.3120 C   0  0  0  0  0  2  0  0  0  0  0  0
  186.3270  178.6180  142.5090 C   0  0  2  0  0  3  0  0  0  0  0  0
  186.8520  177.4790  143.3700 C   0  0  0  0  0  2  0  0  0  0  0  0
  186.4210  177.6640  144.8150 C   0  0  0  0  0  2  0  0  0  0  0  0
  189.9520  177.1490  146.0580 C   0  0  0  0  0  3  0  0  0  0  0  0
  187.6030  177.5720  145.7160 C   0  0  0  0  0  0  0  0  0  0  0  0
  188.6000  177.7970  147.9000 C   0  0  0  0  0  0  0  0  0  0  0  0
  188.8500  177.2110  145.1990 C   0  0  0  0  0  3  0  0  0  0  0  0
  187.4760  177.8730  147.0740 C   0  0  0  0  0  3  0  0  0  0  0  0
  188.4930  178.0920  149.2160 F   0  0  0  0  0  0  0  0  0  0  0  0
  189.8040  177.4390  147.3790 N   0  0  0  0  0  0  0  0  0  0  0  0
  184.9200  178.2950  142.0300 C   0  0  0  0  0  2  0  0  0  0  0  0
  183.3910  177.9970  139.7960 S   0  0  0  0  0  1  0  0  0  0  0  0
  184.6630  178.9390  140.6810 C   0  0  0  0  0  2  0  0  0  0  0  0
  188.4630  177.9060  141.4240 C   0  0  0  0  0  2  0  0  0  0  0  0
  190.3580  176.8510  140.0090 C   0  0  2  0  0  0  0  0  0  0  0  0
  189.0270  176.9940  138.0910 C   0  0  1  0  0  3  0  0  0  0  0  0
  189.8080  176.0710  138.9090 N   0  0  0  0  0  2  0  0  0  0  0  0
  187.8700  176.3580  137.6430 O   0  0  0  0  0  1  0  0  0  0  0  0
  188.6530  178.1970  138.9370 C   0  0  2  0  0  3  0  0  0  0  0  0
  189.0570  179.3650  138.2900 O   0  0  0  0  0  1  0  0  0  0  0  0
  190.4620  176.0430  141.1460 O   0  0  0  0  0  1  0  0  0  0  0  0
  189.4190  178.0420  140.2300 C   0  0  1  0  0  3  0  0  0  0  0  0
  191.7470  177.3500  139.6220 C   0  0  0  0  0  2  0  0  0  0  0  0
  192.2360  176.6410  138.5210 O   0  0  0  0  0  0  0  0  0  0  0  0
  193.5330  176.3940  138.8250 N   0  0  0  0  0  2  0  0  0  0  0  0
  193.9950  175.3620  137.9110 C   0  0  0  0  0  2  0  0  0  0  0  0
  195.3830  175.2450  138.0000 O   0  0  0  0  0  1  0  0  0  0  0  0
  1 15  1  0  0  0  0
  2  1  1  6  0  0  0
  2  3  1  0  0  0  0
  3  4  1  0  0  0  0
  4  6  1  0  0  0  0
  5 11  1  0  0  0  0
  6  9  2  0  0  0  0
  7 10  1  0  0  0  0
  8  6  1  0  0  0  0
  8  5  2  0  0  0  0
  9  7  1  0  0  0  0
 11  7  2  0  0  0  0
 12  2  1  0  0  0  0
 13 14  1  0  0  0  0
 14 12  1  0  0  0  0
 16 23  1  0  0  0  0
 16 22  1  1  0  0  0
 17 19  1  1  0  0  0
 17 18  1  0  0  0  0
 17 20  1  0  0  0  0
 18 16  1  0  0  0  0
 20 21  1  6  0  0  0
 20 23  1  0  0  0  0
 23 15  1  1  0  0  0
 24 16  1  0  0  0  0
 25 26  1  0  0  0  0
 25 24  1  0  0  0  0
 27 28  1  0  0  0  0
 27 26  1  0  0  0  0
M  END
>  <MODEL>
6

>  <REMARK>
 VINA RESULT:      -6.8      3.839      6.021
  Name = 
  12 active torsions:
  status: ('A' for Active; 'I' for Inactive)
    1  A    between atoms: C_1  and  C_11
    2  A    between atoms: O_6  and  N_8
    3  A    between atoms: O_6  and  C_11
    4  A    between atoms: N_8  and  C_22
    5  A    between atoms: C_9  and  C_18
    6  A    between atoms: C_10  and  C_14
    7  A    between atoms: C_10  and  C_17
    8  A    between atoms: C_10  and  C_25
    9  A    between atoms: C_14  and  C_18
   10  A    between atoms: C_17  and  C_19
   11  A    between atoms: C_19  and  C_27
   12  A    between atoms: C_20  and  C_25
                            x       y       z     vdW  Elec       q    Type
                         _______ _______ _______ _____ _____    ______ ____

>  <TORSDO>
F 12

$$$$
=
 OpenBabel10262420593D

 28 29  0  0  1  0  0  0  0  0999 V2000
  186.4670  178.6110  141.5810 C   0  0  0  0  0  2  0  0  0  0  0  0
  185.6140  178.7450  142.8320 C   0  0  2  0  0  3  0  0  0  0  0  0
  186.1140  177.7760  143.8940 C   0  0  0  0  0  2  0  0  0  0  0  0
  185.9160  178.3620  145.2810 C   0  0  0  0  0  2  0  0  0  0  0  0
  188.1350  177.9350  148.3090 C   0  0  0  0  0  3  0  0  0  0  0  0
  187.0960  178.0580  146.1370 C   0  0  0  0  0  0  0  0  0  0  0  0
  189.3570  177.2600  146.3880 C   0  0  0  0  0  0  0  0  0  0  0  0
  187.0230  178.2460  147.5200 C   0  0  0  0  0  3  0  0  0  0  0  0
  188.2670  177.5560  145.5650 C   0  0  0  0  0  3  0  0  0  0  0  0
  190.4960  176.7680  145.8480 F   0  0  0  0  0  0  0  0  0  0  0  0
  189.2690  177.4540  147.7310 N   0  0  0  0  0  0  0  0  0  0  0  0
  184.1620  178.4370  142.4970 C   0  0  0  0  0  2  0  0  0  0  0  0
  182.1500  178.5520  140.6650 S   0  0  0  0  0  1  0  0  0  0  0  0
  183.9320  178.5470  141.0030 C   0  0  0  0  0  2  0  0  0  0  0  0
  187.9470  178.6730  141.9390 C   0  0  0  0  0  2  0  0  0  0  0  0
  189.5810  177.6430  140.2140 C   0  0  2  0  0  0  0  0  0  0  0  0
  191.0720  177.0950  141.9310 C   0  0  1  0  0  3  0  0  0  0  0  0
  190.9610  177.7960  140.6550 N   0  0  0  0  0  2  0  0  0  0  0  0
  191.8960  177.8200  142.7910 O   0  0  0  0  0  1  0  0  0  0  0  0
  189.6880  176.9650  142.5370 C   0  0  2  0  0  3  0  0  0  0  0  0
  189.4350  175.6260  142.8370 O   0  0  0  0  0  1  0  0  0  0  0  0
  189.1940  178.7780  139.4940 O   0  0  0  0  0  1  0  0  0  0  0  0
  188.7280  177.4370  141.4690 C   0  0  1  0  0  3  0  0  0  0  0  0
  189.4790  176.4190  139.3090 C   0  0  0  0  0  2  0  0  0  0  0  0
  190.4350  176.4760  138.2920 O   0  0  0  0  0  0  0  0  0  0  0  0
  190.8930  175.2060  138.1840 N   0  0  0  0  0  2  0  0  0  0  0  0
  192.2490  175.2850  137.6670 C   0  0  0  0  0  2  0  0  0  0  0  0
  192.9260  176.3390  138.2830 O   0  0  0  0  0  1  0  0  0  0  0  0
  1 15  1  0  0  0  0
  2  1  1  6  0  0  0
  2  3  1  0  0  0  0
  3  4  1  0  0  0  0
  4  6  1  0  0  0  0
  6  8  1  0  0  0  0
  7 11  2  0  0  0  0
  8  5  2  0  0  0  0
  9  6  2  0  0  0  0
  9  7  1  0  0  0  0
 10  7  1  0  0  0  0
 11  5  1  0  0  0  0
 12  2  1  0  0  0  0
 13 14  1  0  0  0  0
 14 12  1  0  0  0  0
 16 22  1  6  0  0  0
 16 18  1  0  0  0  0
 16 23  1  0  0  0  0
 17 20  1  0  0  0  0
 17 19  1  1  0  0  0
 18 17  1  0  0  0  0
 20 21  1  6  0  0  0
 23 15  1  1  0  0  0
 23 20  1  0  0  0  0
 24 16  1  0  0  0  0
 25 24  1  0  0  0  0
 26 25  1  0  0  0  0
 27 26  1  0  0  0  0
 27 28  1  0  0  0  0
M  END
>  <MODEL>
7

>  <REMARK>
 VINA RESULT:      -6.8      3.443      5.018
  Name = 
  12 active torsions:
  status: ('A' for Active; 'I' for Inactive)
    1  A    between atoms: C_1  and  C_11
    2  A    between atoms: O_6  and  N_8
    3  A    between atoms: O_6  and  C_11
    4  A    between atoms: N_8  and  C_22
    5  A    between atoms: C_9  and  C_18
    6  A    between atoms: C_10  and  C_14
    7  A    between atoms: C_10  and  C_17
    8  A    between atoms: C_10  and  C_25
    9  A    between atoms: C_14  and  C_18
   10  A    between atoms: C_17  and  C_19
   11  A    between atoms: C_19  and  C_27
   12  A    between atoms: C_20  and  C_25
                            x       y       z     vdW  Elec       q    Type
                         _______ _______ _______ _____ _____    ______ ____

>  <TORSDO>
F 12

$$$$
=
 OpenBabel10262420593D

 28 29  0  0  1  0  0  0  0  0999 V2000
  187.0900  178.6180  141.2320 C   0  0  0  0  0  2  0  0  0  0  0  0
  186.2490  178.6090  142.4980 C   0  0  2  0  0  3  0  0  0  0  0  0
  186.7730  177.5410  143.4470 C   0  0  0  0  0  2  0  0  0  0  0  0
  186.4260  177.8930  144.8840 C   0  0  0  0  0  2  0  0  0  0  0  0
  188.6080  177.5930  147.9540 C   0  0  0  0  0  3  0  0  0  0  0  0
  187.6120  177.6860  145.7600 C   0  0  0  0  0  0  0  0  0  0  0  0
  189.9410  177.1310  146.0430 C   0  0  0  0  0  0  0  0  0  0  0  0
  187.4870  177.8110  147.1460 C   0  0  0  0  0  3  0  0  0  0  0  0
  188.8450  177.3380  145.2030 C   0  0  0  0  0  3  0  0  0  0  0  0
  191.1400  176.7880  145.5180 F   0  0  0  0  0  0  0  0  0  0  0  0
  189.8010  177.2620  147.3900 N   0  0  0  0  0  0  0  0  0  0  0  0
  184.7980  178.3190  142.1460 C   0  0  0  0  0  2  0  0  0  0  0  0
  182.7240  178.5890  140.4010 S   0  0  0  0  0  1  0  0  0  0  0  0
  184.4970  178.7780  140.7330 C   0  0  0  0  0  2  0  0  0  0  0  0
  188.4790  178.0570  141.5130 C   0  0  0  0  0  2  0  0  0  0  0  0
  190.2360  176.8250  140.0650 C   0  0  2  0  0  0  0  0  0  0  0  0
  188.8460  177.0080  138.1930 C   0  0  1  0  0  3  0  0  0  0  0  0
  189.5890  176.0540  139.0110 N   0  0  0  0  0  2  0  0  0  0  0  0
  187.6290  176.4460  137.8080 O   0  0  0  0  0  1  0  0  0  0  0  0
  188.5930  178.2590  139.0130 C   0  0  2  0  0  3  0  0  0  0  0  0
  189.0550  179.3750  138.3140 O   0  0  0  0  0  1  0  0  0  0  0  0
  190.3260  176.0450  141.2230 O   0  0  0  0  0  1  0  0  0  0  0  0
  189.3960  178.0870  140.2820 C   0  0  1  0  0  3  0  0  0  0  0  0
  191.6420  177.2080  139.6110 C   0  0  0  0  0  2  0  0  0  0  0  0
  191.9570  176.5830  138.4010 O   0  0  0  0  0  0  0  0  0  0  0  0
  193.2980  176.7310  138.2820 N   0  0  0  0  0  2  0  0  0  0  0  0
  193.8340  175.4440  137.8700 C   0  0  0  0  0  2  0  0  0  0  0  0
  195.0600  175.6290  137.2290 O   0  0  0  0  0  1  0  0  0  0  0  0
  1 15  1  0  0  0  0
  2  1  1  6  0  0  0
  2  3  1  0  0  0  0
  3  4  1  0  0  0  0
  4  6  1  0  0  0  0
  6  8  1  0  0  0  0
  7 11  2  0  0  0  0
  8  5  2  0  0  0  0
  9  6  2  0  0  0  0
  9  7  1  0  0  0  0
 10  7  1  0  0  0  0
 11  5  1  0  0  0  0
 12  2  1  0  0  0  0
 13 14  1  0  0  0  0
 14 12  1  0  0  0  0
 16 23  1  0  0  0  0
 16 22  1  1  0  0  0
 17 19  1  1  0  0  0
 17 18  1  0  0  0  0
 17 20  1  0  0  0  0
 18 16  1  0  0  0  0
 20 21  1  6  0  0  0
 20 23  1  0  0  0  0
 23 15  1  1  0  0  0
 24 16  1  0  0  0  0
 25 24  1  0  0  0  0
 26 25  1  0  0  0  0
 27 26  1  0  0  0  0
 28 27  1  0  0  0  0
M  END
>  <MODEL>
8

>  <REMARK>
 VINA RESULT:      -6.8      3.669      5.841
  Name = 
  12 active torsions:
  status: ('A' for Active; 'I' for Inactive)
    1  A    between atoms: C_1  and  C_11
    2  A    between atoms: O_6  and  N_8
    3  A    between atoms: O_6  and  C_11
    4  A    between atoms: N_8  and  C_22
    5  A    between atoms: C_9  and  C_18
    6  A    between atoms: C_10  and  C_14
    7  A    between atoms: C_10  and  C_17
    8  A    between atoms: C_10  and  C_25
    9  A    between atoms: C_14  and  C_18
   10  A    between atoms: C_17  and  C_19
   11  A    between atoms: C_19  and  C_27
   12  A    between atoms: C_20  and  C_25
                            x       y       z     vdW  Elec       q    Type
                         _______ _______ _______ _____ _____    ______ ____

>  <TORSDO>
F 12

$$$$
=
 OpenBabel10262420593D

 28 29  0  0  1  0  0  0  0  0999 V2000
  190.3670  177.5730  141.4900 C   0  0  0  0  0  2  0  0  0  0  0  0
  189.7470  177.4470  142.8720 C   0  0  2  0  0  3  0  0  0  0  0  0
  188.2480  177.6910  142.7800 C   0  0  0  0  0  2  0  0  0  0  0  0
  187.5000  176.7590  143.7190 C   0  0  0  0  0  2  0  0  0  0  0  0
  185.1870  178.9550  145.7430 C   0  0  0  0  0  3  0  0  0  0  0  0
  186.9160  177.5340  144.8490 C   0  0  0  0  0  0  0  0  0  0  0  0
  186.9590  178.2410  147.1530 C   0  0  0  0  0  0  0  0  0  0  0  0
  185.7310  178.2510  144.6650 C   0  0  0  0  0  3  0  0  0  0  0  0
  187.5330  177.5220  146.1010 C   0  0  0  0  0  3  0  0  0  0  0  0
  187.5430  178.2340  148.3740 F   0  0  0  0  0  0  0  0  0  0  0  0
  185.8080  178.9370  146.9530 N   0  0  0  0  0  0  0  0  0  0  0  0
  190.3780  178.4630  143.8110 C   0  0  0  0  0  2  0  0  0  0  0  0
  191.3230  176.7700  145.7240 S   0  0  0  0  0  1  0  0  0  0  0  0
  191.6800  177.9240  144.3720 C   0  0  0  0  0  2  0  0  0  0  0  0
  189.3750  177.1280  140.4210 C   0  0  0  0  0  2  0  0  0  0  0  0
  190.2270  176.4150  138.0820 C   0  0  2  0  0  0  0  0  0  0  0  0
  188.3400  177.3720  137.0850 C   0  0  1  0  0  3  0  0  0  0  0  0
  189.1110  176.1360  137.1880 N   0  0  0  0  0  2  0  0  0  0  0  0
  186.9790  177.0720  137.0590 O   0  0  0  0  0  1  0  0  0  0  0  0
  188.6490  178.2410  138.2900 C   0  0  2  0  0  3  0  0  0  0  0  0
  189.0540  179.5040  137.8600 O   0  0  0  0  0  1  0  0  0  0  0  0
  190.5550  175.2560  138.7940 O   0  0  0  0  0  1  0  0  0  0  0  0
  189.7910  177.5570  139.0060 C   0  0  1  0  0  3  0  0  0  0  0  0
  191.4330  176.8500  137.2540 C   0  0  0  0  0  2  0  0  0  0  0  0
  192.6240  176.4610  137.8730 O   0  0  0  0  0  0  0  0  0  0  0  0
  193.2780  175.7420  136.9300 N   0  0  0  0  0  2  0  0  0  0  0  0
  194.2440  174.9080  137.6260 C   0  0  0  0  0  2  0  0  0  0  0  0
  195.5360  175.2550  137.2280 O   0  0  0  0  0  1  0  0  0  0  0  0
  2  1  1  6  0  0  0
  2 12  1  0  0  0  0
  3  2  1  0  0  0  0
  3  4  1  0  0  0  0
  4  6  1  0  0  0  0
  5 11  1  0  0  0  0
  6  9  2  0  0  0  0
  7 10  1  0  0  0  0
  8  6  1  0  0  0  0
  8  5  2  0  0  0  0
  9  7  1  0  0  0  0
 11  7  2  0  0  0  0
 12 14  1  0  0  0  0
 14 13  1  0  0  0  0
 15  1  1  0  0  0  0
 16 22  1  1  0  0  0
 16 23  1  0  0  0  0
 17 19  1  1  0  0  0
 17 18  1  0  0  0  0
 17 20  1  0  0  0  0
 18 16  1  0  0  0  0
 20 21  1  6  0  0  0
 20 23  1  0  0  0  0
 23 15  1  1  0  0  0
 24 25  1  0  0  0  0
 24 16  1  0  0  0  0
 26 27  1  0  0  0  0
 26 25  1  0  0  0  0
 28 27  1  0  0  0  0
M  END
>  <MODEL>
9

>  <REMARK>
 VINA RESULT:      -6.6      3.397      5.369
  Name = 
  12 active torsions:
  status: ('A' for Active; 'I' for Inactive)
    1  A    between atoms: C_1  and  C_11
    2  A    between atoms: O_6  and  N_8
    3  A    between atoms: O_6  and  C_11
    4  A    between atoms: N_8  and  C_22
    5  A    between atoms: C_9  and  C_18
    6  A    between atoms: C_10  and  C_14
    7  A    between atoms: C_10  and  C_17
    8  A    between atoms: C_10  and  C_25
    9  A    between atoms: C_14  and  C_18
   10  A    between atoms: C_17  and  C_19
   11  A    between atoms: C_19  and  C_27
   12  A    between atoms: C_20  and  C_25
                            x       y       z     vdW  Elec       q    Type
                         _______ _______ _______ _____ _____    ______ ____

>  <TORSDO>
F 12

$$$$
