=
 OpenBabel10262420103D

 27 31  0  0  1  0  0  0  0  0999 V2000
  184.9100  178.6820  139.4060 C   0  0  2  0  0  3  0  0  0  0  0  0
  185.3820  178.5080  140.8110 C   0  0  0  0  0  0  0  0  0  0  0  0
  187.2750  178.2540  139.5190 N   0  0  0  0  0  0  0  0  0  0  0  0
  187.3960  177.8760  144.3540 N   0  0  0  0  0  0  0  0  0  0  0  0
  189.7440  177.4110  145.0680 C   0  0  0  0  0  1  0  0  0  0  0  0
  184.6260  178.5500  141.9950 C   0  0  0  0  0  3  0  0  0  0  0  0
  188.9940  177.7370  142.3780 S   0  0  0  0  0  0  0  0  0  0  0  0
  187.3690  176.8900  137.0840 N   0  0  0  0  0  0  0  0  0  0  0  0
  189.4360  178.6390  138.4590 C   0  0  0  0  0  1  0  0  0  0  0  0
  187.1880  175.6970  136.2680 C   0  0  0  0  0  1  0  0  0  0  0  0
  187.3780  178.0420  142.0410 C   0  0  0  0  0  0  0  0  0  0  0  0
  188.6990  177.6680  144.0440 C   0  0  0  0  0  0  0  0  0  0  0  0
  186.6610  178.0860  143.2310 C   0  0  0  0  0  0  0  0  0  0  0  0
  186.1970  178.5000  138.5590 C   0  0  1  0  0  3  0  0  0  0  0  0
  186.7290  178.2520  140.8250 C   0  0  0  0  0  0  0  0  0  0  0  0
  188.2270  176.4650  138.1930 C   0  0  0  0  0  2  0  0  0  0  0  0
  185.2790  178.3370  143.2280 C   0  0  0  0  0  3  0  0  0  0  0  0
  185.1300  177.7180  136.4650 C   0  0  0  0  0  1  0  0  0  0  0  0
  186.0530  177.3040  137.6070 C   0  0  1  0  0  3  0  0  0  0  0  0
  188.5300  177.6260  139.1340 C   0  0  2  0  0  3  0  0  0  0  0  0
  184.3220  180.0060  139.1980 N   0  0  0  0  0  2  0  0  0  0  0  0
  180.4190  180.7570  137.8080 C   0  0  0  0  0  3  0  0  0  0  0  0
  182.9950  180.2660  138.7240 C   0  0  0  0  0  0  0  0  0  0  0  0
  182.2190  179.2060  138.2500 C   0  0  0  0  0  3  0  0  0  0  0  0
  180.9250  179.4560  137.7890 C   0  0  0  0  0  3  0  0  0  0  0  0
  181.2230  181.7920  138.2890 C   0  0  0  0  0  3  0  0  0  0  0  0
  182.4810  181.5290  138.7330 N   0  0  0  0  0  0  0  0  0  0  0  0
  1 21  1  1  0  0  0
  1  2  1  0  0  0  0
  2 15  2  0  0  0  0
  2  6  1  0  0  0  0
  3 15  1  0  0  0  0
  6 17  2  0  0  0  0
  7 12  1  0  0  0  0
  8 19  1  0  0  0  0
  8 16  1  0  0  0  0
 10  8  1  0  0  0  0
 11  7  1  0  0  0  0
 11 13  2  0  0  0  0
 12  4  2  0  0  0  0
 12  5  1  0  0  0  0
 13  4  1  0  0  0  0
 14  1  1  0  0  0  0
 14  3  1  1  0  0  0
 15 11  1  0  0  0  0
 16 20  1  0  0  0  0
 17 13  1  0  0  0  0
 19 18  1  6  0  0  0
 19 14  1  0  0  0  0
 20  9  1  6  0  0  0
 20  3  1  0  0  0  0
 22 26  2  0  0  0  0
 23 27  2  0  0  0  0
 23 21  1  0  0  0  0
 24 23  1  0  0  0  0
 25 22  1  0  0  0  0
 25 24  2  0  0  0  0
 26 27  1  0  0  0  0
M  END
>  <MODEL>
1

>  <REMARK>
 VINA RESULT:      -7.1      0.000      0.000
  Name = 
  2 active torsions:
  status: ('A' for Active; 'I' for Inactive)
    1  A    between atoms: C_1  and  N_15
    2  A    between atoms: C_9  and  N_15
                            x       y       z     vdW  Elec       q    Type
                         _______ _______ _______ _____ _____    ______ ____

>  <TORSDO>
F 2

$$$$
=
 OpenBabel10262420103D

 27 31  0  0  1  0  0  0  0  0999 V2000
  190.5300  176.9220  139.6420 C   0  0  2  0  0  3  0  0  0  0  0  0
  189.1550  177.2690  139.1800 C   0  0  0  0  0  0  0  0  0  0  0  0
  189.9290  175.7510  137.6270 N   0  0  0  0  0  0  0  0  0  0  0  0
  185.5250  177.7550  137.2830 N   0  0  0  0  0  0  0  0  0  0  0  0
  184.3820  176.8460  135.2560 C   0  0  0  0  0  1  0  0  0  0  0  0
  188.2420  178.1690  139.7600 C   0  0  0  0  0  3  0  0  0  0  0  0
  186.9770  176.0880  136.0230 S   0  0  0  0  0  0  0  0  0  0  0  0
  192.5340  175.6920  136.6220 N   0  0  0  0  0  0  0  0  0  0  0  0
  190.2450  173.7190  136.3180 C   0  0  0  0  0  1  0  0  0  0  0  0
  193.6640  176.3030  135.9340 C   0  0  0  0  0  1  0  0  0  0  0  0
  187.6260  176.7810  137.4090 C   0  0  0  0  0  0  0  0  0  0  0  0
  185.5300  176.9510  136.1920 C   0  0  0  0  0  0  0  0  0  0  0  0
  186.6970  177.6560  137.9610 C   0  0  0  0  0  0  0  0  0  0  0  0
  191.0310  175.9070  138.5800 C   0  0  1  0  0  3  0  0  0  0  0  0
  188.8620  176.5920  138.0250 C   0  0  0  0  0  0  0  0  0  0  0  0
  191.4010  175.8520  135.7070 C   0  0  0  0  0  2  0  0  0  0  0  0
  186.9900  178.3620  139.1390 C   0  0  0  0  0  3  0  0  0  0  0  0
  193.4600  176.3210  138.8190 C   0  0  0  0  0  1  0  0  0  0  0  0
  192.2780  176.4460  137.8630 C   0  0  1  0  0  3  0  0  0  0  0  0
  190.1320  175.2330  136.2830 C   0  0  2  0  0  3  0  0  0  0  0  0
  190.5120  176.3240  140.9780 N   0  0  0  0  0  2  0  0  0  0  0  0
  190.2850  178.4260  144.6190 C   0  0  0  0  0  3  0  0  0  0  0  0
  190.4380  177.0430  142.2150 C   0  0  0  0  0  0  0  0  0  0  0  0
  189.3720  176.7990  143.0840 C   0  0  0  0  0  3  0  0  0  0  0  0
  189.2970  177.4970  144.2910 C   0  0  0  0  0  3  0  0  0  0  0  0
  191.3370  178.6450  143.7270 C   0  0  0  0  0  3  0  0  0  0  0  0
  191.3910  177.9560  142.5550 N   0  0  0  0  0  0  0  0  0  0  0  0
  1 21  1  1  0  0  0
  2  1  1  0  0  0  0
  2  6  1  0  0  0  0
  3 15  1  0  0  0  0
  4 13  1  0  0  0  0
  5 12  1  0  0  0  0
  7 12  1  0  0  0  0
  7 11  1  0  0  0  0
  8 19  1  0  0  0  0
 10  8  1  0  0  0  0
 11 13  2  0  0  0  0
 11 15  1  0  0  0  0
 12  4  2  0  0  0  0
 13 17  1  0  0  0  0
 14  3  1  6  0  0  0
 14  1  1  0  0  0  0
 15  2  2  0  0  0  0
 16 20  1  0  0  0  0
 16  8  1  0  0  0  0
 17  6  2  0  0  0  0
 19 14  1  0  0  0  0
 19 18  1  1  0  0  0
 20  9  1  1  0  0  0
 20  3  1  0  0  0  0
 21 23  1  0  0  0  0
 23 27  2  0  0  0  0
 23 24  1  0  0  0  0
 24 25  2  0  0  0  0
 25 22  1  0  0  0  0
 26 22  2  0  0  0  0
 27 26  1  0  0  0  0
M  END
>  <MODEL>
2

>  <REMARK>
 VINA RESULT:      -6.9      3.490      7.402
  Name = 
  2 active torsions:
  status: ('A' for Active; 'I' for Inactive)
    1  A    between atoms: C_1  and  N_15
    2  A    between atoms: C_9  and  N_15
                            x       y       z     vdW  Elec       q    Type
                         _______ _______ _______ _____ _____    ______ ____

>  <TORSDO>
F 2

$$$$
=
 OpenBabel10262420103D

 27 31  0  0  1  0  0  0  0  0999 V2000
  185.1090  178.5470  139.1920 C   0  0  2  0  0  3  0  0  0  0  0  0
  186.0750  178.4290  140.3220 C   0  0  0  0  0  0  0  0  0  0  0  0
  187.3230  177.9880  138.4330 N   0  0  0  0  0  0  0  0  0  0  0  0
  189.2690  177.8900  142.8760 N   0  0  0  0  0  0  0  0  0  0  0  0
  191.6960  177.3300  142.6810 C   0  0  0  0  0  1  0  0  0  0  0  0
  185.8310  178.5850  141.6970 C   0  0  0  0  0  3  0  0  0  0  0  0
  189.9860  177.5400  140.4600 S   0  0  0  0  0  0  0  0  0  0  0  0
  186.4360  176.4790  136.2570 N   0  0  0  0  0  0  0  0  0  0  0  0
  188.9260  178.1820  136.6080 C   0  0  0  0  0  1  0  0  0  0  0  0
  185.9200  175.2520  135.6650 C   0  0  0  0  0  1  0  0  0  0  0  0
  188.3740  177.9200  140.7370 C   0  0  0  0  0  0  0  0  0  0  0  0
  190.3470  177.5870  142.1130 C   0  0  0  0  0  0  0  0  0  0  0  0
  188.1680  178.0760  142.1030 C   0  0  0  0  0  0  0  0  0  0  0  0
  185.9680  178.2400  137.9370 C   0  0  1  0  0  3  0  0  0  0  0  0
  187.3170  178.0960  139.8450 C   0  0  0  0  0  0  0  0  0  0  0  0
  187.6390  176.0710  136.9880 C   0  0  0  0  0  2  0  0  0  0  0  0
  186.8980  178.4070  142.6030 C   0  0  0  0  0  3  0  0  0  0  0  0
  184.1590  177.4000  136.4700 C   0  0  0  0  0  1  0  0  0  0  0  0
  185.4340  177.0000  137.2050 C   0  0  1  0  0  3  0  0  0  0  0  0
  188.3150  177.2650  137.6520 C   0  0  2  0  0  3  0  0  0  0  0  0
  184.5280  179.8880  139.1200 N   0  0  0  0  0  2  0  0  0  0  0  0
  180.4450  180.7620  138.5770 C   0  0  0  0  0  3  0  0  0  0  0  0
  183.1400  180.1900  138.9330 C   0  0  0  0  0  0  0  0  0  0  0  0
  182.1980  179.1630  139.0360 C   0  0  0  0  0  3  0  0  0  0  0  0
  180.8450  179.4540  138.8560 C   0  0  0  0  0  3  0  0  0  0  0  0
  181.4140  181.7630  138.4820 C   0  0  0  0  0  3  0  0  0  0  0  0
  182.7280  181.4600  138.6600 N   0  0  0  0  0  0  0  0  0  0  0  0
  1 21  1  6  0  0  0
  1  2  1  0  0  0  0
  2  6  1  0  0  0  0
  3 15  1  0  0  0  0
  6 17  2  0  0  0  0
  7 11  1  0  0  0  0
  7 12  1  0  0  0  0
  8 16  1  0  0  0  0
  8 19  1  0  0  0  0
 10  8  1  0  0  0  0
 11 13  2  0  0  0  0
 12  5  1  0  0  0  0
 12  4  2  0  0  0  0
 13 17  1  0  0  0  0
 13  4  1  0  0  0  0
 14  3  1  1  0  0  0
 14  1  1  0  0  0  0
 15  2  2  0  0  0  0
 15 11  1  0  0  0  0
 16 20  1  0  0  0  0
 19 18  1  6  0  0  0
 19 14  1  0  0  0  0
 20  9  1  6  0  0  0
 20  3  1  0  0  0  0
 22 25  1  0  0  0  0
 23 24  1  0  0  0  0
 23 21  1  0  0  0  0
 25 24  2  0  0  0  0
 26 22  2  0  0  0  0
 26 27  1  0  0  0  0
 27 23  2  0  0  0  0
M  END
>  <MODEL>
3

>  <REMARK>
 VINA RESULT:      -6.8      1.347      1.460
  Name = 
  2 active torsions:
  status: ('A' for Active; 'I' for Inactive)
    1  A    between atoms: C_1  and  N_15
    2  A    between atoms: C_9  and  N_15
                            x       y       z     vdW  Elec       q    Type
                         _______ _______ _______ _____ _____    ______ ____

>  <TORSDO>
F 2

$$$$
=
 OpenBabel10262420103D

 27 31  0  0  1  0  0  0  0  0999 V2000
  182.7420  178.5660  140.0250 C   0  0  2  0  0  3  0  0  0  0  0  0
  183.7940  178.5810  141.0820 C   0  0  0  0  0  0  0  0  0  0  0  0
  181.8000  178.6770  142.2360 N   0  0  0  0  0  0  0  0  0  0  0  0
  186.0850  178.7050  144.5090 N   0  0  0  0  0  0  0  0  0  0  0  0
  185.6900  178.8130  146.9730 C   0  0  0  0  0  1  0  0  0  0  0  0
  185.1900  178.5570  140.9220 C   0  0  0  0  0  3  0  0  0  0  0  0
  183.6070  178.7720  145.0860 S   0  0  0  0  0  0  0  0  0  0  0  0
  179.5800  180.1810  141.4550 N   0  0  0  0  0  0  0  0  0  0  0  0
  179.8920  178.0900  143.6350 C   0  0  0  0  0  1  0  0  0  0  0  0
  178.9330  181.4410  141.1120 C   0  0  0  0  0  1  0  0  0  0  0  0
  184.0180  178.7010  143.4590 C   0  0  0  0  0  0  0  0  0  0  0  0
  185.2330  178.7640  145.5610 C   0  0  0  0  0  0  0  0  0  0  0  0
  185.4020  178.6690  143.3360 C   0  0  0  0  0  0  0  0  0  0  0  0
  181.4140  178.6380  140.8240 C   0  0  1  0  0  3  0  0  0  0  0  0
  183.2130  178.6600  142.3220 C   0  0  0  0  0  0  0  0  0  0  0  0
  180.1980  180.4150  142.7630 C   0  0  0  0  0  2  0  0  0  0  0  0
  186.0080  178.5980  142.0710 C   0  0  0  0  0  3  0  0  0  0  0  0
  180.0100  179.6920  139.0770 C   0  0  0  0  0  1  0  0  0  0  0  0
  180.6290  179.9050  140.4550 C   0  0  1  0  0  3  0  0  0  0  0  0
  180.9030  179.1630  143.2740 C   0  0  2  0  0  3  0  0  0  0  0  0
  182.8090  177.3470  139.2190 N   0  0  0  0  0  2  0  0  0  0  0  0
  184.1160  177.1060  135.2230 C   0  0  0  0  0  3  0  0  0  0  0  0
  183.2490  177.2670  137.8570 C   0  0  0  0  0  0  0  0  0  0  0  0
  184.6150  177.1470  137.5870 C   0  0  0  0  0  3  0  0  0  0  0  0
  185.0470  177.0680  136.2620 C   0  0  0  0  0  3  0  0  0  0  0  0
  182.7590  177.2260  135.5300 C   0  0  0  0  0  3  0  0  0  0  0  0
  182.3580  177.3030  136.8270 N   0  0  0  0  0  0  0  0  0  0  0  0
  1 21  1  1  0  0  0
  1 14  1  0  0  0  0
  1  2  1  0  0  0  0
  2 15  1  0  0  0  0
  3 15  1  0  0  0  0
  3 20  1  0  0  0  0
  4 12  2  0  0  0  0
  6  2  2  0  0  0  0
  6 17  1  0  0  0  0
  7 12  1  0  0  0  0
  8 16  1  0  0  0  0
 10  8  1  0  0  0  0
 11  7  1  0  0  0  0
 12  5  1  0  0  0  0
 13 11  1  0  0  0  0
 13  4  1  0  0  0  0
 14  3  1  1  0  0  0
 15 11  2  0  0  0  0
 16 20  1  0  0  0  0
 17 13  2  0  0  0  0
 19 18  1  6  0  0  0
 19 14  1  0  0  0  0
 19  8  1  0  0  0  0
 20  9  1  6  0  0  0
 22 26  2  0  0  0  0
 22 25  1  0  0  0  0
 23 21  1  0  0  0  0
 24 23  1  0  0  0  0
 25 24  2  0  0  0  0
 26 27  1  0  0  0  0
 27 23  2  0  0  0  0
M  END
>  <MODEL>
4

>  <REMARK>
 VINA RESULT:      -6.6      3.015      5.832
  Name = 
  2 active torsions:
  status: ('A' for Active; 'I' for Inactive)
    1  A    between atoms: C_1  and  N_15
    2  A    between atoms: C_9  and  N_15
                            x       y       z     vdW  Elec       q    Type
                         _______ _______ _______ _____ _____    ______ ____

>  <TORSDO>
F 2

$$$$
=
 OpenBabel10262420103D

 27 31  0  0  1  0  0  0  0  0999 V2000
  186.7370  178.2140  141.6760 C   0  0  2  0  0  3  0  0  0  0  0  0
  186.5080  178.0540  143.1420 C   0  0  0  0  0  0  0  0  0  0  0  0
  188.7810  178.3790  142.9340 N   0  0  0  0  0  0  0  0  0  0  0  0
  186.6740  177.6680  147.2450 N   0  0  0  0  0  0  0  0  0  0  0  0
  188.4270  177.7480  149.0230 C   0  0  0  0  0  1  0  0  0  0  0  0
  185.2970  177.8140  143.8140 C   0  0  0  0  0  3  0  0  0  0  0  0
  188.9960  178.0850  146.2900 S   0  0  0  0  0  0  0  0  0  0  0  0
  190.3700  177.2750  140.9190 N   0  0  0  0  0  0  0  0  0  0  0  0
  191.0060  179.3710  143.0230 C   0  0  0  0  0  1  0  0  0  0  0  0
  190.9110  176.1420  140.1820 C   0  0  0  0  0  1  0  0  0  0  0  0
  187.7190  178.0040  145.2020 C   0  0  0  0  0  0  0  0  0  0  0  0
  187.9700  177.8160  147.6110 C   0  0  0  0  0  0  0  0  0  0  0  0
  186.5370  177.7760  145.8980 C   0  0  0  0  0  0  0  0  0  0  0  0
  188.2690  178.4240  141.5620 C   0  0  1  0  0  3  0  0  0  0  0  0
  187.6990  178.1410  143.8150 C   0  0  0  0  0  0  0  0  0  0  0  0
  190.6710  176.9920  142.3250 C   0  0  0  0  0  2  0  0  0  0  0  0
  185.3130  177.6750  145.2180 C   0  0  0  0  0  3  0  0  0  0  0  0
  188.5700  177.5670  139.2590 C   0  0  0  0  0  1  0  0  0  0  0  0
  188.9080  177.3070  140.7230 C   0  0  1  0  0  3  0  0  0  0  0  0
  190.1800  178.1150  143.2330 C   0  0  2  0  0  3  0  0  0  0  0  0
  186.0040  179.3620  141.1410 N   0  0  0  0  0  2  0  0  0  0  0  0
  182.2980  179.1930  139.1490 C   0  0  0  0  0  3  0  0  0  0  0  0
  184.7450  179.3060  140.4590 C   0  0  0  0  0  0  0  0  0  0  0  0
  183.7580  178.4300  140.9170 C   0  0  0  0  0  3  0  0  0  0  0  0
  182.5300  178.3740  140.2560 C   0  0  0  0  0  3  0  0  0  0  0  0
  183.3060  180.0580  138.7190 C   0  0  0  0  0  3  0  0  0  0  0  0
  184.4970  180.0960  139.3770 N   0  0  0  0  0  0  0  0  0  0  0  0
  1 21  1  1  0  0  0
  1  2  1  0  0  0  0
  2  6  2  0  0  0  0
  2 15  1  0  0  0  0
  3 20  1  0  0  0  0
  3 15  1  0  0  0  0
  4 12  2  0  0  0  0
  6 17  1  0  0  0  0
  7 12  1  0  0  0  0
  8 16  1  0  0  0  0
 10  8  1  0  0  0  0
 11 13  1  0  0  0  0
 11  7  1  0  0  0  0
 12  5  1  0  0  0  0
 13  4  1  0  0  0  0
 14  1  1  0  0  0  0
 14  3  1  1  0  0  0
 15 11  2  0  0  0  0
 16 20  1  0  0  0  0
 17 13  2  0  0  0  0
 19 18  1  6  0  0  0
 19  8  1  0  0  0  0
 19 14  1  0  0  0  0
 20  9  1  6  0  0  0
 22 25  1  0  0  0  0
 23 24  1  0  0  0  0
 23 21  1  0  0  0  0
 25 24  2  0  0  0  0
 26 22  2  0  0  0  0
 26 27  1  0  0  0  0
 27 23  2  0  0  0  0
M  END
>  <MODEL>
5

>  <REMARK>
 VINA RESULT:      -6.6      2.246      3.587
  Name = 
  2 active torsions:
  status: ('A' for Active; 'I' for Inactive)
    1  A    between atoms: C_1  and  N_15
    2  A    between atoms: C_9  and  N_15
                            x       y       z     vdW  Elec       q    Type
                         _______ _______ _______ _____ _____    ______ ____

>  <TORSDO>
F 2

$$$$
=
 OpenBabel10262420103D

 27 31  0  0  1  0  0  0  0  0999 V2000
  187.6490  177.7480  143.3160 C   0  0  2  0  0  3  0  0  0  0  0  0
  188.0990  177.8460  141.8980 C   0  0  0  0  0  0  0  0  0  0  0  0
  189.6480  176.4720  142.9130 N   0  0  0  0  0  0  0  0  0  0  0  0
  189.9650  177.6730  138.2240 N   0  0  0  0  0  0  0  0  0  0  0  0
  191.9750  176.5600  137.2410 C   0  0  0  0  0  1  0  0  0  0  0  0
  187.5190  178.5780  140.8480 C   0  0  0  0  0  3  0  0  0  0  0  0
  191.2260  176.2730  139.9350 S   0  0  0  0  0  0  0  0  0  0  0  0
  190.6780  176.8580  145.4800 N   0  0  0  0  0  0  0  0  0  0  0  0
  190.9440  174.5140  143.5680 C   0  0  0  0  0  1  0  0  0  0  0  0
  191.3810  177.6500  146.4800 C   0  0  0  0  0  1  0  0  0  0  0  0
  189.8520  177.0820  140.4630 C   0  0  0  0  0  0  0  0  0  0  0  0
  191.0500  176.8720  138.3610 C   0  0  0  0  0  0  0  0  0  0  0  0
  189.2980  177.7860  139.4010 C   0  0  0  0  0  0  0  0  0  0  0  0
  188.7070  176.8260  143.9780 C   0  0  1  0  0  3  0  0  0  0  0  0
  189.2470  177.1170  141.7180 C   0  0  0  0  0  0  0  0  0  0  0  0
  191.5830  176.8100  144.3290 C   0  0  0  0  0  2  0  0  0  0  0  0
  188.1280  178.5440  139.5760 C   0  0  0  0  0  3  0  0  0  0  0  0
  188.4950  177.6600  146.3000 C   0  0  0  0  0  1  0  0  0  0  0  0
  189.4400  177.5670  145.1060 C   0  0  1  0  0  3  0  0  0  0  0  0
  190.9900  175.9840  143.1920 C   0  0  2  0  0  3  0  0  0  0  0  0
  186.3080  177.1690  143.4140 N   0  0  0  0  0  2  0  0  0  0  0  0
  182.7130  179.3430  143.6950 C   0  0  0  0  0  3  0  0  0  0  0  0
  185.0830  177.9060  143.5050 C   0  0  0  0  0  0  0  0  0  0  0  0
  184.7050  178.4530  144.7340 C   0  0  0  0  0  3  0  0  0  0  0  0
  183.5130  179.1740  144.8260 C   0  0  0  0  0  3  0  0  0  0  0  0
  183.1220  178.7830  142.4830 C   0  0  0  0  0  3  0  0  0  0  0  0
  184.2860  178.0830  142.4140 N   0  0  0  0  0  0  0  0  0  0  0  0
  1 21  1  6  0  0  0
  1 14  1  0  0  0  0
  2  1  1  0  0  0  0
  3 20  1  0  0  0  0
  4 12  2  0  0  0  0
  4 13  1  0  0  0  0
  5 12  1  0  0  0  0
  6  2  2  0  0  0  0
  7 11  1  0  0  0  0
  8 10  1  0  0  0  0
 11 15  2  0  0  0  0
 12  7  1  0  0  0  0
 13 17  2  0  0  0  0
 13 11  1  0  0  0  0
 14  3  1  6  0  0  0
 14 19  1  0  0  0  0
 15  2  1  0  0  0  0
 15  3  1  0  0  0  0
 16  8  1  0  0  0  0
 17  6  1  0  0  0  0
 19  8  1  0  0  0  0
 19 18  1  1  0  0  0
 20  9  1  1  0  0  0
 20 16  1  0  0  0  0
 21 23  1  0  0  0  0
 22 25  1  0  0  0  0
 23 24  1  0  0  0  0
 24 25  2  0  0  0  0
 26 22  2  0  0  0  0
 27 26  1  0  0  0  0
 27 23  2  0  0  0  0
M  END
>  <MODEL>
6

>  <REMARK>
 VINA RESULT:      -6.6      3.225      6.372
  Name = 
  2 active torsions:
  status: ('A' for Active; 'I' for Inactive)
    1  A    between atoms: C_1  and  N_15
    2  A    between atoms: C_9  and  N_15
                            x       y       z     vdW  Elec       q    Type
                         _______ _______ _______ _____ _____    ______ ____

>  <TORSDO>
F 2

$$$$
=
 OpenBabel10262420103D

 27 31  0  0  1  0  0  0  0  0999 V2000
  189.0510  177.4770  141.6220 C   0  0  2  0  0  3  0  0  0  0  0  0
  188.0520  177.7710  140.5540 C   0  0  0  0  0  0  0  0  0  0  0  0
  189.7500  176.6440  139.4760 N   0  0  0  0  0  0  0  0  0  0  0  0
  185.8290  178.2490  137.1130 N   0  0  0  0  0  0  0  0  0  0  0  0
  186.0270  177.6230  134.7030 C   0  0  0  0  0  1  0  0  0  0  0  0
  186.8310  178.4590  140.6680 C   0  0  0  0  0  3  0  0  0  0  0  0
  187.9820  176.9860  136.6190 S   0  0  0  0  0  0  0  0  0  0  0  0
  192.4730  177.0160  139.9700 N   0  0  0  0  0  0  0  0  0  0  0  0
  191.0260  174.9250  138.3100 C   0  0  0  0  0  1  0  0  0  0  0  0
  193.6670  177.8470  140.0400 C   0  0  0  0  0  1  0  0  0  0  0  0
  187.7210  177.4720  138.2060 C   0  0  0  0  0  0  0  0  0  0  0  0
  186.5180  177.6620  136.1040 C   0  0  0  0  0  0  0  0  0  0  0  0
  186.5040  178.1400  138.2860 C   0  0  0  0  0  0  0  0  0  0  0  0
  190.1830  176.7260  140.8720 C   0  0  1  0  0  3  0  0  0  0  0  0
  188.4980  177.2920  139.3490 C   0  0  0  0  0  0  0  0  0  0  0  0
  191.9380  177.2330  138.6230 C   0  0  0  0  0  2  0  0  0  0  0  0
  186.0420  178.6430  139.5130 C   0  0  0  0  0  3  0  0  0  0  0  0
  192.0550  177.3180  142.3810 C   0  0  0  0  0  1  0  0  0  0  0  0
  191.5050  177.5030  140.9710 C   0  0  1  0  0  3  0  0  0  0  0  0
  190.6820  176.4010  138.3860 C   0  0  2  0  0  3  0  0  0  0  0  0
  188.4760  176.6460  142.6800 N   0  0  0  0  0  2  0  0  0  0  0  0
  187.9400  177.7920  146.6970 C   0  0  0  0  0  3  0  0  0  0  0  0
  188.2980  177.0370  144.0470 C   0  0  0  0  0  0  0  0  0  0  0  0
  187.0140  177.3270  144.5140 C   0  0  0  0  0  3  0  0  0  0  0  0
  186.8370  177.7070  145.8450 C   0  0  0  0  0  3  0  0  0  0  0  0
  189.2090  177.4950  146.1970 C   0  0  0  0  0  3  0  0  0  0  0  0
  189.3610  177.1270  144.8960 N   0  0  0  0  0  0  0  0  0  0  0  0
  1 21  1  1  0  0  0
  2  6  1  0  0  0  0
  2  1  1  0  0  0  0
  4 13  1  0  0  0  0
  5 12  1  0  0  0  0
  7 11  1  0  0  0  0
  8 10  1  0  0  0  0
  8 19  1  0  0  0  0
 11 13  2  0  0  0  0
 11 15  1  0  0  0  0
 12  7  1  0  0  0  0
 12  4  2  0  0  0  0
 13 17  1  0  0  0  0
 14  3  1  6  0  0  0
 14 19  1  0  0  0  0
 14  1  1  0  0  0  0
 15  3  1  0  0  0  0
 15  2  2  0  0  0  0
 16  8  1  0  0  0  0
 17  6  2  0  0  0  0
 19 18  1  1  0  0  0
 20  9  1  1  0  0  0
 20 16  1  0  0  0  0
 20  3  1  0  0  0  0
 21 23  1  0  0  0  0
 23 24  1  0  0  0  0
 23 27  2  0  0  0  0
 24 25  2  0  0  0  0
 25 22  1  0  0  0  0
 26 22  2  0  0  0  0
 27 26  1  0  0  0  0
M  END
>  <MODEL>
7

>  <REMARK>
 VINA RESULT:      -6.5      3.067      7.038
  Name = 
  2 active torsions:
  status: ('A' for Active; 'I' for Inactive)
    1  A    between atoms: C_1  and  N_15
    2  A    between atoms: C_9  and  N_15
                            x       y       z     vdW  Elec       q    Type
                         _______ _______ _______ _____ _____    ______ ____

>  <TORSDO>
F 2

$$$$
=
 OpenBabel10262420103D

 27 31  0  0  1  0  0  0  0  0999 V2000
  187.3820  177.8170  141.3760 C   0  0  2  0  0  3  0  0  0  0  0  0
  187.6830  177.5710  142.8160 C   0  0  0  0  0  0  0  0  0  0  0  0
  189.7480  177.7760  141.8100 N   0  0  0  0  0  0  0  0  0  0  0  0
  189.2810  176.8980  146.5580 N   0  0  0  0  0  0  0  0  0  0  0  0
  191.5570  176.7530  147.5790 C   0  0  0  0  0  1  0  0  0  0  0  0
  186.7800  177.3570  143.8710 C   0  0  0  0  0  3  0  0  0  0  0  0
  191.1300  177.2420  144.8440 S   0  0  0  0  0  0  0  0  0  0  0  0
  190.4140  176.7210  139.3110 N   0  0  0  0  0  0  0  0  0  0  0  0
  191.9280  178.6280  141.1270 C   0  0  0  0  0  1  0  0  0  0  0  0
  190.5620  175.6110  138.3800 C   0  0  0  0  0  1  0  0  0  0  0  0
  189.5460  177.3100  144.2910 C   0  0  0  0  0  0  0  0  0  0  0  0
  190.6300  176.9430  146.4340 C   0  0  0  0  0  0  0  0  0  0  0  0
  188.6790  177.1040  145.3590 C   0  0  0  0  0  0  0  0  0  0  0  0
  188.7830  177.9440  140.7210 C   0  0  1  0  0  3  0  0  0  0  0  0
  189.0400  177.5420  143.0140 C   0  0  0  0  0  0  0  0  0  0  0  0
  191.1760  176.3260  140.4980 C   0  0  0  0  0  2  0  0  0  0  0  0
  187.2880  177.1220  145.1660 C   0  0  0  0  0  3  0  0  0  0  0  0
  188.1670  177.2300  138.4320 C   0  0  0  0  0  1  0  0  0  0  0  0
  188.9870  176.8520  139.6610 C   0  0  1  0  0  3  0  0  0  0  0  0
  191.1360  177.4110  141.5690 C   0  0  2  0  0  3  0  0  0  0  0  0
  186.5990  179.0400  141.1920 N   0  0  0  0  0  2  0  0  0  0  0  0
  182.6080  179.2260  139.8630 C   0  0  0  0  0  3  0  0  0  0  0  0
  185.2430  179.1040  140.7350 C   0  0  0  0  0  0  0  0  0  0  0  0
  184.2280  178.5670  141.5310 C   0  0  0  0  0  3  0  0  0  0  0  0
  182.9050  178.6290  141.0890 C   0  0  0  0  0  3  0  0  0  0  0  0
  183.6480  179.7530  139.0940 C   0  0  0  0  0  3  0  0  0  0  0  0
  184.9300  179.6820  139.5410 N   0  0  0  0  0  0  0  0  0  0  0  0
  1 21  1  1  0  0  0
  1  2  1  0  0  0  0
  2 15  2  0  0  0  0
  2  6  1  0  0  0  0
  3 15  1  0  0  0  0
  6 17  2  0  0  0  0
  7 12  1  0  0  0  0
  8 19  1  0  0  0  0
  8 16  1  0  0  0  0
 10  8  1  0  0  0  0
 11  7  1  0  0  0  0
 11 13  2  0  0  0  0
 12  4  2  0  0  0  0
 12  5  1  0  0  0  0
 13  4  1  0  0  0  0
 14  1  1  0  0  0  0
 14  3  1  1  0  0  0
 15 11  1  0  0  0  0
 16 20  1  0  0  0  0
 17 13  1  0  0  0  0
 19 18  1  6  0  0  0
 19 14  1  0  0  0  0
 20  9  1  6  0  0  0
 20  3  1  0  0  0  0
 22 25  1  0  0  0  0
 23 21  1  0  0  0  0
 23 24  1  0  0  0  0
 25 24  2  0  0  0  0
 26 27  1  0  0  0  0
 26 22  2  0  0  0  0
 27 23  2  0  0  0  0
M  END
>  <MODEL>
8

>  <REMARK>
 VINA RESULT:      -6.3      2.187      3.409
  Name = 
  2 active torsions:
  status: ('A' for Active; 'I' for Inactive)
    1  A    between atoms: C_1  and  N_15
    2  A    between atoms: C_9  and  N_15
                            x       y       z     vdW  Elec       q    Type
                         _______ _______ _______ _____ _____    ______ ____

>  <TORSDO>
F 2

$$$$
=
 OpenBabel10262420103D

 27 31  0  0  1  0  0  0  0  0999 V2000
  189.6150  177.3060  139.5860 C   0  0  2  0  0  3  0  0  0  0  0  0
  188.3350  177.9380  140.0190 C   0  0  0  0  0  0  0  0  0  0  0  0
  187.8090  176.8170  138.0740 N   0  0  0  0  0  0  0  0  0  0  0  0
  184.5050  179.3780  140.5330 N   0  0  0  0  0  0  0  0  0  0  0  0
  182.3110  179.2110  139.3500 C   0  0  0  0  0  1  0  0  0  0  0  0
  188.1000  178.7530  141.1400 C   0  0  0  0  0  3  0  0  0  0  0  0
  184.6490  177.9490  138.4320 S   0  0  0  0  0  0  0  0  0  0  0  0
  189.4420  176.7050  135.8100 N   0  0  0  0  0  0  0  0  0  0  0  0
  186.8970  175.1970  136.4980 C   0  0  0  0  0  1  0  0  0  0  0  0
  190.1850  177.3330  134.7260 C   0  0  0  0  0  1  0  0  0  0  0  0
  186.0570  178.1490  139.3260 C   0  0  0  0  0  0  0  0  0  0  0  0
  183.7570  178.9090  139.5050 C   0  0  0  0  0  0  0  0  0  0  0  0
  185.7890  178.9510  140.4300 C   0  0  0  0  0  0  0  0  0  0  0  0
  189.2380  176.5660  138.2770 C   0  0  1  0  0  3  0  0  0  0  0  0
  187.3400  177.6450  139.1220 C   0  0  0  0  0  0  0  0  0  0  0  0
  188.0860  177.2510  135.7070 C   0  0  0  0  0  2  0  0  0  0  0  0
  186.8030  179.2650  141.3500 C   0  0  0  0  0  3  0  0  0  0  0  0
  191.4710  176.5880  137.2060 C   0  0  0  0  0  1  0  0  0  0  0  0
  190.0450  177.1170  137.0920 C   0  0  1  0  0  3  0  0  0  0  0  0
  187.1700  176.6640  136.7760 C   0  0  2  0  0  3  0  0  0  0  0  0
  190.1210  176.3740  140.5950 N   0  0  0  0  0  2  0  0  0  0  0  0
  190.9830  177.3090  144.6090 C   0  0  0  0  0  3  0  0  0  0  0  0
  190.4160  176.6960  141.9590 C   0  0  0  0  0  0  0  0  0  0  0  0
  189.6990  176.0690  142.9800 C   0  0  0  0  0  3  0  0  0  0  0  0
  189.9850  176.3800  144.3110 C   0  0  0  0  0  3  0  0  0  0  0  0
  191.6810  177.9170  143.5630 C   0  0  0  0  0  3  0  0  0  0  0  0
  191.3860  177.6010  142.2730 N   0  0  0  0  0  0  0  0  0  0  0  0
  1  2  1  0  0  0  0
  1 21  1  1  0  0  0
  2  6  1  0  0  0  0
  3 15  1  0  0  0  0
  5 12  1  0  0  0  0
  6 17  2  0  0  0  0
  7 11  1  0  0  0  0
  7 12  1  0  0  0  0
  8 19  1  0  0  0  0
 10  8  1  0  0  0  0
 11 13  2  0  0  0  0
 12  4  2  0  0  0  0
 13  4  1  0  0  0  0
 13 17  1  0  0  0  0
 14  3  1  6  0  0  0
 14  1  1  0  0  0  0
 15 11  1  0  0  0  0
 15  2  2  0  0  0  0
 16  8  1  0  0  0  0
 16 20  1  0  0  0  0
 19 18  1  1  0  0  0
 19 14  1  0  0  0  0
 20  9  1  6  0  0  0
 20  3  1  0  0  0  0
 21 23  1  0  0  0  0
 23 27  2  0  0  0  0
 23 24  1  0  0  0  0
 24 25  2  0  0  0  0
 25 22  1  0  0  0  0
 26 22  2  0  0  0  0
 27 26  1  0  0  0  0
M  END
>  <MODEL>
9

>  <REMARK>
 VINA RESULT:      -6.1      2.318      6.623
  Name = 
  2 active torsions:
  status: ('A' for Active; 'I' for Inactive)
    1  A    between atoms: C_1  and  N_15
    2  A    between atoms: C_9  and  N_15
                            x       y       z     vdW  Elec       q    Type
                         _______ _______ _______ _____ _____    ______ ____

>  <TORSDO>
F 2

$$$$
