=
 OpenBabel10262420533D

 28 32  0  0  1  0  0  0  0  0999 V2000
  191.0750  177.9140  144.0760 N   0  0  0  0  0  0  0  0  0  0  0  0
  185.6550  178.1450  143.1060 C   0  0  0  0  0  2  0  0  0  0  0  0
  189.3670  178.0930  148.0740 C   0  0  0  0  0  1  0  0  0  0  0  0
  184.9240  178.5990  145.4640 C   0  0  0  0  0  0  0  0  0  0  0  0
  187.2930  177.8410  144.9960 C   0  0  1  0  0  3  0  0  0  0  0  0
  183.3500  178.9100  143.6200 C   0  0  0  0  0  0  0  0  0  0  0  0
  186.0840  178.6490  144.4900 C   0  0  1  0  0  3  0  0  0  0  0  0
  186.3740  177.6210  147.1900 C   0  0  0  0  0  2  0  0  0  0  0  0
  183.6660  178.7710  145.0500 C   0  0  0  0  0  3  0  0  0  0  0  0
  189.6800  176.8870  145.8770 C   0  0  2  0  0  3  0  0  0  0  0  0
  188.5220  178.1950  144.1270 C   0  0  0  0  0  2  0  0  0  0  0  0
  185.1940  178.5430  146.9300 C   0  0  0  0  0  2  0  0  0  0  0  0
  191.7410  175.8490  145.2560 C   0  0  0  0  0  2  0  0  0  0  0  0
  188.6840  177.2920  146.9730 C   0  0  2  0  0  3  0  0  0  0  0  0
  190.9810  176.4410  146.3690 N   0  0  0  0  0  2  0  0  0  0  0  0
  182.1550  179.0560  143.2540 O   0  0  0  0  0  0  0  0  0  0  0  0
  184.4490  178.9310  142.6020 C   0  0  0  0  0  2  0  0  0  0  0  0
  187.5450  178.0760  146.4420 N   0  0  1  0  0  0  0  0  0  0  0  0
  191.4480  176.5110  143.8940 C   0  0  0  0  0  2  0  0  0  0  0  0
  189.8420  178.0410  144.8950 C   0  0  2  0  0  3  0  0  0  0  0  0
  190.9500  178.5290  142.7570 C   0  0  0  0  0  2  0  0  0  0  0  0
  190.8280  177.4590  141.6850 C   0  0  1  0  0  3  0  0  0  0  0  0
  189.9640  177.2880  139.4220 C   0  0  0  0  0  0  0  0  0  0  0  0
  189.5910  177.6830  140.8390 C   0  0  0  0  0  2  0  0  0  0  0  0
  191.9940  177.5480  140.7300 C   0  0  0  0  0  2  0  0  0  0  0  0
  191.4630  177.0450  139.4050 C   0  0  0  0  0  2  0  0  0  0  0  0
  189.2320  176.0220  139.0250 C   0  0  0  0  0  1  0  0  0  0  0  0
  189.6070  178.4080  138.4650 C   0  0  0  0  0  1  0  0  0  0  0  0
  1 20  1  0  0  0  0
  4 12  1  0  0  0  0
  5 11  1  6  0  0  0
  5 18  1  0  0  0  0
  6  9  1  0  0  0  0
  7  2  1  6  0  0  0
  7  5  1  0  0  0  0
  7  4  1  0  0  0  0
  9  4  2  0  0  0  0
 10 15  1  1  0  0  0
 10 14  1  0  0  0  0
 12  8  1  0  0  0  0
 13 15  1  0  0  0  0
 14  3  1  1  0  0  0
 16  6  2  0  0  0  0
 17  2  1  0  0  0  0
 17  6  1  0  0  0  0
 18 14  1  0  0  0  0
 18  8  1  1  0  0  0
 19  1  1  0  0  0  0
 19 13  1  0  0  0  0
 20 11  1  6  0  0  0
 20 10  1  0  0  0  0
 21  1  1  0  0  0  0
 22 21  1  1  0  0  0
 23 24  1  0  0  0  0
 24 22  1  0  0  0  0
 25 22  1  0  0  0  0
 26 23  1  0  0  0  0
 26 25  1  0  0  0  0
 27 23  1  0  0  0  0
 28 23  1  0  0  0  0
M  END
>  <MODEL>
1

>  <REMARK>
 VINA RESULT:      -9.3      0.000      0.000
  Name = 
  2 active torsions:
  status: ('A' for Active; 'I' for Inactive)
    1  A    between atoms: N_1  and  C_2
    2  A    between atoms: C_2  and  C_3
                            x       y       z     vdW  Elec       q    Type
                         _______ _______ _______ _____ _____    ______ ____

>  <TORSDO>
F 2

$$$$
=
 OpenBabel10262420533D

 28 32  0  0  1  0  0  0  0  0999 V2000
  189.8320  177.7860  141.8370 N   0  0  0  0  0  0  0  0  0  0  0  0
  184.3520  178.1330  142.3120 C   0  0  0  0  0  2  0  0  0  0  0  0
  189.2340  178.1020  146.1360 C   0  0  0  0  0  1  0  0  0  0  0  0
  184.2730  178.6600  144.7650 C   0  0  0  0  0  0  0  0  0  0  0  0
  186.4220  177.8310  143.7150 C   0  0  1  0  0  3  0  0  0  0  0  0
  182.2760  178.9680  143.3880 C   0  0  0  0  0  0  0  0  0  0  0  0
  185.1380  178.6570  143.5200 C   0  0  1  0  0  3  0  0  0  0  0  0
  186.1060  177.6860  146.0790 C   0  0  0  0  0  2  0  0  0  0  0  0
  182.9530  178.8540  144.6890 C   0  0  0  0  0  3  0  0  0  0  0  0
  188.9380  176.8370  143.9690 C   0  0  2  0  0  3  0  0  0  0  0  0
  187.3860  178.1330  142.5450 C   0  0  0  0  0  2  0  0  0  0  0  0
  184.9160  178.6310  146.1100 C   0  0  0  0  0  2  0  0  0  0  0  0
  190.7450  175.7330  142.8620 C   0  0  0  0  0  2  0  0  0  0  0  0
  188.2710  177.2940  145.2750 C   0  0  2  0  0  3  0  0  0  0  0  0
  190.3140  176.3700  144.1170 N   0  0  0  0  0  2  0  0  0  0  0  0
  181.0300  179.1360  143.3440 O   0  0  0  0  0  0  0  0  0  0  0  0
  183.0700  178.9380  142.1180 C   0  0  0  0  0  2  0  0  0  0  0  0
  187.0480  178.0940  145.0380 N   0  0  1  0  0  0  0  0  0  0  0  0
  190.1180  176.3700  141.6040 C   0  0  0  0  0  2  0  0  0  0  0  0
  188.8580  177.9630  142.9460 C   0  0  2  0  0  3  0  0  0  0  0  0
  189.3770  178.3730  140.5800 C   0  0  0  0  0  2  0  0  0  0  0  0
  189.2360  177.2970  139.5150 C   0  0  1  0  0  3  0  0  0  0  0  0
  188.1800  177.0640  137.3410 C   0  0  0  0  0  0  0  0  0  0  0  0
  187.9120  177.4280  138.7890 C   0  0  0  0  0  2  0  0  0  0  0  0
  190.2980  177.4740  138.4560 C   0  0  0  0  0  2  0  0  0  0  0  0
  189.6840  176.9340  137.1830 C   0  0  0  0  0  2  0  0  0  0  0  0
  187.5110  175.7460  137.0040 C   0  0  0  0  0  1  0  0  0  0  0  0
  187.6530  178.1540  136.4290 C   0  0  0  0  0  1  0  0  0  0  0  0
  1 20  1  0  0  0  0
  4 12  1  0  0  0  0
  5 11  1  6  0  0  0
  5 18  1  0  0  0  0
  6  9  1  0  0  0  0
  7  2  1  6  0  0  0
  7  5  1  0  0  0  0
  7  4  1  0  0  0  0
  8 12  1  0  0  0  0
  9  4  2  0  0  0  0
 10 15  1  1  0  0  0
 10 14  1  0  0  0  0
 13 15  1  0  0  0  0
 14  3  1  6  0  0  0
 16  6  2  0  0  0  0
 17  2  1  0  0  0  0
 17  6  1  0  0  0  0
 18 14  1  0  0  0  0
 18  8  1  1  0  0  0
 19  1  1  0  0  0  0
 19 13  1  0  0  0  0
 20 11  1  6  0  0  0
 20 10  1  0  0  0  0
 21  1  1  0  0  0  0
 22 21  1  1  0  0  0
 23 24  1  0  0  0  0
 24 22  1  0  0  0  0
 25 22  1  0  0  0  0
 26 23  1  0  0  0  0
 26 25  1  0  0  0  0
 27 23  1  0  0  0  0
 28 23  1  0  0  0  0
M  END
>  <MODEL>
2

>  <REMARK>
 VINA RESULT:      -9.3      1.529      2.096
  Name = 
  2 active torsions:
  status: ('A' for Active; 'I' for Inactive)
    1  A    between atoms: N_1  and  C_2
    2  A    between atoms: C_2  and  C_3
                            x       y       z     vdW  Elec       q    Type
                         _______ _______ _______ _____ _____    ______ ____

>  <TORSDO>
F 2

$$$$
=
 OpenBabel10262420533D

 28 32  0  0  1  0  0  0  0  0999 V2000
  188.8040  178.0090  138.8520 N   0  0  0  0  0  0  0  0  0  0  0  0
  185.7960  177.8590  143.4680 C   0  0  0  0  0  2  0  0  0  0  0  0
  191.7970  177.4420  141.9590 C   0  0  0  0  0  1  0  0  0  0  0  0
  187.7050  177.8940  145.0980 C   0  0  0  0  0  0  0  0  0  0  0  0
  188.1400  177.4430  142.6460 C   0  0  1  0  0  3  0  0  0  0  0  0
  185.4270  178.3180  145.8800 C   0  0  0  0  0  0  0  0  0  0  0  0
  187.2780  178.1960  143.6750 C   0  0  1  0  0  3  0  0  0  0  0  0
  189.7600  176.8200  144.2880 C   0  0  0  0  0  2  0  0  0  0  0  0
  186.8450  178.0040  146.1150 C   0  0  0  0  0  3  0  0  0  0  0  0
  189.7980  176.6030  140.6630 C   0  0  2  0  0  3  0  0  0  0  0  0
  187.8670  178.0350  141.2440 C   0  0  0  0  0  2  0  0  0  0  0  0
  189.1440  177.6530  145.4010 C   0  0  0  0  0  2  0  0  0  0  0  0
  189.9460  175.8680  138.3940 C   0  0  0  0  0  2  0  0  0  0  0  0
  190.4430  176.7480  142.0490 C   0  0  2  0  0  3  0  0  0  0  0  0
  190.7190  176.2170  139.5980 N   0  0  0  0  0  2  0  0  0  0  0  0
  184.6350  178.4010  146.8540 O   0  0  0  0  0  0  0  0  0  0  0  0
  184.9340  178.5920  144.4920 C   0  0  0  0  0  2  0  0  0  0  0  0
  189.5830  177.4890  143.0010 N   0  0  1  0  0  0  0  0  0  0  0  0
  188.6490  176.6900  138.2390 C   0  0  0  0  0  2  0  0  0  0  0  0
  189.0760  177.8970  140.3090 C   0  0  2  0  0  3  0  0  0  0  0  0
  187.6090  178.7940  138.5540 C   0  0  0  0  0  2  0  0  0  0  0  0
  186.3730  177.9100  138.5920 C   0  0  1  0  0  3  0  0  0  0  0  0
  183.9740  178.2020  138.8400 C   0  0  0  0  0  0  0  0  0  0  0  0
  185.3100  178.5080  139.4920 C   0  0  0  0  0  2  0  0  0  0  0  0
  185.7470  177.8360  137.2190 C   0  0  0  0  0  2  0  0  0  0  0  0
  184.2690  177.6240  137.4670 C   0  0  0  0  0  2  0  0  0  0  0  0
  183.2090  177.1930  139.6710 C   0  0  0  0  0  1  0  0  0  0  0  0
  183.1640  179.4750  138.7050 C   0  0  0  0  0  1  0  0  0  0  0  0
  1 20  1  0  0  0  0
  2 17  1  0  0  0  0
  4 12  1  0  0  0  0
  4  9  2  0  0  0  0
  5 11  1  6  0  0  0
  5 18  1  0  0  0  0
  5  7  1  0  0  0  0
  6  9  1  0  0  0  0
  6 16  2  0  0  0  0
  7  2  1  1  0  0  0
  7  4  1  0  0  0  0
  8 12  1  0  0  0  0
 10 15  1  6  0  0  0
 10 14  1  0  0  0  0
 13 15  1  0  0  0  0
 14  3  1  6  0  0  0
 14 18  1  0  0  0  0
 17  6  1  0  0  0  0
 18  8  1  1  0  0  0
 19 13  1  0  0  0  0
 19  1  1  0  0  0  0
 20 10  1  0  0  0  0
 20 11  1  1  0  0  0
 21  1  1  0  0  0  0
 22 21  1  6  0  0  0
 22 24  1  0  0  0  0
 23 24  1  0  0  0  0
 23 27  1  0  0  0  0
 25 26  1  0  0  0  0
 25 22  1  0  0  0  0
 26 23  1  0  0  0  0
 28 23  1  0  0  0  0
M  END
>  <MODEL>
3

>  <REMARK>
 VINA RESULT:      -8.2      2.766      5.071
  Name = 
  2 active torsions:
  status: ('A' for Active; 'I' for Inactive)
    1  A    between atoms: N_1  and  C_2
    2  A    between atoms: C_2  and  C_3
                            x       y       z     vdW  Elec       q    Type
                         _______ _______ _______ _____ _____    ______ ____

>  <TORSDO>
F 2

$$$$
=
 OpenBabel10262420533D

 28 32  0  0  1  0  0  0  0  0999 V2000
  187.4490  178.5800  139.6780 N   0  0  0  0  0  0  0  0  0  0  0  0
  187.2160  177.2970  145.0320 C   0  0  0  0  0  2  0  0  0  0  0  0
  191.6190  177.8780  140.7030 C   0  0  0  0  0  1  0  0  0  0  0  0
  189.6880  177.2950  145.4710 C   0  0  0  0  0  0  0  0  0  0  0  0
  188.8230  177.3140  143.0920 C   0  0  1  0  0  3  0  0  0  0  0  0
  188.1180  177.3000  147.3460 C   0  0  0  0  0  0  0  0  0  0  0  0
  188.5900  177.7740  144.5430 C   0  0  1  0  0  3  0  0  0  0  0  0
  191.0660  176.6320  143.5500 C   0  0  0  0  0  2  0  0  0  0  0  0
  189.4640  177.1280  146.7780 C   0  0  0  0  0  3  0  0  0  0  0  0
  189.2570  177.0260  140.4250 C   0  0  2  0  0  3  0  0  0  0  0  0
  187.8610  178.0930  142.1660 C   0  0  0  0  0  2  0  0  0  0  0  0
  191.0860  177.1860  144.9650 C   0  0  0  0  0  2  0  0  0  0  0  0
  188.2440  176.7020  138.2850 C   0  0  0  0  0  2  0  0  0  0  0  0
  190.5150  177.0170  141.3060 C   0  0  2  0  0  3  0  0  0  0  0  0
  189.5150  176.9380  138.9910 N   0  0  0  0  0  2  0  0  0  0  0  0
  187.9310  177.1210  148.5770 O   0  0  0  0  0  0  0  0  0  0  0  0
  186.9810  177.7370  146.4740 C   0  0  0  0  0  2  0  0  0  0  0  0
  190.2440  177.4780  142.6870 N   0  0  1  0  0  0  0  0  0  0  0  0
  187.0320  177.3720  138.9650 C   0  0  0  0  0  2  0  0  0  0  0  0
  188.4280  178.2620  140.7500 C   0  0  2  0  0  3  0  0  0  0  0  0
  186.2520  179.2510  140.1780 C   0  0  0  0  0  2  0  0  0  0  0  0
  185.0040  178.6180  139.5840 C   0  0  1  0  0  3  0  0  0  0  0  0
  182.7410  178.1100  140.3050 C   0  0  0  0  0  0  0  0  0  0  0  0
  184.2040  177.8980  140.6510 C   0  0  0  0  0  2  0  0  0  0  0  0
  184.0870  179.6910  139.0440 C   0  0  0  0  0  2  0  0  0  0  0  0
  182.6910  179.1230  139.1750 C   0  0  0  0  0  2  0  0  0  0  0  0
  182.1190  176.8040  139.8550 C   0  0  0  0  0  1  0  0  0  0  0  0
  181.9990  178.6420  141.5140 C   0  0  0  0  0  1  0  0  0  0  0  0
  1 21  1  0  0  0  0
  1 20  1  0  0  0  0
  2 17  1  0  0  0  0
  4  9  2  0  0  0  0
  5 11  1  6  0  0  0
  5  7  1  0  0  0  0
  6 16  2  0  0  0  0
  7  2  1  1  0  0  0
  7  4  1  0  0  0  0
  8 12  1  0  0  0  0
  9  6  1  0  0  0  0
 10 15  1  6  0  0  0
 10 20  1  0  0  0  0
 10 14  1  0  0  0  0
 12  4  1  0  0  0  0
 13 19  1  0  0  0  0
 13 15  1  0  0  0  0
 14  3  1  6  0  0  0
 14 18  1  0  0  0  0
 17  6  1  0  0  0  0
 18  5  1  0  0  0  0
 18  8  1  1  0  0  0
 19  1  1  0  0  0  0
 20 11  1  1  0  0  0
 22 21  1  1  0  0  0
 22 24  1  0  0  0  0
 23 24  1  0  0  0  0
 23 28  1  0  0  0  0
 25 26  1  0  0  0  0
 25 22  1  0  0  0  0
 26 23  1  0  0  0  0
 27 23  1  0  0  0  0
M  END
>  <MODEL>
4

>  <REMARK>
 VINA RESULT:      -8.1      2.916      6.199
  Name = 
  2 active torsions:
  status: ('A' for Active; 'I' for Inactive)
    1  A    between atoms: N_1  and  C_2
    2  A    between atoms: C_2  and  C_3
                            x       y       z     vdW  Elec       q    Type
                         _______ _______ _______ _____ _____    ______ ____

>  <TORSDO>
F 2

$$$$
=
 OpenBabel10262420533D

 28 32  0  0  1  0  0  0  0  0999 V2000
  188.7720  177.6260  138.2150 N   0  0  0  0  0  0  0  0  0  0  0  0
  186.3690  177.4920  143.1730 C   0  0  0  0  0  2  0  0  0  0  0  0
  192.1570  177.5870  140.9490 C   0  0  0  0  0  1  0  0  0  0  0  0
  188.4420  177.8360  144.5450 C   0  0  0  0  0  0  0  0  0  0  0  0
  188.6300  177.2610  142.0880 C   0  0  1  0  0  3  0  0  0  0  0  0
  186.2400  178.0780  145.5820 C   0  0  0  0  0  0  0  0  0  0  0  0
  187.8190  177.9920  143.1730 C   0  0  1  0  0  3  0  0  0  0  0  0
  190.4920  176.9240  143.5470 C   0  0  0  0  0  2  0  0  0  0  0  0
  187.7020  177.9280  145.6550 C   0  0  0  0  0  3  0  0  0  0  0  0
  190.1230  176.4590  139.9630 C   0  0  2  0  0  3  0  0  0  0  0  0
  188.1290  177.7230  140.7000 C   0  0  0  0  0  2  0  0  0  0  0  0
  189.9250  177.7650  144.6780 C   0  0  0  0  0  2  0  0  0  0  0  0
  190.0810  175.5860  137.7390 C   0  0  0  0  0  2  0  0  0  0  0  0
  190.9080  176.7660  141.2470 C   0  0  2  0  0  3  0  0  0  0  0  0
  190.9480  176.0960  138.8150 N   0  0  0  0  0  2  0  0  0  0  0  0
  185.5650  178.1470  146.6410 O   0  0  0  0  0  0  0  0  0  0  0  0
  185.5590  178.2020  144.2530 C   0  0  0  0  0  2  0  0  0  0  0  0
  190.0910  177.4790  142.2550 N   0  0  1  0  0  0  0  0  0  0  0  0
  188.6920  176.2580  137.7020 C   0  0  0  0  0  2  0  0  0  0  0  0
  189.2260  177.6450  139.6300 C   0  0  2  0  0  3  0  0  0  0  0  0
  187.4710  178.2620  138.0250 C   0  0  0  0  0  2  0  0  0  0  0  0
  186.4670  177.2580  137.4820 C   0  0  1  0  0  3  0  0  0  0  0  0
  184.0520  177.0620  137.3090 C   0  0  0  0  0  0  0  0  0  0  0  0
  185.1860  177.2850  138.2930 C   0  0  0  0  0  2  0  0  0  0  0  0
  186.0650  177.6350  136.0760 C   0  0  0  0  0  2  0  0  0  0  0  0
  184.6510  177.1210  135.9150 C   0  0  0  0  0  2  0  0  0  0  0  0
  183.4220  175.7030  137.5420 C   0  0  0  0  0  1  0  0  0  0  0  0
  183.0070  178.1460  137.4730 C   0  0  0  0  0  1  0  0  0  0  0  0
  1 20  1  0  0  0  0
  2 17  1  0  0  0  0
  4 12  1  0  0  0  0
  4  9  2  0  0  0  0
  5 11  1  6  0  0  0
  5 18  1  0  0  0  0
  5  7  1  0  0  0  0
  6  9  1  0  0  0  0
  6 16  2  0  0  0  0
  7  2  1  1  0  0  0
  7  4  1  0  0  0  0
  8 12  1  0  0  0  0
 10 15  1  6  0  0  0
 10 14  1  0  0  0  0
 13 15  1  0  0  0  0
 14  3  1  6  0  0  0
 14 18  1  0  0  0  0
 17  6  1  0  0  0  0
 18  8  1  1  0  0  0
 19 13  1  0  0  0  0
 19  1  1  0  0  0  0
 20 10  1  0  0  0  0
 20 11  1  1  0  0  0
 21  1  1  0  0  0  0
 22 21  1  1  0  0  0
 22 24  1  0  0  0  0
 23 28  1  0  0  0  0
 23 27  1  0  0  0  0
 23 24  1  0  0  0  0
 25 22  1  0  0  0  0
 26 25  1  0  0  0  0
 26 23  1  0  0  0  0
M  END
>  <MODEL>
5

>  <REMARK>
 VINA RESULT:      -8.0      3.269      5.606
  Name = 
  2 active torsions:
  status: ('A' for Active; 'I' for Inactive)
    1  A    between atoms: N_1  and  C_2
    2  A    between atoms: C_2  and  C_3
                            x       y       z     vdW  Elec       q    Type
                         _______ _______ _______ _____ _____    ______ ____

>  <TORSDO>
F 2

$$$$
=
 OpenBabel10262420533D

 28 32  0  0  1  0  0  0  0  0999 V2000
  182.5070  177.7420  139.3840 N   0  0  0  0  0  0  0  0  0  0  0  0
  186.8630  178.0450  142.7480 C   0  0  0  0  0  2  0  0  0  0  0  0
  180.7120  178.6710  143.2370 C   0  0  0  0  0  1  0  0  0  0  0  0
  185.5920  178.2190  144.9060 C   0  0  0  0  0  0  0  0  0  0  0  0
  184.3900  178.5270  142.6990 C   0  0  1  0  0  3  0  0  0  0  0  0
  187.9880  177.7310  144.9380 C   0  0  0  0  0  0  0  0  0  0  0  0
  185.5210  177.8010  143.4510 C   0  0  1  0  0  3  0  0  0  0  0  0
  183.4150  179.3420  144.7220 C   0  0  0  0  0  2  0  0  0  0  0  0
  186.7340  178.1330  145.5940 C   0  0  0  0  0  3  0  0  0  0  0  0
  182.1990  179.3160  141.3000 C   0  0  2  0  0  3  0  0  0  0  0  0
  184.1740  177.8280  141.3370 C   0  0  0  0  0  2  0  0  0  0  0  0
  184.3380  178.5550  145.6380 C   0  0  0  0  0  2  0  0  0  0  0  0
  181.3370  179.9040  139.1500 C   0  0  0  0  0  2  0  0  0  0  0  0
  182.0390  179.2980  142.8270 C   0  0  2  0  0  3  0  0  0  0  0  0
  180.9910  179.6770  140.5630 N   0  0  0  0  0  2  0  0  0  0  0  0
  189.0520  177.6720  145.6060 O   0  0  0  0  0  0  0  0  0  0  0  0
  187.9920  177.3390  143.4920 C   0  0  0  0  0  2  0  0  0  0  0  0
  183.1420  178.5800  143.5050 N   0  0  1  0  0  0  0  0  0  0  0  0
  182.4890  179.0070  138.6500 C   0  0  0  0  0  2  0  0  0  0  0  0
  182.7300  177.9650  140.8360 C   0  0  2  0  0  3  0  0  0  0  0  0
  183.5170  176.8770  138.7790 C   0  0  0  0  0  2  0  0  0  0  0  0
  184.3000  177.6390  137.7220 C   0  0  1  0  0  3  0  0  0  0  0  0
  186.5430  177.6070  136.7900 C   0  0  0  0  0  0  0  0  0  0  0  0
  185.7680  177.7170  138.0910 C   0  0  0  0  0  2  0  0  0  0  0  0
  184.2510  176.8990  136.4070 C   0  0  0  0  0  2  0  0  0  0  0  0
  185.5440  177.2500  135.7030 C   0  0  0  0  0  2  0  0  0  0  0  0
  187.2070  178.9300  136.4670 C   0  0  0  0  0  1  0  0  0  0  0  0
  187.5930  176.5210  136.9070 C   0  0  0  0  0  1  0  0  0  0  0  0
  1 20  1  0  0  0  0
  2 17  1  0  0  0  0
  4  9  2  0  0  0  0
  4 12  1  0  0  0  0
  5 11  1  6  0  0  0
  5  7  1  0  0  0  0
  5 18  1  0  0  0  0
  6  9  1  0  0  0  0
  6 16  2  0  0  0  0
  7  2  1  6  0  0  0
  7  4  1  0  0  0  0
  8 12  1  0  0  0  0
 10 15  1  6  0  0  0
 10 14  1  0  0  0  0
 13 15  1  0  0  0  0
 14  3  1  6  0  0  0
 14 18  1  0  0  0  0
 17  6  1  0  0  0  0
 18  8  1  1  0  0  0
 19 13  1  0  0  0  0
 19  1  1  0  0  0  0
 20 10  1  0  0  0  0
 20 11  1  6  0  0  0
 21  1  1  0  0  0  0
 22 24  1  0  0  0  0
 22 21  1  1  0  0  0
 23 28  1  0  0  0  0
 23 24  1  0  0  0  0
 25 22  1  0  0  0  0
 26 25  1  0  0  0  0
 26 23  1  0  0  0  0
 27 23  1  0  0  0  0
M  END
>  <MODEL>
6

>  <REMARK>
 VINA RESULT:      -7.9      4.062      6.967
  Name = 
  2 active torsions:
  status: ('A' for Active; 'I' for Inactive)
    1  A    between atoms: N_1  and  C_2
    2  A    between atoms: C_2  and  C_3
                            x       y       z     vdW  Elec       q    Type
                         _______ _______ _______ _____ _____    ______ ____

>  <TORSDO>
F 2

$$$$
=
 OpenBabel10262420533D

 28 32  0  0  1  0  0  0  0  0999 V2000
  182.0610  177.8330  139.7320 N   0  0  0  0  0  0  0  0  0  0  0  0
  186.7370  178.1330  142.6330 C   0  0  0  0  0  2  0  0  0  0  0  0
  180.6590  178.5660  143.7850 C   0  0  0  0  0  1  0  0  0  0  0  0
  185.6960  178.1900  144.9170 C   0  0  0  0  0  0  0  0  0  0  0  0
  184.2620  178.5470  142.8620 C   0  0  1  0  0  3  0  0  0  0  0  0
  188.0930  177.7690  144.6800 C   0  0  0  0  0  0  0  0  0  0  0  0
  185.4830  177.8250  143.4610 C   0  0  1  0  0  3  0  0  0  0  0  0
  183.4860  179.2570  145.0060 C   0  0  0  0  0  2  0  0  0  0  0  0
  186.9060  178.1110  145.4790 C   0  0  0  0  0  3  0  0  0  0  0  0
  181.9170  179.3250  141.7310 C   0  0  2  0  0  3  0  0  0  0  0  0
  183.9210  177.8940  141.5020 C   0  0  0  0  0  2  0  0  0  0  0  0
  184.5180  178.4630  145.7890 C   0  0  0  0  0  2  0  0  0  0  0  0
  180.8200  179.9690  139.7080 C   0  0  0  0  0  2  0  0  0  0  0  0
  181.9190  179.2460  143.2650 C   0  0  2  0  0  3  0  0  0  0  0  0
  180.6300  179.6800  141.1390 N   0  0  0  0  0  2  0  0  0  0  0  0
  189.2240  177.7170  145.2300 O   0  0  0  0  0  0  0  0  0  0  0  0
  187.9550  177.4330  143.2270 C   0  0  0  0  0  2  0  0  0  0  0  0
  183.1050  178.5340  143.7950 N   0  0  1  0  0  0  0  0  0  0  0  0
  181.9340  179.1240  139.0550 C   0  0  0  0  0  2  0  0  0  0  0  0
  182.4290  178.0090  141.1610 C   0  0  2  0  0  3  0  0  0  0  0  0
  183.0220  177.0210  138.9900 C   0  0  0  0  0  2  0  0  0  0  0  0
  182.5150  175.5940  138.8570 C   0  0  1  0  0  3  0  0  0  0  0  0
  180.6360  174.4540  137.8240 C   0  0  0  0  0  0  0  0  0  0  0  0
  181.0010  175.5630  138.7930 C   0  0  0  0  0  2  0  0  0  0  0  0
  182.9880  174.9970  137.5530 C   0  0  0  0  0  2  0  0  0  0  0  0
  181.9240  173.9920  137.1660 C   0  0  0  0  0  2  0  0  0  0  0  0
  179.9950  173.3010  138.5700 C   0  0  0  0  0  1  0  0  0  0  0  0
  179.6780  174.9820  136.7760 C   0  0  0  0  0  1  0  0  0  0  0  0
  1 20  1  0  0  0  0
  2 17  1  0  0  0  0
  4  9  2  0  0  0  0
  4 12  1  0  0  0  0
  5 11  1  6  0  0  0
  5  7  1  0  0  0  0
  5 18  1  0  0  0  0
  6 16  2  0  0  0  0
  6  9  1  0  0  0  0
  7  2  1  6  0  0  0
  7  4  1  0  0  0  0
  8 12  1  0  0  0  0
 10 15  1  6  0  0  0
 10 14  1  0  0  0  0
 13 15  1  0  0  0  0
 14  3  1  6  0  0  0
 14 18  1  0  0  0  0
 17  6  1  0  0  0  0
 18  8  1  1  0  0  0
 19 13  1  0  0  0  0
 19  1  1  0  0  0  0
 20 11  1  6  0  0  0
 20 10  1  0  0  0  0
 21  1  1  0  0  0  0
 22 21  1  6  0  0  0
 23 27  1  0  0  0  0
 23 24  1  0  0  0  0
 24 22  1  0  0  0  0
 25 22  1  0  0  0  0
 26 25  1  0  0  0  0
 26 23  1  0  0  0  0
 28 23  1  0  0  0  0
M  END
>  <MODEL>
7

>  <REMARK>
 VINA RESULT:      -7.8      4.979      7.996
  Name = 
  2 active torsions:
  status: ('A' for Active; 'I' for Inactive)
    1  A    between atoms: N_1  and  C_2
    2  A    between atoms: C_2  and  C_3
                            x       y       z     vdW  Elec       q    Type
                         _______ _______ _______ _____ _____    ______ ____

>  <TORSDO>
F 2

$$$$
=
 OpenBabel10262420533D

 28 32  0  0  1  0  0  0  0  0999 V2000
  185.5140  178.8750  138.9800 N   0  0  0  0  0  0  0  0  0  0  0  0
  187.3800  177.1950  143.8860 C   0  0  0  0  0  2  0  0  0  0  0  0
  189.8050  178.5480  138.3410 C   0  0  0  0  0  1  0  0  0  0  0  0
  189.8310  177.4240  143.3950 C   0  0  0  0  0  0  0  0  0  0  0  0
  188.1460  177.5210  141.5090 C   0  0  1  0  0  3  0  0  0  0  0  0
  189.0730  177.1280  145.7010 C   0  0  0  0  0  0  0  0  0  0  0  0
  188.4350  177.8490  142.9850 C   0  0  1  0  0  3  0  0  0  0  0  0
  190.4410  177.0500  141.0450 C   0  0  0  0  0  2  0  0  0  0  0  0
  190.1210  177.1410  144.6680 C   0  0  0  0  0  3  0  0  0  0  0  0
  187.5770  177.4720  138.8520 C   0  0  2  0  0  3  0  0  0  0  0  0
  186.8540  178.2570  141.0830 C   0  0  0  0  0  2  0  0  0  0  0  0
  190.9450  177.5000  142.4070 C   0  0  0  0  0  2  0  0  0  0  0  0
  185.8690  177.1960  137.2040 C   0  0  0  0  0  2  0  0  0  0  0  0
  189.0700  177.5340  139.2090 C   0  0  2  0  0  3  0  0  0  0  0  0
  187.2900  177.5150  137.4210 N   0  0  0  0  0  2  0  0  0  0  0  0
  189.3700  176.8430  146.8900 O   0  0  0  0  0  0  0  0  0  0  0  0
  187.6650  177.5040  145.3530 C   0  0  0  0  0  2  0  0  0  0  0  0
  189.2990  177.8630  140.6350 N   0  0  1  0  0  0  0  0  0  0  0  0
  184.9510  177.6840  138.3440 C   0  0  0  0  0  2  0  0  0  0  0  0
  186.8410  178.5870  139.5840 C   0  0  2  0  0  3  0  0  0  0  0  0
  184.5430  179.3780  139.9490 C   0  0  0  0  0  2  0  0  0  0  0  0
  183.1640  178.8100  139.6580 C   0  0  1  0  0  3  0  0  0  0  0  0
  181.0280  178.6300  140.8000 C   0  0  0  0  0  0  0  0  0  0  0  0
  182.5060  178.3120  140.9290 C   0  0  0  0  0  2  0  0  0  0  0  0
  182.2570  179.8980  139.1320 C   0  0  0  0  0  2  0  0  0  0  0  0
  180.8630  179.4980  139.5650 C   0  0  0  0  0  2  0  0  0  0  0  0
  180.2320  177.3500  140.6410 C   0  0  0  0  0  1  0  0  0  0  0  0
  180.5530  179.3790  142.0290 C   0  0  0  0  0  1  0  0  0  0  0  0
  1 20  1  0  0  0  0
  1 21  1  0  0  0  0
  2 17  1  0  0  0  0
  4  9  2  0  0  0  0
  5 11  1  6  0  0  0
  5  7  1  0  0  0  0
  6 16  2  0  0  0  0
  7  4  1  0  0  0  0
  7  2  1  1  0  0  0
  8 12  1  0  0  0  0
  9  6  1  0  0  0  0
 10 15  1  6  0  0  0
 10 14  1  0  0  0  0
 10 20  1  0  0  0  0
 12  4  1  0  0  0  0
 13 15  1  0  0  0  0
 13 19  1  0  0  0  0
 14  3  1  6  0  0  0
 14 18  1  0  0  0  0
 17  6  1  0  0  0  0
 18  8  1  1  0  0  0
 18  5  1  0  0  0  0
 19  1  1  0  0  0  0
 20 11  1  1  0  0  0
 22 21  1  1  0  0  0
 22 24  1  0  0  0  0
 23 24  1  0  0  0  0
 23 28  1  0  0  0  0
 25 26  1  0  0  0  0
 25 22  1  0  0  0  0
 26 23  1  0  0  0  0
 27 23  1  0  0  0  0
M  END
>  <MODEL>
8

>  <REMARK>
 VINA RESULT:      -7.8      3.680      7.594
  Name = 
  2 active torsions:
  status: ('A' for Active; 'I' for Inactive)
    1  A    between atoms: N_1  and  C_2
    2  A    between atoms: C_2  and  C_3
                            x       y       z     vdW  Elec       q    Type
                         _______ _______ _______ _____ _____    ______ ____

>  <TORSDO>
F 2

$$$$
=
 OpenBabel10262420533D

 28 32  0  0  1  0  0  0  0  0999 V2000
  189.5050  176.8590  139.3450 N   0  0  0  0  0  0  0  0  0  0  0  0
  191.3930  177.1330  144.5150 C   0  0  0  0  0  2  0  0  0  0  0  0
  185.9280  177.7580  141.6520 C   0  0  0  0  0  1  0  0  0  0  0  0
  189.1670  177.2910  145.6640 C   0  0  0  0  0  0  0  0  0  0  0  0
  189.3260  177.6170  143.1590 C   0  0  1  0  0  3  0  0  0  0  0  0
  191.1770  176.8020  146.9660 C   0  0  0  0  0  0  0  0  0  0  0  0
  189.8850  176.8840  144.3920 C   0  0  1  0  0  3  0  0  0  0  0  0
  187.4190  178.4160  144.3550 C   0  0  0  0  0  2  0  0  0  0  0  0
  189.7660  177.1990  146.8550 C   0  0  0  0  0  3  0  0  0  0  0  0
  188.2170  178.4180  140.8110 C   0  0  2  0  0  3  0  0  0  0  0  0
  189.8730  176.9290  141.8860 C   0  0  0  0  0  2  0  0  0  0  0  0
  187.7140  177.6220  145.6170 C   0  0  0  0  0  2  0  0  0  0  0  0
  188.6320  179.0230  138.5370 C   0  0  0  0  0  2  0  0  0  0  0  0
  187.2660  178.3880  142.0170 C   0  0  2  0  0  3  0  0  0  0  0  0
  187.5860  178.7860  139.5460 N   0  0  0  0  0  2  0  0  0  0  0  0
  191.7220  176.7380  148.0990 O   0  0  0  0  0  0  0  0  0  0  0  0
  191.9540  176.4210  145.7430 C   0  0  0  0  0  2  0  0  0  0  0  0
  187.8410  177.6640  143.1750 N   0  0  1  0  0  0  0  0  0  0  0  0
  189.8760  178.1300  138.7220 C   0  0  0  0  0  2  0  0  0  0  0  0
  188.9180  177.0710  140.6930 C   0  0  2  0  0  3  0  0  0  0  0  0
  190.6860  175.9980  139.3650 C   0  0  0  0  0  2  0  0  0  0  0  0
  191.3730  176.0130  138.0100 C   0  0  1  0  0  3  0  0  0  0  0  0
  193.5240  175.3590  137.0910 C   0  0  0  0  0  0  0  0  0  0  0  0
  192.8680  176.2050  138.1660 C   0  0  0  0  0  2  0  0  0  0  0  0
  191.2060  174.6740  137.3300 C   0  0  0  0  0  2  0  0  0  0  0  0
  192.4320  174.5150  136.4580 C   0  0  0  0  0  2  0  0  0  0  0  0
  194.1590  176.2500  136.0420 C   0  0  0  0  0  1  0  0  0  0  0  0
  194.5780  174.4650  137.7110 C   0  0  0  0  0  1  0  0  0  0  0  0
  1 21  1  0  0  0  0
  1 20  1  0  0  0  0
  2 17  1  0  0  0  0
  4  9  2  0  0  0  0
  5 11  1  6  0  0  0
  5 18  1  0  0  0  0
  5  7  1  0  0  0  0
  6 16  2  0  0  0  0
  7  2  1  1  0  0  0
  7  4  1  0  0  0  0
  8 12  1  0  0  0  0
  9  6  1  0  0  0  0
 10 15  1  6  0  0  0
 10 14  1  0  0  0  0
 12  4  1  0  0  0  0
 13 19  1  0  0  0  0
 13 15  1  0  0  0  0
 14  3  1  6  0  0  0
 14 18  1  0  0  0  0
 17  6  1  0  0  0  0
 18  8  1  1  0  0  0
 19  1  1  0  0  0  0
 20 10  1  0  0  0  0
 20 11  1  1  0  0  0
 22 24  1  0  0  0  0
 22 21  1  1  0  0  0
 23 28  1  0  0  0  0
 23 24  1  0  0  0  0
 25 22  1  0  0  0  0
 26 23  1  0  0  0  0
 26 25  1  0  0  0  0
 27 23  1  0  0  0  0
M  END
>  <MODEL>
9

>  <REMARK>
 VINA RESULT:      -7.7      3.266      5.778
  Name = 
  2 active torsions:
  status: ('A' for Active; 'I' for Inactive)
    1  A    between atoms: N_1  and  C_2
    2  A    between atoms: C_2  and  C_3
                            x       y       z     vdW  Elec       q    Type
                         _______ _______ _______ _____ _____    ______ ____

>  <TORSDO>
F 2

$$$$
