=
 OpenBabel10262421473D

 30 32  0  0  1  0  0  0  0  0999 V2000
  184.5700  178.8080  144.7200 C   0  0  0  0  0  0  0  0  0  0  0  0
  184.3220  178.8910  146.0520 N   0  0  0  0  0  0  0  0  0  0  0  0
  183.2990  179.3810  143.6460 Cl  0  0  0  0  0  0  0  0  0  0  0  0
  186.7150  177.8050  145.2480 C   0  0  0  0  0  0  0  0  0  0  0  0
  185.2130  178.4470  146.9690 C   0  0  0  0  0  3  0  0  0  0  0  0
  185.7930  178.2490  144.2650 C   0  0  0  0  0  0  0  0  0  0  0  0
  186.3900  177.9110  146.5660 N   0  0  0  0  0  0  0  0  0  0  0  0
  190.6330  176.8780  143.3400 C   0  0  0  0  0  3  0  0  0  0  0  0
  191.0710  177.3530  144.5050 C   0  0  0  0  0  3  0  0  0  0  0  0
  189.4310  176.0030  143.2310 C   0  0  0  0  0  2  0  0  0  0  0  0
  189.0750  177.1280  145.9610 C   0  0  0  0  0  3  0  0  0  0  0  0
  188.2030  176.7210  143.6760 C   0  0  0  0  0  3  0  0  0  0  0  0
  190.4080  177.1470  145.8140 C   0  0  0  0  0  0  0  0  0  0  0  0
  188.0370  177.2290  144.9030 C   0  0  0  0  0  0  0  0  0  0  0  0
  192.4180  175.0320  146.5810 O   0  0  0  0  0  0  0  0  0  0  0  0
  192.1670  176.1390  147.3830 C   0  0  0  0  0  0  0  0  0  0  0  0
  191.1880  177.1180  147.0170 N   0  0  0  0  0  2  0  0  0  0  0  0
  192.8050  176.2780  148.4570 O   0  0  0  0  0  1  0  0  0  0  0  0
  186.2200  178.9960  141.9120 C   0  0  0  0  0  3  0  0  0  0  0  0
  186.1250  178.0480  142.8320 C   0  0  0  0  0  3  0  0  0  0  0  0
  186.5650  178.6280  140.5130 C   0  0  0  0  0  2  0  0  0  0  0  0
  187.9350  177.9430  140.4600 C   0  0  2  0  0  3  0  0  0  0  0  0
  189.0540  178.9360  140.7430 C   0  0  0  0  0  1  0  0  0  0  0  0
  189.8190  177.4750  137.4510 C   0  0  0  0  0  2  0  0  0  0  0  0
  188.1860  177.2280  139.1990 N   0  0  0  0  0  0  0  0  0  0  0  0
  188.6430  178.3460  137.1090 C   0  0  2  0  0  0  0  0  0  0  0  0
  187.5650  177.9690  138.1020 C   0  0  0  0  0  2  0  0  0  0  0  0
  189.6200  177.1340  138.9100 C   0  0  0  0  0  2  0  0  0  0  0  0
  188.1790  178.0830  135.6920 C   0  0  0  0  0  1  0  0  0  0  0  0
  188.9790  179.6780  137.2610 F   0  0  0  0  0  0  0  0  0  0  0  0
  1  2  1  0  0  0  0
  2  5  2  0  0  0  0
  3  1  1  0  0  0  0
  4  7  2  0  0  0  0
  6  1  2  0  0  0  0
  6  4  1  0  0  0  0
  7  5  1  0  0  0  0
  8  9  2  0  0  0  0
  9 13  1  0  0  0  0
 10  8  1  0  0  0  0
 10 12  1  0  0  0  0
 12 14  2  0  0  0  0
 13 11  2  0  0  0  0
 13 17  1  0  0  0  0
 14  4  1  0  0  0  0
 14 11  1  0  0  0  0
 15 16  2  0  0  0  0
 16 18  1  0  0  0  0
 17 16  1  0  0  0  0
 19 20  2  0  0  0  0
 20  6  1  0  0  0  0
 21 19  1  0  0  0  0
 22 21  1  0  0  0  0
 22 23  1  6  0  0  0
 24 28  1  0  0  0  0
 25 22  1  0  0  0  0
 26 29  1  6  0  0  0
 26 30  1  0  0  0  0
 26 24  1  0  0  0  0
 26 27  1  0  0  0  0
 27 25  1  0  0  0  0
 28 25  1  0  0  0  0
M  END
>  <MODEL>
1

>  <REMARK>
 VINA RESULT:      -9.4      0.000      0.000
  Name = 
  6 active torsions:
  status: ('A' for Active; 'I' for Inactive)
    1  A    between atoms: C_1  and  C_4
    2  A    between atoms: C_4  and  C_27
    3  A    between atoms: C_5  and  C_22
    4  A    between atoms: N_8  and  C_27
    5  A    between atoms: N_16  and  C_25
    6  A    between atoms: C_19  and  C_29
                            x       y       z     vdW  Elec       q    Type
                         _______ _______ _______ _____ _____    ______ ____

>  <TORSDO>
F 6

$$$$
=
 OpenBabel10262421473D

 30 32  0  0  1  0  0  0  0  0999 V2000
  184.4990  178.8110  144.8600 C   0  0  0  0  0  0  0  0  0  0  0  0
  184.3180  178.8800  146.2030 N   0  0  0  0  0  0  0  0  0  0  0  0
  183.1740  179.3900  143.8560 Cl  0  0  0  0  0  0  0  0  0  0  0  0
  186.6690  177.8090  145.2700 C   0  0  0  0  0  0  0  0  0  0  0  0
  185.2550  178.4300  147.0690 C   0  0  0  0  0  3  0  0  0  0  0  0
  185.6980  178.2600  144.3380 C   0  0  0  0  0  0  0  0  0  0  0  0
  186.4100  177.9020  146.6030 N   0  0  0  0  0  0  0  0  0  0  0  0
  190.4960  176.9210  143.1680 C   0  0  0  0  0  3  0  0  0  0  0  0
  190.9870  177.3710  144.3220 C   0  0  0  0  0  3  0  0  0  0  0  0
  189.2890  176.0490  143.0930 C   0  0  0  0  0  2  0  0  0  0  0  0
  189.0580  177.1140  145.8610 C   0  0  0  0  0  3  0  0  0  0  0  0
  188.0830  176.7590  143.6090 C   0  0  0  0  0  3  0  0  0  0  0  0
  190.3830  177.1370  145.6550 C   0  0  0  0  0  0  0  0  0  0  0  0
  187.9740  177.2390  144.8530 C   0  0  0  0  0  0  0  0  0  0  0  0
  192.2830  174.9080  146.3790 O   0  0  0  0  0  0  0  0  0  0  0  0
  192.1450  176.0460  147.1640 C   0  0  0  0  0  0  0  0  0  0  0  0
  191.2160  177.0800  146.8200 N   0  0  0  0  0  2  0  0  0  0  0  0
  192.8420  176.1640  148.2040 O   0  0  0  0  0  1  0  0  0  0  0  0
  186.0520  179.0330  141.9820 C   0  0  0  0  0  3  0  0  0  0  0  0
  185.9580  178.0730  142.8880 C   0  0  0  0  0  3  0  0  0  0  0  0
  186.3190  178.6780  140.5630 C   0  0  0  0  0  2  0  0  0  0  0  0
  185.0060  178.4160  139.8180 C   0  0  2  0  0  3  0  0  0  0  0  0
  185.2320  178.3620  138.3130 C   0  0  0  0  0  1  0  0  0  0  0  0
  181.5640  179.4010  139.7860 C   0  0  0  0  0  2  0  0  0  0  0  0
  183.9420  179.3760  140.1460 N   0  0  0  0  0  0  0  0  0  0  0  0
  182.2190  180.0300  138.5870 C   0  0  2  0  0  0  0  0  0  0  0  0
  183.6720  180.2050  138.9720 C   0  0  0  0  0  2  0  0  0  0  0  0
  182.6930  178.6950  140.5000 C   0  0  0  0  0  2  0  0  0  0  0  0
  181.5840  181.3690  138.2740 C   0  0  0  0  0  1  0  0  0  0  0  0
  182.1180  179.1880  137.4950 F   0  0  0  0  0  0  0  0  0  0  0  0
  1  2  1  0  0  0  0
  2  5  2  0  0  0  0
  3  1  1  0  0  0  0
  4  7  2  0  0  0  0
  6  1  2  0  0  0  0
  6  4  1  0  0  0  0
  7  5  1  0  0  0  0
  8  9  2  0  0  0  0
  9 13  1  0  0  0  0
 10  8  1  0  0  0  0
 10 12  1  0  0  0  0
 12 14  2  0  0  0  0
 13 11  2  0  0  0  0
 13 17  1  0  0  0  0
 14  4  1  0  0  0  0
 14 11  1  0  0  0  0
 15 16  2  0  0  0  0
 16 18  1  0  0  0  0
 17 16  1  0  0  0  0
 19 20  2  0  0  0  0
 20  6  1  0  0  0  0
 21 19  1  0  0  0  0
 22 23  1  6  0  0  0
 22 25  1  0  0  0  0
 22 21  1  0  0  0  0
 24 28  1  0  0  0  0
 25 28  1  0  0  0  0
 26 29  1  6  0  0  0
 26 27  1  0  0  0  0
 26 24  1  0  0  0  0
 27 25  1  0  0  0  0
 30 26  1  0  0  0  0
M  END
>  <MODEL>
2

>  <REMARK>
 VINA RESULT:      -9.3      2.556      3.464
  Name = 
  6 active torsions:
  status: ('A' for Active; 'I' for Inactive)
    1  A    between atoms: C_1  and  C_4
    2  A    between atoms: C_4  and  C_27
    3  A    between atoms: C_5  and  C_22
    4  A    between atoms: N_8  and  C_27
    5  A    between atoms: N_16  and  C_25
    6  A    between atoms: C_19  and  C_29
                            x       y       z     vdW  Elec       q    Type
                         _______ _______ _______ _____ _____    ______ ____

>  <TORSDO>
F 6

$$$$
=
 OpenBabel10262421473D

 30 32  0  0  1  0  0  0  0  0999 V2000
  185.4810  178.3130  145.0320 C   0  0  0  0  0  0  0  0  0  0  0  0
  184.9390  178.6290  146.2360 N   0  0  0  0  0  0  0  0  0  0  0  0
  184.3860  178.3100  143.6540 Cl  0  0  0  0  0  0  0  0  0  0  0  0
  187.6110  177.9980  146.1470 C   0  0  0  0  0  0  0  0  0  0  0  0
  185.6790  178.6280  147.3690 C   0  0  0  0  0  3  0  0  0  0  0  0
  186.8570  177.9770  144.9450 C   0  0  0  0  0  0  0  0  0  0  0  0
  186.9950  178.3140  147.3180 N   0  0  0  0  0  0  0  0  0  0  0  0
  191.5760  176.0150  146.5970 C   0  0  0  0  0  3  0  0  0  0  0  0
  191.5860  176.2140  145.2800 C   0  0  0  0  0  3  0  0  0  0  0  0
  191.0400  177.0210  147.5580 C   0  0  0  0  0  2  0  0  0  0  0  0
  189.8940  178.0060  144.9950 C   0  0  0  0  0  3  0  0  0  0  0  0
  189.5830  177.2500  147.3360 C   0  0  0  0  0  3  0  0  0  0  0  0
  191.0190  177.3970  144.5920 C   0  0  0  0  0  0  0  0  0  0  0  0
  189.0630  177.6930  146.1860 C   0  0  0  0  0  0  0  0  0  0  0  0
  190.8410  175.9710  141.9390 O   0  0  0  0  0  1  0  0  0  0  0  0
  191.4820  177.1960  142.0780 C   0  0  0  0  0  0  0  0  0  0  0  0
  191.5820  177.8440  143.3510 N   0  0  0  0  0  2  0  0  0  0  0  0
  191.9940  177.7410  141.0670 O   0  0  0  0  0  0  0  0  0  0  0  0
  187.4650  178.1690  142.5230 C   0  0  0  0  0  3  0  0  0  0  0  0
  187.5230  177.5470  143.6900 C   0  0  0  0  0  3  0  0  0  0  0  0
  188.1950  177.6070  141.3560 C   0  0  0  0  0  2  0  0  0  0  0  0
  187.7450  178.2900  140.0600 C   0  0  2  0  0  3  0  0  0  0  0  0
  186.2460  178.5530  140.0720 C   0  0  0  0  0  1  0  0  0  0  0  0
  189.1690  178.2090  136.7760 C   0  0  0  0  0  2  0  0  0  0  0  0
  188.1310  177.5570  138.8450 N   0  0  0  0  0  0  0  0  0  0  0  0
  187.6820  178.3600  136.6130 C   0  0  2  0  0  0  0  0  0  0  0  0
  187.0780  177.7140  137.8410 C   0  0  0  0  0  2  0  0  0  0  0  0
  189.3700  178.0860  138.2680 C   0  0  0  0  0  2  0  0  0  0  0  0
  187.2100  177.6610  135.3560 C   0  0  0  0  0  1  0  0  0  0  0  0
  187.3430  179.6990  136.5690 F   0  0  0  0  0  0  0  0  0  0  0  0
  1  2  1  0  0  0  0
  2  5  2  0  0  0  0
  3  1  1  0  0  0  0
  4 14  1  0  0  0  0
  4  7  2  0  0  0  0
  6  1  2  0  0  0  0
  6  4  1  0  0  0  0
  7  5  1  0  0  0  0
  8 10  1  0  0  0  0
  9  8  2  0  0  0  0
 11 14  1  0  0  0  0
 12 10  1  0  0  0  0
 13 11  2  0  0  0  0
 13  9  1  0  0  0  0
 14 12  2  0  0  0  0
 15 16  1  0  0  0  0
 16 17  1  0  0  0  0
 17 13  1  0  0  0  0
 18 16  2  0  0  0  0
 19 20  2  0  0  0  0
 20  6  1  0  0  0  0
 21 19  1  0  0  0  0
 22 23  1  1  0  0  0
 22 21  1  0  0  0  0
 24 28  1  0  0  0  0
 25 22  1  0  0  0  0
 26 29  1  6  0  0  0
 26 24  1  0  0  0  0
 26 27  1  0  0  0  0
 27 25  1  0  0  0  0
 28 25  1  0  0  0  0
 30 26  1  0  0  0  0
M  END
>  <MODEL>
3

>  <REMARK>
 VINA RESULT:      -9.2      2.014      2.722
  Name = 
  6 active torsions:
  status: ('A' for Active; 'I' for Inactive)
    1  A    between atoms: C_1  and  C_4
    2  A    between atoms: C_4  and  C_27
    3  A    between atoms: C_5  and  C_22
    4  A    between atoms: N_8  and  C_27
    5  A    between atoms: N_16  and  C_25
    6  A    between atoms: C_19  and  C_29
                            x       y       z     vdW  Elec       q    Type
                         _______ _______ _______ _____ _____    ______ ____

>  <TORSDO>
F 6

$$$$
=
 OpenBabel10262421473D

 30 32  0  0  1  0  0  0  0  0999 V2000
  189.9160  177.1320  146.3340 C   0  0  0  0  0  0  0  0  0  0  0  0
  189.7710  177.2340  147.6790 N   0  0  0  0  0  0  0  0  0  0  0  0
  191.5120  176.6770  145.7470 Cl  0  0  0  0  0  0  0  0  0  0  0  0
  187.5970  177.8010  146.0990 C   0  0  0  0  0  0  0  0  0  0  0  0
  188.5980  177.6110  148.2400 C   0  0  0  0  0  3  0  0  0  0  0  0
  188.8170  177.4210  145.4830 C   0  0  0  0  0  0  0  0  0  0  0  0
  187.5320  177.8910  147.4550 N   0  0  0  0  0  0  0  0  0  0  0  0
  183.8900  179.6600  144.4700 C   0  0  0  0  0  3  0  0  0  0  0  0
  184.6730  179.7760  143.3990 C   0  0  0  0  0  3  0  0  0  0  0  0
  183.8940  178.4520  145.3430 C   0  0  0  0  0  2  0  0  0  0  0  0
  186.4340  178.0840  143.8390 C   0  0  0  0  0  3  0  0  0  0  0  0
  185.2230  178.2680  145.9940 C   0  0  0  0  0  3  0  0  0  0  0  0
  185.6860  178.7810  142.9720 C   0  0  0  0  0  0  0  0  0  0  0  0
  186.3680  178.1010  145.3230 C   0  0  0  0  0  0  0  0  0  0  0  0
  183.7770  179.0760  140.6530 O   0  0  0  0  0  1  0  0  0  0  0  0
  185.1280  178.8090  140.4690 C   0  0  0  0  0  0  0  0  0  0  0  0
  186.0140  178.6430  141.5830 N   0  0  0  0  0  2  0  0  0  0  0  0
  185.5800  178.6990  139.3010 O   0  0  0  0  0  0  0  0  0  0  0  0
  189.6380  178.2140  143.2530 C   0  0  0  0  0  3  0  0  0  0  0  0
  188.8970  177.4100  144.0000 C   0  0  0  0  0  3  0  0  0  0  0  0
  189.6070  178.0720  141.7730 C   0  0  0  0  0  2  0  0  0  0  0  0
  190.5570  176.9580  141.3190 C   0  0  2  0  0  3  0  0  0  0  0  0
  192.0030  177.4340  141.3250 C   0  0  0  0  0  1  0  0  0  0  0  0
  190.5650  177.0970  137.7410 C   0  0  0  0  0  2  0  0  0  0  0  0
  190.2070  176.3850  140.0100 N   0  0  0  0  0  0  0  0  0  0  0  0
  189.2590  177.6790  138.2070 C   0  0  2  0  0  0  0  0  0  0  0  0
  188.9740  177.0100  139.5330 C   0  0  0  0  0  2  0  0  0  0  0  0
  191.2480  176.6480  139.0120 C   0  0  0  0  0  2  0  0  0  0  0  0
  188.1580  177.3830  137.2110 C   0  0  0  0  0  1  0  0  0  0  0  0
  189.3860  179.0440  138.3850 F   0  0  0  0  0  0  0  0  0  0  0  0
  1  2  1  0  0  0  0
  2  5  2  0  0  0  0
  3  1  1  0  0  0  0
  4  7  2  0  0  0  0
  6  4  1  0  0  0  0
  6  1  2  0  0  0  0
  7  5  1  0  0  0  0
  8 10  1  0  0  0  0
  9  8  2  0  0  0  0
 10 12  1  0  0  0  0
 11 14  1  0  0  0  0
 13  9  1  0  0  0  0
 13 11  2  0  0  0  0
 14 12  2  0  0  0  0
 14  4  1  0  0  0  0
 16 15  1  0  0  0  0
 16 17  1  0  0  0  0
 17 13  1  0  0  0  0
 18 16  2  0  0  0  0
 19 20  2  0  0  0  0
 20  6  1  0  0  0  0
 21 19  1  0  0  0  0
 22 23  1  6  0  0  0
 22 21  1  0  0  0  0
 24 26  1  0  0  0  0
 24 28  1  0  0  0  0
 25 22  1  0  0  0  0
 26 29  1  6  0  0  0
 26 30  1  0  0  0  0
 26 27  1  0  0  0  0
 27 25  1  0  0  0  0
 28 25  1  0  0  0  0
M  END
>  <MODEL>
4

>  <REMARK>
 VINA RESULT:      -9.1      3.645      5.455
  Name = 
  6 active torsions:
  status: ('A' for Active; 'I' for Inactive)
    1  A    between atoms: C_1  and  C_4
    2  A    between atoms: C_4  and  C_27
    3  A    between atoms: C_5  and  C_22
    4  A    between atoms: N_8  and  C_27
    5  A    between atoms: N_16  and  C_25
    6  A    between atoms: C_19  and  C_29
                            x       y       z     vdW  Elec       q    Type
                         _______ _______ _______ _____ _____    ______ ____

>  <TORSDO>
F 6

$$$$
=
 OpenBabel10262421473D

 30 32  0  0  1  0  0  0  0  0999 V2000
  184.5360  178.4250  143.2780 C   0  0  0  0  0  0  0  0  0  0  0  0
  183.5480  178.7010  144.1670 N   0  0  0  0  0  0  0  0  0  0  0  0
  184.0640  178.3190  141.5860 Cl  0  0  0  0  0  0  0  0  0  0  0  0
  186.0870  178.3000  145.1380 C   0  0  0  0  0  0  0  0  0  0  0  0
  183.7900  178.7700  145.4970 C   0  0  0  0  0  3  0  0  0  0  0  0
  185.8600  178.2070  143.7410 C   0  0  0  0  0  0  0  0  0  0  0  0
  185.0430  178.5700  145.9690 N   0  0  0  0  0  0  0  0  0  0  0  0
  189.6300  176.7530  147.3530 C   0  0  0  0  0  3  0  0  0  0  0  0
  190.1100  176.6880  146.1120 C   0  0  0  0  0  3  0  0  0  0  0  0
  188.7860  177.8860  147.8290 C   0  0  0  0  0  2  0  0  0  0  0  0
  188.6300  178.2540  144.8810 C   0  0  0  0  0  3  0  0  0  0  0  0
  187.5040  177.9540  147.0700 C   0  0  0  0  0  3  0  0  0  0  0  0
  189.8260  177.6660  145.0340 C   0  0  0  0  0  0  0  0  0  0  0  0
  187.4290  178.1210  145.7440 C   0  0  0  0  0  0  0  0  0  0  0  0
  190.5830  175.7480  142.8320 O   0  0  0  0  0  1  0  0  0  0  0  0
  191.1440  177.0150  142.9340 C   0  0  0  0  0  0  0  0  0  0  0  0
  190.7940  177.9000  144.0040 N   0  0  0  0  0  2  0  0  0  0  0  0
  191.9850  177.3860  142.0760 O   0  0  0  0  0  0  0  0  0  0  0  0
  187.3040  178.3960  141.7030 C   0  0  0  0  0  3  0  0  0  0  0  0
  186.9900  177.8270  142.8560 C   0  0  0  0  0  3  0  0  0  0  0  0
  188.4750  177.8970  140.9340 C   0  0  0  0  0  2  0  0  0  0  0  0
  188.4380  178.4230  139.4950 C   0  0  2  0  0  3  0  0  0  0  0  0
  187.2320  177.8760  138.7430 C   0  0  0  0  0  1  0  0  0  0  0  0
  190.1670  176.9450  136.7300 C   0  0  0  0  0  2  0  0  0  0  0  0
  189.6750  178.1650  138.7430 N   0  0  0  0  0  0  0  0  0  0  0  0
  190.2770  175.9900  137.8860 C   0  0  2  0  0  0  0  0  0  0  0  0
  190.1990  176.8540  139.1260 C   0  0  0  0  0  2  0  0  0  0  0  0
  189.4310  178.1360  137.2980 C   0  0  0  0  0  2  0  0  0  0  0  0
  191.5940  175.2450  137.8370 C   0  0  0  0  0  1  0  0  0  0  0  0
  189.2230  175.0970  137.8660 F   0  0  0  0  0  0  0  0  0  0  0  0
  1  6  2  0  0  0  0
  1  2  1  0  0  0  0
  2  5  2  0  0  0  0
  3  1  1  0  0  0  0
  4 14  1  0  0  0  0
  4  7  2  0  0  0  0
  5  7  1  0  0  0  0
  6  4  1  0  0  0  0
  8 10  1  0  0  0  0
  9  8  2  0  0  0  0
 11 13  2  0  0  0  0
 11 14  1  0  0  0  0
 12 10  1  0  0  0  0
 13  9  1  0  0  0  0
 14 12  2  0  0  0  0
 15 16  1  0  0  0  0
 16 17  1  0  0  0  0
 17 13  1  0  0  0  0
 18 16  2  0  0  0  0
 19 20  2  0  0  0  0
 20  6  1  0  0  0  0
 21 19  1  0  0  0  0
 22 23  1  6  0  0  0
 22 21  1  0  0  0  0
 24 28  1  0  0  0  0
 24 26  1  0  0  0  0
 25 27  1  0  0  0  0
 25 22  1  0  0  0  0
 26 29  1  6  0  0  0
 26 27  1  0  0  0  0
 28 25  1  0  0  0  0
 30 26  1  0  0  0  0
M  END
>  <MODEL>
5

>  <REMARK>
 VINA RESULT:      -9.0      2.134      2.977
  Name = 
  6 active torsions:
  status: ('A' for Active; 'I' for Inactive)
    1  A    between atoms: C_1  and  C_4
    2  A    between atoms: C_4  and  C_27
    3  A    between atoms: C_5  and  C_22
    4  A    between atoms: N_8  and  C_27
    5  A    between atoms: N_16  and  C_25
    6  A    between atoms: C_19  and  C_29
                            x       y       z     vdW  Elec       q    Type
                         _______ _______ _______ _____ _____    ______ ____

>  <TORSDO>
F 6

$$$$
=
 OpenBabel10262421473D

 30 32  0  0  1  0  0  0  0  0999 V2000
  189.3820  177.1550  146.8420 C   0  0  0  0  0  0  0  0  0  0  0  0
  190.5260  176.7530  147.4530 N   0  0  0  0  0  0  0  0  0  0  0  0
  187.9570  177.3090  147.8630 Cl  0  0  0  0  0  0  0  0  0  0  0  0
  190.5980  177.2030  144.7440 C   0  0  0  0  0  0  0  0  0  0  0  0
  191.6730  176.5670  146.7600 C   0  0  0  0  0  3  0  0  0  0  0  0
  189.3780  177.3930  145.4430 C   0  0  0  0  0  0  0  0  0  0  0  0
  191.7010  176.7890  145.4250 N   0  0  0  0  0  0  0  0  0  0  0  0
  191.5960  176.9060  140.4120 C   0  0  0  0  0  3  0  0  0  0  0  0
  190.2730  176.7720  140.3350 C   0  0  0  0  0  3  0  0  0  0  0  0
  192.2540  177.8600  141.3490 C   0  0  0  0  0  2  0  0  0  0  0  0
  189.5100  177.7320  142.4910 C   0  0  0  0  0  3  0  0  0  0  0  0
  191.9630  177.5040  142.7680 C   0  0  0  0  0  3  0  0  0  0  0  0
  189.2920  177.4780  141.1930 C   0  0  0  0  0  0  0  0  0  0  0  0
  190.7310  177.4450  143.2870 C   0  0  0  0  0  0  0  0  0  0  0  0
  188.6680  179.0020  138.6650 O   0  0  0  0  0  0  0  0  0  0  0  0
  187.6700  178.4760  139.4770 C   0  0  0  0  0  0  0  0  0  0  0  0
  187.9850  177.7810  140.6890 N   0  0  0  0  0  2  0  0  0  0  0  0
  186.4660  178.6240  139.1460 O   0  0  0  0  0  1  0  0  0  0  0  0
  186.9920  177.1470  144.7200 C   0  0  0  0  0  3  0  0  0  0  0  0
  188.1630  177.7620  144.6730 C   0  0  0  0  0  3  0  0  0  0  0  0
  185.8680  177.6450  143.8840 C   0  0  0  0  0  2  0  0  0  0  0  0
  185.2600  178.9110  144.4980 C   0  0  2  0  0  3  0  0  0  0  0  0
  184.6600  178.6220  145.8670 C   0  0  0  0  0  1  0  0  0  0  0  0
  182.3190  178.7940  142.4590 C   0  0  0  0  0  2  0  0  0  0  0  0
  184.2720  179.5690  143.6300 N   0  0  0  0  0  0  0  0  0  0  0  0
  183.5020  178.6260  141.5460 C   0  0  2  0  0  0  0  0  0  0  0  0
  184.6430  179.3430  142.2330 C   0  0  0  0  0  2  0  0  0  0  0  0
  182.9300  179.0110  143.8240 C   0  0  0  0  0  2  0  0  0  0  0  0
  183.2210  179.2430  140.1920 C   0  0  0  0  0  1  0  0  0  0  0  0
  183.8050  177.2840  141.4050 F   0  0  0  0  0  0  0  0  0  0  0  0
  1  2  1  0  0  0  0
  1  3  1  0  0  0  0
  4  7  2  0  0  0  0
  4  6  1  0  0  0  0
  5  2  2  0  0  0  0
  6  1  2  0  0  0  0
  7  5  1  0  0  0  0
  8 10  1  0  0  0  0
  9  8  2  0  0  0  0
  9 13  1  0  0  0  0
 10 12  1  0  0  0  0
 11 14  1  0  0  0  0
 12 14  2  0  0  0  0
 13 11  2  0  0  0  0
 14  4  1  0  0  0  0
 15 16  2  0  0  0  0
 16 17  1  0  0  0  0
 17 13  1  0  0  0  0
 18 16  1  0  0  0  0
 20 19  2  0  0  0  0
 20  6  1  0  0  0  0
 21 22  1  0  0  0  0
 21 19  1  0  0  0  0
 22 23  1  1  0  0  0
 24 28  1  0  0  0  0
 25 28  1  0  0  0  0
 25 22  1  0  0  0  0
 26 29  1  6  0  0  0
 26 27  1  0  0  0  0
 26 24  1  0  0  0  0
 27 25  1  0  0  0  0
 30 26  1  0  0  0  0
M  END
>  <MODEL>
6

>  <REMARK>
 VINA RESULT:      -8.7      3.603      6.221
  Name = 
  6 active torsions:
  status: ('A' for Active; 'I' for Inactive)
    1  A    between atoms: C_1  and  C_4
    2  A    between atoms: C_4  and  C_27
    3  A    between atoms: C_5  and  C_22
    4  A    between atoms: N_8  and  C_27
    5  A    between atoms: N_16  and  C_25
    6  A    between atoms: C_19  and  C_29
                            x       y       z     vdW  Elec       q    Type
                         _______ _______ _______ _____ _____    ______ ____

>  <TORSDO>
F 6

$$$$
=
 OpenBabel10262421473D

 30 32  0  0  1  0  0  0  0  0999 V2000
  190.2550  176.7810  145.0190 C   0  0  0  0  0  0  0  0  0  0  0  0
  190.4340  176.7610  146.3650 N   0  0  0  0  0  0  0  0  0  0  0  0
  191.6420  176.3320  144.0340 Cl  0  0  0  0  0  0  0  0  0  0  0  0
  187.9840  177.5430  145.3990 C   0  0  0  0  0  0  0  0  0  0  0  0
  189.4480  177.1230  147.2170 C   0  0  0  0  0  3  0  0  0  0  0  0
  189.0050  177.1830  144.4810 C   0  0  0  0  0  0  0  0  0  0  0  0
  188.2440  177.5080  146.7350 N   0  0  0  0  0  0  0  0  0  0  0  0
  184.1730  179.7490  144.7250 C   0  0  0  0  0  3  0  0  0  0  0  0
  184.6430  179.7510  143.4780 C   0  0  0  0  0  3  0  0  0  0  0  0
  184.2970  178.5710  145.6280 C   0  0  0  0  0  2  0  0  0  0  0  0
  186.2840  177.8920  143.5210 C   0  0  0  0  0  3  0  0  0  0  0  0
  185.7290  178.2610  145.9090 C   0  0  0  0  0  3  0  0  0  0  0  0
  185.3990  178.6430  142.8500 C   0  0  0  0  0  0  0  0  0  0  0  0
  186.6270  177.9540  144.9650 C   0  0  0  0  0  0  0  0  0  0  0  0
  182.8780  178.2120  141.2490 O   0  0  0  0  0  1  0  0  0  0  0  0
  184.1340  178.2580  140.6530 C   0  0  0  0  0  0  0  0  0  0  0  0
  185.3220  178.4330  141.4330 N   0  0  0  0  0  2  0  0  0  0  0  0
  184.2280  178.1310  139.4060 O   0  0  0  0  0  0  0  0  0  0  0  0
  189.2100  178.2460  142.2220 C   0  0  0  0  0  3  0  0  0  0  0  0
  188.7350  177.3080  143.0270 C   0  0  0  0  0  3  0  0  0  0  0  0
  188.8450  178.2300  140.7810 C   0  0  0  0  0  2  0  0  0  0  0  0
  189.5310  177.0610  140.0650 C   0  0  2  0  0  3  0  0  0  0  0  0
  191.0300  177.2970  139.9440 C   0  0  0  0  0  1  0  0  0  0  0  0
  189.4390  177.4830  136.5110 C   0  0  0  0  0  2  0  0  0  0  0  0
  188.9480  176.7550  138.7500 N   0  0  0  0  0  0  0  0  0  0  0  0
  188.4410  178.4410  137.0990 C   0  0  2  0  0  0  0  0  0  0  0  0
  187.9940  177.8050  138.3970 C   0  0  0  0  0  2  0  0  0  0  0  0
  189.9730  176.7230  137.7020 C   0  0  0  0  0  2  0  0  0  0  0  0
  187.2650  178.6280  136.1630 C   0  0  0  0  0  1  0  0  0  0  0  0
  189.0440  179.6580  137.3540 F   0  0  0  0  0  0  0  0  0  0  0  0
  1  2  1  0  0  0  0
  2  5  2  0  0  0  0
  3  1  1  0  0  0  0
  4  7  2  0  0  0  0
  6  1  2  0  0  0  0
  6  4  1  0  0  0  0
  7  5  1  0  0  0  0
  8 10  1  0  0  0  0
  9  8  2  0  0  0  0
 10 12  1  0  0  0  0
 11 14  1  0  0  0  0
 13  9  1  0  0  0  0
 13 11  2  0  0  0  0
 14  4  1  0  0  0  0
 14 12  2  0  0  0  0
 16 15  1  0  0  0  0
 16 17  1  0  0  0  0
 17 13  1  0  0  0  0
 18 16  2  0  0  0  0
 19 20  2  0  0  0  0
 20  6  1  0  0  0  0
 21 19  1  0  0  0  0
 22 23  1  6  0  0  0
 22 21  1  0  0  0  0
 24 26  1  0  0  0  0
 24 28  1  0  0  0  0
 25 22  1  0  0  0  0
 26 29  1  6  0  0  0
 26 30  1  0  0  0  0
 26 27  1  0  0  0  0
 27 25  1  0  0  0  0
 28 25  1  0  0  0  0
M  END
>  <MODEL>
7

>  <REMARK>
 VINA RESULT:      -8.7      3.742      5.502
  Name = 
  6 active torsions:
  status: ('A' for Active; 'I' for Inactive)
    1  A    between atoms: C_1  and  C_4
    2  A    between atoms: C_4  and  C_27
    3  A    between atoms: C_5  and  C_22
    4  A    between atoms: N_8  and  C_27
    5  A    between atoms: N_16  and  C_25
    6  A    between atoms: C_19  and  C_29
                            x       y       z     vdW  Elec       q    Type
                         _______ _______ _______ _____ _____    ______ ____

>  <TORSDO>
F 6

$$$$
=
 OpenBabel10262421473D

 30 32  0  0  1  0  0  0  0  0999 V2000
  184.4100  178.8020  144.7600 C   0  0  0  0  0  0  0  0  0  0  0  0
  184.2310  178.8700  146.1040 N   0  0  0  0  0  0  0  0  0  0  0  0
  183.0800  179.3730  143.7590 Cl  0  0  0  0  0  0  0  0  0  0  0  0
  186.5880  177.8140  145.1660 C   0  0  0  0  0  0  0  0  0  0  0  0
  185.1730  178.4250  146.9680 C   0  0  0  0  0  3  0  0  0  0  0  0
  185.6130  178.2590  144.2360 C   0  0  0  0  0  0  0  0  0  0  0  0
  186.3310  177.9050  146.4990 N   0  0  0  0  0  0  0  0  0  0  0  0
  190.4290  176.9700  143.0730 C   0  0  0  0  0  3  0  0  0  0  0  0
  190.9120  177.3960  144.2390 C   0  0  0  0  0  3  0  0  0  0  0  0
  189.2240  176.0990  142.9720 C   0  0  0  0  0  2  0  0  0  0  0  0
  188.9730  177.1090  145.7590 C   0  0  0  0  0  3  0  0  0  0  0  0
  188.0140  176.7980  143.4940 C   0  0  0  0  0  3  0  0  0  0  0  0
  190.2990  177.1350  145.5630 C   0  0  0  0  0  0  0  0  0  0  0  0
  187.8960  177.2530  144.7470 C   0  0  0  0  0  0  0  0  0  0  0  0
  192.2530  174.9310  146.2170 O   0  0  0  0  0  0  0  0  0  0  0  0
  192.0780  176.0340  147.0450 C   0  0  0  0  0  0  0  0  0  0  0  0
  191.1240  177.0550  146.7330 N   0  0  0  0  0  2  0  0  0  0  0  0
  192.7630  176.1290  148.0940 O   0  0  0  0  0  1  0  0  0  0  0  0
  185.6520  178.9690  141.8340 C   0  0  0  0  0  3  0  0  0  0  0  0
  185.8710  178.0750  142.7860 C   0  0  0  0  0  3  0  0  0  0  0  0
  185.9680  178.6280  140.4210 C   0  0  0  0  0  2  0  0  0  0  0  0
  184.7120  178.7300  139.5490 C   0  0  2  0  0  3  0  0  0  0  0  0
  183.5660  179.3780  140.3140 C   0  0  0  0  0  1  0  0  0  0  0  0
  182.9210  176.8380  137.0930 C   0  0  0  0  0  2  0  0  0  0  0  0
  184.2870  177.4430  138.9770 N   0  0  0  0  0  0  0  0  0  0  0  0
  182.0210  176.9810  138.2890 C   0  0  2  0  0  0  0  0  0  0  0  0
  182.9500  177.1210  139.4740 C   0  0  0  0  0  2  0  0  0  0  0  0
  184.2090  177.5040  137.5150 C   0  0  0  0  0  2  0  0  0  0  0  0
  181.1400  175.7590  138.4420 C   0  0  0  0  0  1  0  0  0  0  0  0
  181.2420  178.1170  138.1640 F   0  0  0  0  0  0  0  0  0  0  0  0
  1  2  1  0  0  0  0
  2  5  2  0  0  0  0
  3  1  1  0  0  0  0
  4  7  2  0  0  0  0
  6  1  2  0  0  0  0
  6  4  1  0  0  0  0
  7  5  1  0  0  0  0
  8  9  2  0  0  0  0
  9 13  1  0  0  0  0
 10  8  1  0  0  0  0
 10 12  1  0  0  0  0
 12 14  2  0  0  0  0
 13 11  2  0  0  0  0
 13 17  1  0  0  0  0
 14  4  1  0  0  0  0
 14 11  1  0  0  0  0
 15 16  2  0  0  0  0
 16 18  1  0  0  0  0
 17 16  1  0  0  0  0
 19 20  2  0  0  0  0
 20  6  1  0  0  0  0
 21 19  1  0  0  0  0
 22 23  1  1  0  0  0
 22 21  1  0  0  0  0
 24 28  1  0  0  0  0
 24 26  1  0  0  0  0
 25 27  1  0  0  0  0
 25 22  1  0  0  0  0
 26 29  1  1  0  0  0
 26 27  1  0  0  0  0
 28 25  1  0  0  0  0
 30 26  1  0  0  0  0
M  END
>  <MODEL>
8

>  <REMARK>
 VINA RESULT:      -8.5      2.688      3.346
  Name = 
  6 active torsions:
  status: ('A' for Active; 'I' for Inactive)
    1  A    between atoms: C_1  and  C_4
    2  A    between atoms: C_4  and  C_27
    3  A    between atoms: C_5  and  C_22
    4  A    between atoms: N_8  and  C_27
    5  A    between atoms: N_16  and  C_25
    6  A    between atoms: C_19  and  C_29
                            x       y       z     vdW  Elec       q    Type
                         _______ _______ _______ _____ _____    ______ ____

>  <TORSDO>
F 6

$$$$
=
 OpenBabel10262421473D

 30 32  0  0  1  0  0  0  0  0999 V2000
  190.9590  177.1850  144.1010 C   0  0  0  0  0  0  0  0  0  0  0  0
  191.4910  176.7900  145.2860 N   0  0  0  0  0  0  0  0  0  0  0  0
  192.0660  177.2880  142.7370 Cl  0  0  0  0  0  0  0  0  0  0  0  0
  188.8160  177.4120  145.2140 C   0  0  0  0  0  0  0  0  0  0  0  0
  190.7410  176.7100  146.4090 C   0  0  0  0  0  3  0  0  0  0  0  0
  189.5820  177.5190  144.0240 C   0  0  0  0  0  0  0  0  0  0  0  0
  189.4240  177.0190  146.3670 N   0  0  0  0  0  0  0  0  0  0  0  0
  184.8350  179.3280  145.7880 C   0  0  0  0  0  3  0  0  0  0  0  0
  184.8450  179.2520  144.4580 C   0  0  0  0  0  3  0  0  0  0  0  0
  185.3620  178.2380  146.6580 C   0  0  0  0  0  2  0  0  0  0  0  0
  186.5500  177.5020  144.0330 C   0  0  0  0  0  3  0  0  0  0  0  0
  186.8230  178.0370  146.4380 C   0  0  0  0  0  3  0  0  0  0  0  0
  185.4280  178.1410  143.6710 C   0  0  0  0  0  0  0  0  0  0  0  0
  187.3630  177.7050  145.2590 C   0  0  0  0  0  0  0  0  0  0  0  0
  185.5340  179.8620  141.1950 O   0  0  0  0  0  1  0  0  0  0  0  0
  184.9530  178.5990  141.1930 C   0  0  0  0  0  0  0  0  0  0  0  0
  184.8850  177.8090  142.3860 N   0  0  0  0  0  2  0  0  0  0  0  0
  184.4660  178.1470  140.1260 O   0  0  0  0  0  0  0  0  0  0  0  0
  189.0370  177.5180  141.5790 C   0  0  0  0  0  3  0  0  0  0  0  0
  188.9250  178.0300  142.7950 C   0  0  0  0  0  3  0  0  0  0  0  0
  188.3090  178.1510  140.4470 C   0  0  0  0  0  2  0  0  0  0  0  0
  189.0480  177.9050  139.1270 C   0  0  2  0  0  3  0  0  0  0  0  0
  188.0860  177.9320  137.9480 C   0  0  0  0  0  1  0  0  0  0  0  0
  191.8900  176.0190  138.0400 C   0  0  0  0  0  2  0  0  0  0  0  0
  189.8410  176.6670  139.1190 N   0  0  0  0  0  0  0  0  0  0  0  0
  190.7550  175.6910  137.1090 C   0  0  2  0  0  0  0  0  0  0  0  0
  189.4980  175.8920  137.9270 C   0  0  0  0  0  2  0  0  0  0  0  0
  191.2780  176.9490  139.0610 C   0  0  0  0  0  2  0  0  0  0  0  0
  190.8560  174.2590  136.6290 C   0  0  0  0  0  1  0  0  0  0  0  0
  190.7600  176.5570  136.0320 F   0  0  0  0  0  0  0  0  0  0  0  0
  1  2  1  0  0  0  0
  2  5  2  0  0  0  0
  3  1  1  0  0  0  0
  4 14  1  0  0  0  0
  4  7  2  0  0  0  0
  6  1  2  0  0  0  0
  6  4  1  0  0  0  0
  7  5  1  0  0  0  0
  8 10  1  0  0  0  0
  9  8  2  0  0  0  0
 11 14  1  0  0  0  0
 12 10  1  0  0  0  0
 13 11  2  0  0  0  0
 13  9  1  0  0  0  0
 14 12  2  0  0  0  0
 16 15  1  0  0  0  0
 16 17  1  0  0  0  0
 17 13  1  0  0  0  0
 18 16  2  0  0  0  0
 19 20  2  0  0  0  0
 20  6  1  0  0  0  0
 21 19  1  0  0  0  0
 22 23  1  6  0  0  0
 22 21  1  0  0  0  0
 24 28  1  0  0  0  0
 25 22  1  0  0  0  0
 26 29  1  6  0  0  0
 26 27  1  0  0  0  0
 26 24  1  0  0  0  0
 27 25  1  0  0  0  0
 28 25  1  0  0  0  0
 30 26  1  0  0  0  0
M  END
>  <MODEL>
9

>  <REMARK>
 VINA RESULT:      -8.5      3.570      5.548
  Name = 
  6 active torsions:
  status: ('A' for Active; 'I' for Inactive)
    1  A    between atoms: C_1  and  C_4
    2  A    between atoms: C_4  and  C_27
    3  A    between atoms: C_5  and  C_22
    4  A    between atoms: N_8  and  C_27
    5  A    between atoms: N_16  and  C_25
    6  A    between atoms: C_19  and  C_29
                            x       y       z     vdW  Elec       q    Type
                         _______ _______ _______ _____ _____    ______ ____

>  <TORSDO>
F 6

$$$$
