=
 OpenBabel10262419543D

 25 27  0  0  1  0  0  0  0  0999 V2000
  189.5540  177.1300  144.8650 C   0  0  0  0  0  0  0  0  0  0  0  0
  188.6110  177.5570  145.8280 C   0  0  0  0  0  0  0  0  0  0  0  0
  191.2270  176.9160  146.6180 C   0  0  0  0  0  3  0  0  0  0  0  0
  190.2970  177.3280  147.5720 C   0  0  0  0  0  3  0  0  0  0  0  0
  188.0580  178.0860  148.1500 C   0  0  0  0  0  0  0  0  0  0  0  0
  188.4100  178.1860  149.4920 O   0  0  0  0  0  1  0  0  0  0  0  0
  187.3020  177.9030  145.4590 C   0  0  0  0  0  3  0  0  0  0  0  0
  190.8590  176.8240  145.2750 C   0  0  0  0  0  3  0  0  0  0  0  0
  186.7610  178.4240  147.7580 C   0  0  0  0  0  3  0  0  0  0  0  0
  186.3810  178.3300  146.4170 C   0  0  0  0  0  0  0  0  0  0  0  0
  188.9900  177.6530  147.1920 C   0  0  0  0  0  0  0  0  0  0  0  0
  189.2240  177.0410  143.3950 C   0  0  0  0  0  0  0  0  0  0  0  0
  189.3010  175.6180  142.8780 C   0  0  0  0  0  2  0  0  0  0  0  0
  187.9670  176.3380  142.9110 C   0  0  0  0  0  2  0  0  0  0  0  0
  189.8750  177.9680  142.4610 N   0  0  0  0  0  2  0  0  0  0  0  0
  192.1190  177.5390  141.4850 C   0  0  0  0  0  1  0  0  0  0  0  0
  190.6230  177.2960  141.3900 C   0  0  0  0  0  3  0  0  0  0  0  0
  190.0870  177.6060  140.0000 C   0  0  0  0  0  1  0  0  0  0  0  0
  185.0050  178.7180  146.0030 C   0  0  0  0  0  2  0  0  0  0  0  0
  185.0140  179.2150  144.5620 C   0  0  0  0  0  2  0  0  0  0  0  0
  184.0140  178.4630  143.6900 C   0  0  1  0  0  3  0  0  0  0  0  0
  182.8080  179.1640  143.6160 O   0  0  0  0  0  1  0  0  0  0  0  0
  184.5770  178.2200  142.2980 C   0  0  0  0  0  2  0  0  0  0  0  0
  185.5750  179.3030  141.9380 C   0  0  0  0  0  2  0  0  0  0  0  0
  186.5960  178.7460  140.9680 C   0  0  0  0  0  1  0  0  0  0  0  0
  1  8  2  0  0  0  0
  1  2  1  0  0  0  0
  2 11  1  0  0  0  0
  3  4  2  0  0  0  0
  5  6  1  0  0  0  0
  7  2  2  0  0  0  0
  7 10  1  0  0  0  0
  8  3  1  0  0  0  0
  9  5  1  0  0  0  0
 10  9  2  0  0  0  0
 11  4  1  0  0  0  0
 11  5  2  0  0  0  0
 12  1  1  0  0  0  0
 13 14  1  0  0  0  0
 13 12  1  0  0  0  0
 14 12  1  0  0  0  0
 15 12  1  0  0  0  0
 17 16  1  0  0  0  0
 17 15  1  0  0  0  0
 18 17  1  0  0  0  0
 19 10  1  0  0  0  0
 20 19  1  0  0  0  0
 21 22  1  6  0  0  0
 21 20  1  0  0  0  0
 23 21  1  0  0  0  0
 24 23  1  0  0  0  0
 25 24  1  0  0  0  0
M  END
>  <MODEL>
1

>  <REMARK>
 VINA RESULT:      -8.1      0.000      0.000
  Name = 
  8 active torsions:
  status: ('A' for Active; 'I' for Inactive)
    1  A    between atoms: C_1  and  C_5
    2  A    between atoms: C_2  and  C_7
    3  A    between atoms: C_2  and  C_21
    4  A    between atoms: C_5  and  N_10
    5  A    between atoms: C_6  and  C_15
    6  A    between atoms: C_6  and  C_23
    7  A    between atoms: N_10  and  C_11
    8  A    between atoms: C_15  and  C_21
                            x       y       z     vdW  Elec       q    Type
                         _______ _______ _______ _____ _____    ______ ____

>  <TORSDO>
F 8

$$$$
=
 OpenBabel10262419543D

 25 27  0  0  1  0  0  0  0  0999 V2000
  189.2560  177.1820  144.8270 C   0  0  0  0  0  0  0  0  0  0  0  0
  187.9040  177.5970  144.8300 C   0  0  0  0  0  0  0  0  0  0  0  0
  189.3350  177.4630  147.2420 C   0  0  0  0  0  3  0  0  0  0  0  0
  187.9990  177.8630  147.2510 C   0  0  0  0  0  3  0  0  0  0  0  0
  185.9340  178.3570  146.0610 C   0  0  0  0  0  0  0  0  0  0  0  0
  185.2980  178.6950  147.2520 O   0  0  0  0  0  1  0  0  0  0  0  0
  187.1700  177.6920  143.6380 C   0  0  0  0  0  3  0  0  0  0  0  0
  189.9590  177.1300  146.0390 C   0  0  0  0  0  3  0  0  0  0  0  0
  185.2240  178.4440  144.8620 C   0  0  0  0  0  3  0  0  0  0  0  0
  185.8380  178.1090  143.6530 C   0  0  0  0  0  0  0  0  0  0  0  0
  187.2740  177.9370  146.0550 C   0  0  0  0  0  0  0  0  0  0  0  0
  189.9930  176.8410  143.5550 C   0  0  0  0  0  0  0  0  0  0  0  0
  191.3060  176.1350  143.8280 C   0  0  0  0  0  2  0  0  0  0  0  0
  190.1870  175.3990  143.1180 C   0  0  0  0  0  2  0  0  0  0  0  0
  190.1660  177.8800  142.5320 N   0  0  0  0  0  2  0  0  0  0  0  0
  191.1160  177.4040  140.2870 C   0  0  0  0  0  1  0  0  0  0  0  0
  189.8780  177.4170  141.1680 C   0  0  0  0  0  3  0  0  0  0  0  0
  188.7260  178.1630  140.5110 C   0  0  0  0  0  1  0  0  0  0  0  0
  185.0850  178.2290  142.3750 C   0  0  0  0  0  2  0  0  0  0  0  0
  183.6480  178.6550  142.6540 C   0  0  0  0  0  2  0  0  0  0  0  0
  182.7870  178.6260  141.3960 C   0  0  1  0  0  3  0  0  0  0  0  0
  183.0210  177.4540  140.6720 O   0  0  0  0  0  1  0  0  0  0  0  0
  181.3110  178.7550  141.7400 C   0  0  0  0  0  2  0  0  0  0  0  0
  181.1440  179.1750  143.1880 C   0  0  0  0  0  2  0  0  0  0  0  0
  180.0870  178.3130  143.8440 C   0  0  0  0  0  1  0  0  0  0  0  0
  1  2  2  0  0  0  0
  1  8  1  0  0  0  0
  2 11  1  0  0  0  0
  3  4  1  0  0  0  0
  5  6  1  0  0  0  0
  7 10  2  0  0  0  0
  7  2  1  0  0  0  0
  8  3  2  0  0  0  0
  9  5  2  0  0  0  0
 10  9  1  0  0  0  0
 11  5  1  0  0  0  0
 11  4  2  0  0  0  0
 12 13  1  0  0  0  0
 12  1  1  0  0  0  0
 14 12  1  0  0  0  0
 14 13  1  0  0  0  0
 15 12  1  0  0  0  0
 16 17  1  0  0  0  0
 17 15  1  0  0  0  0
 18 17  1  0  0  0  0
 19 20  1  0  0  0  0
 19 10  1  0  0  0  0
 21 22  1  1  0  0  0
 21 23  1  0  0  0  0
 21 20  1  0  0  0  0
 23 24  1  0  0  0  0
 24 25  1  0  0  0  0
M  END
>  <MODEL>
2

>  <REMARK>
 VINA RESULT:      -8.1      1.867      2.840
  Name = 
  8 active torsions:
  status: ('A' for Active; 'I' for Inactive)
    1  A    between atoms: C_1  and  C_5
    2  A    between atoms: C_2  and  C_7
    3  A    between atoms: C_2  and  C_21
    4  A    between atoms: C_5  and  N_10
    5  A    between atoms: C_6  and  C_15
    6  A    between atoms: C_6  and  C_23
    7  A    between atoms: N_10  and  C_11
    8  A    between atoms: C_15  and  C_21
                            x       y       z     vdW  Elec       q    Type
                         _______ _______ _______ _____ _____    ______ ____

>  <TORSDO>
F 8

$$$$
=
 OpenBabel10262419543D

 25 27  0  0  1  0  0  0  0  0999 V2000
  189.2070  177.2410  144.8090 C   0  0  0  0  0  0  0  0  0  0  0  0
  187.8440  177.6170  144.8310 C   0  0  0  0  0  0  0  0  0  0  0  0
  189.3370  177.6150  147.2080 C   0  0  0  0  0  3  0  0  0  0  0  0
  187.9910  177.9770  147.2360 C   0  0  0  0  0  3  0  0  0  0  0  0
  185.8840  178.3680  146.0830 C   0  0  0  0  0  0  0  0  0  0  0  0
  185.2680  178.7330  147.2760 O   0  0  0  0  0  1  0  0  0  0  0  0
  187.0790  177.6470  143.6550 C   0  0  0  0  0  3  0  0  0  0  0  0
  189.9410  177.2550  146.0030 C   0  0  0  0  0  3  0  0  0  0  0  0
  185.1420  178.3890  144.9000 C   0  0  0  0  0  3  0  0  0  0  0  0
  185.7360  178.0270  143.6890 C   0  0  0  0  0  0  0  0  0  0  0  0
  187.2350  177.9860  146.0580 C   0  0  0  0  0  0  0  0  0  0  0  0
  189.9220  176.8730  143.5310 C   0  0  0  0  0  0  0  0  0  0  0  0
  191.2190  176.1340  143.7960 C   0  0  0  0  0  2  0  0  0  0  0  0
  190.0740  175.4240  143.1020 C   0  0  0  0  0  2  0  0  0  0  0  0
  190.1120  177.9010  142.5000 N   0  0  0  0  0  2  0  0  0  0  0  0
  191.2250  177.4400  140.3280 C   0  0  0  0  0  1  0  0  0  0  0  0
  189.9360  177.4010  141.1300 C   0  0  0  0  0  3  0  0  0  0  0  0
  188.7880  178.0720  140.3890 C   0  0  0  0  0  1  0  0  0  0  0  0
  184.9480  178.0770  142.4270 C   0  0  0  0  0  2  0  0  0  0  0  0
  185.5240  179.1360  141.4940 C   0  0  0  0  0  2  0  0  0  0  0  0
  184.7420  179.2350  140.1880 C   0  0  1  0  0  3  0  0  0  0  0  0
  185.5020  178.7390  139.1260 O   0  0  0  0  0  1  0  0  0  0  0  0
  183.4160  178.4950  140.2870 C   0  0  0  0  0  2  0  0  0  0  0  0
  183.2340  177.5830  139.0890 C   0  0  0  0  0  2  0  0  0  0  0  0
  182.6740  176.2530  139.5490 C   0  0  0  0  0  1  0  0  0  0  0  0
  1  2  2  0  0  0  0
  1  8  1  0  0  0  0
  2 11  1  0  0  0  0
  3  4  1  0  0  0  0
  5  6  1  0  0  0  0
  7 10  2  0  0  0  0
  7  2  1  0  0  0  0
  8  3  2  0  0  0  0
  9  5  2  0  0  0  0
 10  9  1  0  0  0  0
 11  5  1  0  0  0  0
 11  4  2  0  0  0  0
 12 13  1  0  0  0  0
 12  1  1  0  0  0  0
 14 12  1  0  0  0  0
 14 13  1  0  0  0  0
 15 12  1  0  0  0  0
 16 17  1  0  0  0  0
 17 15  1  0  0  0  0
 18 17  1  0  0  0  0
 19 10  1  0  0  0  0
 20 19  1  0  0  0  0
 21 22  1  6  0  0  0
 21 23  1  0  0  0  0
 21 20  1  0  0  0  0
 24 25  1  0  0  0  0
 24 23  1  0  0  0  0
M  END
>  <MODEL>
3

>  <REMARK>
 VINA RESULT:      -8.0      1.986      2.751
  Name = 
  8 active torsions:
  status: ('A' for Active; 'I' for Inactive)
    1  A    between atoms: C_1  and  C_5
    2  A    between atoms: C_2  and  C_7
    3  A    between atoms: C_2  and  C_21
    4  A    between atoms: C_5  and  N_10
    5  A    between atoms: C_6  and  C_15
    6  A    between atoms: C_6  and  C_23
    7  A    between atoms: N_10  and  C_11
    8  A    between atoms: C_15  and  C_21
                            x       y       z     vdW  Elec       q    Type
                         _______ _______ _______ _____ _____    ______ ____

>  <TORSDO>
F 8

$$$$
=
 OpenBabel10262419543D

 25 27  0  0  1  0  0  0  0  0999 V2000
  183.1570  178.5800  141.6760 C   0  0  0  0  0  0  0  0  0  0  0  0
  184.1010  178.4640  142.7230 C   0  0  0  0  0  0  0  0  0  0  0  0
  181.4350  179.1220  143.3050 C   0  0  0  0  0  3  0  0  0  0  0  0
  182.3640  179.0190  144.3390 C   0  0  0  0  0  3  0  0  0  0  0  0
  184.6280  178.5670  145.1070 C   0  0  0  0  0  0  0  0  0  0  0  0
  184.2510  178.7830  146.4290 O   0  0  0  0  0  1  0  0  0  0  0  0
  185.4360  178.1180  142.4640 C   0  0  0  0  0  3  0  0  0  0  0  0
  181.8280  178.8990  141.9850 C   0  0  0  0  0  3  0  0  0  0  0  0
  185.9510  178.2210  144.8240 C   0  0  0  0  0  3  0  0  0  0  0  0
  186.3560  178.0000  143.5060 C   0  0  0  0  0  0  0  0  0  0  0  0
  183.6960  178.6890  144.0640 C   0  0  0  0  0  0  0  0  0  0  0  0
  183.5170  178.3190  140.2330 C   0  0  0  0  0  0  0  0  0  0  0  0
  182.8610  179.3120  139.2930 C   0  0  0  0  0  2  0  0  0  0  0  0
  184.3690  179.2970  139.4440 C   0  0  0  0  0  2  0  0  0  0  0  0
  183.4020  176.9530  139.7060 N   0  0  0  0  0  2  0  0  0  0  0  0
  181.1150  175.9850  139.7550 C   0  0  0  0  0  1  0  0  0  0  0  0
  182.1680  176.7180  138.9430 C   0  0  0  0  0  3  0  0  0  0  0  0
  182.4130  176.0490  137.5990 C   0  0  0  0  0  1  0  0  0  0  0  0
  187.7610  177.6060  143.2130 C   0  0  0  0  0  2  0  0  0  0  0  0
  188.3560  176.8680  144.4070 C   0  0  0  0  0  2  0  0  0  0  0  0
  189.7720  177.3370  144.7230 C   0  0  1  0  0  3  0  0  0  0  0  0
  189.9760  178.6320  144.2410 O   0  0  0  0  0  1  0  0  0  0  0  0
  190.0480  177.2740  146.2180 C   0  0  0  0  0  2  0  0  0  0  0  0
  188.7510  177.1050  146.9850 C   0  0  0  0  0  2  0  0  0  0  0  0
  188.7470  178.0370  148.1780 C   0  0  0  0  0  1  0  0  0  0  0  0
  1  8  2  0  0  0  0
  1  2  1  0  0  0  0
  2 11  1  0  0  0  0
  3  4  2  0  0  0  0
  5  6  1  0  0  0  0
  7  2  2  0  0  0  0
  7 10  1  0  0  0  0
  8  3  1  0  0  0  0
  9  5  1  0  0  0  0
 10  9  2  0  0  0  0
 11  4  1  0  0  0  0
 11  5  2  0  0  0  0
 12  1  1  0  0  0  0
 13 14  1  0  0  0  0
 13 12  1  0  0  0  0
 14 12  1  0  0  0  0
 15 12  1  0  0  0  0
 17 15  1  0  0  0  0
 17 16  1  0  0  0  0
 18 17  1  0  0  0  0
 19 10  1  0  0  0  0
 19 20  1  0  0  0  0
 20 21  1  0  0  0  0
 21 22  1  1  0  0  0
 21 23  1  0  0  0  0
 23 24  1  0  0  0  0
 24 25  1  0  0  0  0
M  END
>  <MODEL>
4

>  <REMARK>
 VINA RESULT:      -7.8      3.015      6.982
  Name = 
  8 active torsions:
  status: ('A' for Active; 'I' for Inactive)
    1  A    between atoms: C_1  and  C_5
    2  A    between atoms: C_2  and  C_7
    3  A    between atoms: C_2  and  C_21
    4  A    between atoms: C_5  and  N_10
    5  A    between atoms: C_6  and  C_15
    6  A    between atoms: C_6  and  C_23
    7  A    between atoms: N_10  and  C_11
    8  A    between atoms: C_15  and  C_21
                            x       y       z     vdW  Elec       q    Type
                         _______ _______ _______ _____ _____    ______ ____

>  <TORSDO>
F 8

$$$$
=
 OpenBabel10262419543D

 25 27  0  0  1  0  0  0  0  0999 V2000
  187.3730  177.8980  145.9650 C   0  0  0  0  0  0  0  0  0  0  0  0
  188.6550  177.7220  145.3950 C   0  0  0  0  0  0  0  0  0  0  0  0
  188.2500  177.2040  148.1240 C   0  0  0  0  0  3  0  0  0  0  0  0
  189.5190  177.0390  147.5690 C   0  0  0  0  0  3  0  0  0  0  0  0
  191.0080  177.1080  145.6460 C   0  0  0  0  0  0  0  0  0  0  0  0
  192.0800  176.6860  146.4270 O   0  0  0  0  0  1  0  0  0  0  0  0
  188.8830  177.9550  144.0300 C   0  0  0  0  0  3  0  0  0  0  0  0
  187.1860  177.6240  147.3260 C   0  0  0  0  0  3  0  0  0  0  0  0
  191.2100  177.3460  144.2840 C   0  0  0  0  0  3  0  0  0  0  0  0
  190.1520  177.7720  143.4780 C   0  0  0  0  0  0  0  0  0  0  0  0
  189.7350  177.2910  146.2090 C   0  0  0  0  0  0  0  0  0  0  0  0
  186.1770  178.3190  145.1450 C   0  0  0  0  0  0  0  0  0  0  0  0
  184.9040  178.3500  145.9690 C   0  0  0  0  0  2  0  0  0  0  0  0
  185.4700  179.6380  145.4040 C   0  0  0  0  0  2  0  0  0  0  0  0
  185.9400  177.6740  143.8480 N   0  0  0  0  0  2  0  0  0  0  0  0
  184.1010  178.2920  142.2960 C   0  0  0  0  0  1  0  0  0  0  0  0
  185.5000  178.6040  142.8000 C   0  0  0  0  0  3  0  0  0  0  0  0
  186.4960  178.7350  141.6570 C   0  0  0  0  0  1  0  0  0  0  0  0
  190.3670  177.9980  142.0230 C   0  0  0  0  0  2  0  0  0  0  0  0
  190.3510  176.6680  141.2800 C   0  0  0  0  0  2  0  0  0  0  0  0
  190.3610  176.8560  139.7660 C   0  0  1  0  0  3  0  0  0  0  0  0
  190.7330  175.6700  139.1290 O   0  0  0  0  0  1  0  0  0  0  0  0
  189.0040  177.3280  139.2660 C   0  0  0  0  0  2  0  0  0  0  0  0
  189.1240  178.7040  138.6400 C   0  0  0  0  0  2  0  0  0  0  0  0
  189.0760  178.5780  137.1320 C   0  0  0  0  0  1  0  0  0  0  0  0
  1  8  1  0  0  0  0
  2  1  2  0  0  0  0
  2 11  1  0  0  0  0
  4  3  1  0  0  0  0
  5 11  1  0  0  0  0
  5  6  1  0  0  0  0
  7  2  1  0  0  0  0
  8  3  2  0  0  0  0
  9  5  2  0  0  0  0
 10  7  2  0  0  0  0
 10  9  1  0  0  0  0
 11  4  2  0  0  0  0
 12 14  1  0  0  0  0
 12  1  1  0  0  0  0
 12 13  1  0  0  0  0
 14 13  1  0  0  0  0
 15 12  1  0  0  0  0
 16 17  1  0  0  0  0
 17 15  1  0  0  0  0
 18 17  1  0  0  0  0
 19 10  1  0  0  0  0
 20 19  1  0  0  0  0
 21 22  1  6  0  0  0
 21 20  1  0  0  0  0
 23 21  1  0  0  0  0
 24 23  1  0  0  0  0
 25 24  1  0  0  0  0
M  END
>  <MODEL>
5

>  <REMARK>
 VINA RESULT:      -7.7      2.603      5.148
  Name = 
  8 active torsions:
  status: ('A' for Active; 'I' for Inactive)
    1  A    between atoms: C_1  and  C_5
    2  A    between atoms: C_2  and  C_7
    3  A    between atoms: C_2  and  C_21
    4  A    between atoms: C_5  and  N_10
    5  A    between atoms: C_6  and  C_15
    6  A    between atoms: C_6  and  C_23
    7  A    between atoms: N_10  and  C_11
    8  A    between atoms: C_15  and  C_21
                            x       y       z     vdW  Elec       q    Type
                         _______ _______ _______ _____ _____    ______ ____

>  <TORSDO>
F 8

$$$$
=
 OpenBabel10262419543D

 25 27  0  0  1  0  0  0  0  0999 V2000
  190.2980  177.8540  142.2080 C   0  0  0  0  0  0  0  0  0  0  0  0
  189.0180  178.0720  141.6470 C   0  0  0  0  0  0  0  0  0  0  0  0
  191.1730  177.3770  139.9890 C   0  0  0  0  0  3  0  0  0  0  0  0
  189.9150  177.6020  139.4310 C   0  0  0  0  0  3  0  0  0  0  0  0
  187.5590  178.1540  139.6880 C   0  0  0  0  0  0  0  0  0  0  0  0
  187.3550  178.0350  138.3170 O   0  0  0  0  0  1  0  0  0  0  0  0
  187.9180  178.4010  142.4540 C   0  0  0  0  0  3  0  0  0  0  0  0
  191.3610  177.4970  141.3670 C   0  0  0  0  0  3  0  0  0  0  0  0
  186.4800  178.4810  140.5110 C   0  0  0  0  0  3  0  0  0  0  0  0
  186.6570  178.6080  141.8910 C   0  0  0  0  0  0  0  0  0  0  0  0
  188.8310  177.9460  140.2470 C   0  0  0  0  0  0  0  0  0  0  0  0
  190.5530  177.9370  143.6930 C   0  0  0  0  0  0  0  0  0  0  0  0
  191.8710  178.6190  144.0070 C   0  0  0  0  0  2  0  0  0  0  0  0
  190.5660  179.2730  144.4160 C   0  0  0  0  0  2  0  0  0  0  0  0
  190.3840  176.7320  144.5140 N   0  0  0  0  0  2  0  0  0  0  0  0
  192.0390  174.8880  144.3320 C   0  0  0  0  0  1  0  0  0  0  0  0
  191.6490  176.1830  145.0220 C   0  0  0  0  0  3  0  0  0  0  0  0
  191.6780  176.0480  146.5370 C   0  0  0  0  0  1  0  0  0  0  0  0
  185.4980  178.9310  142.7660 C   0  0  0  0  0  2  0  0  0  0  0  0
  185.6370  178.2130  144.1030 C   0  0  0  0  0  2  0  0  0  0  0  0
  185.2620  179.1110  145.2770 C   0  0  1  0  0  3  0  0  0  0  0  0
  183.8970  179.0060  145.5550 O   0  0  0  0  0  1  0  0  0  0  0  0
  186.0860  178.7710  146.5100 C   0  0  0  0  0  2  0  0  0  0  0  0
  187.3800  178.0920  146.1070 C   0  0  0  0  0  2  0  0  0  0  0  0
  187.9760  177.3900  147.3080 C   0  0  0  0  0  1  0  0  0  0  0  0
  1 12  1  0  0  0  0
  2  1  1  0  0  0  0
  2  7  1  0  0  0  0
  3  8  1  0  0  0  0
  4  3  2  0  0  0  0
  4 11  1  0  0  0  0
  5 11  1  0  0  0  0
  5  9  2  0  0  0  0
  6  5  1  0  0  0  0
  8  1  2  0  0  0  0
  9 10  1  0  0  0  0
 10  7  2  0  0  0  0
 10 19  1  0  0  0  0
 11  2  2  0  0  0  0
 12 13  1  0  0  0  0
 12 14  1  0  0  0  0
 12 15  1  0  0  0  0
 13 14  1  0  0  0  0
 15 17  1  0  0  0  0
 16 17  1  0  0  0  0
 17 18  1  0  0  0  0
 19 20  1  0  0  0  0
 20 21  1  0  0  0  0
 21 22  1  1  0  0  0
 21 23  1  0  0  0  0
 24 23  1  0  0  0  0
 24 25  1  0  0  0  0
M  END
>  <MODEL>
6

>  <REMARK>
 VINA RESULT:      -7.6      2.047      5.335
  Name = 
  8 active torsions:
  status: ('A' for Active; 'I' for Inactive)
    1  A    between atoms: C_1  and  C_5
    2  A    between atoms: C_2  and  C_7
    3  A    between atoms: C_2  and  C_21
    4  A    between atoms: C_5  and  N_10
    5  A    between atoms: C_6  and  C_15
    6  A    between atoms: C_6  and  C_23
    7  A    between atoms: N_10  and  C_11
    8  A    between atoms: C_15  and  C_21
                            x       y       z     vdW  Elec       q    Type
                         _______ _______ _______ _____ _____    ______ ____

>  <TORSDO>
F 8

$$$$
=
 OpenBabel10262419543D

 25 27  0  0  1  0  0  0  0  0999 V2000
  188.4840  177.3380  144.7940 C   0  0  0  0  0  0  0  0  0  0  0  0
  187.1460  177.7590  144.9700 C   0  0  0  0  0  0  0  0  0  0  0  0
  188.8000  177.3800  147.2050 C   0  0  0  0  0  3  0  0  0  0  0  0
  187.4780  177.7850  147.3830 C   0  0  0  0  0  3  0  0  0  0  0  0
  185.3160  178.4070  146.4550 C   0  0  0  0  0  0  0  0  0  0  0  0
  184.8030  178.6300  147.7290 O   0  0  0  0  0  1  0  0  0  0  0  0
  186.3020  177.9760  143.8700 C   0  0  0  0  0  3  0  0  0  0  0  0
  189.3000  177.1640  145.9210 C   0  0  0  0  0  3  0  0  0  0  0  0
  184.4950  178.6160  145.3450 C   0  0  0  0  0  3  0  0  0  0  0  0
  184.9840  178.3980  144.0550 C   0  0  0  0  0  0  0  0  0  0  0  0
  186.6420  177.9810  146.2770 C   0  0  0  0  0  0  0  0  0  0  0  0
  189.0890  177.1200  143.4290 C   0  0  0  0  0  0  0  0  0  0  0  0
  189.7680  175.7690  143.3150 C   0  0  0  0  0  2  0  0  0  0  0  0
  188.5380  176.0690  142.4810 C   0  0  0  0  0  2  0  0  0  0  0  0
  189.9300  178.1730  142.8460 N   0  0  0  0  0  2  0  0  0  0  0  0
  192.0310  178.8960  143.9550 C   0  0  0  0  0  1  0  0  0  0  0  0
  191.3710  177.9250  142.9920 C   0  0  0  0  0  3  0  0  0  0  0  0
  192.1070  177.8600  141.6620 C   0  0  0  0  0  1  0  0  0  0  0  0
  184.1130  178.6480  142.8750 C   0  0  0  0  0  2  0  0  0  0  0  0
  184.9530  178.6850  141.6030 C   0  0  0  0  0  2  0  0  0  0  0  0
  184.1140  179.0060  140.3710 C   0  0  1  0  0  3  0  0  0  0  0  0
  184.8600  179.7500  139.4540 O   0  0  0  0  0  1  0  0  0  0  0  0
  183.5850  177.7350  139.7240 C   0  0  0  0  0  2  0  0  0  0  0  0
  182.3000  178.0240  138.9720 C   0  0  0  0  0  2  0  0  0  0  0  0
  181.2440  178.5040  139.9450 C   0  0  0  0  0  1  0  0  0  0  0  0
  1  2  2  0  0  0  0
  1  8  1  0  0  0  0
  2 11  1  0  0  0  0
  3  4  1  0  0  0  0
  5  6  1  0  0  0  0
  7 10  2  0  0  0  0
  7  2  1  0  0  0  0
  8  3  2  0  0  0  0
  9  5  2  0  0  0  0
 10  9  1  0  0  0  0
 11  5  1  0  0  0  0
 11  4  2  0  0  0  0
 12  1  1  0  0  0  0
 13 12  1  0  0  0  0
 14 13  1  0  0  0  0
 14 12  1  0  0  0  0
 15 17  1  0  0  0  0
 15 12  1  0  0  0  0
 17 16  1  0  0  0  0
 18 17  1  0  0  0  0
 19 10  1  0  0  0  0
 20 19  1  0  0  0  0
 21 22  1  6  0  0  0
 21 20  1  0  0  0  0
 23 21  1  0  0  0  0
 24 23  1  0  0  0  0
 24 25  1  0  0  0  0
M  END
>  <MODEL>
7

>  <REMARK>
 VINA RESULT:      -7.4      2.058      2.886
  Name = 
  8 active torsions:
  status: ('A' for Active; 'I' for Inactive)
    1  A    between atoms: C_1  and  C_5
    2  A    between atoms: C_2  and  C_7
    3  A    between atoms: C_2  and  C_21
    4  A    between atoms: C_5  and  N_10
    5  A    between atoms: C_6  and  C_15
    6  A    between atoms: C_6  and  C_23
    7  A    between atoms: N_10  and  C_11
    8  A    between atoms: C_15  and  C_21
                            x       y       z     vdW  Elec       q    Type
                         _______ _______ _______ _____ _____    ______ ____

>  <TORSDO>
F 8

$$$$
=
 OpenBabel10262419543D

 25 27  0  0  1  0  0  0  0  0999 V2000
  186.9930  177.7770  145.8850 C   0  0  0  0  0  0  0  0  0  0  0  0
  186.6880  178.0360  144.5290 C   0  0  0  0  0  0  0  0  0  0  0  0
  184.7870  178.5770  146.5210 C   0  0  0  0  0  3  0  0  0  0  0  0
  184.4780  178.8250  145.1840 C   0  0  0  0  0  3  0  0  0  0  0  0
  185.1140  178.8300  142.8350 C   0  0  0  0  0  0  0  0  0  0  0  0
  183.8740  179.3460  142.4730 O   0  0  0  0  0  1  0  0  0  0  0  0
  187.6270  177.7940  143.5130 C   0  0  0  0  0  3  0  0  0  0  0  0
  186.0360  178.0620  146.8680 C   0  0  0  0  0  3  0  0  0  0  0  0
  186.0640  178.5800  141.8420 C   0  0  0  0  0  3  0  0  0  0  0  0
  187.3160  178.0610  142.1780 C   0  0  0  0  0  0  0  0  0  0  0  0
  185.4180  178.5630  144.1800 C   0  0  0  0  0  0  0  0  0  0  0  0
  188.3390  177.2510  146.3230 C   0  0  0  0  0  0  0  0  0  0  0  0
  188.9730  178.1250  147.3880 C   0  0  0  0  0  2  0  0  0  0  0  0
  188.5540  176.7080  147.7250 C   0  0  0  0  0  2  0  0  0  0  0  0
  189.3260  176.8810  145.3020 N   0  0  0  0  0  2  0  0  0  0  0  0
  191.1170  178.3680  144.4350 C   0  0  0  0  0  1  0  0  0  0  0  0
  190.6640  177.4370  145.5460 C   0  0  0  0  0  3  0  0  0  0  0  0
  191.7080  176.3750  145.8550 C   0  0  0  0  0  1  0  0  0  0  0  0
  188.3340  177.8220  141.1190 C   0  0  0  0  0  2  0  0  0  0  0  0
  187.7850  178.2470  139.7620 C   0  0  0  0  0  2  0  0  0  0  0  0
  188.8360  178.1490  138.6620 C   0  0  1  0  0  3  0  0  0  0  0  0
  188.9880  179.3810  138.0210 O   0  0  0  0  0  1  0  0  0  0  0  0
  190.1680  177.6690  139.2190 C   0  0  0  0  0  2  0  0  0  0  0  0
  190.5880  176.3810  138.5380 C   0  0  0  0  0  2  0  0  0  0  0  0
  192.0810  176.4090  138.2840 C   0  0  0  0  0  1  0  0  0  0  0  0
  1 12  1  0  0  0  0
  1  8  1  0  0  0  0
  2  1  2  0  0  0  0
  3  8  2  0  0  0  0
  4  3  1  0  0  0  0
  5 11  1  0  0  0  0
  6  5  1  0  0  0  0
  7  2  1  0  0  0  0
  9 10  1  0  0  0  0
  9  5  2  0  0  0  0
 10  7  2  0  0  0  0
 11  2  1  0  0  0  0
 11  4  2  0  0  0  0
 12 13  1  0  0  0  0
 12 14  1  0  0  0  0
 13 14  1  0  0  0  0
 15 17  1  0  0  0  0
 15 12  1  0  0  0  0
 16 17  1  0  0  0  0
 17 18  1  0  0  0  0
 19 10  1  0  0  0  0
 20 19  1  0  0  0  0
 21 22  1  1  0  0  0
 21 23  1  0  0  0  0
 21 20  1  0  0  0  0
 24 23  1  0  0  0  0
 25 24  1  0  0  0  0
M  END
>  <MODEL>
8

>  <REMARK>
 VINA RESULT:      -7.2      2.258      5.538
  Name = 
  8 active torsions:
  status: ('A' for Active; 'I' for Inactive)
    1  A    between atoms: C_1  and  C_5
    2  A    between atoms: C_2  and  C_7
    3  A    between atoms: C_2  and  C_21
    4  A    between atoms: C_5  and  N_10
    5  A    between atoms: C_6  and  C_15
    6  A    between atoms: C_6  and  C_23
    7  A    between atoms: N_10  and  C_11
    8  A    between atoms: C_15  and  C_21
                            x       y       z     vdW  Elec       q    Type
                         _______ _______ _______ _____ _____    ______ ____

>  <TORSDO>
F 8

$$$$
=
 OpenBabel10262419543D

 25 27  0  0  1  0  0  0  0  0999 V2000
  190.4450  176.8280  137.9480 C   0  0  0  0  0  0  0  0  0  0  0  0
  189.8030  177.1450  139.1670 C   0  0  0  0  0  0  0  0  0  0  0  0
  188.7230  178.0450  136.7370 C   0  0  0  0  0  3  0  0  0  0  0  0
  188.0910  178.3690  137.9380 C   0  0  0  0  0  3  0  0  0  0  0  0
  187.9720  178.2350  140.3650 C   0  0  0  0  0  0  0  0  0  0  0  0
  186.8080  178.9980  140.3760 O   0  0  0  0  0  1  0  0  0  0  0  0
  190.3090  176.6930  140.3950 C   0  0  0  0  0  3  0  0  0  0  0  0
  189.8870  177.2770  136.7430 C   0  0  0  0  0  3  0  0  0  0  0  0
  188.4950  177.7730  141.5740 C   0  0  0  0  0  3  0  0  0  0  0  0
  189.6620  177.0070  141.5910 C   0  0  0  0  0  0  0  0  0  0  0  0
  188.6170  177.9250  139.1560 C   0  0  0  0  0  0  0  0  0  0  0  0
  191.6880  175.9730  137.8890 C   0  0  0  0  0  0  0  0  0  0  0  0
  192.6170  176.3930  136.7660 C   0  0  0  0  0  2  0  0  0  0  0  0
  193.0570  176.5500  138.2080 C   0  0  0  0  0  2  0  0  0  0  0  0
  191.5500  174.5120  137.9290 N   0  0  0  0  0  2  0  0  0  0  0  0
  189.5770  173.4610  136.8480 C   0  0  0  0  0  1  0  0  0  0  0  0
  191.0100  173.9380  136.6890 C   0  0  0  0  0  3  0  0  0  0  0  0
  191.9010  172.8600  136.0900 C   0  0  0  0  0  1  0  0  0  0  0  0
  190.2000  176.4950  142.8810 C   0  0  0  0  0  2  0  0  0  0  0  0
  189.1260  176.5690  143.9610 C   0  0  0  0  0  2  0  0  0  0  0  0
  189.5710  177.4060  145.1550 C   0  0  1  0  0  3  0  0  0  0  0  0
  190.1010  178.6250  144.7270 O   0  0  0  0  0  1  0  0  0  0  0  0
  188.4190  177.6350  146.1220 C   0  0  0  0  0  2  0  0  0  0  0  0
  187.1000  177.6470  145.3740 C   0  0  0  0  0  2  0  0  0  0  0  0
  186.0510  178.3470  146.2120 C   0  0  0  0  0  1  0  0  0  0  0  0
  1  2  1  0  0  0  0
  2  7  1  0  0  0  0
  3  8  1  0  0  0  0
  3  4  2  0  0  0  0
  4 11  1  0  0  0  0
  5  6  1  0  0  0  0
  5  9  2  0  0  0  0
  7 10  2  0  0  0  0
  8  1  2  0  0  0  0
  9 10  1  0  0  0  0
 10 19  1  0  0  0  0
 11  2  2  0  0  0  0
 11  5  1  0  0  0  0
 12 15  1  0  0  0  0
 12  1  1  0  0  0  0
 12 14  1  0  0  0  0
 13 12  1  0  0  0  0
 13 14  1  0  0  0  0
 17 16  1  0  0  0  0
 17 15  1  0  0  0  0
 18 17  1  0  0  0  0
 19 20  1  0  0  0  0
 20 21  1  0  0  0  0
 21 22  1  6  0  0  0
 21 23  1  0  0  0  0
 24 23  1  0  0  0  0
 24 25  1  0  0  0  0
M  END
>  <MODEL>
9

>  <REMARK>
 VINA RESULT:      -7.0      3.313      6.975
  Name = 
  8 active torsions:
  status: ('A' for Active; 'I' for Inactive)
    1  A    between atoms: C_1  and  C_5
    2  A    between atoms: C_2  and  C_7
    3  A    between atoms: C_2  and  C_21
    4  A    between atoms: C_5  and  N_10
    5  A    between atoms: C_6  and  C_15
    6  A    between atoms: C_6  and  C_23
    7  A    between atoms: N_10  and  C_11
    8  A    between atoms: C_15  and  C_21
                            x       y       z     vdW  Elec       q    Type
                         _______ _______ _______ _____ _____    ______ ____

>  <TORSDO>
F 8

$$$$
