=
 OpenBabel10262419283D

 31 36  0  0  1  0  0  0  0  0999 V2000
  190.6740  176.8830  146.2250 C   0  0  0  0  0  0  0  0  0  0  0  0
  188.0800  177.3940  143.5640 C   0  0  0  0  0  0  0  0  0  0  0  0
  186.8150  177.6410  144.3220 C   0  0  0  0  0  0  0  0  0  0  0  0
  186.4930  178.2650  146.6940 C   0  0  0  0  0  3  0  0  0  0  0  0
  189.3500  177.0160  144.2490 C   0  0  0  0  0  0  0  0  0  0  0  0
  191.7390  176.3390  145.5060 C   0  0  0  0  0  3  0  0  0  0  0  0
  186.6720  177.1430  145.7290 C   0  0  0  0  0  2  0  0  0  0  0  0
  189.3670  177.3510  141.4280 C   0  0  2  0  0  3  0  0  0  0  0  0
  190.7980  177.0970  147.6260 N   0  0  0  0  0  1  0  0  0  0  0  0
  185.8650  178.4760  142.3190 O   0  0  0  0  0  0  0  0  0  0  0  0
  185.4350  179.0710  146.6620 C   0  0  0  0  0  3  0  0  0  0  0  0
  190.2470  176.2540  142.0270 C   0  0  0  0  0  2  0  0  0  0  0  0
  188.0820  177.5200  142.2150 C   0  0  0  0  0  0  0  0  0  0  0  0
  189.5160  177.2070  145.5880 N   0  0  0  0  0  0  0  0  0  0  0  0
  184.3730  179.0160  145.6400 C   0  0  0  0  0  3  0  0  0  0  0  0
  190.4150  176.4880  143.4940 C   0  0  0  0  0  0  0  0  0  0  0  0
  191.6040  176.1380  144.1330 C   0  0  0  0  0  3  0  0  0  0  0  0
  186.7960  177.7900  141.4860 C   0  0  0  0  0  2  0  0  0  0  0  0
  185.7750  178.2270  143.6920 C   0  0  0  0  0  0  0  0  0  0  0  0
  184.5230  178.6420  144.3630 C   0  0  0  0  0  3  0  0  0  0  0  0
  189.1080  177.0650  140.0820 O   0  0  0  0  0  0  0  0  0  0  0  0
  190.6400  175.3670  136.0400 C   0  0  0  0  0  0  0  0  0  0  0  0
  190.9190  175.6920  138.4820 C   0  0  0  0  0  2  0  0  0  0  0  0
  188.7590  178.4590  137.2660 C   0  0  0  0  0  2  0  0  0  0  0  0
  189.0840  178.9830  138.6610 C   0  0  0  0  0  2  0  0  0  0  0  0
  190.8810  174.6620  134.8700 O   0  0  0  0  0  1  0  0  0  0  0  0
  189.9450  177.9250  139.3590 C   0  0  2  0  0  3  0  0  0  0  0  0
  191.2300  174.9870  137.1840 C   0  0  0  0  0  3  0  0  0  0  0  0
  189.7340  177.3670  137.0680 C   0  0  0  0  0  0  0  0  0  0  0  0
  190.6470  177.1830  138.2250 C   0  0  2  0  0  3  0  0  0  0  0  0
  189.7390  176.5380  136.0220 C   0  0  0  0  0  3  0  0  0  0  0  0
  1  9  1  0  0  0  0
  2  5  1  0  0  0  0
  2  3  1  0  0  0  0
  3  7  1  0  0  0  0
  5 14  2  0  0  0  0
  6  1  2  0  0  0  0
  7  4  1  0  0  0  0
  8 21  1  6  0  0  0
  8 12  1  0  0  0  0
  8 13  1  0  0  0  0
 10 19  1  0  0  0  0
 11  4  2  0  0  0  0
 12 16  1  0  0  0  0
 13  2  2  0  0  0  0
 14  1  1  0  0  0  0
 15 11  1  0  0  0  0
 16 17  2  0  0  0  0
 16  5  1  0  0  0  0
 17  6  1  0  0  0  0
 18 13  1  0  0  0  0
 18 10  1  0  0  0  0
 19  3  2  0  0  0  0
 19 20  1  0  0  0  0
 20 15  2  0  0  0  0
 22 28  2  0  0  0  0
 24 25  1  0  0  0  0
 25 27  1  0  0  0  0
 26 22  1  0  0  0  0
 27 21  1  6  0  0  0
 28 23  1  0  0  0  0
 29 24  1  0  0  0  0
 29 30  1  0  0  0  0
 30 23  1  1  0  0  0
 30 27  1  0  0  0  0
 31 22  1  0  0  0  0
 31 29  2  0  0  0  0
M  END
>  <MODEL>
1

>  <REMARK>
 VINA RESULT:     -10.7      0.000      0.000
  Name = 
  2 active torsions:
  status: ('A' for Active; 'I' for Inactive)
    1  A    between atoms: C_9  and  O_23
    2  A    between atoms: C_15  and  O_23
                            x       y       z     vdW  Elec       q    Type
                         _______ _______ _______ _____ _____    ______ ____

>  <TORSDO>
F 2

$$$$
=
 OpenBabel10262419283D

 31 36  0  0  1  0  0  0  0  0999 V2000
  190.7560  177.0150  144.5380 C   0  0  0  0  0  0  0  0  0  0  0  0
  187.6210  178.0130  142.7370 C   0  0  0  0  0  0  0  0  0  0  0  0
  186.5590  177.9690  143.7900 C   0  0  0  0  0  0  0  0  0  0  0  0
  186.7800  177.9390  146.2530 C   0  0  0  0  0  3  0  0  0  0  0  0
  189.0170  177.5600  143.0050 C   0  0  0  0  0  0  0  0  0  0  0  0
  191.6350  176.7480  143.4870 C   0  0  0  0  0  3  0  0  0  0  0  0
  186.7450  177.1180  145.0100 C   0  0  0  0  0  2  0  0  0  0  0  0
  188.3890  178.6100  140.4410 C   0  0  2  0  0  3  0  0  0  0  0  0
  191.1940  176.8700  145.8840 N   0  0  0  0  0  1  0  0  0  0  0  0
  185.1710  179.2240  142.3360 O   0  0  0  0  0  0  0  0  0  0  0  0
  185.7350  178.6520  146.6670 C   0  0  0  0  0  3  0  0  0  0  0  0
  189.3920  177.4590  140.5210 C   0  0  0  0  0  2  0  0  0  0  0  0
  187.3150  178.4810  141.5040 C   0  0  0  0  0  0  0  0  0  0  0  0
  189.4810  177.4110  144.2780 N   0  0  0  0  0  0  0  0  0  0  0  0
  184.4690  178.7870  145.9230 C   0  0  0  0  0  3  0  0  0  0  0  0
  189.8860  177.3180  141.9250 C   0  0  0  0  0  0  0  0  0  0  0  0
  191.1930  176.8990  142.1730 C   0  0  0  0  0  3  0  0  0  0  0  0
  185.8950  178.8410  141.1700 C   0  0  0  0  0  2  0  0  0  0  0  0
  185.3990  178.6240  143.5790 C   0  0  0  0  0  0  0  0  0  0  0  0
  184.3280  178.7660  144.5920 C   0  0  0  0  0  3  0  0  0  0  0  0
  187.8340  178.6620  139.1570 O   0  0  0  0  0  0  0  0  0  0  0  0
  185.2090  177.1680  135.6290 C   0  0  0  0  0  0  0  0  0  0  0  0
  185.7960  177.1390  138.0370 C   0  0  0  0  0  2  0  0  0  0  0  0
  188.8430  178.2000  136.1960 C   0  0  0  0  0  2  0  0  0  0  0  0
  189.4550  177.9260  137.5660 C   0  0  0  0  0  2  0  0  0  0  0  0
  184.3020  176.9910  134.5940 O   0  0  0  0  0  1  0  0  0  0  0  0
  188.3140  177.5190  138.5050 C   0  0  2  0  0  3  0  0  0  0  0  0
  184.8520  176.8770  136.8890 C   0  0  0  0  0  3  0  0  0  0  0  0
  187.5080  177.5740  136.2800 C   0  0  0  0  0  0  0  0  0  0  0  0
  187.2500  176.9210  137.5880 C   0  0  2  0  0  3  0  0  0  0  0  0
  186.5670  177.6730  135.3380 C   0  0  0  0  0  3  0  0  0  0  0  0
  1  9  1  0  0  0  0
  2  5  1  0  0  0  0
  2  3  1  0  0  0  0
  3  7  1  0  0  0  0
  4 11  2  0  0  0  0
  5 14  2  0  0  0  0
  6  1  2  0  0  0  0
  7  4  1  0  0  0  0
  8 21  1  6  0  0  0
  8 12  1  0  0  0  0
  8 13  1  0  0  0  0
 10 19  1  0  0  0  0
 12 16  1  0  0  0  0
 13  2  2  0  0  0  0
 14  1  1  0  0  0  0
 15 11  1  0  0  0  0
 16 17  2  0  0  0  0
 16  5  1  0  0  0  0
 17  6  1  0  0  0  0
 18 13  1  0  0  0  0
 18 10  1  0  0  0  0
 19  3  2  0  0  0  0
 19 20  1  0  0  0  0
 20 15  2  0  0  0  0
 22 28  2  0  0  0  0
 24 29  1  0  0  0  0
 24 25  1  0  0  0  0
 25 27  1  0  0  0  0
 26 22  1  0  0  0  0
 27 21  1  6  0  0  0
 28 23  1  0  0  0  0
 29 30  1  0  0  0  0
 30 23  1  1  0  0  0
 30 27  1  0  0  0  0
 31 22  1  0  0  0  0
 31 29  2  0  0  0  0
M  END
>  <MODEL>
2

>  <REMARK>
 VINA RESULT:     -10.4      2.145      2.752
  Name = 
  2 active torsions:
  status: ('A' for Active; 'I' for Inactive)
    1  A    between atoms: C_9  and  O_23
    2  A    between atoms: C_15  and  O_23
                            x       y       z     vdW  Elec       q    Type
                         _______ _______ _______ _____ _____    ______ ____

>  <TORSDO>
F 2

$$$$
=
 OpenBabel10262419283D

 31 36  0  0  1  0  0  0  0  0999 V2000
  189.9340  177.1350  146.3840 C   0  0  0  0  0  0  0  0  0  0  0  0
  188.0030  177.8400  143.2470 C   0  0  0  0  0  0  0  0  0  0  0  0
  186.5790  177.9180  143.6980 C   0  0  0  0  0  0  0  0  0  0  0  0
  185.6600  178.2150  145.9750 C   0  0  0  0  0  3  0  0  0  0  0  0
  189.1040  177.4470  144.1740 C   0  0  0  0  0  0  0  0  0  0  0  0
  191.1800  176.7450  145.8900 C   0  0  0  0  0  3  0  0  0  0  0  0
  186.1530  177.2380  144.9640 C   0  0  0  0  0  2  0  0  0  0  0  0
  189.7530  178.1400  141.4960 C   0  0  2  0  0  3  0  0  0  0  0  0
  189.7080  177.1740  147.7880 N   0  0  0  0  0  1  0  0  0  0  0  0
  186.0580  178.9500  141.6300 O   0  0  0  0  0  0  0  0  0  0  0  0
  184.5750  178.9610  145.7780 C   0  0  0  0  0  3  0  0  0  0  0  0
  190.5570  177.0250  142.1650 C   0  0  0  0  0  2  0  0  0  0  0  0
  188.3100  178.1370  141.9620 C   0  0  0  0  0  0  0  0  0  0  0  0
  188.9350  177.4740  145.5260 N   0  0  0  0  0  0  0  0  0  0  0  0
  183.7900  178.9790  144.5290 C   0  0  0  0  0  3  0  0  0  0  0  0
  190.3560  177.0780  143.6460 C   0  0  0  0  0  0  0  0  0  0  0  0
  191.3880  176.7150  144.5110 C   0  0  0  0  0  3  0  0  0  0  0  0
  187.2130  178.4280  140.9770 C   0  0  0  0  0  2  0  0  0  0  0  0
  185.6710  178.5230  142.9040 C   0  0  0  0  0  0  0  0  0  0  0  0
  184.2660  178.7800  143.2930 C   0  0  0  0  0  3  0  0  0  0  0  0
  189.8420  178.0150  140.1050 O   0  0  0  0  0  0  0  0  0  0  0  0
  188.8220  176.2910  135.9150 C   0  0  0  0  0  0  0  0  0  0  0  0
  188.2330  176.6500  138.2960 C   0  0  0  0  0  2  0  0  0  0  0  0
  191.9370  176.8110  138.0660 C   0  0  0  0  0  2  0  0  0  0  0  0
  191.7790  176.7220  139.5800 C   0  0  0  0  0  2  0  0  0  0  0  0
  188.4680  176.0590  134.5940 O   0  0  0  0  0  1  0  0  0  0  0  0
  190.2770  176.7020  139.8840 C   0  0  2  0  0  3  0  0  0  0  0  0
  187.8770  176.3200  136.8660 C   0  0  0  0  0  3  0  0  0  0  0  0
  190.6020  176.4400  137.5540 C   0  0  0  0  0  0  0  0  0  0  0  0
  189.6330  176.1130  138.6310 C   0  0  2  0  0  3  0  0  0  0  0  0
  190.2420  176.4990  136.2700 C   0  0  0  0  0  3  0  0  0  0  0  0
  1  9  1  0  0  0  0
  2  3  1  0  0  0  0
  2  5  1  0  0  0  0
  3  7  1  0  0  0  0
  5 14  1  0  0  0  0
  6  1  1  0  0  0  0
  7  4  1  0  0  0  0
  8 21  1  6  0  0  0
  8 13  1  0  0  0  0
  8 12  1  0  0  0  0
 10 19  1  0  0  0  0
 11  4  2  0  0  0  0
 12 16  1  0  0  0  0
 13  2  2  0  0  0  0
 14  1  2  0  0  0  0
 15 11  1  0  0  0  0
 16  5  2  0  0  0  0
 16 17  1  0  0  0  0
 17  6  2  0  0  0  0
 18 10  1  0  0  0  0
 18 13  1  0  0  0  0
 19 20  1  0  0  0  0
 19  3  2  0  0  0  0
 20 15  2  0  0  0  0
 22 31  1  0  0  0  0
 22 28  2  0  0  0  0
 24 25  1  0  0  0  0
 25 27  1  0  0  0  0
 26 22  1  0  0  0  0
 27 21  1  6  0  0  0
 28 23  1  0  0  0  0
 29 24  1  0  0  0  0
 29 30  1  0  0  0  0
 30 23  1  6  0  0  0
 30 27  1  0  0  0  0
 31 29  2  0  0  0  0
M  END
>  <MODEL>
3

>  <REMARK>
 VINA RESULT:      -9.7      1.187      1.640
  Name = 
  2 active torsions:
  status: ('A' for Active; 'I' for Inactive)
    1  A    between atoms: C_9  and  O_23
    2  A    between atoms: C_15  and  O_23
                            x       y       z     vdW  Elec       q    Type
                         _______ _______ _______ _____ _____    ______ ____

>  <TORSDO>
F 2

$$$$
=
 OpenBabel10262419283D

 31 36  0  0  1  0  0  0  0  0999 V2000
  190.2150  177.7470  140.5830 C   0  0  0  0  0  0  0  0  0  0  0  0
  186.9860  178.0170  142.4730 C   0  0  0  0  0  0  0  0  0  0  0  0
  187.3220  177.5430  143.8510 C   0  0  0  0  0  0  0  0  0  0  0  0
  189.5300  177.2760  144.9320 C   0  0  0  0  0  3  0  0  0  0  0  0
  187.9710  177.9540  141.3540 C   0  0  0  0  0  0  0  0  0  0  0  0
  189.7990  177.8730  139.2570 C   0  0  0  0  0  3  0  0  0  0  0  0
  188.4970  176.6380  144.0680 C   0  0  0  0  0  2  0  0  0  0  0  0
  185.4110  179.0850  140.8590 C   0  0  2  0  0  3  0  0  0  0  0  0
  191.5950  177.5700  140.8810 N   0  0  0  0  0  1  0  0  0  0  0  0
  185.2950  178.5150  144.5990 O   0  0  0  0  0  0  0  0  0  0  0  0
  189.2960  177.6040  146.2010 C   0  0  0  0  0  3  0  0  0  0  0  0
  186.0650  178.2680  139.7440 C   0  0  0  0  0  2  0  0  0  0  0  0
  185.7550  178.5250  142.2260 C   0  0  0  0  0  0  0  0  0  0  0  0
  189.3030  177.7900  141.5910 N   0  0  0  0  0  0  0  0  0  0  0  0
  187.9910  177.4610  146.8730 C   0  0  0  0  0  3  0  0  0  0  0  0
  187.5240  178.1050  140.0270 C   0  0  0  0  0  0  0  0  0  0  0  0
  188.4440  178.0510  138.9800 C   0  0  0  0  0  3  0  0  0  0  0  0
  184.7050  178.5010  143.3020 C   0  0  0  0  0  2  0  0  0  0  0  0
  186.5000  177.8590  144.8730 C   0  0  0  0  0  0  0  0  0  0  0  0
  186.7880  177.5630  146.2940 C   0  0  0  0  0  3  0  0  0  0  0  0
  184.0270  179.1320  140.6590 O   0  0  0  0  0  0  0  0  0  0  0  0
  180.3600  176.6350  139.2870 C   0  0  0  0  0  0  0  0  0  0  0  0
  182.7610  176.7820  139.8860 C   0  0  0  0  0  2  0  0  0  0  0  0
  181.7210  180.1650  138.7590 C   0  0  0  0  0  2  0  0  0  0  0  0
  183.2340  180.3530  138.7670 C   0  0  0  0  0  2  0  0  0  0  0  0
  179.1780  175.9190  139.1590 O   0  0  0  0  0  1  0  0  0  0  0  0
  183.8560  179.0460  139.2720 C   0  0  2  0  0  3  0  0  0  0  0  0
  181.4840  176.0070  139.6630 C   0  0  0  0  0  3  0  0  0  0  0  0
  181.5510  178.7010  138.8560 C   0  0  0  0  0  0  0  0  0  0  0  0
  182.8400  177.9660  138.9090 C   0  0  2  0  0  3  0  0  0  0  0  0
  180.3760  178.0850  139.0040 C   0  0  0  0  0  3  0  0  0  0  0  0
  1  9  1  0  0  0  0
  1 14  1  0  0  0  0
  2  3  1  0  0  0  0
  3  7  1  0  0  0  0
  3 19  2  0  0  0  0
  4 11  2  0  0  0  0
  5 14  2  0  0  0  0
  5  2  1  0  0  0  0
  6  1  2  0  0  0  0
  7  4  1  0  0  0  0
  8 21  1  6  0  0  0
  8 13  1  0  0  0  0
 10 19  1  0  0  0  0
 11 15  1  0  0  0  0
 12 16  1  0  0  0  0
 12  8  1  0  0  0  0
 13  2  2  0  0  0  0
 13 18  1  0  0  0  0
 16  5  1  0  0  0  0
 17  6  1  0  0  0  0
 17 16  2  0  0  0  0
 18 10  1  0  0  0  0
 19 20  1  0  0  0  0
 20 15  2  0  0  0  0
 22 28  2  0  0  0  0
 24 25  1  0  0  0  0
 24 29  1  0  0  0  0
 25 27  1  0  0  0  0
 26 22  1  0  0  0  0
 27 21  1  1  0  0  0
 28 23  1  0  0  0  0
 29 30  1  0  0  0  0
 29 31  2  0  0  0  0
 30 27  1  0  0  0  0
 30 23  1  1  0  0  0
 31 22  1  0  0  0  0
M  END
>  <MODEL>
4

>  <REMARK>
 VINA RESULT:      -9.7      3.723      6.194
  Name = 
  2 active torsions:
  status: ('A' for Active; 'I' for Inactive)
    1  A    between atoms: C_9  and  O_23
    2  A    between atoms: C_15  and  O_23
                            x       y       z     vdW  Elec       q    Type
                         _______ _______ _______ _____ _____    ______ ____

>  <TORSDO>
F 2

$$$$
=
 OpenBabel10262419283D

 31 36  0  0  1  0  0  0  0  0999 V2000
  180.0610  178.5800  142.1080 C   0  0  0  0  0  0  0  0  0  0  0  0
  183.7980  178.5670  141.7790 C   0  0  0  0  0  0  0  0  0  0  0  0
  184.0440  178.1470  140.3650 C   0  0  0  0  0  0  0  0  0  0  0  0
  182.4930  178.1090  138.4380 C   0  0  0  0  0  3  0  0  0  0  0  0
  182.4280  178.5820  142.3710 C   0  0  0  0  0  0  0  0  0  0  0  0
  179.8810  178.6460  143.4910 C   0  0  0  0  0  3  0  0  0  0  0  0
  183.0040  177.3620  139.6220 C   0  0  0  0  0  2  0  0  0  0  0  0
  184.6150  179.4550  143.9620 C   0  0  2  0  0  3  0  0  0  0  0  0
  178.9310  178.5400  141.2460 N   0  0  0  0  0  1  0  0  0  0  0  0
  186.2670  178.9310  140.5970 O   0  0  0  0  0  0  0  0  0  0  0  0
  183.2710  178.4310  137.4070 C   0  0  0  0  0  3  0  0  0  0  0  0
  183.4850  178.6890  144.6500 C   0  0  0  0  0  2  0  0  0  0  0  0
  184.8430  178.9510  142.5500 C   0  0  0  0  0  0  0  0  0  0  0  0
  181.3160  178.5500  141.5840 N   0  0  0  0  0  0  0  0  0  0  0  0
  184.7220  178.1740  137.3430 C   0  0  0  0  0  3  0  0  0  0  0  0
  182.2780  178.6700  143.7680 C   0  0  0  0  0  0  0  0  0  0  0  0
  180.9990  178.6890  144.3230 C   0  0  0  0  0  3  0  0  0  0  0  0
  186.2450  178.8420  142.0190 C   0  0  0  0  0  2  0  0  0  0  0  0
  185.2450  178.3980  139.8050 C   0  0  0  0  0  0  0  0  0  0  0  0
  185.5670  178.1510  138.3810 C   0  0  0  0  0  3  0  0  0  0  0  0
  185.7810  179.3660  144.7310 O   0  0  0  0  0  0  0  0  0  0  0  0
  189.7070  177.1050  145.7520 C   0  0  0  0  0  0  0  0  0  0  0  0
  187.7550  177.4660  144.2670 C   0  0  0  0  0  2  0  0  0  0  0  0
  186.7710  178.6510  147.6470 C   0  0  0  0  0  2  0  0  0  0  0  0
  185.4030  178.6380  146.9730 C   0  0  0  0  0  2  0  0  0  0  0  0
  191.0100  176.6810  145.9700 O   0  0  0  0  0  1  0  0  0  0  0  0
  185.6150  178.2170  145.5140 C   0  0  2  0  0  3  0  0  0  0  0  0
  189.1420  176.9390  144.5470 C   0  0  0  0  0  3  0  0  0  0  0  0
  187.6230  177.8780  146.7210 C   0  0  0  0  0  0  0  0  0  0  0  0
  186.8880  177.3750  145.5320 C   0  0  2  0  0  3  0  0  0  0  0  0
  188.9440  177.7340  146.8510 C   0  0  0  0  0  3  0  0  0  0  0  0
  1  6  1  0  0  0  0
  2  5  1  0  0  0  0
  2 13  2  0  0  0  0
  3  2  1  0  0  0  0
  4  7  1  0  0  0  0
  5 16  2  0  0  0  0
  6 17  2  0  0  0  0
  7  3  1  0  0  0  0
  8 12  1  0  0  0  0
  8 21  1  1  0  0  0
  9  1  1  0  0  0  0
 10 18  1  0  0  0  0
 11  4  2  0  0  0  0
 13  8  1  0  0  0  0
 14  1  2  0  0  0  0
 14  5  1  0  0  0  0
 15 11  1  0  0  0  0
 15 20  2  0  0  0  0
 16 17  1  0  0  0  0
 16 12  1  0  0  0  0
 18 13  1  0  0  0  0
 19  3  2  0  0  0  0
 19 10  1  0  0  0  0
 20 19  1  0  0  0  0
 22 26  1  0  0  0  0
 22 31  1  0  0  0  0
 23 28  1  0  0  0  0
 25 24  1  0  0  0  0
 27 21  1  6  0  0  0
 27 30  1  0  0  0  0
 27 25  1  0  0  0  0
 28 22  2  0  0  0  0
 29 31  2  0  0  0  0
 29 24  1  0  0  0  0
 30 23  1  6  0  0  0
 30 29  1  0  0  0  0
M  END
>  <MODEL>
5

>  <REMARK>
 VINA RESULT:      -9.7      4.339      8.439
  Name = 
  2 active torsions:
  status: ('A' for Active; 'I' for Inactive)
    1  A    between atoms: C_9  and  O_23
    2  A    between atoms: C_15  and  O_23
                            x       y       z     vdW  Elec       q    Type
                         _______ _______ _______ _____ _____    ______ ____

>  <TORSDO>
F 2

$$$$
=
 OpenBabel10262419283D

 31 36  0  0  1  0  0  0  0  0999 V2000
  185.2440  178.3120  145.1730 C   0  0  0  0  0  0  0  0  0  0  0  0
  188.6770  177.7890  143.7550 C   0  0  0  0  0  0  0  0  0  0  0  0
  189.5540  177.6310  144.9560 C   0  0  0  0  0  0  0  0  0  0  0  0
  188.9440  177.1320  147.3000 C   0  0  0  0  0  3  0  0  0  0  0  0
  187.2330  178.1440  143.8730 C   0  0  0  0  0  0  0  0  0  0  0  0
  184.5290  178.7780  144.0680 C   0  0  0  0  0  3  0  0  0  0  0  0
  189.1290  178.1990  146.2770 C   0  0  0  0  0  2  0  0  0  0  0  0
  188.3180  177.6790  141.2890 C   0  0  2  0  0  3  0  0  0  0  0  0
  184.5910  178.1580  146.4270 N   0  0  0  0  0  1  0  0  0  0  0  0
  191.2240  176.7460  143.5270 O   0  0  0  0  0  0  0  0  0  0  0  0
  189.9480  176.3700  147.7270 C   0  0  0  0  0  3  0  0  0  0  0  0
  187.2520  178.7640  141.4360 C   0  0  0  0  0  2  0  0  0  0  0  0
  189.2000  177.6010  142.5190 C   0  0  0  0  0  0  0  0  0  0  0  0
  186.5650  178.0090  145.0530 N   0  0  0  0  0  0  0  0  0  0  0  0
  191.3220  176.4230  147.1930 C   0  0  0  0  0  3  0  0  0  0  0  0
  186.5330  178.5910  142.7360 C   0  0  0  0  0  0  0  0  0  0  0  0
  185.1820  178.9200  142.8440 C   0  0  0  0  0  3  0  0  0  0  0  0
  190.6740  177.3520  142.3610 C   0  0  0  0  0  2  0  0  0  0  0  0
  190.7690  177.0610  144.8120 C   0  0  0  0  0  0  0  0  0  0  0  0
  191.6710  176.7310  145.9380 C   0  0  0  0  0  3  0  0  0  0  0  0
  189.0720  177.9130  140.1330 O   0  0  0  0  0  0  0  0  0  0  0  0
  187.3110  178.1470  135.8420 C   0  0  0  0  0  0  0  0  0  0  0  0
  187.0090  177.7820  138.2760 C   0  0  0  0  0  2  0  0  0  0  0  0
  190.5530  176.9860  137.4980 C   0  0  0  0  0  2  0  0  0  0  0  0
  190.4660  176.4110  138.9070 C   0  0  0  0  0  2  0  0  0  0  0  0
  186.8230  178.5090  134.5950 O   0  0  0  0  0  1  0  0  0  0  0  0
  189.0560  176.6990  139.4340 C   0  0  2  0  0  3  0  0  0  0  0  0
  186.4820  178.0950  136.8960 C   0  0  0  0  0  3  0  0  0  0  0  0
  189.1410  177.2050  137.1230 C   0  0  0  0  0  0  0  0  0  0  0  0
  188.1850  176.7980  138.1840 C   0  0  2  0  0  3  0  0  0  0  0  0
  188.7420  177.8150  136.0050 C   0  0  0  0  0  3  0  0  0  0  0  0
  1  9  1  0  0  0  0
  2  5  1  0  0  0  0
  2  3  1  0  0  0  0
  3  7  1  0  0  0  0
  4 11  2  0  0  0  0
  5 14  2  0  0  0  0
  6  1  2  0  0  0  0
  7  4  1  0  0  0  0
  8 21  1  6  0  0  0
  8 12  1  0  0  0  0
  8 13  1  0  0  0  0
 10 19  1  0  0  0  0
 12 16  1  0  0  0  0
 13  2  2  0  0  0  0
 14  1  1  0  0  0  0
 15 11  1  0  0  0  0
 16 17  2  0  0  0  0
 16  5  1  0  0  0  0
 17  6  1  0  0  0  0
 18 13  1  0  0  0  0
 18 10  1  0  0  0  0
 19  3  2  0  0  0  0
 19 20  1  0  0  0  0
 20 15  2  0  0  0  0
 22 31  1  0  0  0  0
 22 28  2  0  0  0  0
 24 25  1  0  0  0  0
 25 27  1  0  0  0  0
 26 22  1  0  0  0  0
 27 21  1  6  0  0  0
 28 23  1  0  0  0  0
 29 24  1  0  0  0  0
 29 30  1  0  0  0  0
 30 23  1  1  0  0  0
 30 27  1  0  0  0  0
 31 29  2  0  0  0  0
M  END
>  <MODEL>
6

>  <REMARK>
 VINA RESULT:      -9.6      2.088      4.437
  Name = 
  2 active torsions:
  status: ('A' for Active; 'I' for Inactive)
    1  A    between atoms: C_9  and  O_23
    2  A    between atoms: C_15  and  O_23
                            x       y       z     vdW  Elec       q    Type
                         _______ _______ _______ _____ _____    ______ ____

>  <TORSDO>
F 2

$$$$
=
 OpenBabel10262419283D

 31 36  0  0  1  0  0  0  0  0999 V2000
  182.4760  178.1040  138.0870 C   0  0  0  0  0  0  0  0  0  0  0  0
  185.8820  178.3170  139.6450 C   0  0  0  0  0  0  0  0  0  0  0  0
  186.8180  177.9350  138.5430 C   0  0  0  0  0  0  0  0  0  0  0  0
  186.4250  177.8380  136.1020 C   0  0  0  0  0  3  0  0  0  0  0  0
  184.4010  178.2410  139.4840 C   0  0  0  0  0  0  0  0  0  0  0  0
  181.6340  178.1370  139.1990 C   0  0  0  0  0  3  0  0  0  0  0  0
  186.3290  177.1030  137.3950 C   0  0  0  0  0  2  0  0  0  0  0  0
  185.4610  179.2140  141.9330 C   0  0  2  0  0  3  0  0  0  0  0  0
  181.9230  178.0120  136.7800 N   0  0  0  0  0  1  0  0  0  0  0  0
  188.5860  178.8450  139.8310 O   0  0  0  0  0  0  0  0  0  0  0  0
  187.5900  178.2230  135.5850 C   0  0  0  0  0  3  0  0  0  0  0  0
  184.1870  178.3720  141.9860 C   0  0  0  0  0  2  0  0  0  0  0  0
  186.3860  178.7490  140.8260 C   0  0  0  0  0  0  0  0  0  0  0  0
  183.8250  178.1570  138.2510 N   0  0  0  0  0  0  0  0  0  0  0  0
  188.8960  178.0530  136.2490 C   0  0  0  0  0  3  0  0  0  0  0  0
  183.5760  178.2970  140.6230 C   0  0  0  0  0  0  0  0  0  0  0  0
  182.1900  178.2310  140.4740 C   0  0  0  0  0  3  0  0  0  0  0  0
  187.8710  178.7310  141.0580 C   0  0  0  0  0  2  0  0  0  0  0  0
  188.1220  178.2660  138.6450 C   0  0  0  0  0  0  0  0  0  0  0  0
  189.1190  178.0630  137.5690 C   0  0  0  0  0  3  0  0  0  0  0  0
  186.0990  179.1820  143.1790 O   0  0  0  0  0  0  0  0  0  0  0  0
  188.7110  177.2820  146.5160 C   0  0  0  0  0  0  0  0  0  0  0  0
  187.9540  177.3580  144.1570 C   0  0  0  0  0  2  0  0  0  0  0  0
  185.2460  178.8620  146.2070 C   0  0  0  0  0  2  0  0  0  0  0  0
  184.5020  178.6940  144.8860 C   0  0  0  0  0  2  0  0  0  0  0  0
  189.6520  176.9610  147.4840 O   0  0  0  0  0  1  0  0  0  0  0  0
  185.4970  178.1220  143.8690 C   0  0  2  0  0  3  0  0  0  0  0  0
  188.9270  176.9480  145.2350 C   0  0  0  0  0  3  0  0  0  0  0  0
  186.4590  178.0390  146.0300 C   0  0  0  0  0  0  0  0  0  0  0  0
  186.5200  177.3620  144.7100 C   0  0  2  0  0  3  0  0  0  0  0  0
  187.4700  177.9870  146.9010 C   0  0  0  0  0  3  0  0  0  0  0  0
  1 14  2  0  0  0  0
  1  6  1  0  0  0  0
  2 13  2  0  0  0  0
  3 19  2  0  0  0  0
  3  2  1  0  0  0  0
  4  7  1  0  0  0  0
  5  2  1  0  0  0  0
  5 16  2  0  0  0  0
  6 17  2  0  0  0  0
  7  3  1  0  0  0  0
  8 12  1  0  0  0  0
  8 21  1  1  0  0  0
  9  1  1  0  0  0  0
 10 18  1  0  0  0  0
 11  4  2  0  0  0  0
 11 15  1  0  0  0  0
 13 18  1  0  0  0  0
 13  8  1  0  0  0  0
 14  5  1  0  0  0  0
 15 20  2  0  0  0  0
 16 12  1  0  0  0  0
 17 16  1  0  0  0  0
 19 10  1  0  0  0  0
 20 19  1  0  0  0  0
 22 31  1  0  0  0  0
 22 26  1  0  0  0  0
 23 28  1  0  0  0  0
 25 24  1  0  0  0  0
 27 21  1  1  0  0  0
 27 30  1  0  0  0  0
 27 25  1  0  0  0  0
 28 22  2  0  0  0  0
 29 24  1  0  0  0  0
 29 31  2  0  0  0  0
 30 23  1  6  0  0  0
 30 29  1  0  0  0  0
M  END
>  <MODEL>
7

>  <REMARK>
 VINA RESULT:      -9.6      3.721      8.661
  Name = 
  2 active torsions:
  status: ('A' for Active; 'I' for Inactive)
    1  A    between atoms: C_9  and  O_23
    2  A    between atoms: C_15  and  O_23
                            x       y       z     vdW  Elec       q    Type
                         _______ _______ _______ _____ _____    ______ ____

>  <TORSDO>
F 2

$$$$
=
 OpenBabel10262419283D

 31 36  0  0  1  0  0  0  0  0999 V2000
  187.6690  178.0020  137.7140 C   0  0  0  0  0  0  0  0  0  0  0  0
  185.8430  178.5840  140.9390 C   0  0  0  0  0  0  0  0  0  0  0  0
  184.4490  178.9230  140.5190 C   0  0  0  0  0  0  0  0  0  0  0  0
  183.3220  178.5600  138.3470 C   0  0  0  0  0  3  0  0  0  0  0  0
  186.9430  178.3980  139.9480 C   0  0  0  0  0  0  0  0  0  0  0  0
  189.0050  178.0190  138.1180 C   0  0  0  0  0  3  0  0  0  0  0  0
  184.1890  179.4710  139.1480 C   0  0  0  0  0  2  0  0  0  0  0  0
  187.5090  178.0150  142.7060 C   0  0  2  0  0  3  0  0  0  0  0  0
  187.3430  177.7930  136.3460 N   0  0  0  0  0  1  0  0  0  0  0  0
  183.7590  178.5240  142.7500 O   0  0  0  0  0  0  0  0  0  0  0  0
  182.0660  178.2840  138.6910 C   0  0  0  0  0  3  0  0  0  0  0  0
  188.5930  178.6430  141.8300 C   0  0  0  0  0  2  0  0  0  0  0  0
  186.1240  178.4340  142.2560 C   0  0  0  0  0  0  0  0  0  0  0  0
  186.6790  178.1900  138.6270 N   0  0  0  0  0  0  0  0  0  0  0  0
  181.4140  178.7630  139.9240 C   0  0  0  0  0  3  0  0  0  0  0  0
  188.2800  178.3990  140.3880 C   0  0  0  0  0  0  0  0  0  0  0  0
  189.3090  178.2210  139.4630 C   0  0  0  0  0  3  0  0  0  0  0  0
  185.0660  178.7220  143.2840 C   0  0  0  0  0  2  0  0  0  0  0  0
  183.4490  178.8230  141.4200 C   0  0  0  0  0  0  0  0  0  0  0  0
  182.0160  179.0030  141.0950 C   0  0  0  0  0  3  0  0  0  0  0  0
  187.7350  178.3490  144.0460 O   0  0  0  0  0  0  0  0  0  0  0  0
  190.9880  177.1270  147.1270 C   0  0  0  0  0  0  0  0  0  0  0  0
  190.0410  177.0160  144.8390 C   0  0  0  0  0  2  0  0  0  0  0  0
  187.2350  177.8450  147.1270 C   0  0  0  0  0  2  0  0  0  0  0  0
  186.4450  177.5030  145.8680 C   0  0  0  0  0  2  0  0  0  0  0  0
  192.0550  177.0410  148.0100 O   0  0  0  0  0  1  0  0  0  0  0  0
  187.4580  177.1790  144.7650 C   0  0  2  0  0  3  0  0  0  0  0  0
  191.1700  176.8500  145.8280 C   0  0  0  0  0  3  0  0  0  0  0  0
  188.5890  177.3310  146.8390 C   0  0  0  0  0  0  0  0  0  0  0  0
  188.6980  176.6840  145.5070 C   0  0  2  0  0  3  0  0  0  0  0  0
  189.6520  177.5210  147.6240 C   0  0  0  0  0  3  0  0  0  0  0  0
  1  6  2  0  0  0  0
  1 14  1  0  0  0  0
  2 13  2  0  0  0  0
  3  2  1  0  0  0  0
  3 19  2  0  0  0  0
  4 11  2  0  0  0  0
  4  7  1  0  0  0  0
  5 16  1  0  0  0  0
  5  2  1  0  0  0  0
  6 17  1  0  0  0  0
  7  3  1  0  0  0  0
  8 21  1  1  0  0  0
  9  1  1  0  0  0  0
 10 18  1  0  0  0  0
 11 15  1  0  0  0  0
 12  8  1  0  0  0  0
 13  8  1  0  0  0  0
 13 18  1  0  0  0  0
 14  5  2  0  0  0  0
 15 20  2  0  0  0  0
 16 12  1  0  0  0  0
 17 16  2  0  0  0  0
 19 10  1  0  0  0  0
 20 19  1  0  0  0  0
 22 31  1  0  0  0  0
 22 26  1  0  0  0  0
 23 28  1  0  0  0  0
 25 24  1  0  0  0  0
 27 21  1  1  0  0  0
 27 30  1  0  0  0  0
 27 25  1  0  0  0  0
 28 22  2  0  0  0  0
 29 24  1  0  0  0  0
 29 31  2  0  0  0  0
 30 23  1  6  0  0  0
 30 29  1  0  0  0  0
M  END
>  <MODEL>
8

>  <REMARK>
 VINA RESULT:      -9.6      3.561      7.401
  Name = 
  2 active torsions:
  status: ('A' for Active; 'I' for Inactive)
    1  A    between atoms: C_9  and  O_23
    2  A    between atoms: C_15  and  O_23
                            x       y       z     vdW  Elec       q    Type
                         _______ _______ _______ _____ _____    ______ ____

>  <TORSDO>
F 2

$$$$
=
 OpenBabel10262419283D

 31 36  0  0  1  0  0  0  0  0999 V2000
  184.2620  177.9940  138.1070 C   0  0  0  0  0  0  0  0  0  0  0  0
  183.4650  178.6750  141.7090 C   0  0  0  0  0  0  0  0  0  0  0  0
  181.9950  178.9480  141.7170 C   0  0  0  0  0  0  0  0  0  0  0  0
  180.2860  178.4410  140.0030 C   0  0  0  0  0  3  0  0  0  0  0  0
  184.2230  178.4770  140.4390 C   0  0  0  0  0  0  0  0  0  0  0  0
  185.6560  178.0740  138.0870 C   0  0  0  0  0  3  0  0  0  0  0  0
  181.3100  179.4180  140.4690 C   0  0  0  0  0  2  0  0  0  0  0  0
  185.6100  178.2490  142.9090 C   0  0  2  0  0  3  0  0  0  0  0  0
  183.5500  177.7060  136.9100 N   0  0  0  0  0  1  0  0  0  0  0  0
  182.0270  178.6380  144.0660 O   0  0  0  0  0  0  0  0  0  0  0  0
  179.2050  178.1420  140.7200 C   0  0  0  0  0  3  0  0  0  0  0  0
  186.3500  178.8690  141.7240 C   0  0  0  0  0  2  0  0  0  0  0  0
  184.1350  178.6000  142.8840 C   0  0  0  0  0  0  0  0  0  0  0  0
  183.5850  178.1940  139.2690 N   0  0  0  0  0  0  0  0  0  0  0  0
  178.9320  178.6600  142.0740 C   0  0  0  0  0  3  0  0  0  0  0  0
  185.6300  178.5430  140.4540 C   0  0  0  0  0  0  0  0  0  0  0  0
  186.3410  178.3530  139.2690 C   0  0  0  0  0  3  0  0  0  0  0  0
  183.4230  178.9050  144.1720 C   0  0  0  0  0  2  0  0  0  0  0  0
  181.3180  178.8600  142.8810 C   0  0  0  0  0  0  0  0  0  0  0  0
  179.8460  178.9770  142.9980 C   0  0  0  0  0  3  0  0  0  0  0  0
  186.2120  178.6570  144.1050 O   0  0  0  0  0  0  0  0  0  0  0  0
  190.4570  177.3920  145.4980 C   0  0  0  0  0  0  0  0  0  0  0  0
  188.6080  177.2720  143.8520 C   0  0  0  0  0  2  0  0  0  0  0  0
  187.0920  178.2150  147.1100 C   0  0  0  0  0  2  0  0  0  0  0  0
  185.8270  177.8760  146.3280 C   0  0  0  0  0  2  0  0  0  0  0  0
  191.8000  177.2880  145.8320 O   0  0  0  0  0  1  0  0  0  0  0  0
  186.2530  177.5060  144.9030 C   0  0  2  0  0  3  0  0  0  0  0  0
  190.0510  177.0890  144.2560 C   0  0  0  0  0  3  0  0  0  0  0  0
  188.1760  177.6580  146.2750 C   0  0  0  0  0  0  0  0  0  0  0  0
  187.6820  176.9880  145.0450 C   0  0  2  0  0  3  0  0  0  0  0  0
  189.4780  177.8300  146.5150 C   0  0  0  0  0  3  0  0  0  0  0  0
  1 14  1  0  0  0  0
  2  3  1  0  0  0  0
  2 13  2  0  0  0  0
  3 19  2  0  0  0  0
  4  7  1  0  0  0  0
  4 11  2  0  0  0  0
  5 16  1  0  0  0  0
  5  2  1  0  0  0  0
  6  1  2  0  0  0  0
  6 17  1  0  0  0  0
  7  3  1  0  0  0  0
  8 21  1  1  0  0  0
  9  1  1  0  0  0  0
 10 18  1  0  0  0  0
 11 15  1  0  0  0  0
 12  8  1  0  0  0  0
 13  8  1  0  0  0  0
 13 18  1  0  0  0  0
 14  5  2  0  0  0  0
 15 20  2  0  0  0  0
 16 12  1  0  0  0  0
 17 16  2  0  0  0  0
 19 20  1  0  0  0  0
 19 10  1  0  0  0  0
 22 26  1  0  0  0  0
 22 31  1  0  0  0  0
 23 28  1  0  0  0  0
 25 24  1  0  0  0  0
 27 21  1  6  0  0  0
 27 30  1  0  0  0  0
 27 25  1  0  0  0  0
 28 22  2  0  0  0  0
 29 31  2  0  0  0  0
 29 24  1  0  0  0  0
 30 23  1  6  0  0  0
 30 29  1  0  0  0  0
M  END
>  <MODEL>
9

>  <REMARK>
 VINA RESULT:      -9.4      4.343      7.730
  Name = 
  2 active torsions:
  status: ('A' for Active; 'I' for Inactive)
    1  A    between atoms: C_9  and  O_23
    2  A    between atoms: C_15  and  O_23
                            x       y       z     vdW  Elec       q    Type
                         _______ _______ _______ _____ _____    ______ ____

>  <TORSDO>
F 2

$$$$
