=
 OpenBabel10262419553D

 25 28  0  0  1  0  0  0  0  0999 V2000
  187.5750  177.9450  143.0290 N   0  0  0  0  0  0  0  0  0  0  0  0
  187.3700  177.8170  144.4430 C   0  0  0  0  0  0  0  0  0  0  0  0
  185.3110  178.6760  142.6660 C   0  0  0  0  0  3  0  0  0  0  0  0
  188.7580  177.6670  142.2140 C   0  0  0  0  0  0  0  0  0  0  0  0
  189.0980  178.6780  139.7580 C   0  0  0  0  0  2  0  0  0  0  0  0
  185.0730  178.5810  144.1280 C   0  0  0  0  0  3  0  0  0  0  0  0
  188.2320  178.0050  140.7990 C   0  0  0  0  0  0  0  0  0  0  0  0
  188.6540  177.2260  139.5740 C   0  0  0  0  0  2  0  0  0  0  0  0
  185.7810  178.1310  146.4590 C   0  0  2  0  0  3  0  0  0  0  0  0
  185.5360  179.4700  146.9660 N   0  0  0  0  0  1  0  0  0  0  0  0
  188.3140  177.3530  145.2580 C   0  0  0  0  0  3  0  0  0  0  0  0
  189.9100  178.5700  142.6300 C   0  0  0  0  0  1  0  0  0  0  0  0
  186.5160  178.3690  142.1830 C   0  0  0  0  0  0  0  0  0  0  0  0
  186.8760  178.4160  140.8500 O   0  0  0  0  0  0  0  0  0  0  0  0
  186.8940  177.5270  147.2050 N   0  0  0  0  0  0  0  0  0  0  0  0
  189.1570  176.2040  142.3390 C   0  0  0  0  0  1  0  0  0  0  0  0
  188.0460  177.1890  146.6950 C   0  0  0  0  0  0  0  0  0  0  0  0
  186.0390  178.1830  144.9760 C   0  0  0  0  0  0  0  0  0  0  0  0
  189.0500  176.6490  147.5020 O   0  0  0  0  0  0  0  0  0  0  0  0
  190.3120  177.2790  147.6640 C   0  0  0  0  0  2  0  0  0  0  0  0
  191.3660  176.4670  146.9930 C   0  0  0  0  0  0  0  0  0  0  0  0
  191.9250  175.5340  147.6290 O   0  0  0  0  0  0  0  0  0  0  0  0
  191.7250  176.7240  145.5930 C   0  0  0  0  0  0  0  0  0  0  0  0
  191.8480  175.6680  144.6970 O   0  0  0  0  0  0  0  0  0  0  0  0
  191.9240  177.9010  145.1950 O   0  0  0  0  0  1  0  0  0  0  0  0
  1  2  1  0  0  0  0
  2 18  1  0  0  0  0
  2 11  2  0  0  0  0
  3  6  1  0  0  0  0
  4 16  1  0  0  0  0
  4 12  1  0  0  0  0
  4  1  1  0  0  0  0
  5  7  1  0  0  0  0
  6 18  2  0  0  0  0
  7 14  1  0  0  0  0
  7  4  1  0  0  0  0
  8  5  1  0  0  0  0
  8  7  1  0  0  0  0
  9 10  1  1  0  0  0
  9 15  1  0  0  0  0
 11 17  1  0  0  0  0
 13  3  2  0  0  0  0
 13  1  1  0  0  0  0
 14 13  1  0  0  0  0
 17 15  2  0  0  0  0
 17 19  1  0  0  0  0
 18  9  1  0  0  0  0
 19 20  1  0  0  0  0
 21 22  2  0  0  0  0
 21 20  1  0  0  0  0
 23 21  1  0  0  0  0
 24 23  2  0  0  0  0
 25 23  1  0  0  0  0
M  END
>  <MODEL>
1

>  <REMARK>
 VINA RESULT:      -8.5      0.000      0.000
  Name = 
  4 active torsions:
  status: ('A' for Active; 'I' for Inactive)
    1  A    between atoms: C_2  and  C_21
    2  A    between atoms: O_6  and  C_15
    3  A    between atoms: O_6  and  C_23
    4  A    between atoms: C_15  and  C_21
                            x       y       z     vdW  Elec       q    Type
                         _______ _______ _______ _____ _____    ______ ____

>  <TORSDO>
F 4

$$$$
=
 OpenBabel10262419553D

 25 28  0  0  1  0  0  0  0  0999 V2000
  188.3980  177.5840  144.9520 N   0  0  0  0  0  0  0  0  0  0  0  0
  187.0500  178.0530  145.1000 C   0  0  0  0  0  0  0  0  0  0  0  0
  188.8440  177.8240  147.3050 C   0  0  0  0  0  3  0  0  0  0  0  0
  189.1330  177.1750  143.7550 C   0  0  0  0  0  0  0  0  0  0  0  0
  191.3440  175.6680  143.8550 C   0  0  0  0  0  2  0  0  0  0  0  0
  187.4470  178.2870  147.4970 C   0  0  0  0  0  3  0  0  0  0  0  0
  190.5150  176.8280  144.3580 C   0  0  0  0  0  0  0  0  0  0  0  0
  191.8080  177.1070  143.6240 C   0  0  0  0  0  2  0  0  0  0  0  0
  185.1680  178.8310  146.6930 C   0  0  2  0  0  3  0  0  0  0  0  0
  184.4700  177.8450  147.5000 N   0  0  0  0  0  1  0  0  0  0  0  0
  186.2390  178.2210  144.0580 C   0  0  0  0  0  3  0  0  0  0  0  0
  188.4670  175.9670  143.1130 C   0  0  0  0  0  1  0  0  0  0  0  0
  189.2570  177.4950  146.0800 C   0  0  0  0  0  0  0  0  0  0  0  0
  190.5240  177.0470  145.7590 O   0  0  0  0  0  0  0  0  0  0  0  0
  184.4320  179.0370  145.4380 N   0  0  0  0  0  0  0  0  0  0  0  0
  189.2170  178.3270  142.7640 C   0  0  0  0  0  1  0  0  0  0  0  0
  184.8810  178.7530  144.2470 C   0  0  0  0  0  0  0  0  0  0  0  0
  186.5900  178.3930  146.4640 C   0  0  0  0  0  0  0  0  0  0  0  0
  184.0850  178.9610  143.1180 O   0  0  0  0  0  0  0  0  0  0  0  0
  184.2200  178.1790  141.9410 C   0  0  0  0  0  2  0  0  0  0  0  0
  184.7440  179.0280  140.8350 C   0  0  0  0  0  0  0  0  0  0  0  0
  185.9420  179.4160  140.8670 O   0  0  0  0  0  0  0  0  0  0  0  0
  183.8850  179.3810  139.6970 C   0  0  0  0  0  0  0  0  0  0  0  0
  182.7430  178.6390  139.4240 O   0  0  0  0  0  1  0  0  0  0  0  0
  184.1790  180.3590  138.9600 O   0  0  0  0  0  0  0  0  0  0  0  0
  1  2  1  0  0  0  0
  1 13  1  0  0  0  0
  2 18  1  0  0  0  0
  3  6  1  0  0  0  0
  4  7  1  0  0  0  0
  4  1  1  0  0  0  0
  5  7  1  0  0  0  0
  7 14  1  0  0  0  0
  8  5  1  0  0  0  0
  8  7  1  0  0  0  0
  9 10  1  1  0  0  0
 11 17  1  0  0  0  0
 11  2  2  0  0  0  0
 12  4  1  0  0  0  0
 13  3  2  0  0  0  0
 14 13  1  0  0  0  0
 15  9  1  0  0  0  0
 16  4  1  0  0  0  0
 17 15  2  0  0  0  0
 18  9  1  0  0  0  0
 18  6  2  0  0  0  0
 19 17  1  0  0  0  0
 20 19  1  0  0  0  0
 21 22  2  0  0  0  0
 21 20  1  0  0  0  0
 23 21  1  0  0  0  0
 24 23  1  0  0  0  0
 25 23  2  0  0  0  0
M  END
>  <MODEL>
2

>  <REMARK>
 VINA RESULT:      -8.3      2.054      5.964
  Name = 
  4 active torsions:
  status: ('A' for Active; 'I' for Inactive)
    1  A    between atoms: C_2  and  C_21
    2  A    between atoms: O_6  and  C_15
    3  A    between atoms: O_6  and  C_23
    4  A    between atoms: C_15  and  C_21
                            x       y       z     vdW  Elec       q    Type
                         _______ _______ _______ _____ _____    ______ ____

>  <TORSDO>
F 4

$$$$
=
 OpenBabel10262419553D

 25 28  0  0  1  0  0  0  0  0999 V2000
  187.4210  178.0020  144.0340 N   0  0  0  0  0  0  0  0  0  0  0  0
  186.8540  178.2570  142.7410 C   0  0  0  0  0  0  0  0  0  0  0  0
  185.3530  178.5150  145.1520 C   0  0  0  0  0  3  0  0  0  0  0  0
  188.7800  177.6150  144.4130 C   0  0  0  0  0  0  0  0  0  0  0  0
  189.3660  176.5020  146.7760 C   0  0  0  0  0  2  0  0  0  0  0  0
  184.7280  178.7600  143.8280 C   0  0  0  0  0  3  0  0  0  0  0  0
  188.6540  177.5510  145.9540 C   0  0  0  0  0  0  0  0  0  0  0  0
  189.7790  177.9710  146.8730 C   0  0  0  0  0  2  0  0  0  0  0  0
  184.7560  178.8550  141.3530 C   0  0  2  0  0  3  0  0  0  0  0  0
  183.7360  177.8420  141.1390 N   0  0  0  0  0  1  0  0  0  0  0  0
  187.5770  178.1990  141.6250 C   0  0  0  0  0  3  0  0  0  0  0  0
  189.1330  176.2630  143.8080 C   0  0  0  0  0  1  0  0  0  0  0  0
  186.6350  178.1520  145.2080 C   0  0  0  0  0  0  0  0  0  0  0  0
  187.3410  177.8910  146.3660 O   0  0  0  0  0  0  0  0  0  0  0  0
  185.7060  178.8280  140.2320 N   0  0  0  0  0  0  0  0  0  0  0  0
  189.7780  178.6740  143.9660 C   0  0  0  0  0  1  0  0  0  0  0  0
  186.9690  178.5170  140.3240 C   0  0  0  0  0  0  0  0  0  0  0  0
  185.4250  178.6350  142.6840 C   0  0  0  0  0  0  0  0  0  0  0  0
  187.7800  178.4940  139.1870 O   0  0  0  0  0  0  0  0  0  0  0  0
  189.1930  178.6150  139.2620 C   0  0  0  0  0  2  0  0  0  0  0  0
  189.8300  177.5100  138.4920 C   0  0  0  0  0  0  0  0  0  0  0  0
  189.8570  177.5690  137.2340 O   0  0  0  0  0  0  0  0  0  0  0  0
  190.4540  176.3790  139.1900 C   0  0  0  0  0  0  0  0  0  0  0  0
  190.4560  176.3280  140.5790 O   0  0  0  0  0  1  0  0  0  0  0  0
  190.9920  175.4480  138.5350 O   0  0  0  0  0  0  0  0  0  0  0  0
  1  4  1  0  0  0  0
  1 13  1  0  0  0  0
  2  1  1  0  0  0  0
  3 13  2  0  0  0  0
  4  7  1  0  0  0  0
  5  8  1  0  0  0  0
  6  3  1  0  0  0  0
  7 14  1  0  0  0  0
  7  5  1  0  0  0  0
  7  8  1  0  0  0  0
  9 10  1  6  0  0  0
  9 18  1  0  0  0  0
 11  2  2  0  0  0  0
 12  4  1  0  0  0  0
 13 14  1  0  0  0  0
 15 17  2  0  0  0  0
 15  9  1  0  0  0  0
 16  4  1  0  0  0  0
 17 11  1  0  0  0  0
 18  2  1  0  0  0  0
 18  6  2  0  0  0  0
 19 20  1  0  0  0  0
 19 17  1  0  0  0  0
 21 23  1  0  0  0  0
 21 20  1  0  0  0  0
 22 21  2  0  0  0  0
 23 24  1  0  0  0  0
 25 23  2  0  0  0  0
M  END
>  <MODEL>
3

>  <REMARK>
 VINA RESULT:      -7.9      2.324      5.813
  Name = 
  4 active torsions:
  status: ('A' for Active; 'I' for Inactive)
    1  A    between atoms: C_2  and  C_21
    2  A    between atoms: O_6  and  C_15
    3  A    between atoms: O_6  and  C_23
    4  A    between atoms: C_15  and  C_21
                            x       y       z     vdW  Elec       q    Type
                         _______ _______ _______ _____ _____    ______ ____

>  <TORSDO>
F 4

$$$$
=
 OpenBabel10262419553D

 25 28  0  0  1  0  0  0  0  0999 V2000
  187.6090  177.9600  144.4970 N   0  0  0  0  0  0  0  0  0  0  0  0
  187.1210  178.2580  143.1800 C   0  0  0  0  0  0  0  0  0  0  0  0
  185.4710  178.4210  145.5010 C   0  0  0  0  0  3  0  0  0  0  0  0
  188.9450  177.5680  144.9470 C   0  0  0  0  0  0  0  0  0  0  0  0
  189.3910  176.3760  147.3010 C   0  0  0  0  0  2  0  0  0  0  0  0
  184.9270  178.7100  144.1500 C   0  0  0  0  0  3  0  0  0  0  0  0
  188.7240  177.4490  146.4730 C   0  0  0  0  0  0  0  0  0  0  0  0
  189.7850  177.8430  147.4750 C   0  0  0  0  0  2  0  0  0  0  0  0
  185.1080  178.8920  141.6860 C   0  0  2  0  0  3  0  0  0  0  0  0
  184.1130  177.8820  141.3730 N   0  0  0  0  0  1  0  0  0  0  0  0
  187.9130  178.2440  142.1110 C   0  0  0  0  0  3  0  0  0  0  0  0
  189.3460  176.2420  144.3180 C   0  0  0  0  0  1  0  0  0  0  0  0
  186.7500  178.0640  145.6240 C   0  0  0  0  0  0  0  0  0  0  0  0
  187.3840  177.7660  146.8140 O   0  0  0  0  0  0  0  0  0  0  0  0
  186.1270  178.9110  140.6260 N   0  0  0  0  0  0  0  0  0  0  0  0
  189.9600  178.6490  144.6000 C   0  0  0  0  0  1  0  0  0  0  0  0
  187.3850  178.6050  140.7860 C   0  0  0  0  0  0  0  0  0  0  0  0
  185.6950  178.6300  143.0480 C   0  0  0  0  0  0  0  0  0  0  0  0
  188.2650  178.6270  139.7020 O   0  0  0  0  0  0  0  0  0  0  0  0
  188.0670  177.8220  138.5490 C   0  0  0  0  0  2  0  0  0  0  0  0
  188.5400  178.5550  137.3410 C   0  0  0  0  0  0  0  0  0  0  0  0
  189.0450  179.7020  137.4730 O   0  0  0  0  0  0  0  0  0  0  0  0
  188.4550  177.9350  136.0130 C   0  0  0  0  0  0  0  0  0  0  0  0
  187.2760  178.0080  135.2800 O   0  0  0  0  0  0  0  0  0  0  0  0
  189.4490  177.3340  135.5290 O   0  0  0  0  0  1  0  0  0  0  0  0
  1  4  1  0  0  0  0
  1 13  1  0  0  0  0
  2  1  1  0  0  0  0
  3 13  2  0  0  0  0
  4  7  1  0  0  0  0
  5  8  1  0  0  0  0
  6  3  1  0  0  0  0
  7 14  1  0  0  0  0
  7  5  1  0  0  0  0
  7  8  1  0  0  0  0
  9 10  1  6  0  0  0
  9 18  1  0  0  0  0
 11  2  2  0  0  0  0
 12  4  1  0  0  0  0
 13 14  1  0  0  0  0
 15 17  2  0  0  0  0
 15  9  1  0  0  0  0
 16  4  1  0  0  0  0
 17 11  1  0  0  0  0
 18  2  1  0  0  0  0
 18  6  2  0  0  0  0
 19 17  1  0  0  0  0
 20 19  1  0  0  0  0
 21 22  2  0  0  0  0
 21 20  1  0  0  0  0
 23 21  1  0  0  0  0
 24 23  2  0  0  0  0
 25 23  1  0  0  0  0
M  END
>  <MODEL>
4

>  <REMARK>
 VINA RESULT:      -7.6      2.505      6.669
  Name = 
  4 active torsions:
  status: ('A' for Active; 'I' for Inactive)
    1  A    between atoms: C_2  and  C_21
    2  A    between atoms: O_6  and  C_15
    3  A    between atoms: O_6  and  C_23
    4  A    between atoms: C_15  and  C_21
                            x       y       z     vdW  Elec       q    Type
                         _______ _______ _______ _____ _____    ______ ____

>  <TORSDO>
F 4

$$$$
=
 OpenBabel10262419553D

 25 28  0  0  1  0  0  0  0  0999 V2000
  187.9270  177.8390  144.0880 N   0  0  0  0  0  0  0  0  0  0  0  0
  186.8160  178.3180  143.3150 C   0  0  0  0  0  0  0  0  0  0  0  0
  186.7440  178.1430  146.1610 C   0  0  0  0  0  3  0  0  0  0  0  0
  189.2540  177.3940  143.6630 C   0  0  0  0  0  0  0  0  0  0  0  0
  190.8380  175.8830  145.2030 C   0  0  0  0  0  2  0  0  0  0  0  0
  185.5670  178.6170  145.3910 C   0  0  0  0  0  3  0  0  0  0  0  0
  189.9070  177.0590  145.0250 C   0  0  0  0  0  0  0  0  0  0  0  0
  191.3720  177.3130  145.3010 C   0  0  0  0  0  2  0  0  0  0  0  0
  184.3670  179.1470  143.2900 C   0  0  2  0  0  3  0  0  0  0  0  0
  183.2920  178.1860  143.4690 N   0  0  0  0  0  1  0  0  0  0  0  0
  186.8790  178.4590  141.9940 C   0  0  0  0  0  3  0  0  0  0  0  0
  189.1390  176.1720  142.7640 C   0  0  0  0  0  1  0  0  0  0  0  0
  187.8460  177.7790  145.5040 C   0  0  0  0  0  0  0  0  0  0  0  0
  189.0090  177.3180  146.0910 O   0  0  0  0  0  0  0  0  0  0  0  0
  184.6260  179.3210  141.8530 N   0  0  0  0  0  0  0  0  0  0  0  0
  189.9850  178.5180  142.9410 C   0  0  0  0  0  1  0  0  0  0  0  0
  185.7350  179.0010  141.2450 C   0  0  0  0  0  0  0  0  0  0  0  0
  185.5880  178.6970  144.0480 C   0  0  0  0  0  0  0  0  0  0  0  0
  185.8660  179.1810  139.8660 O   0  0  0  0  0  0  0  0  0  0  0  0
  185.5580  178.1530  138.9360 C   0  0  0  0  0  2  0  0  0  0  0  0
  186.6650  178.0270  137.9470 C   0  0  0  0  0  0  0  0  0  0  0  0
  186.3890  177.8900  136.7250 O   0  0  0  0  0  0  0  0  0  0  0  0
  188.0650  178.1000  138.3830 C   0  0  0  0  0  0  0  0  0  0  0  0
  188.6230  177.0640  139.1220 O   0  0  0  0  0  1  0  0  0  0  0  0
  188.7690  179.1020  138.0890 O   0  0  0  0  0  0  0  0  0  0  0  0
  1 13  1  0  0  0  0
  2 18  1  0  0  0  0
  2  1  1  0  0  0  0
  4  1  1  0  0  0  0
  4  7  1  0  0  0  0
  5  8  1  0  0  0  0
  6  3  1  0  0  0  0
  7  5  1  0  0  0  0
  7  8  1  0  0  0  0
  7 14  1  0  0  0  0
  9 10  1  6  0  0  0
  9 18  1  0  0  0  0
 11  2  2  0  0  0  0
 12  4  1  0  0  0  0
 13 14  1  0  0  0  0
 13  3  2  0  0  0  0
 15  9  1  0  0  0  0
 16  4  1  0  0  0  0
 17 15  2  0  0  0  0
 17 11  1  0  0  0  0
 18  6  2  0  0  0  0
 19 17  1  0  0  0  0
 20 19  1  0  0  0  0
 21 23  1  0  0  0  0
 21 20  1  0  0  0  0
 22 21  2  0  0  0  0
 23 24  1  0  0  0  0
 25 23  2  0  0  0  0
M  END
>  <MODEL>
5

>  <REMARK>
 VINA RESULT:      -7.3      2.090      6.048
  Name = 
  4 active torsions:
  status: ('A' for Active; 'I' for Inactive)
    1  A    between atoms: C_2  and  C_21
    2  A    between atoms: O_6  and  C_15
    3  A    between atoms: O_6  and  C_23
    4  A    between atoms: C_15  and  C_21
                            x       y       z     vdW  Elec       q    Type
                         _______ _______ _______ _____ _____    ______ ____

>  <TORSDO>
F 4

$$$$
=
 OpenBabel10262419553D

 25 28  0  0  1  0  0  0  0  0999 V2000
  189.5600  177.4270  141.5800 N   0  0  0  0  0  0  0  0  0  0  0  0
  190.0330  177.2550  140.2370 C   0  0  0  0  0  0  0  0  0  0  0  0
  187.4730  178.3620  140.8300 C   0  0  0  0  0  3  0  0  0  0  0  0
  190.2100  177.1400  142.8590 C   0  0  0  0  0  0  0  0  0  0  0  0
  188.8510  176.8630  145.1480 C   0  0  0  0  0  2  0  0  0  0  0  0
  187.9210  178.1720  139.4280 C   0  0  0  0  0  3  0  0  0  0  0  0
  189.1230  177.6010  143.8580 C   0  0  0  0  0  0  0  0  0  0  0  0
  189.4650  178.2630  145.1740 C   0  0  0  0  0  2  0  0  0  0  0  0
  189.5380  177.4300  137.7050 C   0  0  2  0  0  3  0  0  0  0  0  0
  188.6730  176.4420  137.0830 N   0  0  0  0  0  1  0  0  0  0  0  0
  191.2550  176.7990  139.9680 C   0  0  0  0  0  3  0  0  0  0  0  0
  190.5070  175.6520  142.9780 C   0  0  0  0  0  1  0  0  0  0  0  0
  188.2790  177.9910  141.8260 C   0  0  0  0  0  0  0  0  0  0  0  0
  187.9900  178.1070  143.1720 O   0  0  0  0  0  0  0  0  0  0  0  0
  190.9370  176.9940  137.5810 N   0  0  0  0  0  0  0  0  0  0  0  0
  191.4920  177.9500  142.9960 C   0  0  0  0  0  1  0  0  0  0  0  0
  191.7200  176.6850  138.5770 C   0  0  0  0  0  0  0  0  0  0  0  0
  189.1240  177.6450  139.1370 C   0  0  0  0  0  0  0  0  0  0  0  0
  193.0270  176.2520  138.3460 O   0  0  0  0  0  0  0  0  0  0  0  0
  193.3170  174.9660  137.8180 C   0  0  0  0  0  2  0  0  0  0  0  0
  194.7930  174.7820  137.7350 C   0  0  0  0  0  0  0  0  0  0  0  0
  195.4160  175.2290  136.7360 O   0  0  0  0  0  0  0  0  0  0  0  0
  195.5230  174.1180  138.8230 C   0  0  0  0  0  0  0  0  0  0  0  0
  196.4830  174.8140  139.5480 O   0  0  0  0  0  1  0  0  0  0  0  0
  195.2850  172.9150  139.1050 O   0  0  0  0  0  0  0  0  0  0  0  0
  1 13  1  0  0  0  0
  1  4  1  0  0  0  0
  2  1  1  0  0  0  0
  3 13  2  0  0  0  0
  4 12  1  0  0  0  0
  4 16  1  0  0  0  0
  4  7  1  0  0  0  0
  5  8  1  0  0  0  0
  6  3  1  0  0  0  0
  7  5  1  0  0  0  0
  7  8  1  0  0  0  0
  9 10  1  1  0  0  0
  9 18  1  0  0  0  0
 11  2  2  0  0  0  0
 13 14  1  0  0  0  0
 14  7  1  0  0  0  0
 15  9  1  0  0  0  0
 15 17  2  0  0  0  0
 17 11  1  0  0  0  0
 18  6  2  0  0  0  0
 18  2  1  0  0  0  0
 19 17  1  0  0  0  0
 20 19  1  0  0  0  0
 21 20  1  0  0  0  0
 21 23  1  0  0  0  0
 22 21  2  0  0  0  0
 23 25  2  0  0  0  0
 23 24  1  0  0  0  0
M  END
>  <MODEL>
6

>  <REMARK>
 VINA RESULT:      -7.2      4.411      7.171
  Name = 
  4 active torsions:
  status: ('A' for Active; 'I' for Inactive)
    1  A    between atoms: C_2  and  C_21
    2  A    between atoms: O_6  and  C_15
    3  A    between atoms: O_6  and  C_23
    4  A    between atoms: C_15  and  C_21
                            x       y       z     vdW  Elec       q    Type
                         _______ _______ _______ _____ _____    ______ ____

>  <TORSDO>
F 4

$$$$
=
 OpenBabel10262419553D

 25 28  0  0  1  0  0  0  0  0999 V2000
  188.2950  177.6040  144.7940 N   0  0  0  0  0  0  0  0  0  0  0  0
  186.9420  178.0810  144.8480 C   0  0  0  0  0  0  0  0  0  0  0  0
  188.5760  177.8360  147.1730 C   0  0  0  0  0  3  0  0  0  0  0  0
  189.1110  177.1950  143.6500 C   0  0  0  0  0  0  0  0  0  0  0  0
  191.3010  175.6760  143.9000 C   0  0  0  0  0  2  0  0  0  0  0  0
  187.1720  178.3060  147.2680 C   0  0  0  0  0  3  0  0  0  0  0  0
  190.4450  176.8390  144.3470 C   0  0  0  0  0  0  0  0  0  0  0  0
  191.7870  177.1130  143.7060 C   0  0  0  0  0  2  0  0  0  0  0  0
  184.9570  178.8640  146.3080 C   0  0  2  0  0  3  0  0  0  0  0  0
  184.2000  177.8790  147.0610 N   0  0  0  0  0  1  0  0  0  0  0  0
  186.2070  178.2550  143.7520 C   0  0  0  0  0  3  0  0  0  0  0  0
  188.4840  175.9920  142.9590 C   0  0  0  0  0  1  0  0  0  0  0  0
  189.0730  177.5080  145.9790 C   0  0  0  0  0  0  0  0  0  0  0  0
  190.3570  177.0550  145.7460 O   0  0  0  0  0  0  0  0  0  0  0  0
  184.3120  179.0770  145.0050 N   0  0  0  0  0  0  0  0  0  0  0  0
  189.2690  178.3490  142.6700 C   0  0  0  0  0  1  0  0  0  0  0  0
  184.8420  178.7940  143.8470 C   0  0  0  0  0  0  0  0  0  0  0  0
  186.3900  178.4190  146.1780 C   0  0  0  0  0  0  0  0  0  0  0  0
  184.1280  179.0090  142.6660 O   0  0  0  0  0  0  0  0  0  0  0  0
  183.0570  178.1670  142.2640 C   0  0  0  0  0  2  0  0  0  0  0  0
  181.8650  178.9970  141.9370 C   0  0  0  0  0  0  0  0  0  0  0  0
  181.6760  179.3660  140.7470 O   0  0  0  0  0  0  0  0  0  0  0  0
  180.8960  179.3520  142.9820 C   0  0  0  0  0  0  0  0  0  0  0  0
  180.0890  180.4750  142.8360 O   0  0  0  0  0  0  0  0  0  0  0  0
  180.7890  178.6420  144.0160 O   0  0  0  0  0  1  0  0  0  0  0  0
  1  2  1  0  0  0  0
  1 13  1  0  0  0  0
  2 18  1  0  0  0  0
  3  6  1  0  0  0  0
  4  7  1  0  0  0  0
  4  1  1  0  0  0  0
  5  7  1  0  0  0  0
  7 14  1  0  0  0  0
  8  5  1  0  0  0  0
  8  7  1  0  0  0  0
  9 10  1  6  0  0  0
 11 17  1  0  0  0  0
 11  2  2  0  0  0  0
 12  4  1  0  0  0  0
 13  3  2  0  0  0  0
 14 13  1  0  0  0  0
 15  9  1  0  0  0  0
 16  4  1  0  0  0  0
 17 15  2  0  0  0  0
 18  9  1  0  0  0  0
 18  6  2  0  0  0  0
 19 17  1  0  0  0  0
 20 19  1  0  0  0  0
 21 20  1  0  0  0  0
 21 23  1  0  0  0  0
 22 21  2  0  0  0  0
 23 25  1  0  0  0  0
 24 23  2  0  0  0  0
M  END
>  <MODEL>
7

>  <REMARK>
 VINA RESULT:      -7.2      2.953      6.630
  Name = 
  4 active torsions:
  status: ('A' for Active; 'I' for Inactive)
    1  A    between atoms: C_2  and  C_21
    2  A    between atoms: O_6  and  C_15
    3  A    between atoms: O_6  and  C_23
    4  A    between atoms: C_15  and  C_21
                            x       y       z     vdW  Elec       q    Type
                         _______ _______ _______ _____ _____    ______ ____

>  <TORSDO>
F 4

$$$$
=
 OpenBabel10262419553D

 25 28  0  0  1  0  0  0  0  0999 V2000
  186.6260  178.1090  145.3030 N   0  0  0  0  0  0  0  0  0  0  0  0
  185.6400  178.2970  144.2780 C   0  0  0  0  0  0  0  0  0  0  0  0
  188.2910  177.4110  143.7120 C   0  0  0  0  0  3  0  0  0  0  0  0
  186.5280  178.2740  146.7540 C   0  0  0  0  0  0  0  0  0  0  0  0
  188.6720  178.5730  148.3280 C   0  0  0  0  0  2  0  0  0  0  0  0
  187.3040  177.6220  142.6240 C   0  0  0  0  0  3  0  0  0  0  0  0
  187.9540  177.8730  147.1970 C   0  0  0  0  0  0  0  0  0  0  0  0
  188.2180  177.1210  148.4830 C   0  0  0  0  0  2  0  0  0  0  0  0
  185.0820  178.2860  141.7530 C   0  0  2  0  0  3  0  0  0  0  0  0
  185.5540  179.3780  140.9190 N   0  0  0  0  0  1  0  0  0  0  0  0
  184.3860  178.6470  144.5550 C   0  0  0  0  0  3  0  0  0  0  0  0
  186.2030  179.7200  147.1000 C   0  0  0  0  0  1  0  0  0  0  0  0
  187.9310  177.6580  144.9730 C   0  0  0  0  0  0  0  0  0  0  0  0
  188.7460  177.5080  146.0790 O   0  0  0  0  0  0  0  0  0  0  0  0
  183.7270  178.5930  142.2310 N   0  0  0  0  0  0  0  0  0  0  0  0
  185.4690  177.3410  147.3240 C   0  0  0  0  0  1  0  0  0  0  0  0
  183.3930  178.7800  143.4780 C   0  0  0  0  0  0  0  0  0  0  0  0
  186.0520  178.0460  142.8790 C   0  0  0  0  0  0  0  0  0  0  0  0
  182.0770  179.0970  143.8210 O   0  0  0  0  0  0  0  0  0  0  0  0
  181.0920  179.4030  142.8450 C   0  0  0  0  0  2  0  0  0  0  0  0
  180.1200  178.2780  142.7460 C   0  0  0  0  0  0  0  0  0  0  0  0
  179.5390  177.8710  143.7870 O   0  0  0  0  0  0  0  0  0  0  0  0
  179.8130  177.6710  141.4450 C   0  0  0  0  0  0  0  0  0  0  0  0
  178.9400  176.5930  141.3640 O   0  0  0  0  0  1  0  0  0  0  0  0
  180.3380  178.1240  140.3950 O   0  0  0  0  0  0  0  0  0  0  0  0
  1  4  1  0  0  0  0
  2 11  2  0  0  0  0
  2  1  1  0  0  0  0
  3 13  2  0  0  0  0
  4 12  1  0  0  0  0
  4  7  1  0  0  0  0
  4 16  1  0  0  0  0
  5  8  1  0  0  0  0
  6 18  2  0  0  0  0
  6  3  1  0  0  0  0
  7  5  1  0  0  0  0
  7  8  1  0  0  0  0
  9 10  1  1  0  0  0
  9 15  1  0  0  0  0
  9 18  1  0  0  0  0
 13  1  1  0  0  0  0
 13 14  1  0  0  0  0
 14  7  1  0  0  0  0
 15 17  2  0  0  0  0
 17 19  1  0  0  0  0
 17 11  1  0  0  0  0
 18  2  1  0  0  0  0
 20 19  1  0  0  0  0
 21 20  1  0  0  0  0
 21 22  2  0  0  0  0
 23 21  1  0  0  0  0
 24 23  1  0  0  0  0
 25 23  2  0  0  0  0
M  END
>  <MODEL>
8

>  <REMARK>
 VINA RESULT:      -7.2      3.682      7.787
  Name = 
  4 active torsions:
  status: ('A' for Active; 'I' for Inactive)
    1  A    between atoms: C_2  and  C_21
    2  A    between atoms: O_6  and  C_15
    3  A    between atoms: O_6  and  C_23
    4  A    between atoms: C_15  and  C_21
                            x       y       z     vdW  Elec       q    Type
                         _______ _______ _______ _____ _____    ______ ____

>  <TORSDO>
F 4

$$$$
=
 OpenBabel10262419553D

 25 28  0  0  1  0  0  0  0  0999 V2000
  187.6040  177.8780  144.5600 N   0  0  0  0  0  0  0  0  0  0  0  0
  186.3520  178.2670  143.9760 C   0  0  0  0  0  0  0  0  0  0  0  0
  186.8910  178.5240  146.7650 C   0  0  0  0  0  3  0  0  0  0  0  0
  188.8130  177.3360  143.9370 C   0  0  0  0  0  0  0  0  0  0  0  0
  190.6950  176.0280  145.3190 C   0  0  0  0  0  2  0  0  0  0  0  0
  185.5740  178.9100  146.1980 C   0  0  0  0  0  3  0  0  0  0  0  0
  189.7420  177.1910  145.1640 C   0  0  0  0  0  0  0  0  0  0  0  0
  191.2320  177.4410  145.0830 C   0  0  0  0  0  2  0  0  0  0  0  0
  183.9510  179.1530  144.3430 C   0  0  2  0  0  3  0  0  0  0  0  0
  182.9430  178.2610  144.8900 N   0  0  0  0  0  1  0  0  0  0  0  0
  186.1310  178.2060  142.6650 C   0  0  0  0  0  3  0  0  0  0  0  0
  188.5130  175.9960  143.2810 C   0  0  0  0  0  1  0  0  0  0  0  0
  187.8290  178.0330  145.9540 C   0  0  0  0  0  0  0  0  0  0  0  0
  189.0920  177.6330  146.3450 O   0  0  0  0  0  0  0  0  0  0  0  0
  183.8970  179.1010  142.8750 N   0  0  0  0  0  0  0  0  0  0  0  0
  189.3680  178.3170  142.9140 C   0  0  0  0  0  1  0  0  0  0  0  0
  184.8510  178.6620  142.1020 C   0  0  0  0  0  0  0  0  0  0  0  0
  185.3080  178.7870  144.8850 C   0  0  0  0  0  0  0  0  0  0  0  0
  184.6840  178.6280  140.7160 O   0  0  0  0  0  0  0  0  0  0  0  0
  183.4020  178.5670  140.1090 C   0  0  0  0  0  2  0  0  0  0  0  0
  183.2290  179.7270  139.1900 C   0  0  0  0  0  0  0  0  0  0  0  0
  184.2040  180.4950  138.9740 O   0  0  0  0  0  0  0  0  0  0  0  0
  181.9470  179.9550  138.5110 C   0  0  0  0  0  0  0  0  0  0  0  0
  181.1580  181.0470  138.8530 O   0  0  0  0  0  1  0  0  0  0  0  0
  181.5550  179.1630  137.6150 O   0  0  0  0  0  0  0  0  0  0  0  0
  1 13  1  0  0  0  0
  2  1  1  0  0  0  0
  2 18  1  0  0  0  0
  4  1  1  0  0  0  0
  4  7  1  0  0  0  0
  6  3  1  0  0  0  0
  7  5  1  0  0  0  0
  7 14  1  0  0  0  0
  8  7  1  0  0  0  0
  8  5  1  0  0  0  0
  9 18  1  0  0  0  0
  9 10  1  1  0  0  0
 11  2  2  0  0  0  0
 12  4  1  0  0  0  0
 13 14  1  0  0  0  0
 13  3  2  0  0  0  0
 15  9  1  0  0  0  0
 16  4  1  0  0  0  0
 17 11  1  0  0  0  0
 17 15  2  0  0  0  0
 18  6  2  0  0  0  0
 19 17  1  0  0  0  0
 20 19  1  0  0  0  0
 21 20  1  0  0  0  0
 22 21  2  0  0  0  0
 23 24  1  0  0  0  0
 23 21  1  0  0  0  0
 25 23  2  0  0  0  0
M  END
>  <MODEL>
9

>  <REMARK>
 VINA RESULT:      -7.1      2.891      7.118
  Name = 
  4 active torsions:
  status: ('A' for Active; 'I' for Inactive)
    1  A    between atoms: C_2  and  C_21
    2  A    between atoms: O_6  and  C_15
    3  A    between atoms: O_6  and  C_23
    4  A    between atoms: C_15  and  C_21
                            x       y       z     vdW  Elec       q    Type
                         _______ _______ _______ _____ _____    ______ ____

>  <TORSDO>
F 4

$$$$
