=
 OpenBabel10262419293D

 31 36  0  0  1  0  0  0  0  0999 V2000
  185.2650  178.7480  145.5180 C   0  0  1  0  0  3  0  0  0  0  0  0
  188.2860  177.3430  143.5400 C   0  0  1  0  0  3  0  0  0  0  0  0
  189.4030  177.2880  144.5650 C   0  0  0  0  0  0  0  0  0  0  0  0
  189.4650  177.4590  147.0340 C   0  0  0  0  0  3  0  0  0  0  0  0
  187.1200  178.2830  143.8970 C   0  0  2  0  0  3  0  0  0  0  0  0
  184.2690  178.8460  144.3660 C   0  0  0  0  0  2  0  0  0  0  0  0
  189.4060  178.2110  145.7480 C   0  0  0  0  0  2  0  0  0  0  0  0
  187.8600  177.7930  141.0650 C   0  0  2  0  0  3  0  0  0  0  0  0
  184.5880  178.2650  146.7060 N   0  0  0  0  0  1  0  0  0  0  0  0
  190.5190  175.8060  142.9550 C   0  0  0  0  0  2  0  0  0  0  0  0
  190.4980  176.6900  147.3700 C   0  0  0  0  0  3  0  0  0  0  0  0
  186.7820  178.7940  141.4620 C   0  0  0  0  0  2  0  0  0  0  0  0
  188.9140  177.6850  142.1720 C   0  0  2  0  0  3  0  0  0  0  0  0
  186.3980  177.7920  145.1540 C   0  0  0  0  0  2  0  0  0  0  0  0
  191.6570  176.4130  146.5010 C   0  0  0  0  0  3  0  0  0  0  0  0
  186.1050  178.3450  142.7450 C   0  0  2  0  0  3  0  0  0  0  0  0
  184.9740  179.3070  143.0930 C   0  0  0  0  0  2  0  0  0  0  0  0
  190.0180  176.6760  141.7900 C   0  0  0  0  0  2  0  0  0  0  0  0
  190.4800  176.5310  144.2720 C   0  0  0  0  0  0  0  0  0  0  0  0
  191.6460  176.3520  145.1640 C   0  0  0  0  0  3  0  0  0  0  0  0
  188.6160  178.3520  139.5040 S   0  0  0  0  0  0  0  0  0  0  0  0
  182.5960  177.6770  136.3870 C   0  0  0  0  0  2  0  0  0  0  0  0
  184.8630  178.0810  138.0990 C   0  0  0  0  0  0  0  0  0  0  0  0
  186.2000  176.5580  136.7790 C   0  0  0  0  0  3  0  0  0  0  0  0
  187.3210  176.9190  137.5250 C   0  0  0  0  0  3  0  0  0  0  0  0
  182.3610  178.0370  137.8460 C   0  0  0  0  0  2  0  0  0  0  0  0
  187.1890  177.8670  138.5420 C   0  0  0  0  0  0  0  0  0  0  0  0
  183.5700  178.7920  138.3920 C   0  0  0  0  0  2  0  0  0  0  0  0
  184.9620  177.1470  137.0460 C   0  0  0  0  0  0  0  0  0  0  0  0
  185.9760  178.4230  138.8030 N   0  0  0  0  0  0  0  0  0  0  0  0
  183.7530  176.6880  136.2800 C   0  0  0  0  0  2  0  0  0  0  0  0
  1  9  1  1  0  0  0
  2  5  1  0  0  0  0
  2  3  1  1  0  0  0
  3  7  1  0  0  0  0
  4 11  2  0  0  0  0
  5 14  1  1  0  0  0
  6  1  1  0  0  0  0
  7  4  1  0  0  0  0
  8 21  1  6  0  0  0
  8 12  1  0  0  0  0
  8 13  1  0  0  0  0
 10 19  1  0  0  0  0
 13 18  1  6  0  0  0
 13  2  1  0  0  0  0
 14  1  1  0  0  0  0
 15 11  1  0  0  0  0
 16 12  1  6  0  0  0
 16 17  1  0  0  0  0
 16  5  1  0  0  0  0
 17  6  1  0  0  0  0
 18 10  1  0  0  0  0
 19  3  2  0  0  0  0
 19 20  1  0  0  0  0
 20 15  2  0  0  0  0
 22 26  1  0  0  0  0
 23 28  1  0  0  0  0
 23 30  1  0  0  0  0
 24 29  1  0  0  0  0
 24 25  2  0  0  0  0
 25 27  1  0  0  0  0
 26 28  1  0  0  0  0
 27 30  2  0  0  0  0
 27 21  1  0  0  0  0
 29 23  2  0  0  0  0
 31 22  1  0  0  0  0
 31 29  1  0  0  0  0
M  END
>  <MODEL>
1

>  <REMARK>
 VINA RESULT:     -11.6      0.000      0.000
  Name = 
  2 active torsions:
  status: ('A' for Active; 'I' for Inactive)
    1  A    between atoms: C_9  and  S_23
    2  A    between atoms: C_15  and  S_23
                            x       y       z     vdW  Elec       q    Type
                         _______ _______ _______ _____ _____    ______ ____

>  <TORSDO>
F 2

$$$$
=
 OpenBabel10262419293D

 31 36  0  0  1  0  0  0  0  0999 V2000
  185.2520  178.7320  145.3500 C   0  0  1  0  0  3  0  0  0  0  0  0
  188.3290  177.3550  143.4410 C   0  0  1  0  0  3  0  0  0  0  0  0
  189.4180  177.2940  144.4950 C   0  0  0  0  0  0  0  0  0  0  0  0
  189.4140  177.4430  146.9670 C   0  0  0  0  0  3  0  0  0  0  0  0
  187.1510  178.2880  143.7750 C   0  0  2  0  0  3  0  0  0  0  0  0
  184.2860  178.8370  144.1730 C   0  0  0  0  0  2  0  0  0  0  0  0
  189.3870  178.2060  145.6860 C   0  0  0  0  0  2  0  0  0  0  0  0
  187.9680  177.8250  140.9600 C   0  0  2  0  0  3  0  0  0  0  0  0
  184.5440  178.2360  146.5150 N   0  0  0  0  0  1  0  0  0  0  0  0
  190.5820  175.8290  142.9030 C   0  0  0  0  0  2  0  0  0  0  0  0
  190.4400  176.6740  147.3230 C   0  0  0  0  0  3  0  0  0  0  0  0
  186.8760  178.8190  141.3370 C   0  0  0  0  0  2  0  0  0  0  0  0
  188.9920  177.7110  142.0940 C   0  0  2  0  0  3  0  0  0  0  0  0
  186.3970  177.7820  145.0080 C   0  0  0  0  0  2  0  0  0  0  0  0
  191.6220  176.4080  146.4820 C   0  0  0  0  0  3  0  0  0  0  0  0
  186.1660  178.3560  142.5970 C   0  0  2  0  0  3  0  0  0  0  0  0
  185.0230  179.3120  142.9230 C   0  0  0  0  0  2  0  0  0  0  0  0
  190.1090  176.7090  141.7320 C   0  0  0  0  0  2  0  0  0  0  0  0
  190.5050  176.5430  144.2240 C   0  0  0  0  0  0  0  0  0  0  0  0
  191.6480  176.3590  145.1450 C   0  0  0  0  0  3  0  0  0  0  0  0
  188.7630  178.4000  139.4240 S   0  0  0  0  0  0  0  0  0  0  0  0
  185.3090  173.7730  135.8090 C   0  0  0  0  0  2  0  0  0  0  0  0
  187.1680  175.5090  137.1380 C   0  0  0  0  0  0  0  0  0  0  0  0
  185.5130  177.2690  137.2700 C   0  0  0  0  0  3  0  0  0  0  0  0
  186.3860  178.0080  138.0690 C   0  0  0  0  0  3  0  0  0  0  0  0
  186.7970  173.6070  135.5350 C   0  0  0  0  0  2  0  0  0  0  0  0
  187.6340  177.4730  138.3940 C   0  0  0  0  0  0  0  0  0  0  0  0
  187.6010  174.1300  136.7230 C   0  0  0  0  0  2  0  0  0  0  0  0
  185.8880  176.0040  136.8100 C   0  0  0  0  0  0  0  0  0  0  0  0
  187.9930  176.2470  137.9280 N   0  0  0  0  0  0  0  0  0  0  0  0
  184.9630  175.2580  135.8900 C   0  0  0  0  0  2  0  0  0  0  0  0
  1  9  1  1  0  0  0
  2  5  1  0  0  0  0
  2  3  1  1  0  0  0
  3  7  1  0  0  0  0
  4 11  2  0  0  0  0
  5 14  1  1  0  0  0
  6  1  1  0  0  0  0
  7  4  1  0  0  0  0
  8 21  1  6  0  0  0
  8 12  1  0  0  0  0
  8 13  1  0  0  0  0
 10 19  1  0  0  0  0
 13 18  1  6  0  0  0
 13  2  1  0  0  0  0
 14  1  1  0  0  0  0
 15 11  1  0  0  0  0
 16 12  1  6  0  0  0
 16 17  1  0  0  0  0
 16  5  1  0  0  0  0
 17  6  1  0  0  0  0
 18 10  1  0  0  0  0
 19  3  2  0  0  0  0
 19 20  1  0  0  0  0
 20 15  2  0  0  0  0
 22 31  1  0  0  0  0
 23 30  1  0  0  0  0
 24 25  2  0  0  0  0
 25 27  1  0  0  0  0
 26 22  1  0  0  0  0
 26 28  1  0  0  0  0
 27 21  1  0  0  0  0
 28 23  1  0  0  0  0
 29 23  2  0  0  0  0
 29 24  1  0  0  0  0
 30 27  2  0  0  0  0
 31 29  1  0  0  0  0
M  END
>  <MODEL>
2

>  <REMARK>
 VINA RESULT:     -11.4      1.215      2.132
  Name = 
  2 active torsions:
  status: ('A' for Active; 'I' for Inactive)
    1  A    between atoms: C_9  and  S_23
    2  A    between atoms: C_15  and  S_23
                            x       y       z     vdW  Elec       q    Type
                         _______ _______ _______ _____ _____    ______ ____

>  <TORSDO>
F 2

$$$$
=
 OpenBabel10262419293D

 31 36  0  0  1  0  0  0  0  0999 V2000
  185.2130  178.6890  144.8150 C   0  0  1  0  0  3  0  0  0  0  0  0
  188.4600  177.3250  143.2010 C   0  0  1  0  0  3  0  0  0  0  0  0
  189.4570  177.2990  144.3450 C   0  0  0  0  0  0  0  0  0  0  0  0
  189.2400  177.4910  146.8040 C   0  0  0  0  0  3  0  0  0  0  0  0
  187.2460  178.2460  143.4170 C   0  0  2  0  0  3  0  0  0  0  0  0
  184.3500  178.7580  143.5590 C   0  0  0  0  0  2  0  0  0  0  0  0
  189.3110  178.2310  145.5120 C   0  0  0  0  0  2  0  0  0  0  0  0
  188.3060  177.7470  140.6900 C   0  0  2  0  0  3  0  0  0  0  0  0
  184.4160  178.2030  145.9260 N   0  0  0  0  0  1  0  0  0  0  0  0
  190.7720  175.8250  142.8850 C   0  0  0  0  0  2  0  0  0  0  0  0
  190.2420  176.7450  147.2610 C   0  0  0  0  0  3  0  0  0  0  0  0
  187.1730  178.7300  140.9540 C   0  0  0  0  0  2  0  0  0  0  0  0
  189.2310  177.6680  141.9090 C   0  0  2  0  0  3  0  0  0  0  0  0
  186.3960  177.7510  144.5900 C   0  0  0  0  0  2  0  0  0  0  0  0
  191.4950  176.4820  146.5290 C   0  0  0  0  0  3  0  0  0  0  0  0
  186.3640  178.2790  142.1580 C   0  0  2  0  0  3  0  0  0  0  0  0
  185.1840  179.2220  142.3680 C   0  0  0  0  0  2  0  0  0  0  0  0
  190.3890  176.6770  141.6620 C   0  0  0  0  0  2  0  0  0  0  0  0
  190.5730  176.5600  144.1820 C   0  0  0  0  0  0  0  0  0  0  0  0
  191.6350  176.4100  145.2000 C   0  0  0  0  0  3  0  0  0  0  0  0
  189.2210  178.3070  139.2170 S   0  0  0  0  0  0  0  0  0  0  0  0
  186.6330  173.2520  135.4550 C   0  0  0  0  0  2  0  0  0  0  0  0
  187.2650  175.4180  137.2270 C   0  0  0  0  0  0  0  0  0  0  0  0
  189.5840  174.7350  137.3220 C   0  0  0  0  0  3  0  0  0  0  0  0
  189.8810  175.8980  138.0320 C   0  0  0  0  0  3  0  0  0  0  0  0
  185.5490  173.7860  136.3800 C   0  0  0  0  0  2  0  0  0  0  0  0
  188.8590  176.8050  138.3170 C   0  0  0  0  0  0  0  0  0  0  0  0
  185.8530  175.2370  136.7440 C   0  0  0  0  0  2  0  0  0  0  0  0
  188.2760  174.4900  136.8970 C   0  0  0  0  0  0  0  0  0  0  0  0
  187.5870  176.5500  137.9110 N   0  0  0  0  0  0  0  0  0  0  0  0
  187.9640  173.1960  136.2000 C   0  0  0  0  0  2  0  0  0  0  0  0
  1  9  1  1  0  0  0
  2  5  1  0  0  0  0
  2  3  1  1  0  0  0
  3  7  1  0  0  0  0
  4 11  2  0  0  0  0
  5 14  1  1  0  0  0
  6  1  1  0  0  0  0
  7  4  1  0  0  0  0
  8 21  1  6  0  0  0
  8 12  1  0  0  0  0
  8 13  1  0  0  0  0
 10 19  1  0  0  0  0
 13 18  1  6  0  0  0
 13  2  1  0  0  0  0
 14  1  1  0  0  0  0
 15 11  1  0  0  0  0
 16 12  1  6  0  0  0
 16 17  1  0  0  0  0
 16  5  1  0  0  0  0
 17  6  1  0  0  0  0
 18 10  1  0  0  0  0
 19  3  2  0  0  0  0
 19 20  1  0  0  0  0
 20 15  2  0  0  0  0
 22 31  1  0  0  0  0
 22 26  1  0  0  0  0
 23 30  1  0  0  0  0
 24 25  2  0  0  0  0
 25 27  1  0  0  0  0
 26 28  1  0  0  0  0
 27 21  1  0  0  0  0
 28 23  1  0  0  0  0
 29 23  2  0  0  0  0
 29 24  1  0  0  0  0
 30 27  2  0  0  0  0
 31 29  1  0  0  0  0
M  END
>  <MODEL>
3

>  <REMARK>
 VINA RESULT:     -11.0      1.789      2.466
  Name = 
  2 active torsions:
  status: ('A' for Active; 'I' for Inactive)
    1  A    between atoms: C_9  and  S_23
    2  A    between atoms: C_15  and  S_23
                            x       y       z     vdW  Elec       q    Type
                         _______ _______ _______ _____ _____    ______ ____

>  <TORSDO>
F 2

$$$$
=
 OpenBabel10262419293D

 31 36  0  0  1  0  0  0  0  0999 V2000
  187.1710  178.2180  139.9360 C   0  0  1  0  0  3  0  0  0  0  0  0
  185.5940  178.6350  143.4500 C   0  0  1  0  0  3  0  0  0  0  0  0
  186.5750  177.9410  144.3770 C   0  0  0  0  0  0  0  0  0  0  0  0
  188.9030  177.1390  144.1110 C   0  0  0  0  0  3  0  0  0  0  0  0
  185.7040  178.2320  141.9680 C   0  0  2  0  0  3  0  0  0  0  0  0
  186.0550  178.8550  139.1120 C   0  0  0  0  0  2  0  0  0  0  0  0
  187.4620  176.8400  143.8730 C   0  0  0  0  0  2  0  0  0  0  0  0
  183.0990  179.0560  143.1280 C   0  0  2  0  0  3  0  0  0  0  0  0
  188.4580  178.6260  139.4060 N   0  0  0  0  0  1  0  0  0  0  0  0
  185.4100  179.1520  146.1690 C   0  0  0  0  0  2  0  0  0  0  0  0
  189.4160  177.2750  145.3320 C   0  0  0  0  0  3  0  0  0  0  0  0
  183.2290  178.5530  141.6960 C   0  0  0  0  0  2  0  0  0  0  0  0
  184.1740  178.4150  144.0120 C   0  0  2  0  0  3  0  0  0  0  0  0
  187.0600  178.6500  141.3950 C   0  0  0  0  0  2  0  0  0  0  0  0
  188.6340  177.2370  146.5820 C   0  0  0  0  0  3  0  0  0  0  0  0
  184.5980  178.9090  141.1430 C   0  0  2  0  0  3  0  0  0  0  0  0
  184.6910  178.4750  139.6840 C   0  0  0  0  0  2  0  0  0  0  0  0
  184.0610  178.9090  145.4700 C   0  0  0  0  0  2  0  0  0  0  0  0
  186.4790  178.2070  145.6960 C   0  0  0  0  0  0  0  0  0  0  0  0
  187.3640  177.6330  146.7330 C   0  0  0  0  0  3  0  0  0  0  0  0
  181.4310  178.6430  143.7340 S   0  0  0  0  0  0  0  0  0  0  0  0
  179.2240  180.5160  137.5670 C   0  0  0  0  0  2  0  0  0  0  0  0
  180.0010  180.1760  140.3080 C   0  0  0  0  0  0  0  0  0  0  0  0
  179.7700  177.7750  140.1320 C   0  0  0  0  0  3  0  0  0  0  0  0
  180.3220  177.6440  141.4070 C   0  0  0  0  0  3  0  0  0  0  0  0
  178.9320  181.6330  138.5580 C   0  0  0  0  0  2  0  0  0  0  0  0
  180.7120  178.7890  142.1040 C   0  0  0  0  0  0  0  0  0  0  0  0
  179.9180  181.5580  139.7220 C   0  0  0  0  0  2  0  0  0  0  0  0
  179.6190  179.0400  139.5620 C   0  0  0  0  0  0  0  0  0  0  0  0
  180.5470  180.0170  141.5440 N   0  0  0  0  0  0  0  0  0  0  0  0
  178.9530  179.1630  138.2210 C   0  0  0  0  0  2  0  0  0  0  0  0
  1  9  1  6  0  0  0
  1 14  1  0  0  0  0
  2 13  1  0  0  0  0
  2  3  1  1  0  0  0
  3 19  2  0  0  0  0
  4 11  2  0  0  0  0
  5 14  1  6  0  0  0
  5  2  1  0  0  0  0
  6 17  1  0  0  0  0
  6  1  1  0  0  0  0
  7  4  1  0  0  0  0
  7  3  1  0  0  0  0
  8 21  1  1  0  0  0
  8 13  1  0  0  0  0
 11 15  1  0  0  0  0
 12  8  1  0  0  0  0
 13 18  1  1  0  0  0
 15 20  2  0  0  0  0
 16 17  1  6  0  0  0
 16 12  1  0  0  0  0
 16  5  1  0  0  0  0
 18 10  1  0  0  0  0
 19 10  1  0  0  0  0
 19 20  1  0  0  0  0
 22 31  1  0  0  0  0
 22 26  1  0  0  0  0
 23 30  1  0  0  0  0
 24 25  2  0  0  0  0
 25 27  1  0  0  0  0
 26 28  1  0  0  0  0
 27 21  1  0  0  0  0
 28 23  1  0  0  0  0
 29 24  1  0  0  0  0
 29 23  2  0  0  0  0
 30 27  2  0  0  0  0
 31 29  1  0  0  0  0
M  END
>  <MODEL>
4

>  <REMARK>
 VINA RESULT:     -10.2      3.099      5.366
  Name = 
  2 active torsions:
  status: ('A' for Active; 'I' for Inactive)
    1  A    between atoms: C_9  and  S_23
    2  A    between atoms: C_15  and  S_23
                            x       y       z     vdW  Elec       q    Type
                         _______ _______ _______ _____ _____    ______ ____

>  <TORSDO>
F 2

$$$$
=
 OpenBabel10262419293D

 31 36  0  0  1  0  0  0  0  0999 V2000
  187.5730  178.1530  139.5850 C   0  0  1  0  0  3  0  0  0  0  0  0
  185.1480  178.6800  142.5600 C   0  0  1  0  0  3  0  0  0  0  0  0
  185.9130  178.1450  143.7570 C   0  0  0  0  0  0  0  0  0  0  0  0
  188.2830  177.5390  144.1370 C   0  0  0  0  0  3  0  0  0  0  0  0
  185.6500  178.1830  141.1920 C   0  0  2  0  0  3  0  0  0  0  0  0
  186.6550  178.6270  138.4620 C   0  0  0  0  0  2  0  0  0  0  0  0
  186.9710  177.0950  143.5860 C   0  0  0  0  0  2  0  0  0  0  0  0
  182.7880  178.8520  141.6070 C   0  0  2  0  0  3  0  0  0  0  0  0
  188.9200  178.6370  139.3480 N   0  0  0  0  0  1  0  0  0  0  0  0
  184.2580  179.3730  145.0950 C   0  0  0  0  0  2  0  0  0  0  0  0
  188.4670  177.8080  145.4270 C   0  0  0  0  0  3  0  0  0  0  0  0
  183.3040  178.2600  140.3010 C   0  0  0  0  0  2  0  0  0  0  0  0
  183.6510  178.3750  142.7800 C   0  0  2  0  0  3  0  0  0  0  0  0
  187.0740  178.6790  140.9290 C   0  0  0  0  0  2  0  0  0  0  0  0
  187.4030  177.7900  146.4490 C   0  0  0  0  0  3  0  0  0  0  0  0
  184.7390  178.6960  140.0660 C   0  0  2  0  0  3  0  0  0  0  0  0
  185.2220  178.1680  138.7190 C   0  0  0  0  0  2  0  0  0  0  0  0
  183.1450  178.9610  144.1150 C   0  0  0  0  0  2  0  0  0  0  0  0
  185.4740  178.4960  144.9830 C   0  0  0  0  0  0  0  0  0  0  0  0
  186.1110  178.0810  146.2520 C   0  0  0  0  0  3  0  0  0  0  0  0
  181.0540  178.3350  141.8270 S   0  0  0  0  0  0  0  0  0  0  0  0
  179.3210  183.2630  137.4540 C   0  0  0  0  0  2  0  0  0  0  0  0
  180.4980  181.2150  139.0820 C   0  0  0  0  0  0  0  0  0  0  0  0
  178.9330  181.6630  140.8720 C   0  0  0  0  0  3  0  0  0  0  0  0
  179.4160  180.5450  141.5530 C   0  0  0  0  0  3  0  0  0  0  0  0
  180.7940  182.9290  137.2660 C   0  0  0  0  0  2  0  0  0  0  0  0
  180.4290  179.7770  140.9750 C   0  0  0  0  0  0  0  0  0  0  0  0
  181.0570  181.4940  137.7150 C   0  0  0  0  0  2  0  0  0  0  0  0
  179.4570  182.0000  139.6220 C   0  0  0  0  0  0  0  0  0  0  0  0
  180.9410  180.1240  139.7640 N   0  0  0  0  0  0  0  0  0  0  0  0
  178.9750  183.2500  138.9410 C   0  0  0  0  0  2  0  0  0  0  0  0
  1  9  1  6  0  0  0
  1 14  1  0  0  0  0
  2 13  1  0  0  0  0
  2  3  1  1  0  0  0
  3 19  2  0  0  0  0
  4 11  2  0  0  0  0
  5 14  1  6  0  0  0
  5  2  1  0  0  0  0
  6 17  1  0  0  0  0
  6  1  1  0  0  0  0
  7  3  1  0  0  0  0
  7  4  1  0  0  0  0
  8 21  1  1  0  0  0
  8 13  1  0  0  0  0
 11 15  1  0  0  0  0
 12  8  1  0  0  0  0
 13 18  1  1  0  0  0
 16 17  1  6  0  0  0
 16 12  1  0  0  0  0
 16  5  1  0  0  0  0
 18 10  1  0  0  0  0
 19 10  1  0  0  0  0
 19 20  1  0  0  0  0
 20 15  2  0  0  0  0
 22 31  1  0  0  0  0
 23 29  2  0  0  0  0
 23 30  1  0  0  0  0
 24 25  2  0  0  0  0
 26 22  1  0  0  0  0
 26 28  1  0  0  0  0
 27 25  1  0  0  0  0
 27 21  1  0  0  0  0
 28 23  1  0  0  0  0
 29 24  1  0  0  0  0
 30 27  2  0  0  0  0
 31 29  1  0  0  0  0
M  END
>  <MODEL>
5

>  <REMARK>
 VINA RESULT:     -10.1      3.469      6.009
  Name = 
  2 active torsions:
  status: ('A' for Active; 'I' for Inactive)
    1  A    between atoms: C_9  and  S_23
    2  A    between atoms: C_15  and  S_23
                            x       y       z     vdW  Elec       q    Type
                         _______ _______ _______ _____ _____    ______ ____

>  <TORSDO>
F 2

$$$$
=
 OpenBabel10262419293D

 31 36  0  0  1  0  0  0  0  0999 V2000
  190.4370  176.6230  145.8800 C   0  0  1  0  0  3  0  0  0  0  0  0
  187.9460  177.9730  143.2370 C   0  0  1  0  0  3  0  0  0  0  0  0
  186.6190  178.0180  143.9720 C   0  0  0  0  0  0  0  0  0  0  0  0
  185.9820  177.8590  146.3600 C   0  0  0  0  0  3  0  0  0  0  0  0
  189.0070  177.0520  143.8660 C   0  0  2  0  0  3  0  0  0  0  0  0
  191.6760  176.5330  144.9950 C   0  0  0  0  0  2  0  0  0  0  0  0
  186.3510  177.1020  145.1290 C   0  0  0  0  0  2  0  0  0  0  0  0
  188.9450  177.5170  140.9360 C   0  0  2  0  0  3  0  0  0  0  0  0
  190.8110  177.1210  147.1900 N   0  0  0  0  0  1  0  0  0  0  0  0
  185.8920  179.4760  142.1330 C   0  0  0  0  0  2  0  0  0  0  0  0
  184.8900  178.6150  146.4380 C   0  0  0  0  0  3  0  0  0  0  0  0
  189.9130  176.5340  141.5830 C   0  0  0  0  0  2  0  0  0  0  0  0
  187.6600  177.6150  141.7640 C   0  0  2  0  0  3  0  0  0  0  0  0
  189.4090  177.5610  145.2530 C   0  0  0  0  0  2  0  0  0  0  0  0
  183.9640  178.8710  145.3180 C   0  0  0  0  0  3  0  0  0  0  0  0
  190.2650  177.0000  142.9850 C   0  0  2  0  0  3  0  0  0  0  0  0
  191.2960  176.0550  143.5960 C   0  0  0  0  0  2  0  0  0  0  0  0
  186.6640  178.6060  141.1250 C   0  0  0  0  0  2  0  0  0  0  0  0
  185.6310  178.7580  143.4290 C   0  0  0  0  0  0  0  0  0  0  0  0
  184.2860  178.9250  144.0210 C   0  0  0  0  0  3  0  0  0  0  0  0
  188.5840  176.9390  139.2450 S   0  0  0  0  0  0  0  0  0  0  0  0
  194.5780  174.6090  136.9990 C   0  0  0  0  0  2  0  0  0  0  0  0
  191.9030  175.1200  137.9010 C   0  0  0  0  0  0  0  0  0  0  0  0
  192.6420  177.0360  139.1800 C   0  0  0  0  0  3  0  0  0  0  0  0
  191.3100  177.3520  139.4470 C   0  0  0  0  0  3  0  0  0  0  0  0
  193.6090  173.4430  137.1250 C   0  0  0  0  0  2  0  0  0  0  0  0
  190.2980  176.5450  138.9240 C   0  0  0  0  0  0  0  0  0  0  0  0
  192.1740  173.9500  136.9970 C   0  0  0  0  0  2  0  0  0  0  0  0
  192.9530  175.9260  138.3910 C   0  0  0  0  0  0  0  0  0  0  0  0
  190.6130  175.4590  138.1680 N   0  0  0  0  0  0  0  0  0  0  0  0
  194.3950  175.5600  138.1780 C   0  0  0  0  0  2  0  0  0  0  0  0
  1  9  1  1  0  0  0
  2  5  1  0  0  0  0
  2  3  1  1  0  0  0
  3  7  1  0  0  0  0
  4 11  2  0  0  0  0
  5 14  1  1  0  0  0
  6  1  1  0  0  0  0
  7  4  1  0  0  0  0
  8 21  1  6  0  0  0
  8 12  1  0  0  0  0
  8 13  1  0  0  0  0
 10 19  1  0  0  0  0
 13 18  1  6  0  0  0
 13  2  1  0  0  0  0
 14  1  1  0  0  0  0
 15 11  1  0  0  0  0
 16 12  1  6  0  0  0
 16 17  1  0  0  0  0
 16  5  1  0  0  0  0
 17  6  1  0  0  0  0
 18 10  1  0  0  0  0
 19  3  2  0  0  0  0
 19 20  1  0  0  0  0
 20 15  2  0  0  0  0
 22 26  1  0  0  0  0
 22 31  1  0  0  0  0
 23 30  2  0  0  0  0
 23 29  1  0  0  0  0
 24 25  1  0  0  0  0
 27 21  1  0  0  0  0
 27 25  2  0  0  0  0
 28 26  1  0  0  0  0
 28 23  1  0  0  0  0
 29 24  2  0  0  0  0
 30 27  1  0  0  0  0
 31 29  1  0  0  0  0
M  END
>  <MODEL>
6

>  <REMARK>
 VINA RESULT:     -10.1      3.210      6.397
  Name = 
  2 active torsions:
  status: ('A' for Active; 'I' for Inactive)
    1  A    between atoms: C_9  and  S_23
    2  A    between atoms: C_15  and  S_23
                            x       y       z     vdW  Elec       q    Type
                         _______ _______ _______ _____ _____    ______ ____

>  <TORSDO>
F 2

$$$$
=
 OpenBabel10262419293D

 31 36  0  0  1  0  0  0  0  0999 V2000
  188.0470  178.0430  139.5440 C   0  0  1  0  0  3  0  0  0  0  0  0
  185.2630  178.7420  142.1460 C   0  0  1  0  0  3  0  0  0  0  0  0
  185.8390  178.2210  143.4500 C   0  0  0  0  0  0  0  0  0  0  0  0
  188.1130  177.5500  144.1650 C   0  0  0  0  0  3  0  0  0  0  0  0
  185.9270  178.1860  140.8730 C   0  0  2  0  0  3  0  0  0  0  0  0
  187.3080  178.5100  138.2940 C   0  0  0  0  0  2  0  0  0  0  0  0
  186.8720  177.1320  143.4530 C   0  0  0  0  0  2  0  0  0  0  0  0
  183.0620  178.9600  140.8760 C   0  0  2  0  0  3  0  0  0  0  0  0
  189.4310  178.4750  139.4800 N   0  0  0  0  0  1  0  0  0  0  0  0
  184.0650  179.5440  144.5160 C   0  0  0  0  0  2  0  0  0  0  0  0
  188.1300  177.8540  145.4610 C   0  0  0  0  0  3  0  0  0  0  0  0
  183.7270  178.3110  139.6690 C   0  0  0  0  0  2  0  0  0  0  0  0
  183.7410  178.4920  142.1680 C   0  0  2  0  0  3  0  0  0  0  0  0
  187.3910  178.6260  140.7930 C   0  0  0  0  0  2  0  0  0  0  0  0
  186.9380  177.9030  146.3280 C   0  0  0  0  0  3  0  0  0  0  0  0
  185.1970  178.6930  139.6200 C   0  0  2  0  0  3  0  0  0  0  0  0
  185.8370  178.1070  138.3660 C   0  0  0  0  0  2  0  0  0  0  0  0
  183.0800  179.1370  143.4050 C   0  0  0  0  0  2  0  0  0  0  0  0
  185.2520  178.6250  144.5950 C   0  0  0  0  0  0  0  0  0  0  0  0
  185.6960  178.2290  145.9490 C   0  0  0  0  0  3  0  0  0  0  0  0
  181.2970  178.5070  140.8710 S   0  0  0  0  0  0  0  0  0  0  0  0
  180.8770  182.6730  135.4980 C   0  0  0  0  0  2  0  0  0  0  0  0
  180.9340  181.3200  138.0270 C   0  0  0  0  0  0  0  0  0  0  0  0
  180.4260  179.2050  136.9680 C   0  0  0  0  0  3  0  0  0  0  0  0
  180.6400  178.5610  138.1860 C   0  0  0  0  0  3  0  0  0  0  0  0
  180.5160  183.4490  136.7560 C   0  0  0  0  0  2  0  0  0  0  0  0
  181.0080  179.3150  139.3030 C   0  0  0  0  0  0  0  0  0  0  0  0
  181.1800  182.8020  137.9690 C   0  0  0  0  0  2  0  0  0  0  0  0
  180.5870  180.5890  136.8710 C   0  0  0  0  0  0  0  0  0  0  0  0
  181.1470  180.6630  139.1990 N   0  0  0  0  0  0  0  0  0  0  0  0
  180.2780  181.2710  135.5680 C   0  0  0  0  0  2  0  0  0  0  0  0
  1  9  1  6  0  0  0
  1 14  1  0  0  0  0
  2 13  1  0  0  0  0
  2  3  1  1  0  0  0
  3  7  1  0  0  0  0
  3 19  2  0  0  0  0
  4 11  2  0  0  0  0
  5 14  1  6  0  0  0
  5  2  1  0  0  0  0
  6 17  1  0  0  0  0
  6  1  1  0  0  0  0
  7  4  1  0  0  0  0
  8 21  1  1  0  0  0
  8 13  1  0  0  0  0
 10 19  1  0  0  0  0
 11 15  1  0  0  0  0
 12  8  1  0  0  0  0
 13 18  1  1  0  0  0
 16 17  1  6  0  0  0
 16 12  1  0  0  0  0
 16  5  1  0  0  0  0
 18 10  1  0  0  0  0
 19 20  1  0  0  0  0
 20 15  2  0  0  0  0
 22 31  1  0  0  0  0
 22 26  1  0  0  0  0
 23 30  1  0  0  0  0
 24 25  2  0  0  0  0
 25 27  1  0  0  0  0
 26 28  1  0  0  0  0
 27 21  1  0  0  0  0
 28 23  1  0  0  0  0
 29 24  1  0  0  0  0
 29 23  2  0  0  0  0
 30 27  2  0  0  0  0
 31 29  1  0  0  0  0
M  END
>  <MODEL>
7

>  <REMARK>
 VINA RESULT:     -10.0      2.949      5.557
  Name = 
  2 active torsions:
  status: ('A' for Active; 'I' for Inactive)
    1  A    between atoms: C_9  and  S_23
    2  A    between atoms: C_15  and  S_23
                            x       y       z     vdW  Elec       q    Type
                         _______ _______ _______ _____ _____    ______ ____

>  <TORSDO>
F 2

$$$$
=
 OpenBabel10262419293D

 31 36  0  0  1  0  0  0  0  0999 V2000
  184.0920  178.9250  143.6160 C   0  0  1  0  0  3  0  0  0  0  0  0
  187.6690  177.4840  143.2470 C   0  0  1  0  0  3  0  0  0  0  0  0
  188.2580  177.6010  144.6400 C   0  0  0  0  0  0  0  0  0  0  0  0
  187.2850  178.0390  146.8750 C   0  0  0  0  0  3  0  0  0  0  0  0
  186.4560  178.3910  142.9750 C   0  0  2  0  0  3  0  0  0  0  0  0
  183.6650  178.8430  142.1540 C   0  0  0  0  0  2  0  0  0  0  0  0
  187.7630  178.6440  145.5990 C   0  0  0  0  0  2  0  0  0  0  0  0
  188.3110  177.6420  140.7830 C   0  0  2  0  0  3  0  0  0  0  0  0
  182.9840  178.5350  144.4670 N   0  0  0  0  0  1  0  0  0  0  0  0
  189.9520  176.0180  143.8270 C   0  0  0  0  0  2  0  0  0  0  0  0
  188.0880  177.3680  147.6970 C   0  0  0  0  0  3  0  0  0  0  0  0
  187.1600  178.6180  140.5760 C   0  0  0  0  0  2  0  0  0  0  0  0
  188.8080  177.7110  142.2310 C   0  0  2  0  0  3  0  0  0  0  0  0
  185.2780  177.9980  143.8710 C   0  0  0  0  0  2  0  0  0  0  0  0
  189.5060  177.0630  147.4240 C   0  0  0  0  0  3  0  0  0  0  0  0
  186.0120  178.2730  141.5090 C   0  0  2  0  0  3  0  0  0  0  0  0
  184.8340  179.2030  141.2390 C   0  0  0  0  0  2  0  0  0  0  0  0
  189.9770  176.7290  142.4630 C   0  0  0  0  0  2  0  0  0  0  0  0
  189.3630  176.8770  144.9120 C   0  0  0  0  0  0  0  0  0  0  0  0
  190.0530  176.8590  146.2200 C   0  0  0  0  0  3  0  0  0  0  0  0
  189.6450  178.0700  139.6180 S   0  0  0  0  0  0  0  0  0  0  0  0
  185.4150  175.3970  134.9950 C   0  0  0  0  0  2  0  0  0  0  0  0
  187.3340  176.0530  137.0250 C   0  0  0  0  0  0  0  0  0  0  0  0
  187.6530  178.2590  136.0850 C   0  0  0  0  0  3  0  0  0  0  0  0
  188.4400  178.5980  137.1870 C   0  0  0  0  0  3  0  0  0  0  0  0
  186.2370  174.2790  135.6200 C   0  0  0  0  0  2  0  0  0  0  0  0
  188.6490  177.6530  138.1930 C   0  0  0  0  0  0  0  0  0  0  0  0
  186.6920  174.6930  137.0170 C   0  0  0  0  0  2  0  0  0  0  0  0
  187.0780  176.9900  136.0000 C   0  0  0  0  0  0  0  0  0  0  0  0
  188.0960  176.4150  138.0930 N   0  0  0  0  0  0  0  0  0  0  0  0
  186.2980  176.6210  134.7700 C   0  0  0  0  0  2  0  0  0  0  0  0
  1 14  1  0  0  0  0
  1  9  1  1  0  0  0
  2  3  1  1  0  0  0
  3 19  2  0  0  0  0
  3  7  1  0  0  0  0
  4 11  2  0  0  0  0
  5  2  1  0  0  0  0
  5 14  1  1  0  0  0
  6  1  1  0  0  0  0
  7  4  1  0  0  0  0
  8 21  1  6  0  0  0
  8 13  1  0  0  0  0
 10 19  1  0  0  0  0
 12  8  1  0  0  0  0
 13 18  1  6  0  0  0
 13  2  1  0  0  0  0
 15 11  1  0  0  0  0
 16 12  1  6  0  0  0
 16  5  1  0  0  0  0
 17 16  1  0  0  0  0
 17  6  1  0  0  0  0
 18 10  1  0  0  0  0
 19 20  1  0  0  0  0
 20 15  2  0  0  0  0
 22 26  1  0  0  0  0
 23 30  1  0  0  0  0
 24 25  2  0  0  0  0
 25 27  1  0  0  0  0
 26 28  1  0  0  0  0
 27 21  1  0  0  0  0
 28 23  1  0  0  0  0
 29 24  1  0  0  0  0
 29 23  2  0  0  0  0
 30 27  2  0  0  0  0
 31 22  1  0  0  0  0
 31 29  1  0  0  0  0
M  END
>  <MODEL>
8

>  <REMARK>
 VINA RESULT:      -9.7      1.910      2.433
  Name = 
  2 active torsions:
  status: ('A' for Active; 'I' for Inactive)
    1  A    between atoms: C_9  and  S_23
    2  A    between atoms: C_15  and  S_23
                            x       y       z     vdW  Elec       q    Type
                         _______ _______ _______ _____ _____    ______ ____

>  <TORSDO>
F 2

$$$$
=
 OpenBabel10262419293D

 31 36  0  0  1  0  0  0  0  0999 V2000
  187.3980  178.1450  139.8390 C   0  0  1  0  0  3  0  0  0  0  0  0
  185.6380  178.6560  143.2520 C   0  0  1  0  0  3  0  0  0  0  0  0
  186.5760  178.0030  144.2500 C   0  0  0  0  0  0  0  0  0  0  0  0
  188.9220  177.2200  144.1310 C   0  0  0  0  0  3  0  0  0  0  0  0
  185.8280  178.2070  141.7910 C   0  0  2  0  0  3  0  0  0  0  0  0
  186.3210  178.7430  138.9390 C   0  0  0  0  0  2  0  0  0  0  0  0
  187.4980  176.8970  143.8290 C   0  0  0  0  0  2  0  0  0  0  0  0
  183.1590  179.0390  142.7890 C   0  0  2  0  0  3  0  0  0  0  0  0
  188.7070  178.5510  139.3630 N   0  0  0  0  0  1  0  0  0  0  0  0
  185.3080  179.2570  145.9400 C   0  0  0  0  0  2  0  0  0  0  0  0
  189.3700  177.4000  145.3710 C   0  0  0  0  0  3  0  0  0  0  0  0
  183.3670  178.4920  141.3820 C   0  0  0  0  0  2  0  0  0  0  0  0
  184.1930  178.4380  143.7470 C   0  0  2  0  0  3  0  0  0  0  0  0
  187.2080  178.6220  141.2760 C   0  0  0  0  0  2  0  0  0  0  0  0
  188.5240  177.3930  146.5790 C   0  0  0  0  0  3  0  0  0  0  0  0
  184.7600  178.8450  140.8890 C   0  0  2  0  0  3  0  0  0  0  0  0
  184.9330  178.3660  139.4510 C   0  0  0  0  0  2  0  0  0  0  0  0
  183.9990  178.9780  145.1800 C   0  0  0  0  0  2  0  0  0  0  0  0
  186.4100  178.3100  145.5530 C   0  0  0  0  0  0  0  0  0  0  0  0
  187.2450  177.7800  146.6520 C   0  0  0  0  0  3  0  0  0  0  0  0
  181.4660  178.6260  143.3210 S   0  0  0  0  0  0  0  0  0  0  0  0
  178.9330  177.3050  137.1360 C   0  0  0  0  0  2  0  0  0  0  0  0
  180.2680  177.4500  139.6720 C   0  0  0  0  0  0  0  0  0  0  0  0
  179.9840  179.8520  139.7450 C   0  0  0  0  0  3  0  0  0  0  0  0
  180.4750  179.8540  141.0500 C   0  0  0  0  0  3  0  0  0  0  0  0
  179.9820  176.2570  137.4760 C   0  0  0  0  0  2  0  0  0  0  0  0
  180.8450  178.6460  141.6440 C   0  0  0  0  0  0  0  0  0  0  0  0
  180.1000  176.1190  138.9920 C   0  0  0  0  0  2  0  0  0  0  0  0
  179.8600  178.6480  139.0470 C   0  0  0  0  0  0  0  0  0  0  0  0
  180.7320  177.4820  140.9500 N   0  0  0  0  0  0  0  0  0  0  0  0
  179.4000  178.6760  137.6160 C   0  0  0  0  0  2  0  0  0  0  0  0
  1  9  1  6  0  0  0
  1 14  1  0  0  0  0
  2 13  1  0  0  0  0
  2  3  1  1  0  0  0
  3 19  2  0  0  0  0
  4 11  2  0  0  0  0
  5 14  1  6  0  0  0
  5  2  1  0  0  0  0
  6 17  1  0  0  0  0
  6  1  1  0  0  0  0
  7  4  1  0  0  0  0
  7  3  1  0  0  0  0
  8 21  1  1  0  0  0
  8 13  1  0  0  0  0
 11 15  1  0  0  0  0
 12  8  1  0  0  0  0
 13 18  1  1  0  0  0
 15 20  2  0  0  0  0
 16 17  1  6  0  0  0
 16 12  1  0  0  0  0
 16  5  1  0  0  0  0
 18 10  1  0  0  0  0
 19 10  1  0  0  0  0
 19 20  1  0  0  0  0
 22 26  1  0  0  0  0
 22 31  1  0  0  0  0
 23 30  1  0  0  0  0
 24 25  2  0  0  0  0
 25 27  1  0  0  0  0
 26 28  1  0  0  0  0
 27 21  1  0  0  0  0
 28 23  1  0  0  0  0
 29 23  2  0  0  0  0
 29 24  1  0  0  0  0
 30 27  2  0  0  0  0
 31 29  1  0  0  0  0
M  END
>  <MODEL>
9

>  <REMARK>
 VINA RESULT:      -9.5      2.785      5.219
  Name = 
  2 active torsions:
  status: ('A' for Active; 'I' for Inactive)
    1  A    between atoms: C_9  and  S_23
    2  A    between atoms: C_15  and  S_23
                            x       y       z     vdW  Elec       q    Type
                         _______ _______ _______ _____ _____    ______ ____

>  <TORSDO>
F 2

$$$$
