=
 OpenBabel10252415013D

 34 39  0  0  1  0  0  0  0  0999 V2000
  184.1820  178.6040  145.0540 C   0  0  0  0  0  0  0  0  0  0  0  0
  186.2600  177.9500  143.9380 C   0  0  0  0  0  0  0  0  0  0  0  0
  184.1200  178.5810  142.6110 C   0  0  0  0  0  0  0  0  0  0  0  0
  183.8760  178.7520  140.2060 C   0  0  0  0  0  0  0  0  0  0  0  0
  186.3890  178.5990  146.2250 C   0  0  0  0  0  3  0  0  0  0  0  0
  186.9950  178.3110  145.1120 N   0  0  0  0  0  0  0  0  0  0  0  0
  186.0060  178.4880  141.0120 N   0  0  0  0  0  0  0  0  0  0  0  0
  184.8400  178.3770  143.8280 C   0  0  0  0  0  0  0  0  0  0  0  0
  187.4930  178.4040  139.0690 N   0  0  0  0  0  2  0  0  0  0  0  0
  184.7840  178.7520  138.7960 S   0  0  0  0  0  0  0  0  0  0  0  0
  184.9010  178.4430  146.3660 C   0  0  0  0  0  2  0  0  0  0  0  0
  182.1290  178.9990  143.9140 N   0  0  0  0  0  0  0  0  0  0  0  0
  182.8220  178.8930  145.0720 C   0  0  0  0  0  3  0  0  0  0  0  0
  186.8040  177.2080  143.0800 O   0  0  0  0  0  0  0  0  0  0  0  0
  182.5440  178.9460  140.2970 N   0  0  0  0  0  0  0  0  0  0  0  0
  181.9460  179.0110  141.5230 C   0  0  0  0  0  0  0  0  0  0  0  0
  186.2100  178.5490  139.6740 C   0  0  0  0  0  0  0  0  0  0  0  0
  184.6870  178.5840  141.3150 C   0  0  0  0  0  0  0  0  0  0  0  0
  182.7190  178.8580  142.6970 C   0  0  0  0  0  0  0  0  0  0  0  0
  179.1900  177.7630  139.9270 N   0  0  0  0  0  0  0  0  0  0  0  0
  179.0440  178.7700  139.1210 C   0  0  0  0  0  3  0  0  0  0  0  0
  180.4560  179.2070  141.6010 C   0  0  2  0  0  3  0  0  0  0  0  0
  179.4180  180.1330  139.5360 C   0  0  0  0  0  3  0  0  0  0  0  0
  179.7630  177.9230  141.2300 C   0  0  0  0  0  0  0  0  0  0  0  0
  180.0350  180.3430  140.7000 C   0  0  0  0  0  3  0  0  0  0  0  0
  179.7230  176.9700  142.0510 O   0  0  0  0  0  0  0  0  0  0  0  0
  188.6330  178.1320  139.8390 N   0  0  0  0  0  2  0  0  0  0  0  0
  189.1280  176.9070  137.7820 C   0  0  0  0  0  2  0  0  0  0  0  0
  189.6940  177.7750  138.9110 C   0  0  2  0  0  3  0  0  0  0  0  0
  190.2320  176.5280  136.8000 C   0  0  0  0  0  2  0  0  0  0  0  0
  190.9150  174.5470  137.9700 O   0  0  0  0  0  1  0  0  0  0  0  0
  191.9070  176.6230  138.6830 C   0  0  0  0  0  2  0  0  0  0  0  0
  190.7900  177.0150  139.6550 C   0  0  0  0  0  2  0  0  0  0  0  0
  191.3640  175.7880  137.5150 C   0  0  2  0  0  3  0  0  0  0  0  0
  1 13  1  0  0  0  0
  1 11  1  0  0  0  0
  2  6  1  0  0  0  0
  3 19  1  0  0  0  0
  3  8  1  0  0  0  0
  4 15  2  0  0  0  0
  4 18  1  0  0  0  0
  5 11  1  0  0  0  0
  6  5  2  0  0  0  0
  7 18  1  0  0  0  0
  8  2  1  0  0  0  0
  8  1  2  0  0  0  0
  9 17  1  0  0  0  0
  9 27  1  0  0  0  0
 10 17  1  0  0  0  0
 10  4  1  0  0  0  0
 12 13  2  0  0  0  0
 14  2  2  0  0  0  0
 15 16  1  0  0  0  0
 16 19  2  0  0  0  0
 17  7  2  0  0  0  0
 18  3  2  0  0  0  0
 19 12  1  0  0  0  0
 20 24  1  0  0  0  0
 21 23  1  0  0  0  0
 21 20  2  0  0  0  0
 22 16  1  6  0  0  0
 23 25  2  0  0  0  0
 24 22  1  0  0  0  0
 24 26  2  0  0  0  0
 25 22  1  0  0  0  0
 28 29  1  0  0  0  0
 29 33  1  0  0  0  0
 29 27  1  1  0  0  0
 30 34  1  0  0  0  0
 30 28  1  0  0  0  0
 32 33  1  0  0  0  0
 34 31  1  1  0  0  0
 34 32  1  0  0  0  0
M  END
>  <MODEL>
1

>  <REMARK>
 VINA RESULT:      -9.1      0.000      0.000
  Name = 
  3 active torsions:
  status: ('A' for Active; 'I' for Inactive)
    1  A    between atoms: N_3  and  C_13
    2  A    between atoms: N_3  and  N_17
    3  A    between atoms: C_12  and  C_28
                            x       y       z     vdW  Elec       q    Type
                         _______ _______ _______ _____ _____    ______ ____

>  <TORSDO>
F 3

$$$$
=
 OpenBabel10252415013D

 34 39  0  0  1  0  0  0  0  0999 V2000
  184.7850  178.4610  145.2000 C   0  0  0  0  0  0  0  0  0  0  0  0
  185.1930  179.1160  142.8770 C   0  0  0  0  0  0  0  0  0  0  0  0
  187.0110  177.9590  144.3260 C   0  0  0  0  0  0  0  0  0  0  0  0
  189.2210  177.2550  143.6270 C   0  0  0  0  0  0  0  0  0  0  0  0
  182.9320  178.9860  143.6090 C   0  0  0  0  0  3  0  0  0  0  0  0
  183.7820  179.1050  142.6350 N   0  0  0  0  0  0  0  0  0  0  0  0
  187.7870  177.9440  141.9770 N   0  0  0  0  0  0  0  0  0  0  0  0
  185.7050  178.5040  144.1330 C   0  0  0  0  0  0  0  0  0  0  0  0
  189.0170  177.7980  139.8640 N   0  0  0  0  0  2  0  0  0  0  0  0
  190.1610  177.0690  142.2510 S   0  0  0  0  0  0  0  0  0  0  0  0
  183.3820  178.9840  145.0430 C   0  0  0  0  0  2  0  0  0  0  0  0
  186.4600  177.5850  146.6480 N   0  0  0  0  0  0  0  0  0  0  0  0
  185.1920  178.0180  146.4540 C   0  0  0  0  0  3  0  0  0  0  0  0
  185.9470  179.7210  142.0730 O   0  0  0  0  0  0  0  0  0  0  0  0
  189.5760  176.9220  144.8860 N   0  0  0  0  0  0  0  0  0  0  0  0
  188.6750  177.0450  145.9040 C   0  0  0  0  0  0  0  0  0  0  0  0
  188.9030  177.6270  141.2760 C   0  0  0  0  0  0  0  0  0  0  0  0
  187.9710  177.7530  143.3080 C   0  0  0  0  0  0  0  0  0  0  0  0
  187.3740  177.5360  145.6430 C   0  0  0  0  0  0  0  0  0  0  0  0
  191.1410  178.0000  148.0730 N   0  0  0  0  0  0  0  0  0  0  0  0
  191.9200  176.9900  147.8320 C   0  0  0  0  0  3  0  0  0  0  0  0
  189.0980  176.6870  147.3030 C   0  0  2  0  0  3  0  0  0  0  0  0
  191.3640  175.6720  147.4790 C   0  0  0  0  0  3  0  0  0  0  0  0
  189.7170  177.8920  147.9610 C   0  0  0  0  0  0  0  0  0  0  0  0
  190.0550  175.5210  147.2730 C   0  0  0  0  0  3  0  0  0  0  0  0
  188.9850  178.8280  148.3760 O   0  0  0  0  0  0  0  0  0  0  0  0
  187.9760  178.3650  139.1150 N   0  0  0  0  0  2  0  0  0  0  0  0
  188.4830  176.2970  137.9130 C   0  0  0  0  0  2  0  0  0  0  0  0
  188.0250  177.7550  137.7960 C   0  0  2  0  0  3  0  0  0  0  0  0
  188.5350  175.6450  136.5350 C   0  0  0  0  0  2  0  0  0  0  0  0
  190.7900  176.3070  136.0490 O   0  0  0  0  0  1  0  0  0  0  0  0
  189.0580  177.8930  135.5170 C   0  0  0  0  0  2  0  0  0  0  0  0
  188.9900  178.5360  136.9060 C   0  0  0  0  0  2  0  0  0  0  0  0
  189.4720  176.4170  135.6040 C   0  0  2  0  0  3  0  0  0  0  0  0
  1 13  1  0  0  0  0
  2  8  1  0  0  0  0
  3 19  1  0  0  0  0
  4 15  2  0  0  0  0
  5 11  1  0  0  0  0
  6  2  1  0  0  0  0
  6  5  2  0  0  0  0
  7 18  1  0  0  0  0
  8  3  1  0  0  0  0
  8  1  2  0  0  0  0
  9 17  1  0  0  0  0
 10  4  1  0  0  0  0
 11  1  1  0  0  0  0
 13 12  2  0  0  0  0
 14  2  2  0  0  0  0
 15 16  1  0  0  0  0
 17  7  2  0  0  0  0
 17 10  1  0  0  0  0
 18  4  1  0  0  0  0
 18  3  2  0  0  0  0
 19 16  2  0  0  0  0
 19 12  1  0  0  0  0
 21 20  2  0  0  0  0
 22 16  1  6  0  0  0
 22 24  1  0  0  0  0
 23 21  1  0  0  0  0
 24 20  1  0  0  0  0
 24 26  2  0  0  0  0
 25 22  1  0  0  0  0
 25 23  2  0  0  0  0
 27  9  1  0  0  0  0
 29 28  1  0  0  0  0
 29 27  1  1  0  0  0
 30 28  1  0  0  0  0
 32 34  1  0  0  0  0
 32 33  1  0  0  0  0
 33 29  1  0  0  0  0
 34 31  1  1  0  0  0
 34 30  1  0  0  0  0
M  END
>  <MODEL>
2

>  <REMARK>
 VINA RESULT:      -9.0      3.119      7.045
  Name = 
  3 active torsions:
  status: ('A' for Active; 'I' for Inactive)
    1  A    between atoms: N_3  and  C_13
    2  A    between atoms: N_3  and  N_17
    3  A    between atoms: C_12  and  C_28
                            x       y       z     vdW  Elec       q    Type
                         _______ _______ _______ _____ _____    ______ ____

>  <TORSDO>
F 3

$$$$
=
 OpenBabel10252415013D

 34 39  0  0  1  0  0  0  0  0999 V2000
  190.0150  176.9850  137.4110 C   0  0  0  0  0  0  0  0  0  0  0  0
  187.6260  177.3930  137.0660 C   0  0  0  0  0  0  0  0  0  0  0  0
  188.7330  177.5640  139.4090 C   0  0  0  0  0  0  0  0  0  0  0  0
  187.6850  178.2470  141.4850 C   0  0  0  0  0  0  0  0  0  0  0  0
  189.0450  177.4430  135.1550 C   0  0  0  0  0  3  0  0  0  0  0  0
  187.8820  177.6740  135.6860 N   0  0  0  0  0  0  0  0  0  0  0  0
  186.4630  178.5370  139.5670 N   0  0  0  0  0  0  0  0  0  0  0  0
  188.7800  177.3180  138.0030 C   0  0  0  0  0  0  0  0  0  0  0  0
  184.3010  179.4680  140.2400 N   0  0  0  0  0  2  0  0  0  0  0  0
  186.2670  178.9180  142.0750 S   0  0  0  0  0  0  0  0  0  0  0  0
  190.1330  176.7520  135.9290 C   0  0  0  0  0  2  0  0  0  0  0  0
  191.0570  176.9230  139.5510 N   0  0  0  0  0  0  0  0  0  0  0  0
  191.1350  176.7720  138.2080 C   0  0  0  0  0  3  0  0  0  0  0  0
  186.4520  177.1290  137.4300 O   0  0  0  0  0  0  0  0  0  0  0  0
  188.7830  177.9390  142.2070 N   0  0  0  0  0  0  0  0  0  0  0  0
  189.9060  177.4790  141.5800 C   0  0  0  0  0  0  0  0  0  0  0  0
  185.6200  179.0030  140.5200 C   0  0  0  0  0  0  0  0  0  0  0  0
  187.6240  178.0920  140.1120 C   0  0  0  0  0  0  0  0  0  0  0  0
  189.9130  177.3100  140.1760 C   0  0  0  0  0  0  0  0  0  0  0  0
  190.5050  176.4810  144.7960 N   0  0  0  0  0  0  0  0  0  0  0  0
  190.8460  177.6550  145.2310 C   0  0  0  0  0  3  0  0  0  0  0  0
  191.1120  177.1240  142.4070 C   0  0  2  0  0  3  0  0  0  0  0  0
  191.5220  178.6230  144.3510 C   0  0  0  0  0  3  0  0  0  0  0  0
  190.7260  176.0940  143.4340 C   0  0  0  0  0  0  0  0  0  0  0  0
  191.6810  178.3630  143.0520 C   0  0  0  0  0  3  0  0  0  0  0  0
  190.5550  174.8940  143.0910 O   0  0  0  0  0  0  0  0  0  0  0  0
  183.7740  179.4190  138.9420 N   0  0  0  0  0  2  0  0  0  0  0  0
  181.6360  180.5990  138.8150 C   0  0  0  0  0  2  0  0  0  0  0  0
  182.3350  179.2600  139.0760 C   0  0  2  0  0  3  0  0  0  0  0  0
  180.1250  180.4430  138.9500 C   0  0  0  0  0  2  0  0  0  0  0  0
  180.0560  180.8770  141.3100 O   0  0  0  0  0  1  0  0  0  0  0  0
  180.4880  178.6050  140.6380 C   0  0  0  0  0  2  0  0  0  0  0  0
  182.0040  178.7640  140.4830 C   0  0  0  0  0  2  0  0  0  0  0  0
  179.7550  179.9200  140.3390 C   0  0  2  0  0  3  0  0  0  0  0  0
  1  8  2  0  0  0  0
  1 13  1  0  0  0  0
  2 14  2  0  0  0  0
  2  8  1  0  0  0  0
  3 18  2  0  0  0  0
  3 19  1  0  0  0  0
  4 10  1  0  0  0  0
  4 15  2  0  0  0  0
  5  6  2  0  0  0  0
  5 11  1  0  0  0  0
  6  2  1  0  0  0  0
  7 18  1  0  0  0  0
  7 17  2  0  0  0  0
  8  3  1  0  0  0  0
  9 17  1  0  0  0  0
 11  1  1  0  0  0  0
 12 19  1  0  0  0  0
 13 12  2  0  0  0  0
 16 15  1  0  0  0  0
 17 10  1  0  0  0  0
 18  4  1  0  0  0  0
 19 16  2  0  0  0  0
 20 21  2  0  0  0  0
 22 16  1  1  0  0  0
 22 25  1  0  0  0  0
 22 24  1  0  0  0  0
 23 21  1  0  0  0  0
 24 20  1  0  0  0  0
 25 23  2  0  0  0  0
 26 24  2  0  0  0  0
 27  9  1  0  0  0  0
 28 30  1  0  0  0  0
 28 29  1  0  0  0  0
 29 27  1  1  0  0  0
 29 33  1  0  0  0  0
 30 34  1  0  0  0  0
 33 32  1  0  0  0  0
 34 32  1  0  0  0  0
 34 31  1  1  0  0  0
M  END
>  <MODEL>
3

>  <REMARK>
 VINA RESULT:      -9.0      2.930      9.253
  Name = 
  3 active torsions:
  status: ('A' for Active; 'I' for Inactive)
    1  A    between atoms: N_3  and  C_13
    2  A    between atoms: N_3  and  N_17
    3  A    between atoms: C_12  and  C_28
                            x       y       z     vdW  Elec       q    Type
                         _______ _______ _______ _____ _____    ______ ____

>  <TORSDO>
F 3

$$$$
=
 OpenBabel10252415013D

 34 39  0  0  1  0  0  0  0  0999 V2000
  183.2430  178.6620  143.1190 C   0  0  0  0  0  0  0  0  0  0  0  0
  184.3940  179.1470  141.0140 C   0  0  0  0  0  0  0  0  0  0  0  0
  185.6660  178.3480  143.1320 C   0  0  0  0  0  0  0  0  0  0  0  0
  188.0290  177.8490  143.3280 C   0  0  0  0  0  0  0  0  0  0  0  0
  182.0380  178.8180  140.9360 C   0  0  0  0  0  3  0  0  0  0  0  0
  183.1660  178.9480  140.3060 N   0  0  0  0  0  0  0  0  0  0  0  0
  187.2230  178.2130  141.2130 N   0  0  0  0  0  0  0  0  0  0  0  0
  184.4750  178.7150  142.4350 C   0  0  0  0  0  0  0  0  0  0  0  0
  189.1280  178.0220  139.6860 N   0  0  0  0  0  2  0  0  0  0  0  0
  189.4070  177.6510  142.3920 S   0  0  0  0  0  0  0  0  0  0  0  0
  181.9500  178.9990  142.4260 C   0  0  0  0  0  2  0  0  0  0  0  0
  184.3600  178.1230  145.1510 N   0  0  0  0  0  0  0  0  0  0  0  0
  183.2140  178.3850  144.4810 C   0  0  0  0  0  3  0  0  0  0  0  0
  185.3340  179.7610  140.4480 O   0  0  0  0  0  0  0  0  0  0  0  0
  187.9410  177.6760  144.6630 N   0  0  0  0  0  0  0  0  0  0  0  0
  186.7310  177.7830  145.2870 C   0  0  0  0  0  0  0  0  0  0  0  0
  188.5350  177.9670  140.9830 C   0  0  0  0  0  0  0  0  0  0  0  0
  186.9380  178.1650  142.5390 C   0  0  0  0  0  0  0  0  0  0  0  0
  185.5720  178.0920  144.5360 C   0  0  0  0  0  0  0  0  0  0  0  0
  188.1690  179.2300  148.0320 N   0  0  0  0  0  0  0  0  0  0  0  0
  189.0680  178.3100  148.2030 C   0  0  0  0  0  3  0  0  0  0  0  0
  186.6580  177.6060  146.7790 C   0  0  2  0  0  3  0  0  0  0  0  0
  188.7930  176.9070  147.8510 C   0  0  0  0  0  3  0  0  0  0  0  0
  186.8940  178.9320  147.4510 C   0  0  0  0  0  0  0  0  0  0  0  0
  187.6620  176.5720  147.2270 C   0  0  0  0  0  3  0  0  0  0  0  0
  185.9820  179.8010  147.4670 O   0  0  0  0  0  0  0  0  0  0  0  0
  188.3780  178.3920  138.5610 N   0  0  0  0  0  2  0  0  0  0  0  0
  187.9790  176.1800  137.5990 C   0  0  0  0  0  2  0  0  0  0  0  0
  188.7610  177.4920  137.4840 C   0  0  2  0  0  3  0  0  0  0  0  0
  188.3700  175.2290  136.4730 C   0  0  0  0  0  2  0  0  0  0  0  0
  190.2100  174.2250  137.6430 O   0  0  0  0  0  1  0  0  0  0  0  0
  190.6730  176.2560  136.4360 C   0  0  0  0  0  2  0  0  0  0  0  0
  190.2620  177.2140  137.5590 C   0  0  0  0  0  2  0  0  0  0  0  0
  189.8740  174.9470  136.4970 C   0  0  2  0  0  3  0  0  0  0  0  0
  1 13  1  0  0  0  0
  2  8  1  0  0  0  0
  3 19  1  0  0  0  0
  4 15  2  0  0  0  0
  5 11  1  0  0  0  0
  6  5  2  0  0  0  0
  6  2  1  0  0  0  0
  7 18  1  0  0  0  0
  8  1  2  0  0  0  0
  8  3  1  0  0  0  0
  9 17  1  0  0  0  0
 10  4  1  0  0  0  0
 11  1  1  0  0  0  0
 13 12  2  0  0  0  0
 14  2  2  0  0  0  0
 15 16  1  0  0  0  0
 17  7  2  0  0  0  0
 17 10  1  0  0  0  0
 18  3  2  0  0  0  0
 18  4  1  0  0  0  0
 19 12  1  0  0  0  0
 19 16  2  0  0  0  0
 20 21  2  0  0  0  0
 22 16  1  6  0  0  0
 22 25  1  0  0  0  0
 22 24  1  0  0  0  0
 23 21  1  0  0  0  0
 24 26  2  0  0  0  0
 24 20  1  0  0  0  0
 25 23  2  0  0  0  0
 27  9  1  0  0  0  0
 29 33  1  0  0  0  0
 29 28  1  0  0  0  0
 29 27  1  1  0  0  0
 30 34  1  0  0  0  0
 30 28  1  0  0  0  0
 32 34  1  0  0  0  0
 32 33  1  0  0  0  0
 34 31  1  1  0  0  0
M  END
>  <MODEL>
4

>  <REMARK>
 VINA RESULT:      -8.8      2.383      5.981
  Name = 
  3 active torsions:
  status: ('A' for Active; 'I' for Inactive)
    1  A    between atoms: N_3  and  C_13
    2  A    between atoms: N_3  and  N_17
    3  A    between atoms: C_12  and  C_28
                            x       y       z     vdW  Elec       q    Type
                         _______ _______ _______ _____ _____    ______ ____

>  <TORSDO>
F 3

$$$$
=
 OpenBabel10252415013D

 34 39  0  0  1  0  0  0  0  0999 V2000
  185.0150  178.3300  138.7560 C   0  0  0  0  0  0  0  0  0  0  0  0
  186.9850  178.6200  140.1810 C   0  0  0  0  0  0  0  0  0  0  0  0
  184.5780  178.5300  141.1520 C   0  0  0  0  0  0  0  0  0  0  0  0
  183.9310  178.5740  143.4870 C   0  0  0  0  0  0  0  0  0  0  0  0
  187.3290  177.8050  137.9710 C   0  0  0  0  0  3  0  0  0  0  0  0
  187.8000  178.0380  139.1590 N   0  0  0  0  0  0  0  0  0  0  0  0
  186.1680  178.3440  143.0400 N   0  0  0  0  0  0  0  0  0  0  0  0
  185.5060  178.5010  140.0670 C   0  0  0  0  0  0  0  0  0  0  0  0
  187.3160  178.2530  145.2010 N   0  0  0  0  0  2  0  0  0  0  0  0
  184.5860  178.4850  145.0280 S   0  0  0  0  0  0  0  0  0  0  0  0
  185.9480  178.2530  137.5780 C   0  0  0  0  0  2  0  0  0  0  0  0
  182.7730  178.4410  139.5500 N   0  0  0  0  0  0  0  0  0  0  0  0
  183.6450  178.3250  138.5210 C   0  0  0  0  0  3  0  0  0  0  0  0
  187.5320  179.2910  141.0930 O   0  0  0  0  0  0  0  0  0  0  0  0
  182.6190  178.6510  143.1810 N   0  0  0  0  0  0  0  0  0  0  0  0
  182.2190  178.6280  141.8760 C   0  0  0  0  0  0  0  0  0  0  0  0
  186.1420  178.3320  144.3940 C   0  0  0  0  0  0  0  0  0  0  0  0
  184.9220  178.4990  142.5240 C   0  0  0  0  0  0  0  0  0  0  0  0
  183.1820  178.5390  140.8420 C   0  0  0  0  0  0  0  0  0  0  0  0
  179.6830  180.8180  142.5580 N   0  0  0  0  0  0  0  0  0  0  0  0
  179.1800  180.1280  143.5360 C   0  0  0  0  0  3  0  0  0  0  0  0
  180.7530  178.7340  141.5570 C   0  0  2  0  0  3  0  0  0  0  0  0
  179.2470  178.6570  143.5370 C   0  0  0  0  0  3  0  0  0  0  0  0
  180.3660  180.1870  141.4690 C   0  0  0  0  0  0  0  0  0  0  0  0
  179.9410  178.0080  142.6010 C   0  0  0  0  0  3  0  0  0  0  0  0
  180.6800  180.8620  140.4530 O   0  0  0  0  0  0  0  0  0  0  0  0
  188.5930  178.2340  144.6230 N   0  0  0  0  0  2  0  0  0  0  0  0
  189.0090  177.2130  146.8050 C   0  0  0  0  0  2  0  0  0  0  0  0
  189.3520  177.2020  145.3120 C   0  0  2  0  0  3  0  0  0  0  0  0
  189.7970  176.1320  147.5380 C   0  0  0  0  0  2  0  0  0  0  0  0
  191.7180  177.5030  147.9780 O   0  0  0  0  0  1  0  0  0  0  0  0
  191.6560  176.3760  145.8510 C   0  0  0  0  0  2  0  0  0  0  0  0
  190.8470  177.4510  145.1170 C   0  0  0  0  0  2  0  0  0  0  0  0
  191.3010  176.3310  147.3440 C   0  0  2  0  0  3  0  0  0  0  0  0
  1  8  1  0  0  0  0
  2 14  2  0  0  0  0
  3 18  1  0  0  0  0
  4 10  1  0  0  0  0
  5  6  2  0  0  0  0
  6  2  1  0  0  0  0
  7 17  2  0  0  0  0
  8  2  1  0  0  0  0
  8  3  2  0  0  0  0
 11  5  1  0  0  0  0
 11  1  1  0  0  0  0
 12 19  2  0  0  0  0
 13  1  2  0  0  0  0
 13 12  1  0  0  0  0
 15  4  1  0  0  0  0
 16 15  2  0  0  0  0
 17 10  1  0  0  0  0
 17  9  1  0  0  0  0
 18  7  1  0  0  0  0
 18  4  2  0  0  0  0
 19  3  1  0  0  0  0
 19 16  1  0  0  0  0
 20 21  2  0  0  0  0
 21 23  1  0  0  0  0
 22 16  1  1  0  0  0
 22 25  1  0  0  0  0
 24 22  1  0  0  0  0
 24 20  1  0  0  0  0
 25 23  2  0  0  0  0
 26 24  2  0  0  0  0
 27  9  1  0  0  0  0
 28 30  1  0  0  0  0
 29 27  1  6  0  0  0
 29 28  1  0  0  0  0
 32 34  1  0  0  0  0
 33 29  1  0  0  0  0
 33 32  1  0  0  0  0
 34 30  1  0  0  0  0
 34 31  1  6  0  0  0
M  END
>  <MODEL>
5

>  <REMARK>
 VINA RESULT:      -8.8      2.941      5.678
  Name = 
  3 active torsions:
  status: ('A' for Active; 'I' for Inactive)
    1  A    between atoms: N_3  and  C_13
    2  A    between atoms: N_3  and  N_17
    3  A    between atoms: C_12  and  C_28
                            x       y       z     vdW  Elec       q    Type
                         _______ _______ _______ _____ _____    ______ ____

>  <TORSDO>
F 3

$$$$
=
 OpenBabel10252415013D

 34 39  0  0  1  0  0  0  0  0999 V2000
  189.9000  177.0240  137.3630 C   0  0  0  0  0  0  0  0  0  0  0  0
  187.5090  177.4350  137.0380 C   0  0  0  0  0  0  0  0  0  0  0  0
  188.6350  177.6060  139.3710 C   0  0  0  0  0  0  0  0  0  0  0  0
  187.6060  178.2920  141.4550 C   0  0  0  0  0  0  0  0  0  0  0  0
  188.9110  177.4810  135.1150 C   0  0  0  0  0  3  0  0  0  0  0  0
  187.7540  177.7140  135.6550 N   0  0  0  0  0  0  0  0  0  0  0  0
  186.3680  178.5810  139.5470 N   0  0  0  0  0  0  0  0  0  0  0  0
  188.6700  177.3590  137.9650 C   0  0  0  0  0  0  0  0  0  0  0  0
  184.2120  179.5160  140.2370 N   0  0  0  0  0  2  0  0  0  0  0  0
  186.1930  178.9650  142.0570 S   0  0  0  0  0  0  0  0  0  0  0  0
  190.0060  176.7900  135.8800 C   0  0  0  0  0  2  0  0  0  0  0  0
  190.9600  176.9630  139.4940 N   0  0  0  0  0  0  0  0  0  0  0  0
  191.0260  176.8100  138.1510 C   0  0  0  0  0  3  0  0  0  0  0  0
  186.3380  177.1720  137.4110 O   0  0  0  0  0  0  0  0  0  0  0  0
  188.7100  177.9830  142.1680 N   0  0  0  0  0  0  0  0  0  0  0  0
  189.8260  177.5220  141.5320 C   0  0  0  0  0  0  0  0  0  0  0  0
  185.5330  179.0490  140.5070 C   0  0  0  0  0  0  0  0  0  0  0  0
  187.5330  178.1350  140.0820 C   0  0  0  0  0  0  0  0  0  0  0  0
  189.8220  177.3510  140.1280 C   0  0  0  0  0  0  0  0  0  0  0  0
  190.4520  176.5230  144.7430 N   0  0  0  0  0  0  0  0  0  0  0  0
  190.7960  177.6970  145.1760 C   0  0  0  0  0  3  0  0  0  0  0  0
  191.0390  177.1660  142.3490 C   0  0  2  0  0  3  0  0  0  0  0  0
  191.4650  178.6640  144.2900 C   0  0  0  0  0  3  0  0  0  0  0  0
  190.6610  176.1360  143.3800 C   0  0  0  0  0  0  0  0  0  0  0  0
  191.6140  178.4050  142.9900 C   0  0  0  0  0  3  0  0  0  0  0  0
  190.4870  174.9360  143.0370 O   0  0  0  0  0  0  0  0  0  0  0  0
  183.6750  179.4670  138.9440 N   0  0  0  0  0  2  0  0  0  0  0  0
  181.9630  178.6510  140.4880 C   0  0  0  0  0  2  0  0  0  0  0  0
  182.2520  179.2040  139.0880 C   0  0  2  0  0  3  0  0  0  0  0  0
  180.4730  178.3750  140.6520 C   0  0  0  0  0  2  0  0  0  0  0  0
  180.5540  176.1350  139.7930 O   0  0  0  0  0  1  0  0  0  0  0  0
  180.3100  177.9070  138.1790 C   0  0  0  0  0  2  0  0  0  0  0  0
  181.8060  178.1990  138.0270 C   0  0  0  0  0  2  0  0  0  0  0  0
  179.9820  177.3920  139.5880 C   0  0  2  0  0  3  0  0  0  0  0  0
  1  8  2  0  0  0  0
  1 13  1  0  0  0  0
  2 14  2  0  0  0  0
  2  8  1  0  0  0  0
  3 18  2  0  0  0  0
  3 19  1  0  0  0  0
  4 10  1  0  0  0  0
  4 15  2  0  0  0  0
  5  6  2  0  0  0  0
  5 11  1  0  0  0  0
  6  2  1  0  0  0  0
  7 18  1  0  0  0  0
  7 17  2  0  0  0  0
  8  3  1  0  0  0  0
  9 17  1  0  0  0  0
 11  1  1  0  0  0  0
 12 19  1  0  0  0  0
 13 12  2  0  0  0  0
 16 15  1  0  0  0  0
 17 10  1  0  0  0  0
 18  4  1  0  0  0  0
 19 16  2  0  0  0  0
 20 21  2  0  0  0  0
 22 16  1  1  0  0  0
 22 25  1  0  0  0  0
 22 24  1  0  0  0  0
 23 21  1  0  0  0  0
 24 20  1  0  0  0  0
 25 23  2  0  0  0  0
 26 24  2  0  0  0  0
 27  9  1  0  0  0  0
 28 30  1  0  0  0  0
 29 27  1  1  0  0  0
 29 28  1  0  0  0  0
 32 34  1  0  0  0  0
 33 32  1  0  0  0  0
 33 29  1  0  0  0  0
 34 31  1  1  0  0  0
 34 30  1  0  0  0  0
M  END
>  <MODEL>
6

>  <REMARK>
 VINA RESULT:      -8.7      2.912      9.068
  Name = 
  3 active torsions:
  status: ('A' for Active; 'I' for Inactive)
    1  A    between atoms: N_3  and  C_13
    2  A    between atoms: N_3  and  N_17
    3  A    between atoms: C_12  and  C_28
                            x       y       z     vdW  Elec       q    Type
                         _______ _______ _______ _____ _____    ______ ____

>  <TORSDO>
F 3

$$$$
=
 OpenBabel10252415013D

 34 39  0  0  1  0  0  0  0  0999 V2000
  183.6860  178.7560  141.7530 C   0  0  0  0  0  0  0  0  0  0  0  0
  185.2360  178.3750  143.6090 C   0  0  0  0  0  0  0  0  0  0  0  0
  186.0090  178.3230  141.1310 C   0  0  0  0  0  0  0  0  0  0  0  0
  188.2680  178.0450  140.3000 C   0  0  0  0  0  0  0  0  0  0  0  0
  183.1460  179.4020  144.1060 C   0  0  0  0  0  3  0  0  0  0  0  0
  184.3420  179.0680  144.4870 N   0  0  0  0  0  0  0  0  0  0  0  0
  188.0300  178.3650  142.5580 N   0  0  0  0  0  0  0  0  0  0  0  0
  185.0110  178.4730  142.1420 C   0  0  0  0  0  0  0  0  0  0  0  0
  190.2780  178.2770  143.5260 N   0  0  0  0  0  2  0  0  0  0  0  0
  189.8600  178.0040  140.8260 S   0  0  0  0  0  0  0  0  0  0  0  0
  182.6000  178.9630  142.7740 C   0  0  0  0  0  2  0  0  0  0  0  0
  184.2780  178.5230  139.4590 N   0  0  0  0  0  0  0  0  0  0  0  0
  183.3390  178.7530  140.4060 C   0  0  0  0  0  3  0  0  0  0  0  0
  186.1240  177.6340  144.1010 O   0  0  0  0  0  0  0  0  0  0  0  0
  187.8490  177.9690  139.0200 N   0  0  0  0  0  0  0  0  0  0  0  0
  186.5230  178.1060  138.7260 C   0  0  0  0  0  0  0  0  0  0  0  0
  189.3740  178.2480  142.4230 C   0  0  0  0  0  0  0  0  0  0  0  0
  187.4020  178.2320  141.3620 C   0  0  0  0  0  0  0  0  0  0  0  0
  185.5850  178.3120  139.7650 C   0  0  0  0  0  0  0  0  0  0  0  0
  186.8250  175.8250  136.1960 N   0  0  0  0  0  0  0  0  0  0  0  0
  187.8060  176.4290  135.5970 C   0  0  0  0  0  3  0  0  0  0  0  0
  186.0760  177.9980  137.2930 C   0  0  2  0  0  3  0  0  0  0  0  0
  187.9240  177.8960  135.6290 C   0  0  0  0  0  3  0  0  0  0  0  0
  185.8470  176.5500  136.9500 C   0  0  0  0  0  0  0  0  0  0  0  0
  187.1000  178.6280  136.3810 C   0  0  0  0  0  3  0  0  0  0  0  0
  184.8130  175.9610  137.3620 O   0  0  0  0  0  0  0  0  0  0  0  0
  189.8120  178.3780  144.8440 N   0  0  0  0  0  2  0  0  0  0  0  0
  189.8260  177.2330  147.0040 C   0  0  0  0  0  2  0  0  0  0  0  0
  190.1720  177.1390  145.5150 C   0  0  2  0  0  3  0  0  0  0  0  0
  190.1960  175.9380  147.7180 C   0  0  0  0  0  2  0  0  0  0  0  0
  192.4550  176.5810  148.2120 O   0  0  0  0  0  1  0  0  0  0  0  0
  192.0600  175.5820  146.0560 C   0  0  0  0  0  2  0  0  0  0  0  0
  191.6680  176.8790  145.3420 C   0  0  0  0  0  2  0  0  0  0  0  0
  191.6840  175.6280  147.5440 C   0  0  2  0  0  3  0  0  0  0  0  0
  1  8  1  0  0  0  0
  1 11  1  0  0  0  0
  2 14  2  0  0  0  0
  2  6  1  0  0  0  0
  3 18  1  0  0  0  0
  3  8  2  0  0  0  0
  4 10  1  0  0  0  0
  4 18  2  0  0  0  0
  5  6  2  0  0  0  0
  8  2  1  0  0  0  0
  9 27  1  0  0  0  0
 10 17  1  0  0  0  0
 11  5  1  0  0  0  0
 12 19  2  0  0  0  0
 12 13  1  0  0  0  0
 13  1  2  0  0  0  0
 15  4  1  0  0  0  0
 16 15  2  0  0  0  0
 16 19  1  0  0  0  0
 17  7  2  0  0  0  0
 17  9  1  0  0  0  0
 18  7  1  0  0  0  0
 19  3  1  0  0  0  0
 20 24  1  0  0  0  0
 21 23  1  0  0  0  0
 21 20  2  0  0  0  0
 22 16  1  1  0  0  0
 23 25  2  0  0  0  0
 24 22  1  0  0  0  0
 24 26  2  0  0  0  0
 25 22  1  0  0  0  0
 28 30  1  0  0  0  0
 29 27  1  6  0  0  0
 29 28  1  0  0  0  0
 32 34  1  0  0  0  0
 33 29  1  0  0  0  0
 33 32  1  0  0  0  0
 34 30  1  0  0  0  0
 34 31  1  1  0  0  0
M  END
>  <MODEL>
7

>  <REMARK>
 VINA RESULT:      -8.6      3.495      6.343
  Name = 
  3 active torsions:
  status: ('A' for Active; 'I' for Inactive)
    1  A    between atoms: N_3  and  C_13
    2  A    between atoms: N_3  and  N_17
    3  A    between atoms: C_12  and  C_28
                            x       y       z     vdW  Elec       q    Type
                         _______ _______ _______ _____ _____    ______ ____

>  <TORSDO>
F 3

$$$$
=
 OpenBabel10252415013D

 34 39  0  0  1  0  0  0  0  0999 V2000
  183.4270  177.5180  137.2400 C   0  0  0  0  0  0  0  0  0  0  0  0
  185.7650  177.8670  137.8760 C   0  0  0  0  0  0  0  0  0  0  0  0
  183.8170  178.1440  139.5700 C   0  0  0  0  0  0  0  0  0  0  0  0
  183.9830  178.6270  141.9380 C   0  0  0  0  0  0  0  0  0  0  0  0
  185.3330  176.6740  135.8620 C   0  0  0  0  0  3  0  0  0  0  0  0
  186.1780  177.0570  136.7700 N   0  0  0  0  0  0  0  0  0  0  0  0
  185.9370  178.1330  140.8450 N   0  0  0  0  0  0  0  0  0  0  0  0
  184.3300  177.8580  138.2680 C   0  0  0  0  0  0  0  0  0  0  0  0
  187.7360  178.2990  142.4990 N   0  0  0  0  0  2  0  0  0  0  0  0
  185.1110  178.7340  143.1750 S   0  0  0  0  0  0  0  0  0  0  0  0
  183.9130  177.1690  135.8590 C   0  0  0  0  0  2  0  0  0  0  0  0
  181.5800  177.9500  138.6780 N   0  0  0  0  0  0  0  0  0  0  0  0
  182.0570  177.5930  137.4630 C   0  0  0  0  0  3  0  0  0  0  0  0
  186.6030  178.6280  138.4240 O   0  0  0  0  0  0  0  0  0  0  0  0
  182.6470  178.7650  142.0630 N   0  0  0  0  0  0  0  0  0  0  0  0
  181.8360  178.5630  140.9830 C   0  0  0  0  0  0  0  0  0  0  0  0
  186.3630  178.3470  142.1140 C   0  0  0  0  0  0  0  0  0  0  0  0
  184.5960  178.3090  140.7390 C   0  0  0  0  0  0  0  0  0  0  0  0
  182.3980  178.2240  139.7300 C   0  0  0  0  0  0  0  0  0  0  0  0
  179.7520  180.8310  142.4690 N   0  0  0  0  0  0  0  0  0  0  0  0
  179.5420  180.1280  143.5400 C   0  0  0  0  0  3  0  0  0  0  0  0
  180.3500  178.7420  141.1400 C   0  0  2  0  0  3  0  0  0  0  0  0
  179.5320  178.6560  143.4890 C   0  0  0  0  0  3  0  0  0  0  0  0
  180.0300  180.2120  141.2080 C   0  0  0  0  0  0  0  0  0  0  0  0
  179.8670  178.0130  142.3690 C   0  0  0  0  0  3  0  0  0  0  0  0
  180.0470  180.9090  140.1600 O   0  0  0  0  0  0  0  0  0  0  0  0
  188.7470  178.0750  141.5540 N   0  0  0  0  0  2  0  0  0  0  0  0
  189.7910  176.2790  142.8420 C   0  0  0  0  0  2  0  0  0  0  0  0
  189.9410  177.7020  142.2960 C   0  0  2  0  0  3  0  0  0  0  0  0
  191.0400  175.8740  143.6190 C   0  0  0  0  0  2  0  0  0  0  0  0
  190.2980  176.7530  145.7260 O   0  0  0  0  0  1  0  0  0  0  0  0
  191.4070  178.2910  144.2410 C   0  0  0  0  0  2  0  0  0  0  0  0
  190.1570  178.6830  143.4460 C   0  0  0  0  0  2  0  0  0  0  0  0
  191.3060  176.8520  144.7650 C   0  0  2  0  0  3  0  0  0  0  0  0
  1 13  2  0  0  0  0
  1  8  1  0  0  0  0
  2  8  1  0  0  0  0
  2 14  2  0  0  0  0
  3 19  1  0  0  0  0
  3 18  1  0  0  0  0
  4 15  1  0  0  0  0
  4 10  1  0  0  0  0
  5  6  2  0  0  0  0
  6  2  1  0  0  0  0
  7 17  2  0  0  0  0
  8  3  2  0  0  0  0
 11  5  1  0  0  0  0
 11  1  1  0  0  0  0
 12 19  2  0  0  0  0
 13 12  1  0  0  0  0
 16 15  2  0  0  0  0
 17  9  1  0  0  0  0
 17 10  1  0  0  0  0
 18  7  1  0  0  0  0
 18  4  2  0  0  0  0
 19 16  1  0  0  0  0
 20 21  2  0  0  0  0
 22 16  1  1  0  0  0
 22 24  1  0  0  0  0
 22 25  1  0  0  0  0
 23 21  1  0  0  0  0
 24 20  1  0  0  0  0
 25 23  2  0  0  0  0
 26 24  2  0  0  0  0
 27  9  1  0  0  0  0
 28 30  1  0  0  0  0
 29 27  1  1  0  0  0
 29 28  1  0  0  0  0
 29 33  1  0  0  0  0
 30 34  1  0  0  0  0
 32 34  1  0  0  0  0
 33 32  1  0  0  0  0
 34 31  1  1  0  0  0
M  END
>  <MODEL>
8

>  <REMARK>
 VINA RESULT:      -8.4      3.027      5.292
  Name = 
  3 active torsions:
  status: ('A' for Active; 'I' for Inactive)
    1  A    between atoms: N_3  and  C_13
    2  A    between atoms: N_3  and  N_17
    3  A    between atoms: C_12  and  C_28
                            x       y       z     vdW  Elec       q    Type
                         _______ _______ _______ _____ _____    ______ ____

>  <TORSDO>
F 3

$$$$
=
 OpenBabel10252415013D

 34 39  0  0  1  0  0  0  0  0999 V2000
  184.6040  178.6080  142.6660 C   0  0  0  0  0  0  0  0  0  0  0  0
  184.4560  179.0630  140.2650 C   0  0  0  0  0  0  0  0  0  0  0  0
  186.6910  178.4030  141.4100 C   0  0  0  0  0  0  0  0  0  0  0  0
  188.8320  178.0160  140.3450 C   0  0  0  0  0  0  0  0  0  0  0  0
  182.4290  178.6280  141.4350 C   0  0  0  0  0  3  0  0  0  0  0  0
  183.0530  178.7830  140.3070 N   0  0  0  0  0  0  0  0  0  0  0  0
  187.0210  178.2620  138.9620 N   0  0  0  0  0  0  0  0  0  0  0  0
  185.2920  178.6900  141.4380 C   0  0  0  0  0  0  0  0  0  0  0  0
  187.8550  178.0970  136.6660 N   0  0  0  0  0  2  0  0  0  0  0  0
  189.5270  177.8430  138.8280 S   0  0  0  0  0  0  0  0  0  0  0  0
  183.1230  178.8620  142.7490 C   0  0  0  0  0  2  0  0  0  0  0  0
  186.6470  178.1970  143.8170 N   0  0  0  0  0  0  0  0  0  0  0  0
  185.3070  178.3820  143.8440 C   0  0  0  0  0  3  0  0  0  0  0  0
  184.9250  179.6960  139.2850 O   0  0  0  0  0  0  0  0  0  0  0  0
  189.4640  177.8900  141.5310 N   0  0  0  0  0  0  0  0  0  0  0  0
  188.7540  177.9670  142.6940 C   0  0  0  0  0  0  0  0  0  0  0  0
  188.0310  178.0660  138.0810 C   0  0  0  0  0  0  0  0  0  0  0  0
  187.4730  178.2530  140.2420 C   0  0  0  0  0  0  0  0  0  0  0  0
  187.3590  178.1960  142.6580 C   0  0  0  0  0  0  0  0  0  0  0  0
  192.0130  177.8370  143.7220 N   0  0  0  0  0  0  0  0  0  0  0  0
  192.0550  176.5450  143.8470 C   0  0  0  0  0  3  0  0  0  0  0  0
  189.4820  177.8440  144.0050 C   0  0  2  0  0  3  0  0  0  0  0  0
  190.8590  175.7840  144.2430 C   0  0  0  0  0  3  0  0  0  0  0  0
  190.7980  178.5690  143.9160 C   0  0  0  0  0  0  0  0  0  0  0  0
  189.6750  176.3890  144.3560 C   0  0  0  0  0  3  0  0  0  0  0  0
  190.8290  179.8270  143.9680 O   0  0  0  0  0  0  0  0  0  0  0  0
  186.6080  178.3910  136.0960 N   0  0  0  0  0  2  0  0  0  0  0  0
  184.9650  176.6490  136.5880 C   0  0  0  0  0  2  0  0  0  0  0  0
  186.0530  177.1320  135.6240 C   0  0  2  0  0  3  0  0  0  0  0  0
  184.3720  175.3310  136.1020 C   0  0  0  0  0  2  0  0  0  0  0  0
  185.9720  173.9310  137.2180 O   0  0  0  0  0  1  0  0  0  0  0  0
  186.5860  174.7550  135.0400 C   0  0  0  0  0  2  0  0  0  0  0  0
  187.1640  176.0880  135.5240 C   0  0  0  0  0  2  0  0  0  0  0  0
  185.4610  174.2650  135.9620 C   0  0  2  0  0  3  0  0  0  0  0  0
  1 11  1  0  0  0  0
  1 13  1  0  0  0  0
  2  6  1  0  0  0  0
  2  8  1  0  0  0  0
  3  8  1  0  0  0  0
  3 19  1  0  0  0  0
  4 15  2  0  0  0  0
  5 11  1  0  0  0  0
  6  5  2  0  0  0  0
  7 18  1  0  0  0  0
  8  1  2  0  0  0  0
  9 17  1  0  0  0  0
 10  4  1  0  0  0  0
 12 13  2  0  0  0  0
 14  2  2  0  0  0  0
 15 16  1  0  0  0  0
 17 10  1  0  0  0  0
 17  7  2  0  0  0  0
 18  4  1  0  0  0  0
 18  3  2  0  0  0  0
 19 16  2  0  0  0  0
 19 12  1  0  0  0  0
 20 21  2  0  0  0  0
 20 24  1  0  0  0  0
 21 23  1  0  0  0  0
 22 16  1  6  0  0  0
 22 25  1  0  0  0  0
 23 25  2  0  0  0  0
 24 26  2  0  0  0  0
 24 22  1  0  0  0  0
 27  9  1  0  0  0  0
 29 27  1  1  0  0  0
 29 28  1  0  0  0  0
 30 28  1  0  0  0  0
 32 33  1  0  0  0  0
 32 34  1  0  0  0  0
 33 29  1  0  0  0  0
 34 30  1  0  0  0  0
 34 31  1  1  0  0  0
M  END
>  <MODEL>
9

>  <REMARK>
 VINA RESULT:      -8.4      3.266      6.952
  Name = 
  3 active torsions:
  status: ('A' for Active; 'I' for Inactive)
    1  A    between atoms: N_3  and  C_13
    2  A    between atoms: N_3  and  N_17
    3  A    between atoms: C_12  and  C_28
                            x       y       z     vdW  Elec       q    Type
                         _______ _______ _______ _____ _____    ______ ____

>  <TORSDO>
F 3

$$$$
