=
 OpenBabel10262423113D

 34 38  0  0  1  0  0  0  0  0999 V2000
  186.9750  178.1860  144.8530 C   0  0  0  0  0  0  0  0  0  0  0  0
  189.1180  177.7190  147.8150 C   0  0  0  0  0  3  0  0  0  0  0  0
  186.9040  178.1050  147.5970 O   0  0  0  0  0  0  0  0  0  0  0  0
  185.7490  178.6180  142.6960 N   0  0  0  0  0  0  0  0  0  0  0  0
  187.0380  178.3290  143.3410 C   0  0  0  0  0  2  0  0  0  0  0  0
  184.5760  178.9800  144.8120 C   0  0  2  0  0  3  0  0  0  0  0  0
  183.7200  177.8900  144.6360 O   0  0  0  0  0  1  0  0  0  0  0  0
  184.9480  179.5710  143.4630 C   0  0  0  0  0  2  0  0  0  0  0  0
  185.8010  178.4460  146.9440 C   0  0  0  0  0  0  0  0  0  0  0  0
  185.8120  178.5520  145.5500 C   0  0  0  0  0  0  0  0  0  0  0  0
  184.7530  178.7000  147.5960 O   0  0  0  0  0  0  0  0  0  0  0  0
  190.5530  177.7140  147.4060 C   0  0  0  0  0  2  0  0  0  0  0  0
  190.9020  176.5830  146.5080 C   0  0  0  0  0  0  0  0  0  0  0  0
  190.2870  176.4260  145.3370 C   0  0  0  0  0  3  0  0  0  0  0  0
  188.0600  177.8270  146.9990 C   0  0  0  0  0  0  0  0  0  0  0  0
  189.0960  177.1550  144.8680 C   0  0  0  0  0  3  0  0  0  0  0  0
  188.1120  177.7510  145.5740 C   0  0  0  0  0  0  0  0  0  0  0  0
  192.0600  175.7360  146.8480 C   0  0  0  0  0  0  0  0  0  0  0  0
  192.7190  175.9050  148.0620 O   0  0  0  0  0  1  0  0  0  0  0  0
  192.4740  174.8630  146.0340 O   0  0  0  0  0  0  0  0  0  0  0  0
  185.9590  179.1650  141.3440 C   0  0  0  0  0  2  0  0  0  0  0  0
  183.5740  179.3740  138.3960 C   0  0  0  0  0  2  0  0  0  0  0  0
  183.8240  178.0300  140.7790 O   0  0  0  0  0  0  0  0  0  0  0  0
  180.3910  180.3620  140.1330 C   0  0  0  0  0  0  0  0  0  0  0  0
  181.2940  180.1730  139.1520 C   0  0  0  0  0  3  0  0  0  0  0  0
  182.3360  179.0970  139.2490 C   0  0  2  0  0  3  0  0  0  0  0  0
  181.5260  178.4690  141.4770 C   0  0  0  0  0  2  0  0  0  0  0  0
  182.7430  178.9230  140.6970 C   0  0  1  0  0  3  0  0  0  0  0  0
  180.4680  179.5890  141.4460 C   0  0  0  0  0  2  0  0  0  0  0  0
  184.9880  178.6640  140.2440 C   0  0  1  0  0  3  0  0  0  0  0  0
  184.7290  179.7190  139.2340 N   0  0  0  0  0  2  0  0  0  0  0  0
  179.3880  181.4320  139.9910 C   0  0  0  0  0  0  0  0  0  0  0  0
  178.9330  182.0170  141.0110 O   0  0  0  0  0  1  0  0  0  0  0  0
  178.9330  181.8120  138.7340 O   0  0  0  0  0  0  0  0  0  0  0  0
  1 10  2  0  0  0  0
  1 17  1  0  0  0  0
  4  5  1  0  0  0  0
  4  8  1  0  0  0  0
  5  1  1  0  0  0  0
  6  7  1  6  0  0  0
  6 10  1  0  0  0  0
  8  6  1  0  0  0  0
  9 11  2  0  0  0  0
  9  3  1  0  0  0  0
 10  9  1  0  0  0  0
 12  2  1  0  0  0  0
 13 18  1  0  0  0  0
 13 12  1  0  0  0  0
 14 13  2  0  0  0  0
 15  3  1  0  0  0  0
 15  2  2  0  0  0  0
 16 14  1  0  0  0  0
 16 17  2  0  0  0  0
 17 15  1  0  0  0  0
 18 19  1  0  0  0  0
 20 18  2  0  0  0  0
 21  4  1  0  0  0  0
 22 31  1  0  0  0  0
 24 29  1  0  0  0  0
 25 26  1  0  0  0  0
 25 24  2  0  0  0  0
 26 22  1  6  0  0  0
 26 28  1  0  0  0  0
 28 23  1  0  0  0  0
 28 27  1  1  0  0  0
 29 27  1  0  0  0  0
 30 23  1  0  0  0  0
 30 21  1  1  0  0  0
 31 30  1  0  0  0  0
 32 24  1  0  0  0  0
 32 33  1  0  0  0  0
 34 32  2  0  0  0  0
M  END
>  <MODEL>
1

>  <REMARK>
 VINA RESULT:      -9.2      0.000      0.000
  Name = 
  4 active torsions:
  status: ('A' for Active; 'I' for Inactive)
    1  A    between atoms: C_3  and  C_25
    2  A    between atoms: C_7  and  C_11
    3  A    between atoms: N_8  and  C_18
    4  A    between atoms: C_18  and  C_30
                            x       y       z     vdW  Elec       q    Type
                         _______ _______ _______ _____ _____    ______ ____

>  <TORSDO>
F 4

$$$$
=
 OpenBabel10262423113D

 34 38  0  0  1  0  0  0  0  0999 V2000
  189.7990  177.0460  137.9200 C   0  0  0  0  0  0  0  0  0  0  0  0
  191.6650  174.4720  136.0570 C   0  0  0  0  0  3  0  0  0  0  0  0
  189.7730  175.6080  135.5810 O   0  0  0  0  0  0  0  0  0  0  0  0
  188.6250  178.6760  139.4390 N   0  0  0  0  0  0  0  0  0  0  0  0
  189.7650  177.7650  139.2590 C   0  0  0  0  0  2  0  0  0  0  0  0
  187.4920  177.9400  137.4000 C   0  0  2  0  0  3  0  0  0  0  0  0
  187.5980  179.1850  136.7750 O   0  0  0  0  0  1  0  0  0  0  0  0
  187.3830  178.1210  138.9040 C   0  0  0  0  0  2  0  0  0  0  0  0
  188.7350  176.3860  135.8590 C   0  0  0  0  0  0  0  0  0  0  0  0
  188.6860  177.0920  137.0650 C   0  0  0  0  0  0  0  0  0  0  0  0
  187.7830  176.4600  135.0360 O   0  0  0  0  0  0  0  0  0  0  0  0
  192.7310  173.8920  136.9240 C   0  0  0  0  0  2  0  0  0  0  0  0
  193.7610  174.8850  137.3270 C   0  0  0  0  0  0  0  0  0  0  0  0
  193.4260  175.9790  138.0070 C   0  0  0  0  0  3  0  0  0  0  0  0
  190.8200  175.4580  136.3890 C   0  0  0  0  0  0  0  0  0  0  0  0
  192.0600  176.4690  138.2620 C   0  0  0  0  0  3  0  0  0  0  0  0
  190.9240  176.2680  137.5600 C   0  0  0  0  0  0  0  0  0  0  0  0
  195.1840  174.5570  137.1200 C   0  0  0  0  0  0  0  0  0  0  0  0
  196.1400  174.9670  138.0450 O   0  0  0  0  0  1  0  0  0  0  0  0
  195.5490  173.9170  136.0930 O   0  0  0  0  0  0  0  0  0  0  0  0
  188.4240  178.9770  140.8680 C   0  0  0  0  0  2  0  0  0  0  0  0
  186.1670  177.5400  143.5620 C   0  0  0  0  0  2  0  0  0  0  0  0
  188.5960  177.0200  142.3870 O   0  0  0  0  0  0  0  0  0  0  0  0
  188.4620  177.6500  146.5360 C   0  0  0  0  0  0  0  0  0  0  0  0
  187.3300  177.5800  145.8110 C   0  0  0  0  0  3  0  0  0  0  0  0
  187.3340  177.0350  144.4120 C   0  0  2  0  0  3  0  0  0  0  0  0
  189.7640  176.7170  144.5090 C   0  0  0  0  0  2  0  0  0  0  0  0
  188.6440  177.3900  143.7400 C   0  0  1  0  0  3  0  0  0  0  0  0
  189.8200  177.3120  145.9290 C   0  0  0  0  0  2  0  0  0  0  0  0
  187.6940  177.8940  141.7010 C   0  0  1  0  0  3  0  0  0  0  0  0
  186.6270  178.4890  142.5410 N   0  0  0  0  0  2  0  0  0  0  0  0
  188.4060  178.1920  147.9060 C   0  0  0  0  0  0  0  0  0  0  0  0
  187.3300  178.6680  148.3580 O   0  0  0  0  0  0  0  0  0  0  0  0
  189.5360  178.1830  148.7160 O   0  0  0  0  0  1  0  0  0  0  0  0
  1  5  1  0  0  0  0
  2 15  2  0  0  0  0
  2 12  1  0  0  0  0
  3  9  1  0  0  0  0
  3 15  1  0  0  0  0
  4 21  1  0  0  0  0
  5  4  1  0  0  0  0
  6  7  1  6  0  0  0
  6  8  1  0  0  0  0
  8  4  1  0  0  0  0
  9 10  1  0  0  0  0
 10  6  1  0  0  0  0
 10  1  2  0  0  0  0
 11  9  2  0  0  0  0
 12 13  1  0  0  0  0
 13 14  2  0  0  0  0
 14 16  1  0  0  0  0
 15 17  1  0  0  0  0
 17  1  1  0  0  0  0
 17 16  2  0  0  0  0
 18 13  1  0  0  0  0
 18 19  1  0  0  0  0
 20 18  2  0  0  0  0
 23 28  1  0  0  0  0
 24 32  1  0  0  0  0
 25 24  2  0  0  0  0
 26 22  1  6  0  0  0
 26 25  1  0  0  0  0
 27 29  1  0  0  0  0
 28 26  1  0  0  0  0
 28 27  1  1  0  0  0
 29 24  1  0  0  0  0
 30 21  1  1  0  0  0
 30 23  1  0  0  0  0
 30 31  1  0  0  0  0
 31 22  1  0  0  0  0
 32 33  2  0  0  0  0
 32 34  1  0  0  0  0
M  END
>  <MODEL>
2

>  <REMARK>
 VINA RESULT:      -9.1      5.707      9.320
  Name = 
  4 active torsions:
  status: ('A' for Active; 'I' for Inactive)
    1  A    between atoms: C_3  and  C_25
    2  A    between atoms: C_7  and  C_11
    3  A    between atoms: N_8  and  C_18
    4  A    between atoms: C_18  and  C_30
                            x       y       z     vdW  Elec       q    Type
                         _______ _______ _______ _____ _____    ______ ____

>  <TORSDO>
F 4

$$$$
=
 OpenBabel10262423113D

 34 38  0  0  1  0  0  0  0  0999 V2000
  184.2780  178.5540  142.3510 C   0  0  0  0  0  0  0  0  0  0  0  0
  184.6590  178.8060  146.0080 C   0  0  0  0  0  3  0  0  0  0  0  0
  182.8340  178.6900  144.6830 O   0  0  0  0  0  0  0  0  0  0  0  0
  184.2710  178.5310  139.8330 N   0  0  0  0  0  0  0  0  0  0  0  0
  185.0790  178.5800  141.0600 C   0  0  0  0  0  2  0  0  0  0  0  0
  182.1480  178.8100  141.0150 C   0  0  2  0  0  3  0  0  0  0  0  0
  181.6660  177.5510  140.6470 O   0  0  0  0  0  1  0  0  0  0  0  0
  183.0650  179.3520  139.9320 C   0  0  0  0  0  2  0  0  0  0  0  0
  182.1810  178.7310  143.5300 C   0  0  0  0  0  0  0  0  0  0  0  0
  182.8830  178.7200  142.3210 C   0  0  0  0  0  0  0  0  0  0  0  0
  180.9230  178.8090  143.5370 O   0  0  0  0  0  0  0  0  0  0  0  0
  186.0860  179.0740  146.3510 C   0  0  0  0  0  2  0  0  0  0  0  0
  187.0000  177.9720  145.9530 C   0  0  0  0  0  0  0  0  0  0  0  0
  187.0960  177.5900  144.6810 C   0  0  0  0  0  3  0  0  0  0  0  0
  184.1600  178.6160  144.7780 C   0  0  0  0  0  0  0  0  0  0  0  0
  186.2190  178.0050  143.5730 C   0  0  0  0  0  3  0  0  0  0  0  0
  184.9390  178.4340  143.5960 C   0  0  0  0  0  0  0  0  0  0  0  0
  187.9320  177.4240  146.9560 C   0  0  0  0  0  0  0  0  0  0  0  0
  187.6390  177.5220  148.3130 O   0  0  0  0  0  1  0  0  0  0  0  0
  189.0120  176.8760  146.5930 O   0  0  0  0  0  0  0  0  0  0  0  0
  185.0580  178.9950  138.6760 C   0  0  0  0  0  2  0  0  0  0  0  0
  185.6710  175.6620  136.9630 C   0  0  0  0  0  2  0  0  0  0  0  0
  186.3060  178.3160  136.6400 O   0  0  0  0  0  0  0  0  0  0  0  0
  189.4260  175.5290  137.0030 C   0  0  0  0  0  0  0  0  0  0  0  0
  188.1450  175.1250  136.9210 C   0  0  0  0  0  3  0  0  0  0  0  0
  187.0610  176.0590  136.4660 C   0  0  2  0  0  3  0  0  0  0  0  0
  188.6810  177.8900  136.2650 C   0  0  0  0  0  2  0  0  0  0  0  0
  187.3850  177.4650  136.9270 C   0  0  1  0  0  3  0  0  0  0  0  0
  189.8190  176.9850  136.7720 C   0  0  0  0  0  2  0  0  0  0  0  0
  185.2170  177.9890  137.5080 C   0  0  1  0  0  3  0  0  0  0  0  0
  185.1920  176.5890  137.9950 N   0  0  0  0  0  2  0  0  0  0  0  0
  190.4540  174.5740  137.4560 C   0  0  0  0  0  0  0  0  0  0  0  0
  190.3450  173.3470  137.1880 O   0  0  0  0  0  0  0  0  0  0  0  0
  191.5570  175.0130  138.1800 O   0  0  0  0  0  1  0  0  0  0  0  0
  1 17  1  0  0  0  0
  2 12  1  0  0  0  0
  3 15  1  0  0  0  0
  4  8  1  0  0  0  0
  4  5  1  0  0  0  0
  5  1  1  0  0  0  0
  6  7  1  6  0  0  0
  6 10  1  0  0  0  0
  8  6  1  0  0  0  0
  9 11  2  0  0  0  0
  9  3  1  0  0  0  0
 10  1  2  0  0  0  0
 10  9  1  0  0  0  0
 13 12  1  0  0  0  0
 13 18  1  0  0  0  0
 14 13  2  0  0  0  0
 15  2  2  0  0  0  0
 16 17  2  0  0  0  0
 16 14  1  0  0  0  0
 17 15  1  0  0  0  0
 18 19  1  0  0  0  0
 20 18  2  0  0  0  0
 21  4  1  0  0  0  0
 22 31  1  0  0  0  0
 23 28  1  0  0  0  0
 23 30  1  0  0  0  0
 24 32  1  0  0  0  0
 25 24  2  0  0  0  0
 26 25  1  1  0  0  0
 26 28  1  0  0  0  0
 26 22  1  0  0  0  0
 27 29  1  0  0  0  0
 28 27  1  6  0  0  0
 29 24  1  0  0  0  0
 30 31  1  0  0  0  0
 30 21  1  1  0  0  0
 32 34  1  0  0  0  0
 33 32  2  0  0  0  0
M  END
>  <MODEL>
3

>  <REMARK>
 VINA RESULT:      -9.1      3.788      6.674
  Name = 
  4 active torsions:
  status: ('A' for Active; 'I' for Inactive)
    1  A    between atoms: C_3  and  C_25
    2  A    between atoms: C_7  and  C_11
    3  A    between atoms: N_8  and  C_18
    4  A    between atoms: C_18  and  C_30
                            x       y       z     vdW  Elec       q    Type
                         _______ _______ _______ _____ _____    ______ ____

>  <TORSDO>
F 4

$$$$
=
 OpenBabel10262423113D

 34 38  0  0  1  0  0  0  0  0999 V2000
  186.2370  178.1920  143.9300 C   0  0  0  0  0  0  0  0  0  0  0  0
  188.8910  177.7510  146.4490 C   0  0  0  0  0  3  0  0  0  0  0  0
  186.6730  178.1260  146.6400 O   0  0  0  0  0  0  0  0  0  0  0  0
  184.6330  178.6050  142.0330 N   0  0  0  0  0  0  0  0  0  0  0  0
  186.0200  178.3260  142.4320 C   0  0  0  0  0  2  0  0  0  0  0  0
  183.8680  178.9760  144.3270 C   0  0  2  0  0  3  0  0  0  0  0  0
  182.9990  177.8810  144.3170 O   0  0  0  0  0  1  0  0  0  0  0  0
  183.9820  179.5600  142.9290 C   0  0  0  0  0  2  0  0  0  0  0  0
  185.4670  178.4600  146.2000 C   0  0  0  0  0  0  0  0  0  0  0  0
  185.2200  178.5570  144.8270 C   0  0  0  0  0  0  0  0  0  0  0  0
  184.5550  178.7130  147.0320 O   0  0  0  0  0  0  0  0  0  0  0  0
  190.2260  177.7500  145.7830 C   0  0  0  0  0  2  0  0  0  0  0  0
  190.4090  176.6140  144.8420 C   0  0  0  0  0  0  0  0  0  0  0  0
  189.5910  176.4480  143.8060 C   0  0  0  0  0  3  0  0  0  0  0  0
  187.7000  177.8490  145.8410 C   0  0  0  0  0  0  0  0  0  0  0  0
  188.3300  177.1690  143.5590 C   0  0  0  0  0  3  0  0  0  0  0  0
  187.4900  177.7650  144.4320 C   0  0  0  0  0  0  0  0  0  0  0  0
  191.6150  175.7740  144.9680 C   0  0  0  0  0  0  0  0  0  0  0  0
  192.2870  175.6900  146.1840 O   0  0  0  0  0  1  0  0  0  0  0  0
  192.0570  175.1380  143.9690 O   0  0  0  0  0  0  0  0  0  0  0  0
  184.5870  179.1450  140.6620 C   0  0  0  0  0  2  0  0  0  0  0  0
  182.3020  176.4600  139.2550 C   0  0  0  0  0  2  0  0  0  0  0  0
  184.0430  178.3880  138.3610 O   0  0  0  0  0  0  0  0  0  0  0  0
  184.7630  174.3850  137.3150 C   0  0  0  0  0  0  0  0  0  0  0  0
  183.6390  174.7380  137.9680 C   0  0  0  0  0  3  0  0  0  0  0  0
  183.2090  176.1730  138.0580 C   0  0  2  0  0  3  0  0  0  0  0  0
  185.2120  176.8840  136.8350 C   0  0  0  0  0  2  0  0  0  0  0  0
  184.4340  177.0610  138.1230 C   0  0  1  0  0  3  0  0  0  0  0  0
  185.7220  175.4310  136.7560 C   0  0  0  0  0  2  0  0  0  0  0  0
  183.5590  178.4930  139.7030 C   0  0  1  0  0  3  0  0  0  0  0  0
  183.0050  177.2440  140.2770 N   0  0  0  0  0  2  0  0  0  0  0  0
  185.1430  172.9620  137.2550 C   0  0  0  0  0  0  0  0  0  0  0  0
  186.3590  172.6290  137.2410 O   0  0  0  0  0  1  0  0  0  0  0  0
  184.1690  171.9710  137.2170 O   0  0  0  0  0  0  0  0  0  0  0  0
  1 17  1  0  0  0  0
  1 10  2  0  0  0  0
  4  5  1  0  0  0  0
  4  8  1  0  0  0  0
  5  1  1  0  0  0  0
  6  7  1  6  0  0  0
  6 10  1  0  0  0  0
  8  6  1  0  0  0  0
  9  3  1  0  0  0  0
  9 11  2  0  0  0  0
 10  9  1  0  0  0  0
 12  2  1  0  0  0  0
 13 18  1  0  0  0  0
 13 12  1  0  0  0  0
 14 13  2  0  0  0  0
 15  2  2  0  0  0  0
 15  3  1  0  0  0  0
 16 14  1  0  0  0  0
 16 17  2  0  0  0  0
 17 15  1  0  0  0  0
 18 19  1  0  0  0  0
 20 18  2  0  0  0  0
 21  4  1  0  0  0  0
 22 31  1  0  0  0  0
 23 30  1  0  0  0  0
 24 25  2  0  0  0  0
 26 25  1  1  0  0  0
 26 28  1  0  0  0  0
 26 22  1  0  0  0  0
 28 27  1  6  0  0  0
 28 23  1  0  0  0  0
 29 27  1  0  0  0  0
 29 24  1  0  0  0  0
 30 31  1  0  0  0  0
 30 21  1  1  0  0  0
 32 24  1  0  0  0  0
 33 32  1  0  0  0  0
 34 32  2  0  0  0  0
M  END
>  <MODEL>
4

>  <REMARK>
 VINA RESULT:      -8.9      2.919      4.518
  Name = 
  4 active torsions:
  status: ('A' for Active; 'I' for Inactive)
    1  A    between atoms: C_3  and  C_25
    2  A    between atoms: C_7  and  C_11
    3  A    between atoms: N_8  and  C_18
    4  A    between atoms: C_18  and  C_30
                            x       y       z     vdW  Elec       q    Type
                         _______ _______ _______ _____ _____    ______ ____

>  <TORSDO>
F 4

$$$$
=
 OpenBabel10262423113D

 34 38  0  0  1  0  0  0  0  0999 V2000
  182.5760  178.2910  141.3360 C   0  0  0  0  0  0  0  0  0  0  0  0
  181.8590  175.9710  138.5630 C   0  0  0  0  0  3  0  0  0  0  0  0
  180.5310  176.9120  140.1290 O   0  0  0  0  0  0  0  0  0  0  0  0
  183.3350  179.7530  143.2410 N   0  0  0  0  0  0  0  0  0  0  0  0
  183.7270  178.9720  142.0590 C   0  0  0  0  0  2  0  0  0  0  0  0
  181.0250  178.9470  143.2210 C   0  0  2  0  0  3  0  0  0  0  0  0
  180.4840  180.2100  142.9690 O   0  0  0  0  0  1  0  0  0  0  0  0
  182.3030  179.0810  144.0310 C   0  0  0  0  0  2  0  0  0  0  0  0
  180.2770  177.5690  141.2530 C   0  0  0  0  0  0  0  0  0  0  0  0
  181.3030  178.2380  141.9260 C   0  0  0  0  0  0  0  0  0  0  0  0
  179.1050  177.5600  141.7190 O   0  0  0  0  0  0  0  0  0  0  0  0
  183.1370  175.4890  137.9640 C   0  0  0  0  0  2  0  0  0  0  0  0
  183.9400  176.5750  137.3460 C   0  0  0  0  0  0  0  0  0  0  0  0
  184.3570  177.6120  138.0690 C   0  0  0  0  0  3  0  0  0  0  0  0
  181.7350  176.8550  139.5640 C   0  0  0  0  0  0  0  0  0  0  0  0
  183.9380  177.9490  139.4410 C   0  0  0  0  0  3  0  0  0  0  0  0
  182.7980  177.6450  140.0970 C   0  0  0  0  0  0  0  0  0  0  0  0
  184.4220  176.4050  135.9620 C   0  0  0  0  0  0  0  0  0  0  0  0
  185.5180  177.1310  135.5070 O   0  0  0  0  0  1  0  0  0  0  0  0
  183.8330  175.6110  135.1740 O   0  0  0  0  0  0  0  0  0  0  0  0
  184.5010  179.9990  144.1080 C   0  0  0  0  0  2  0  0  0  0  0  0
  186.3360  178.2540  146.9380 C   0  0  0  0  0  2  0  0  0  0  0  0
  185.4490  177.7220  144.3930 O   0  0  0  0  0  0  0  0  0  0  0  0
  189.5450  177.3140  145.2230 C   0  0  0  0  0  0  0  0  0  0  0  0
  188.6630  177.5790  146.2060 C   0  0  0  0  0  3  0  0  0  0  0  0
  187.1880  177.4030  145.9960 C   0  0  2  0  0  3  0  0  0  0  0  0
  187.5650  176.7480  143.6620 C   0  0  0  0  0  2  0  0  0  0  0  0
  186.8430  177.7340  144.5580 C   0  0  1  0  0  3  0  0  0  0  0  0
  189.0840  176.9590  143.8130 C   0  0  0  0  0  2  0  0  0  0  0  0
  184.8930  178.8500  145.0730 C   0  0  1  0  0  3  0  0  0  0  0  0
  185.6880  179.3560  146.2170 N   0  0  0  0  0  2  0  0  0  0  0  0
  190.9850  177.5020  145.4780 C   0  0  0  0  0  0  0  0  0  0  0  0
  191.6800  178.2130  144.7040 O   0  0  0  0  0  0  0  0  0  0  0  0
  191.5920  176.9030  146.5760 O   0  0  0  0  0  1  0  0  0  0  0  0
  1 10  2  0  0  0  0
  1  5  1  0  0  0  0
  2 15  2  0  0  0  0
  3  9  1  0  0  0  0
  4  8  1  0  0  0  0
  4 21  1  0  0  0  0
  5  4  1  0  0  0  0
  6  7  1  6  0  0  0
  6  8  1  0  0  0  0
  9 11  2  0  0  0  0
  9 10  1  0  0  0  0
 10  6  1  0  0  0  0
 12  2  1  0  0  0  0
 13 12  1  0  0  0  0
 13 14  2  0  0  0  0
 14 16  1  0  0  0  0
 15 17  1  0  0  0  0
 15  3  1  0  0  0  0
 16 17  2  0  0  0  0
 17  1  1  0  0  0  0
 18 13  1  0  0  0  0
 19 18  1  0  0  0  0
 20 18  2  0  0  0  0
 23 28  1  0  0  0  0
 23 30  1  0  0  0  0
 24 32  1  0  0  0  0
 24 25  2  0  0  0  0
 26 25  1  6  0  0  0
 26 22  1  0  0  0  0
 27 29  1  0  0  0  0
 28 27  1  6  0  0  0
 28 26  1  0  0  0  0
 29 24  1  0  0  0  0
 30 21  1  6  0  0  0
 30 31  1  0  0  0  0
 31 22  1  0  0  0  0
 32 34  1  0  0  0  0
 33 32  2  0  0  0  0
M  END
>  <MODEL>
5

>  <REMARK>
 VINA RESULT:      -8.9      2.667      9.275
  Name = 
  4 active torsions:
  status: ('A' for Active; 'I' for Inactive)
    1  A    between atoms: C_3  and  C_25
    2  A    between atoms: C_7  and  C_11
    3  A    between atoms: N_8  and  C_18
    4  A    between atoms: C_18  and  C_30
                            x       y       z     vdW  Elec       q    Type
                         _______ _______ _______ _____ _____    ______ ____

>  <TORSDO>
F 4

$$$$
=
 OpenBabel10262423113D

 34 38  0  0  1  0  0  0  0  0999 V2000
  186.1950  178.1770  143.9180 C   0  0  0  0  0  0  0  0  0  0  0  0
  188.9220  177.8080  146.3680 C   0  0  0  0  0  3  0  0  0  0  0  0
  186.7130  178.2080  146.6140 O   0  0  0  0  0  0  0  0  0  0  0  0
  184.5360  178.5350  142.0570 N   0  0  0  0  0  0  0  0  0  0  0  0
  185.9320  178.2580  142.4230 C   0  0  0  0  0  2  0  0  0  0  0  0
  183.8440  178.9950  144.3580 C   0  0  2  0  0  3  0  0  0  0  0  0
  182.9680  177.9070  144.4150 O   0  0  0  0  0  1  0  0  0  0  0  0
  183.9190  179.5270  142.9370 C   0  0  0  0  0  2  0  0  0  0  0  0
  185.4970  178.5350  146.1980 C   0  0  0  0  0  0  0  0  0  0  0  0
  185.2080  178.5840  144.8310 C   0  0  0  0  0  0  0  0  0  0  0  0
  184.6130  178.8260  147.0490 O   0  0  0  0  0  0  0  0  0  0  0  0
  190.2350  177.7710  145.6620 C   0  0  0  0  0  2  0  0  0  0  0  0
  190.3820  176.6000  144.7580 C   0  0  0  0  0  0  0  0  0  0  0  0
  189.5300  176.4030  143.7540 C   0  0  0  0  0  3  0  0  0  0  0  0
  187.7130  177.8930  145.7940 C   0  0  0  0  0  0  0  0  0  0  0  0
  188.2680  177.1250  143.5200 C   0  0  0  0  0  3  0  0  0  0  0  0
  187.4590  177.7590  144.3960 C   0  0  0  0  0  0  0  0  0  0  0  0
  191.5840  175.7560  144.8780 C   0  0  0  0  0  0  0  0  0  0  0  0
  192.2330  175.6280  146.1030 O   0  0  0  0  0  1  0  0  0  0  0  0
  192.0460  175.1550  143.8660 O   0  0  0  0  0  0  0  0  0  0  0  0
  184.4510  179.0240  140.6690 C   0  0  0  0  0  2  0  0  0  0  0  0
  182.4370  178.2710  137.5400 C   0  0  0  0  0  2  0  0  0  0  0  0
  182.0210  178.9840  140.1600 O   0  0  0  0  0  0  0  0  0  0  0  0
  180.5370  181.4880  137.1330 C   0  0  0  0  0  0  0  0  0  0  0  0
  181.0950  180.2990  136.8360 C   0  0  0  0  0  3  0  0  0  0  0  0
  181.3260  179.2610  137.8940 C   0  0  2  0  0  3  0  0  0  0  0  0
  180.4530  180.7750  139.6150 C   0  0  0  0  0  2  0  0  0  0  0  0
  181.6540  179.9450  139.2050 C   0  0  1  0  0  3  0  0  0  0  0  0
  180.2400  181.8910  138.5740 C   0  0  0  0  0  2  0  0  0  0  0  0
  183.2990  178.4470  139.8080 C   0  0  1  0  0  3  0  0  0  0  0  0
  183.6300  178.4960  138.3640 N   0  0  0  0  0  2  0  0  0  0  0  0
  180.3310  182.4750  136.0580 C   0  0  0  0  0  0  0  0  0  0  0  0
  180.8680  182.3080  134.9300 O   0  0  0  0  0  0  0  0  0  0  0  0
  179.5400  183.5990  136.2720 O   0  0  0  0  0  1  0  0  0  0  0  0
  1 17  1  0  0  0  0
  1 10  2  0  0  0  0
  4  5  1  0  0  0  0
  4  8  1  0  0  0  0
  5  1  1  0  0  0  0
  6  7  1  6  0  0  0
  6 10  1  0  0  0  0
  8  6  1  0  0  0  0
  9  3  1  0  0  0  0
  9 11  2  0  0  0  0
 10  9  1  0  0  0  0
 12  2  1  0  0  0  0
 13 18  1  0  0  0  0
 13 12  1  0  0  0  0
 14 13  2  0  0  0  0
 15  2  2  0  0  0  0
 15  3  1  0  0  0  0
 16 14  1  0  0  0  0
 16 17  2  0  0  0  0
 17 15  1  0  0  0  0
 18 19  1  0  0  0  0
 20 18  2  0  0  0  0
 21  4  1  0  0  0  0
 22 26  1  0  0  0  0
 22 31  1  0  0  0  0
 24 29  1  0  0  0  0
 25 24  2  0  0  0  0
 26 25  1  6  0  0  0
 26 28  1  0  0  0  0
 28 27  1  1  0  0  0
 28 23  1  0  0  0  0
 29 27  1  0  0  0  0
 30 23  1  0  0  0  0
 30 21  1  1  0  0  0
 31 30  1  0  0  0  0
 32 34  1  0  0  0  0
 32 24  1  0  0  0  0
 33 32  2  0  0  0  0
M  END
>  <MODEL>
6

>  <REMARK>
 VINA RESULT:      -8.8      1.729      2.258
  Name = 
  4 active torsions:
  status: ('A' for Active; 'I' for Inactive)
    1  A    between atoms: C_3  and  C_25
    2  A    between atoms: C_7  and  C_11
    3  A    between atoms: N_8  and  C_18
    4  A    between atoms: C_18  and  C_30
                            x       y       z     vdW  Elec       q    Type
                         _______ _______ _______ _____ _____    ______ ____

>  <TORSDO>
F 4

$$$$
=
 OpenBabel10262423113D

 34 38  0  0  1  0  0  0  0  0999 V2000
  184.8240  178.4720  142.6810 C   0  0  0  0  0  0  0  0  0  0  0  0
  185.0030  178.8350  146.3440 C   0  0  0  0  0  3  0  0  0  0  0  0
  183.2560  178.7880  144.9130 O   0  0  0  0  0  0  0  0  0  0  0  0
  184.9660  178.3550  140.1690 N   0  0  0  0  0  0  0  0  0  0  0  0
  185.7010  178.3970  141.4420 C   0  0  0  0  0  2  0  0  0  0  0  0
  182.7990  178.8170  141.2070 C   0  0  2  0  0  3  0  0  0  0  0  0
  182.2560  177.5790  140.8530 O   0  0  0  0  0  1  0  0  0  0  0  0
  183.8140  179.2560  140.1660 C   0  0  0  0  0  2  0  0  0  0  0  0
  182.6770  178.8300  143.7210 C   0  0  0  0  0  0  0  0  0  0  0  0
  183.4480  178.7270  142.5580 C   0  0  0  0  0  0  0  0  0  0  0  0
  181.4290  178.9900  143.6470 O   0  0  0  0  0  0  0  0  0  0  0  0
  186.4210  179.0220  146.7650 C   0  0  0  0  0  2  0  0  0  0  0  0
  187.2810  177.8480  146.4620 C   0  0  0  0  0  0  0  0  0  0  0  0
  187.4260  177.4130  145.2120 C   0  0  0  0  0  3  0  0  0  0  0  0
  184.5650  178.6320  145.0930 C   0  0  0  0  0  0  0  0  0  0  0  0
  186.6470  177.8430  144.0380 C   0  0  0  0  0  3  0  0  0  0  0  0
  185.4000  178.3550  143.9680 C   0  0  0  0  0  0  0  0  0  0  0  0
  188.1120  177.2790  147.5390 C   0  0  0  0  0  0  0  0  0  0  0  0
  189.2750  176.5790  147.2310 O   0  0  0  0  0  0  0  0  0  0  0  0
  187.7670  177.4070  148.7480 O   0  0  0  0  0  1  0  0  0  0  0  0
  185.8500  178.7230  139.0490 C   0  0  0  0  0  2  0  0  0  0  0  0
  184.7830  176.0490  136.5730 C   0  0  0  0  0  2  0  0  0  0  0  0
  186.6330  178.0690  136.7850 O   0  0  0  0  0  0  0  0  0  0  0  0
  187.9980  174.1470  136.1600 C   0  0  0  0  0  0  0  0  0  0  0  0
  186.6830  174.4340  136.1340 C   0  0  0  0  0  3  0  0  0  0  0  0
  186.1970  175.8500  136.0250 C   0  0  2  0  0  3  0  0  0  0  0  0
  188.5050  176.6790  136.0600 C   0  0  0  0  0  2  0  0  0  0  0  0
  187.1580  176.7680  136.7500 C   0  0  1  0  0  3  0  0  0  0  0  0
  189.0530  175.2480  136.2200 C   0  0  0  0  0  2  0  0  0  0  0  0
  185.5130  178.0920  137.6740 C   0  0  1  0  0  3  0  0  0  0  0  0
  184.8040  176.8000  137.8340 N   0  0  0  0  0  2  0  0  0  0  0  0
  188.4260  172.7410  136.2690 C   0  0  0  0  0  0  0  0  0  0  0  0
  187.9410  171.9960  137.1630 O   0  0  0  0  0  1  0  0  0  0  0  0
  189.3640  172.2170  135.3860 O   0  0  0  0  0  0  0  0  0  0  0  0
  1 17  1  0  0  0  0
  2 12  1  0  0  0  0
  3 15  1  0  0  0  0
  4  5  1  0  0  0  0
  5  1  1  0  0  0  0
  6  7  1  6  0  0  0
  6 10  1  0  0  0  0
  8  4  1  0  0  0  0
  8  6  1  0  0  0  0
  9  3  1  0  0  0  0
 10  1  2  0  0  0  0
 10  9  1  0  0  0  0
 11  9  2  0  0  0  0
 13 12  1  0  0  0  0
 13 18  1  0  0  0  0
 14 13  2  0  0  0  0
 15  2  2  0  0  0  0
 16 14  1  0  0  0  0
 17 16  2  0  0  0  0
 17 15  1  0  0  0  0
 18 20  1  0  0  0  0
 19 18  2  0  0  0  0
 21  4  1  0  0  0  0
 22 31  1  0  0  0  0
 23 30  1  0  0  0  0
 24 29  1  0  0  0  0
 24 32  1  0  0  0  0
 25 24  2  0  0  0  0
 26 25  1  1  0  0  0
 26 22  1  0  0  0  0
 26 28  1  0  0  0  0
 27 29  1  0  0  0  0
 28 27  1  6  0  0  0
 28 23  1  0  0  0  0
 30 31  1  0  0  0  0
 30 21  1  1  0  0  0
 32 33  1  0  0  0  0
 34 32  2  0  0  0  0
M  END
>  <MODEL>
7

>  <REMARK>
 VINA RESULT:      -8.6      3.959      6.455
  Name = 
  4 active torsions:
  status: ('A' for Active; 'I' for Inactive)
    1  A    between atoms: C_3  and  C_25
    2  A    between atoms: C_7  and  C_11
    3  A    between atoms: N_8  and  C_18
    4  A    between atoms: C_18  and  C_30
                            x       y       z     vdW  Elec       q    Type
                         _______ _______ _______ _____ _____    ______ ____

>  <TORSDO>
F 4

$$$$
=
 OpenBabel10262423113D

 34 38  0  0  1  0  0  0  0  0999 V2000
  184.7410  178.4420  141.6100 C   0  0  0  0  0  0  0  0  0  0  0  0
  187.5300  177.8340  143.9400 C   0  0  0  0  0  3  0  0  0  0  0  0
  187.4800  178.2910  141.7300 O   0  0  0  0  0  0  0  0  0  0  0  0
  182.6750  178.6800  140.1900 N   0  0  0  0  0  0  0  0  0  0  0  0
  183.2230  178.4260  141.5300 C   0  0  0  0  0  2  0  0  0  0  0  0
  184.8560  178.5690  139.0880 C   0  0  2  0  0  3  0  0  0  0  0  0
  184.8270  179.9060  138.6800 O   0  0  0  0  0  1  0  0  0  0  0  0
  183.4440  178.0110  139.1410 C   0  0  0  0  0  2  0  0  0  0  0  0
  186.9040  178.4290  140.5430 C   0  0  0  0  0  0  0  0  0  0  0  0
  185.5100  178.4550  140.4350 C   0  0  0  0  0  0  0  0  0  0  0  0
  187.6270  178.5090  139.5130 O   0  0  0  0  0  0  0  0  0  0  0  0
  187.0000  177.3610  145.2520 C   0  0  0  0  0  2  0  0  0  0  0  0
  186.1510  178.3700  145.9380 C   0  0  0  0  0  0  0  0  0  0  0  0
  185.0510  178.8440  145.3570 C   0  0  0  0  0  3  0  0  0  0  0  0
  186.8040  178.1890  142.8710 C   0  0  0  0  0  0  0  0  0  0  0  0
  184.6390  178.6380  143.9580 C   0  0  0  0  0  3  0  0  0  0  0  0
  185.3880  178.3720  142.8660 C   0  0  0  0  0  0  0  0  0  0  0  0
  186.4440  178.7090  147.3430 C   0  0  0  0  0  0  0  0  0  0  0  0
  187.3550  177.9510  148.0710 O   0  0  0  0  0  1  0  0  0  0  0  0
  185.8580  179.6800  147.9010 O   0  0  0  0  0  0  0  0  0  0  0  0
  181.2760  178.2210  140.1080 C   0  0  0  0  0  2  0  0  0  0  0  0
  180.8130  179.3770  136.5210 C   0  0  0  0  0  2  0  0  0  0  0  0
  179.4920  179.4820  138.9280 O   0  0  0  0  0  0  0  0  0  0  0  0
  180.4770  183.0870  137.0140 C   0  0  0  0  0  0  0  0  0  0  0  0
  180.6900  181.9030  136.4090 C   0  0  0  0  0  3  0  0  0  0  0  0
  180.0540  180.6430  136.9200 C   0  0  2  0  0  3  0  0  0  0  0  0
  179.0310  181.8740  138.7780 C   0  0  0  0  0  2  0  0  0  0  0  0
  179.9420  180.7150  138.4290 C   0  0  1  0  0  3  0  0  0  0  0  0
  179.6980  183.1860  138.3220 C   0  0  0  0  0  2  0  0  0  0  0  0
  180.5350  178.5150  138.7790 C   0  0  1  0  0  3  0  0  0  0  0  0
  181.4910  178.7780  137.6770 N   0  0  0  0  0  2  0  0  0  0  0  0
  181.1240  184.2970  136.4740 C   0  0  0  0  0  0  0  0  0  0  0  0
  181.8250  185.0310  137.2210 O   0  0  0  0  0  1  0  0  0  0  0  0
  180.9720  184.6420  135.1350 O   0  0  0  0  0  0  0  0  0  0  0  0
  1 17  1  0  0  0  0
  2 12  1  0  0  0  0
  3 15  1  0  0  0  0
  4  5  1  0  0  0  0
  5  1  1  0  0  0  0
  6  7  1  1  0  0  0
  6  8  1  0  0  0  0
  6 10  1  0  0  0  0
  8  4  1  0  0  0  0
  9  3  1  0  0  0  0
 10  9  1  0  0  0  0
 10  1  2  0  0  0  0
 11  9  2  0  0  0  0
 12 13  1  0  0  0  0
 13 18  1  0  0  0  0
 14 13  2  0  0  0  0
 15  2  2  0  0  0  0
 16 14  1  0  0  0  0
 17 15  1  0  0  0  0
 17 16  2  0  0  0  0
 18 20  2  0  0  0  0
 18 19  1  0  0  0  0
 21  4  1  0  0  0  0
 22 26  1  0  0  0  0
 22 31  1  0  0  0  0
 24 29  1  0  0  0  0
 25 24  2  0  0  0  0
 26 25  1  1  0  0  0
 26 28  1  0  0  0  0
 28 27  1  6  0  0  0
 28 23  1  0  0  0  0
 29 27  1  0  0  0  0
 30 23  1  0  0  0  0
 30 21  1  1  0  0  0
 31 30  1  0  0  0  0
 32 24  1  0  0  0  0
 32 33  1  0  0  0  0
 34 32  2  0  0  0  0
M  END
>  <MODEL>
8

>  <REMARK>
 VINA RESULT:      -8.5      2.774      5.145
  Name = 
  4 active torsions:
  status: ('A' for Active; 'I' for Inactive)
    1  A    between atoms: C_3  and  C_25
    2  A    between atoms: C_7  and  C_11
    3  A    between atoms: N_8  and  C_18
    4  A    between atoms: C_18  and  C_30
                            x       y       z     vdW  Elec       q    Type
                         _______ _______ _______ _____ _____    ______ ____

>  <TORSDO>
F 4

$$$$
=
 OpenBabel10262423113D

 34 38  0  0  1  0  0  0  0  0999 V2000
  187.7700  177.8420  143.2240 C   0  0  0  0  0  0  0  0  0  0  0  0
  191.3820  177.5040  142.5760 C   0  0  0  0  0  3  0  0  0  0  0  0
  190.1720  177.4020  144.4800 O   0  0  0  0  0  0  0  0  0  0  0  0
  185.2940  178.2530  143.4320 N   0  0  0  0  0  0  0  0  0  0  0  0
  186.4590  178.1850  142.5370 C   0  0  0  0  0  2  0  0  0  0  0  0
  186.6350  178.0700  145.4700 C   0  0  2  0  0  3  0  0  0  0  0  0
  186.0760  176.8450  145.8440 O   0  0  0  0  0  1  0  0  0  0  0  0
  185.6130  178.8950  144.7060 C   0  0  0  0  0  2  0  0  0  0  0  0
  189.0870  177.5640  145.2250 C   0  0  0  0  0  0  0  0  0  0  0  0
  187.8550  177.8440  144.6260 C   0  0  0  0  0  0  0  0  0  0  0  0
  189.1850  177.4890  146.4790 O   0  0  0  0  0  0  0  0  0  0  0  0
  191.6800  177.8770  141.1630 C   0  0  0  0  0  2  0  0  0  0  0  0
  191.0350  176.9760  140.1720 C   0  0  0  0  0  0  0  0  0  0  0  0
  189.7120  176.8320  140.1400 C   0  0  0  0  0  3  0  0  0  0  0  0
  190.1720  177.4710  143.1510 C   0  0  0  0  0  0  0  0  0  0  0  0
  188.7520  177.3250  141.1420 C   0  0  0  0  0  3  0  0  0  0  0  0
  188.9310  177.5890  142.4540 C   0  0  0  0  0  0  0  0  0  0  0  0
  191.8640  176.3780  139.1090 C   0  0  0  0  0  0  0  0  0  0  0  0
  191.3710  175.3260  138.3440 O   0  0  0  0  0  0  0  0  0  0  0  0
  193.0350  176.8050  138.8950 O   0  0  0  0  0  1  0  0  0  0  0  0
  184.1940  178.9990  142.7950 C   0  0  0  0  0  2  0  0  0  0  0  0
  183.8520  179.1920  139.0180 C   0  0  0  0  0  2  0  0  0  0  0  0
  182.3880  178.3930  141.2020 O   0  0  0  0  0  0  0  0  0  0  0  0
  180.8050  181.3690  138.6970 C   0  0  0  0  0  0  0  0  0  0  0  0
  181.9450  180.7280  138.3750 C   0  0  0  0  0  3  0  0  0  0  0  0
  182.3470  179.4580  139.0670 C   0  0  2  0  0  3  0  0  0  0  0  0
  180.3710  179.5840  140.5150 C   0  0  0  0  0  2  0  0  0  0  0  0
  181.8840  179.5050  140.5090 C   0  0  1  0  0  3  0  0  0  0  0  0
  179.9400  180.9150  139.8690 C   0  0  0  0  0  2  0  0  0  0  0  0
  183.8010  178.5510  141.3640 C   0  0  1  0  0  3  0  0  0  0  0  0
  184.4680  179.3850  140.3360 N   0  0  0  0  0  2  0  0  0  0  0  0
  180.4540  182.6130  137.9890 C   0  0  0  0  0  0  0  0  0  0  0  0
  179.2490  182.8840  137.7390 O   0  0  0  0  0  1  0  0  0  0  0  0
  181.4450  183.5030  137.5910 O   0  0  0  0  0  0  0  0  0  0  0  0
  1 10  2  0  0  0  0
  2 15  2  0  0  0  0
  3  9  1  0  0  0  0
  4  8  1  0  0  0  0
  5  1  1  0  0  0  0
  5  4  1  0  0  0  0
  6  7  1  6  0  0  0
  8  6  1  0  0  0  0
  9 11  2  0  0  0  0
 10  9  1  0  0  0  0
 10  6  1  0  0  0  0
 12  2  1  0  0  0  0
 13 12  1  0  0  0  0
 14 13  2  0  0  0  0
 14 16  1  0  0  0  0
 15  3  1  0  0  0  0
 16 17  2  0  0  0  0
 17 15  1  0  0  0  0
 17  1  1  0  0  0  0
 18 13  1  0  0  0  0
 19 18  2  0  0  0  0
 20 18  1  0  0  0  0
 21  4  1  0  0  0  0
 22 26  1  0  0  0  0
 22 31  1  0  0  0  0
 23 30  1  0  0  0  0
 24 29  1  0  0  0  0
 25 24  2  0  0  0  0
 26 25  1  1  0  0  0
 26 28  1  0  0  0  0
 28 27  1  6  0  0  0
 28 23  1  0  0  0  0
 29 27  1  0  0  0  0
 30 21  1  1  0  0  0
 31 30  1  0  0  0  0
 32 24  1  0  0  0  0
 33 32  1  0  0  0  0
 34 32  2  0  0  0  0
M  END
>  <MODEL>
9

>  <REMARK>
 VINA RESULT:      -8.3      3.045      3.970
  Name = 
  4 active torsions:
  status: ('A' for Active; 'I' for Inactive)
    1  A    between atoms: C_3  and  C_25
    2  A    between atoms: C_7  and  C_11
    3  A    between atoms: N_8  and  C_18
    4  A    between atoms: C_18  and  C_30
                            x       y       z     vdW  Elec       q    Type
                         _______ _______ _______ _____ _____    ______ ____

>  <TORSDO>
F 4

$$$$
