=
 OpenBabel10262421593D

 30 35  0  0  1  0  0  0  0  0999 V2000
  185.5980  178.4240  141.7030 C   0  0  0  0  0  0  0  0  0  0  0  0
  185.1740  179.0020  144.1590 C   0  0  1  0  0  3  0  0  0  0  0  0
  188.0040  176.4840  143.2940 C   0  0  1  0  0  3  0  0  0  0  0  0
  186.4430  178.3380  140.5750 C   0  0  0  0  0  0  0  0  0  0  0  0
  184.2110  178.2650  141.5320 C   0  0  0  0  0  3  0  0  0  0  0  0
  183.7830  177.8150  137.8640 C   0  0  0  0  0  2  0  0  0  0  0  0
  187.3180  178.9290  137.4310 C   0  0  0  0  0  3  0  0  0  0  0  0
  184.5120  177.9610  139.1550 C   0  0  0  0  0  0  0  0  0  0  0  0
  181.9410  177.9020  139.9400 S   0  0  0  0  0  0  0  0  0  0  0  0
  189.9730  177.4110  140.1210 C   0  0  0  0  0  2  0  0  0  0  0  0
  189.0260  177.2780  142.4780 C   0  0  1  0  0  3  0  0  0  0  0  0
  183.6840  178.0730  140.2610 C   0  0  0  0  0  0  0  0  0  0  0  0
  185.9120  178.0160  139.3030 C   0  0  0  0  0  0  0  0  0  0  0  0
  185.5730  178.9680  145.6340 C   0  0  0  0  0  3  0  0  0  0  0  0
  189.6670  177.4250  138.6280 C   0  0  0  0  0  2  0  0  0  0  0  0
  188.5810  179.3710  137.4640 C   0  0  0  0  0  3  0  0  0  0  0  0
  181.6330  178.8860  137.4300 C   0  0  0  0  0  2  0  0  0  0  0  0
  184.7110  180.4130  143.8370 C   0  0  0  0  0  1  0  0  0  0  0  0
  187.6850  177.3280  144.5060 C   0  0  2  0  0  3  0  0  0  0  0  0
  186.2930  178.0420  146.3130 C   0  0  0  0  0  3  0  0  0  0  0  0
  182.3500  178.0740  138.2010 C   0  0  0  0  0  0  0  0  0  0  0  0
  186.2010  178.5090  143.0920 C   0  0  1  0  0  3  0  0  0  0  0  0
  187.9060  178.6220  140.7350 C   0  0  0  0  0  2  0  0  0  0  0  0
  190.2910  176.7270  142.7060 O   0  0  0  0  0  1  0  0  0  0  0  0
  188.7000  177.3500  140.9750 C   0  0  1  0  0  3  0  0  0  0  0  0
  189.6550  178.7650  138.1410 O   0  0  0  0  0  0  0  0  0  0  0  0
  186.4090  176.3680  137.0860 Cl  0  0  0  0  0  0  0  0  0  0  0  0
  186.9530  176.8260  145.7150 C   0  0  0  0  0  2  0  0  0  0  0  0
  186.6190  177.1030  143.4640 C   0  0  1  0  0  3  0  0  0  0  0  0
  186.8570  177.7190  138.1630 C   0  0  1  0  0  3  0  0  0  0  0  0
  1 22  1  0  0  0  0
  2 18  1  6  0  0  0
  2 14  1  0  0  0  0
  3 29  1  0  0  0  0
  3 19  1  0  0  0  0
  4 23  1  0  0  0  0
  4  1  2  0  0  0  0
  5  1  1  0  0  0  0
  6 21  1  0  0  0  0
  6  8  1  0  0  0  0
  7 16  2  0  0  0  0
  7 30  1  0  0  0  0
  8 13  2  0  0  0  0
  8 12  1  0  0  0  0
  9 12  1  0  0  0  0
 10 25  1  0  0  0  0
 11 24  1  0  0  0  0
 11  3  1  0  0  0  0
 12  5  2  0  0  0  0
 13  4  1  0  0  0  0
 14 20  2  0  0  0  0
 15 10  1  0  0  0  0
 16 26  1  0  0  0  0
 17 21  2  0  0  0  0
 19 28  1  0  0  0  0
 21  9  1  0  0  0  0
 22 29  1  0  0  0  0
 22  2  1  0  0  0  0
 23 25  1  0  0  0  0
 25 11  1  0  0  0  0
 26 15  1  0  0  0  0
 27 30  1  0  0  0  0
 28 20  1  0  0  0  0
 29 19  1  0  0  0  0
 30 13  1  0  0  0  0
M  END
>  <MODEL>
1

>  <REMARK>
 VINA RESULT:      -8.4      0.000      0.000
  Name = 
  0 active torsions:
  status: ('A' for Active; 'I' for Inactive)
                            x       y       z     vdW  Elec       q    Type
                         _______ _______ _______ _____ _____    ______ ____

>  <TORSDO>
F 0

$$$$
=
 OpenBabel10262421593D

 30 35  0  0  1  0  0  0  0  0999 V2000
  186.3610  177.8770  142.2700 C   0  0  0  0  0  0  0  0  0  0  0  0
  187.8210  177.1070  144.2240 C   0  0  1  0  0  3  0  0  0  0  0  0
  184.9250  179.6010  144.9250 C   0  0  1  0  0  3  0  0  0  0  0  0
  185.1060  178.0330  141.6430 C   0  0  0  0  0  0  0  0  0  0  0  0
  187.5310  178.0930  141.5200 C   0  0  0  0  0  3  0  0  0  0  0  0
  186.2990  178.8650  138.0950 C   0  0  0  0  0  2  0  0  0  0  0  0
  182.9250  177.6830  139.1680 C   0  0  0  0  0  3  0  0  0  0  0  0
  186.2140  178.5870  139.5570 C   0  0  0  0  0  0  0  0  0  0  0  0
  188.8680  178.6580  139.1290 S   0  0  0  0  0  0  0  0  0  0  0  0
  181.7480  178.8860  142.8760 C   0  0  0  0  0  2  0  0  0  0  0  0
  183.6400  178.8480  144.5760 C   0  0  1  0  0  3  0  0  0  0  0  0
  187.4440  178.4080  140.1690 C   0  0  0  0  0  0  0  0  0  0  0  0
  185.0230  178.4770  140.3010 C   0  0  0  0  0  0  0  0  0  0  0  0
  188.1150  177.0040  145.7200 C   0  0  0  0  0  3  0  0  0  0  0  0
  181.3620  179.0080  141.4070 C   0  0  0  0  0  2  0  0  0  0  0  0
  181.8030  177.2020  139.7150 C   0  0  0  0  0  3  0  0  0  0  0  0
  188.0250  177.9000  136.6640 C   0  0  0  0  0  2  0  0  0  0  0  0
  188.0800  175.7430  143.6070 C   0  0  0  0  0  1  0  0  0  0  0  0
  185.7380  178.6680  145.7910 C   0  0  2  0  0  3  0  0  0  0  0  0
  187.7780  177.8470  146.7270 C   0  0  0  0  0  3  0  0  0  0  0  0
  187.7300  178.6220  137.7410 C   0  0  0  0  0  0  0  0  0  0  0  0
  186.4330  177.6570  143.7690 C   0  0  1  0  0  3  0  0  0  0  0  0
  183.8620  177.6920  142.4050 C   0  0  0  0  0  2  0  0  0  0  0  0
  182.6120  179.3390  145.3860 O   0  0  0  0  0  1  0  0  0  0  0  0
  183.2670  178.9130  143.0840 C   0  0  1  0  0  3  0  0  0  0  0  0
  181.1450  177.7150  140.8470 O   0  0  0  0  0  0  0  0  0  0  0  0
  183.6130  180.2910  138.6880 Cl  0  0  0  0  0  0  0  0  0  0  0  0
  186.9350  179.0880  146.5930 C   0  0  0  0  0  2  0  0  0  0  0  0
  186.2360  179.0130  144.4100 C   0  0  1  0  0  3  0  0  0  0  0  0
  183.6750  178.8410  139.7270 C   0  0  1  0  0  3  0  0  0  0  0  0
  1 22  1  0  0  0  0
  2 18  1  1  0  0  0
  2 14  1  0  0  0  0
  3 19  1  0  0  0  0
  4  1  1  0  0  0  0
  4 23  1  0  0  0  0
  5  1  2  0  0  0  0
  6  8  1  0  0  0  0
  7 16  2  0  0  0  0
  7 30  1  0  0  0  0
  8 12  2  0  0  0  0
  8 13  1  0  0  0  0
  9 12  1  0  0  0  0
 10 25  1  0  0  0  0
 11  3  1  0  0  0  0
 11 24  1  0  0  0  0
 12  5  1  0  0  0  0
 13  4  2  0  0  0  0
 14 20  2  0  0  0  0
 15 10  1  0  0  0  0
 16 26  1  0  0  0  0
 17 21  2  0  0  0  0
 19 28  1  0  0  0  0
 21  6  1  0  0  0  0
 21  9  1  0  0  0  0
 22  2  1  0  0  0  0
 22 29  1  0  0  0  0
 23 25  1  0  0  0  0
 25 11  1  0  0  0  0
 26 15  1  0  0  0  0
 27 30  1  0  0  0  0
 28 20  1  0  0  0  0
 29  3  1  0  0  0  0
 29 19  1  0  0  0  0
 30 13  1  0  0  0  0
M  END
>  <MODEL>
2

>  <REMARK>
 VINA RESULT:      -6.8      3.034      5.109
  Name = 
  0 active torsions:
  status: ('A' for Active; 'I' for Inactive)
                            x       y       z     vdW  Elec       q    Type
                         _______ _______ _______ _____ _____    ______ ____

>  <TORSDO>
F 0

$$$$
=
 OpenBabel10262421593D

 30 35  0  0  1  0  0  0  0  0999 V2000
  183.3310  177.5770  139.7240 C   0  0  0  0  0  0  0  0  0  0  0  0
  181.9040  178.6870  141.5340 C   0  0  1  0  0  3  0  0  0  0  0  0
  185.6650  178.0280  142.2610 C   0  0  1  0  0  3  0  0  0  0  0  0
  184.4490  177.5570  138.8610 C   0  0  0  0  0  0  0  0  0  0  0  0
  182.3040  176.6340  139.5350 C   0  0  0  0  0  3  0  0  0  0  0  0
  183.3690  174.7030  136.5390 C   0  0  0  0  0  2  0  0  0  0  0  0
  185.9610  177.3160  135.9190 C   0  0  0  0  0  3  0  0  0  0  0  0
  183.4820  175.6900  137.6490 C   0  0  0  0  0  0  0  0  0  0  0  0
  181.1060  174.5280  138.1390 S   0  0  0  0  0  0  0  0  0  0  0  0
  187.9480  178.6280  139.2230 C   0  0  0  0  0  2  0  0  0  0  0  0
  186.4350  178.8820  141.2520 C   0  0  1  0  0  3  0  0  0  0  0  0
  182.3750  175.7300  138.4820 C   0  0  0  0  0  0  0  0  0  0  0  0
  184.5730  176.5530  137.8700 C   0  0  0  0  0  0  0  0  0  0  0  0
  181.7600  179.4260  142.8640 C   0  0  0  0  0  3  0  0  0  0  0  0
  188.1840  177.9170  137.8960 C   0  0  0  0  0  2  0  0  0  0  0  0
  186.8050  178.3510  135.8390 C   0  0  0  0  0  3  0  0  0  0  0  0
  181.2500  174.1680  135.4530 C   0  0  0  0  0  2  0  0  0  0  0  0
  181.0010  179.3730  140.5230 C   0  0  0  0  0  1  0  0  0  0  0  0
  184.6210  178.9350  142.8710 C   0  0  2  0  0  3  0  0  0  0  0  0
  182.5450  179.3780  143.9680 C   0  0  0  0  0  3  0  0  0  0  0  0
  181.9500  174.2370  136.5820 C   0  0  0  0  0  0  0  0  0  0  0  0
  183.3330  178.4850  140.9390 C   0  0  1  0  0  3  0  0  0  0  0  0
  185.4860  178.6300  138.9860 C   0  0  0  0  0  2  0  0  0  0  0  0
  187.6550  179.2460  141.8280 O   0  0  0  0  0  1  0  0  0  0  0  0
  186.6320  178.2010  139.8850 C   0  0  1  0  0  3  0  0  0  0  0  0
  187.7420  178.7350  136.8150 O   0  0  0  0  0  0  0  0  0  0  0  0
  186.4560  174.7680  136.7990 Cl  0  0  0  0  0  0  0  0  0  0  0  0
  183.8320  178.6060  144.1030 C   0  0  0  0  0  2  0  0  0  0  0  0
  184.1810  177.7970  141.9860 C   0  0  1  0  0  3  0  0  0  0  0  0
  185.8710  176.4260  137.1090 C   0  0  1  0  0  3  0  0  0  0  0  0
  1 22  1  0  0  0  0
  2 18  1  6  0  0  0
  2 14  1  0  0  0  0
  3 19  1  0  0  0  0
  4 23  1  0  0  0  0
  4  1  2  0  0  0  0
  5  1  1  0  0  0  0
  6 21  1  0  0  0  0
  6  8  1  0  0  0  0
  7 30  1  0  0  0  0
  8 13  2  0  0  0  0
  8 12  1  0  0  0  0
  9 12  1  0  0  0  0
 10 25  1  0  0  0  0
 11 24  1  0  0  0  0
 11  3  1  0  0  0  0
 12  5  2  0  0  0  0
 13  4  1  0  0  0  0
 14 20  2  0  0  0  0
 15 10  1  0  0  0  0
 16  7  2  0  0  0  0
 16 26  1  0  0  0  0
 17 21  2  0  0  0  0
 19 28  1  0  0  0  0
 20 28  1  0  0  0  0
 21  9  1  0  0  0  0
 22  2  1  0  0  0  0
 22 29  1  0  0  0  0
 23 25  1  0  0  0  0
 25 11  1  0  0  0  0
 26 15  1  0  0  0  0
 27 30  1  0  0  0  0
 29  3  1  0  0  0  0
 29 19  1  0  0  0  0
 30 13  1  0  0  0  0
M  END
>  <MODEL>
3

>  <REMARK>
 VINA RESULT:      -6.4      2.319      3.394
  Name = 
  0 active torsions:
  status: ('A' for Active; 'I' for Inactive)
                            x       y       z     vdW  Elec       q    Type
                         _______ _______ _______ _____ _____    ______ ____

>  <TORSDO>
F 0

$$$$
=
 OpenBabel10262421593D

 30 35  0  0  1  0  0  0  0  0999 V2000
  181.6520  176.3100  138.1410 C   0  0  0  0  0  0  0  0  0  0  0  0
  179.6350  177.5980  139.0440 C   0  0  1  0  0  3  0  0  0  0  0  0
  183.1250  178.2390  140.6300 C   0  0  1  0  0  3  0  0  0  0  0  0
  182.9450  176.2650  137.5750 C   0  0  0  0  0  0  0  0  0  0  0  0
  180.8820  175.1340  138.1820 C   0  0  0  0  0  3  0  0  0  0  0  0
  183.0040  172.5850  136.4950 C   0  0  0  0  0  2  0  0  0  0  0  0
  185.2000  175.3630  135.3150 C   0  0  0  0  0  3  0  0  0  0  0  0
  182.6540  173.9040  137.0960 C   0  0  0  0  0  0  0  0  0  0  0  0
  180.4590  172.4330  137.5970 S   0  0  0  0  0  0  0  0  0  0  0  0
  185.9990  178.2530  138.0710 C   0  0  0  0  0  2  0  0  0  0  0  0
  183.9830  178.8320  139.5100 C   0  0  1  0  0  3  0  0  0  0  0  0
  181.3760  173.9590  137.6290 C   0  0  0  0  0  0  0  0  0  0  0  0
  183.4900  175.0360  137.1280 C   0  0  0  0  0  0  0  0  0  0  0  0
  179.0250  178.7080  139.9000 C   0  0  0  0  0  3  0  0  0  0  0  0
  186.6910  177.1930  137.2230 C   0  0  0  0  0  2  0  0  0  0  0  0
  185.8520  176.4770  134.9630 C   0  0  0  0  0  3  0  0  0  0  0  0
  181.3640  171.1680  135.3740 C   0  0  0  0  0  2  0  0  0  0  0  0
  178.9310  177.6110  137.6980 C   0  0  0  0  0  1  0  0  0  0  0  0
  181.8230  179.0060  140.6140 C   0  0  2  0  0  3  0  0  0  0  0  0
  179.4870  179.2690  141.0450 C   0  0  0  0  0  3  0  0  0  0  0  0
  181.7200  171.8210  136.4760 C   0  0  0  0  0  0  0  0  0  0  0  0
  181.1830  177.5670  138.8490 C   0  0  1  0  0  3  0  0  0  0  0  0
  183.7220  177.5370  137.4240 C   0  0  0  0  0  2  0  0  0  0  0  0
  184.9310  179.6820  140.0890 O   0  0  0  0  0  1  0  0  0  0  0  0
  184.6430  177.7750  138.6070 C   0  0  1  0  0  3  0  0  0  0  0  0
  186.4220  177.4180  135.8410 O   0  0  0  0  0  0  0  0  0  0  0  0
  185.8570  173.5310  137.2440 Cl  0  0  0  0  0  0  0  0  0  0  0  0
  180.8020  178.9580  141.7120 C   0  0  0  0  0  2  0  0  0  0  0  0
  181.8260  177.5510  140.2190 C   0  0  1  0  0  3  0  0  0  0  0  0
  184.9460  174.9780  136.7300 C   0  0  1  0  0  3  0  0  0  0  0  0
  1  5  1  0  0  0  0
  1 22  1  0  0  0  0
  2 18  1  6  0  0  0
  2 14  1  0  0  0  0
  4  1  2  0  0  0  0
  6  8  1  0  0  0  0
  7 30  1  0  0  0  0
  8 13  2  0  0  0  0
  8 12  1  0  0  0  0
  9 12  1  0  0  0  0
 10 25  1  0  0  0  0
 11 24  1  0  0  0  0
 11  3  1  0  0  0  0
 12  5  2  0  0  0  0
 13  4  1  0  0  0  0
 14 20  2  0  0  0  0
 15 10  1  0  0  0  0
 16  7  2  0  0  0  0
 16 26  1  0  0  0  0
 17 21  2  0  0  0  0
 19  3  1  0  0  0  0
 19 28  1  0  0  0  0
 20 28  1  0  0  0  0
 21  6  1  0  0  0  0
 21  9  1  0  0  0  0
 22  2  1  0  0  0  0
 22 29  1  0  0  0  0
 23  4  1  0  0  0  0
 23 25  1  0  0  0  0
 25 11  1  0  0  0  0
 26 15  1  0  0  0  0
 29 19  1  0  0  0  0
 29  3  1  0  0  0  0
 30 13  1  0  0  0  0
 30 27  1  0  0  0  0
M  END
>  <MODEL>
4

>  <REMARK>
 VINA RESULT:      -6.1      4.042      6.044
  Name = 
  0 active torsions:
  status: ('A' for Active; 'I' for Inactive)
                            x       y       z     vdW  Elec       q    Type
                         _______ _______ _______ _____ _____    ______ ____

>  <TORSDO>
F 0

$$$$
=
 OpenBabel10262421593D

 30 35  0  0  1  0  0  0  0  0999 V2000
  187.3820  178.1920  139.5610 C   0  0  0  0  0  0  0  0  0  0  0  0
  187.8230  178.4580  137.0560 C   0  0  1  0  0  3  0  0  0  0  0  0
  184.5420  176.7180  138.2020 C   0  0  1  0  0  3  0  0  0  0  0  0
  186.5860  178.3900  140.7100 C   0  0  0  0  0  0  0  0  0  0  0  0
  188.7050  177.7410  139.7160 C   0  0  0  0  0  3  0  0  0  0  0  0
  189.1730  177.5070  143.4000 C   0  0  0  0  0  2  0  0  0  0  0  0
  185.9940  179.4190  143.8080 C   0  0  0  0  0  3  0  0  0  0  0  0
  188.4420  177.7070  142.1160 C   0  0  0  0  0  0  0  0  0  0  0  0
  190.9020  177.0090  141.2840 S   0  0  0  0  0  0  0  0  0  0  0  0
  182.9600  178.3200  141.3220 C   0  0  0  0  0  2  0  0  0  0  0  0
  183.7560  177.7860  138.9660 C   0  0  1  0  0  3  0  0  0  0  0  0
  189.2280  177.5390  140.9880 C   0  0  0  0  0  0  0  0  0  0  0  0
  187.0850  178.0630  141.9950 C   0  0  0  0  0  0  0  0  0  0  0  0
  187.3660  178.3930  135.5980 C   0  0  0  0  0  3  0  0  0  0  0  0
  183.3230  178.3870  142.8010 C   0  0  0  0  0  2  0  0  0  0  0  0
  184.8600  180.1280  143.7630 C   0  0  0  0  0  3  0  0  0  0  0  0
  191.5220  178.1000  143.6890 C   0  0  0  0  0  2  0  0  0  0  0  0
  188.6000  179.7500  137.2400 C   0  0  0  0  0  1  0  0  0  0  0  0
  184.9900  177.3670  136.9130 C   0  0  2  0  0  3  0  0  0  0  0  0
  186.4310  177.6000  135.0200 C   0  0  0  0  0  3  0  0  0  0  0  0
  190.6120  177.4100  143.0090 C   0  0  0  0  0  0  0  0  0  0  0  0
  186.7560  178.2970  138.1830 C   0  0  1  0  0  3  0  0  0  0  0  0
  185.2170  178.9810  140.5580 C   0  0  0  0  0  2  0  0  0  0  0  0
  182.3930  177.5160  138.8160 O   0  0  0  0  0  1  0  0  0  0  0  0
  184.1510  177.9060  140.4490 C   0  0  1  0  0  3  0  0  0  0  0  0
  183.6510  179.7250  143.1660 O   0  0  0  0  0  0  0  0  0  0  0  0
  186.3250  176.7550  144.3600 Cl  0  0  0  0  0  0  0  0  0  0  0  0
  185.5430  176.6170  135.7380 C   0  0  0  0  0  2  0  0  0  0  0  0
  186.0220  176.9950  137.9480 C   0  0  1  0  0  3  0  0  0  0  0  0
  186.1440  178.0790  143.1760 C   0  0  1  0  0  3  0  0  0  0  0  0
  1  5  2  0  0  0  0
  1  4  1  0  0  0  0
  2 18  1  1  0  0  0
  2 22  1  0  0  0  0
  3 11  1  0  0  0  0
  4 13  2  0  0  0  0
  5 12  1  0  0  0  0
  8  6  1  0  0  0  0
  9 21  1  0  0  0  0
 10 15  1  0  0  0  0
 11 25  1  0  0  0  0
 12  9  1  0  0  0  0
 12  8  2  0  0  0  0
 13  8  1  0  0  0  0
 13 30  1  0  0  0  0
 14  2  1  0  0  0  0
 15 26  1  0  0  0  0
 16  7  2  0  0  0  0
 19 29  1  0  0  0  0
 19  3  1  0  0  0  0
 20 14  2  0  0  0  0
 20 28  1  0  0  0  0
 21  6  1  0  0  0  0
 21 17  2  0  0  0  0
 22  1  1  0  0  0  0
 23  4  1  0  0  0  0
 24 11  1  0  0  0  0
 25 23  1  0  0  0  0
 25 10  1  0  0  0  0
 26 16  1  0  0  0  0
 28 19  1  0  0  0  0
 29 22  1  0  0  0  0
 29  3  1  0  0  0  0
 30  7  1  0  0  0  0
 30 27  1  0  0  0  0
M  END
>  <MODEL>
5

>  <REMARK>
 VINA RESULT:      -5.9      3.155      7.238
  Name = 
  0 active torsions:
  status: ('A' for Active; 'I' for Inactive)
                            x       y       z     vdW  Elec       q    Type
                         _______ _______ _______ _____ _____    ______ ____

>  <TORSDO>
F 0

$$$$
=
 OpenBabel10262421593D

 30 35  0  0  1  0  0  0  0  0999 V2000
  183.2780  175.3100  137.0140 C   0  0  0  0  0  0  0  0  0  0  0  0
  180.8290  175.8880  137.4710 C   0  0  1  0  0  3  0  0  0  0  0  0
  183.5870  177.6340  139.5800 C   0  0  1  0  0  3  0  0  0  0  0  0
  184.6000  175.6780  136.6810 C   0  0  0  0  0  0  0  0  0  0  0  0
  182.9240  173.9480  137.0030 C   0  0  0  0  0  3  0  0  0  0  0  0
  186.0120  172.2030  135.8780 C   0  0  0  0  0  2  0  0  0  0  0  0
  187.3970  175.5290  134.9040 C   0  0  0  0  0  3  0  0  0  0  0  0
  185.1610  173.3440  136.3210 C   0  0  0  0  0  0  0  0  0  0  0  0
  183.4880  171.2490  136.5390 S   0  0  0  0  0  0  0  0  0  0  0  0
  186.7270  178.5480  137.5540 C   0  0  0  0  0  2  0  0  0  0  0  0
  184.4040  178.4610  138.5850 C   0  0  1  0  0  3  0  0  0  0  0  0
  183.8550  172.9900  136.6230 C   0  0  0  0  0  0  0  0  0  0  0  0
  185.5770  174.6860  136.4180 C   0  0  0  0  0  0  0  0  0  0  0  0
  179.7550  176.7500  138.1340 C   0  0  0  0  0  3  0  0  0  0  0  0
  187.8610  177.7600  136.9090 C   0  0  0  0  0  2  0  0  0  0  0  0
  187.7190  176.7900  134.5940 C   0  0  0  0  0  3  0  0  0  0  0  0
  185.1370  170.3220  134.5940 C   0  0  0  0  0  2  0  0  0  0  0  0
  180.4150  175.6600  136.0270 C   0  0  0  0  0  1  0  0  0  0  0  0
  182.1360  177.9400  139.2920 C   0  0  2  0  0  3  0  0  0  0  0  0
  179.7980  177.4410  139.2990 C   0  0  0  0  0  3  0  0  0  0  0  0
  185.0610  171.0650  135.6930 C   0  0  0  0  0  0  0  0  0  0  0  0
  182.3160  176.3550  137.5450 C   0  0  1  0  0  3  0  0  0  0  0  0
  184.9500  177.1310  136.5780 C   0  0  0  0  0  2  0  0  0  0  0  0
  184.9130  179.5760  139.2580 O   0  0  0  0  0  1  0  0  0  0  0  0
  185.5170  177.6640  137.8820 C   0  0  1  0  0  3  0  0  0  0  0  0
  187.7920  177.8730  135.4890 O   0  0  0  0  0  0  0  0  0  0  0  0
  188.2340  174.0250  137.0360 Cl  0  0  0  0  0  0  0  0  0  0  0  0
  180.9990  177.5760  140.2000 C   0  0  0  0  0  2  0  0  0  0  0  0
  182.6690  176.5600  139.0020 C   0  0  1  0  0  3  0  0  0  0  0  0
  187.0230  175.0960  136.2780 C   0  0  1  0  0  3  0  0  0  0  0  0
  1 22  1  0  0  0  0
  2 18  1  6  0  0  0
  2 22  1  0  0  0  0
  2 14  1  0  0  0  0
  4  1  2  0  0  0  0
  5  1  1  0  0  0  0
  6  8  1  0  0  0  0
  7 30  1  0  0  0  0
  8 13  2  0  0  0  0
  8 12  1  0  0  0  0
  9 12  1  0  0  0  0
 10 25  1  0  0  0  0
 11 24  1  0  0  0  0
 11  3  1  0  0  0  0
 12  5  2  0  0  0  0
 13  4  1  0  0  0  0
 14 20  2  0  0  0  0
 15 10  1  0  0  0  0
 16  7  2  0  0  0  0
 16 26  1  0  0  0  0
 17 21  2  0  0  0  0
 19  3  1  0  0  0  0
 19 28  1  0  0  0  0
 20 28  1  0  0  0  0
 21  6  1  0  0  0  0
 21  9  1  0  0  0  0
 22 29  1  0  0  0  0
 23  4  1  0  0  0  0
 23 25  1  0  0  0  0
 25 11  1  0  0  0  0
 26 15  1  0  0  0  0
 29 19  1  0  0  0  0
 29  3  1  0  0  0  0
 30 13  1  0  0  0  0
 30 27  1  0  0  0  0
M  END
>  <MODEL>
6

>  <REMARK>
 VINA RESULT:      -5.6      4.334      6.528
  Name = 
  0 active torsions:
  status: ('A' for Active; 'I' for Inactive)
                            x       y       z     vdW  Elec       q    Type
                         _______ _______ _______ _____ _____    ______ ____

>  <TORSDO>
F 0

$$$$
=
 OpenBabel10262421593D

 30 35  0  0  1  0  0  0  0  0999 V2000
  184.2230  177.4250  137.7960 C   0  0  0  0  0  0  0  0  0  0  0  0
  183.0380  179.3920  138.9230 C   0  0  1  0  0  3  0  0  0  0  0  0
  181.4590  177.8410  135.7290 C   0  0  1  0  0  3  0  0  0  0  0  0
  184.2410  176.1000  137.3080 C   0  0  0  0  0  0  0  0  0  0  0  0
  185.4360  178.1280  137.9130 C   0  0  0  0  0  3  0  0  0  0  0  0
  188.0250  175.6740  136.8550 C   0  0  0  0  0  2  0  0  0  0  0  0
  185.4200  173.0090  137.0650 C   0  0  0  0  0  3  0  0  0  0  0  0
  186.6550  176.2120  137.0890 C   0  0  0  0  0  0  0  0  0  0  0  0
  188.2220  178.2960  137.7480 S   0  0  0  0  0  0  0  0  0  0  0  0
  181.7690  174.0100  135.5640 C   0  0  0  0  0  2  0  0  0  0  0  0
  181.0980  176.4020  136.1050 C   0  0  1  0  0  3  0  0  0  0  0  0
  186.6350  177.5030  137.5940 C   0  0  0  0  0  0  0  0  0  0  0  0
  185.4530  175.5140  136.8660 C   0  0  0  0  0  0  0  0  0  0  0  0
  181.8290  180.3120  139.0930 C   0  0  0  0  0  3  0  0  0  0  0  0
  182.9160  173.0290  135.3500 C   0  0  0  0  0  2  0  0  0  0  0  0
  184.3740  172.1900  137.2180 C   0  0  0  0  0  3  0  0  0  0  0  0
  189.9320  176.2540  138.2620 C   0  0  0  0  0  2  0  0  0  0  0  0
  183.5210  179.0010  140.3100 C   0  0  0  0  0  1  0  0  0  0  0  0
  180.9300  178.7130  136.8430 C   0  0  2  0  0  3  0  0  0  0  0  0
  180.8980  180.6920  138.1840 C   0  0  0  0  0  3  0  0  0  0  0  0
  188.9420  176.6740  137.4810 C   0  0  0  0  0  0  0  0  0  0  0  0
  182.8970  178.1280  138.0190 C   0  0  1  0  0  3  0  0  0  0  0  0
  182.9680  175.3100  137.2920 C   0  0  0  0  0  2  0  0  0  0  0  0
  179.9880  176.0180  135.3480 O   0  0  0  0  0  1  0  0  0  0  0  0
  182.2640  175.4090  135.9500 C   0  0  1  0  0  3  0  0  0  0  0  0
  183.1450  172.2750  136.5380 O   0  0  0  0  0  0  0  0  0  0  0  0
  186.4940  173.9980  134.7460 Cl  0  0  0  0  0  0  0  0  0  0  0  0
  180.8050  180.2060  136.7610 C   0  0  0  0  0  2  0  0  0  0  0  0
  182.4200  178.5810  136.6560 C   0  0  1  0  0  3  0  0  0  0  0  0
  185.4100  174.1850  136.1520 C   0  0  1  0  0  3  0  0  0  0  0  0
  1  5  1  0  0  0  0
  1 22  1  0  0  0  0
  2 14  1  0  0  0  0
  2 18  1  1  0  0  0
  3 11  1  0  0  0  0
  3 29  1  0  0  0  0
  3 19  1  0  0  0  0
  4  1  2  0  0  0  0
  6  8  1  0  0  0  0
  6 21  1  0  0  0  0
  7 16  2  0  0  0  0
  8 12  1  0  0  0  0
 10 25  1  0  0  0  0
 12  9  1  0  0  0  0
 12  5  2  0  0  0  0
 13  8  2  0  0  0  0
 13  4  1  0  0  0  0
 15 10  1  0  0  0  0
 15 26  1  0  0  0  0
 20 14  2  0  0  0  0
 21  9  1  0  0  0  0
 21 17  2  0  0  0  0
 22  2  1  0  0  0  0
 23  4  1  0  0  0  0
 24 11  1  0  0  0  0
 25 11  1  0  0  0  0
 25 23  1  0  0  0  0
 26 16  1  0  0  0  0
 27 30  1  0  0  0  0
 28 19  1  0  0  0  0
 28 20  1  0  0  0  0
 29 19  1  0  0  0  0
 29 22  1  0  0  0  0
 30 13  1  0  0  0  0
 30  7  1  0  0  0  0
M  END
>  <MODEL>
7

>  <REMARK>
 VINA RESULT:      -5.5      4.458      7.564
  Name = 
  0 active torsions:
  status: ('A' for Active; 'I' for Inactive)
                            x       y       z     vdW  Elec       q    Type
                         _______ _______ _______ _____ _____    ______ ____

>  <TORSDO>
F 0

$$$$
=
 OpenBabel10262421593D

 30 35  0  0  1  0  0  0  0  0999 V2000
  183.8270  175.7330  137.5560 C   0  0  0  0  0  0  0  0  0  0  0  0
  186.0800  176.2990  136.4830 C   0  0  1  0  0  3  0  0  0  0  0  0
  185.2850  172.5870  137.3120 C   0  0  1  0  0  3  0  0  0  0  0  0
  182.6010  175.0340  137.5740 C   0  0  0  0  0  0  0  0  0  0  0  0
  184.0190  176.8020  138.4510 C   0  0  0  0  0  3  0  0  0  0  0  0
  180.7860  177.0660  140.2720 C   0  0  0  0  0  2  0  0  0  0  0  0
  179.2970  174.7770  137.7280 C   0  0  0  0  0  3  0  0  0  0  0  0
  181.7970  176.4870  139.3440 C   0  0  0  0  0  0  0  0  0  0  0  0
  183.1270  178.5510  140.4420 S   0  0  0  0  0  0  0  0  0  0  0  0
  181.6220  171.6120  136.6490 C   0  0  0  0  0  2  0  0  0  0  0  0
  184.0830  172.2180  136.4380 C   0  0  1  0  0  3  0  0  0  0  0  0
  182.9930  177.1870  139.3050 C   0  0  0  0  0  0  0  0  0  0  0  0
  181.6080  175.3510  138.5330 C   0  0  0  0  0  0  0  0  0  0  0  0
  187.3850  175.8850  135.8040 C   0  0  0  0  0  3  0  0  0  0  0  0
  180.2850  171.9390  137.3030 C   0  0  0  0  0  2  0  0  0  0  0  0
  178.9310  173.9760  136.7210 C   0  0  0  0  0  3  0  0  0  0  0  0
  180.5830  179.4640  140.6770 C   0  0  0  0  0  2  0  0  0  0  0  0
  185.5160  177.4840  135.7170 C   0  0  0  0  0  1  0  0  0  0  0  0
  186.2760  173.2680  136.3980 C   0  0  2  0  0  3  0  0  0  0  0  0
  188.1010  174.7410  135.9340 C   0  0  0  0  0  3  0  0  0  0  0  0
  181.3570  178.3830  140.6870 C   0  0  0  0  0  0  0  0  0  0  0  0
  184.9750  175.2200  136.7080 C   0  0  1  0  0  3  0  0  0  0  0  0
  182.3500  173.9730  136.5460 C   0  0  0  0  0  2  0  0  0  0  0  0
  184.1570  170.8530  136.1470 O   0  0  0  0  0  1  0  0  0  0  0  0
  182.7260  172.5950  137.0590 C   0  0  1  0  0  3  0  0  0  0  0  0
  179.4830  172.7180  136.4180 O   0  0  0  0  0  0  0  0  0  0  0  0
  179.8410  174.1160  140.3310 Cl  0  0  0  0  0  0  0  0  0  0  0  0
  187.7070  173.5420  136.7570 C   0  0  0  0  0  2  0  0  0  0  0  0
  185.5950  174.0730  137.4760 C   0  0  1  0  0  3  0  0  0  0  0  0
  180.4030  174.4520  138.6700 C   0  0  1  0  0  3  0  0  0  0  0  0
  1  4  2  0  0  0  0
  1  5  1  0  0  0  0
  2 18  1  6  0  0  0
  2 22  1  0  0  0  0
  3 29  1  0  0  0  0
  4 13  1  0  0  0  0
  5 12  2  0  0  0  0
  6 21  1  0  0  0  0
  7 30  1  0  0  0  0
  8  6  1  0  0  0  0
  9 21  1  0  0  0  0
 10 25  1  0  0  0  0
 10 15  1  0  0  0  0
 11 25  1  0  0  0  0
 11  3  1  0  0  0  0
 12  8  1  0  0  0  0
 12  9  1  0  0  0  0
 13 30  1  0  0  0  0
 13  8  2  0  0  0  0
 14 20  2  0  0  0  0
 14  2  1  0  0  0  0
 16  7  2  0  0  0  0
 17 21  2  0  0  0  0
 19 28  1  0  0  0  0
 19  3  1  0  0  0  0
 19 29  1  0  0  0  0
 20 28  1  0  0  0  0
 22 29  1  0  0  0  0
 22  1  1  0  0  0  0
 23 25  1  0  0  0  0
 23  4  1  0  0  0  0
 24 11  1  0  0  0  0
 26 16  1  0  0  0  0
 26 15  1  0  0  0  0
 30 27  1  0  0  0  0
M  END
>  <MODEL>
8

>  <REMARK>
 VINA RESULT:      -5.5      5.319      7.947
  Name = 
  0 active torsions:
  status: ('A' for Active; 'I' for Inactive)
                            x       y       z     vdW  Elec       q    Type
                         _______ _______ _______ _____ _____    ______ ____

>  <TORSDO>
F 0

$$$$
