=
 OpenBabel10262419483D

 25 28  0  0  1  0  0  0  0  0999 V2000
  187.3220  177.8480  145.8390 C   0  0  0  0  0  0  0  0  0  0  0  0
  188.6550  177.5150  145.5880 C   0  0  0  0  0  0  0  0  0  0  0  0
  187.7200  178.0760  148.2090 C   0  0  0  0  0  3  0  0  0  0  0  0
  186.2170  178.2680  144.9420 C   0  0  2  0  0  3  0  0  0  0  0  0
  183.6420  178.7750  143.8980 C   0  0  0  0  0  2  0  0  0  0  0  0
  189.0520  177.6780  148.0000 C   0  0  0  0  0  3  0  0  0  0  0  0
  185.0300  178.2540  145.7940 N   0  0  2  0  0  0  0  0  0  0  0  0
  184.1390  179.2740  145.2700 C   0  0  0  0  0  2  0  0  0  0  0  0
  190.9350  177.0130  146.4760 C   0  0  0  0  0  0  0  0  0  0  0  0
  191.7330  176.9080  147.4450 O   0  0  0  0  0  0  0  0  0  0  0  0
  189.1340  177.2360  144.1900 C   0  0  0  0  0  2  0  0  0  0  0  0
  184.8110  178.3720  142.9610 C   0  0  0  0  0  2  0  0  0  0  0  0
  186.8850  178.1540  147.0980 C   0  0  0  0  0  0  0  0  0  0  0  0
  185.5280  178.5650  147.0720 N   0  0  0  0  0  2  0  0  0  0  0  0
  191.4170  176.7070  145.0900 C   0  0  0  0  0  2  0  0  0  0  0  0
  185.8940  177.5300  143.6630 C   0  0  0  0  0  2  0  0  0  0  0  0
  190.6310  177.5140  144.0540 C   0  0  1  0  0  3  0  0  0  0  0  0
  189.5250  177.3880  146.6980 C   0  0  0  0  0  0  0  0  0  0  0  0
  191.0830  177.1540  142.6510 C   0  0  0  0  0  2  0  0  0  0  0  0
  189.8920  176.7470  141.7990 C   0  0  0  0  0  2  0  0  0  0  0  0
  188.8900  178.3180  140.1100 C   0  0  0  0  0  0  0  0  0  0  0  0
  188.9330  178.8880  138.9880 O   0  0  0  0  0  0  0  0  0  0  0  0
  187.8130  178.5600  140.9550 O   0  0  0  0  0  1  0  0  0  0  0  0
  189.9390  177.4260  140.5130 N   0  0  0  0  0  0  0  0  0  0  0  0
  191.0180  177.0940  139.5970 C   0  0  0  0  0  1  0  0  0  0  0  0
  1 13  1  0  0  0  0
  2  1  2  0  0  0  0
  2 18  1  0  0  0  0
  4 16  1  6  0  0  0
  4  7  1  0  0  0  0
  4  1  1  0  0  0  0
  5  8  1  0  0  0  0
  6  3  1  0  0  0  0
  7  8  1  6  0  0  0
  7 14  1  0  0  0  0
  9 18  1  0  0  0  0
  9 10  2  0  0  0  0
 11  2  1  0  0  0  0
 12 16  1  0  0  0  0
 12  5  1  0  0  0  0
 13  3  2  0  0  0  0
 14 13  1  0  0  0  0
 15  9  1  0  0  0  0
 17 19  1  6  0  0  0
 17 11  1  0  0  0  0
 17 15  1  0  0  0  0
 18  6  2  0  0  0  0
 20 19  1  0  0  0  0
 21 24  1  0  0  0  0
 21 23  1  0  0  0  0
 22 21  2  0  0  0  0
 24 20  1  0  0  0  0
 25 24  1  0  0  0  0
M  END
>  <MODEL>
1

>  <REMARK>
 VINA RESULT:     -10.7      0.000      0.000
  Name = 
  3 active torsions:
  status: ('A' for Active; 'I' for Inactive)
    1  A    between atoms: C_6  and  C_15
    2  A    between atoms: C_6  and  C_23
    3  A    between atoms: C_15  and  N_21
                            x       y       z     vdW  Elec       q    Type
                         _______ _______ _______ _____ _____    ______ ____

>  <TORSDO>
F 3

$$$$
=
 OpenBabel10262419483D

 25 28  0  0  1  0  0  0  0  0999 V2000
  187.5620  177.8230  146.0260 C   0  0  0  0  0  0  0  0  0  0  0  0
  188.8940  177.4210  145.9000 C   0  0  0  0  0  0  0  0  0  0  0  0
  187.8110  178.2560  148.3880 C   0  0  0  0  0  3  0  0  0  0  0  0
  186.5380  178.1970  145.0190 C   0  0  2  0  0  3  0  0  0  0  0  0
  184.0610  178.6940  143.7570 C   0  0  0  0  0  2  0  0  0  0  0  0
  189.1370  177.7940  148.3090 C   0  0  0  0  0  3  0  0  0  0  0  0
  185.2980  178.3040  145.7850 N   0  0  2  0  0  0  0  0  0  0  0  0
  184.4860  179.3010  145.1090 C   0  0  0  0  0  2  0  0  0  0  0  0
  191.0870  176.9240  146.9870 C   0  0  0  0  0  0  0  0  0  0  0  0
  191.8140  176.8820  148.0150 O   0  0  0  0  0  0  0  0  0  0  0  0
  189.4530  176.9970  144.5690 C   0  0  0  0  0  2  0  0  0  0  0  0
  185.2720  178.1660  142.9440 C   0  0  0  0  0  2  0  0  0  0  0  0
  187.0560  178.2600  147.2190 C   0  0  0  0  0  0  0  0  0  0  0  0
  185.7220  178.7140  147.0610 N   0  0  0  0  0  2  0  0  0  0  0  0
  191.6480  176.4740  145.6710 C   0  0  0  0  0  2  0  0  0  0  0  0
  186.2710  177.3540  143.7930 C   0  0  0  0  0  2  0  0  0  0  0  0
  190.9660  177.2090  144.5140 C   0  0  1  0  0  3  0  0  0  0  0  0
  189.6820  177.3680  147.0750 C   0  0  0  0  0  0  0  0  0  0  0  0
  191.4950  176.7040  143.1850 C   0  0  0  0  0  2  0  0  0  0  0  0
  191.4290  177.8030  142.1370 C   0  0  0  0  0  2  0  0  0  0  0  0
  191.4750  177.0160  139.7490 C   0  0  0  0  0  0  0  0  0  0  0  0
  190.8710  176.6140  138.7190 O   0  0  0  0  0  0  0  0  0  0  0  0
  192.8570  177.1630  139.7140 O   0  0  0  0  0  1  0  0  0  0  0  0
  190.7450  177.3210  140.9470 N   0  0  0  0  0  0  0  0  0  0  0  0
  189.2930  177.2620  140.9610 C   0  0  0  0  0  1  0  0  0  0  0  0
  1 13  1  0  0  0  0
  2  1  2  0  0  0  0
  2 18  1  0  0  0  0
  4 16  1  6  0  0  0
  4  7  1  0  0  0  0
  4  1  1  0  0  0  0
  5  8  1  0  0  0  0
  6  3  1  0  0  0  0
  7  8  1  6  0  0  0
  7 14  1  0  0  0  0
  9 18  1  0  0  0  0
  9 10  2  0  0  0  0
 11  2  1  0  0  0  0
 12  5  1  0  0  0  0
 12 16  1  0  0  0  0
 13  3  2  0  0  0  0
 14 13  1  0  0  0  0
 15  9  1  0  0  0  0
 17 19  1  6  0  0  0
 17 11  1  0  0  0  0
 17 15  1  0  0  0  0
 18  6  2  0  0  0  0
 20 19  1  0  0  0  0
 21 24  1  0  0  0  0
 22 21  2  0  0  0  0
 23 21  1  0  0  0  0
 24 25  1  0  0  0  0
 24 20  1  0  0  0  0
M  END
>  <MODEL>
2

>  <REMARK>
 VINA RESULT:     -10.4      1.195      1.548
  Name = 
  3 active torsions:
  status: ('A' for Active; 'I' for Inactive)
    1  A    between atoms: C_6  and  C_15
    2  A    between atoms: C_6  and  C_23
    3  A    between atoms: C_15  and  N_21
                            x       y       z     vdW  Elec       q    Type
                         _______ _______ _______ _____ _____    ______ ____

>  <TORSDO>
F 3

$$$$
=
 OpenBabel10262419483D

 25 28  0  0  1  0  0  0  0  0999 V2000
  189.3830  177.5630  144.1450 C   0  0  0  0  0  0  0  0  0  0  0  0
  188.4580  177.7970  145.1640 C   0  0  0  0  0  0  0  0  0  0  0  0
  191.0520  176.7780  145.7020 C   0  0  0  0  0  3  0  0  0  0  0  0
  189.2350  177.4740  142.6710 C   0  0  2  0  0  3  0  0  0  0  0  0
  189.7980  177.4930  139.9030 C   0  0  0  0  0  2  0  0  0  0  0  0
  190.1690  177.0650  146.7570 C   0  0  0  0  0  3  0  0  0  0  0  0
  190.6070  177.4290  142.1700 N   0  0  2  0  0  0  0  0  0  0  0  0
  190.5680  176.6530  140.9430 C   0  0  0  0  0  2  0  0  0  0  0  0
  187.9360  177.8400  147.6070 C   0  0  0  0  0  0  0  0  0  0  0  0
  188.2800  177.6410  148.8030 O   0  0  0  0  0  0  0  0  0  0  0  0
  187.0820  178.3220  144.8580 C   0  0  0  0  0  2  0  0  0  0  0  0
  188.4170  177.9620  140.4340 C   0  0  0  0  0  2  0  0  0  0  0  0
  190.6180  177.0370  144.4050 C   0  0  0  0  0  0  0  0  0  0  0  0
  191.3230  176.7930  143.1990 N   0  0  0  0  0  2  0  0  0  0  0  0
  186.5720  178.3890  147.3160 C   0  0  0  0  0  2  0  0  0  0  0  0
  188.4700  178.5060  141.8750 C   0  0  0  0  0  2  0  0  0  0  0  0
  186.0830  177.9190  145.9430 C   0  0  1  0  0  3  0  0  0  0  0  0
  188.8770  177.5800  146.5000 C   0  0  0  0  0  0  0  0  0  0  0  0
  184.7290  178.5280  145.6290 C   0  0  0  0  0  2  0  0  0  0  0  0
  184.8060  179.3670  144.3640 C   0  0  0  0  0  2  0  0  0  0  0  0
  183.9210  179.0460  142.0320 C   0  0  0  0  0  0  0  0  0  0  0  0
  182.9780  178.7430  141.2530 O   0  0  0  0  0  0  0  0  0  0  0  0
  185.1480  179.4240  141.5000 O   0  0  0  0  0  1  0  0  0  0  0  0
  183.7310  179.0020  143.4540 N   0  0  0  0  0  0  0  0  0  0  0  0
  182.4250  178.7010  144.0150 C   0  0  0  0  0  1  0  0  0  0  0  0
  1 13  2  0  0  0  0
  1  2  1  0  0  0  0
  2 18  2  0  0  0  0
  3  6  2  0  0  0  0
  4 16  1  6  0  0  0
  4  1  1  0  0  0  0
  5 12  1  0  0  0  0
  5  8  1  0  0  0  0
  7  8  1  6  0  0  0
  7  4  1  0  0  0  0
  7 14  1  0  0  0  0
  9 10  2  0  0  0  0
 11  2  1  0  0  0  0
 11 17  1  0  0  0  0
 12 16  1  0  0  0  0
 13  3  1  0  0  0  0
 14 13  1  0  0  0  0
 15  9  1  0  0  0  0
 17 19  1  6  0  0  0
 17 15  1  0  0  0  0
 18  6  1  0  0  0  0
 18  9  1  0  0  0  0
 20 19  1  0  0  0  0
 21 24  1  0  0  0  0
 22 21  2  0  0  0  0
 23 21  1  0  0  0  0
 24 25  1  0  0  0  0
 24 20  1  0  0  0  0
M  END
>  <MODEL>
3

>  <REMARK>
 VINA RESULT:      -9.7      1.920      5.357
  Name = 
  3 active torsions:
  status: ('A' for Active; 'I' for Inactive)
    1  A    between atoms: C_6  and  C_15
    2  A    between atoms: C_6  and  C_23
    3  A    between atoms: C_15  and  N_21
                            x       y       z     vdW  Elec       q    Type
                         _______ _______ _______ _____ _____    ______ ____

>  <TORSDO>
F 3

$$$$
=
 OpenBabel10262419483D

 25 28  0  0  1  0  0  0  0  0999 V2000
  187.9410  177.7440  143.8160 C   0  0  0  0  0  0  0  0  0  0  0  0
  186.6480  178.1070  144.2020 C   0  0  0  0  0  0  0  0  0  0  0  0
  188.5930  177.2590  146.0890 C   0  0  0  0  0  3  0  0  0  0  0  0
  188.5280  177.4220  142.4910 C   0  0  2  0  0  3  0  0  0  0  0  0
  190.3730  177.0260  140.3890 C   0  0  0  0  0  2  0  0  0  0  0  0
  187.3230  177.6810  146.5180 C   0  0  0  0  0  3  0  0  0  0  0  0
  189.9650  177.3400  142.7410 N   0  0  2  0  0  0  0  0  0  0  0  0
  190.4910  176.3810  141.7850 C   0  0  0  0  0  2  0  0  0  0  0  0
  185.0030  178.5140  146.0360 C   0  0  0  0  0  0  0  0  0  0  0  0
  184.7070  178.5140  147.2610 O   0  0  0  0  0  0  0  0  0  0  0  0
  185.6280  178.5380  143.1850 C   0  0  0  0  0  2  0  0  0  0  0  0
  188.9350  177.5320  140.0970 C   0  0  0  0  0  2  0  0  0  0  0  0
  188.8620  177.3010  144.7240 C   0  0  0  0  0  0  0  0  0  0  0  0
  190.0530  176.8920  144.0710 N   0  0  0  0  0  2  0  0  0  0  0  0
  183.9850  178.9710  145.0340 C   0  0  0  0  0  2  0  0  0  0  0  0
  188.3040  178.2950  141.2780 C   0  0  0  0  0  2  0  0  0  0  0  0
  184.2070  178.2800  143.6860 C   0  0  1  0  0  3  0  0  0  0  0  0
  186.3500  178.1130  145.5860 C   0  0  0  0  0  0  0  0  0  0  0  0
  183.2120  178.7930  142.6620 C   0  0  0  0  0  2  0  0  0  0  0  0
  183.6790  178.4550  141.2550 C   0  0  0  0  0  2  0  0  0  0  0  0
  183.1240  179.7850  139.1940 C   0  0  0  0  0  0  0  0  0  0  0  0
  182.2790  180.2080  138.3610 O   0  0  0  0  0  0  0  0  0  0  0  0
  184.4590  180.1480  139.0530 O   0  0  0  0  0  1  0  0  0  0  0  0
  182.7160  178.9370  140.2770 N   0  0  0  0  0  0  0  0  0  0  0  0
  181.3100  178.6320  140.4860 C   0  0  0  0  0  1  0  0  0  0  0  0
  1  2  2  0  0  0  0
  1 13  1  0  0  0  0
  2 18  1  0  0  0  0
  3  6  1  0  0  0  0
  4 16  1  6  0  0  0
  4  7  1  0  0  0  0
  4  1  1  0  0  0  0
  5  8  1  0  0  0  0
  7  8  1  6  0  0  0
  7 14  1  0  0  0  0
  9 10  2  0  0  0  0
 11 17  1  0  0  0  0
 11  2  1  0  0  0  0
 12  5  1  0  0  0  0
 12 16  1  0  0  0  0
 13  3  2  0  0  0  0
 14 13  1  0  0  0  0
 15  9  1  0  0  0  0
 17 19  1  6  0  0  0
 17 15  1  0  0  0  0
 18  9  1  0  0  0  0
 18  6  2  0  0  0  0
 20 19  1  0  0  0  0
 21 24  1  0  0  0  0
 22 21  2  0  0  0  0
 23 21  1  0  0  0  0
 24 25  1  0  0  0  0
 24 20  1  0  0  0  0
M  END
>  <MODEL>
4

>  <REMARK>
 VINA RESULT:      -9.5      2.949      5.823
  Name = 
  3 active torsions:
  status: ('A' for Active; 'I' for Inactive)
    1  A    between atoms: C_6  and  C_15
    2  A    between atoms: C_6  and  C_23
    3  A    between atoms: C_15  and  N_21
                            x       y       z     vdW  Elec       q    Type
                         _______ _______ _______ _____ _____    ______ ____

>  <TORSDO>
F 3

$$$$
=
 OpenBabel10262419483D

 25 28  0  0  1  0  0  0  0  0999 V2000
  187.0500  178.0370  142.4670 C   0  0  0  0  0  0  0  0  0  0  0  0
  186.6560  178.0160  143.8060 C   0  0  0  0  0  0  0  0  0  0  0  0
  185.0530  179.2120  141.7910 C   0  0  0  0  0  3  0  0  0  0  0  0
  188.3570  177.7780  141.8120 C   0  0  2  0  0  3  0  0  0  0  0  0
  190.3250  177.1380  139.8890 C   0  0  0  0  0  2  0  0  0  0  0  0
  184.5950  179.1490  143.1190 C   0  0  0  0  0  3  0  0  0  0  0  0
  188.0490  177.7490  140.3840 N   0  0  2  0  0  0  0  0  0  0  0  0
  189.2410  178.2190  139.7000 C   0  0  0  0  0  2  0  0  0  0  0  0
  184.9200  178.5230  145.5290 C   0  0  0  0  0  0  0  0  0  0  0  0
  183.7980  179.0030  145.8440 O   0  0  0  0  0  0  0  0  0  0  0  0
  187.5270  177.3920  144.8620 C   0  0  0  0  0  2  0  0  0  0  0  0
  190.5230  176.7610  141.3820 C   0  0  0  0  0  2  0  0  0  0  0  0
  186.2920  178.6470  141.5060 C   0  0  0  0  0  0  0  0  0  0  0  0
  186.9590  178.6280  140.2540 N   0  0  0  0  0  2  0  0  0  0  0  0
  185.7670  177.8790  146.5850 C   0  0  0  0  0  2  0  0  0  0  0  0
  189.1980  176.5670  142.1440 C   0  0  0  0  0  2  0  0  0  0  0  0
  187.2520  178.0030  146.2350 C   0  0  1  0  0  3  0  0  0  0  0  0
  185.3830  178.5480  144.1280 C   0  0  0  0  0  0  0  0  0  0  0  0
  188.1000  177.2970  147.2770 C   0  0  0  0  0  2  0  0  0  0  0  0
  189.4650  177.9570  147.3850 C   0  0  0  0  0  2  0  0  0  0  0  0
  190.9320  177.4970  145.3950 C   0  0  0  0  0  0  0  0  0  0  0  0
  191.7900  176.7820  144.8120 O   0  0  0  0  0  1  0  0  0  0  0  0
  190.4400  178.6280  144.7540 O   0  0  0  0  0  0  0  0  0  0  0  0
  190.4680  177.1490  146.7080 N   0  0  0  0  0  0  0  0  0  0  0  0
  190.9060  175.9180  147.3430 C   0  0  0  0  0  1  0  0  0  0  0  0
  1  2  1  0  0  0  0
  2 18  2  0  0  0  0
  2 11  1  0  0  0  0
  3  6  2  0  0  0  0
  4 16  1  1  0  0  0
  4  1  1  0  0  0  0
  5 12  1  0  0  0  0
  6 18  1  0  0  0  0
  7  8  1  6  0  0  0
  7  4  1  0  0  0  0
  8  5  1  0  0  0  0
  9 10  2  0  0  0  0
  9 15  1  0  0  0  0
 11 17  1  0  0  0  0
 12 16  1  0  0  0  0
 13  3  1  0  0  0  0
 13  1  2  0  0  0  0
 14  7  1  0  0  0  0
 14 13  1  0  0  0  0
 17 15  1  0  0  0  0
 17 19  1  1  0  0  0
 18  9  1  0  0  0  0
 19 20  1  0  0  0  0
 21 24  1  0  0  0  0
 22 21  1  0  0  0  0
 23 21  2  0  0  0  0
 24 25  1  0  0  0  0
 24 20  1  0  0  0  0
M  END
>  <MODEL>
5

>  <REMARK>
 VINA RESULT:      -9.5      2.436      5.915
  Name = 
  3 active torsions:
  status: ('A' for Active; 'I' for Inactive)
    1  A    between atoms: C_6  and  C_15
    2  A    between atoms: C_6  and  C_23
    3  A    between atoms: C_15  and  N_21
                            x       y       z     vdW  Elec       q    Type
                         _______ _______ _______ _____ _____    ______ ____

>  <TORSDO>
F 3

$$$$
=
 OpenBabel10262419483D

 25 28  0  0  1  0  0  0  0  0999 V2000
  187.8170  177.7980  144.2850 C   0  0  0  0  0  0  0  0  0  0  0  0
  186.4880  178.1630  144.0560 C   0  0  0  0  0  0  0  0  0  0  0  0
  187.4930  177.7330  146.6760 C   0  0  0  0  0  3  0  0  0  0  0  0
  188.8750  177.2820  143.3800 C   0  0  2  0  0  3  0  0  0  0  0  0
  191.3930  176.6170  142.2880 C   0  0  0  0  0  2  0  0  0  0  0  0
  186.1700  178.1660  146.4850 C   0  0  0  0  0  3  0  0  0  0  0  0
  190.0900  177.3050  144.1910 N   0  0  2  0  0  0  0  0  0  0  0  0
  190.9260  176.2230  143.7040 C   0  0  0  0  0  2  0  0  0  0  0  0
  184.2600  178.8030  144.9840 C   0  0  0  0  0  0  0  0  0  0  0  0
  183.4990  178.9980  145.9700 O   0  0  0  0  0  0  0  0  0  0  0  0
  185.9710  178.3710  142.6590 C   0  0  0  0  0  2  0  0  0  0  0  0
  190.2070  177.0030  141.3650 C   0  0  0  0  0  2  0  0  0  0  0  0
  188.2860  177.5550  145.5460 C   0  0  0  0  0  0  0  0  0  0  0  0
  189.6260  177.0940  145.5020 N   0  0  0  0  0  2  0  0  0  0  0  0
  183.7400  179.0400  143.5970 C   0  0  0  0  0  2  0  0  0  0  0  0
  189.1780  177.9270  142.0470 C   0  0  0  0  0  2  0  0  0  0  0  0
  184.4620  178.1400  142.5900 C   0  0  1  0  0  3  0  0  0  0  0  0
  185.6630  178.3910  145.1830 C   0  0  0  0  0  0  0  0  0  0  0  0
  183.9730  178.4290  141.1830 C   0  0  0  0  0  2  0  0  0  0  0  0
  185.1080  178.9750  140.3310 C   0  0  0  0  0  2  0  0  0  0  0  0
  186.2070  178.2040  138.2040 C   0  0  0  0  0  0  0  0  0  0  0  0
  186.1220  177.7550  137.0300 O   0  0  0  0  0  0  0  0  0  0  0  0
  187.4620  178.4690  138.7410 O   0  0  0  0  0  1  0  0  0  0  0  0
  185.0230  178.4400  138.9800 N   0  0  0  0  0  0  0  0  0  0  0  0
  183.7070  178.2560  138.3920 C   0  0  0  0  0  1  0  0  0  0  0  0
  1 13  1  0  0  0  0
  2  1  2  0  0  0  0
  2 18  1  0  0  0  0
  4 16  1  6  0  0  0
  4  7  1  0  0  0  0
  4  1  1  0  0  0  0
  5  8  1  0  0  0  0
  6  3  1  0  0  0  0
  7  8  1  6  0  0  0
  7 14  1  0  0  0  0
  9 18  1  0  0  0  0
  9 10  2  0  0  0  0
 11  2  1  0  0  0  0
 12 16  1  0  0  0  0
 12  5  1  0  0  0  0
 13  3  2  0  0  0  0
 14 13  1  0  0  0  0
 15  9  1  0  0  0  0
 17 19  1  6  0  0  0
 17 11  1  0  0  0  0
 17 15  1  0  0  0  0
 18  6  2  0  0  0  0
 20 19  1  0  0  0  0
 21 23  1  0  0  0  0
 21 24  1  0  0  0  0
 22 21  2  0  0  0  0
 24 20  1  0  0  0  0
 25 24  1  0  0  0  0
M  END
>  <MODEL>
6

>  <REMARK>
 VINA RESULT:      -9.2      2.675      5.373
  Name = 
  3 active torsions:
  status: ('A' for Active; 'I' for Inactive)
    1  A    between atoms: C_6  and  C_15
    2  A    between atoms: C_6  and  C_23
    3  A    between atoms: C_15  and  N_21
                            x       y       z     vdW  Elec       q    Type
                         _______ _______ _______ _____ _____    ______ ____

>  <TORSDO>
F 3

$$$$
=
 OpenBabel10262419483D

 25 28  0  0  1  0  0  0  0  0999 V2000
  187.7360  177.9060  145.6870 C   0  0  0  0  0  0  0  0  0  0  0  0
  186.8870  178.2570  144.6350 C   0  0  0  0  0  0  0  0  0  0  0  0
  185.9620  178.0840  147.3130 C   0  0  0  0  0  3  0  0  0  0  0  0
  189.0880  177.2930  145.7100 C   0  0  2  0  0  3  0  0  0  0  0  0
  191.6710  176.5030  146.5350 C   0  0  0  0  0  2  0  0  0  0  0  0
  185.0970  178.5060  146.2880 C   0  0  0  0  0  3  0  0  0  0  0  0
  189.5070  177.3890  147.1060 N   0  0  2  0  0  0  0  0  0  0  0  0
  190.3840  176.2570  147.3480 C   0  0  0  0  0  2  0  0  0  0  0  0
  184.6300  179.0040  143.8710 C   0  0  0  0  0  0  0  0  0  0  0  0
  183.4320  179.3020  144.1250 O   0  0  0  0  0  0  0  0  0  0  0  0
  187.3940  178.3280  143.2200 C   0  0  0  0  0  2  0  0  0  0  0  0
  191.3740  176.8030  145.0420 C   0  0  0  0  0  2  0  0  0  0  0  0
  187.2770  177.7870  146.9690 C   0  0  0  0  0  0  0  0  0  0  0  0
  188.3020  177.3130  147.8270 N   0  0  0  0  0  2  0  0  0  0  0  0
  185.1290  179.1040  142.4610 C   0  0  0  0  0  2  0  0  0  0  0  0
  190.2150  177.7990  144.8380 C   0  0  0  0  0  2  0  0  0  0  0  0
  186.2620  178.1020  142.2180 C   0  0  1  0  0  3  0  0  0  0  0  0
  185.5510  178.6030  144.9520 C   0  0  0  0  0  0  0  0  0  0  0  0
  186.8030  178.2520  140.8080 C   0  0  0  0  0  2  0  0  0  0  0  0
  188.3180  178.3650  140.8320 C   0  0  0  0  0  2  0  0  0  0  0  0
  190.1780  176.8150  140.1510 C   0  0  0  0  0  0  0  0  0  0  0  0
  190.6850  176.0170  139.3190 O   0  0  0  0  0  0  0  0  0  0  0  0
  190.8620  177.0970  141.3280 O   0  0  0  0  0  1  0  0  0  0  0  0
  188.9070  177.4280  139.8880 N   0  0  0  0  0  0  0  0  0  0  0  0
  188.2330  177.2120  138.6190 C   0  0  0  0  0  1  0  0  0  0  0  0
  1  4  1  0  0  0  0
  1 13  1  0  0  0  0
  2 18  1  0  0  0  0
  2  1  2  0  0  0  0
  4 16  1  6  0  0  0
  4  7  1  0  0  0  0
  5  8  1  0  0  0  0
  6  3  1  0  0  0  0
  7  8  1  1  0  0  0
  7 14  1  0  0  0  0
  9 10  2  0  0  0  0
  9 18  1  0  0  0  0
 11  2  1  0  0  0  0
 12  5  1  0  0  0  0
 13  3  2  0  0  0  0
 13 14  1  0  0  0  0
 15  9  1  0  0  0  0
 16 12  1  0  0  0  0
 17 19  1  6  0  0  0
 17 15  1  0  0  0  0
 17 11  1  0  0  0  0
 18  6  2  0  0  0  0
 19 20  1  0  0  0  0
 21 23  1  0  0  0  0
 22 21  2  0  0  0  0
 24 21  1  0  0  0  0
 24 20  1  0  0  0  0
 25 24  1  0  0  0  0
M  END
>  <MODEL>
7

>  <REMARK>
 VINA RESULT:      -9.1      2.169      4.784
  Name = 
  3 active torsions:
  status: ('A' for Active; 'I' for Inactive)
    1  A    between atoms: C_6  and  C_15
    2  A    between atoms: C_6  and  C_23
    3  A    between atoms: C_15  and  N_21
                            x       y       z     vdW  Elec       q    Type
                         _______ _______ _______ _____ _____    ______ ____

>  <TORSDO>
F 3

$$$$
=
 OpenBabel10262419483D

 25 28  0  0  1  0  0  0  0  0999 V2000
  187.9250  177.7030  143.8380 C   0  0  0  0  0  0  0  0  0  0  0  0
  186.6230  178.1010  144.1490 C   0  0  0  0  0  0  0  0  0  0  0  0
  188.4410  177.2310  146.1490 C   0  0  0  0  0  3  0  0  0  0  0  0
  188.5750  177.3510  142.5510 C   0  0  2  0  0  3  0  0  0  0  0  0
  190.5210  176.8850  140.5580 C   0  0  0  0  0  2  0  0  0  0  0  0
  187.1600  177.6880  146.5040 C   0  0  0  0  0  3  0  0  0  0  0  0
  189.9940  177.2370  142.8800 N   0  0  2  0  0  0  0  0  0  0  0  0
  190.5480  176.2550  141.9650 C   0  0  0  0  0  2  0  0  0  0  0  0
  184.8910  178.5700  145.8870 C   0  0  0  0  0  0  0  0  0  0  0  0
  184.5290  178.5920  147.0930 O   0  0  0  0  0  0  0  0  0  0  0  0
  185.6690  178.5440  143.0740 C   0  0  0  0  0  2  0  0  0  0  0  0
  189.1140  177.4220  140.1810 C   0  0  0  0  0  2  0  0  0  0  0  0
  188.7840  177.2490  144.8000 C   0  0  0  0  0  0  0  0  0  0  0  0
  189.9990  176.8040  144.2180 N   0  0  0  0  0  2  0  0  0  0  0  0
  183.9400  179.0390  144.8260 C   0  0  0  0  0  2  0  0  0  0  0  0
  188.4390  178.2140  141.3190 C   0  0  0  0  0  2  0  0  0  0  0  0
  184.2180  178.3260  143.5000 C   0  0  1  0  0  3  0  0  0  0  0  0
  186.2500  178.1310  145.5150 C   0  0  0  0  0  0  0  0  0  0  0  0
  183.2930  178.8500  142.4170 C   0  0  0  0  0  2  0  0  0  0  0  0
  181.8480  178.8020  142.8860 C   0  0  0  0  0  2  0  0  0  0  0  0
  179.9710  179.9640  141.6810 C   0  0  0  0  0  0  0  0  0  0  0  0
  179.1860  180.0430  140.7000 O   0  0  0  0  0  0  0  0  0  0  0  0
  179.8830  180.9060  142.7000 O   0  0  0  0  0  1  0  0  0  0  0  0
  180.9470  178.9140  141.7490 N   0  0  0  0  0  0  0  0  0  0  0  0
  180.9810  177.8720  140.7360 C   0  0  0  0  0  1  0  0  0  0  0  0
  1  2  2  0  0  0  0
  1 13  1  0  0  0  0
  2 18  1  0  0  0  0
  3  6  1  0  0  0  0
  4 16  1  6  0  0  0
  4  7  1  0  0  0  0
  4  1  1  0  0  0  0
  5  8  1  0  0  0  0
  7  8  1  6  0  0  0
  7 14  1  0  0  0  0
  9 10  2  0  0  0  0
 11 17  1  0  0  0  0
 11  2  1  0  0  0  0
 12  5  1  0  0  0  0
 12 16  1  0  0  0  0
 13  3  2  0  0  0  0
 14 13  1  0  0  0  0
 15  9  1  0  0  0  0
 17 19  1  6  0  0  0
 17 15  1  0  0  0  0
 18  9  1  0  0  0  0
 18  6  2  0  0  0  0
 19 20  1  0  0  0  0
 21 24  1  0  0  0  0
 21 23  1  0  0  0  0
 22 21  2  0  0  0  0
 24 20  1  0  0  0  0
 25 24  1  0  0  0  0
M  END
>  <MODEL>
8

>  <REMARK>
 VINA RESULT:      -9.1      3.514      6.554
  Name = 
  3 active torsions:
  status: ('A' for Active; 'I' for Inactive)
    1  A    between atoms: C_6  and  C_15
    2  A    between atoms: C_6  and  C_23
    3  A    between atoms: C_15  and  N_21
                            x       y       z     vdW  Elec       q    Type
                         _______ _______ _______ _____ _____    ______ ____

>  <TORSDO>
F 3

$$$$
=
 OpenBabel10262419483D

 25 28  0  0  1  0  0  0  0  0999 V2000
  186.9830  177.7460  144.6360 C   0  0  0  0  0  0  0  0  0  0  0  0
  188.2020  177.3940  144.0540 C   0  0  0  0  0  0  0  0  0  0  0  0
  187.9090  177.6720  146.8640 C   0  0  0  0  0  3  0  0  0  0  0  0
  185.7360  178.3140  144.0640 C   0  0  2  0  0  3  0  0  0  0  0  0
  183.0320  179.0420  143.6940 C   0  0  0  0  0  2  0  0  0  0  0  0
  189.1330  177.2500  146.3160 C   0  0  0  0  0  3  0  0  0  0  0  0
  184.7690  178.2440  145.1570 N   0  0  2  0  0  0  0  0  0  0  0  0
  183.8520  179.3530  144.9630 C   0  0  0  0  0  2  0  0  0  0  0  0
  190.5850  176.7010  144.3410 C   0  0  0  0  0  0  0  0  0  0  0  0
  191.5690  176.4490  145.0870 O   0  0  0  0  0  0  0  0  0  0  0  0
  188.3410  177.2670  142.5620 C   0  0  0  0  0  2  0  0  0  0  0  0
  183.9370  178.7100  142.4770 C   0  0  0  0  0  2  0  0  0  0  0  0
  186.8560  177.9160  145.9870 C   0  0  0  0  0  0  0  0  0  0  0  0
  185.5560  178.3790  146.3150 N   0  0  0  0  0  2  0  0  0  0  0  0
  190.7280  176.5450  142.8570 C   0  0  0  0  0  2  0  0  0  0  0  0
  185.0920  177.7480  142.8200 C   0  0  0  0  0  2  0  0  0  0  0  0
  189.7860  177.5020  142.1210 C   0  0  1  0  0  3  0  0  0  0  0  0
  189.2860  177.1020  144.9170 C   0  0  0  0  0  0  0  0  0  0  0  0
  189.8930  177.2950  140.6210 C   0  0  0  0  0  2  0  0  0  0  0  0
  191.3510  177.2790  140.1920 C   0  0  0  0  0  2  0  0  0  0  0  0
  192.7300  176.5340  138.2250 C   0  0  0  0  0  0  0  0  0  0  0  0
  192.8140  176.2020  137.0130 O   0  0  0  0  0  0  0  0  0  0  0  0
  193.8810  176.5670  139.0030 O   0  0  0  0  0  1  0  0  0  0  0  0
  191.4590  176.8760  138.7980 N   0  0  0  0  0  0  0  0  0  0  0  0
  190.2680  176.9360  137.9680 C   0  0  0  0  0  1  0  0  0  0  0  0
  1 13  1  0  0  0  0
  2  1  2  0  0  0  0
  2 18  1  0  0  0  0
  4 16  1  6  0  0  0
  4  1  1  0  0  0  0
  4  7  1  0  0  0  0
  5  8  1  0  0  0  0
  6  3  1  0  0  0  0
  7  8  1  6  0  0  0
  7 14  1  0  0  0  0
  9 18  1  0  0  0  0
  9 10  2  0  0  0  0
 11  2  1  0  0  0  0
 12 16  1  0  0  0  0
 12  5  1  0  0  0  0
 13 14  1  0  0  0  0
 13  3  2  0  0  0  0
 15  9  1  0  0  0  0
 17 19  1  6  0  0  0
 17 11  1  0  0  0  0
 17 15  1  0  0  0  0
 18  6  2  0  0  0  0
 20 19  1  0  0  0  0
 21 24  1  0  0  0  0
 21 23  1  0  0  0  0
 22 21  2  0  0  0  0
 24 20  1  0  0  0  0
 25 24  1  0  0  0  0
M  END
>  <MODEL>
9

>  <REMARK>
 VINA RESULT:      -9.1      1.943      2.486
  Name = 
  3 active torsions:
  status: ('A' for Active; 'I' for Inactive)
    1  A    between atoms: C_6  and  C_15
    2  A    between atoms: C_6  and  C_23
    3  A    between atoms: C_15  and  N_21
                            x       y       z     vdW  Elec       q    Type
                         _______ _______ _______ _____ _____    ______ ____

>  <TORSDO>
F 3

$$$$
