=
 OpenBabel10262419423D

 31 34  0  0  1  0  0  0  0  0999 V2000
  185.4040  178.0630  146.4120 C   0  0  1  0  0  3  0  0  0  0  0  0
  185.1250  179.5370  142.8840 C   0  0  0  0  0  2  0  0  0  0  0  0
  185.4820  178.6200  144.0250 C   0  0  0  0  0  0  0  0  0  0  0  0
  186.9300  177.8890  146.4280 C   0  0  0  0  0  2  0  0  0  0  0  0
  187.1430  178.5960  141.7180 C   0  0  2  0  0  3  0  0  0  0  0  0
  184.9840  178.6700  147.5940 O   0  0  0  0  0  1  0  0  0  0  0  0
  187.1780  177.3260  142.5610 C   0  0  0  0  0  2  0  0  0  0  0  0
  185.7180  179.1330  141.5340 C   0  0  1  0  0  3  0  0  0  0  0  0
  184.9770  178.8910  145.2340 C   0  0  0  0  0  3  0  0  0  0  0  0
  186.5030  177.4980  143.9230 C   0  0  1  0  0  3  0  0  0  0  0  0
  187.5470  177.6120  145.0400 C   0  0  0  0  0  2  0  0  0  0  0  0
  184.7980  178.1920  140.7330 C   0  0  1  0  0  3  0  0  0  0  0  0
  183.8280  177.5980  141.5250 F   0  0  0  0  0  0  0  0  0  0  0  0
  182.8170  178.7910  139.5810 O   0  0  0  0  0  1  0  0  0  0  0  0
  184.2020  178.7370  139.4080 C   0  0  1  0  0  0  0  0  0  0  0  0
  183.5730  180.8110  138.9620 O   0  0  0  0  0  1  0  0  0  0  0  0
  184.6380  180.0610  139.1700 O   0  0  0  0  0  0  0  0  0  0  0  0
  184.4910  177.8470  138.1770 C   0  0  0  0  0  2  0  0  0  0  0  0
  185.8930  177.9560  137.6600 C   0  0  0  0  0  3  0  0  0  0  0  0
  186.5910  176.9620  137.5380 O   0  0  0  0  0  0  0  0  0  0  0  0
  187.9900  178.5210  140.4390 C   0  0  0  0  0  2  0  0  0  0  0  0
  190.0980  177.7720  139.2570 C   0  0  0  0  0  2  0  0  0  0  0  0
  189.2830  177.7040  140.5300 C   0  0  0  0  0  0  0  0  0  0  0  0
  189.3880  176.4850  139.6420 C   0  0  0  0  0  2  0  0  0  0  0  0
  190.1440  177.6880  141.7860 C   0  0  0  0  0  2  0  0  0  0  0  0
  190.5490  176.2710  142.1470 C   0  0  0  0  0  2  0  0  0  0  0  0
  191.4980  176.3050  143.3270 C   0  0  0  0  0  2  0  0  0  0  0  0
  191.6780  176.6400  145.7610 C   0  0  2  0  0  3  0  0  0  0  0  0
  190.9280  176.4720  146.9240 O   0  0  0  0  0  1  0  0  0  0  0  0
  191.3430  177.9780  145.1380 C   0  0  0  0  0  2  0  0  0  0  0  0
  190.7410  176.7090  144.5730 C   0  0  1  0  0  3  0  0  0  0  0  0
  1  4  1  0  0  0  0
  1  6  1  1  0  0  0
  2  3  1  0  0  0  0
  3  9  2  0  0  0  0
  5 21  1  6  0  0  0
  5  7  1  0  0  0  0
  8 12  1  1  0  0  0
  8  5  1  0  0  0  0
  8  2  1  0  0  0  0
  9  1  1  0  0  0  0
 10  7  1  6  0  0  0
 10  3  1  0  0  0  0
 10 11  1  0  0  0  0
 11  4  1  0  0  0  0
 12 13  1  1  0  0  0
 15 14  1  1  0  0  0
 15 12  1  0  0  0  0
 16 17  1  0  0  0  0
 17 15  1  0  0  0  0
 18 15  1  0  0  0  0
 19 18  1  0  0  0  0
 20 19  2  0  0  0  0
 21 23  1  0  0  0  0
 22 24  1  0  0  0  0
 22 23  1  0  0  0  0
 23 25  1  0  0  0  0
 24 23  1  0  0  0  0
 25 26  1  0  0  0  0
 26 27  1  0  0  0  0
 28 29  1  1  0  0  0
 30 28  1  0  0  0  0
 31 27  1  6  0  0  0
 31 30  1  0  0  0  0
 31 28  1  0  0  0  0
M  END
>  <MODEL>
1

>  <REMARK>
 VINA RESULT:      -7.7      0.000      0.000
  Name = 
  11 active torsions:
  status: ('A' for Active; 'I' for Inactive)
    1  A    between atoms: C_5  and  C_21
    2  A    between atoms: C_5  and  C_31
    3  A    between atoms: C_6  and  C_7
    4  A    between atoms: C_6  and  C_19
    5  A    between atoms: C_7  and  C_9
    6  A    between atoms: C_9  and  C_23
    7  A    between atoms: C_15  and  C_23
    8  A    between atoms: C_17  and  C_30
    9  A    between atoms: O_18  and  C_31
   10  A    between atoms: C_19  and  C_24
   11  A    between atoms: C_30  and  C_31
                            x       y       z     vdW  Elec       q    Type
                         _______ _______ _______ _____ _____    ______ ____

>  <TORSDO>
F 11

$$$$
=
 OpenBabel10262419423D

 31 34  0  0  1  0  0  0  0  0999 V2000
  183.9700  178.6630  143.7080 C   0  0  1  0  0  3  0  0  0  0  0  0
  186.9700  179.3430  141.4200 C   0  0  0  0  0  2  0  0  0  0  0  0
  186.0410  178.6670  142.3960 C   0  0  0  0  0  0  0  0  0  0  0  0
  184.7680  178.3290  144.9780 C   0  0  0  0  0  2  0  0  0  0  0  0
  188.7930  177.9510  142.4500 C   0  0  2  0  0  3  0  0  0  0  0  0
  182.9470  179.5580  144.0130 O   0  0  0  0  0  1  0  0  0  0  0  0
  187.8340  176.9030  143.0040 C   0  0  0  0  0  2  0  0  0  0  0  0
  188.2730  178.5880  141.1560 C   0  0  1  0  0  3  0  0  0  0  0  0
  184.8680  179.2520  142.6580 C   0  0  0  0  0  3  0  0  0  0  0  0
  186.4190  177.4440  143.2170 C   0  0  1  0  0  3  0  0  0  0  0  0
  186.1450  177.6860  144.7060 C   0  0  0  0  0  2  0  0  0  0  0  0
  188.1640  177.6010  139.9770 C   0  0  1  0  0  3  0  0  0  0  0  0
  186.8560  177.4160  139.5600 F   0  0  0  0  0  0  0  0  0  0  0  0
  188.5620  177.1490  137.6860 O   0  0  0  0  0  1  0  0  0  0  0  0
  189.1240  177.8160  138.7780 C   0  0  1  0  0  0  0  0  0  0  0  0
  188.4320  179.3770  137.3710 O   0  0  0  0  0  1  0  0  0  0  0  0
  189.1950  179.1840  138.4310 O   0  0  0  0  0  0  0  0  0  0  0  0
  190.5440  177.2450  139.0010 C   0  0  0  0  0  2  0  0  0  0  0  0
  190.9410  176.1910  138.0110 C   0  0  0  0  0  3  0  0  0  0  0  0
  191.0340  175.0230  138.3500 O   0  0  0  0  0  0  0  0  0  0  0  0
  190.2610  177.5020  142.4220 C   0  0  0  0  0  2  0  0  0  0  0  0
  190.7370  179.0580  144.3600 C   0  0  0  0  0  2  0  0  0  0  0  0
  191.0650  177.7340  143.7060 C   0  0  0  0  0  0  0  0  0  0  0  0
  192.0830  178.8510  143.6860 C   0  0  0  0  0  2  0  0  0  0  0  0
  191.3180  176.6210  144.7140 C   0  0  0  0  0  2  0  0  0  0  0  0
  191.0510  177.1000  146.1290 C   0  0  0  0  0  2  0  0  0  0  0  0
  189.6370  176.7330  146.5260 C   0  0  0  0  0  2  0  0  0  0  0  0
  187.8430  177.5470  148.0060 C   0  0  2  0  0  3  0  0  0  0  0  0
  186.8560  178.5290  148.0520 O   0  0  0  0  0  1  0  0  0  0  0  0
  189.1490  178.1240  148.5080 C   0  0  0  0  0  2  0  0  0  0  0  0
  188.9140  177.9670  147.0210 C   0  0  1  0  0  3  0  0  0  0  0  0
  1  6  1  1  0  0  0
  1  4  1  0  0  0  0
  2  3  1  0  0  0  0
  3  9  2  0  0  0  0
  3 10  1  0  0  0  0
  5 21  1  6  0  0  0
  5  7  1  0  0  0  0
  8 12  1  6  0  0  0
  8  2  1  0  0  0  0
  8  5  1  0  0  0  0
  9  1  1  0  0  0  0
 10  7  1  1  0  0  0
 10 11  1  0  0  0  0
 11  4  1  0  0  0  0
 12 13  1  6  0  0  0
 15 14  1  6  0  0  0
 15 18  1  0  0  0  0
 15 12  1  0  0  0  0
 16 17  1  0  0  0  0
 17 15  1  0  0  0  0
 19 20  2  0  0  0  0
 19 18  1  0  0  0  0
 21 23  1  0  0  0  0
 23 22  1  0  0  0  0
 23 25  1  0  0  0  0
 24 23  1  0  0  0  0
 24 22  1  0  0  0  0
 25 26  1  0  0  0  0
 26 27  1  0  0  0  0
 28 29  1  6  0  0  0
 28 30  1  0  0  0  0
 31 27  1  1  0  0  0
 31 28  1  0  0  0  0
 31 30  1  0  0  0  0
M  END
>  <MODEL>
2

>  <REMARK>
 VINA RESULT:      -7.6      2.391      3.963
  Name = 
  11 active torsions:
  status: ('A' for Active; 'I' for Inactive)
    1  A    between atoms: C_5  and  C_21
    2  A    between atoms: C_5  and  C_31
    3  A    between atoms: C_6  and  C_7
    4  A    between atoms: C_6  and  C_19
    5  A    between atoms: C_7  and  C_9
    6  A    between atoms: C_9  and  C_23
    7  A    between atoms: C_15  and  C_23
    8  A    between atoms: C_17  and  C_30
    9  A    between atoms: O_18  and  C_31
   10  A    between atoms: C_19  and  C_24
   11  A    between atoms: C_30  and  C_31
                            x       y       z     vdW  Elec       q    Type
                         _______ _______ _______ _____ _____    ______ ____

>  <TORSDO>
F 11

$$$$
=
 OpenBabel10262419423D

 31 34  0  0  1  0  0  0  0  0999 V2000
  191.7280  176.5460  146.2190 C   0  0  1  0  0  3  0  0  0  0  0  0
  190.5220  175.7760  142.6630 C   0  0  0  0  0  2  0  0  0  0  0  0
  190.8430  176.5210  143.9330 C   0  0  0  0  0  0  0  0  0  0  0  0
  190.4430  177.2240  146.7170 C   0  0  0  0  0  2  0  0  0  0  0  0
  188.7930  177.5560  142.2560 C   0  0  2  0  0  3  0  0  0  0  0  0
  192.1680  175.6160  147.1600 O   0  0  0  0  0  1  0  0  0  0  0  0
  189.4610  178.5730  143.1740 C   0  0  0  0  0  2  0  0  0  0  0  0
  189.8080  176.6110  141.6000 C   0  0  1  0  0  3  0  0  0  0  0  0
  191.4940  175.8670  144.9010 C   0  0  0  0  0  3  0  0  0  0  0  0
  190.3390  177.9220  144.2440 C   0  0  1  0  0  3  0  0  0  0  0  0
  189.6500  177.9570  145.6130 C   0  0  0  0  0  2  0  0  0  0  0  0
  190.7830  177.3180  140.6390 C   0  0  1  0  0  3  0  0  0  0  0  0
  192.0860  177.3140  141.1090 F   0  0  0  0  0  0  0  0  0  0  0  0
  192.0210  176.9740  138.6490 O   0  0  0  0  0  1  0  0  0  0  0  0
  190.7140  176.9260  139.1390 C   0  0  1  0  0  0  0  0  0  0  0  0
  191.1420  174.9510  138.2390 O   0  0  0  0  0  1  0  0  0  0  0  0
  190.2660  175.5940  138.9890 O   0  0  0  0  0  0  0  0  0  0  0  0
  189.8510  177.8820  138.2810 C   0  0  0  0  0  2  0  0  0  0  0  0
  188.6150  177.2490  137.7180 C   0  0  0  0  0  3  0  0  0  0  0  0
  188.5530  176.9450  136.5380 O   0  0  0  0  0  0  0  0  0  0  0  0
  187.7460  178.1600  141.3090 C   0  0  0  0  0  2  0  0  0  0  0  0
  185.2590  178.1210  140.8410 C   0  0  0  0  0  2  0  0  0  0  0  0
  186.3360  178.3370  141.8830 C   0  0  0  0  0  0  0  0  0  0  0  0
  185.5340  179.5150  141.3800 C   0  0  0  0  0  2  0  0  0  0  0  0
  185.9480  177.8060  143.2560 C   0  0  0  0  0  2  0  0  0  0  0  0
  184.7050  178.5040  143.7760 C   0  0  0  0  0  2  0  0  0  0  0  0
  185.0460  179.2590  145.0440 C   0  0  0  0  0  2  0  0  0  0  0  0
  186.0760  179.0820  147.2750 C   0  0  2  0  0  3  0  0  0  0  0  0
  187.2250  178.5870  147.8880 O   0  0  0  0  0  1  0  0  0  0  0  0
  185.0560  177.9710  147.1510 C   0  0  0  0  0  2  0  0  0  0  0  0
  185.8800  178.3780  145.9490 C   0  0  1  0  0  3  0  0  0  0  0  0
  1  4  1  0  0  0  0
  1  6  1  1  0  0  0
  2  3  1  0  0  0  0
  3 10  1  0  0  0  0
  3  9  2  0  0  0  0
  5 21  1  6  0  0  0
  5  7  1  0  0  0  0
  8 12  1  1  0  0  0
  8  5  1  0  0  0  0
  8  2  1  0  0  0  0
  9  1  1  0  0  0  0
 10  7  1  6  0  0  0
 10 11  1  0  0  0  0
 11  4  1  0  0  0  0
 12 13  1  1  0  0  0
 15 14  1  6  0  0  0
 15 12  1  0  0  0  0
 16 17  1  0  0  0  0
 17 15  1  0  0  0  0
 18 15  1  0  0  0  0
 19 18  1  0  0  0  0
 20 19  2  0  0  0  0
 21 23  1  0  0  0  0
 22 24  1  0  0  0  0
 22 23  1  0  0  0  0
 23 25  1  0  0  0  0
 24 23  1  0  0  0  0
 25 26  1  0  0  0  0
 26 27  1  0  0  0  0
 28 29  1  1  0  0  0
 30 28  1  0  0  0  0
 31 27  1  6  0  0  0
 31 30  1  0  0  0  0
 31 28  1  0  0  0  0
M  END
>  <MODEL>
3

>  <REMARK>
 VINA RESULT:      -7.6      2.830      5.776
  Name = 
  11 active torsions:
  status: ('A' for Active; 'I' for Inactive)
    1  A    between atoms: C_5  and  C_21
    2  A    between atoms: C_5  and  C_31
    3  A    between atoms: C_6  and  C_7
    4  A    between atoms: C_6  and  C_19
    5  A    between atoms: C_7  and  C_9
    6  A    between atoms: C_9  and  C_23
    7  A    between atoms: C_15  and  C_23
    8  A    between atoms: C_17  and  C_30
    9  A    between atoms: O_18  and  C_31
   10  A    between atoms: C_19  and  C_24
   11  A    between atoms: C_30  and  C_31
                            x       y       z     vdW  Elec       q    Type
                         _______ _______ _______ _____ _____    ______ ____

>  <TORSDO>
F 11

$$$$
=
 OpenBabel10262419423D

 31 34  0  0  1  0  0  0  0  0999 V2000
  191.5710  176.5010  145.2190 C   0  0  1  0  0  3  0  0  0  0  0  0
  189.6930  176.2590  141.8860 C   0  0  0  0  0  2  0  0  0  0  0  0
  190.2950  176.8180  143.1490 C   0  0  0  0  0  0  0  0  0  0  0  0
  190.4550  177.1870  146.0200 C   0  0  0  0  0  2  0  0  0  0  0  0
  188.0720  178.1770  142.0110 C   0  0  2  0  0  3  0  0  0  0  0  0
  192.0930  175.4350  145.9500 O   0  0  0  0  0  1  0  0  0  0  0  0
  188.9740  179.0280  142.8970 C   0  0  0  0  0  2  0  0  0  0  0  0
  188.8720  177.2630  141.0750 C   0  0  1  0  0  3  0  0  0  0  0  0
  191.0510  176.0080  143.8990 C   0  0  0  0  0  3  0  0  0  0  0  0
  189.9710  178.1960  143.7050 C   0  0  1  0  0  3  0  0  0  0  0  0
  189.5410  178.1000  145.1730 C   0  0  0  0  0  2  0  0  0  0  0  0
  189.7160  178.0240  140.0350 C   0  0  1  0  0  3  0  0  0  0  0  0
  191.0690  177.7470  140.1440 F   0  0  0  0  0  0  0  0  0  0  0  0
  188.0040  177.3260  138.5540 O   0  0  0  0  0  1  0  0  0  0  0  0
  189.2400  177.9780  138.5590 C   0  0  1  0  0  0  0  0  0  0  0  0
  188.0680  179.2160  137.1480 O   0  0  0  0  0  1  0  0  0  0  0  0
  189.0170  179.2830  138.0630 O   0  0  0  0  0  0  0  0  0  0  0  0
  190.1890  177.2010  137.6170 C   0  0  0  0  0  2  0  0  0  0  0  0
  190.0220  175.7130  137.6750 C   0  0  0  0  0  3  0  0  0  0  0  0
  190.7920  175.0250  138.3260 O   0  0  0  0  0  0  0  0  0  0  0  0
  186.9270  178.9580  141.3500 C   0  0  0  0  0  2  0  0  0  0  0  0
  184.8420  177.6830  142.0060 C   0  0  0  0  0  2  0  0  0  0  0  0
  185.5990  178.9890  142.1140 C   0  0  0  0  0  0  0  0  0  0  0  0
  184.3330  178.9230  141.2900 C   0  0  0  0  0  2  0  0  0  0  0  0
  185.4680  179.6390  143.4840 C   0  0  0  0  0  2  0  0  0  0  0  0
  184.1290  179.3070  144.1160 C   0  0  0  0  0  2  0  0  0  0  0  0
  184.3370  178.9330  145.5690 C   0  0  0  0  0  2  0  0  0  0  0  0
  186.0170  178.2240  147.2250 C   0  0  2  0  0  3  0  0  0  0  0  0
  187.2500  178.6230  147.7380 O   0  0  0  0  0  1  0  0  0  0  0  0
  186.2380  177.4080  145.9700 C   0  0  0  0  0  2  0  0  0  0  0  0
  185.8190  178.8580  145.8640 C   0  0  1  0  0  3  0  0  0  0  0  0
  1  6  1  1  0  0  0
  1  4  1  0  0  0  0
  2  3  1  0  0  0  0
  3 10  1  0  0  0  0
  3  9  2  0  0  0  0
  5 21  1  6  0  0  0
  5  7  1  0  0  0  0
  8 12  1  1  0  0  0
  8  2  1  0  0  0  0
  8  5  1  0  0  0  0
  9  1  1  0  0  0  0
 10  7  1  6  0  0  0
 10 11  1  0  0  0  0
 11  4  1  0  0  0  0
 12 13  1  6  0  0  0
 15 14  1  6  0  0  0
 15 12  1  0  0  0  0
 16 17  1  0  0  0  0
 17 15  1  0  0  0  0
 18 19  1  0  0  0  0
 18 15  1  0  0  0  0
 19 20  2  0  0  0  0
 21 23  1  0  0  0  0
 22 23  1  0  0  0  0
 23 25  1  0  0  0  0
 24 22  1  0  0  0  0
 24 23  1  0  0  0  0
 25 26  1  0  0  0  0
 26 27  1  0  0  0  0
 28 29  1  6  0  0  0
 30 28  1  0  0  0  0
 31 27  1  1  0  0  0
 31 30  1  0  0  0  0
 31 28  1  0  0  0  0
M  END
>  <MODEL>
4

>  <REMARK>
 VINA RESULT:      -7.5      2.498      5.304
  Name = 
  11 active torsions:
  status: ('A' for Active; 'I' for Inactive)
    1  A    between atoms: C_5  and  C_21
    2  A    between atoms: C_5  and  C_31
    3  A    between atoms: C_6  and  C_7
    4  A    between atoms: C_6  and  C_19
    5  A    between atoms: C_7  and  C_9
    6  A    between atoms: C_9  and  C_23
    7  A    between atoms: C_15  and  C_23
    8  A    between atoms: C_17  and  C_30
    9  A    between atoms: O_18  and  C_31
   10  A    between atoms: C_19  and  C_24
   11  A    between atoms: C_30  and  C_31
                            x       y       z     vdW  Elec       q    Type
                         _______ _______ _______ _____ _____    ______ ____

>  <TORSDO>
F 11

$$$$
=
 OpenBabel10262419423D

 31 34  0  0  1  0  0  0  0  0999 V2000
  191.7620  177.2120  140.2890 C   0  0  1  0  0  3  0  0  0  0  0  0
  190.8450  178.2150  143.8740 C   0  0  0  0  0  2  0  0  0  0  0  0
  190.8500  177.5010  142.5470 C   0  0  0  0  0  0  0  0  0  0  0  0
  190.3450  177.2820  139.7000 C   0  0  0  0  0  2  0  0  0  0  0  0
  188.4490  177.4760  144.0710 C   0  0  2  0  0  3  0  0  0  0  0  0
  192.6560  177.8760  139.4510 O   0  0  0  0  0  1  0  0  0  0  0  0
  188.6040  176.3310  143.0760 C   0  0  0  0  0  2  0  0  0  0  0  0
  189.7480  177.7590  144.8370 C   0  0  1  0  0  3  0  0  0  0  0  0
  191.7980  177.8240  141.6600 C   0  0  0  0  0  3  0  0  0  0  0  0
  189.7550  176.5480  142.0930 C   0  0  1  0  0  3  0  0  0  0  0  0
  189.2260  176.9500  140.7120 C   0  0  0  0  0  2  0  0  0  0  0  0
  190.1970  176.6010  145.7490 C   0  0  1  0  0  3  0  0  0  0  0  0
  191.2840  175.9120  145.2360 F   0  0  0  0  0  0  0  0  0  0  0  0
  189.9520  175.7780  147.9570 O   0  0  0  0  0  1  0  0  0  0  0  0
  190.3760  176.9120  147.2580 C   0  0  1  0  0  0  0  0  0  0  0  0
  192.2140  175.9640  148.0450 O   0  0  0  0  0  1  0  0  0  0  0  0
  191.7410  177.1020  147.5720 O   0  0  0  0  0  0  0  0  0  0  0  0
  189.5380  178.1140  147.7540 C   0  0  0  0  0  2  0  0  0  0  0  0
  188.2850  177.7270  148.4800 C   0  0  0  0  0  3  0  0  0  0  0  0
  187.2290  178.2910  148.2420 O   0  0  0  0  0  0  0  0  0  0  0  0
  187.1810  177.3900  144.9320 C   0  0  0  0  0  2  0  0  0  0  0  0
  185.6550  179.3810  145.2650 C   0  0  0  0  0  2  0  0  0  0  0  0
  185.9610  178.1630  144.4200 C   0  0  0  0  0  0  0  0  0  0  0  0
  184.7350  178.1720  145.3030 C   0  0  0  0  0  2  0  0  0  0  0  0
  185.7140  178.3930  142.9360 C   0  0  0  0  0  2  0  0  0  0  0  0
  184.2310  178.5470  142.6510 C   0  0  0  0  0  2  0  0  0  0  0  0
  183.9560  178.1840  141.2070 C   0  0  0  0  0  2  0  0  0  0  0  0
  184.8700  178.3960  138.9290 C   0  0  2  0  0  3  0  0  0  0  0  0
  186.0220  178.8250  138.2730 O   0  0  0  0  0  1  0  0  0  0  0  0
  183.9590  179.5800  139.1690 C   0  0  0  0  0  2  0  0  0  0  0  0
  184.8110  179.0400  140.2980 C   0  0  1  0  0  3  0  0  0  0  0  0
  1  6  1  6  0  0  0
  1  9  1  0  0  0  0
  2  8  1  0  0  0  0
  3  2  1  0  0  0  0
  4  1  1  0  0  0  0
  4 11  1  0  0  0  0
  5  8  1  0  0  0  0
  5 21  1  1  0  0  0
  7  5  1  0  0  0  0
  8 12  1  6  0  0  0
  9  3  2  0  0  0  0
 10 11  1  6  0  0  0
 10  3  1  0  0  0  0
 10  7  1  0  0  0  0
 12 13  1  6  0  0  0
 12 15  1  0  0  0  0
 15 17  1  0  0  0  0
 15 18  1  0  0  0  0
 15 14  1  1  0  0  0
 17 16  1  0  0  0  0
 18 19  1  0  0  0  0
 20 19  2  0  0  0  0
 22 24  1  0  0  0  0
 23 21  1  0  0  0  0
 23 22  1  0  0  0  0
 23 24  1  0  0  0  0
 25 23  1  0  0  0  0
 26 25  1  0  0  0  0
 27 26  1  0  0  0  0
 28 29  1  6  0  0  0
 28 30  1  0  0  0  0
 28 31  1  0  0  0  0
 30 31  1  0  0  0  0
 31 27  1  1  0  0  0
M  END
>  <MODEL>
5

>  <REMARK>
 VINA RESULT:      -7.5      2.400      8.317
  Name = 
  11 active torsions:
  status: ('A' for Active; 'I' for Inactive)
    1  A    between atoms: C_5  and  C_21
    2  A    between atoms: C_5  and  C_31
    3  A    between atoms: C_6  and  C_7
    4  A    between atoms: C_6  and  C_19
    5  A    between atoms: C_7  and  C_9
    6  A    between atoms: C_9  and  C_23
    7  A    between atoms: C_15  and  C_23
    8  A    between atoms: C_17  and  C_30
    9  A    between atoms: O_18  and  C_31
   10  A    between atoms: C_19  and  C_24
   11  A    between atoms: C_30  and  C_31
                            x       y       z     vdW  Elec       q    Type
                         _______ _______ _______ _____ _____    ______ ____

>  <TORSDO>
F 11

$$$$
=
 OpenBabel10262419423D

 31 34  0  0  1  0  0  0  0  0999 V2000
  191.4370  176.9830  140.0780 C   0  0  1  0  0  3  0  0  0  0  0  0
  191.0590  178.1350  143.7140 C   0  0  0  0  0  2  0  0  0  0  0  0
  190.8560  177.3790  142.4270 C   0  0  0  0  0  0  0  0  0  0  0  0
  189.9560  177.0910  139.6860 C   0  0  0  0  0  2  0  0  0  0  0  0
  188.6890  177.4990  144.2650 C   0  0  2  0  0  3  0  0  0  0  0  0
  192.2300  177.5830  139.1020 O   0  0  0  0  0  1  0  0  0  0  0  0
  188.6640  176.3180  143.3010 C   0  0  0  0  0  2  0  0  0  0  0  0
  190.0900  177.7540  144.8350 C   0  0  1  0  0  3  0  0  0  0  0  0
  191.6830  177.6360  141.4080 C   0  0  0  0  0  3  0  0  0  0  0  0
  189.6760  176.4570  142.1630 C   0  0  1  0  0  3  0  0  0  0  0  0
  188.9760  176.8360  140.8520 C   0  0  0  0  0  2  0  0  0  0  0  0
  190.6190  176.6090  145.7190 C   0  0  1  0  0  3  0  0  0  0  0  0
  191.8070  176.0780  145.2450 F   0  0  0  0  0  0  0  0  0  0  0  0
  190.0790  175.7510  147.8600 O   0  0  0  0  0  1  0  0  0  0  0  0
  190.6730  176.8580  147.2500 C   0  0  1  0  0  0  0  0  0  0  0  0
  192.3410  175.7070  148.1370 O   0  0  0  0  0  1  0  0  0  0  0  0
  192.0110  176.9080  147.7020 O   0  0  0  0  0  0  0  0  0  0  0  0
  189.9040  178.1200  147.7070 C   0  0  0  0  0  2  0  0  0  0  0  0
  188.7040  177.8290  148.5560 C   0  0  0  0  0  3  0  0  0  0  0  0
  187.7460  178.5860  148.5610 O   0  0  0  0  0  0  0  0  0  0  0  0
  187.5490  177.4920  145.2930 C   0  0  0  0  0  2  0  0  0  0  0  0
  185.7430  179.2380  145.5960 C   0  0  0  0  0  2  0  0  0  0  0  0
  186.1970  178.0270  144.8100 C   0  0  0  0  0  0  0  0  0  0  0  0
  185.0310  177.9060  145.7640 C   0  0  0  0  0  2  0  0  0  0  0  0
  185.8420  178.1110  143.3320 C   0  0  0  0  0  2  0  0  0  0  0  0
  184.8960  179.2680  143.0670 C   0  0  0  0  0  2  0  0  0  0  0  0
  183.5380  178.7270  142.6710 C   0  0  0  0  0  2  0  0  0  0  0  0
  181.1350  179.2700  142.6910 C   0  0  2  0  0  3  0  0  0  0  0  0
  180.2800  180.3330  142.9740 O   0  0  0  0  0  1  0  0  0  0  0  0
  181.4460  178.5230  143.9700 C   0  0  0  0  0  2  0  0  0  0  0  0
  182.4560  179.4960  143.3970 C   0  0  1  0  0  3  0  0  0  0  0  0
  1  6  1  6  0  0  0
  1  9  1  0  0  0  0
  2  8  1  0  0  0  0
  3  2  1  0  0  0  0
  4  1  1  0  0  0  0
  4 11  1  0  0  0  0
  5  8  1  0  0  0  0
  5 21  1  1  0  0  0
  7  5  1  0  0  0  0
  8 12  1  6  0  0  0
  9  3  2  0  0  0  0
 10 11  1  6  0  0  0
 10  3  1  0  0  0  0
 10  7  1  0  0  0  0
 12 13  1  6  0  0  0
 12 15  1  0  0  0  0
 15 17  1  0  0  0  0
 15 18  1  0  0  0  0
 15 14  1  1  0  0  0
 17 16  1  0  0  0  0
 18 19  1  0  0  0  0
 19 20  2  0  0  0  0
 22 24  1  0  0  0  0
 23 21  1  0  0  0  0
 23 22  1  0  0  0  0
 23 24  1  0  0  0  0
 25 23  1  0  0  0  0
 26 25  1  0  0  0  0
 27 26  1  0  0  0  0
 28 29  1  1  0  0  0
 28 31  1  0  0  0  0
 28 30  1  0  0  0  0
 31 27  1  6  0  0  0
 31 30  1  0  0  0  0
M  END
>  <MODEL>
6

>  <REMARK>
 VINA RESULT:      -7.4      3.092      8.613
  Name = 
  11 active torsions:
  status: ('A' for Active; 'I' for Inactive)
    1  A    between atoms: C_5  and  C_21
    2  A    between atoms: C_5  and  C_31
    3  A    between atoms: C_6  and  C_7
    4  A    between atoms: C_6  and  C_19
    5  A    between atoms: C_7  and  C_9
    6  A    between atoms: C_9  and  C_23
    7  A    between atoms: C_15  and  C_23
    8  A    between atoms: C_17  and  C_30
    9  A    between atoms: O_18  and  C_31
   10  A    between atoms: C_19  and  C_24
   11  A    between atoms: C_30  and  C_31
                            x       y       z     vdW  Elec       q    Type
                         _______ _______ _______ _____ _____    ______ ____

>  <TORSDO>
F 11

$$$$
=
 OpenBabel10262419423D

 31 34  0  0  1  0  0  0  0  0999 V2000
  184.1910  178.9380  142.9350 C   0  0  1  0  0  3  0  0  0  0  0  0
  187.2960  176.8400  143.7450 C   0  0  0  0  0  2  0  0  0  0  0  0
  186.4040  177.9080  143.1650 C   0  0  0  0  0  0  0  0  0  0  0  0
  184.3220  178.8940  141.4060 C   0  0  0  0  0  2  0  0  0  0  0  0
  188.7780  177.2330  141.7520 C   0  0  2  0  0  3  0  0  0  0  0  0
  182.8790  178.6460  143.3070 O   0  0  0  0  0  1  0  0  0  0  0  0
  188.2280  178.6280  141.4770 C   0  0  0  0  0  2  0  0  0  0  0  0
  188.7400  176.8770  143.2440 C   0  0  1  0  0  3  0  0  0  0  0  0
  185.1320  177.9600  143.5770 C   0  0  0  0  0  3  0  0  0  0  0  0
  186.8160  178.8310  142.0290 C   0  0  1  0  0  3  0  0  0  0  0  0
  185.7780  178.7960  140.9010 C   0  0  0  0  0  2  0  0  0  0  0  0
  189.6540  177.7590  144.1160 C   0  0  1  0  0  3  0  0  0  0  0  0
  188.9440  178.5020  145.0460 F   0  0  0  0  0  0  0  0  0  0  0  0
  191.1010  175.8840  144.0660 O   0  0  0  0  0  1  0  0  0  0  0  0
  190.8980  177.0840  144.7520 C   0  0  1  0  0  0  0  0  0  0  0  0
  191.6810  179.0090  143.9910 O   0  0  0  0  0  1  0  0  0  0  0  0
  192.0540  177.8730  144.5500 O   0  0  0  0  0  0  0  0  0  0  0  0
  190.7320  176.7490  146.2520 C   0  0  0  0  0  2  0  0  0  0  0  0
  191.9420  176.1200  146.8750 C   0  0  0  0  0  3  0  0  0  0  0  0
  192.4260  176.5810  147.8960 O   0  0  0  0  0  0  0  0  0  0  0  0
  190.1000  176.9290  141.0350 C   0  0  0  0  0  2  0  0  0  0  0  0
  190.1780  176.0020  138.6810 C   0  0  0  0  0  2  0  0  0  0  0  0
  190.1480  177.2500  139.5370 C   0  0  0  0  0  0  0  0  0  0  0  0
  191.4130  176.8810  138.7970 C   0  0  0  0  0  2  0  0  0  0  0  0
  189.3210  178.3710  138.9230 C   0  0  0  0  0  2  0  0  0  0  0  0
  189.3050  178.2660  137.4090 C   0  0  0  0  0  2  0  0  0  0  0  0
  187.9210  178.6060  136.8960 C   0  0  0  0  0  2  0  0  0  0  0  0
  185.7190  177.5050  136.8250 C   0  0  2  0  0  3  0  0  0  0  0  0
  184.5770  177.3410  137.6070 O   0  0  0  0  0  1  0  0  0  0  0  0
  186.7420  176.4580  137.2070 C   0  0  0  0  0  2  0  0  0  0  0  0
  186.8830  177.8750  137.7190 C   0  0  1  0  0  3  0  0  0  0  0  0
  1  6  1  6  0  0  0
  1  9  1  0  0  0  0
  3  9  2  0  0  0  0
  3  2  1  0  0  0  0
  4  1  1  0  0  0  0
  5 21  1  1  0  0  0
  5  8  1  0  0  0  0
  7  5  1  0  0  0  0
  7 10  1  0  0  0  0
  8  2  1  0  0  0  0
  8 12  1  1  0  0  0
 10 11  1  6  0  0  0
 10  3  1  0  0  0  0
 11  4  1  0  0  0  0
 12 15  1  0  0  0  0
 12 13  1  1  0  0  0
 15 14  1  6  0  0  0
 15 18  1  0  0  0  0
 16 17  1  0  0  0  0
 17 15  1  0  0  0  0
 18 19  1  0  0  0  0
 19 20  2  0  0  0  0
 22 24  1  0  0  0  0
 22 23  1  0  0  0  0
 23 21  1  0  0  0  0
 24 23  1  0  0  0  0
 25 23  1  0  0  0  0
 26 25  1  0  0  0  0
 27 26  1  0  0  0  0
 28 30  1  0  0  0  0
 28 29  1  1  0  0  0
 28 31  1  0  0  0  0
 30 31  1  0  0  0  0
 31 27  1  6  0  0  0
M  END
>  <MODEL>
7

>  <REMARK>
 VINA RESULT:      -7.3      2.222      6.844
  Name = 
  11 active torsions:
  status: ('A' for Active; 'I' for Inactive)
    1  A    between atoms: C_5  and  C_21
    2  A    between atoms: C_5  and  C_31
    3  A    between atoms: C_6  and  C_7
    4  A    between atoms: C_6  and  C_19
    5  A    between atoms: C_7  and  C_9
    6  A    between atoms: C_9  and  C_23
    7  A    between atoms: C_15  and  C_23
    8  A    between atoms: C_17  and  C_30
    9  A    between atoms: O_18  and  C_31
   10  A    between atoms: C_19  and  C_24
   11  A    between atoms: C_30  and  C_31
                            x       y       z     vdW  Elec       q    Type
                         _______ _______ _______ _____ _____    ______ ____

>  <TORSDO>
F 11

$$$$
=
 OpenBabel10262419423D

 31 34  0  0  1  0  0  0  0  0999 V2000
  191.1310  176.4000  146.6820 C   0  0  1  0  0  3  0  0  0  0  0  0
  188.7480  178.4080  144.4490 C   0  0  0  0  0  2  0  0  0  0  0  0
  189.5870  177.2800  144.9920 C   0  0  0  0  0  0  0  0  0  0  0  0
  192.0910  175.9390  145.5750 C   0  0  0  0  0  2  0  0  0  0  0  0
  188.9900  177.2850  142.2120 C   0  0  2  0  0  3  0  0  0  0  0  0
  191.8580  176.8930  147.7640 O   0  0  0  0  0  1  0  0  0  0  0  0
  189.3210  175.9210  142.8070 C   0  0  0  0  0  2  0  0  0  0  0  0
  188.0600  178.1030  143.1170 C   0  0  1  0  0  3  0  0  0  0  0  0
  190.1980  177.4590  146.1690 C   0  0  0  0  0  3  0  0  0  0  0  0
  189.9090  176.0130  144.2160 C   0  0  1  0  0  3  0  0  0  0  0  0
  191.4210  175.7600  144.1950 C   0  0  0  0  0  2  0  0  0  0  0  0
  186.6610  177.4830  143.2940 C   0  0  1  0  0  3  0  0  0  0  0  0
  186.5480  176.7530  144.4660 F   0  0  0  0  0  0  0  0  0  0  0  0
  184.3740  177.5970  142.6870 O   0  0  0  0  0  1  0  0  0  0  0  0
  185.4380  178.4140  143.0780 C   0  0  1  0  0  0  0  0  0  0  0  0
  184.3700  180.1190  144.0000 O   0  0  0  0  0  1  0  0  0  0  0  0
  185.0580  179.0310  144.2920 O   0  0  0  0  0  0  0  0  0  0  0  0
  185.6470  179.4790  141.9770 C   0  0  0  0  0  2  0  0  0  0  0  0
  185.2730  179.0170  140.6020 C   0  0  0  0  0  3  0  0  0  0  0  0
  184.6460  179.7450  139.8500 O   0  0  0  0  0  0  0  0  0  0  0  0
  188.5960  177.2420  140.7290 C   0  0  0  0  0  2  0  0  0  0  0  0
  190.5110  176.4430  139.2800 C   0  0  0  0  0  2  0  0  0  0  0  0
  189.6880  177.6310  139.7270 C   0  0  0  0  0  0  0  0  0  0  0  0
  191.1210  177.4980  140.1880 C   0  0  0  0  0  2  0  0  0  0  0  0
  189.4390  178.6340  138.6090 C   0  0  0  0  0  2  0  0  0  0  0  0
  189.4490  177.9500  137.2540 C   0  0  0  0  0  2  0  0  0  0  0  0
  188.1320  178.2050  136.5520 C   0  0  0  0  0  2  0  0  0  0  0  0
  185.8240  177.3440  136.5800 C   0  0  2  0  0  3  0  0  0  0  0  0
  184.6450  177.4640  137.3130 O   0  0  0  0  0  1  0  0  0  0  0  0
  186.7100  176.3000  137.2250 C   0  0  0  0  0  2  0  0  0  0  0  0
  186.9900  177.7710  137.4460 C   0  0  1  0  0  3  0  0  0  0  0  0
  1  6  1  1  0  0  0
  2  3  1  0  0  0  0
  3  9  2  0  0  0  0
  4  1  1  0  0  0  0
  5 21  1  6  0  0  0
  5  7  1  0  0  0  0
  5  8  1  0  0  0  0
  8 12  1  1  0  0  0
  8  2  1  0  0  0  0
  9  1  1  0  0  0  0
 10  7  1  6  0  0  0
 10  3  1  0  0  0  0
 11 10  1  0  0  0  0
 11  4  1  0  0  0  0
 12 13  1  1  0  0  0
 15 14  1  6  0  0  0
 15 12  1  0  0  0  0
 15 17  1  0  0  0  0
 16 17  1  0  0  0  0
 18 15  1  0  0  0  0
 19 18  1  0  0  0  0
 20 19  2  0  0  0  0
 22 23  1  0  0  0  0
 22 24  1  0  0  0  0
 23 24  1  0  0  0  0
 23 21  1  0  0  0  0
 25 23  1  0  0  0  0
 26 25  1  0  0  0  0
 27 26  1  0  0  0  0
 28 30  1  0  0  0  0
 28 29  1  1  0  0  0
 28 31  1  0  0  0  0
 30 31  1  0  0  0  0
 31 27  1  6  0  0  0
M  END
>  <MODEL>
8

>  <REMARK>
 VINA RESULT:      -6.8      1.846      5.411
  Name = 
  11 active torsions:
  status: ('A' for Active; 'I' for Inactive)
    1  A    between atoms: C_5  and  C_21
    2  A    between atoms: C_5  and  C_31
    3  A    between atoms: C_6  and  C_7
    4  A    between atoms: C_6  and  C_19
    5  A    between atoms: C_7  and  C_9
    6  A    between atoms: C_9  and  C_23
    7  A    between atoms: C_15  and  C_23
    8  A    between atoms: C_17  and  C_30
    9  A    between atoms: O_18  and  C_31
   10  A    between atoms: C_19  and  C_24
   11  A    between atoms: C_30  and  C_31
                            x       y       z     vdW  Elec       q    Type
                         _______ _______ _______ _____ _____    ______ ____

>  <TORSDO>
F 11

$$$$
=
 OpenBabel10262419423D

 31 34  0  0  1  0  0  0  0  0999 V2000
  179.9730  179.7090  138.9200 C   0  0  1  0  0  3  0  0  0  0  0  0
  183.7980  179.9200  139.0640 C   0  0  0  0  0  2  0  0  0  0  0  0
  182.3870  179.4220  139.2420 C   0  0  0  0  0  0  0  0  0  0  0  0
  179.7370  179.4620  140.4170 C   0  0  0  0  0  2  0  0  0  0  0  0
  184.3650  178.5230  141.0770 C   0  0  2  0  0  3  0  0  0  0  0  0
  179.1100  180.7030  138.4630 O   0  0  0  0  0  1  0  0  0  0  0  0
  183.1510  177.6130  140.9270 C   0  0  0  0  0  2  0  0  0  0  0  0
  184.8670  179.0490  139.7260 C   0  0  1  0  0  3  0  0  0  0  0  0
  181.3970  180.1140  138.6670 C   0  0  0  0  0  3  0  0  0  0  0  0
  182.0030  178.2730  140.1620 C   0  0  1  0  0  3  0  0  0  0  0  0
  180.8810  178.6970  141.1170 C   0  0  0  0  0  2  0  0  0  0  0  0
  185.4060  177.9490  138.7920 C   0  0  1  0  0  3  0  0  0  0  0  0
  184.5350  177.6600  137.7550 F   0  0  0  0  0  0  0  0  0  0  0  0
  186.8470  179.0350  137.2570 O   0  0  0  0  0  1  0  0  0  0  0  0
  186.8670  178.0940  138.2900 C   0  0  1  0  0  0  0  0  0  0  0  0
  188.8620  178.9250  138.7670 O   0  0  0  0  0  1  0  0  0  0  0  0
  187.6970  178.6190  139.3070 O   0  0  0  0  0  0  0  0  0  0  0  0
  187.4690  176.7860  137.7270 C   0  0  0  0  0  2  0  0  0  0  0  0
  187.3930  176.6720  136.2340 C   0  0  0  0  0  3  0  0  0  0  0  0
  186.4360  176.1360  135.7000 O   0  0  0  0  0  0  0  0  0  0  0  0
  185.4480  177.9720  142.0140 C   0  0  0  0  0  2  0  0  0  0  0  0
  183.9750  178.6450  143.9580 C   0  0  0  0  0  2  0  0  0  0  0  0
  185.3940  178.4510  143.4690 C   0  0  0  0  0  0  0  0  0  0  0  0
  184.8710  179.8480  143.7110 C   0  0  0  0  0  2  0  0  0  0  0  0
  186.3200  177.8920  144.5400 C   0  0  0  0  0  2  0  0  0  0  0  0
  185.7080  178.0460  145.9200 C   0  0  0  0  0  2  0  0  0  0  0  0
  186.7570  178.5640  146.8810 C   0  0  0  0  0  2  0  0  0  0  0  0
  189.0560  177.9740  147.5430 C   0  0  2  0  0  3  0  0  0  0  0  0
  189.9830  176.9440  147.3930 O   0  0  0  0  0  1  0  0  0  0  0  0
  188.1480  177.6660  148.7140 C   0  0  0  0  0  2  0  0  0  0  0  0
  187.6650  177.4280  147.3000 C   0  0  1  0  0  3  0  0  0  0  0  0
  1  6  1  1  0  0  0
  1  4  1  0  0  0  0
  2  3  1  0  0  0  0
  2  8  1  0  0  0  0
  3 10  1  0  0  0  0
  4 11  1  0  0  0  0
  5 21  1  6  0  0  0
  7  5  1  0  0  0  0
  8 12  1  6  0  0  0
  8  5  1  0  0  0  0
  9  1  1  0  0  0  0
  9  3  2  0  0  0  0
 10  7  1  1  0  0  0
 10 11  1  0  0  0  0
 12 13  1  6  0  0  0
 15 14  1  6  0  0  0
 15 12  1  0  0  0  0
 15 17  1  0  0  0  0
 16 17  1  0  0  0  0
 18 15  1  0  0  0  0
 19 18  1  0  0  0  0
 20 19  2  0  0  0  0
 21 23  1  0  0  0  0
 23 24  1  0  0  0  0
 23 22  1  0  0  0  0
 23 25  1  0  0  0  0
 24 22  1  0  0  0  0
 25 26  1  0  0  0  0
 26 27  1  0  0  0  0
 28 29  1  1  0  0  0
 28 30  1  0  0  0  0
 31 27  1  6  0  0  0
 31 28  1  0  0  0  0
 31 30  1  0  0  0  0
M  END
>  <MODEL>
9

>  <REMARK>
 VINA RESULT:      -6.7      2.883      5.526
  Name = 
  11 active torsions:
  status: ('A' for Active; 'I' for Inactive)
    1  A    between atoms: C_5  and  C_21
    2  A    between atoms: C_5  and  C_31
    3  A    between atoms: C_6  and  C_7
    4  A    between atoms: C_6  and  C_19
    5  A    between atoms: C_7  and  C_9
    6  A    between atoms: C_9  and  C_23
    7  A    between atoms: C_15  and  C_23
    8  A    between atoms: C_17  and  C_30
    9  A    between atoms: O_18  and  C_31
   10  A    between atoms: C_19  and  C_24
   11  A    between atoms: C_30  and  C_31
                            x       y       z     vdW  Elec       q    Type
                         _______ _______ _______ _____ _____    ______ ____

>  <TORSDO>
F 11

$$$$
