=
 OpenBabel10262422543D

 37 44  0  0  1  0  0  0  0  0999 V2000
  189.4530  176.7810  141.8060 O   0  0  0  0  0  0  0  0  0  0  0  0
  190.5910  175.9330  146.3310 C   0  0  0  0  0  2  0  0  0  0  0  0
  187.2320  178.3300  145.3090 C   0  0  2  0  0  3  0  0  0  0  0  0
  190.1970  177.3500  140.7540 C   0  0  2  0  0  3  0  0  0  0  0  0
  185.4880  177.9580  141.9690 C   0  0  0  0  0  2  0  0  0  0  0  0
  188.6360  177.4490  146.9420 C   0  0  1  0  0  0  0  0  0  0  0  0
  186.9980  178.4240  144.0230 C   0  0  2  0  0  3  0  0  0  0  0  0
  188.6410  178.3240  145.6850 C   0  0  1  0  0  3  0  0  0  0  0  0
  185.6180  178.3520  143.4240 C   0  0  0  0  0  0  0  0  0  0  0  0
  187.9820  178.1820  148.1000 C   0  0  0  0  0  2  0  0  0  0  0  0
  189.4480  177.2070  139.4210 C   0  0  0  0  0  2  0  0  0  0  0  0
  189.2600  177.8010  144.3990 C   0  0  2  0  0  3  0  0  0  0  0  0
  191.6830  177.2080  144.4680 C   0  0  0  0  0  2  0  0  0  0  0  0
  185.2090  178.5000  146.5610 C   0  0  0  0  0  3  0  0  0  0  0  0
  187.2140  177.0860  147.3710 C   0  0  1  0  0  3  0  0  0  0  0  0
  190.6750  178.3270  144.2410 C   0  0  0  0  0  2  0  0  0  0  0  0
  187.9810  177.6420  139.5450 C   0  0  1  0  0  3  0  0  0  0  0  0
  186.2990  178.8620  141.0500 C   0  0  0  0  0  2  0  0  0  0  0  0
  186.3380  177.6040  146.2200 C   0  0  2  0  0  3  0  0  0  0  0  0
  188.3280  178.3770  143.3160 C   0  0  1  0  0  3  0  0  0  0  0  0
  189.8070  176.6040  147.4450 C   0  0  0  0  0  2  0  0  0  0  0  0
  184.4710  178.6180  144.1330 C   0  0  0  0  0  0  0  0  0  0  0  0
  191.7650  176.8130  145.9350 C   0  0  0  0  0  2  0  0  0  0  0  0
  187.7480  178.3820  140.8660 C   0  0  1  0  0  3  0  0  0  0  0  0
  188.2660  177.5280  142.0490 C   0  0  1  0  0  3  0  0  0  0  0  0
  184.3910  178.9390  145.5960 C   0  0  0  0  0  3  0  0  0  0  0  0
  183.0930  178.6440  142.0550 C   0  0  0  0  0  3  0  0  0  0  0  0
  183.1590  178.6310  143.4550 C   0  0  0  0  0  0  0  0  0  0  0  0
  181.9710  178.6640  144.2030 C   0  0  0  0  0  3  0  0  0  0  0  0
  179.4790  178.7240  144.3530 C   0  0  0  0  0  1  0  0  0  0  0  0
  180.6750  178.6920  142.1580 C   0  0  0  0  0  3  0  0  0  0  0  0
  180.7330  178.6920  143.5560 C   0  0  0  0  0  0  0  0  0  0  0  0
  181.8550  178.6700  141.4080 C   0  0  0  0  0  3  0  0  0  0  0  0
  187.6150  178.5190  138.3570 C   0  0  0  0  0  2  0  0  0  0  0  0
  188.6990  179.3200  138.0000 O   0  0  0  0  0  1  0  0  0  0  0  0
  192.6490  177.4680  140.4510 C   0  0  0  0  0  2  0  0  0  0  0  0
  191.5590  176.7350  140.6800 C   0  0  0  0  0  3  0  0  0  0  0  0
  1 25  1  0  0  0  0
  2 21  1  0  0  0  0
  3  8  1  0  0  0  0
  3 19  1  0  0  0  0
  4  1  1  0  0  0  0
  5  9  1  0  0  0  0
  6 15  1  0  0  0  0
  6 21  1  0  0  0  0
  6 10  1  0  0  0  0
  7  3  1  0  0  0  0
  8  6  1  0  0  0  0
  9  7  1  0  0  0  0
  9 22  2  0  0  0  0
 11 17  1  0  0  0  0
 11  4  1  0  0  0  0
 12  8  1  0  0  0  0
 13 23  1  0  0  0  0
 15 10  1  0  0  0  0
 16 12  1  0  0  0  0
 16 13  1  0  0  0  0
 17 24  1  0  0  0  0
 18  5  1  0  0  0  0
 19 14  1  0  0  0  0
 19 15  1  0  0  0  0
 20  7  1  0  0  0  0
 20 12  1  0  0  0  0
 22 26  1  0  0  0  0
 23  2  1  0  0  0  0
 24 18  1  0  0  0  0
 24 25  1  0  0  0  0
 25 20  1  0  0  0  0
 26 14  2  0  0  0  0
 27 28  1  0  0  0  0
 28 22  1  0  0  0  0
 28 29  2  0  0  0  0
 31 32  2  0  0  0  0
 32 29  1  0  0  0  0
 32 30  1  0  0  0  0
 33 27  2  0  0  0  0
 33 31  1  0  0  0  0
 34 17  1  0  0  0  0
 35 34  1  0  0  0  0
 36 37  2  0  0  0  0
 37  4  1  0  0  0  0
M  END
>  <MODEL>
1

>  <REMARK>
 VINA RESULT:     -12.0      0.000      0.000
  Name = 
  3 active torsions:
  status: ('A' for Active; 'I' for Inactive)
    1  A    between atoms: C_5  and  C_23
    2  A    between atoms: C_6  and  C_31
    3  A    between atoms: C_11  and  C_26
                            x       y       z     vdW  Elec       q    Type
                         _______ _______ _______ _____ _____    ______ ____

>  <TORSDO>
F 3

$$$$
=
 OpenBabel10262422543D

 37 44  0  0  1  0  0  0  0  0999 V2000
  186.8340  177.3330  144.4480 O   0  0  0  0  0  0  0  0  0  0  0  0
  182.6830  178.1150  142.2910 C   0  0  0  0  0  2  0  0  0  0  0  0
  186.3690  178.5900  140.2280 C   0  0  2  0  0  3  0  0  0  0  0  0
  187.3950  177.8970  145.6100 C   0  0  2  0  0  3  0  0  0  0  0  0
  189.4960  176.7610  141.3300 C   0  0  0  0  0  2  0  0  0  0  0  0
  184.0510  178.7790  140.2470 C   0  0  1  0  0  0  0  0  0  0  0  0
  187.4320  178.2760  140.9280 C   0  0  2  0  0  3  0  0  0  0  0  0
  185.3090  179.2580  140.9760 C   0  0  1  0  0  3  0  0  0  0  0  0
  188.5940  177.5010  140.3660 C   0  0  0  0  0  0  0  0  0  0  0  0
  183.9510  179.4230  138.8750 C   0  0  0  0  0  2  0  0  0  0  0  0
  188.6750  177.1490  146.0120 C   0  0  0  0  0  2  0  0  0  0  0  0
  185.6110  178.7540  142.3780 C   0  0  2  0  0  3  0  0  0  0  0  0
  183.9250  179.2550  144.1470 C   0  0  0  0  0  2  0  0  0  0  0  0
  186.7270  178.1930  137.9040 C   0  0  0  0  0  3  0  0  0  0  0  0
  184.3960  177.9700  138.9960 C   0  0  1  0  0  3  0  0  0  0  0  0
  185.1560  179.7680  143.4120 C   0  0  0  0  0  2  0  0  0  0  0  0
  189.6160  176.9510  144.8150 C   0  0  1  0  0  3  0  0  0  0  0  0
  190.0780  177.6770  142.3980 C   0  0  0  0  0  2  0  0  0  0  0  0
  185.9200  177.7930  139.0800 C   0  0  2  0  0  3  0  0  0  0  0  0
  187.1470  178.6220  142.3660 C   0  0  1  0  0  3  0  0  0  0  0  0
  182.6600  178.6390  140.8660 C   0  0  0  0  0  2  0  0  0  0  0  0
  188.8740  177.4230  139.0220 C   0  0  0  0  0  0  0  0  0  0  0  0
  182.6880  179.2840  143.2630 C   0  0  0  0  0  2  0  0  0  0  0  0
  189.1690  177.8140  143.6300 C   0  0  1  0  0  3  0  0  0  0  0  0
  187.6740  177.5540  143.3210 C   0  0  1  0  0  3  0  0  0  0  0  0
  188.0540  178.0140  137.9140 C   0  0  0  0  0  3  0  0  0  0  0  0
  191.3540  177.2850  138.8020 C   0  0  0  0  0  3  0  0  0  0  0  0
  190.0910  176.7330  138.5500 C   0  0  0  0  0  0  0  0  0  0  0  0
  189.9940  175.5380  137.8190 C   0  0  0  0  0  3  0  0  0  0  0  0
  191.0380  173.6300  136.5920 C   0  0  0  0  0  1  0  0  0  0  0  0
  192.4050  175.4470  137.6290 C   0  0  0  0  0  3  0  0  0  0  0  0
  191.1470  174.8960  137.3630 C   0  0  0  0  0  0  0  0  0  0  0  0
  192.5080  176.6430  138.3470 C   0  0  0  0  0  3  0  0  0  0  0  0
  191.0380  177.2940  145.2320 C   0  0  0  0  0  2  0  0  0  0  0  0
  191.7670  176.1270  145.4570 O   0  0  0  0  0  1  0  0  0  0  0  0
  185.8330  179.0320  147.1550 C   0  0  0  0  0  2  0  0  0  0  0  0
  186.3980  177.9030  146.7270 C   0  0  0  0  0  3  0  0  0  0  0  0
  1  4  1  0  0  0  0
  2 23  1  0  0  0  0
  3  7  1  0  0  0  0
  3  8  1  0  0  0  0
  4 11  1  0  0  0  0
  4 37  1  0  0  0  0
  5 18  1  0  0  0  0
  6 21  1  0  0  0  0
  6  8  1  0  0  0  0
  7 20  1  0  0  0  0
  8 12  1  0  0  0  0
  9  7  1  0  0  0  0
  9  5  1  0  0  0  0
 10 15  1  0  0  0  0
 10  6  1  0  0  0  0
 12 16  1  0  0  0  0
 14 26  2  0  0  0  0
 14 19  1  0  0  0  0
 15 19  1  0  0  0  0
 15  6  1  0  0  0  0
 16 13  1  0  0  0  0
 17 34  1  0  0  0  0
 17 11  1  0  0  0  0
 18 24  1  0  0  0  0
 19  3  1  0  0  0  0
 20 12  1  0  0  0  0
 20 25  1  0  0  0  0
 21  2  1  0  0  0  0
 22  9  2  0  0  0  0
 23 13  1  0  0  0  0
 24 17  1  0  0  0  0
 25 24  1  0  0  0  0
 25  1  1  0  0  0  0
 26 22  1  0  0  0  0
 28 27  1  0  0  0  0
 28 22  1  0  0  0  0
 29 28  2  0  0  0  0
 30 32  1  0  0  0  0
 31 33  1  0  0  0  0
 32 31  2  0  0  0  0
 32 29  1  0  0  0  0
 33 27  2  0  0  0  0
 34 35  1  0  0  0  0
 37 36  2  0  0  0  0
M  END
>  <MODEL>
2

>  <REMARK>
 VINA RESULT:     -11.4      2.000      8.044
  Name = 
  3 active torsions:
  status: ('A' for Active; 'I' for Inactive)
    1  A    between atoms: C_5  and  C_23
    2  A    between atoms: C_6  and  C_31
    3  A    between atoms: C_11  and  C_26
                            x       y       z     vdW  Elec       q    Type
                         _______ _______ _______ _____ _____    ______ ____

>  <TORSDO>
F 3

$$$$
=
 OpenBabel10262422543D

 37 44  0  0  1  0  0  0  0  0999 V2000
  184.3360  177.6070  141.3600 O   0  0  0  0  0  0  0  0  0  0  0  0
  186.4240  176.4700  137.2570 C   0  0  0  0  0  2  0  0  0  0  0  0
  188.6810  177.9010  140.5630 C   0  0  2  0  0  3  0  0  0  0  0  0
  183.3020  178.5180  141.6530 C   0  0  2  0  0  3  0  0  0  0  0  0
  187.4230  177.5340  144.1160 C   0  0  0  0  0  2  0  0  0  0  0  0
  188.6010  177.2390  138.3340 C   0  0  1  0  0  0  0  0  0  0  0  0
  187.9820  178.1120  141.6520 C   0  0  2  0  0  3  0  0  0  0  0  0
  188.0090  178.2530  139.3170 C   0  0  1  0  0  3  0  0  0  0  0  0
  188.4570  177.7280  143.0290 C   0  0  0  0  0  0  0  0  0  0  0  0
  190.0530  177.5680  138.0380 C   0  0  0  0  0  2  0  0  0  0  0  0
  182.8360  178.3610  143.1080 C   0  0  0  0  0  2  0  0  0  0  0  0
  186.5570  178.1300  139.7510 C   0  0  2  0  0  3  0  0  0  0  0  0
  184.8260  178.2700  137.9600 C   0  0  0  0  0  2  0  0  0  0  0  0
  190.9230  177.2840  141.0910 C   0  0  0  0  0  3  0  0  0  0  0  0
  189.7180  176.4160  138.9770 C   0  0  1  0  0  3  0  0  0  0  0  0
  185.6820  179.0650  138.9360 C   0  0  0  0  0  2  0  0  0  0  0  0
  184.0220  178.3240  144.0820 C   0  0  1  0  0  3  0  0  0  0  0  0
  186.5410  178.7610  144.3020 C   0  0  0  0  0  2  0  0  0  0  0  0
  189.6670  176.8190  140.4590 C   0  0  2  0  0  3  0  0  0  0  0  0
  186.6080  178.5620  141.2290 C   0  0  1  0  0  3  0  0  0  0  0  0
  187.9130  176.7090  137.0760 C   0  0  0  0  0  2  0  0  0  0  0  0
  189.7810  177.5380  143.3460 C   0  0  0  0  0  0  0  0  0  0  0  0
  185.6530  177.7040  136.8160 C   0  0  0  0  0  2  0  0  0  0  0  0
  185.3120  178.7590  143.3790 C   0  0  1  0  0  3  0  0  0  0  0  0
  185.5160  177.9290  142.0880 C   0  0  1  0  0  3  0  0  0  0  0  0
  190.9370  177.6020  142.3920 C   0  0  0  0  0  3  0  0  0  0  0  0
  191.3080  176.4720  145.0050 C   0  0  0  0  0  3  0  0  0  0  0  0
  190.1840  177.2670  144.7410 C   0  0  0  0  0  0  0  0  0  0  0  0
  189.4290  177.7740  145.8110 C   0  0  0  0  0  3  0  0  0  0  0  0
  189.0050  178.0440  148.2570 C   0  0  0  0  0  1  0  0  0  0  0  0
  190.9360  176.7180  147.3850 C   0  0  0  0  0  3  0  0  0  0  0  0
  189.8060  177.5030  147.1290 C   0  0  0  0  0  0  0  0  0  0  0  0
  191.6850  176.2020  146.3230 C   0  0  0  0  0  3  0  0  0  0  0  0
  183.7220  179.2210  145.2730 C   0  0  0  0  0  2  0  0  0  0  0  0
  184.1810  178.6280  146.4490 O   0  0  0  0  0  1  0  0  0  0  0  0
  181.9680  177.2070  140.0350 C   0  0  0  0  0  2  0  0  0  0  0  0
  182.1630  178.3470  140.6980 C   0  0  0  0  0  3  0  0  0  0  0  0
  1  4  1  0  0  0  0
  1 25  1  0  0  0  0
  3  7  1  0  0  0  0
  4 11  1  0  0  0  0
  5 18  1  0  0  0  0
  6 15  1  0  0  0  0
  6  8  1  0  0  0  0
  7  9  1  0  0  0  0
  8 12  1  0  0  0  0
  8  3  1  0  0  0  0
  9 22  2  0  0  0  0
  9  5  1  0  0  0  0
 10  6  1  0  0  0  0
 10 15  1  0  0  0  0
 11 17  1  0  0  0  0
 12 20  1  0  0  0  0
 13 16  1  0  0  0  0
 14 26  2  0  0  0  0
 15 19  1  0  0  0  0
 16 12  1  0  0  0  0
 17 34  1  0  0  0  0
 19  3  1  0  0  0  0
 19 14  1  0  0  0  0
 20  7  1  0  0  0  0
 20 25  1  0  0  0  0
 21  2  1  0  0  0  0
 21  6  1  0  0  0  0
 22 28  1  0  0  0  0
 23  2  1  0  0  0  0
 23 13  1  0  0  0  0
 24 17  1  0  0  0  0
 24 18  1  0  0  0  0
 25 24  1  0  0  0  0
 26 22  1  0  0  0  0
 27 33  1  0  0  0  0
 28 27  2  0  0  0  0
 28 29  1  0  0  0  0
 29 32  2  0  0  0  0
 32 31  1  0  0  0  0
 32 30  1  0  0  0  0
 33 31  2  0  0  0  0
 34 35  1  0  0  0  0
 36 37  2  0  0  0  0
 37  4  1  0  0  0  0
M  END
>  <MODEL>
3

>  <REMARK>
 VINA RESULT:     -11.2      1.961      7.844
  Name = 
  3 active torsions:
  status: ('A' for Active; 'I' for Inactive)
    1  A    between atoms: C_5  and  C_23
    2  A    between atoms: C_6  and  C_31
    3  A    between atoms: C_11  and  C_26
                            x       y       z     vdW  Elec       q    Type
                         _______ _______ _______ _____ _____    ______ ____

>  <TORSDO>
F 3

$$$$
=
 OpenBabel10262422543D

 37 44  0  0  1  0  0  0  0  0999 V2000
  186.8460  177.3400  144.5040 O   0  0  0  0  0  0  0  0  0  0  0  0
  182.5990  178.1990  142.5750 C   0  0  0  0  0  2  0  0  0  0  0  0
  186.1780  178.6330  140.3220 C   0  0  2  0  0  3  0  0  0  0  0  0
  187.4760  177.8870  145.6380 C   0  0  2  0  0  3  0  0  0  0  0  0
  189.3300  176.7490  141.2460 C   0  0  0  0  0  2  0  0  0  0  0  0
  183.8670  178.8570  140.4650 C   0  0  1  0  0  0  0  0  0  0  0  0
  187.2720  178.2980  140.9630 C   0  0  2  0  0  3  0  0  0  0  0  0
  185.1690  179.3110  141.1300 C   0  0  1  0  0  3  0  0  0  0  0  0
  188.3900  177.5090  140.3360 C   0  0  0  0  0  0  0  0  0  0  0  0
  183.7040  179.5110  139.1050 C   0  0  0  0  0  2  0  0  0  0  0  0
  188.7640  177.1170  145.9670 C   0  0  0  0  0  2  0  0  0  0  0  0
  185.5380  178.7940  142.5110 C   0  0  2  0  0  3  0  0  0  0  0  0
  183.9550  179.3070  144.3700 C   0  0  0  0  0  2  0  0  0  0  0  0
  186.4060  178.2470  137.9800 C   0  0  0  0  0  3  0  0  0  0  0  0
  184.1330  178.0520  139.1930 C   0  0  1  0  0  3  0  0  0  0  0  0
  185.1530  179.8070  143.5740 C   0  0  0  0  0  2  0  0  0  0  0  0
  189.6370  176.9140  144.7200 C   0  0  1  0  0  3  0  0  0  0  0  0
  189.9820  177.6500  142.2870 C   0  0  0  0  0  2  0  0  0  0  0  0
  185.6560  177.8510  139.1950 C   0  0  2  0  0  3  0  0  0  0  0  0
  187.0680  178.6380  142.4170 C   0  0  1  0  0  3  0  0  0  0  0  0
  182.5080  178.7340  141.1570 C   0  0  0  0  0  2  0  0  0  0  0  0
  188.5970  177.4370  138.9780 C   0  0  0  0  0  0  0  0  0  0  0  0
  182.6730  179.3610  143.5530 C   0  0  0  0  0  2  0  0  0  0  0  0
  189.1410  177.7910  143.5670 C   0  0  1  0  0  3  0  0  0  0  0  0
  187.6290  177.5560  143.3350 C   0  0  1  0  0  3  0  0  0  0  0  0
  187.7290  178.0480  137.9190 C   0  0  0  0  0  3  0  0  0  0  0  0
  189.6090  175.6720  137.5360 C   0  0  0  0  0  3  0  0  0  0  0  0
  189.7770  176.7310  138.4380 C   0  0  0  0  0  0  0  0  0  0  0  0
  191.0710  177.0920  138.8470 C   0  0  0  0  0  3  0  0  0  0  0  0
  193.5500  176.8000  138.7780 C   0  0  0  0  0  1  0  0  0  0  0  0
  192.0080  175.3640  137.4350 C   0  0  0  0  0  3  0  0  0  0  0  0
  192.1830  176.4120  138.3440 C   0  0  0  0  0  0  0  0  0  0  0  0
  190.7210  174.9930  137.0330 C   0  0  0  0  0  3  0  0  0  0  0  0
  191.0840  177.2330  145.0640 C   0  0  0  0  0  2  0  0  0  0  0  0
  191.3890  176.7660  146.3420 O   0  0  0  0  0  1  0  0  0  0  0  0
  186.0670  179.0400  147.3120 C   0  0  0  0  0  2  0  0  0  0  0  0
  186.5400  177.9010  146.8060 C   0  0  0  0  0  3  0  0  0  0  0  0
  1  4  1  0  0  0  0
  2 23  1  0  0  0  0
  3  7  1  0  0  0  0
  3  8  1  0  0  0  0
  4 11  1  0  0  0  0
  4 37  1  0  0  0  0
  5 18  1  0  0  0  0
  6  8  1  0  0  0  0
  6 21  1  0  0  0  0
  7 20  1  0  0  0  0
  8 12  1  0  0  0  0
  9  7  1  0  0  0  0
  9  5  1  0  0  0  0
 10 15  1  0  0  0  0
 10  6  1  0  0  0  0
 12 16  1  0  0  0  0
 14 19  1  0  0  0  0
 15 19  1  0  0  0  0
 15  6  1  0  0  0  0
 16 13  1  0  0  0  0
 17 34  1  0  0  0  0
 17 11  1  0  0  0  0
 18 24  1  0  0  0  0
 19  3  1  0  0  0  0
 20 12  1  0  0  0  0
 20 25  1  0  0  0  0
 21  2  1  0  0  0  0
 22  9  2  0  0  0  0
 23 13  1  0  0  0  0
 24 17  1  0  0  0  0
 25 24  1  0  0  0  0
 25  1  1  0  0  0  0
 26 14  2  0  0  0  0
 26 22  1  0  0  0  0
 27 28  1  0  0  0  0
 28 29  2  0  0  0  0
 28 22  1  0  0  0  0
 31 32  2  0  0  0  0
 32 30  1  0  0  0  0
 32 29  1  0  0  0  0
 33 31  1  0  0  0  0
 33 27  2  0  0  0  0
 34 35  1  0  0  0  0
 37 36  2  0  0  0  0
M  END
>  <MODEL>
4

>  <REMARK>
 VINA RESULT:     -11.0      1.912      7.982
  Name = 
  3 active torsions:
  status: ('A' for Active; 'I' for Inactive)
    1  A    between atoms: C_5  and  C_23
    2  A    between atoms: C_6  and  C_31
    3  A    between atoms: C_11  and  C_26
                            x       y       z     vdW  Elec       q    Type
                         _______ _______ _______ _____ _____    ______ ____

>  <TORSDO>
F 3

$$$$
=
 OpenBabel10262422543D

 37 44  0  0  1  0  0  0  0  0999 V2000
  183.0700  177.7830  141.2200 O   0  0  0  0  0  0  0  0  0  0  0  0
  183.6680  176.6830  136.6460 C   0  0  0  0  0  2  0  0  0  0  0  0
  186.8580  178.2530  138.9770 C   0  0  2  0  0  3  0  0  0  0  0  0
  182.1610  178.6520  141.8530 C   0  0  2  0  0  3  0  0  0  0  0  0
  186.9170  177.8780  142.7440 C   0  0  0  0  0  2  0  0  0  0  0  0
  186.0460  177.5590  136.9100 C   0  0  1  0  0  0  0  0  0  0  0  0
  186.5680  178.4480  140.2400 C   0  0  2  0  0  3  0  0  0  0  0  0
  185.7830  178.5590  138.0390 C   0  0  1  0  0  3  0  0  0  0  0  0
  187.5050  178.1030  141.3680 C   0  0  0  0  0  0  0  0  0  0  0  0
  187.2920  177.9470  136.1320 C   0  0  0  0  0  2  0  0  0  0  0  0
  182.2310  178.4940  143.3790 C   0  0  0  0  0  2  0  0  0  0  0  0
  184.5760  178.3800  138.9460 C   0  0  2  0  0  3  0  0  0  0  0  0
  182.3300  178.4220  137.8600 C   0  0  0  0  0  2  0  0  0  0  0  0
  189.1710  177.7400  138.6990 C   0  0  0  0  0  3  0  0  0  0  0  0
  187.3520  176.7940  137.1260 C   0  0  1  0  0  3  0  0  0  0  0  0
  183.4330  179.2660  138.4840 C   0  0  0  0  0  2  0  0  0  0  0  0
  183.6810  178.5200  143.8850 C   0  0  1  0  0  3  0  0  0  0  0  0
  186.0990  179.0680  143.2260 C   0  0  0  0  0  2  0  0  0  0  0  0
  187.7960  177.2130  138.5370 C   0  0  2  0  0  3  0  0  0  0  0  0
  185.1140  178.8330  140.3170 C   0  0  1  0  0  3  0  0  0  0  0  0
  184.9920  176.9840  135.9640 C   0  0  0  0  0  2  0  0  0  0  0  0
  188.8640  177.9740  141.2100 C   0  0  0  0  0  0  0  0  0  0  0  0
  182.7390  177.8770  136.5000 C   0  0  0  0  0  2  0  0  0  0  0  0
  184.6280  179.0020  142.7820 C   0  0  1  0  0  3  0  0  0  0  0  0
  184.4130  178.1650  141.4980 C   0  0  1  0  0  3  0  0  0  0  0  0
  189.6170  178.0750  139.9170 C   0  0  0  0  0  3  0  0  0  0  0  0
  190.0490  178.7960  143.2440 C   0  0  0  0  0  3  0  0  0  0  0  0
  189.7340  177.7380  142.3800 C   0  0  0  0  0  0  0  0  0  0  0  0
  190.2770  176.4660  142.6190 C   0  0  0  0  0  3  0  0  0  0  0  0
  191.6800  174.9020  143.9690 C   0  0  0  0  0  1  0  0  0  0  0  0
  191.4110  177.3090  144.5840 C   0  0  0  0  0  3  0  0  0  0  0  0
  191.1110  176.2520  143.7190 C   0  0  0  0  0  0  0  0  0  0  0  0
  190.8820  178.5810  144.3450 C   0  0  0  0  0  3  0  0  0  0  0  0
  183.7690  179.4200  145.1090 C   0  0  0  0  0  2  0  0  0  0  0  0
  184.1800  178.6820  146.2180 O   0  0  0  0  0  1  0  0  0  0  0  0
  180.4510  177.3290  140.6530 C   0  0  0  0  0  2  0  0  0  0  0  0
  180.7710  178.4200  141.3480 C   0  0  0  0  0  3  0  0  0  0  0  0
  1 25  1  0  0  0  0
  1  4  1  0  0  0  0
  3  7  1  0  0  0  0
  4 11  1  0  0  0  0
  5 18  1  0  0  0  0
  6 15  1  0  0  0  0
  6  8  1  0  0  0  0
  7 20  1  0  0  0  0
  7  9  1  0  0  0  0
  8 12  1  0  0  0  0
  8  3  1  0  0  0  0
  9  5  1  0  0  0  0
 10  6  1  0  0  0  0
 10 15  1  0  0  0  0
 11 17  1  0  0  0  0
 12 20  1  0  0  0  0
 13 16  1  0  0  0  0
 14 26  2  0  0  0  0
 15 19  1  0  0  0  0
 16 12  1  0  0  0  0
 17 34  1  0  0  0  0
 19 14  1  0  0  0  0
 19  3  1  0  0  0  0
 20 25  1  0  0  0  0
 21  2  1  0  0  0  0
 21  6  1  0  0  0  0
 22  9  2  0  0  0  0
 22 28  1  0  0  0  0
 23  2  1  0  0  0  0
 23 13  1  0  0  0  0
 24 18  1  0  0  0  0
 24 17  1  0  0  0  0
 25 24  1  0  0  0  0
 26 22  1  0  0  0  0
 27 33  1  0  0  0  0
 28 29  1  0  0  0  0
 28 27  2  0  0  0  0
 29 32  2  0  0  0  0
 32 30  1  0  0  0  0
 32 31  1  0  0  0  0
 33 31  2  0  0  0  0
 34 35  1  0  0  0  0
 36 37  2  0  0  0  0
 37  4  1  0  0  0  0
M  END
>  <MODEL>
5

>  <REMARK>
 VINA RESULT:     -10.4      2.567      8.710
  Name = 
  3 active torsions:
  status: ('A' for Active; 'I' for Inactive)
    1  A    between atoms: C_5  and  C_23
    2  A    between atoms: C_6  and  C_31
    3  A    between atoms: C_11  and  C_26
                            x       y       z     vdW  Elec       q    Type
                         _______ _______ _______ _____ _____    ______ ____

>  <TORSDO>
F 3

$$$$
=
 OpenBabel10262422543D

 37 44  0  0  1  0  0  0  0  0999 V2000
  187.5680  177.2120  143.3590 O   0  0  0  0  0  0  0  0  0  0  0  0
  183.6430  177.5010  140.7120 C   0  0  0  0  0  2  0  0  0  0  0  0
  187.5050  177.9530  138.9940 C   0  0  2  0  0  3  0  0  0  0  0  0
  187.9730  177.9360  144.4970 C   0  0  2  0  0  3  0  0  0  0  0  0
  190.5750  176.4460  140.6200 C   0  0  0  0  0  2  0  0  0  0  0  0
  185.1920  178.0070  138.7530 C   0  0  1  0  0  0  0  0  0  0  0  0
  188.5000  177.7830  139.8310 C   0  0  2  0  0  3  0  0  0  0  0  0
  186.3410  178.6380  139.5450 C   0  0  1  0  0  3  0  0  0  0  0  0
  189.7500  177.0180  139.4880 C   0  0  0  0  0  0  0  0  0  0  0  0
  185.2120  178.4840  137.3110 C   0  0  0  0  0  2  0  0  0  0  0  0
  189.2350  177.3150  145.1140 C   0  0  0  0  0  2  0  0  0  0  0  0
  186.5130  178.3160  141.0210 C   0  0  2  0  0  3  0  0  0  0  0  0
  184.6230  178.9140  142.5360 C   0  0  0  0  0  2  0  0  0  0  0  0
  188.1310  177.3160  136.7830 C   0  0  0  0  0  3  0  0  0  0  0  0
  185.7080  177.0830  137.6490 C   0  0  1  0  0  3  0  0  0  0  0  0
  185.9020  179.4120  141.8750 C   0  0  0  0  0  2  0  0  0  0  0  0
  190.3080  177.0370  144.0510 C   0  0  1  0  0  3  0  0  0  0  0  0
  190.9950  177.5100  141.6250 C   0  0  0  0  0  2  0  0  0  0  0  0
  187.2200  177.0060  137.9090 C   0  0  2  0  0  3  0  0  0  0  0  0
  188.0450  178.2720  141.1810 C   0  0  1  0  0  3  0  0  0  0  0  0
  183.7500  177.8580  139.2390 C   0  0  0  0  0  2  0  0  0  0  0  0
  190.1770  176.8050  138.1980 C   0  0  0  0  0  0  0  0  0  0  0  0
  183.4890  178.7710  141.5330 C   0  0  0  0  0  2  0  0  0  0  0  0
  189.9530  177.7320  142.7330 C   0  0  1  0  0  3  0  0  0  0  0  0
  188.5150  177.3520  142.3050 C   0  0  1  0  0  3  0  0  0  0  0  0
  189.4560  177.2170  136.9500 C   0  0  0  0  0  3  0  0  0  0  0  0
  192.6670  176.7530  138.3240 C   0  0  0  0  0  3  0  0  0  0  0  0
  191.4690  176.1370  137.9380 C   0  0  0  0  0  0  0  0  0  0  0  0
  191.5100  174.8990  137.2770 C   0  0  0  0  0  3  0  0  0  0  0  0
  192.7720  172.9670  136.3240 C   0  0  0  0  0  1  0  0  0  0  0  0
  193.9270  174.8940  137.4200 C   0  0  0  0  0  3  0  0  0  0  0  0
  192.7350  174.2780  137.0210 C   0  0  0  0  0  0  0  0  0  0  0  0
  193.8920  176.1320  138.0690 C   0  0  0  0  0  3  0  0  0  0  0  0
  191.6600  177.5080  144.5670 C   0  0  0  0  0  2  0  0  0  0  0  0
  191.6870  177.4530  145.9600 O   0  0  0  0  0  1  0  0  0  0  0  0
  187.0270  177.6160  146.7590 C   0  0  0  0  0  2  0  0  0  0  0  0
  186.8620  178.0110  145.4970 C   0  0  0  0  0  3  0  0  0  0  0  0
  1  4  1  0  0  0  0
  2 23  1  0  0  0  0
  3  8  1  0  0  0  0
  3  7  1  0  0  0  0
  4 11  1  0  0  0  0
  4 37  1  0  0  0  0
  5 18  1  0  0  0  0
  6 21  1  0  0  0  0
  6  8  1  0  0  0  0
  7 20  1  0  0  0  0
  8 12  1  0  0  0  0
  9  7  1  0  0  0  0
  9  5  1  0  0  0  0
 10 15  1  0  0  0  0
 10  6  1  0  0  0  0
 12 20  1  0  0  0  0
 12 16  1  0  0  0  0
 14 26  2  0  0  0  0
 14 19  1  0  0  0  0
 15 19  1  0  0  0  0
 15  6  1  0  0  0  0
 16 13  1  0  0  0  0
 17 34  1  0  0  0  0
 17 11  1  0  0  0  0
 18 24  1  0  0  0  0
 19  3  1  0  0  0  0
 20 25  1  0  0  0  0
 21  2  1  0  0  0  0
 22  9  2  0  0  0  0
 23 13  1  0  0  0  0
 24 17  1  0  0  0  0
 25 24  1  0  0  0  0
 25  1  1  0  0  0  0
 26 22  1  0  0  0  0
 28 22  1  0  0  0  0
 28 27  2  0  0  0  0
 29 28  1  0  0  0  0
 30 32  1  0  0  0  0
 31 33  2  0  0  0  0
 32 29  2  0  0  0  0
 32 31  1  0  0  0  0
 33 27  1  0  0  0  0
 34 35  1  0  0  0  0
 37 36  2  0  0  0  0
M  END
>  <MODEL>
6

>  <REMARK>
 VINA RESULT:     -10.2      2.339      8.697
  Name = 
  3 active torsions:
  status: ('A' for Active; 'I' for Inactive)
    1  A    between atoms: C_5  and  C_23
    2  A    between atoms: C_6  and  C_31
    3  A    between atoms: C_11  and  C_26
                            x       y       z     vdW  Elec       q    Type
                         _______ _______ _______ _____ _____    ______ ____

>  <TORSDO>
F 3

$$$$
=
 OpenBabel10262422543D

 37 44  0  0  1  0  0  0  0  0999 V2000
  186.1590  178.9440  145.0560 O   0  0  0  0  0  0  0  0  0  0  0  0
  190.4310  177.9490  146.8590 C   0  0  0  0  0  2  0  0  0  0  0  0
  189.3770  176.7930  142.9060 C   0  0  2  0  0  3  0  0  0  0  0  0
  184.8640  178.6250  145.5100 C   0  0  2  0  0  3  0  0  0  0  0  0
  186.6950  178.6290  140.9640 C   0  0  0  0  0  2  0  0  0  0  0  0
  190.9060  176.7560  144.6590 C   0  0  1  0  0  0  0  0  0  0  0  0
  188.1900  177.1920  142.5180 C   0  0  2  0  0  3  0  0  0  0  0  0
  189.4660  176.3790  144.3020 C   0  0  1  0  0  3  0  0  0  0  0  0
  187.9100  177.7470  141.1460 C   0  0  0  0  0  0  0  0  0  0  0  0
  191.8880  175.8260  143.9680 C   0  0  0  0  0  2  0  0  0  0  0  0
  183.8010  179.3640  144.6830 C   0  0  0  0  0  2  0  0  0  0  0  0
  188.3070  177.1670  144.8910 C   0  0  2  0  0  3  0  0  0  0  0  0
  188.0990  177.1860  147.3770 C   0  0  0  0  0  2  0  0  0  0  0  0
  190.8720  176.6300  141.0560 C   0  0  0  0  0  3  0  0  0  0  0  0
  191.6840  177.2370  143.4330 C   0  0  1  0  0  3  0  0  0  0  0  0
  187.7360  176.4450  146.0980 C   0  0  0  0  0  2  0  0  0  0  0  0
  184.0600  179.2270  143.1760 C   0  0  1  0  0  3  0  0  0  0  0  0
  185.4100  177.9440  141.4110 C   0  0  0  0  0  2  0  0  0  0  0  0
  190.6150  177.3350  142.3330 C   0  0  2  0  0  3  0  0  0  0  0  0
  187.2950  177.1990  143.7300 C   0  0  1  0  0  3  0  0  0  0  0  0
  191.4150  177.1180  146.0550 C   0  0  0  0  0  2  0  0  0  0  0  0
  188.7070  177.5000  140.0530 C   0  0  0  0  0  0  0  0  0  0  0  0
  189.5740  177.0330  147.7180 C   0  0  0  0  0  2  0  0  0  0  0  0
  185.1130  178.1470  142.9060 C   0  0  1  0  0  3  0  0  0  0  0  0
  186.3800  178.4210  143.7510 C   0  0  1  0  0  3  0  0  0  0  0  0
  189.9900  176.7250  140.0530 C   0  0  0  0  0  3  0  0  0  0  0  0
  189.0560  179.0030  138.0940 C   0  0  0  0  0  3  0  0  0  0  0  0
  188.3140  177.9890  138.7160 C   0  0  0  0  0  0  0  0  0  0  0  0
  187.1800  177.4690  138.0720 C   0  0  0  0  0  3  0  0  0  0  0  0
  185.6040  177.3890  136.1360 C   0  0  0  0  0  1  0  0  0  0  0  0
  187.5560  178.9490  136.1940 C   0  0  0  0  0  3  0  0  0  0  0  0
  186.8040  177.9460  136.8140 C   0  0  0  0  0  0  0  0  0  0  0  0
  188.6800  179.4790  136.8350 C   0  0  0  0  0  3  0  0  0  0  0  0
  182.7520  178.9000  142.4700 C   0  0  0  0  0  2  0  0  0  0  0  0
  181.6860  179.0030  143.3630 O   0  0  0  0  0  1  0  0  0  0  0  0
  185.7470  179.4040  147.6860 C   0  0  0  0  0  2  0  0  0  0  0  0
  184.7260  178.9330  146.9690 C   0  0  0  0  0  3  0  0  0  0  0  0
  1  4  1  0  0  0  0
  2 23  1  0  0  0  0
  3  8  1  0  0  0  0
  4 37  1  0  0  0  0
  5  9  1  0  0  0  0
  5 18  1  0  0  0  0
  6 21  1  0  0  0  0
  7  3  1  0  0  0  0
  7 20  1  0  0  0  0
  8  6  1  0  0  0  0
  8 12  1  0  0  0  0
  9  7  1  0  0  0  0
 10  6  1  0  0  0  0
 11  4  1  0  0  0  0
 12 16  1  0  0  0  0
 13 23  1  0  0  0  0
 14 19  1  0  0  0  0
 15 10  1  0  0  0  0
 15  6  1  0  0  0  0
 16 13  1  0  0  0  0
 17 11  1  0  0  0  0
 18 24  1  0  0  0  0
 19  3  1  0  0  0  0
 19 15  1  0  0  0  0
 20 25  1  0  0  0  0
 20 12  1  0  0  0  0
 21  2  1  0  0  0  0
 22  9  2  0  0  0  0
 24 17  1  0  0  0  0
 24 25  1  0  0  0  0
 25  1  1  0  0  0  0
 26 22  1  0  0  0  0
 26 14  2  0  0  0  0
 27 28  1  0  0  0  0
 28 22  1  0  0  0  0
 29 28  2  0  0  0  0
 30 32  1  0  0  0  0
 31 32  2  0  0  0  0
 31 33  1  0  0  0  0
 32 29  1  0  0  0  0
 33 27  2  0  0  0  0
 34 17  1  0  0  0  0
 34 35  1  0  0  0  0
 37 36  2  0  0  0  0
M  END
>  <MODEL>
7

>  <REMARK>
 VINA RESULT:     -10.1      2.032      6.148
  Name = 
  3 active torsions:
  status: ('A' for Active; 'I' for Inactive)
    1  A    between atoms: C_5  and  C_23
    2  A    between atoms: C_6  and  C_31
    3  A    between atoms: C_11  and  C_26
                            x       y       z     vdW  Elec       q    Type
                         _______ _______ _______ _____ _____    ______ ____

>  <TORSDO>
F 3

$$$$
=
 OpenBabel10262422543D

 37 44  0  0  1  0  0  0  0  0999 V2000
  184.6660  177.4310  138.9200 O   0  0  0  0  0  0  0  0  0  0  0  0
  188.4560  176.0620  136.4190 C   0  0  0  0  0  2  0  0  0  0  0  0
  188.8700  177.9300  140.2150 C   0  0  2  0  0  3  0  0  0  0  0  0
  183.6040  178.2960  138.5940 C   0  0  2  0  0  3  0  0  0  0  0  0
  186.0940  177.8060  142.7870 C   0  0  0  0  0  2  0  0  0  0  0  0
  189.8580  177.0640  138.2950 C   0  0  1  0  0  0  0  0  0  0  0  0
  187.7380  178.1930  140.8220 C   0  0  2  0  0  3  0  0  0  0  0  0
  188.8590  178.1230  138.7690 C   0  0  1  0  0  3  0  0  0  0  0  0
  187.5150  177.9680  142.2940 C   0  0  0  0  0  0  0  0  0  0  0  0
  191.2750  177.4580  138.6760 C   0  0  0  0  0  2  0  0  0  0  0  0
  182.5100  178.2430  139.6710 C   0  0  0  0  0  2  0  0  0  0  0  0
  187.3760  177.9470  138.4860 C   0  0  2  0  0  3  0  0  0  0  0  0
  186.6900  177.8120  136.0910 C   0  0  0  0  0  2  0  0  0  0  0  0
  190.6080  177.5090  141.7930 C   0  0  0  0  0  3  0  0  0  0  0  0
  190.5530  176.3770  139.4710 C   0  0  1  0  0  3  0  0  0  0  0  0
  186.9740  178.7460  137.2590 C   0  0  0  0  0  2  0  0  0  0  0  0
  183.0980  178.3700  141.0840 C   0  0  1  0  0  3  0  0  0  0  0  0
  185.2100  178.9860  142.4030 C   0  0  0  0  0  2  0  0  0  0  0  0
  189.8050  176.9080  140.7040 C   0  0  2  0  0  3  0  0  0  0  0  0
  186.7190  178.5140  139.7600 C   0  0  1  0  0  3  0  0  0  0  0  0
  189.8510  176.3790  136.9280 C   0  0  0  0  0  2  0  0  0  0  0  0
  188.5360  177.8930  143.2110 C   0  0  0  0  0  0  0  0  0  0  0  0
  187.9660  177.1990  135.5360 C   0  0  0  0  0  2  0  0  0  0  0  0
  184.5610  178.8220  141.0190 C   0  0  1  0  0  3  0  0  0  0  0  0
  185.3600  177.8930  140.0740 C   0  0  1  0  0  3  0  0  0  0  0  0
  190.0040  177.9440  142.9060 C   0  0  0  0  0  3  0  0  0  0  0  0
  189.1840  177.2150  145.5220 C   0  0  0  0  0  3  0  0  0  0  0  0
  188.2380  177.7760  144.6530 C   0  0  0  0  0  0  0  0  0  0  0  0
  186.9980  178.1940  145.1600 C   0  0  0  0  0  3  0  0  0  0  0  0
  185.4020  178.5160  147.0540 C   0  0  0  0  0  1  0  0  0  0  0  0
  187.6690  177.5180  147.3860 C   0  0  0  0  0  3  0  0  0  0  0  0
  186.7150  178.0690  146.5220 C   0  0  0  0  0  0  0  0  0  0  0  0
  188.9020  177.0900  146.8850 C   0  0  0  0  0  3  0  0  0  0  0  0
  182.2610  179.3510  141.8900 C   0  0  0  0  0  2  0  0  0  0  0  0
  181.4560  178.6630  142.7970 O   0  0  0  0  0  1  0  0  0  0  0  0
  183.1360  176.7380  136.7310 C   0  0  0  0  0  2  0  0  0  0  0  0
  183.0510  177.9660  137.2430 C   0  0  0  0  0  3  0  0  0  0  0  0
  1 25  1  0  0  0  0
  2 21  1  0  0  0  0
  3 19  1  0  0  0  0
  3  7  1  0  0  0  0
  4  1  1  0  0  0  0
  4 11  1  0  0  0  0
  6 10  1  0  0  0  0
  6  8  1  0  0  0  0
  6 15  1  0  0  0  0
  7  9  1  0  0  0  0
  8  3  1  0  0  0  0
  9  5  1  0  0  0  0
  9 22  2  0  0  0  0
 10 15  1  0  0  0  0
 11 17  1  0  0  0  0
 12  8  1  0  0  0  0
 12 20  1  0  0  0  0
 13 16  1  0  0  0  0
 14 26  2  0  0  0  0
 15 19  1  0  0  0  0
 16 12  1  0  0  0  0
 17 34  1  0  0  0  0
 18  5  1  0  0  0  0
 19 14  1  0  0  0  0
 20 25  1  0  0  0  0
 20  7  1  0  0  0  0
 21  6  1  0  0  0  0
 22 28  1  0  0  0  0
 23 13  1  0  0  0  0
 23  2  1  0  0  0  0
 24 17  1  0  0  0  0
 24 18  1  0  0  0  0
 25 24  1  0  0  0  0
 26 22  1  0  0  0  0
 27 33  1  0  0  0  0
 28 29  1  0  0  0  0
 28 27  2  0  0  0  0
 29 32  2  0  0  0  0
 32 30  1  0  0  0  0
 32 31  1  0  0  0  0
 33 31  2  0  0  0  0
 34 35  1  0  0  0  0
 36 37  2  0  0  0  0
 37  4  1  0  0  0  0
M  END
>  <MODEL>
8

>  <REMARK>
 VINA RESULT:      -9.7      2.415      7.146
  Name = 
  3 active torsions:
  status: ('A' for Active; 'I' for Inactive)
    1  A    between atoms: C_5  and  C_23
    2  A    between atoms: C_6  and  C_31
    3  A    between atoms: C_11  and  C_26
                            x       y       z     vdW  Elec       q    Type
                         _______ _______ _______ _____ _____    ______ ____

>  <TORSDO>
F 3

$$$$
=
 OpenBabel10262422543D

 37 44  0  0  1  0  0  0  0  0999 V2000
  186.9590  178.9380  139.5650 O   0  0  0  0  0  0  0  0  0  0  0  0
  182.4240  180.3200  139.7140 C   0  0  0  0  0  2  0  0  0  0  0  0
  184.1800  178.1500  142.9200 C   0  0  2  0  0  3  0  0  0  0  0  0
  187.6570  178.1500  138.6300 C   0  0  2  0  0  3  0  0  0  0  0  0
  187.9180  178.2030  143.5230 C   0  0  0  0  0  2  0  0  0  0  0  0
  182.2960  179.1140  141.9550 C   0  0  1  0  0  0  0  0  0  0  0  0
  185.4570  177.8930  142.7720 C   0  0  2  0  0  3  0  0  0  0  0  0
  183.3850  178.0690  141.7000 C   0  0  1  0  0  3  0  0  0  0  0  0
  186.4610  178.0150  143.8870 C   0  0  0  0  0  0  0  0  0  0  0  0
  181.3280  178.6280  143.0190 C   0  0  0  0  0  2  0  0  0  0  0  0
  189.1650  178.1710  138.9200 C   0  0  0  0  0  2  0  0  0  0  0  0
  184.4620  178.3330  140.6590 C   0  0  2  0  0  3  0  0  0  0  0  0
  183.7030  178.6830  138.3090 C   0  0  0  0  0  2  0  0  0  0  0  0
  183.6130  178.3680  145.2260 C   0  0  0  0  0  3  0  0  0  0  0  0
  182.3740  179.6770  143.3740 C   0  0  1  0  0  3  0  0  0  0  0  0
  184.1110  177.6500  139.3500 C   0  0  0  0  0  2  0  0  0  0  0  0
  189.4600  177.9090  140.4040 C   0  0  1  0  0  3  0  0  0  0  0  0
  188.4340  177.0980  142.6110 C   0  0  0  0  0  2  0  0  0  0  0  0
  183.6790  179.0870  143.9330 C   0  0  2  0  0  3  0  0  0  0  0  0
  185.7130  177.7010  141.3000 C   0  0  1  0  0  3  0  0  0  0  0  0
  181.5460  179.9010  140.8800 C   0  0  0  0  0  2  0  0  0  0  0  0
  186.1220  177.9720  145.2190 C   0  0  0  0  0  0  0  0  0  0  0  0
  182.3360  179.2780  138.6110 C   0  0  0  0  0  2  0  0  0  0  0  0
  188.2060  177.3970  141.1210 C   0  0  1  0  0  3  0  0  0  0  0  0
  187.0200  178.3580  140.8630 C   0  0  1  0  0  3  0  0  0  0  0  0
  184.7320  177.8780  145.7740 C   0  0  0  0  0  3  0  0  0  0  0  0
  186.9310  178.6220  147.4870 C   0  0  0  0  0  3  0  0  0  0  0  0
  187.1720  177.9920  146.2590 C   0  0  0  0  0  0  0  0  0  0  0  0
  188.4260  177.4100  146.0150 C   0  0  0  0  0  3  0  0  0  0  0  0
  190.7450  176.8240  146.7340 C   0  0  0  0  0  1  0  0  0  0  0  0
  189.1680  178.0640  148.2250 C   0  0  0  0  0  3  0  0  0  0  0  0
  189.4200  177.4440  146.9960 C   0  0  0  0  0  0  0  0  0  0  0  0
  187.9240  178.6550  148.4690 C   0  0  0  0  0  3  0  0  0  0  0  0
  190.6000  176.9090  140.5200 C   0  0  0  0  0  2  0  0  0  0  0  0
  190.5530  176.0030  139.4610 O   0  0  0  0  0  1  0  0  0  0  0  0
  186.7350  177.8280  136.3570 C   0  0  0  0  0  2  0  0  0  0  0  0
  187.3680  178.6070  137.2340 C   0  0  0  0  0  3  0  0  0  0  0  0
  1 25  1  0  0  0  0
  2 21  1  0  0  0  0
  3 19  1  0  0  0  0
  4 11  1  0  0  0  0
  4  1  1  0  0  0  0
  5  9  1  0  0  0  0
  6 10  1  0  0  0  0
  6 15  1  0  0  0  0
  7  3  1  0  0  0  0
  7  9  1  0  0  0  0
  8  6  1  0  0  0  0
  8  3  1  0  0  0  0
  9 22  2  0  0  0  0
 10 15  1  0  0  0  0
 11 17  1  0  0  0  0
 12 20  1  0  0  0  0
 12  8  1  0  0  0  0
 13 23  1  0  0  0  0
 13 16  1  0  0  0  0
 14 26  2  0  0  0  0
 15 19  1  0  0  0  0
 16 12  1  0  0  0  0
 17 34  1  0  0  0  0
 17 24  1  0  0  0  0
 18  5  1  0  0  0  0
 19 14  1  0  0  0  0
 20  7  1  0  0  0  0
 21  6  1  0  0  0  0
 22 26  1  0  0  0  0
 22 28  1  0  0  0  0
 23  2  1  0  0  0  0
 24 18  1  0  0  0  0
 25 24  1  0  0  0  0
 25 20  1  0  0  0  0
 27 33  1  0  0  0  0
 28 27  2  0  0  0  0
 29 28  1  0  0  0  0
 29 32  2  0  0  0  0
 30 32  1  0  0  0  0
 31 33  2  0  0  0  0
 32 31  1  0  0  0  0
 35 34  1  0  0  0  0
 36 37  2  0  0  0  0
 37  4  1  0  0  0  0
M  END
>  <MODEL>
9

>  <REMARK>
 VINA RESULT:      -9.7      1.502      6.580
  Name = 
  3 active torsions:
  status: ('A' for Active; 'I' for Inactive)
    1  A    between atoms: C_5  and  C_23
    2  A    between atoms: C_6  and  C_31
    3  A    between atoms: C_11  and  C_26
                            x       y       z     vdW  Elec       q    Type
                         _______ _______ _______ _____ _____    ______ ____

>  <TORSDO>
F 3

$$$$
