=
 OpenBabel10262422513D

 37 42  0  0  1  0  0  0  0  0999 V2000
  187.4830  178.3820  139.8400 C   0  0  1  0  0  3  0  0  0  0  0  0
  188.8940  176.5410  139.1200 O   0  0  0  0  0  0  0  0  0  0  0  0
  187.8020  177.7910  141.2060 C   0  0  2  0  0  3  0  0  0  0  0  0
  188.2910  177.7520  138.7120 C   0  0  1  0  0  3  0  0  0  0  0  0
  187.3160  178.6520  142.2000 O   0  0  0  0  0  0  0  0  0  0  0  0
  187.2730  177.4940  137.6210 C   0  0  0  0  0  2  0  0  0  0  0  0
  189.8720  176.8180  140.1140 C   0  0  2  0  0  3  0  0  0  0  0  0
  185.3710  179.3410  140.0750 C   0  0  0  0  0  2  0  0  0  0  0  0
  186.0070  178.1750  138.1050 C   0  0  0  0  0  2  0  0  0  0  0  0
  186.0740  178.1740  139.5550 N   0  0  1  0  0  0  0  0  0  0  0  0
  189.3030  177.5570  141.3500 C   0  0  2  0  0  3  0  0  0  0  0  0
  185.9730  178.2810  142.3760 C   0  0  2  0  0  3  0  0  0  0  0  0
  185.0080  179.1690  141.5630 C   0  0  0  0  0  2  0  0  0  0  0  0
  184.3690  178.7780  144.2250 C   0  0  0  0  0  3  0  0  0  0  0  0
  185.6190  178.2890  143.8280 C   0  0  0  0  0  0  0  0  0  0  0  0
  186.5100  177.7960  144.7910 C   0  0  0  0  0  3  0  0  0  0  0  0
  187.0210  177.3260  147.0730 F   0  0  0  0  0  0  0  0  0  0  0  0
  184.9070  178.2930  146.5380 C   0  0  0  0  0  3  0  0  0  0  0  0
  186.1560  177.8020  146.1440 C   0  0  0  0  0  0  0  0  0  0  0  0
  184.0130  178.7790  145.5780 C   0  0  0  0  0  3  0  0  0  0  0  0
  192.2160  176.5430  139.3410 C   0  0  2  0  0  3  0  0  0  0  0  0
  191.0870  177.5400  139.5360 C   0  0  2  0  0  3  0  0  0  0  0  0
  192.2380  177.4920  140.5220 C   0  0  0  0  0  2  0  0  0  0  0  0
  193.0730  177.0150  138.3470 O   0  0  0  0  0  0  0  0  0  0  0  0
  193.3560  175.8950  137.5650 C   0  0  0  0  0  1  0  0  0  0  0  0
  190.4720  175.4460  142.4140 O   0  0  0  0  0  0  0  0  0  0  0  0
  189.6180  176.6220  142.8690 S   0  0  1  0  0  0  0  0  0  0  0  0
  190.7430  177.6570  143.8410 C   0  0  2  0  0  3  0  0  0  0  0  0
  190.0140  176.1400  145.6120 O   0  0  0  0  0  0  0  0  0  0  0  0
  190.5570  177.4140  145.3360 C   0  0  1  0  0  0  0  0  0  0  0  0
  191.3390  176.3710  146.0360 C   0  0  2  0  0  0  0  0  0  0  0  0
  189.9610  178.4060  146.1190 O   0  0  0  0  0  1  0  0  0  0  0  0
  192.2560  175.6350  145.2820 O   0  0  0  0  0  1  0  0  0  0  0  0
  192.5200  175.8060  148.1190 C   0  0  0  0  0  2  0  0  0  0  0  0
  191.4740  176.3790  147.5260 C   0  0  0  0  0  3  0  0  0  0  0  0
  191.6040  179.8850  143.9330 O   0  0  0  0  0  1  0  0  0  0  0  0
  190.5040  179.1260  143.5310 C   0  0  0  0  0  2  0  0  0  0  0  0
  1  3  1  0  0  0  0
  2  7  1  0  0  0  0
  3 11  1  0  0  0  0
  3  5  1  0  0  0  0
  4  2  1  0  0  0  0
  4  1  1  0  0  0  0
  5 12  1  0  0  0  0
  6  9  1  0  0  0  0
  6  4  1  0  0  0  0
  7 11  1  0  0  0  0
  8 13  1  0  0  0  0
  9 10  1  0  0  0  0
 10  1  1  0  0  0  0
 10  8  1  0  0  0  0
 11 27  1  0  0  0  0
 12 15  1  0  0  0  0
 13 12  1  0  0  0  0
 14 20  1  0  0  0  0
 15 14  2  0  0  0  0
 15 16  1  0  0  0  0
 16 19  2  0  0  0  0
 19 18  1  0  0  0  0
 19 17  1  0  0  0  0
 20 18  2  0  0  0  0
 21 22  1  0  0  0  0
 21 23  1  0  0  0  0
 22  7  1  0  0  0  0
 22 23  1  0  0  0  0
 24 21  1  0  0  0  0
 25 24  1  0  0  0  0
 26 27  2  0  0  0  0
 27 28  1  0  0  0  0
 28 30  1  0  0  0  0
 29 31  1  0  0  0  0
 30 29  1  0  0  0  0
 30 31  1  0  0  0  0
 30 32  1  0  0  0  0
 31 35  1  0  0  0  0
 33 31  1  0  0  0  0
 35 34  2  0  0  0  0
 37 28  1  0  0  0  0
 37 36  1  0  0  0  0
M  END
>  <MODEL>
1

>  <REMARK>
 VINA RESULT:      -8.3      0.000      0.000
  Name = 
  8 active torsions:
  status: ('A' for Active; 'I' for Inactive)
    1  A    between atoms: O_3  and  C_21
    2  A    between atoms: C_6  and  C_31
    3  A    between atoms: C_11  and  C_33
    4  A    between atoms: C_17  and  C_23
    5  A    between atoms: C_20  and  C_25
    6  A    between atoms: C_27  and  C_33
    7  A    between atoms: C_29  and  S_36
    8  A    between atoms: C_33  and  S_36
                            x       y       z     vdW  Elec       q    Type
                         _______ _______ _______ _____ _____    ______ ____

>  <TORSDO>
F 8

$$$$
=
 OpenBabel10262422513D

 37 42  0  0  1  0  0  0  0  0999 V2000
  189.7190  176.8370  142.5300 C   0  0  1  0  0  3  0  0  0  0  0  0
  191.1490  177.9420  140.9080 O   0  0  0  0  0  0  0  0  0  0  0  0
  188.6420  177.5440  141.7200 C   0  0  2  0  0  3  0  0  0  0  0  0
  191.1040  176.9390  141.9020 C   0  0  1  0  0  3  0  0  0  0  0  0
  187.3830  177.0970  142.1480 O   0  0  0  0  0  0  0  0  0  0  0  0
  192.0140  177.2980  143.0570 C   0  0  0  0  0  2  0  0  0  0  0  0
  190.3190  177.5590  139.8190 C   0  0  2  0  0  3  0  0  0  0  0  0
  188.8490  176.6820  144.6880 C   0  0  0  0  0  2  0  0  0  0  0  0
  191.1400  177.1740  144.2910 C   0  0  0  0  0  2  0  0  0  0  0  0
  189.7800  177.4330  143.8530 N   0  0  1  0  0  0  0  0  0  0  0  0
  188.8480  177.2990  140.2280 C   0  0  2  0  0  3  0  0  0  0  0  0
  187.0630  177.9120  143.2460 C   0  0  2  0  0  3  0  0  0  0  0  0
  187.4180  177.2480  144.5920 C   0  0  0  0  0  2  0  0  0  0  0  0
  184.9840  178.7110  144.3780 C   0  0  0  0  0  3  0  0  0  0  0  0
  185.6210  178.3000  143.2000 C   0  0  0  0  0  0  0  0  0  0  0  0
  184.9060  178.2800  141.9950 C   0  0  0  0  0  3  0  0  0  0  0  0
  182.8700  178.6340  140.8040 F   0  0  0  0  0  0  0  0  0  0  0  0
  182.9260  179.0650  143.1500 C   0  0  0  0  0  3  0  0  0  0  0  0
  183.5590  178.6570  141.9710 C   0  0  0  0  0  0  0  0  0  0  0  0
  183.6390  179.0920  144.3520 C   0  0  0  0  0  3  0  0  0  0  0  0
  192.2460  176.7870  138.4570 C   0  0  2  0  0  3  0  0  0  0  0  0
  190.9030  176.3840  139.0390 C   0  0  2  0  0  3  0  0  0  0  0  0
  191.0180  176.7410  137.5710 C   0  0  0  0  0  2  0  0  0  0  0  0
  193.0140  175.6420  138.2500 O   0  0  0  0  0  0  0  0  0  0  0  0
  193.6740  175.8730  137.0420 C   0  0  0  0  0  1  0  0  0  0  0  0
  188.5830  178.9450  138.1830 O   0  0  0  0  0  0  0  0  0  0  0  0
  187.7150  178.3550  139.2880 S   0  0  1  0  0  0  0  0  0  0  0  0
  186.5970  177.2150  138.4350 C   0  0  2  0  0  3  0  0  0  0  0  0
  188.0780  175.5720  137.3940 O   0  0  0  0  0  0  0  0  0  0  0  0
  187.2330  176.6790  137.1550 C   0  0  1  0  0  0  0  0  0  0  0  0
  186.9020  175.3270  136.6550 C   0  0  2  0  0  0  0  0  0  0  0  0
  187.8080  177.5770  136.2520 O   0  0  0  0  0  1  0  0  0  0  0  0
  185.9820  174.5740  137.3860 O   0  0  0  0  0  1  0  0  0  0  0  0
  187.9260  173.8690  134.9570 C   0  0  0  0  0  2  0  0  0  0  0  0
  187.1840  174.9390  135.2370 C   0  0  0  0  0  3  0  0  0  0  0  0
  185.2870  179.2050  138.6300 O   0  0  0  0  0  1  0  0  0  0  0  0
  185.2900  177.9140  138.0990 C   0  0  0  0  0  2  0  0  0  0  0  0
  1 10  1  0  0  0  0
  2  4  1  0  0  0  0
  3  5  1  0  0  0  0
  3  1  1  0  0  0  0
  4  1  1  0  0  0  0
  4  6  1  0  0  0  0
  5 12  1  0  0  0  0
  6  9  1  0  0  0  0
  7 11  1  0  0  0  0
  7  2  1  0  0  0  0
 10  9  1  0  0  0  0
 10  8  1  0  0  0  0
 11  3  1  0  0  0  0
 12 13  1  0  0  0  0
 13  8  1  0  0  0  0
 15 12  1  0  0  0  0
 15 14  2  0  0  0  0
 16 15  1  0  0  0  0
 17 19  1  0  0  0  0
 18 20  2  0  0  0  0
 19 16  2  0  0  0  0
 19 18  1  0  0  0  0
 20 14  1  0  0  0  0
 21 22  1  0  0  0  0
 22  7  1  0  0  0  0
 23 21  1  0  0  0  0
 23 22  1  0  0  0  0
 24 21  1  0  0  0  0
 25 24  1  0  0  0  0
 26 27  2  0  0  0  0
 27 11  1  0  0  0  0
 28 27  1  0  0  0  0
 30 29  1  0  0  0  0
 30 28  1  0  0  0  0
 31 30  1  0  0  0  0
 31 33  1  0  0  0  0
 31 29  1  0  0  0  0
 32 30  1  0  0  0  0
 34 35  2  0  0  0  0
 35 31  1  0  0  0  0
 37 28  1  0  0  0  0
 37 36  1  0  0  0  0
M  END
>  <MODEL>
2

>  <REMARK>
 VINA RESULT:      -6.8      2.782      6.259
  Name = 
  8 active torsions:
  status: ('A' for Active; 'I' for Inactive)
    1  A    between atoms: O_3  and  C_21
    2  A    between atoms: C_6  and  C_31
    3  A    between atoms: C_11  and  C_33
    4  A    between atoms: C_17  and  C_23
    5  A    between atoms: C_20  and  C_25
    6  A    between atoms: C_27  and  C_33
    7  A    between atoms: C_29  and  S_36
    8  A    between atoms: C_33  and  S_36
                            x       y       z     vdW  Elec       q    Type
                         _______ _______ _______ _____ _____    ______ ____

>  <TORSDO>
F 8

$$$$
=
 OpenBabel10262422513D

 37 42  0  0  1  0  0  0  0  0999 V2000
  189.8280  176.8540  142.4860 C   0  0  1  0  0  3  0  0  0  0  0  0
  191.3840  177.9150  140.9530 O   0  0  0  0  0  0  0  0  0  0  0  0
  188.8190  177.5000  141.5480 C   0  0  2  0  0  3  0  0  0  0  0  0
  191.2640  176.9570  141.9840 C   0  0  1  0  0  3  0  0  0  0  0  0
  187.5340  177.0470  141.8790 O   0  0  0  0  0  0  0  0  0  0  0  0
  192.0560  177.3860  143.2000 C   0  0  0  0  0  2  0  0  0  0  0  0
  190.6650  177.4660  139.8110 C   0  0  2  0  0  3  0  0  0  0  0  0
  188.7650  176.7770  144.5590 C   0  0  0  0  0  2  0  0  0  0  0  0
  191.0740  177.2990  144.3530 C   0  0  0  0  0  2  0  0  0  0  0  0
  189.7560  177.5090  143.7800 N   0  0  1  0  0  0  0  0  0  0  0  0
  189.1680  177.1940  140.0950 C   0  0  2  0  0  3  0  0  0  0  0  0
  187.1000  177.9030  142.9030 C   0  0  2  0  0  3  0  0  0  0  0  0
  187.3390  177.3070  144.3060 C   0  0  0  0  0  2  0  0  0  0  0  0
  185.1580  178.3860  141.4080 C   0  0  0  0  0  3  0  0  0  0  0  0
  185.6620  178.2580  142.7080 C   0  0  0  0  0  0  0  0  0  0  0  0
  184.8080  178.4430  143.8050 C   0  0  0  0  0  3  0  0  0  0  0  0
  182.6410  178.9440  144.6640 F   0  0  0  0  0  0  0  0  0  0  0  0
  182.9630  178.8930  142.3010 C   0  0  0  0  0  3  0  0  0  0  0  0
  183.4620  178.7640  143.6010 C   0  0  0  0  0  0  0  0  0  0  0  0
  183.8110  178.7020  141.2060 C   0  0  0  0  0  3  0  0  0  0  0  0
  192.5830  176.7400  138.4110 C   0  0  2  0  0  3  0  0  0  0  0  0
  191.3390  176.2690  139.1440 C   0  0  2  0  0  3  0  0  0  0  0  0
  191.3170  176.4340  137.6370 C   0  0  0  0  0  2  0  0  0  0  0  0
  193.4710  175.6710  138.2920 O   0  0  0  0  0  0  0  0  0  0  0  0
  194.0540  175.8360  137.0340 C   0  0  0  0  0  1  0  0  0  0  0  0
  189.0260  179.2850  138.4930 O   0  0  0  0  0  0  0  0  0  0  0  0
  188.1090  178.1820  139.0070 S   0  0  1  0  0  0  0  0  0  0  0  0
  187.7980  177.1340  137.5630 C   0  0  2  0  0  3  0  0  0  0  0  0
  186.6870  178.5530  135.9130 O   0  0  0  0  0  0  0  0  0  0  0  0
  186.4980  177.5300  136.8680 C   0  0  1  0  0  0  0  0  0  0  0  0
  186.3090  177.2860  135.4210 C   0  0  2  0  0  0  0  0  0  0  0  0
  185.3530  177.7530  137.6380 O   0  0  0  0  0  1  0  0  0  0  0  0
  187.3530  176.6720  134.7270 O   0  0  0  0  0  1  0  0  0  0  0  0
  184.2910  176.1480  134.5940 C   0  0  0  0  0  2  0  0  0  0  0  0
  184.9420  177.2890  134.8110 C   0  0  0  0  0  3  0  0  0  0  0  0
  188.4140  174.8790  137.0610 O   0  0  0  0  0  1  0  0  0  0  0  0
  187.7270  175.6740  137.9800 C   0  0  0  0  0  2  0  0  0  0  0  0
  1 10  1  0  0  0  0
  2  4  1  0  0  0  0
  3  5  1  0  0  0  0
  3  1  1  0  0  0  0
  4  1  1  0  0  0  0
  4  6  1  0  0  0  0
  5 12  1  0  0  0  0
  6  9  1  0  0  0  0
  7 11  1  0  0  0  0
  7  2  1  0  0  0  0
 10  9  1  0  0  0  0
 10  8  1  0  0  0  0
 11  3  1  0  0  0  0
 12 13  1  0  0  0  0
 13  8  1  0  0  0  0
 14 15  1  0  0  0  0
 15 12  1  0  0  0  0
 15 16  2  0  0  0  0
 18 19  2  0  0  0  0
 19 16  1  0  0  0  0
 19 17  1  0  0  0  0
 20 14  2  0  0  0  0
 20 18  1  0  0  0  0
 21 22  1  0  0  0  0
 22  7  1  0  0  0  0
 23 21  1  0  0  0  0
 23 22  1  0  0  0  0
 24 21  1  0  0  0  0
 25 24  1  0  0  0  0
 26 27  2  0  0  0  0
 27 11  1  0  0  0  0
 28 37  1  0  0  0  0
 28 27  1  0  0  0  0
 29 30  1  0  0  0  0
 30 28  1  0  0  0  0
 30 32  1  0  0  0  0
 31 29  1  0  0  0  0
 31 30  1  0  0  0  0
 33 31  1  0  0  0  0
 34 35  2  0  0  0  0
 35 31  1  0  0  0  0
 36 37  1  0  0  0  0
M  END
>  <MODEL>
3

>  <REMARK>
 VINA RESULT:      -6.8      2.660      6.641
  Name = 
  8 active torsions:
  status: ('A' for Active; 'I' for Inactive)
    1  A    between atoms: O_3  and  C_21
    2  A    between atoms: C_6  and  C_31
    3  A    between atoms: C_11  and  C_33
    4  A    between atoms: C_17  and  C_23
    5  A    between atoms: C_20  and  C_25
    6  A    between atoms: C_27  and  C_33
    7  A    between atoms: C_29  and  S_36
    8  A    between atoms: C_33  and  S_36
                            x       y       z     vdW  Elec       q    Type
                         _______ _______ _______ _____ _____    ______ ____

>  <TORSDO>
F 8

$$$$
=
 OpenBabel10262422513D

 37 42  0  0  1  0  0  0  0  0999 V2000
  189.1460  177.0520  141.2070 C   0  0  1  0  0  3  0  0  0  0  0  0
  188.8820  178.5820  139.3400 O   0  0  0  0  0  0  0  0  0  0  0  0
  187.9120  177.7980  141.6950 C   0  0  2  0  0  3  0  0  0  0  0  0
  189.5310  177.4050  139.7750 C   0  0  1  0  0  3  0  0  0  0  0  0
  187.4170  177.1600  142.8410 O   0  0  0  0  0  0  0  0  0  0  0  0
  191.0290  177.6170  139.8320 C   0  0  0  0  0  2  0  0  0  0  0  0
  187.4830  178.3420  139.2570 C   0  0  2  0  0  3  0  0  0  0  0  0
  190.2630  176.3990  143.1460 C   0  0  0  0  0  2  0  0  0  0  0  0
  191.4300  177.1720  141.2250 C   0  0  0  0  0  2  0  0  0  0  0  0
  190.2670  177.3820  142.0690 N   0  0  1  0  0  0  0  0  0  0  0  0
  186.8590  177.8700  140.5920 C   0  0  2  0  0  3  0  0  0  0  0  0
  188.1470  177.7120  143.9070 C   0  0  2  0  0  3  0  0  0  0  0  0
  189.3510  176.8340  144.3090 C   0  0  0  0  0  2  0  0  0  0  0  0
  187.7830  177.9270  146.3690 C   0  0  0  0  0  3  0  0  0  0  0  0
  187.2500  177.9630  145.0750 C   0  0  0  0  0  0  0  0  0  0  0  0
  185.8910  178.2550  144.8910 C   0  0  0  0  0  3  0  0  0  0  0  0
  183.7560  178.7780  145.8160 F   0  0  0  0  0  0  0  0  0  0  0  0
  185.6050  178.4600  147.2880 C   0  0  0  0  0  3  0  0  0  0  0  0
  185.0690  178.4980  145.9970 C   0  0  0  0  0  0  0  0  0  0  0  0
  186.9610  178.1750  147.4730 C   0  0  0  0  0  3  0  0  0  0  0  0
  187.7010  177.9560  136.8130 C   0  0  2  0  0  3  0  0  0  0  0  0
  187.1310  177.4020  138.1070 C   0  0  2  0  0  3  0  0  0  0  0  0
  186.2250  178.1080  137.1170 C   0  0  0  0  0  2  0  0  0  0  0  0
  187.8870  176.9080  135.9120 O   0  0  0  0  0  0  0  0  0  0  0  0
  189.0260  177.2640  135.1880 C   0  0  0  0  0  1  0  0  0  0  0  0
  185.2710  179.8580  139.8980 O   0  0  0  0  0  0  0  0  0  0  0  0
  185.5240  178.9770  141.1140 S   0  0  1  0  0  0  0  0  0  0  0  0
  184.0530  177.9270  141.2340 C   0  0  2  0  0  3  0  0  0  0  0  0
  183.6300  177.6930  138.8390 O   0  0  0  0  0  0  0  0  0  0  0  0
  183.1080  178.1710  140.0610 C   0  0  1  0  0  0  0  0  0  0  0  0
  182.4860  177.0380  139.3410 C   0  0  2  0  0  0  0  0  0  0  0  0
  182.5200  179.4300  139.9100 O   0  0  0  0  0  1  0  0  0  0  0  0
  182.7860  175.7480  139.7850 O   0  0  0  0  0  1  0  0  0  0  0  0
  180.2740  176.3700  138.4980 C   0  0  0  0  0  2  0  0  0  0  0  0
  181.2800  177.2420  138.4790 C   0  0  0  0  0  3  0  0  0  0  0  0
  183.5210  179.5170  142.9380 O   0  0  0  0  0  1  0  0  0  0  0  0
  183.3230  178.1940  142.5400 C   0  0  0  0  0  2  0  0  0  0  0  0
  1  3  1  0  0  0  0
  1 10  1  0  0  0  0
  2  4  1  0  0  0  0
  3  5  1  0  0  0  0
  4  6  1  0  0  0  0
  4  1  1  0  0  0  0
  5 12  1  0  0  0  0
  6  9  1  0  0  0  0
  7  2  1  0  0  0  0
  7 11  1  0  0  0  0
  8 13  1  0  0  0  0
  9 10  1  0  0  0  0
 10  8  1  0  0  0  0
 11 27  1  0  0  0  0
 11  3  1  0  0  0  0
 12 13  1  0  0  0  0
 12 15  1  0  0  0  0
 14 20  1  0  0  0  0
 15 14  2  0  0  0  0
 16 15  1  0  0  0  0
 16 19  2  0  0  0  0
 17 19  1  0  0  0  0
 18 20  2  0  0  0  0
 19 18  1  0  0  0  0
 21 23  1  0  0  0  0
 21 22  1  0  0  0  0
 22  7  1  0  0  0  0
 23 22  1  0  0  0  0
 24 21  1  0  0  0  0
 25 24  1  0  0  0  0
 26 27  2  0  0  0  0
 27 28  1  0  0  0  0
 28 37  1  0  0  0  0
 29 31  1  0  0  0  0
 29 30  1  0  0  0  0
 30 28  1  0  0  0  0
 31 33  1  0  0  0  0
 31 30  1  0  0  0  0
 32 30  1  0  0  0  0
 35 34  2  0  0  0  0
 35 31  1  0  0  0  0
 37 36  1  0  0  0  0
M  END
>  <MODEL>
4

>  <REMARK>
 VINA RESULT:      -6.8      2.930      6.561
  Name = 
  8 active torsions:
  status: ('A' for Active; 'I' for Inactive)
    1  A    between atoms: O_3  and  C_21
    2  A    between atoms: C_6  and  C_31
    3  A    between atoms: C_11  and  C_33
    4  A    between atoms: C_17  and  C_23
    5  A    between atoms: C_20  and  C_25
    6  A    between atoms: C_27  and  C_33
    7  A    between atoms: C_29  and  S_36
    8  A    between atoms: C_33  and  S_36
                            x       y       z     vdW  Elec       q    Type
                         _______ _______ _______ _____ _____    ______ ____

>  <TORSDO>
F 8

$$$$
=
 OpenBabel10262422513D

 37 42  0  0  1  0  0  0  0  0999 V2000
  186.7270  177.7180  145.5160 C   0  0  1  0  0  3  0  0  0  0  0  0
  188.7880  178.6090  146.4420 O   0  0  0  0  0  0  0  0  0  0  0  0
  187.4300  178.0690  144.2130 C   0  0  2  0  0  3  0  0  0  0  0  0
  187.6260  177.8620  146.7390 C   0  0  1  0  0  3  0  0  0  0  0  0
  186.6800  177.5650  143.1410 O   0  0  0  0  0  0  0  0  0  0  0  0
  186.7700  178.5950  147.7490 C   0  0  0  0  0  2  0  0  0  0  0  0
  189.5910  177.8780  145.5230 C   0  0  2  0  0  3  0  0  0  0  0  0
  184.4530  177.9420  145.0560 C   0  0  0  0  0  2  0  0  0  0  0  0
  185.3880  178.6370  147.1270 C   0  0  0  0  0  2  0  0  0  0  0  0
  185.5880  178.6030  145.6890 N   0  0  1  0  0  0  0  0  0  0  0  0
  188.8550  177.5220  144.2100 C   0  0  2  0  0  3  0  0  0  0  0  0
  185.7240  178.5570  142.8680 C   0  0  2  0  0  3  0  0  0  0  0  0
  184.3710  178.2710  143.5520 C   0  0  0  0  0  2  0  0  0  0  0  0
  186.6480  178.4900  140.5480 C   0  0  0  0  0  3  0  0  0  0  0  0
  185.5570  178.7250  141.3930 C   0  0  0  0  0  0  0  0  0  0  0  0
  184.3200  179.0920  140.8440 C   0  0  0  0  0  3  0  0  0  0  0  0
  182.9840  179.5910  138.9330 F   0  0  0  0  0  0  0  0  0  0  0  0
  185.2740  179.0000  138.6190 C   0  0  0  0  0  3  0  0  0  0  0  0
  184.1810  179.2340  139.4590 C   0  0  0  0  0  0  0  0  0  0  0  0
  186.5070  178.6280  139.1640 C   0  0  0  0  0  3  0  0  0  0  0  0
  191.3130  177.0880  147.1290 C   0  0  2  0  0  3  0  0  0  0  0  0
  190.2230  176.6470  146.1680 C   0  0  2  0  0  3  0  0  0  0  0  0
  191.6800  176.5400  145.7660 C   0  0  0  0  0  2  0  0  0  0  0  0
  191.4950  176.0990  148.0950 O   0  0  0  0  0  0  0  0  0  0  0  0
  192.8050  175.6580  147.9050 C   0  0  0  0  0  1  0  0  0  0  0  0
  190.8740  178.9940  143.3670 O   0  0  0  0  0  0  0  0  0  0  0  0
  189.7400  178.1720  142.7690 S   0  0  1  0  0  0  0  0  0  0  0  0
  190.5560  176.7380  142.0240 C   0  0  2  0  0  3  0  0  0  0  0  0
  190.5380  178.0500  139.9620 O   0  0  0  0  0  0  0  0  0  0  0  0
  190.4100  176.7520  140.5050 C   0  0  1  0  0  0  0  0  0  0  0  0
  191.5500  177.1230  139.6380 C   0  0  2  0  0  0  0  0  0  0  0  0
  189.3540  176.0520  139.9140 O   0  0  0  0  0  1  0  0  0  0  0  0
  192.7580  177.4420  140.2610 O   0  0  0  0  0  1  0  0  0  0  0  0
  192.4660  175.9200  137.6970 C   0  0  0  0  0  2  0  0  0  0  0  0
  191.5620  176.7670  138.1840 C   0  0  0  0  0  3  0  0  0  0  0  0
  190.9590  174.7060  143.2170 O   0  0  0  0  0  1  0  0  0  0  0  0
  189.9670  175.4510  142.5780 C   0  0  0  0  0  2  0  0  0  0  0  0
  1 10  1  0  0  0  0
  1  4  1  0  0  0  0
  2  4  1  0  0  0  0
  3  1  1  0  0  0  0
  4  6  1  0  0  0  0
  5  3  1  0  0  0  0
  7 22  1  0  0  0  0
  7  2  1  0  0  0  0
  8 10  1  0  0  0  0
  9  6  1  0  0  0  0
 10  9  1  0  0  0  0
 11  3  1  0  0  0  0
 11  7  1  0  0  0  0
 12  5  1  0  0  0  0
 12 13  1  0  0  0  0
 13  8  1  0  0  0  0
 14 15  1  0  0  0  0
 15 12  1  0  0  0  0
 16 15  2  0  0  0  0
 17 19  1  0  0  0  0
 18 20  1  0  0  0  0
 18 19  2  0  0  0  0
 19 16  1  0  0  0  0
 20 14  2  0  0  0  0
 21 24  1  0  0  0  0
 22 21  1  0  0  0  0
 23 22  1  0  0  0  0
 23 21  1  0  0  0  0
 25 24  1  0  0  0  0
 27 26  2  0  0  0  0
 27 11  1  0  0  0  0
 28 37  1  0  0  0  0
 28 27  1  0  0  0  0
 29 30  1  0  0  0  0
 30 28  1  0  0  0  0
 31 29  1  0  0  0  0
 31 33  1  0  0  0  0
 31 30  1  0  0  0  0
 32 30  1  0  0  0  0
 34 35  2  0  0  0  0
 35 31  1  0  0  0  0
 37 36  1  0  0  0  0
M  END
>  <MODEL>
5

>  <REMARK>
 VINA RESULT:      -6.5      2.293      6.440
  Name = 
  8 active torsions:
  status: ('A' for Active; 'I' for Inactive)
    1  A    between atoms: O_3  and  C_21
    2  A    between atoms: C_6  and  C_31
    3  A    between atoms: C_11  and  C_33
    4  A    between atoms: C_17  and  C_23
    5  A    between atoms: C_20  and  C_25
    6  A    between atoms: C_27  and  C_33
    7  A    between atoms: C_29  and  S_36
    8  A    between atoms: C_33  and  S_36
                            x       y       z     vdW  Elec       q    Type
                         _______ _______ _______ _____ _____    ______ ____

>  <TORSDO>
F 8

$$$$
=
 OpenBabel10262422513D

 37 42  0  0  1  0  0  0  0  0999 V2000
  186.2960  177.9720  139.5330 C   0  0  1  0  0  3  0  0  0  0  0  0
  185.9060  179.5840  141.3060 O   0  0  0  0  0  0  0  0  0  0  0  0
  187.6900  177.9810  140.1440 C   0  0  2  0  0  3  0  0  0  0  0  0
  185.2760  178.7480  140.3570 C   0  0  1  0  0  3  0  0  0  0  0  0
  188.4550  176.9670  139.5500 O   0  0  0  0  0  0  0  0  0  0  0  0
  184.5250  179.5780  139.3390 C   0  0  0  0  0  2  0  0  0  0  0  0
  186.5690  178.7780  142.2730 C   0  0  2  0  0  3  0  0  0  0  0  0
  186.6280  177.4850  137.2770 C   0  0  0  0  0  2  0  0  0  0  0  0
  185.0120  179.0740  137.9940 C   0  0  0  0  0  2  0  0  0  0  0  0
  186.3570  178.5710  138.2120 N   0  0  1  0  0  0  0  0  0  0  0  0
  187.6120  177.8130  141.6590 C   0  0  2  0  0  3  0  0  0  0  0  0
  188.9840  177.5460  138.3850 C   0  0  2  0  0  3  0  0  0  0  0  0
  188.1400  177.2230  137.1350 C   0  0  0  0  0  2  0  0  0  0  0  0
  190.7990  176.5620  136.9800 C   0  0  0  0  0  3  0  0  0  0  0  0
  190.4060  177.1290  138.1980 C   0  0  0  0  0  0  0  0  0  0  0  0
  191.3530  177.3170  139.2150 C   0  0  0  0  0  3  0  0  0  0  0  0
  193.5950  177.1110  140.0010 F   0  0  0  0  0  0  0  0  0  0  0  0
  193.0710  176.3620  137.7980 C   0  0  0  0  0  3  0  0  0  0  0  0
  192.6830  176.9290  139.0160 C   0  0  0  0  0  0  0  0  0  0  0  0
  192.1290  176.1790  136.7810 C   0  0  0  0  0  3  0  0  0  0  0  0
  184.9140  179.0400  144.1060 C   0  0  2  0  0  3  0  0  0  0  0  0
  185.5840  178.0420  143.1780 C   0  0  2  0  0  3  0  0  0  0  0  0
  186.0260  178.1500  144.6230 C   0  0  0  0  0  2  0  0  0  0  0  0
  183.6810  178.5290  144.5090 O   0  0  0  0  0  0  0  0  0  0  0  0
  182.7390  179.3520  143.8900 C   0  0  0  0  0  1  0  0  0  0  0  0
  189.1310  179.4280  143.0870 O   0  0  0  0  0  0  0  0  0  0  0  0
  189.2530  178.0870  142.3750 S   0  0  1  0  0  0  0  0  0  0  0  0
  189.4000  176.8700  143.7080 C   0  0  2  0  0  3  0  0  0  0  0  0
  190.0040  178.3360  145.5680 O   0  0  0  0  0  0  0  0  0  0  0  0
  190.4550  177.2960  144.7250 C   0  0  1  0  0  0  0  0  0  0  0  0
  190.2400  177.0840  146.1730 C   0  0  2  0  0  0  0  0  0  0  0  0
  191.7670  177.5180  144.2940 O   0  0  0  0  0  1  0  0  0  0  0  0
  189.0490  176.4700  146.5670 O   0  0  0  0  0  1  0  0  0  0  0  0
  191.9480  175.9880  147.5650 C   0  0  0  0  0  2  0  0  0  0  0  0
  191.3860  177.1170  147.1360 C   0  0  0  0  0  3  0  0  0  0  0  0
  190.5090  175.6620  141.9690 O   0  0  0  0  0  1  0  0  0  0  0  0
  189.7640  175.5090  143.1390 C   0  0  0  0  0  2  0  0  0  0  0  0
  1  3  1  0  0  0  0
  1  4  1  0  0  0  0
  2  7  1  0  0  0  0
  3 11  1  0  0  0  0
  4  2  1  0  0  0  0
  5  3  1  0  0  0  0
  6  4  1  0  0  0  0
  7 22  1  0  0  0  0
  8 10  1  0  0  0  0
  9 10  1  0  0  0  0
  9  6  1  0  0  0  0
 10  1  1  0  0  0  0
 11  7  1  0  0  0  0
 11 27  1  0  0  0  0
 12  5  1  0  0  0  0
 13  8  1  0  0  0  0
 13 12  1  0  0  0  0
 14 15  1  0  0  0  0
 15 12  1  0  0  0  0
 15 16  2  0  0  0  0
 18 19  2  0  0  0  0
 19 16  1  0  0  0  0
 19 17  1  0  0  0  0
 20 14  2  0  0  0  0
 20 18  1  0  0  0  0
 21 24  1  0  0  0  0
 21 23  1  0  0  0  0
 22 21  1  0  0  0  0
 22 23  1  0  0  0  0
 25 24  1  0  0  0  0
 27 26  2  0  0  0  0
 27 28  1  0  0  0  0
 28 30  1  0  0  0  0
 29 31  1  0  0  0  0
 30 29  1  0  0  0  0
 30 31  1  0  0  0  0
 31 33  1  0  0  0  0
 31 35  1  0  0  0  0
 32 30  1  0  0  0  0
 35 34  2  0  0  0  0
 36 37  1  0  0  0  0
 37 28  1  0  0  0  0
M  END
>  <MODEL>
6

>  <REMARK>
 VINA RESULT:      -6.1      2.163      6.194
  Name = 
  8 active torsions:
  status: ('A' for Active; 'I' for Inactive)
    1  A    between atoms: O_3  and  C_21
    2  A    between atoms: C_6  and  C_31
    3  A    between atoms: C_11  and  C_33
    4  A    between atoms: C_17  and  C_23
    5  A    between atoms: C_20  and  C_25
    6  A    between atoms: C_27  and  C_33
    7  A    between atoms: C_29  and  S_36
    8  A    between atoms: C_33  and  S_36
                            x       y       z     vdW  Elec       q    Type
                         _______ _______ _______ _____ _____    ______ ____

>  <TORSDO>
F 8

$$$$
=
 OpenBabel10262422513D

 37 42  0  0  1  0  0  0  0  0999 V2000
  189.8250  177.8460  139.3520 C   0  0  1  0  0  3  0  0  0  0  0  0
  190.6950  176.0900  140.7860 O   0  0  0  0  0  0  0  0  0  0  0  0
  188.5710  177.5800  140.1740 C   0  0  2  0  0  3  0  0  0  0  0  0
  191.0530  177.1120  139.8790 C   0  0  1  0  0  3  0  0  0  0  0  0
  187.6090  178.5520  139.8650 O   0  0  0  0  0  0  0  0  0  0  0  0
  191.6940  176.5210  138.6420 C   0  0  0  0  0  2  0  0  0  0  0  0
  190.1330  176.6770  141.9540 C   0  0  2  0  0  3  0  0  0  0  0  0
  189.0460  178.5630  137.2750 C   0  0  0  0  0  2  0  0  0  0  0  0
  190.9230  177.1200  137.4820 C   0  0  0  0  0  2  0  0  0  0  0  0
  189.5930  177.4130  137.9860 N   0  0  1  0  0  0  0  0  0  0  0  0
  188.9010  177.5670  141.6640 C   0  0  2  0  0  3  0  0  0  0  0  0
  186.9460  178.0580  138.7300 C   0  0  2  0  0  3  0  0  0  0  0  0
  187.5130  178.6420  137.4190 C   0  0  0  0  0  2  0  0  0  0  0  0
  184.9790  178.9960  139.9510 C   0  0  0  0  0  3  0  0  0  0  0  0
  185.4770  178.3070  138.8390 C   0  0  0  0  0  0  0  0  0  0  0  0
  184.5960  177.8810  137.8340 C   0  0  0  0  0  3  0  0  0  0  0  0
  182.3770  177.7190  136.9770 F   0  0  0  0  0  0  0  0  0  0  0  0
  182.7310  178.8200  139.0630 C   0  0  0  0  0  3  0  0  0  0  0  0
  183.2250  178.1340  137.9490 C   0  0  0  0  0  0  0  0  0  0  0  0
  183.6080  179.2520  140.0630 C   0  0  0  0  0  3  0  0  0  0  0  0
  190.7940  177.3500  144.2510 C   0  0  2  0  0  3  0  0  0  0  0  0
  191.1800  177.4160  142.7840 C   0  0  2  0  0  3  0  0  0  0  0  0
  190.5520  178.6190  143.4600 C   0  0  0  0  0  2  0  0  0  0  0  0
  191.9420  177.4970  145.0290 O   0  0  0  0  0  0  0  0  0  0  0  0
  191.6830  176.7540  146.1830 C   0  0  0  0  0  1  0  0  0  0  0  0
  187.9330  175.7330  143.2940 O   0  0  0  0  0  0  0  0  0  0  0  0
  187.4520  176.9960  142.5900 S   0  0  1  0  0  0  0  0  0  0  0  0
  187.2290  178.2060  143.9180 C   0  0  2  0  0  3  0  0  0  0  0  0
  188.2170  176.7500  145.6140 O   0  0  0  0  0  0  0  0  0  0  0  0
  187.0790  177.5130  145.2700 C   0  0  1  0  0  0  0  0  0  0  0  0
  187.9470  177.8830  146.4100 C   0  0  2  0  0  0  0  0  0  0  0  0
  185.8960  176.8280  145.5590 O   0  0  0  0  0  1  0  0  0  0  0  0
  188.8900  178.8930  146.2030 O   0  0  0  0  0  1  0  0  0  0  0  0
  188.3060  177.9410  148.8430 C   0  0  0  0  0  2  0  0  0  0  0  0
  187.5710  177.5260  147.8140 C   0  0  0  0  0  3  0  0  0  0  0  0
  184.9240  178.2530  143.2840 O   0  0  0  0  0  1  0  0  0  0  0  0
  186.0020  179.0610  143.6480 C   0  0  0  0  0  2  0  0  0  0  0  0
  1  4  1  0  0  0  0
  1  3  1  0  0  0  0
  2  7  1  0  0  0  0
  3 11  1  0  0  0  0
  4  2  1  0  0  0  0
  5  3  1  0  0  0  0
  6  4  1  0  0  0  0
  7 22  1  0  0  0  0
  8 13  1  0  0  0  0
  8 10  1  0  0  0  0
  9 10  1  0  0  0  0
  9  6  1  0  0  0  0
 10  1  1  0  0  0  0
 11  7  1  0  0  0  0
 11 27  1  0  0  0  0
 12 15  1  0  0  0  0
 12  5  1  0  0  0  0
 13 12  1  0  0  0  0
 14 20  1  0  0  0  0
 15 14  2  0  0  0  0
 16 19  2  0  0  0  0
 16 15  1  0  0  0  0
 17 19  1  0  0  0  0
 18 20  2  0  0  0  0
 19 18  1  0  0  0  0
 21 24  1  0  0  0  0
 22 23  1  0  0  0  0
 22 21  1  0  0  0  0
 23 21  1  0  0  0  0
 24 25  1  0  0  0  0
 27 26  2  0  0  0  0
 27 28  1  0  0  0  0
 28 30  1  0  0  0  0
 29 31  1  0  0  0  0
 30 32  1  0  0  0  0
 30 29  1  0  0  0  0
 30 31  1  0  0  0  0
 31 35  1  0  0  0  0
 33 31  1  0  0  0  0
 35 34  2  0  0  0  0
 36 37  1  0  0  0  0
 37 28  1  0  0  0  0
M  END
>  <MODEL>
7

>  <REMARK>
 VINA RESULT:      -5.8      2.634      4.987
  Name = 
  8 active torsions:
  status: ('A' for Active; 'I' for Inactive)
    1  A    between atoms: O_3  and  C_21
    2  A    between atoms: C_6  and  C_31
    3  A    between atoms: C_11  and  C_33
    4  A    between atoms: C_17  and  C_23
    5  A    between atoms: C_20  and  C_25
    6  A    between atoms: C_27  and  C_33
    7  A    between atoms: C_29  and  S_36
    8  A    between atoms: C_33  and  S_36
                            x       y       z     vdW  Elec       q    Type
                         _______ _______ _______ _____ _____    ______ ____

>  <TORSDO>
F 8

$$$$
=
 OpenBabel10262422513D

 37 42  0  0  1  0  0  0  0  0999 V2000
  181.7470  178.9900  142.4210 C   0  0  1  0  0  3  0  0  0  0  0  0
  180.3080  177.5090  141.1440 O   0  0  0  0  0  0  0  0  0  0  0  0
  182.8200  178.2560  141.6290 C   0  0  2  0  0  3  0  0  0  0  0  0
  180.3320  178.6630  141.9570 C   0  0  1  0  0  3  0  0  0  0  0  0
  184.0570  178.8760  141.8530 O   0  0  0  0  0  0  0  0  0  0  0  0
  179.5650  178.4230  143.2400 C   0  0  0  0  0  2  0  0  0  0  0  0
  181.0000  177.7760  139.9310 C   0  0  2  0  0  3  0  0  0  0  0  0
  182.7750  179.5790  144.4290 C   0  0  0  0  0  2  0  0  0  0  0  0
  180.5220  178.8280  144.3450 C   0  0  0  0  0  2  0  0  0  0  0  0
  181.8590  178.6200  143.8200 N   0  0  1  0  0  0  0  0  0  0  0  0
  182.4650  178.2290  140.1450 C   0  0  2  0  0  3  0  0  0  0  0  0
  184.5510  178.2870  143.0280 C   0  0  2  0  0  3  0  0  0  0  0  0
  184.2430  179.1330  144.2820 C   0  0  0  0  0  2  0  0  0  0  0  0
  186.6810  177.3420  143.9260 C   0  0  0  0  0  3  0  0  0  0  0  0
  186.0160  178.0260  142.9020 C   0  0  0  0  0  0  0  0  0  0  0  0
  186.7270  178.4360  141.7650 C   0  0  0  0  0  3  0  0  0  0  0  0
  188.7800  178.5710  140.5600 F   0  0  0  0  0  0  0  0  0  0  0  0
  188.7580  177.4900  142.6860 C   0  0  0  0  0  3  0  0  0  0  0  0
  188.0970  178.1720  141.6600 C   0  0  0  0  0  0  0  0  0  0  0  0
  188.0490  177.0740  143.8180 C   0  0  0  0  0  3  0  0  0  0  0  0
  180.0470  178.1260  137.6650 C   0  0  2  0  0  3  0  0  0  0  0  0
  180.2340  178.7490  139.0370 C   0  0  2  0  0  3  0  0  0  0  0  0
  181.1070  179.1870  137.8780 C   0  0  0  0  0  2  0  0  0  0  0  0
  178.9310  178.6990  137.0550 O   0  0  0  0  0  0  0  0  0  0  0  0
  179.0420  178.3410  135.7100 C   0  0  0  0  0  1  0  0  0  0  0  0
  182.7240  176.2790  138.3880 O   0  0  0  0  0  0  0  0  0  0  0  0
  183.6180  177.1340  139.2760 S   0  0  1  0  0  0  0  0  0  0  0  0
  184.5160  178.2060  138.1250 C   0  0  2  0  0  3  0  0  0  0  0  0
  185.3590  176.0940  137.2300 O   0  0  0  0  0  0  0  0  0  0  0  0
  185.6660  177.4540  137.4600 C   0  0  1  0  0  0  0  0  0  0  0  0
  185.5230  176.9110  136.0920 C   0  0  2  0  0  0  0  0  0  0  0  0
  186.9620  177.6100  137.9590 O   0  0  0  0  0  1  0  0  0  0  0  0
  184.3100  177.1260  135.4340 O   0  0  0  0  0  1  0  0  0  0  0  0
  187.0580  175.2590  135.1080 C   0  0  0  0  0  2  0  0  0  0  0  0
  186.7240  176.5360  135.2810 C   0  0  0  0  0  3  0  0  0  0  0  0
  184.1830  180.4980  138.7190 O   0  0  0  0  0  1  0  0  0  0  0  0
  185.0610  179.4220  138.8570 C   0  0  0  0  0  2  0  0  0  0  0  0
  1 10  1  0  0  0  0
  2  4  1  0  0  0  0
  3  5  1  0  0  0  0
  3  1  1  0  0  0  0
  4  1  1  0  0  0  0
  4  6  1  0  0  0  0
  5 12  1  0  0  0  0
  6  9  1  0  0  0  0
  7 11  1  0  0  0  0
  7  2  1  0  0  0  0
 10  9  1  0  0  0  0
 10  8  1  0  0  0  0
 11  3  1  0  0  0  0
 12 13  1  0  0  0  0
 13  8  1  0  0  0  0
 15 12  1  0  0  0  0
 15 14  2  0  0  0  0
 16 15  1  0  0  0  0
 17 19  1  0  0  0  0
 18 20  2  0  0  0  0
 19 16  2  0  0  0  0
 19 18  1  0  0  0  0
 20 14  1  0  0  0  0
 21 23  1  0  0  0  0
 21 22  1  0  0  0  0
 22  7  1  0  0  0  0
 23 22  1  0  0  0  0
 24 21  1  0  0  0  0
 25 24  1  0  0  0  0
 26 27  2  0  0  0  0
 27 11  1  0  0  0  0
 28 37  1  0  0  0  0
 28 27  1  0  0  0  0
 29 30  1  0  0  0  0
 30 32  1  0  0  0  0
 30 28  1  0  0  0  0
 31 29  1  0  0  0  0
 31 30  1  0  0  0  0
 33 31  1  0  0  0  0
 34 35  2  0  0  0  0
 35 31  1  0  0  0  0
 36 37  1  0  0  0  0
M  END
>  <MODEL>
8

>  <REMARK>
 VINA RESULT:      -5.7      4.449      8.718
  Name = 
  8 active torsions:
  status: ('A' for Active; 'I' for Inactive)
    1  A    between atoms: O_3  and  C_21
    2  A    between atoms: C_6  and  C_31
    3  A    between atoms: C_11  and  C_33
    4  A    between atoms: C_17  and  C_23
    5  A    between atoms: C_20  and  C_25
    6  A    between atoms: C_27  and  C_33
    7  A    between atoms: C_29  and  S_36
    8  A    between atoms: C_33  and  S_36
                            x       y       z     vdW  Elec       q    Type
                         _______ _______ _______ _____ _____    ______ ____

>  <TORSDO>
F 8

$$$$
=
 OpenBabel10262422513D

 37 42  0  0  1  0  0  0  0  0999 V2000
  188.1370  177.4420  140.2300 C   0  0  1  0  0  3  0  0  0  0  0  0
  187.9220  178.8030  138.2300 O   0  0  0  0  0  0  0  0  0  0  0  0
  186.8000  178.0970  140.5430 C   0  0  2  0  0  3  0  0  0  0  0  0
  188.6270  177.7280  138.8150 C   0  0  1  0  0  3  0  0  0  0  0  0
  186.2540  177.4970  141.6860 O   0  0  0  0  0  0  0  0  0  0  0  0
  190.0870  178.0860  138.9910 C   0  0  0  0  0  2  0  0  0  0  0  0
  186.5650  178.4230  138.0400 C   0  0  2  0  0  3  0  0  0  0  0  0
  189.1130  177.0370  142.3080 C   0  0  0  0  0  2  0  0  0  0  0  0
  190.3880  177.7820  140.4460 C   0  0  0  0  0  2  0  0  0  0  0  0
  189.1340  177.9380  141.1610 N   0  0  1  0  0  0  0  0  0  0  0  0
  185.8580  177.9890  139.3470 C   0  0  2  0  0  3  0  0  0  0  0  0
  186.8240  178.1910  142.7670 C   0  0  2  0  0  3  0  0  0  0  0  0
  188.0560  177.4640  143.3450 C   0  0  0  0  0  2  0  0  0  0  0  0
  186.1710  178.3620  145.1720 C   0  0  0  0  0  3  0  0  0  0  0  0
  185.7980  178.4360  143.8240 C   0  0  0  0  0  0  0  0  0  0  0  0
  184.4760  178.7600  143.4860 C   0  0  0  0  0  3  0  0  0  0  0  0
  182.2550  179.3070  144.1610 F   0  0  0  0  0  0  0  0  0  0  0  0
  183.9090  178.9210  145.8360 C   0  0  0  0  0  3  0  0  0  0  0  0
  183.5320  178.9970  144.4920 C   0  0  0  0  0  0  0  0  0  0  0  0
  185.2280  178.6040  146.1760 C   0  0  0  0  0  3  0  0  0  0  0  0
  187.0020  177.9130  135.6490 C   0  0  2  0  0  3  0  0  0  0  0  0
  186.4120  177.3740  136.9410 C   0  0  2  0  0  3  0  0  0  0  0  0
  185.5000  177.8960  135.8490 C   0  0  0  0  0  2  0  0  0  0  0  0
  187.3770  176.8410  134.8400 O   0  0  0  0  0  0  0  0  0  0  0  0
  188.7360  177.0440  134.5950 C   0  0  0  0  0  1  0  0  0  0  0  0
  184.5470  180.1920  138.7260 O   0  0  0  0  0  0  0  0  0  0  0  0
  184.3840  178.9960  139.6560 S   0  0  1  0  0  0  0  0  0  0  0  0
  183.0070  178.0530  138.9530 C   0  0  2  0  0  3  0  0  0  0  0  0
  181.8970  179.0830  140.8720 O   0  0  0  0  0  0  0  0  0  0  0  0
  181.7940  178.0830  139.8790 C   0  0  1  0  0  0  0  0  0  0  0  0
  180.8870  179.2510  139.9010 C   0  0  2  0  0  0  0  0  0  0  0  0
  181.3100  176.8830  140.4090 O   0  0  0  0  0  1  0  0  0  0  0  0
  181.1760  180.3100  139.0370 O   0  0  0  0  0  1  0  0  0  0  0  0
  179.2830  179.4420  141.7570 C   0  0  0  0  0  2  0  0  0  0  0  0
  179.5100  179.1480  140.4780 C   0  0  0  0  0  3  0  0  0  0  0  0
  182.9530  176.1760  137.4730 O   0  0  0  0  0  1  0  0  0  0  0  0
  183.4260  176.6120  138.7120 C   0  0  0  0  0  2  0  0  0  0  0  0
  1  3  1  0  0  0  0
  1 10  1  0  0  0  0
  2  4  1  0  0  0  0
  3  5  1  0  0  0  0
  4  6  1  0  0  0  0
  4  1  1  0  0  0  0
  5 12  1  0  0  0  0
  6  9  1  0  0  0  0
  7  2  1  0  0  0  0
  7 11  1  0  0  0  0
  8 13  1  0  0  0  0
  9 10  1  0  0  0  0
 10  8  1  0  0  0  0
 11 27  1  0  0  0  0
 11  3  1  0  0  0  0
 12 13  1  0  0  0  0
 12 15  1  0  0  0  0
 14 20  1  0  0  0  0
 15 14  2  0  0  0  0
 16 15  1  0  0  0  0
 16 19  2  0  0  0  0
 17 19  1  0  0  0  0
 18 20  2  0  0  0  0
 19 18  1  0  0  0  0
 21 23  1  0  0  0  0
 21 22  1  0  0  0  0
 22  7  1  0  0  0  0
 23 22  1  0  0  0  0
 24 21  1  0  0  0  0
 25 24  1  0  0  0  0
 26 27  2  0  0  0  0
 28 27  1  0  0  0  0
 28 30  1  0  0  0  0
 30 31  1  0  0  0  0
 30 32  1  0  0  0  0
 30 29  1  0  0  0  0
 31 35  1  0  0  0  0
 31 29  1  0  0  0  0
 33 31  1  0  0  0  0
 35 34  2  0  0  0  0
 36 37  1  0  0  0  0
 37 28  1  0  0  0  0
M  END
>  <MODEL>
9

>  <REMARK>
 VINA RESULT:      -5.6      3.578      7.167
  Name = 
  8 active torsions:
  status: ('A' for Active; 'I' for Inactive)
    1  A    between atoms: O_3  and  C_21
    2  A    between atoms: C_6  and  C_31
    3  A    between atoms: C_11  and  C_33
    4  A    between atoms: C_17  and  C_23
    5  A    between atoms: C_20  and  C_25
    6  A    between atoms: C_27  and  C_33
    7  A    between atoms: C_29  and  S_36
    8  A    between atoms: C_33  and  S_36
                            x       y       z     vdW  Elec       q    Type
                         _______ _______ _______ _____ _____    ______ ____

>  <TORSDO>
F 8

$$$$
