=
 OpenBabel10262421263D

 32 38  0  0  1  0  0  0  0  0999 V2000
  182.5410  179.1390  143.4400 C   0  0  0  0  0  3  0  0  0  0  0  0
  187.3930  177.6410  143.8940 C   0  0  0  0  0  0  0  0  0  0  0  0
  188.3570  178.1010  148.7550 C   0  0  0  0  0  3  0  0  0  0  0  0
  189.6780  177.7170  148.5230 C   0  0  0  0  0  3  0  0  0  0  0  0
  189.2200  176.8590  142.3270 C   0  0  0  0  0  0  0  0  0  0  0  0
  188.2910  177.3350  141.2370 C   0  0  0  0  0  0  0  0  0  0  0  0
  185.1820  178.2900  143.0360 C   0  0  0  0  0  0  0  0  0  0  0  0
  185.7550  178.8140  145.4220 C   0  0  0  0  0  2  0  0  0  0  0  0
  191.0590  177.4760  140.7730 C   0  0  0  0  0  0  0  0  0  0  0  0
  183.4490  179.1570  144.5030 C   0  0  0  0  0  3  0  0  0  0  0  0
  187.4410  178.1190  147.7010 C   0  0  0  0  0  3  0  0  0  0  0  0
  186.8050  177.7010  145.2990 C   0  0  2  0  0  3  0  0  0  0  0  0
  187.8370  177.7770  146.3970 C   0  0  0  0  0  0  0  0  0  0  0  0
  189.5970  176.9590  144.8270 C   0  0  0  0  0  0  0  0  0  0  0  0
  190.1090  177.4090  139.6400 C   0  0  0  0  0  3  0  0  0  0  0  0
  184.7630  178.7240  144.3070 C   0  0  0  0  0  0  0  0  0  0  0  0
  188.7900  177.3600  139.8550 C   0  0  0  0  0  2  0  0  0  0  0  0
  184.2680  178.2840  141.9740 C   0  0  0  0  0  3  0  0  0  0  0  0
  182.9480  178.6970  142.1770 C   0  0  0  0  0  0  0  0  0  0  0  0
  190.0780  177.3460  147.2380 C   0  0  0  0  0  3  0  0  0  0  0  0
  189.1660  177.3670  146.1730 C   0  0  0  0  0  0  0  0  0  0  0  0
  190.7020  176.3650  144.6880 O   0  0  0  0  0  0  0  0  0  0  0  0
  186.5820  177.8540  142.8330 C   0  0  0  0  0  0  0  0  0  0  0  0
  187.0890  177.7410  141.4980 N   0  0  0  0  0  0  0  0  0  0  0  0
  192.7320  177.8880  140.4730 Cl  0  0  0  0  0  0  0  0  0  0  0  0
  188.7630  177.2300  143.6820 N   0  0  0  0  0  0  0  0  0  0  0  0
  190.6370  177.2980  142.0320 C   0  0  0  0  0  3  0  0  0  0  0  0
  181.9890  178.7060  141.0400 C   0  0  0  0  0  2  0  0  0  0  0  0
  180.1040  180.2080  140.5540 C   0  0  1  0  0  3  0  0  0  0  0  0
  180.6930  179.2090  141.4870 N   0  0  0  0  0  0  0  0  0  0  0  0
  180.9630  180.5310  139.4960 O   0  0  0  0  0  1  0  0  0  0  0  0
  179.7150  178.8050  140.4660 C   0  0  0  0  0  2  0  0  0  0  0  0
  1 10  1  0  0  0  0
  2 12  1  0  0  0  0
  4  3  1  0  0  0  0
  5 26  1  0  0  0  0
  6 24  2  0  0  0  0
  6  5  1  0  0  0  0
  7 16  1  0  0  0  0
  9 27  1  0  0  0  0
 11  3  2  0  0  0  0
 12  8  1  6  0  0  0
 12 13  1  0  0  0  0
 13 11  1  0  0  0  0
 14 21  1  0  0  0  0
 15 17  1  0  0  0  0
 15  9  2  0  0  0  0
 16 10  2  0  0  0  0
 16  8  1  0  0  0  0
 17  6  1  0  0  0  0
 18 19  1  0  0  0  0
 18  7  2  0  0  0  0
 19  1  2  0  0  0  0
 20  4  2  0  0  0  0
 21 13  2  0  0  0  0
 21 20  1  0  0  0  0
 22 14  2  0  0  0  0
 23  7  1  0  0  0  0
 23  2  2  0  0  0  0
 24 23  1  0  0  0  0
 25  9  1  0  0  0  0
 26  2  1  0  0  0  0
 26 14  1  0  0  0  0
 27  5  2  0  0  0  0
 28 30  1  0  0  0  0
 28 19  1  0  0  0  0
 29 31  1  6  0  0  0
 29 30  1  0  0  0  0
 32 29  1  0  0  0  0
 32 30  1  0  0  0  0
M  END
>  <MODEL>
1

>  <REMARK>
 VINA RESULT:     -11.9      0.000      0.000
  Name = 
  2 active torsions:
  status: ('A' for Active; 'I' for Inactive)
    1  A    between atoms: N_10  and  C_19
    2  A    between atoms: C_19  and  C_24
                            x       y       z     vdW  Elec       q    Type
                         _______ _______ _______ _____ _____    ______ ____

>  <TORSDO>
F 2

$$$$
=
 OpenBabel10262421263D

 32 38  0  0  1  0  0  0  0  0999 V2000
  188.5910  177.2960  147.8500 C   0  0  0  0  0  3  0  0  0  0  0  0
  186.8750  178.2600  143.1470 C   0  0  0  0  0  0  0  0  0  0  0  0
  181.9640  178.8140  143.7350 C   0  0  0  0  0  3  0  0  0  0  0  0
  181.8230  178.9710  142.3560 C   0  0  0  0  0  3  0  0  0  0  0  0
  187.8830  178.4360  140.8310 C   0  0  0  0  0  0  0  0  0  0  0  0
  189.1090  177.8380  141.4770 C   0  0  0  0  0  0  0  0  0  0  0  0
  188.2680  177.7040  145.0950 C   0  0  0  0  0  0  0  0  0  0  0  0
  185.7710  177.6760  145.3460 C   0  0  0  0  0  2  0  0  0  0  0  0
  188.6230  177.2610  138.7710 C   0  0  0  0  0  0  0  0  0  0  0  0
  187.3080  177.4130  147.3080 C   0  0  0  0  0  3  0  0  0  0  0  0
  183.2350  178.6650  144.2930 C   0  0  0  0  0  3  0  0  0  0  0  0
  185.7480  178.5960  144.1170 C   0  0  2  0  0  3  0  0  0  0  0  0
  184.3810  178.6490  143.4800 C   0  0  0  0  0  0  0  0  0  0  0  0
  185.4200  178.8660  141.2210 C   0  0  0  0  0  0  0  0  0  0  0  0
  189.9940  177.1810  139.3220 C   0  0  0  0  0  3  0  0  0  0  0  0
  187.1440  177.6280  145.9370 C   0  0  0  0  0  0  0  0  0  0  0  0
  190.2290  177.4370  140.6130 C   0  0  0  0  0  2  0  0  0  0  0  0
  189.5510  177.5770  145.6450 C   0  0  0  0  0  3  0  0  0  0  0  0
  189.7140  177.3850  147.0190 C   0  0  0  0  0  0  0  0  0  0  0  0
  182.9550  178.9870  141.5400 C   0  0  0  0  0  3  0  0  0  0  0  0
  184.2350  178.8330  142.0920 C   0  0  0  0  0  0  0  0  0  0  0  0
  185.3000  179.2740  140.0330 O   0  0  0  0  0  0  0  0  0  0  0  0
  188.0840  177.9100  143.6410 C   0  0  0  0  0  0  0  0  0  0  0  0
  189.1810  177.6520  142.7570 N   0  0  0  0  0  0  0  0  0  0  0  0
  188.2880  176.5910  137.1890 Cl  0  0  0  0  0  0  0  0  0  0  0  0
  186.7040  178.4430  141.7220 N   0  0  0  0  0  0  0  0  0  0  0  0
  187.6200  177.7720  139.4980 C   0  0  0  0  0  3  0  0  0  0  0  0
  191.0780  177.2310  147.5920 C   0  0  0  0  0  2  0  0  0  0  0  0
  192.9410  175.6300  147.6750 C   0  0  1  0  0  3  0  0  0  0  0  0
  191.7910  176.1640  146.8960 N   0  0  0  0  0  0  0  0  0  0  0  0
  193.1600  176.3330  148.8670 O   0  0  0  0  0  1  0  0  0  0  0  0
  191.6470  174.9590  147.7250 C   0  0  0  0  0  2  0  0  0  0  0  0
  2 23  2  0  0  0  0
  2 12  1  0  0  0  0
  3 11  1  0  0  0  0
  4  3  2  0  0  0  0
  5  6  1  0  0  0  0
  5 26  1  0  0  0  0
  6 24  2  0  0  0  0
  7 18  2  0  0  0  0
  7 16  1  0  0  0  0
  8 16  1  0  0  0  0
  9 15  2  0  0  0  0
  9 27  1  0  0  0  0
 10  1  1  0  0  0  0
 12  8  1  1  0  0  0
 13 12  1  0  0  0  0
 13 11  2  0  0  0  0
 14 26  1  0  0  0  0
 14 21  1  0  0  0  0
 15 17  1  0  0  0  0
 16 10  2  0  0  0  0
 17  6  1  0  0  0  0
 18 19  1  0  0  0  0
 19 28  1  0  0  0  0
 19  1  2  0  0  0  0
 20 21  2  0  0  0  0
 20  4  1  0  0  0  0
 21 13  1  0  0  0  0
 22 14  2  0  0  0  0
 23  7  1  0  0  0  0
 24 23  1  0  0  0  0
 25  9  1  0  0  0  0
 26  2  1  0  0  0  0
 27  5  2  0  0  0  0
 29 32  1  0  0  0  0
 29 31  1  1  0  0  0
 30 28  1  0  0  0  0
 30 29  1  0  0  0  0
 30 32  1  0  0  0  0
M  END
>  <MODEL>
2

>  <REMARK>
 VINA RESULT:     -11.8      2.178      7.385
  Name = 
  2 active torsions:
  status: ('A' for Active; 'I' for Inactive)
    1  A    between atoms: N_10  and  C_19
    2  A    between atoms: C_19  and  C_24
                            x       y       z     vdW  Elec       q    Type
                         _______ _______ _______ _____ _____    ______ ____

>  <TORSDO>
F 2

$$$$
=
 OpenBabel10262421263D

 32 38  0  0  1  0  0  0  0  0999 V2000
  182.5680  179.1140  143.1350 C   0  0  0  0  0  3  0  0  0  0  0  0
  187.4040  177.6410  143.7950 C   0  0  0  0  0  0  0  0  0  0  0  0
  188.1730  178.1490  148.6860 C   0  0  0  0  0  3  0  0  0  0  0  0
  189.5040  177.7690  148.5100 C   0  0  0  0  0  3  0  0  0  0  0  0
  189.2960  176.8520  142.3090 C   0  0  0  0  0  0  0  0  0  0  0  0
  188.4090  177.3150  141.1790 C   0  0  0  0  0  0  0  0  0  0  0  0
  185.2270  178.2730  142.8440 C   0  0  0  0  0  0  0  0  0  0  0  0
  185.7030  178.8210  145.2460 C   0  0  0  0  0  2  0  0  0  0  0  0
  191.1920  177.4630  140.8240 C   0  0  0  0  0  0  0  0  0  0  0  0
  183.4340  179.1450  144.2330 C   0  0  0  0  0  3  0  0  0  0  0  0
  187.3000  178.1540  147.5960 C   0  0  0  0  0  3  0  0  0  0  0  0
  186.7620  177.7110  145.1750 C   0  0  2  0  0  3  0  0  0  0  0  0
  187.7490  177.8010  146.3120 C   0  0  0  0  0  0  0  0  0  0  0  0
  189.5730  176.9770  144.8210 C   0  0  0  0  0  0  0  0  0  0  0  0
  190.2890  177.3820  139.6550 C   0  0  0  0  0  3  0  0  0  0  0  0
  184.7560  178.7160  144.0940 C   0  0  0  0  0  0  0  0  0  0  0  0
  188.9620  177.3290  139.8170 C   0  0  0  0  0  2  0  0  0  0  0  0
  184.3560  178.2530  141.7470 C   0  0  0  0  0  3  0  0  0  0  0  0
  183.0270  178.6610  141.8940 C   0  0  0  0  0  0  0  0  0  0  0  0
  189.9560  177.3870  147.2460 C   0  0  0  0  0  3  0  0  0  0  0  0
  189.0870  177.3950  146.1450 C   0  0  0  0  0  0  0  0  0  0  0  0
  190.6840  176.3870  144.7310 O   0  0  0  0  0  0  0  0  0  0  0  0
  186.6360  177.8400  142.7010 C   0  0  0  0  0  0  0  0  0  0  0  0
  187.1960  177.7170  141.3890 N   0  0  0  0  0  0  0  0  0  0  0  0
  192.8750  177.8800  140.5860 Cl  0  0  0  0  0  0  0  0  0  0  0  0
  188.7840  177.2340  143.6410 N   0  0  0  0  0  0  0  0  0  0  0  0
  190.7220  177.2950  142.0670 C   0  0  0  0  0  3  0  0  0  0  0  0
  182.1140  178.6570  140.7190 C   0  0  0  0  0  2  0  0  0  0  0  0
  182.0670  178.7780  138.2650 C   0  0  1  0  0  3  0  0  0  0  0  0
  182.8630  178.9750  139.5060 N   0  0  0  0  0  0  0  0  0  0  0  0
  180.8020  178.2310  138.5140 O   0  0  0  0  0  1  0  0  0  0  0  0
  182.1640  180.1010  138.8700 C   0  0  0  0  0  2  0  0  0  0  0  0
  1 10  1  0  0  0  0
  2 12  1  0  0  0  0
  4  3  1  0  0  0  0
  5 26  1  0  0  0  0
  6 24  2  0  0  0  0
  6  5  1  0  0  0  0
  7 16  1  0  0  0  0
  9 27  1  0  0  0  0
 11  3  2  0  0  0  0
 12  8  1  6  0  0  0
 12 13  1  0  0  0  0
 13 11  1  0  0  0  0
 14 21  1  0  0  0  0
 15 17  1  0  0  0  0
 15  9  2  0  0  0  0
 16 10  2  0  0  0  0
 16  8  1  0  0  0  0
 17  6  1  0  0  0  0
 18 19  1  0  0  0  0
 18  7  2  0  0  0  0
 19  1  2  0  0  0  0
 20  4  2  0  0  0  0
 21 13  2  0  0  0  0
 21 20  1  0  0  0  0
 22 14  2  0  0  0  0
 23  7  1  0  0  0  0
 23  2  2  0  0  0  0
 24 23  1  0  0  0  0
 25  9  1  0  0  0  0
 26  2  1  0  0  0  0
 26 14  1  0  0  0  0
 27  5  2  0  0  0  0
 28 19  1  0  0  0  0
 29 31  1  1  0  0  0
 29 32  1  0  0  0  0
 29 30  1  0  0  0  0
 30 28  1  0  0  0  0
 32 30  1  0  0  0  0
M  END
>  <MODEL>
3

>  <REMARK>
 VINA RESULT:     -11.7      0.973      1.079
  Name = 
  2 active torsions:
  status: ('A' for Active; 'I' for Inactive)
    1  A    between atoms: N_10  and  C_19
    2  A    between atoms: C_19  and  C_24
                            x       y       z     vdW  Elec       q    Type
                         _______ _______ _______ _____ _____    ______ ____

>  <TORSDO>
F 2

$$$$
=
 OpenBabel10262421263D

 32 38  0  0  1  0  0  0  0  0999 V2000
  190.4930  177.0260  139.8440 C   0  0  0  0  0  3  0  0  0  0  0  0
  187.1250  178.2160  143.4810 C   0  0  0  0  0  0  0  0  0  0  0  0
  189.4220  176.9760  147.7190 C   0  0  0  0  0  3  0  0  0  0  0  0
  188.2790  177.3310  148.4350 C   0  0  0  0  0  3  0  0  0  0  0  0
  184.7710  179.1450  143.5630 C   0  0  0  0  0  0  0  0  0  0  0  0
  184.7710  178.8830  142.0760 C   0  0  0  0  0  0  0  0  0  0  0  0
  188.2500  177.8060  141.3340 C   0  0  0  0  0  0  0  0  0  0  0  0
  189.2830  176.8990  143.4340 C   0  0  0  0  0  2  0  0  0  0  0  0
  182.3310  178.6900  143.4560 C   0  0  0  0  0  0  0  0  0  0  0  0
  190.4620  176.8050  141.2240 C   0  0  0  0  0  3  0  0  0  0  0  0
  189.4630  177.1600  146.3350 C   0  0  0  0  0  3  0  0  0  0  0  0
  188.4630  177.9690  144.1680 C   0  0  2  0  0  3  0  0  0  0  0  0
  188.3540  177.6800  145.6450 C   0  0  0  0  0  0  0  0  0  0  0  0
  186.0540  178.6470  145.6860 C   0  0  0  0  0  0  0  0  0  0  0  0
  182.3530  178.9720  142.0030 C   0  0  0  0  0  3  0  0  0  0  0  0
  189.3500  177.2040  141.9710 C   0  0  0  0  0  0  0  0  0  0  0  0
  183.5110  179.0470  141.3380 C   0  0  0  0  0  2  0  0  0  0  0  0
  188.2860  178.0160  139.9490 C   0  0  0  0  0  3  0  0  0  0  0  0
  189.4080  177.6380  139.2070 C   0  0  0  0  0  0  0  0  0  0  0  0
  187.1810  177.8750  147.7660 C   0  0  0  0  0  3  0  0  0  0  0  0
  187.2120  178.0580  146.3760 C   0  0  0  0  0  0  0  0  0  0  0  0
  185.1490  179.2050  146.3670 O   0  0  0  0  0  0  0  0  0  0  0  0
  187.0680  178.2050  142.1310 C   0  0  0  0  0  0  0  0  0  0  0  0
  185.8400  178.4970  141.4540 N   0  0  0  0  0  0  0  0  0  0  0  0
  180.8220  178.2530  144.2270 Cl  0  0  0  0  0  0  0  0  0  0  0  0
  185.9570  178.5920  144.2480 N   0  0  0  0  0  0  0  0  0  0  0  0
  183.4630  178.6920  144.1720 C   0  0  0  0  0  3  0  0  0  0  0  0
  189.4300  177.8450  137.7340 C   0  0  0  0  0  2  0  0  0  0  0  0
  187.2960  178.0260  136.5280 C   0  0  1  0  0  3  0  0  0  0  0  0
  188.3230  177.1230  137.1140 N   0  0  0  0  0  0  0  0  0  0  0  0
  187.5560  179.3780  136.7850 O   0  0  0  0  0  1  0  0  0  0  0  0
  188.3480  177.4700  135.6860 C   0  0  0  0  0  2  0  0  0  0  0  0
  1 10  1  0  0  0  0
  2 12  1  0  0  0  0
  2 26  1  0  0  0  0
  3  4  1  0  0  0  0
  5 27  2  0  0  0  0
  5 26  1  0  0  0  0
  6  5  1  0  0  0  0
  7 16  1  0  0  0  0
  7 23  1  0  0  0  0
  9 27  1  0  0  0  0
  9 25  1  0  0  0  0
 10 16  2  0  0  0  0
 11  3  2  0  0  0  0
 12  8  1  6  0  0  0
 12 13  1  0  0  0  0
 13 11  1  0  0  0  0
 13 21  2  0  0  0  0
 14 22  2  0  0  0  0
 14 21  1  0  0  0  0
 15  9  2  0  0  0  0
 16  8  1  0  0  0  0
 17 15  1  0  0  0  0
 17  6  1  0  0  0  0
 18  7  2  0  0  0  0
 19  1  2  0  0  0  0
 19 18  1  0  0  0  0
 20  4  2  0  0  0  0
 21 20  1  0  0  0  0
 23  2  2  0  0  0  0
 24  6  2  0  0  0  0
 24 23  1  0  0  0  0
 26 14  1  0  0  0  0
 28 19  1  0  0  0  0
 29 31  1  1  0  0  0
 29 30  1  0  0  0  0
 30 28  1  0  0  0  0
 32 29  1  0  0  0  0
 32 30  1  0  0  0  0
M  END
>  <MODEL>
4

>  <REMARK>
 VINA RESULT:     -11.4      3.223      6.115
  Name = 
  2 active torsions:
  status: ('A' for Active; 'I' for Inactive)
    1  A    between atoms: N_10  and  C_19
    2  A    between atoms: C_19  and  C_24
                            x       y       z     vdW  Elec       q    Type
                         _______ _______ _______ _____ _____    ______ ____

>  <TORSDO>
F 2

$$$$
=
 OpenBabel10262421263D

 32 38  0  0  1  0  0  0  0  0999 V2000
  187.6410  177.6000  147.3920 C   0  0  0  0  0  3  0  0  0  0  0  0
  186.5200  178.2720  142.4640 C   0  0  0  0  0  0  0  0  0  0  0  0
  181.5980  179.0030  142.4260 C   0  0  0  0  0  3  0  0  0  0  0  0
  181.6240  179.0650  141.0330 C   0  0  0  0  0  3  0  0  0  0  0  0
  187.7970  178.2530  140.2780 C   0  0  2  0  0  3  0  0  0  0  0  0
  188.9180  177.6690  141.1040 C   0  0  0  0  0  0  0  0  0  0  0  0
  187.6560  177.8180  144.5970 C   0  0  0  0  0  0  0  0  0  0  0  0
  185.1480  177.8770  144.5510 C   0  0  0  0  0  2  0  0  0  0  0  0
  188.7290  176.9130  138.4040 C   0  0  0  0  0  0  0  0  0  0  0  0
  186.4340  177.7130  146.6950 C   0  0  0  0  0  3  0  0  0  0  0  0
  182.7890  178.8590  143.1400 C   0  0  0  0  0  3  0  0  0  0  0  0
  185.3010  178.7070  143.2680 C   0  0  2  0  0  3  0  0  0  0  0  0
  184.0200  178.7530  142.4710 C   0  0  0  0  0  0  0  0  0  0  0  0
  185.3230  178.7790  140.3420 C   0  0  0  0  0  0  0  0  0  0  0  0
  190.0230  176.8350  139.1180 C   0  0  0  0  0  3  0  0  0  0  0  0
  186.4390  177.8340  145.3030 C   0  0  0  0  0  0  0  0  0  0  0  0
  190.1150  177.1760  140.4080 C   0  0  0  0  0  3  0  0  0  0  0  0
  188.8610  177.6960  145.3020 C   0  0  0  0  0  3  0  0  0  0  0  0
  188.8550  177.5980  146.6970 C   0  0  0  0  0  0  0  0  0  0  0  0
  182.8430  178.9910  140.3570 C   0  0  0  0  0  3  0  0  0  0  0  0
  184.0440  178.8400  141.0660 C   0  0  0  0  0  0  0  0  0  0  0  0
  185.3570  179.1040  139.1230 O   0  0  0  0  0  0  0  0  0  0  0  0
  187.6500  177.9250  143.1210 C   0  0  0  0  0  0  0  0  0  0  0  0
  188.8330  177.5730  142.3930 N   0  0  0  0  0  0  0  0  0  0  0  0
  188.5570  176.1420  136.8440 Cl  0  0  0  0  0  0  0  0  0  0  0  0
  186.5230  178.3560  141.0200 N   0  0  0  0  0  0  0  0  0  0  0  0
  187.6680  177.5030  138.9710 C   0  0  0  0  0  3  0  0  0  0  0  0
  190.1370  177.4480  147.4370 C   0  0  0  0  0  2  0  0  0  0  0  0
  191.7980  176.0470  146.2870 C   0  0  1  0  0  3  0  0  0  0  0  0
  190.6640  176.0990  147.2480 N   0  0  0  0  0  0  0  0  0  0  0  0
  192.0560  177.2870  145.6880 O   0  0  0  0  0  1  0  0  0  0  0  0
  192.0560  176.1270  147.7210 C   0  0  0  0  0  2  0  0  0  0  0  0
  2 23  2  0  0  0  0
  2 12  1  0  0  0  0
  3 11  1  0  0  0  0
  4  3  2  0  0  0  0
  5 27  1  6  0  0  0
  5 26  1  0  0  0  0
  5  6  1  0  0  0  0
  6 24  2  0  0  0  0
  7 18  1  0  0  0  0
  7 16  2  0  0  0  0
  8 16  1  0  0  0  0
  9 27  2  0  0  0  0
  9 15  1  0  0  0  0
 10  1  2  0  0  0  0
 12  8  1  1  0  0  0
 13 11  2  0  0  0  0
 13 12  1  0  0  0  0
 14 26  1  0  0  0  0
 14 21  1  0  0  0  0
 15 17  2  0  0  0  0
 16 10  1  0  0  0  0
 17  6  1  0  0  0  0
 18 19  2  0  0  0  0
 19  1  1  0  0  0  0
 19 28  1  0  0  0  0
 20  4  1  0  0  0  0
 20 21  2  0  0  0  0
 21 13  1  0  0  0  0
 22 14  2  0  0  0  0
 23  7  1  0  0  0  0
 24 23  1  0  0  0  0
 25  9  1  0  0  0  0
 26  2  1  0  0  0  0
 29 31  1  6  0  0  0
 29 30  1  0  0  0  0
 29 32  1  0  0  0  0
 30 28  1  0  0  0  0
 30 32  1  0  0  0  0
M  END
>  <MODEL>
5

>  <REMARK>
 VINA RESULT:     -11.2      2.006      7.157
  Name = 
  2 active torsions:
  status: ('A' for Active; 'I' for Inactive)
    1  A    between atoms: N_10  and  C_19
    2  A    between atoms: C_19  and  C_24
                            x       y       z     vdW  Elec       q    Type
                         _______ _______ _______ _____ _____    ______ ____

>  <TORSDO>
F 2

$$$$
=
 OpenBabel10262421263D

 32 38  0  0  1  0  0  0  0  0999 V2000
  189.7000  177.8050  138.5580 C   0  0  0  0  0  3  0  0  0  0  0  0
  187.9010  177.5710  143.3230 C   0  0  0  0  0  0  0  0  0  0  0  0
  183.2460  179.2920  142.9500 C   0  0  0  0  0  3  0  0  0  0  0  0
  183.0980  179.1730  144.3330 C   0  0  0  0  0  3  0  0  0  0  0  0
  188.8040  176.8940  145.5890 C   0  0  2  0  0  3  0  0  0  0  0  0
  190.1450  176.8990  144.8950 C   0  0  0  0  0  0  0  0  0  0  0  0
  189.3260  177.5030  141.3210 C   0  0  0  0  0  0  0  0  0  0  0  0
  187.0990  178.6530  141.1830 C   0  0  0  0  0  2  0  0  0  0  0  0
  190.0640  177.5510  147.6270 C   0  0  0  0  0  0  0  0  0  0  0  0
  188.5200  178.2590  139.1560 C   0  0  0  0  0  3  0  0  0  0  0  0
  184.4280  178.8720  142.3370 C   0  0  0  0  0  3  0  0  0  0  0  0
  186.7090  177.8040  142.4020 C   0  0  2  0  0  3  0  0  0  0  0  0
  185.4870  178.3490  143.0990 C   0  0  0  0  0  0  0  0  0  0  0  0
  186.3980  177.6230  145.3060 C   0  0  0  0  0  0  0  0  0  0  0  0
  191.3060  177.0260  147.0160 C   0  0  0  0  0  3  0  0  0  0  0  0
  188.3260  178.0990  140.5310 C   0  0  0  0  0  0  0  0  0  0  0  0
  191.3550  176.7300  145.7120 C   0  0  0  0  0  3  0  0  0  0  0  0
  190.5090  177.0590  140.7150 C   0  0  0  0  0  3  0  0  0  0  0  0
  190.6910  177.1980  139.3370 C   0  0  0  0  0  0  0  0  0  0  0  0
  184.1300  178.6280  145.0970 C   0  0  0  0  0  3  0  0  0  0  0  0
  185.3230  178.2090  144.4900 C   0  0  0  0  0  0  0  0  0  0  0  0
  186.1490  177.2770  146.4940 O   0  0  0  0  0  0  0  0  0  0  0  0
  189.1200  177.3580  142.7790 C   0  0  0  0  0  0  0  0  0  0  0  0
  190.2470  177.0710  143.6160 N   0  0  0  0  0  0  0  0  0  0  0  0
  190.1220  178.2530  149.2290 Cl  0  0  0  0  0  0  0  0  0  0  0  0
  187.7170  177.4420  144.7520 N   0  0  0  0  0  0  0  0  0  0  0  0
  188.9140  177.5650  146.9400 C   0  0  0  0  0  3  0  0  0  0  0  0
  191.9590  176.7430  138.7050 C   0  0  0  0  0  2  0  0  0  0  0  0
  192.8330  175.9960  136.5320 C   0  0  1  0  0  3  0  0  0  0  0  0
  191.6680  176.0430  137.4570 N   0  0  0  0  0  0  0  0  0  0  0  0
  193.9320  176.7210  137.0100 O   0  0  0  0  0  1  0  0  0  0  0  0
  192.5560  174.8720  137.4200 C   0  0  0  0  0  2  0  0  0  0  0  0
  1 10  2  0  0  0  0
  1 19  1  0  0  0  0
  2 26  1  0  0  0  0
  3  4  1  0  0  0  0
  4 20  2  0  0  0  0
  5 27  1  1  0  0  0
  6  5  1  0  0  0  0
  6 17  1  0  0  0  0
  7 23  1  0  0  0  0
  9 25  1  0  0  0  0
 10 16  1  0  0  0  0
 11  3  2  0  0  0  0
 11 13  1  0  0  0  0
 12  8  1  6  0  0  0
 12 13  1  0  0  0  0
 12  2  1  0  0  0  0
 13 21  2  0  0  0  0
 14 22  2  0  0  0  0
 15  9  1  0  0  0  0
 16  8  1  0  0  0  0
 16  7  2  0  0  0  0
 17 15  2  0  0  0  0
 18  7  1  0  0  0  0
 19 18  2  0  0  0  0
 21 20  1  0  0  0  0
 21 14  1  0  0  0  0
 23  2  2  0  0  0  0
 23 24  1  0  0  0  0
 24  6  2  0  0  0  0
 26 14  1  0  0  0  0
 26  5  1  0  0  0  0
 27  9  2  0  0  0  0
 28 19  1  0  0  0  0
 29 31  1  1  0  0  0
 29 32  1  0  0  0  0
 29 30  1  0  0  0  0
 30 28  1  0  0  0  0
 32 30  1  0  0  0  0
M  END
>  <MODEL>
6

>  <REMARK>
 VINA RESULT:     -11.2      3.230      7.361
  Name = 
  2 active torsions:
  status: ('A' for Active; 'I' for Inactive)
    1  A    between atoms: N_10  and  C_19
    2  A    between atoms: C_19  and  C_24
                            x       y       z     vdW  Elec       q    Type
                         _______ _______ _______ _____ _____    ______ ____

>  <TORSDO>
F 2

$$$$
=
 OpenBabel10262421263D

 32 38  0  0  1  0  0  0  0  0999 V2000
  184.9740  178.4050  146.3300 C   0  0  0  0  0  3  0  0  0  0  0  0
  185.9050  178.4530  141.3170 C   0  0  0  0  0  0  0  0  0  0  0  0
  181.4230  179.1080  139.2560 C   0  0  0  0  0  3  0  0  0  0  0  0
  181.9960  178.9990  137.9890 C   0  0  0  0  0  3  0  0  0  0  0  0
  187.9360  178.1830  139.8300 C   0  0  2  0  0  3  0  0  0  0  0  0
  188.6200  177.7190  141.0940 C   0  0  0  0  0  0  0  0  0  0  0  0
  186.0940  178.2790  143.7620 C   0  0  0  0  0  0  0  0  0  0  0  0
  183.8090  178.2980  142.7240 C   0  0  0  0  0  2  0  0  0  0  0  0
  189.4800  176.6360  138.6480 C   0  0  0  0  0  0  0  0  0  0  0  0
  184.1430  178.4160  145.2050 C   0  0  0  0  0  3  0  0  0  0  0  0
  182.2320  179.0690  140.3930 C   0  0  0  0  0  3  0  0  0  0  0  0
  184.4840  178.9670  141.5180 C   0  0  2  0  0  3  0  0  0  0  0  0
  183.6220  178.8980  140.2810 C   0  0  0  0  0  0  0  0  0  0  0  0
  185.6560  178.6800  138.8510 C   0  0  0  0  0  0  0  0  0  0  0  0
  190.3850  176.6630  139.8180 C   0  0  0  0  0  3  0  0  0  0  0  0
  184.6990  178.3650  143.9240 C   0  0  0  0  0  0  0  0  0  0  0  0
  189.9750  177.1610  140.9900 C   0  0  0  0  0  3  0  0  0  0  0  0
  186.9190  178.2590  144.8950 C   0  0  0  0  0  3  0  0  0  0  0  0
  186.3630  178.3330  146.1750 C   0  0  0  0  0  0  0  0  0  0  0  0
  183.3790  178.8590  137.8620 C   0  0  0  0  0  3  0  0  0  0  0  0
  184.1990  178.8130  139.0000 C   0  0  0  0  0  0  0  0  0  0  0  0
  186.1780  178.8530  137.7160 O   0  0  0  0  0  0  0  0  0  0  0  0
  186.6720  178.2030  142.4020 C   0  0  0  0  0  0  0  0  0  0  0  0
  188.0320  177.7810  142.2460 N   0  0  0  0  0  0  0  0  0  0  0  0
  189.9070  175.6770  137.2480 Cl  0  0  0  0  0  0  0  0  0  0  0  0
  186.4780  178.3600  139.9920 N   0  0  0  0  0  0  0  0  0  0  0  0
  188.3030  177.2770  138.6760 C   0  0  0  0  0  3  0  0  0  0  0  0
  187.2450  178.2920  147.3720 C   0  0  0  0  0  2  0  0  0  0  0  0
  189.5620  177.9460  148.1160 C   0  0  1  0  0  3  0  0  0  0  0  0
  188.6120  177.9720  146.9710 N   0  0  0  0  0  0  0  0  0  0  0  0
  188.9650  178.3360  149.3220 O   0  0  0  0  0  1  0  0  0  0  0  0
  188.9560  176.7090  147.6400 C   0  0  0  0  0  2  0  0  0  0  0  0
  2 12  1  0  0  0  0
  2 23  2  0  0  0  0
  3 11  1  0  0  0  0
  4  3  2  0  0  0  0
  5 27  1  6  0  0  0
  5 26  1  0  0  0  0
  5  6  1  0  0  0  0
  6 24  2  0  0  0  0
  7 16  2  0  0  0  0
  7 18  1  0  0  0  0
  8 16  1  0  0  0  0
  9 27  2  0  0  0  0
  9 15  1  0  0  0  0
 10  1  2  0  0  0  0
 12  8  1  1  0  0  0
 13 11  2  0  0  0  0
 13 12  1  0  0  0  0
 14 21  1  0  0  0  0
 14 26  1  0  0  0  0
 15 17  2  0  0  0  0
 16 10  1  0  0  0  0
 17  6  1  0  0  0  0
 18 19  2  0  0  0  0
 19  1  1  0  0  0  0
 19 28  1  0  0  0  0
 20  4  1  0  0  0  0
 20 21  2  0  0  0  0
 21 13  1  0  0  0  0
 22 14  2  0  0  0  0
 23  7  1  0  0  0  0
 24 23  1  0  0  0  0
 25  9  1  0  0  0  0
 26  2  1  0  0  0  0
 29 31  1  1  0  0  0
 30 28  1  0  0  0  0
 30 32  1  0  0  0  0
 30 29  1  0  0  0  0
 32 29  1  0  0  0  0
M  END
>  <MODEL>
7

>  <REMARK>
 VINA RESULT:      -9.9      2.313      7.068
  Name = 
  2 active torsions:
  status: ('A' for Active; 'I' for Inactive)
    1  A    between atoms: N_10  and  C_19
    2  A    between atoms: C_19  and  C_24
                            x       y       z     vdW  Elec       q    Type
                         _______ _______ _______ _____ _____    ______ ____

>  <TORSDO>
F 2

$$$$
=
 OpenBabel10262421263D

 32 38  0  0  1  0  0  0  0  0999 V2000
  182.9590  178.5950  141.7040 C   0  0  0  0  0  3  0  0  0  0  0  0
  187.8880  178.0770  142.8980 C   0  0  0  0  0  0  0  0  0  0  0  0
  190.1410  177.4290  138.5080 C   0  0  0  0  0  3  0  0  0  0  0  0
  191.3590  177.2540  139.1660 C   0  0  0  0  0  3  0  0  0  0  0  0
  189.2600  178.0270  145.0250 C   0  0  2  0  0  3  0  0  0  0  0  0
  187.9220  177.9200  145.7150 C   0  0  0  0  0  0  0  0  0  0  0  0
  185.4430  178.3230  142.9750 C   0  0  0  0  0  0  0  0  0  0  0  0
  186.5280  177.6910  140.8020 C   0  0  0  0  0  2  0  0  0  0  0  0
  190.1380  176.6880  146.9250 C   0  0  0  0  0  0  0  0  0  0  0  0
  184.0910  178.2550  140.9570 C   0  0  0  0  0  3  0  0  0  0  0  0
  188.9920  177.7390  139.2390 C   0  0  0  0  0  3  0  0  0  0  0  0
  187.8100  178.2970  141.3920 C   0  0  2  0  0  3  0  0  0  0  0  0
  189.0400  177.8560  140.6390 C   0  0  0  0  0  0  0  0  0  0  0  0
  190.3640  177.8660  142.7540 C   0  0  0  0  0  0  0  0  0  0  0  0
  188.9650  177.0870  147.7350 C   0  0  0  0  0  3  0  0  0  0  0  0
  185.3330  178.1300  141.5860 C   0  0  0  0  0  0  0  0  0  0  0  0
  187.9000  177.6580  147.1610 C   0  0  0  0  0  3  0  0  0  0  0  0
  184.3020  178.6550  143.7180 C   0  0  0  0  0  3  0  0  0  0  0  0
  183.0660  178.8010  143.0830 C   0  0  0  0  0  0  0  0  0  0  0  0
  191.4270  177.3970  140.5530 C   0  0  0  0  0  3  0  0  0  0  0  0
  190.2760  177.7030  141.2950 C   0  0  0  0  0  0  0  0  0  0  0  0
  191.4990  177.9720  143.2950 O   0  0  0  0  0  0  0  0  0  0  0  0
  186.7590  178.1670  143.6350 C   0  0  0  0  0  0  0  0  0  0  0  0
  186.8100  178.0290  145.0610 N   0  0  0  0  0  0  0  0  0  0  0  0
  191.3530  175.6410  147.6250 Cl  0  0  0  0  0  0  0  0  0  0  0  0
  189.1660  177.9080  143.5560 N   0  0  0  0  0  0  0  0  0  0  0  0
  190.2430  177.0560  145.6420 C   0  0  0  0  0  3  0  0  0  0  0  0
  181.8550  179.1340  143.8820 C   0  0  0  0  0  2  0  0  0  0  0  0
  179.5100  178.6570  143.3210 C   0  0  1  0  0  3  0  0  0  0  0  0
  180.7380  179.4300  142.9900 N   0  0  0  0  0  0  0  0  0  0  0  0
  179.7150  177.7320  144.3530 O   0  0  0  0  0  1  0  0  0  0  0  0
  179.6800  180.0130  143.8290 C   0  0  0  0  0  2  0  0  0  0  0  0
  1 19  1  0  0  0  0
  2 26  1  0  0  0  0
  2 23  2  0  0  0  0
  3  4  2  0  0  0  0
  3 11  1  0  0  0  0
  4 20  1  0  0  0  0
  5 27  1  1  0  0  0
  5  6  1  0  0  0  0
  6 17  1  0  0  0  0
  7 23  1  0  0  0  0
  7 18  1  0  0  0  0
  8 16  1  0  0  0  0
  9 25  1  0  0  0  0
  9 15  1  0  0  0  0
 10 16  1  0  0  0  0
 10  1  2  0  0  0  0
 11 13  2  0  0  0  0
 12  8  1  6  0  0  0
 12  2  1  0  0  0  0
 13 21  1  0  0  0  0
 13 12  1  0  0  0  0
 14 22  2  0  0  0  0
 14 26  1  0  0  0  0
 16  7  2  0  0  0  0
 17 15  2  0  0  0  0
 19 18  2  0  0  0  0
 19 28  1  0  0  0  0
 20 21  2  0  0  0  0
 21 14  1  0  0  0  0
 23 24  1  0  0  0  0
 24  6  2  0  0  0  0
 26  5  1  0  0  0  0
 27  9  2  0  0  0  0
 29 32  1  0  0  0  0
 29 31  1  1  0  0  0
 30 29  1  0  0  0  0
 30 32  1  0  0  0  0
 30 28  1  0  0  0  0
M  END
>  <MODEL>
8

>  <REMARK>
 VINA RESULT:      -9.7      2.196      5.010
  Name = 
  2 active torsions:
  status: ('A' for Active; 'I' for Inactive)
    1  A    between atoms: N_10  and  C_19
    2  A    between atoms: C_19  and  C_24
                            x       y       z     vdW  Elec       q    Type
                         _______ _______ _______ _____ _____    ______ ____

>  <TORSDO>
F 2

$$$$
=
 OpenBabel10262421263D

 32 38  0  0  1  0  0  0  0  0999 V2000
  187.3740  177.8000  146.5240 C   0  0  0  0  0  3  0  0  0  0  0  0
  185.0130  178.6480  142.0860 C   0  0  0  0  0  0  0  0  0  0  0  0
  180.2120  179.0800  143.3260 C   0  0  0  0  0  3  0  0  0  0  0  0
  179.8820  179.2130  141.9770 C   0  0  0  0  0  3  0  0  0  0  0  0
  185.6940  178.8160  139.6540 C   0  0  0  0  0  0  0  0  0  0  0  0
  187.0130  178.2610  140.1340 C   0  0  0  0  0  0  0  0  0  0  0  0
  186.6710  178.1580  143.8340 C   0  0  0  0  0  0  0  0  0  0  0  0
  184.2330  178.0670  144.4200 C   0  0  0  0  0  2  0  0  0  0  0  0
  186.1820  177.6310  137.5250 C   0  0  0  0  0  0  0  0  0  0  0  0
  186.0260  177.8740  146.1600 C   0  0  0  0  0  3  0  0  0  0  0  0
  181.5510  178.9730  143.7090 C   0  0  0  0  0  3  0  0  0  0  0  0
  184.0180  178.9680  143.1950 C   0  0  2  0  0  3  0  0  0  0  0  0
  182.5770  178.9760  142.7480 C   0  0  0  0  0  0  0  0  0  0  0  0
  183.2950  179.1870  140.3670 C   0  0  0  0  0  0  0  0  0  0  0  0
  187.6170  177.5950  137.8860 C   0  0  0  0  0  3  0  0  0  0  0  0
  185.6730  178.0640  144.8210 C   0  0  0  0  0  0  0  0  0  0  0  0
  188.0170  177.8770  139.1310 C   0  0  0  0  0  2  0  0  0  0  0  0
  188.0190  178.0730  144.2060 C   0  0  0  0  0  3  0  0  0  0  0  0
  188.3710  177.9060  145.5490 C   0  0  0  0  0  0  0  0  0  0  0  0
  180.8930  179.2470  141.0150 C   0  0  0  0  0  3  0  0  0  0  0  0
  182.2400  179.1340  141.3910 C   0  0  0  0  0  0  0  0  0  0  0  0
  183.0040  179.5740  139.2020 O   0  0  0  0  0  0  0  0  0  0  0  0
  186.2870  178.3370  142.4160 C   0  0  0  0  0  0  0  0  0  0  0  0
  187.2620  178.0950  141.3940 N   0  0  0  0  0  0  0  0  0  0  0  0
  185.6570  176.9290  136.0110 Cl  0  0  0  0  0  0  0  0  0  0  0  0
  184.6460  178.8050  140.6950 N   0  0  0  0  0  0  0  0  0  0  0  0
  185.2730  178.1260  138.3750 C   0  0  0  0  0  3  0  0  0  0  0  0
  189.8040  177.7970  145.9340 C   0  0  0  0  0  2  0  0  0  0  0  0
  191.7080  177.1870  144.5030 C   0  0  1  0  0  3  0  0  0  0  0  0
  190.4480  176.7410  145.1570 N   0  0  0  0  0  0  0  0  0  0  0  0
  191.9570  178.5530  144.6860 O   0  0  0  0  0  1  0  0  0  0  0  0
  191.7530  176.4980  145.7880 C   0  0  0  0  0  2  0  0  0  0  0  0
  2 23  2  0  0  0  0
  2 12  1  0  0  0  0
  3 11  1  0  0  0  0
  4  3  2  0  0  0  0
  5  6  1  0  0  0  0
  5 26  1  0  0  0  0
  6 24  2  0  0  0  0
  7 18  2  0  0  0  0
  7 16  1  0  0  0  0
  8 16  1  0  0  0  0
  9 15  2  0  0  0  0
  9 27  1  0  0  0  0
 10  1  1  0  0  0  0
 12  8  1  1  0  0  0
 13 12  1  0  0  0  0
 13 11  2  0  0  0  0
 14 26  1  0  0  0  0
 14 21  1  0  0  0  0
 15 17  1  0  0  0  0
 16 10  2  0  0  0  0
 17  6  1  0  0  0  0
 18 19  1  0  0  0  0
 19 28  1  0  0  0  0
 19  1  2  0  0  0  0
 20 21  2  0  0  0  0
 20  4  1  0  0  0  0
 21 13  1  0  0  0  0
 22 14  2  0  0  0  0
 23  7  1  0  0  0  0
 24 23  1  0  0  0  0
 25  9  1  0  0  0  0
 26  2  1  0  0  0  0
 27  5  2  0  0  0  0
 29 31  1  1  0  0  0
 29 30  1  0  0  0  0
 29 32  1  0  0  0  0
 30 32  1  0  0  0  0
 30 28  1  0  0  0  0
M  END
>  <MODEL>
9

>  <REMARK>
 VINA RESULT:      -9.6      2.328      7.374
  Name = 
  2 active torsions:
  status: ('A' for Active; 'I' for Inactive)
    1  A    between atoms: N_10  and  C_19
    2  A    between atoms: C_19  and  C_24
                            x       y       z     vdW  Elec       q    Type
                         _______ _______ _______ _____ _____    ______ ____

>  <TORSDO>
F 2

$$$$
