=
 OpenBabel10262419143D

 34 39  0  0  1  0  0  0  0  0999 V2000
  183.2950  176.4020  138.5840 C   0  0  0  0  0  0  0  0  0  0  0  0
  184.6340  178.4170  138.3340 C   0  0  0  0  0  0  0  0  0  0  0  0
  182.5850  178.4900  139.8300 C   0  0  1  0  0  3  0  0  0  0  0  0
  182.1740  178.6530  142.3290 C   0  0  0  0  0  0  0  0  0  0  0  0
  185.2830  176.3750  137.2020 C   0  0  0  0  0  3  0  0  0  0  0  0
  185.5110  177.7210  137.4970 C   0  0  0  0  0  3  0  0  0  0  0  0
  184.4650  178.6460  141.5390 C   0  0  0  0  0  3  0  0  0  0  0  0
  183.5250  177.7580  138.8950 C   0  0  0  0  0  0  0  0  0  0  0  0
  184.9190  178.7700  142.8530 C   0  0  0  0  0  3  0  0  0  0  0  0
  182.6350  178.7710  143.6430 C   0  0  0  0  0  3  0  0  0  0  0  0
  184.1730  175.7190  137.7390 C   0  0  0  0  0  3  0  0  0  0  0  0
  181.1610  177.8940  139.7450 C   0  0  2  0  0  3  0  0  0  0  0  0
  182.1190  175.7420  139.0620 N   0  0  0  0  0  2  0  0  0  0  0  0
  184.8710  179.7600  138.6020 O   0  0  0  0  0  1  0  0  0  0  0  0
  180.7650  178.5950  142.0840 N   0  0  0  0  0  2  0  0  0  0  0  0
  180.2050  178.5700  140.7340 C   0  0  1  0  0  3  0  0  0  0  0  0
  184.0050  178.8280  143.9130 C   0  0  0  0  0  0  0  0  0  0  0  0
  183.0920  178.5630  141.2610 C   0  0  0  0  0  0  0  0  0  0  0  0
  181.2020  176.3860  139.9970 C   0  0  0  0  0  2  0  0  0  0  0  0
  179.5130  181.6140  138.5540 C   0  0  0  0  0  0  0  0  0  0  0  0
  179.0220  182.4960  139.5180 C   0  0  0  0  0  3  0  0  0  0  0  0
  179.8120  179.9440  140.2810 C   0  0  0  0  0  0  0  0  0  0  0  0
  178.9310  182.1020  140.8180 N   0  0  0  0  0  0  0  0  0  0  0  0
  179.9080  180.3330  138.9380 C   0  0  0  0  0  3  0  0  0  0  0  0
  179.3100  180.8560  141.2130 C   0  0  0  0  0  3  0  0  0  0  0  0
  179.6130  182.0350  137.1330 C   0  0  0  0  0  1  0  0  0  0  0  0
  184.4440  178.9520  145.2660 N   0  0  0  0  0  2  0  0  0  0  0  0
  185.2170  177.9210  145.9440 C   0  0  0  0  0  2  0  0  0  0  0  0
  188.6330  177.8560  145.0430 C   0  0  0  0  0  1  0  0  0  0  0  0
  187.6480  177.3940  146.1000 C   0  0  2  0  0  3  0  0  0  0  0  0
  187.9510  178.3890  148.2670 N   0  0  0  0  0  2  0  0  0  0  0  0
  186.6410  178.7860  147.7740 C   0  0  0  0  0  2  0  0  0  0  0  0
  186.5930  178.4550  146.3010 C   0  0  2  0  0  3  0  0  0  0  0  0
  188.3560  177.2680  147.4330 C   0  0  0  0  0  2  0  0  0  0  0  0
  1  8  1  0  0  0  0
  1 13  1  0  0  0  0
  2 14  1  0  0  0  0
  2  8  2  0  0  0  0
  3  8  1  6  0  0  0
  3 18  1  0  0  0  0
  4 10  1  0  0  0  0
  5  6  2  0  0  0  0
  5 11  1  0  0  0  0
  6  2  1  0  0  0  0
  7  9  2  0  0  0  0
  9 17  1  0  0  0  0
 10 17  2  0  0  0  0
 11  1  2  0  0  0  0
 12  3  1  0  0  0  0
 12 19  1  1  0  0  0
 12 16  1  0  0  0  0
 13 19  1  0  0  0  0
 15  4  1  0  0  0  0
 16 22  1  6  0  0  0
 16 15  1  0  0  0  0
 17 27  1  0  0  0  0
 18  7  1  0  0  0  0
 18  4  2  0  0  0  0
 20 24  2  0  0  0  0
 20 21  1  0  0  0  0
 21 23  2  0  0  0  0
 22 25  2  0  0  0  0
 23 25  1  0  0  0  0
 24 22  1  0  0  0  0
 26 20  1  0  0  0  0
 27 28  1  0  0  0  0
 30 29  1  6  0  0  0
 30 33  1  0  0  0  0
 30 34  1  0  0  0  0
 32 31  1  0  0  0  0
 33 28  1  1  0  0  0
 33 32  1  0  0  0  0
 34 31  1  0  0  0  0
M  END
>  <MODEL>
1

>  <REMARK>
 VINA RESULT:      -8.2      0.000      0.000
  Name = 
  4 active torsions:
  status: ('A' for Active; 'I' for Inactive)
    1  A    between atoms: N_3  and  C_13
    2  A    between atoms: N_3  and  C_29
    3  A    between atoms: C_12  and  C_28
    4  A    between atoms: C_13  and  C_33
                            x       y       z     vdW  Elec       q    Type
                         _______ _______ _______ _____ _____    ______ ____

>  <TORSDO>
F 4

$$$$
=
 OpenBabel10262419143D

 34 39  0  0  1  0  0  0  0  0999 V2000
  183.7910  175.9390  138.0010 C   0  0  0  0  0  0  0  0  0  0  0  0
  185.3630  177.7870  137.8390 C   0  0  0  0  0  0  0  0  0  0  0  0
  183.0790  178.2140  138.8580 C   0  0  1  0  0  3  0  0  0  0  0  0
  182.2000  178.7070  141.1880 C   0  0  0  0  0  0  0  0  0  0  0  0
  185.9990  175.5770  137.0750 C   0  0  0  0  0  3  0  0  0  0  0  0
  186.3080  176.9240  137.2760 C   0  0  0  0  0  3  0  0  0  0  0  0
  184.5880  178.4100  140.8990 C   0  0  0  0  0  3  0  0  0  0  0  0
  184.1000  177.2980  138.2180 C   0  0  0  0  0  0  0  0  0  0  0  0
  184.7820  178.6500  142.2600 C   0  0  0  0  0  3  0  0  0  0  0  0
  182.4010  178.9410  142.5510 C   0  0  0  0  0  3  0  0  0  0  0  0
  184.7390  175.0880  137.4290 C   0  0  0  0  0  3  0  0  0  0  0  0
  181.6440  177.7370  138.5360 C   0  0  2  0  0  3  0  0  0  0  0  0
  182.4790  175.4440  138.2850 N   0  0  0  0  0  2  0  0  0  0  0  0
  185.6870  179.1280  138.0160 O   0  0  0  0  0  1  0  0  0  0  0  0
  180.8700  178.7420  140.6600 N   0  0  0  0  0  2  0  0  0  0  0  0
  180.5900  178.6060  139.2320 C   0  0  1  0  0  3  0  0  0  0  0  0
  183.6880  178.9120  143.0940 C   0  0  0  0  0  0  0  0  0  0  0  0
  183.2960  178.4120  140.3500 C   0  0  0  0  0  0  0  0  0  0  0  0
  181.4700  176.2710  138.9400 C   0  0  0  0  0  2  0  0  0  0  0  0
  180.4810  181.3720  136.6190 C   0  0  0  0  0  0  0  0  0  0  0  0
  180.1170  182.4530  137.4250 C   0  0  0  0  0  3  0  0  0  0  0  0
  180.4460  179.9450  138.5740 C   0  0  0  0  0  0  0  0  0  0  0  0
  179.9240  182.2720  138.7600 N   0  0  0  0  0  0  0  0  0  0  0  0
  180.6440  180.1140  137.1970 C   0  0  0  0  0  3  0  0  0  0  0  0
  180.0770  181.0510  139.3430 C   0  0  0  0  0  3  0  0  0  0  0  0
  180.6900  181.5610  135.1600 C   0  0  0  0  0  1  0  0  0  0  0  0
  183.8610  179.1570  144.4910 N   0  0  0  0  0  2  0  0  0  0  0  0
  184.4630  178.1890  145.3950 C   0  0  0  0  0  2  0  0  0  0  0  0
  187.8570  177.7120  144.5390 C   0  0  0  0  0  1  0  0  0  0  0  0
  186.8270  177.4290  145.6150 C   0  0  2  0  0  3  0  0  0  0  0  0
  187.2210  178.5430  147.7090 N   0  0  0  0  0  2  0  0  0  0  0  0
  185.9620  179.0340  147.1740 C   0  0  0  0  0  2  0  0  0  0  0  0
  185.8850  178.6050  145.7280 C   0  0  2  0  0  3  0  0  0  0  0  0
  187.5130  177.3290  146.9620 C   0  0  0  0  0  2  0  0  0  0  0  0
  1  8  1  0  0  0  0
  1 13  1  0  0  0  0
  2 14  1  0  0  0  0
  2  8  2  0  0  0  0
  3  8  1  1  0  0  0
  3 18  1  0  0  0  0
  4 10  1  0  0  0  0
  5  6  2  0  0  0  0
  5 11  1  0  0  0  0
  6  2  1  0  0  0  0
  7  9  2  0  0  0  0
  9 17  1  0  0  0  0
 10 17  2  0  0  0  0
 11  1  2  0  0  0  0
 12  3  1  0  0  0  0
 12 19  1  1  0  0  0
 12 16  1  0  0  0  0
 13 19  1  0  0  0  0
 15  4  1  0  0  0  0
 16 22  1  6  0  0  0
 16 15  1  0  0  0  0
 17 27  1  0  0  0  0
 18  7  1  0  0  0  0
 18  4  2  0  0  0  0
 20 24  2  0  0  0  0
 20 21  1  0  0  0  0
 21 23  2  0  0  0  0
 22 25  2  0  0  0  0
 23 25  1  0  0  0  0
 24 22  1  0  0  0  0
 26 20  1  0  0  0  0
 27 28  1  0  0  0  0
 30 29  1  6  0  0  0
 30 33  1  0  0  0  0
 30 34  1  0  0  0  0
 32 31  1  0  0  0  0
 33 28  1  1  0  0  0
 33 32  1  0  0  0  0
 34 31  1  0  0  0  0
M  END
>  <MODEL>
2

>  <REMARK>
 VINA RESULT:      -8.0      1.110      1.344
  Name = 
  4 active torsions:
  status: ('A' for Active; 'I' for Inactive)
    1  A    between atoms: N_3  and  C_13
    2  A    between atoms: N_3  and  C_29
    3  A    between atoms: C_12  and  C_28
    4  A    between atoms: C_13  and  C_33
                            x       y       z     vdW  Elec       q    Type
                         _______ _______ _______ _____ _____    ______ ____

>  <TORSDO>
F 4

$$$$
=
 OpenBabel10262419143D

 34 39  0  0  1  0  0  0  0  0999 V2000
  181.2280  180.4380  139.5070 C   0  0  0  0  0  0  0  0  0  0  0  0
  180.4680  178.3420  140.4810 C   0  0  0  0  0  0  0  0  0  0  0  0
  182.8960  178.5510  139.7740 C   0  0  1  0  0  3  0  0  0  0  0  0
  185.1240  178.7060  140.9790 C   0  0  0  0  0  0  0  0  0  0  0  0
  178.9310  180.2010  140.2370 C   0  0  0  0  0  3  0  0  0  0  0  0
  179.1910  178.8890  140.6410 C   0  0  0  0  0  3  0  0  0  0  0  0
  183.1100  178.5040  142.3100 C   0  0  0  0  0  3  0  0  0  0  0  0
  181.5000  179.1180  139.9240 C   0  0  0  0  0  0  0  0  0  0  0  0
  183.8780  178.5130  143.4750 C   0  0  0  0  0  3  0  0  0  0  0  0
  185.8880  178.7210  142.1490 C   0  0  0  0  0  3  0  0  0  0  0  0
  179.9460  180.9700  139.6640 C   0  0  0  0  0  3  0  0  0  0  0  0
  183.6220  179.2030  138.5750 C   0  0  2  0  0  3  0  0  0  0  0  0
  182.2360  181.2080  138.8470 N   0  0  0  0  0  2  0  0  0  0  0  0
  180.7010  177.0300  140.8760 O   0  0  0  0  0  1  0  0  0  0  0  0
  185.7830  178.8050  139.7120 N   0  0  0  0  0  2  0  0  0  0  0  0
  185.0630  178.6980  138.4440 C   0  0  1  0  0  3  0  0  0  0  0  0
  185.2730  178.6280  143.4000 C   0  0  0  0  0  0  0  0  0  0  0  0
  183.7180  178.6230  141.0510 C   0  0  0  0  0  0  0  0  0  0  0  0
  183.6080  180.7270  138.7120 C   0  0  0  0  0  2  0  0  0  0  0  0
  184.0780  175.1870  137.3520 C   0  0  0  0  0  0  0  0  0  0  0  0
  185.2970  174.7410  136.8390 C   0  0  0  0  0  3  0  0  0  0  0  0
  185.1190  177.3010  137.9020 C   0  0  0  0  0  0  0  0  0  0  0  0
  186.3840  175.5590  136.8600 N   0  0  0  0  0  0  0  0  0  0  0  0
  183.9900  176.4730  137.8840 C   0  0  0  0  0  3  0  0  0  0  0  0
  186.3190  176.8180  137.3740 C   0  0  0  0  0  3  0  0  0  0  0  0
  182.8850  174.3000  137.3300 C   0  0  0  0  0  1  0  0  0  0  0  0
  186.0810  178.6430  144.5780 N   0  0  0  0  0  2  0  0  0  0  0  0
  186.9220  177.5240  144.9740 C   0  0  0  0  0  2  0  0  0  0  0  0
  190.4310  177.8010  145.2790 C   0  0  0  0  0  1  0  0  0  0  0  0
  189.2200  177.0670  145.8230 C   0  0  2  0  0  3  0  0  0  0  0  0
  188.7030  177.5380  148.1230 N   0  0  0  0  0  2  0  0  0  0  0  0
  187.5830  177.9900  147.3140 C   0  0  0  0  0  2  0  0  0  0  0  0
  188.0430  178.0110  145.8750 C   0  0  2  0  0  3  0  0  0  0  0  0
  189.4770  176.6600  147.2600 C   0  0  0  0  0  2  0  0  0  0  0  0
  1 11  2  0  0  0  0
  1  8  1  0  0  0  0
  2  6  1  0  0  0  0
  2 14  1  0  0  0  0
  3  8  1  1  0  0  0
  3 18  1  0  0  0  0
  4 18  2  0  0  0  0
  4 10  1  0  0  0  0
  5  6  2  0  0  0  0
  7  9  2  0  0  0  0
  8  2  2  0  0  0  0
 10 17  2  0  0  0  0
 11  5  1  0  0  0  0
 12 19  1  1  0  0  0
 12  3  1  0  0  0  0
 13  1  1  0  0  0  0
 15  4  1  0  0  0  0
 16 22  1  1  0  0  0
 16 12  1  0  0  0  0
 16 15  1  0  0  0  0
 17  9  1  0  0  0  0
 17 27  1  0  0  0  0
 18  7  1  0  0  0  0
 19 13  1  0  0  0  0
 20 24  1  0  0  0  0
 21 23  1  0  0  0  0
 21 20  2  0  0  0  0
 23 25  2  0  0  0  0
 24 22  2  0  0  0  0
 25 22  1  0  0  0  0
 26 20  1  0  0  0  0
 27 28  1  0  0  0  0
 30 29  1  1  0  0  0
 30 33  1  0  0  0  0
 30 34  1  0  0  0  0
 32 31  1  0  0  0  0
 33 28  1  6  0  0  0
 33 32  1  0  0  0  0
 34 31  1  0  0  0  0
M  END
>  <MODEL>
3

>  <REMARK>
 VINA RESULT:      -7.3      1.998      5.227
  Name = 
  4 active torsions:
  status: ('A' for Active; 'I' for Inactive)
    1  A    between atoms: N_3  and  C_13
    2  A    between atoms: N_3  and  C_29
    3  A    between atoms: C_12  and  C_28
    4  A    between atoms: C_13  and  C_33
                            x       y       z     vdW  Elec       q    Type
                         _______ _______ _______ _____ _____    ______ ____

>  <TORSDO>
F 4

$$$$
=
 OpenBabel10262419143D

 34 39  0  0  1  0  0  0  0  0999 V2000
  189.5000  175.5160  135.6590 C   0  0  0  0  0  0  0  0  0  0  0  0
  188.2550  173.7110  136.7120 C   0  0  0  0  0  0  0  0  0  0  0  0
  188.3120  175.9800  137.8470 C   0  0  1  0  0  3  0  0  0  0  0  0
  186.6360  177.8430  138.2530 C   0  0  0  0  0  0  0  0  0  0  0  0
  189.3790  173.3430  134.5970 C   0  0  0  0  0  3  0  0  0  0  0  0
  188.5920  172.8680  135.6480 C   0  0  0  0  0  3  0  0  0  0  0  0
  185.8900  175.8650  137.0680 C   0  0  0  0  0  3  0  0  0  0  0  0
  188.6960  175.0460  136.7190 C   0  0  0  0  0  0  0  0  0  0  0  0
  184.6070  176.4040  136.9760 C   0  0  0  0  0  3  0  0  0  0  0  0
  185.3500  178.3800  138.1520 C   0  0  0  0  0  3  0  0  0  0  0  0
  189.8390  174.6620  134.6060 C   0  0  0  0  0  3  0  0  0  0  0  0
  189.3980  177.0600  138.0530 C   0  0  2  0  0  3  0  0  0  0  0  0
  190.0430  176.8390  135.6970 N   0  0  0  0  0  2  0  0  0  0  0  0
  187.4830  173.2140  137.7560 O   0  0  0  0  0  1  0  0  0  0  0  0
  187.6600  178.5960  138.9120 N   0  0  0  0  0  2  0  0  0  0  0  0
  189.0000  178.0620  139.1430 C   0  0  1  0  0  3  0  0  0  0  0  0
  184.3320  177.6680  137.5130 C   0  0  0  0  0  0  0  0  0  0  0  0
  186.9260  176.5840  137.6860 C   0  0  0  0  0  0  0  0  0  0  0  0
  189.6740  177.7920  136.7380 C   0  0  0  0  0  2  0  0  0  0  0  0
  188.2670  177.0670  142.7440 C   0  0  0  0  0  0  0  0  0  0  0  0
  189.4060  176.3090  143.0230 C   0  0  0  0  0  3  0  0  0  0  0  0
  189.1230  177.4720  140.5160 C   0  0  0  0  0  0  0  0  0  0  0  0
  190.3640  176.1440  142.0710 N   0  0  0  0  0  0  0  0  0  0  0  0
  188.1250  177.6490  141.4840 C   0  0  0  0  0  3  0  0  0  0  0  0
  190.2440  176.7020  140.8350 C   0  0  0  0  0  3  0  0  0  0  0  0
  187.2150  177.2500  143.7770 C   0  0  0  0  0  1  0  0  0  0  0  0
  183.0270  178.2430  137.4280 N   0  0  0  0  0  2  0  0  0  0  0  0
  181.9780  177.9710  138.4000 C   0  0  0  0  0  2  0  0  0  0  0  0
  183.6140  178.5510  141.4780 C   0  0  0  0  0  1  0  0  0  0  0  0
  182.2770  178.1810  140.8660 C   0  0  2  0  0  3  0  0  0  0  0  0
  180.5440  179.8220  141.1580 N   0  0  0  0  0  2  0  0  0  0  0  0
  180.7950  179.6900  139.7320 C   0  0  0  0  0  2  0  0  0  0  0  0
  182.0930  178.9330  139.5690 C   0  0  2  0  0  3  0  0  0  0  0  0
  181.1570  178.6540  141.7700 C   0  0  0  0  0  2  0  0  0  0  0  0
  1 13  1  0  0  0  0
  1  8  1  0  0  0  0
  2  8  2  0  0  0  0
  2 14  1  0  0  0  0
  3  8  1  6  0  0  0
  3 12  1  0  0  0  0
  4 15  1  0  0  0  0
  5 11  1  0  0  0  0
  5  6  2  0  0  0  0
  6  2  1  0  0  0  0
  7 18  1  0  0  0  0
  9  7  2  0  0  0  0
  9 17  1  0  0  0  0
 10  4  1  0  0  0  0
 11  1  2  0  0  0  0
 12 19  1  6  0  0  0
 12 16  1  0  0  0  0
 13 19  1  0  0  0  0
 15 16  1  0  0  0  0
 16 22  1  1  0  0  0
 17 10  2  0  0  0  0
 18  3  1  0  0  0  0
 18  4  2  0  0  0  0
 20 21  1  0  0  0  0
 20 26  1  0  0  0  0
 22 25  2  0  0  0  0
 22 24  1  0  0  0  0
 23 21  2  0  0  0  0
 24 20  2  0  0  0  0
 25 23  1  0  0  0  0
 27 17  1  0  0  0  0
 27 28  1  0  0  0  0
 30 29  1  1  0  0  0
 30 34  1  0  0  0  0
 31 34  1  0  0  0  0
 32 31  1  0  0  0  0
 33 28  1  6  0  0  0
 33 32  1  0  0  0  0
 33 30  1  0  0  0  0
M  END
>  <MODEL>
4

>  <REMARK>
 VINA RESULT:      -7.3      3.878      8.367
  Name = 
  4 active torsions:
  status: ('A' for Active; 'I' for Inactive)
    1  A    between atoms: N_3  and  C_13
    2  A    between atoms: N_3  and  C_29
    3  A    between atoms: C_12  and  C_28
    4  A    between atoms: C_13  and  C_33
                            x       y       z     vdW  Elec       q    Type
                         _______ _______ _______ _____ _____    ______ ____

>  <TORSDO>
F 4

$$$$
=
 OpenBabel10262419143D

 34 39  0  0  1  0  0  0  0  0999 V2000
  180.4870  180.4240  140.2520 C   0  0  0  0  0  0  0  0  0  0  0  0
  180.2980  178.5840  141.8310 C   0  0  0  0  0  0  0  0  0  0  0  0
  181.9770  178.4000  139.9370 C   0  0  1  0  0  3  0  0  0  0  0  0
  184.5080  178.4410  139.7520 C   0  0  0  0  0  0  0  0  0  0  0  0
  178.9310  180.5670  142.1020 C   0  0  0  0  0  3  0  0  0  0  0  0
  179.3240  179.2980  142.5360 C   0  0  0  0  0  3  0  0  0  0  0  0
  183.5130  178.6640  141.9500 C   0  0  0  0  0  3  0  0  0  0  0  0
  180.8970  179.1480  140.6910 C   0  0  0  0  0  0  0  0  0  0  0  0
  184.7850  178.7340  142.5200 C   0  0  0  0  0  3  0  0  0  0  0  0
  185.7790  178.5180  140.3270 C   0  0  0  0  0  3  0  0  0  0  0  0
  179.5060  181.1250  140.9580 C   0  0  0  0  0  3  0  0  0  0  0  0
  181.9700  178.7950  138.4430 C   0  0  2  0  0  3  0  0  0  0  0  0
  181.0100  180.9720  139.0380 N   0  0  0  0  0  2  0  0  0  0  0  0
  180.6630  177.3170  142.2710 O   0  0  0  0  0  1  0  0  0  0  0  0
  184.3890  178.2910  138.3330 N   0  0  0  0  0  2  0  0  0  0  0  0
  183.0990  178.1050  137.6700 C   0  0  1  0  0  3  0  0  0  0  0  0
  185.9250  178.6670  141.7090 C   0  0  0  0  0  0  0  0  0  0  0  0
  183.3560  178.5400  140.5610 C   0  0  0  0  0  0  0  0  0  0  0  0
  182.0800  180.3140  138.2950 C   0  0  0  0  0  2  0  0  0  0  0  0
  183.4740  174.3250  137.4250 C   0  0  0  0  0  0  0  0  0  0  0  0
  182.1830  173.9790  137.0210 C   0  0  0  0  0  3  0  0  0  0  0  0
  182.8110  176.6530  137.4360 C   0  0  0  0  0  0  0  0  0  0  0  0
  181.2450  174.9470  136.8360 N   0  0  0  0  0  0  0  0  0  0  0  0
  183.7870  175.6670  137.6340 C   0  0  0  0  0  3  0  0  0  0  0  0
  181.5310  176.2630  137.0360 C   0  0  0  0  0  3  0  0  0  0  0  0
  184.5030  173.2730  137.6320 C   0  0  0  0  0  1  0  0  0  0  0  0
  187.2380  178.7400  142.2670 N   0  0  0  0  0  2  0  0  0  0  0  0
  188.2450  177.7100  142.0570 C   0  0  0  0  0  2  0  0  0  0  0  0
  187.3420  177.5050  145.4660 C   0  0  0  0  0  1  0  0  0  0  0  0
  188.4580  177.9280  144.5300 C   0  0  2  0  0  3  0  0  0  0  0  0
  190.4650  176.6150  144.6940 N   0  0  0  0  0  2  0  0  0  0  0  0
  189.9300  176.4430  143.3530 C   0  0  0  0  0  2  0  0  0  0  0  0
  188.5170  176.9770  143.3580 C   0  0  2  0  0  3  0  0  0  0  0  0
  189.7920  177.7860  145.2340 C   0  0  0  0  0  2  0  0  0  0  0  0
  1  8  2  0  0  0  0
  1 11  1  0  0  0  0
  2 14  1  0  0  0  0
  2  6  2  0  0  0  0
  3 18  1  1  0  0  0
  3  8  1  0  0  0  0
  4 10  2  0  0  0  0
  4 18  1  0  0  0  0
  5  6  1  0  0  0  0
  7  9  1  0  0  0  0
  8  2  1  0  0  0  0
 10 17  1  0  0  0  0
 11  5  2  0  0  0  0
 12 19  1  1  0  0  0
 12  3  1  0  0  0  0
 13  1  1  0  0  0  0
 15  4  1  0  0  0  0
 16 22  1  1  0  0  0
 16 15  1  0  0  0  0
 16 12  1  0  0  0  0
 17 27  1  0  0  0  0
 17  9  2  0  0  0  0
 18  7  2  0  0  0  0
 19 13  1  0  0  0  0
 20 26  1  0  0  0  0
 20 24  1  0  0  0  0
 21 20  2  0  0  0  0
 22 24  2  0  0  0  0
 23 21  1  0  0  0  0
 23 25  2  0  0  0  0
 25 22  1  0  0  0  0
 28 27  1  0  0  0  0
 30 34  1  0  0  0  0
 30 29  1  1  0  0  0
 31 34  1  0  0  0  0
 32 33  1  0  0  0  0
 32 31  1  0  0  0  0
 33 28  1  6  0  0  0
 33 30  1  0  0  0  0
M  END
>  <MODEL>
5

>  <REMARK>
 VINA RESULT:      -7.2      2.305      5.491
  Name = 
  4 active torsions:
  status: ('A' for Active; 'I' for Inactive)
    1  A    between atoms: N_3  and  C_13
    2  A    between atoms: N_3  and  C_29
    3  A    between atoms: C_12  and  C_28
    4  A    between atoms: C_13  and  C_33
                            x       y       z     vdW  Elec       q    Type
                         _______ _______ _______ _____ _____    ______ ____

>  <TORSDO>
F 4

$$$$
=
 OpenBabel10262419143D

 34 39  0  0  1  0  0  0  0  0999 V2000
  180.4110  180.5140  140.3070 C   0  0  0  0  0  0  0  0  0  0  0  0
  180.2600  178.7390  141.9630 C   0  0  0  0  0  0  0  0  0  0  0  0
  181.8600  178.4570  140.0140 C   0  0  1  0  0  3  0  0  0  0  0  0
  184.3820  178.4540  139.7290 C   0  0  0  0  0  0  0  0  0  0  0  0
  178.9310  180.7510  142.2090 C   0  0  0  0  0  3  0  0  0  0  0  0
  179.3240  179.4940  142.6760 C   0  0  0  0  0  3  0  0  0  0  0  0
  183.4780  178.7750  141.9540 C   0  0  0  0  0  3  0  0  0  0  0  0
  180.8210  179.2490  140.7790 C   0  0  0  0  0  0  0  0  0  0  0  0
  184.7720  178.8490  142.4700 C   0  0  0  0  0  3  0  0  0  0  0  0
  185.6760  178.5340  140.2500 C   0  0  0  0  0  3  0  0  0  0  0  0
  179.4670  181.2550  141.0230 C   0  0  0  0  0  3  0  0  0  0  0  0
  181.7990  178.7940  138.5060 C   0  0  2  0  0  3  0  0  0  0  0  0
  180.8920  181.0060  139.0530 N   0  0  0  0  0  2  0  0  0  0  0  0
  180.6260  177.4850  142.4380 O   0  0  0  0  0  1  0  0  0  0  0  0
  184.2050  178.2500  138.3230 N   0  0  0  0  0  2  0  0  0  0  0  0
  182.8880  178.0580  137.7180 C   0  0  1  0  0  3  0  0  0  0  0  0
  185.8790  178.7340  141.6180 C   0  0  0  0  0  0  0  0  0  0  0  0
  183.2650  178.6000  140.5770 C   0  0  0  0  0  0  0  0  0  0  0  0
  181.9230  180.3040  138.2950 C   0  0  0  0  0  2  0  0  0  0  0  0
  181.0020  174.7850  137.2460 C   0  0  0  0  0  0  0  0  0  0  0  0
  182.0740  173.8920  137.2040 C   0  0  0  0  0  3  0  0  0  0  0  0
  182.5720  176.6020  137.5520 C   0  0  0  0  0  0  0  0  0  0  0  0
  183.3490  174.3510  137.3290 N   0  0  0  0  0  0  0  0  0  0  0  0
  181.2540  176.1450  137.4200 C   0  0  0  0  0  3  0  0  0  0  0  0
  183.6160  175.6750  137.4980 C   0  0  0  0  0  3  0  0  0  0  0  0
  179.6080  174.2910  137.1060 C   0  0  0  0  0  1  0  0  0  0  0  0
  187.2130  178.8090  142.1210 N   0  0  0  0  0  2  0  0  0  0  0  0
  188.1730  177.7230  141.9830 C   0  0  0  0  0  2  0  0  0  0  0  0
  186.7660  177.3290  145.2000 C   0  0  0  0  0  1  0  0  0  0  0  0
  187.9710  177.8800  144.4620 C   0  0  2  0  0  3  0  0  0  0  0  0
  190.0420  176.7490  144.9240 N   0  0  0  0  0  2  0  0  0  0  0  0
  189.7440  176.5720  143.5110 C   0  0  0  0  0  2  0  0  0  0  0  0
  188.3030  176.9760  143.2990 C   0  0  2  0  0  3  0  0  0  0  0  0
  189.1840  177.8360  145.3690 C   0  0  0  0  0  2  0  0  0  0  0  0
  1  8  2  0  0  0  0
  1 11  1  0  0  0  0
  2 14  1  0  0  0  0
  2  6  2  0  0  0  0
  3 18  1  1  0  0  0
  3  8  1  0  0  0  0
  4 10  2  0  0  0  0
  4 18  1  0  0  0  0
  5  6  1  0  0  0  0
  7  9  1  0  0  0  0
  8  2  1  0  0  0  0
 10 17  1  0  0  0  0
 11  5  2  0  0  0  0
 12 19  1  1  0  0  0
 12  3  1  0  0  0  0
 13  1  1  0  0  0  0
 15  4  1  0  0  0  0
 16 22  1  1  0  0  0
 16 15  1  0  0  0  0
 16 12  1  0  0  0  0
 17 27  1  0  0  0  0
 17  9  2  0  0  0  0
 18  7  2  0  0  0  0
 19 13  1  0  0  0  0
 20 24  1  0  0  0  0
 21 20  2  0  0  0  0
 21 23  1  0  0  0  0
 23 25  2  0  0  0  0
 24 22  2  0  0  0  0
 25 22  1  0  0  0  0
 26 20  1  0  0  0  0
 28 27  1  0  0  0  0
 30 29  1  1  0  0  0
 30 34  1  0  0  0  0
 31 34  1  0  0  0  0
 32 31  1  0  0  0  0
 33 28  1  6  0  0  0
 33 32  1  0  0  0  0
 33 30  1  0  0  0  0
M  END
>  <MODEL>
6

>  <REMARK>
 VINA RESULT:      -7.1      2.351      5.375
  Name = 
  4 active torsions:
  status: ('A' for Active; 'I' for Inactive)
    1  A    between atoms: N_3  and  C_13
    2  A    between atoms: N_3  and  C_29
    3  A    between atoms: C_12  and  C_28
    4  A    between atoms: C_13  and  C_33
                            x       y       z     vdW  Elec       q    Type
                         _______ _______ _______ _____ _____    ______ ____

>  <TORSDO>
F 4

$$$$
=
 OpenBabel10262419143D

 34 39  0  0  1  0  0  0  0  0999 V2000
  181.9660  175.3840  136.5100 C   0  0  0  0  0  0  0  0  0  0  0  0
  183.7950  176.4070  135.2750 C   0  0  0  0  0  0  0  0  0  0  0  0
  182.3790  177.8670  136.7930 C   0  0  1  0  0  3  0  0  0  0  0  0
  182.7380  179.0630  139.0020 C   0  0  0  0  0  0  0  0  0  0  0  0
  183.3730  174.0280  135.0800 C   0  0  0  0  0  3  0  0  0  0  0  0
  184.1200  175.1580  134.7360 C   0  0  0  0  0  3  0  0  0  0  0  0
  184.5850  177.8070  138.0620 C   0  0  0  0  0  3  0  0  0  0  0  0
  182.7220  176.5270  136.1770 C   0  0  0  0  0  0  0  0  0  0  0  0
  185.3900  178.1840  139.1380 C   0  0  0  0  0  3  0  0  0  0  0  0
  183.5470  179.4340  140.0790 C   0  0  0  0  0  3  0  0  0  0  0  0
  182.2940  174.1430  135.9590 C   0  0  0  0  0  3  0  0  0  0  0  0
  180.8700  177.9440  137.1210 C   0  0  2  0  0  3  0  0  0  0  0  0
  180.8100  175.5020  137.3450 N   0  0  0  0  0  2  0  0  0  0  0  0
  184.5400  177.5210  134.9080 O   0  0  0  0  0  1  0  0  0  0  0  0
  181.3850  179.5260  138.9520 N   0  0  0  0  0  2  0  0  0  0  0  0
  180.5080  179.2630  137.8120 C   0  0  1  0  0  3  0  0  0  0  0  0
  184.8720  178.9960  140.1560 C   0  0  0  0  0  0  0  0  0  0  0  0
  183.2450  178.2210  137.9910 C   0  0  0  0  0  0  0  0  0  0  0  0
  180.4580  176.7590  137.9970 C   0  0  0  0  0  2  0  0  0  0  0  0
  180.7940  182.7630  136.3400 C   0  0  0  0  0  0  0  0  0  0  0  0
  180.5190  182.4850  134.9990 C   0  0  0  0  0  3  0  0  0  0  0  0
  180.5040  180.4140  136.8510 C   0  0  0  0  0  0  0  0  0  0  0  0
  180.2500  181.2090  134.6090 N   0  0  0  0  0  0  0  0  0  0  0  0
  180.7880  181.7220  137.2680 C   0  0  0  0  0  3  0  0  0  0  0  0
  180.2400  180.1790  135.5000 C   0  0  0  0  0  3  0  0  0  0  0  0
  181.0920  184.1520  136.7730 C   0  0  0  0  0  1  0  0  0  0  0  0
  185.6750  179.3930  141.2690 N   0  0  0  0  0  2  0  0  0  0  0  0
  186.5470  178.4720  141.9830 C   0  0  0  0  0  2  0  0  0  0  0  0
  183.5560  178.6240  143.8570 C   0  0  0  0  0  1  0  0  0  0  0  0
  185.0290  178.9850  143.8910 C   0  0  2  0  0  3  0  0  0  0  0  0
  186.3230  177.7910  145.5280 N   0  0  0  0  0  2  0  0  0  0  0  0
  186.8370  177.4410  144.2140 C   0  0  0  0  0  2  0  0  0  0  0  0
  185.8260  177.9080  143.1930 C   0  0  2  0  0  3  0  0  0  0  0  0
  185.5180  178.9850  145.3250 C   0  0  0  0  0  2  0  0  0  0  0  0
  1 13  1  0  0  0  0
  2  8  2  0  0  0  0
  3  8  1  1  0  0  0
  3 12  1  0  0  0  0
  3 18  1  0  0  0  0
  4 10  1  0  0  0  0
  5 11  1  0  0  0  0
  6  5  2  0  0  0  0
  6  2  1  0  0  0  0
  7  9  2  0  0  0  0
  8  1  1  0  0  0  0
  9 17  1  0  0  0  0
 10 17  2  0  0  0  0
 11  1  2  0  0  0  0
 12 16  1  0  0  0  0
 12 19  1  1  0  0  0
 13 19  1  0  0  0  0
 14  2  1  0  0  0  0
 15  4  1  0  0  0  0
 16 22  1  6  0  0  0
 16 15  1  0  0  0  0
 17 27  1  0  0  0  0
 18  7  1  0  0  0  0
 18  4  2  0  0  0  0
 20 26  1  0  0  0  0
 20 24  1  0  0  0  0
 21 20  2  0  0  0  0
 22 24  2  0  0  0  0
 23 21  1  0  0  0  0
 23 25  2  0  0  0  0
 25 22  1  0  0  0  0
 27 28  1  0  0  0  0
 30 29  1  1  0  0  0
 30 34  1  0  0  0  0
 32 31  1  0  0  0  0
 33 28  1  6  0  0  0
 33 30  1  0  0  0  0
 33 32  1  0  0  0  0
 34 31  1  0  0  0  0
M  END
>  <MODEL>
7

>  <REMARK>
 VINA RESULT:      -7.1      2.493      3.726
  Name = 
  4 active torsions:
  status: ('A' for Active; 'I' for Inactive)
    1  A    between atoms: N_3  and  C_13
    2  A    between atoms: N_3  and  C_29
    3  A    between atoms: C_12  and  C_28
    4  A    between atoms: C_13  and  C_33
                            x       y       z     vdW  Elec       q    Type
                         _______ _______ _______ _____ _____    ______ ____

>  <TORSDO>
F 4

$$$$
=
 OpenBabel10262419143D

 34 39  0  0  1  0  0  0  0  0999 V2000
  189.5650  176.0090  135.8030 C   0  0  0  0  0  0  0  0  0  0  0  0
  188.4450  174.0350  136.6770 C   0  0  0  0  0  0  0  0  0  0  0  0
  188.2580  176.2150  137.9630 C   0  0  1  0  0  3  0  0  0  0  0  0
  186.4100  177.8940  138.4180 C   0  0  0  0  0  0  0  0  0  0  0  0
  189.6770  173.9140  134.5940 C   0  0  0  0  0  3  0  0  0  0  0  0
  188.8950  173.3000  135.5760 C   0  0  0  0  0  3  0  0  0  0  0  0
  185.8880  175.9470  137.0730 C   0  0  0  0  0  3  0  0  0  0  0  0
  188.7660  175.3990  136.7920 C   0  0  0  0  0  0  0  0  0  0  0  0
  184.5660  176.3790  136.9600 C   0  0  0  0  0  3  0  0  0  0  0  0
  185.0870  178.3250  138.2970 C   0  0  0  0  0  3  0  0  0  0  0  0
  190.0170  175.2630  134.7110 C   0  0  0  0  0  3  0  0  0  0  0  0
  189.2360  177.3670  138.2870 C   0  0  2  0  0  3  0  0  0  0  0  0
  189.9870  177.3680  135.9520 N   0  0  0  0  0  2  0  0  0  0  0  0
  187.6820  173.4020  137.6510 O   0  0  0  0  0  1  0  0  0  0  0  0
  187.3370  178.6850  139.1690 N   0  0  0  0  0  2  0  0  0  0  0  0
  188.7110  178.2520  139.4230 C   0  0  1  0  0  3  0  0  0  0  0  0
  184.1600  177.5750  137.5680 C   0  0  0  0  0  0  0  0  0  0  0  0
  186.8320  176.7080  137.7820 C   0  0  0  0  0  0  0  0  0  0  0  0
  189.4950  178.2110  137.0370 C   0  0  0  0  0  2  0  0  0  0  0  0
  188.0140  177.1040  142.9850 C   0  0  0  0  0  0  0  0  0  0  0  0
  189.1110  176.2640  143.1880 C   0  0  0  0  0  3  0  0  0  0  0  0
  188.8330  177.5800  140.7580 C   0  0  0  0  0  0  0  0  0  0  0  0
  190.0300  176.0940  142.2000 N   0  0  0  0  0  0  0  0  0  0  0  0
  187.8750  177.7630  141.7640 C   0  0  0  0  0  3  0  0  0  0  0  0
  189.9120  176.7270  141.0000 C   0  0  0  0  0  3  0  0  0  0  0  0
  187.0040  177.2920  144.0580 C   0  0  0  0  0  1  0  0  0  0  0  0
  182.8130  178.0400  137.4650 N   0  0  0  0  0  2  0  0  0  0  0  0
  181.8940  178.0580  138.5940 C   0  0  0  0  0  2  0  0  0  0  0  0
  180.2760  175.3200  140.1310 C   0  0  0  0  0  1  0  0  0  0  0  0
  181.2450  175.6910  139.0250 C   0  0  2  0  0  3  0  0  0  0  0  0
  180.4430  175.2730  136.7980 N   0  0  0  0  0  2  0  0  0  0  0  0
  180.6530  176.7060  136.9330 C   0  0  0  0  0  2  0  0  0  0  0  0
  180.8200  177.0010  138.4050 C   0  0  2  0  0  3  0  0  0  0  0  0
  181.1580  174.6690  137.9100 C   0  0  0  0  0  2  0  0  0  0  0  0
  1 13  1  0  0  0  0
  1  8  1  0  0  0  0
  2  8  2  0  0  0  0
  2 14  1  0  0  0  0
  3  8  1  6  0  0  0
  3 12  1  0  0  0  0
  4 15  1  0  0  0  0
  5 11  1  0  0  0  0
  5  6  2  0  0  0  0
  6  2  1  0  0  0  0
  7 18  1  0  0  0  0
  9  7  2  0  0  0  0
  9 17  1  0  0  0  0
 10  4  1  0  0  0  0
 11  1  2  0  0  0  0
 12 19  1  6  0  0  0
 12 16  1  0  0  0  0
 13 19  1  0  0  0  0
 15 16  1  0  0  0  0
 16 22  1  1  0  0  0
 17 10  2  0  0  0  0
 18  3  1  0  0  0  0
 18  4  2  0  0  0  0
 20 21  1  0  0  0  0
 20 26  1  0  0  0  0
 22 25  2  0  0  0  0
 22 24  1  0  0  0  0
 23 21  2  0  0  0  0
 24 20  2  0  0  0  0
 25 23  1  0  0  0  0
 27 17  1  0  0  0  0
 27 28  1  0  0  0  0
 30 29  1  1  0  0  0
 31 32  1  0  0  0  0
 31 34  1  0  0  0  0
 32 33  1  0  0  0  0
 33 28  1  6  0  0  0
 33 30  1  0  0  0  0
 34 30  1  0  0  0  0
M  END
>  <MODEL>
8

>  <REMARK>
 VINA RESULT:      -6.6      3.872      8.834
  Name = 
  4 active torsions:
  status: ('A' for Active; 'I' for Inactive)
    1  A    between atoms: N_3  and  C_13
    2  A    between atoms: N_3  and  C_29
    3  A    between atoms: C_12  and  C_28
    4  A    between atoms: C_13  and  C_33
                            x       y       z     vdW  Elec       q    Type
                         _______ _______ _______ _____ _____    ______ ____

>  <TORSDO>
F 4

$$$$
=
 OpenBabel10262419143D

 34 39  0  0  1  0  0  0  0  0999 V2000
  180.8030  175.4350  138.6560 C   0  0  0  0  0  0  0  0  0  0  0  0
  181.3770  175.6600  136.3030 C   0  0  0  0  0  0  0  0  0  0  0  0
  181.7210  177.6500  137.8410 C   0  0  1  0  0  3  0  0  0  0  0  0
  183.7290  178.8640  138.8070 C   0  0  0  0  0  0  0  0  0  0  0  0
  180.5330  173.5540  137.1550 C   0  0  0  0  0  3  0  0  0  0  0  0
  181.0050  174.3290  136.0930 C   0  0  0  0  0  3  0  0  0  0  0  0
  184.1240  176.9760  137.3410 C   0  0  0  0  0  3  0  0  0  0  0  0
  181.2910  176.2200  137.5910 C   0  0  0  0  0  0  0  0  0  0  0  0
  185.5010  177.1630  137.4700 C   0  0  0  0  0  3  0  0  0  0  0  0
  185.1080  179.0430  138.9370 C   0  0  0  0  0  3  0  0  0  0  0  0
  180.4250  174.1080  138.4320 C   0  0  0  0  0  3  0  0  0  0  0  0
  180.9230  178.2600  139.0160 C   0  0  2  0  0  3  0  0  0  0  0  0
  180.6120  176.0130  139.9500 N   0  0  0  0  0  2  0  0  0  0  0  0
  181.8290  176.4180  135.2300 O   0  0  0  0  0  1  0  0  0  0  0  0
  182.8400  179.7470  139.5000 N   0  0  0  0  0  2  0  0  0  0  0  0
  181.3890  179.6840  139.3360 C   0  0  1  0  0  3  0  0  0  0  0  0
  186.0000  178.1960  138.2740 C   0  0  0  0  0  0  0  0  0  0  0  0
  183.2210  177.8070  138.0240 C   0  0  0  0  0  0  0  0  0  0  0  0
  181.0460  177.3730  140.2570 C   0  0  0  0  0  2  0  0  0  0  0  0
  180.9780  182.8540  137.2680 C   0  0  0  0  0  0  0  0  0  0  0  0
  180.0090  182.4260  136.3590 C   0  0  0  0  0  3  0  0  0  0  0  0
  180.9130  180.6720  138.3130 C   0  0  0  0  0  0  0  0  0  0  0  0
  179.5180  181.1600  136.4320 N   0  0  0  0  0  0  0  0  0  0  0  0
  181.4320  181.9720  138.2480 C   0  0  0  0  0  3  0  0  0  0  0  0
  179.9490  180.2820  137.3810 C   0  0  0  0  0  3  0  0  0  0  0  0
  181.5210  184.2350  137.1920 C   0  0  0  0  0  1  0  0  0  0  0  0
  187.4050  178.4060  138.4250 N   0  0  0  0  0  2  0  0  0  0  0  0
  188.3040  177.3900  138.9520 C   0  0  0  0  0  2  0  0  0  0  0  0
  191.4510  177.3720  140.5590 C   0  0  0  0  0  1  0  0  0  0  0  0
  190.0150  176.9040  140.6970 C   0  0  2  0  0  3  0  0  0  0  0  0
  188.7890  177.9230  142.4970 N   0  0  0  0  0  2  0  0  0  0  0  0
  188.1400  178.2950  141.2500 C   0  0  0  0  0  2  0  0  0  0  0  0
  189.0880  177.9500  140.1250 C   0  0  2  0  0  3  0  0  0  0  0  0
  189.6540  176.8020  142.1660 C   0  0  0  0  0  2  0  0  0  0  0  0
  1 13  1  0  0  0  0
  2  8  1  0  0  0  0
  3  8  1  1  0  0  0
  3 18  1  0  0  0  0
  3 12  1  0  0  0  0
  4 10  1  0  0  0  0
  4 15  1  0  0  0  0
  5 11  2  0  0  0  0
  6  2  2  0  0  0  0
  6  5  1  0  0  0  0
  7  9  2  0  0  0  0
  7 18  1  0  0  0  0
  8  1  2  0  0  0  0
  9 17  1  0  0  0  0
 11  1  1  0  0  0  0
 12 16  1  0  0  0  0
 12 19  1  1  0  0  0
 13 19  1  0  0  0  0
 14  2  1  0  0  0  0
 16 22  1  6  0  0  0
 16 15  1  0  0  0  0
 17 27  1  0  0  0  0
 17 10  2  0  0  0  0
 18  4  2  0  0  0  0
 20 24  1  0  0  0  0
 21 23  1  0  0  0  0
 21 20  2  0  0  0  0
 23 25  2  0  0  0  0
 24 22  2  0  0  0  0
 25 22  1  0  0  0  0
 26 20  1  0  0  0  0
 27 28  1  0  0  0  0
 30 29  1  1  0  0  0
 30 34  1  0  0  0  0
 32 31  1  0  0  0  0
 33 28  1  6  0  0  0
 33 30  1  0  0  0  0
 33 32  1  0  0  0  0
 34 31  1  0  0  0  0
M  END
>  <MODEL>
9

>  <REMARK>
 VINA RESULT:      -6.5      3.451      4.618
  Name = 
  4 active torsions:
  status: ('A' for Active; 'I' for Inactive)
    1  A    between atoms: N_3  and  C_13
    2  A    between atoms: N_3  and  C_29
    3  A    between atoms: C_12  and  C_28
    4  A    between atoms: C_13  and  C_33
                            x       y       z     vdW  Elec       q    Type
                         _______ _______ _______ _____ _____    ______ ____

>  <TORSDO>
F 4

$$$$
