=
 OpenBabel10252415103D

 34 39  0  0  1  0  0  0  0  0999 V2000
  190.7170  177.3830  139.1470 C   0  0  0  0  0  0  0  0  0  0  0  0
  188.3920  176.8970  138.3600 C   0  0  0  0  0  0  0  0  0  0  0  0
  188.8060  177.6380  140.7760 C   0  0  0  0  0  0  0  0  0  0  0  0
  187.2650  177.9750  142.6370 C   0  0  1  0  0  3  0  0  0  0  0  0
  190.2970  176.4400  136.9230 C   0  0  0  0  0  3  0  0  0  0  0  0
  188.9740  176.4490  137.0860 C   0  0  0  0  0  3  0  0  0  0  0  0
  186.6400  178.6840  140.3680 N   0  0  0  0  0  0  0  0  0  0  0  0
  189.2440  177.7140  139.3170 C   0  0  1  0  0  3  0  0  0  0  0  0
  184.3800  179.4140  140.3690 N   0  0  0  0  0  2  0  0  0  0  0  0
  185.4640  178.2560  142.6960 S   0  0  0  0  0  0  0  0  0  0  0  0
  191.1930  176.8290  138.0260 C   0  0  0  0  0  3  0  0  0  0  0  0
  189.7510  177.1980  141.8820 C   0  0  1  0  0  3  0  0  0  0  0  0
  191.8080  177.5730  140.5440 S   0  0  0  0  0  0  0  0  0  0  0  0
  187.1790  176.6550  138.5950 O   0  0  0  0  0  0  0  0  0  0  0  0
  187.5870  176.6720  143.0770 O   0  0  0  0  0  0  0  0  0  0  0  0
  188.9980  176.4560  143.0170 C   0  0  2  0  0  3  0  0  0  0  0  0
  185.5230  178.8350  140.9970 C   0  0  0  0  0  0  0  0  0  0  0  0
  187.6340  178.1180  141.2010 C   0  0  0  0  0  0  0  0  0  0  0  0
  190.8390  176.4470  141.4150 O   0  0  0  0  0  0  0  0  0  0  0  0
  189.4350  177.2780  146.6890 C   0  0  0  0  0  0  0  0  0  0  0  0
  190.8120  177.1020  146.8570 C   0  0  0  0  0  3  0  0  0  0  0  0
  189.6410  176.6820  144.3480 C   0  0  0  0  0  0  0  0  0  0  0  0
  191.6060  176.7150  145.7730 C   0  0  0  0  0  3  0  0  0  0  0  0
  188.8510  177.0680  145.4360 C   0  0  0  0  0  3  0  0  0  0  0  0
  191.0220  176.5050  144.5200 C   0  0  0  0  0  3  0  0  0  0  0  0
  188.6480  177.6610  147.7660 O   0  0  0  0  0  1  0  0  0  0  0  0
  184.4050  179.8740  138.9890 C   0  0  0  0  0  2  0  0  0  0  0  0
  182.1410  181.6120  138.6080 F   0  0  0  0  0  0  0  0  0  0  0  0
  183.1260  179.4610  138.2790 C   0  0  2  0  0  3  0  0  0  0  0  0
  181.9400  180.2610  138.8270 C   0  0  2  0  0  3  0  0  0  0  0  0
  180.4370  178.4490  138.4920 C   0  0  0  0  0  2  0  0  0  0  0  0
  181.5310  177.5610  137.9070 C   0  0  0  0  0  2  0  0  0  0  0  0
  182.8780  177.9680  138.4940 C   0  0  0  0  0  2  0  0  0  0  0  0
  180.7040  179.8490  138.1630 N   0  0  0  0  0  2  0  0  0  0  0  0
  1  8  1  0  0  0  0
  1 13  1  0  0  0  0
  2 14  2  0  0  0  0
  3 18  2  0  0  0  0
  4 18  1  6  0  0  0
  4 10  1  0  0  0  0
  4 15  1  0  0  0  0
  5  6  2  0  0  0  0
  5 11  1  0  0  0  0
  6  2  1  0  0  0  0
  7 17  2  0  0  0  0
  7 18  1  0  0  0  0
  8  2  1  6  0  0  0
  8  3  1  0  0  0  0
  9 17  1  0  0  0  0
 11  1  2  0  0  0  0
 12  3  1  6  0  0  0
 12 16  1  0  0  0  0
 13 19  1  0  0  0  0
 16 15  1  0  0  0  0
 16 22  1  1  0  0  0
 17 10  1  0  0  0  0
 19 12  1  0  0  0  0
 20 21  1  0  0  0  0
 20 26  1  0  0  0  0
 22 25  2  0  0  0  0
 22 24  1  0  0  0  0
 23 21  2  0  0  0  0
 24 20  2  0  0  0  0
 25 23  1  0  0  0  0
 27  9  1  0  0  0  0
 29 33  1  0  0  0  0
 29 30  1  0  0  0  0
 29 27  1  1  0  0  0
 30 28  1  6  0  0  0
 32 31  1  0  0  0  0
 32 33  1  0  0  0  0
 34 31  1  0  0  0  0
 34 30  1  0  0  0  0
M  END
>  <MODEL>
1

>  <REMARK>
 VINA RESULT:      -9.0      0.000      0.000
  Name = 
  3 active torsions:
  status: ('A' for Active; 'I' for Inactive)
    1  A    between atoms: C_3  and  C_13
    2  A    between atoms: C_3  and  N_17
    3  A    between atoms: C_12  and  C_28
                            x       y       z     vdW  Elec       q    Type
                         _______ _______ _______ _____ _____    ______ ____

>  <TORSDO>
F 3

$$$$
=
 OpenBabel10252415103D

 34 39  0  0  1  0  0  0  0  0999 V2000
  191.3940  177.8610  141.3950 C   0  0  0  0  0  0  0  0  0  0  0  0
  189.8420  176.9460  139.6590 C   0  0  0  0  0  0  0  0  0  0  0  0
  188.9090  177.9290  141.8330 C   0  0  0  0  0  0  0  0  0  0  0  0
  186.6170  178.1540  142.6380 C   0  0  1  0  0  3  0  0  0  0  0  0
  192.2450  176.6950  139.4140 C   0  0  0  0  0  3  0  0  0  0  0  0
  191.0270  176.5020  138.9110 C   0  0  0  0  0  3  0  0  0  0  0  0
  187.1460  178.5740  140.2750 N   0  0  0  0  0  0  0  0  0  0  0  0
  190.0100  177.9610  140.7780 C   0  0  1  0  0  3  0  0  0  0  0  0
  185.1300  178.9270  139.0710 N   0  0  0  0  0  2  0  0  0  0  0  0
  185.0120  178.1430  141.7730 S   0  0  0  0  0  0  0  0  0  0  0  0
  192.4220  177.3070  140.7420 C   0  0  0  0  0  3  0  0  0  0  0  0
  189.2120  177.7340  143.3100 C   0  0  1  0  0  3  0  0  0  0  0  0
  191.6110  178.3320  143.1010 S   0  0  0  0  0  0  0  0  0  0  0  0
  188.7070  176.5300  139.3080 O   0  0  0  0  0  0  0  0  0  0  0  0
  186.8070  176.9570  143.3660 O   0  0  0  0  0  0  0  0  0  0  0  0
  188.0710  176.9690  144.0320 C   0  0  2  0  0  3  0  0  0  0  0  0
  185.8570  178.5910  140.2520 C   0  0  0  0  0  0  0  0  0  0  0  0
  187.6400  178.2430  141.5600 C   0  0  0  0  0  0  0  0  0  0  0  0
  190.4570  177.1350  143.5460 O   0  0  0  0  0  0  0  0  0  0  0  0
  186.6450  178.5100  147.1850 C   0  0  0  0  0  0  0  0  0  0  0  0
  187.6370  178.2060  148.1220 C   0  0  0  0  0  3  0  0  0  0  0  0
  187.9330  177.3980  145.4570 C   0  0  0  0  0  0  0  0  0  0  0  0
  188.7770  177.4980  147.7310 C   0  0  0  0  0  3  0  0  0  0  0  0
  186.7930  178.1060  145.8540 C   0  0  0  0  0  3  0  0  0  0  0  0
  188.9250  177.0940  146.4000 C   0  0  0  0  0  3  0  0  0  0  0  0
  185.5130  179.2120  147.5740 O   0  0  0  0  0  1  0  0  0  0  0  0
  185.7970  179.2770  137.8260 C   0  0  0  0  0  2  0  0  0  0  0  0
  188.6360  179.0890  137.3800 F   0  0  0  0  0  0  0  0  0  0  0  0
  186.4880  178.0540  137.2440 C   0  0  2  0  0  3  0  0  0  0  0  0
  187.7610  178.4730  136.5030 C   0  0  2  0  0  3  0  0  0  0  0  0
  187.5300  176.7210  134.9120 C   0  0  0  0  0  2  0  0  0  0  0  0
  186.2600  176.1950  135.5760 C   0  0  0  0  0  2  0  0  0  0  0  0
  185.5430  177.3440  136.2740 C   0  0  0  0  0  2  0  0  0  0  0  0
  188.4140  177.3010  135.9220 N   0  0  0  0  0  2  0  0  0  0  0  0
  1 13  1  0  0  0  0
  4 18  1  6  0  0  0
  4 15  1  0  0  0  0
  5 11  1  0  0  0  0
  6  5  2  0  0  0  0
  6  2  1  0  0  0  0
  7 18  1  0  0  0  0
  8  2  1  6  0  0  0
  8  1  1  0  0  0  0
  8  3  1  0  0  0  0
  9 17  1  0  0  0  0
 10  4  1  0  0  0  0
 11  1  2  0  0  0  0
 12  3  1  6  0  0  0
 12 19  1  0  0  0  0
 12 16  1  0  0  0  0
 13 19  1  0  0  0  0
 14  2  2  0  0  0  0
 15 16  1  0  0  0  0
 16 22  1  1  0  0  0
 17  7  2  0  0  0  0
 17 10  1  0  0  0  0
 18  3  2  0  0  0  0
 20 26  1  0  0  0  0
 20 21  1  0  0  0  0
 22 24  1  0  0  0  0
 22 25  2  0  0  0  0
 23 21  2  0  0  0  0
 24 20  2  0  0  0  0
 25 23  1  0  0  0  0
 27  9  1  0  0  0  0
 29 27  1  6  0  0  0
 30 29  1  0  0  0  0
 30 28  1  1  0  0  0
 31 32  1  0  0  0  0
 31 34  1  0  0  0  0
 32 33  1  0  0  0  0
 33 29  1  0  0  0  0
 34 30  1  0  0  0  0
M  END
>  <MODEL>
2

>  <REMARK>
 VINA RESULT:      -9.0      2.627      3.521
  Name = 
  3 active torsions:
  status: ('A' for Active; 'I' for Inactive)
    1  A    between atoms: C_3  and  C_13
    2  A    between atoms: C_3  and  N_17
    3  A    between atoms: C_12  and  C_28
                            x       y       z     vdW  Elec       q    Type
                         _______ _______ _______ _____ _____    ______ ____

>  <TORSDO>
F 3

$$$$
=
 OpenBabel10252415103D

 34 39  0  0  1  0  0  0  0  0999 V2000
  190.6500  177.2180  146.7390 C   0  0  0  0  0  0  0  0  0  0  0  0
  191.7060  175.8050  144.9650 C   0  0  0  0  0  0  0  0  0  0  0  0
  189.7190  177.3170  144.3960 C   0  0  0  0  0  0  0  0  0  0  0  0
  188.5260  177.6770  142.2980 C   0  0  1  0  0  3  0  0  0  0  0  0
  192.3900  175.5790  147.2850 C   0  0  0  0  0  3  0  0  0  0  0  0
  192.5500  175.2130  146.0130 C   0  0  0  0  0  3  0  0  0  0  0  0
  190.9730  177.4470  142.3070 N   0  0  0  0  0  0  0  0  0  0  0  0
  190.9570  177.0950  145.2570 C   0  0  1  0  0  3  0  0  0  0  0  0
  191.7620  177.3840  140.0680 N   0  0  0  0  0  2  0  0  0  0  0  0
  188.9900  177.3720  140.5610 S   0  0  0  0  0  0  0  0  0  0  0  0
  191.3410  176.5400  147.6640 C   0  0  0  0  0  3  0  0  0  0  0  0
  188.3440  177.5490  145.0020 C   0  0  1  0  0  3  0  0  0  0  0  0
  189.2160  178.1490  147.2470 S   0  0  0  0  0  0  0  0  0  0  0  0
  191.6820  175.2690  143.8260 O   0  0  0  0  0  0  0  0  0  0  0  0
  187.5680  176.7350  142.7370 O   0  0  0  0  0  0  0  0  0  0  0  0
  187.2180  176.9740  144.1020 C   0  0  2  0  0  3  0  0  0  0  0  0
  190.7200  177.4120  141.0420 C   0  0  0  0  0  0  0  0  0  0  0  0
  189.7850  177.5000  143.0740 C   0  0  0  0  0  0  0  0  0  0  0  0
  188.2340  177.0820  146.3190 O   0  0  0  0  0  0  0  0  0  0  0  0
  183.9980  178.7290  143.1530 C   0  0  0  0  0  0  0  0  0  0  0  0
  183.5930  179.2610  144.3810 C   0  0  0  0  0  3  0  0  0  0  0  0
  185.9600  177.7760  144.2100 C   0  0  0  0  0  0  0  0  0  0  0  0
  184.3680  179.0510  145.5250 C   0  0  0  0  0  3  0  0  0  0  0  0
  185.1810  177.9870  143.0690 C   0  0  0  0  0  3  0  0  0  0  0  0
  185.5510  178.3090  145.4410 C   0  0  0  0  0  3  0  0  0  0  0  0
  183.2270  178.9370  142.0180 O   0  0  0  0  0  1  0  0  0  0  0  0
  193.1690  177.3980  140.4400 C   0  0  0  0  0  2  0  0  0  0  0  0
  192.2960  177.0190  137.7220 F   0  0  0  0  0  0  0  0  0  0  0  0
  193.9990  176.7090  139.3690 C   0  0  2  0  0  3  0  0  0  0  0  0
  193.0790  176.0550  138.3330 C   0  0  2  0  0  3  0  0  0  0  0  0
  194.6130  174.2790  137.9480 C   0  0  0  0  0  2  0  0  0  0  0  0
  195.6220  174.8450  138.9430 C   0  0  0  0  0  2  0  0  0  0  0  0
  194.8840  175.6410  140.0120 C   0  0  0  0  0  2  0  0  0  0  0  0
  193.8750  175.3710  137.3140 N   0  0  0  0  0  2  0  0  0  0  0  0
  1 13  1  0  0  0  0
  1 11  2  0  0  0  0
  2  8  1  0  0  0  0
  2  6  1  0  0  0  0
  4 10  1  6  0  0  0
  4 15  1  0  0  0  0
  4 18  1  0  0  0  0
  5 11  1  0  0  0  0
  6  5  2  0  0  0  0
  7 18  1  0  0  0  0
  8  3  1  6  0  0  0
  8  1  1  0  0  0  0
  9 27  1  0  0  0  0
  9 17  1  0  0  0  0
 10 17  1  0  0  0  0
 12  3  1  6  0  0  0
 12 19  1  0  0  0  0
 14  2  2  0  0  0  0
 15 16  1  0  0  0  0
 16 22  1  6  0  0  0
 16 12  1  0  0  0  0
 17  7  2  0  0  0  0
 18  3  2  0  0  0  0
 19 13  1  0  0  0  0
 20 21  1  0  0  0  0
 21 23  2  0  0  0  0
 22 25  2  0  0  0  0
 24 20  2  0  0  0  0
 24 22  1  0  0  0  0
 25 23  1  0  0  0  0
 26 20  1  0  0  0  0
 29 33  1  0  0  0  0
 29 27  1  1  0  0  0
 30 28  1  6  0  0  0
 30 29  1  0  0  0  0
 31 32  1  0  0  0  0
 32 33  1  0  0  0  0
 34 31  1  0  0  0  0
 34 30  1  0  0  0  0
M  END
>  <MODEL>
3

>  <REMARK>
 VINA RESULT:      -8.9      4.263      8.231
  Name = 
  3 active torsions:
  status: ('A' for Active; 'I' for Inactive)
    1  A    between atoms: C_3  and  C_13
    2  A    between atoms: C_3  and  N_17
    3  A    between atoms: C_12  and  C_28
                            x       y       z     vdW  Elec       q    Type
                         _______ _______ _______ _____ _____    ______ ____

>  <TORSDO>
F 3

$$$$
=
 OpenBabel10252415103D

 34 39  0  0  1  0  0  0  0  0999 V2000
  190.9920  175.0530  137.4340 C   0  0  0  0  0  0  0  0  0  0  0  0
  191.8890  176.7830  139.0030 C   0  0  0  0  0  0  0  0  0  0  0  0
  189.3650  176.5800  138.6140 C   0  0  0  0  0  0  0  0  0  0  0  0
  187.4940  177.8560  139.5220 C   0  0  1  0  0  3  0  0  0  0  0  0
  193.4020  175.4460  137.6540 C   0  0  0  0  0  3  0  0  0  0  0  0
  193.2410  176.3830  138.5880 C   0  0  0  0  0  3  0  0  0  0  0  0
  189.3890  177.2400  140.9630 N   0  0  0  0  0  0  0  0  0  0  0  0
  190.7140  175.8730  138.6820 C   0  0  1  0  0  3  0  0  0  0  0  0
  189.1330  178.2810  143.0820 N   0  0  0  0  0  2  0  0  0  0  0  0
  187.3370  178.9060  141.0050 S   0  0  0  0  0  0  0  0  0  0  0  0
  192.2360  174.8360  136.9920 C   0  0  0  0  0  3  0  0  0  0  0  0
  188.4760  176.5080  137.3830 C   0  0  1  0  0  3  0  0  0  0  0  0
  189.6160  174.5180  136.4330 S   0  0  0  0  0  0  0  0  0  0  0  0
  191.7450  177.8350  139.6790 O   0  0  0  0  0  0  0  0  0  0  0  0
  187.5220  178.6400  138.3480 O   0  0  0  0  0  0  0  0  0  0  0  0
  187.6550  177.8110  137.1930 C   0  0  2  0  0  3  0  0  0  0  0  0
  188.7420  178.0520  141.7290 C   0  0  0  0  0  0  0  0  0  0  0  0
  188.7990  177.1550  139.6780 C   0  0  0  0  0  0  0  0  0  0  0  0
  189.1730  176.1680  136.2150 O   0  0  0  0  0  0  0  0  0  0  0  0
  183.9350  177.2310  136.7810 C   0  0  0  0  0  0  0  0  0  0  0  0
  183.8280  177.0490  135.3990 C   0  0  0  0  0  3  0  0  0  0  0  0
  186.3290  177.5410  136.5570 C   0  0  0  0  0  0  0  0  0  0  0  0
  184.9680  177.1140  134.5940 C   0  0  0  0  0  3  0  0  0  0  0  0
  185.1840  177.4770  137.3590 C   0  0  0  0  0  3  0  0  0  0  0  0
  186.2180  177.3590  135.1710 C   0  0  0  0  0  3  0  0  0  0  0  0
  182.8010  177.1680  137.5800 O   0  0  0  0  0  1  0  0  0  0  0  0
  190.2770  177.6100  143.6800 C   0  0  0  0  0  2  0  0  0  0  0  0
  192.2010  176.4250  145.4660 F   0  0  0  0  0  0  0  0  0  0  0  0
  190.2190  177.7310  145.1940 C   0  0  2  0  0  3  0  0  0  0  0  0
  190.8720  176.5080  145.8440 C   0  0  2  0  0  3  0  0  0  0  0  0
  189.3910  176.5810  147.7020 C   0  0  0  0  0  2  0  0  0  0  0  0
  188.6730  177.8170  147.1670 C   0  0  0  0  0  2  0  0  0  0  0  0
  188.7620  177.8330  145.6460 C   0  0  0  0  0  2  0  0  0  0  0  0
  190.7970  176.6100  147.3010 N   0  0  0  0  0  2  0  0  0  0  0  0
  2 14  2  0  0  0  0
  3  8  1  0  0  0  0
  3 18  2  0  0  0  0
  4 15  1  6  0  0  0
  4 18  1  0  0  0  0
  4 10  1  0  0  0  0
  5  6  2  0  0  0  0
  6  2  1  0  0  0  0
  7 17  2  0  0  0  0
  8  1  1  6  0  0  0
  8  2  1  0  0  0  0
  9 27  1  0  0  0  0
 10 17  1  0  0  0  0
 11  1  2  0  0  0  0
 11  5  1  0  0  0  0
 12 19  1  6  0  0  0
 12  3  1  0  0  0  0
 13  1  1  0  0  0  0
 16 22  1  1  0  0  0
 16 12  1  0  0  0  0
 16 15  1  0  0  0  0
 17  9  1  0  0  0  0
 18  7  1  0  0  0  0
 19 13  1  0  0  0  0
 20 24  1  0  0  0  0
 20 26  1  0  0  0  0
 21 20  2  0  0  0  0
 22 24  2  0  0  0  0
 23 25  2  0  0  0  0
 23 21  1  0  0  0  0
 25 22  1  0  0  0  0
 29 27  1  6  0  0  0
 29 33  1  0  0  0  0
 29 30  1  0  0  0  0
 30 28  1  1  0  0  0
 30 34  1  0  0  0  0
 32 31  1  0  0  0  0
 33 32  1  0  0  0  0
 34 31  1  0  0  0  0
M  END
>  <MODEL>
4

>  <REMARK>
 VINA RESULT:      -8.1      3.988      8.156
  Name = 
  3 active torsions:
  status: ('A' for Active; 'I' for Inactive)
    1  A    between atoms: C_3  and  C_13
    2  A    between atoms: C_3  and  N_17
    3  A    between atoms: C_12  and  C_28
                            x       y       z     vdW  Elec       q    Type
                         _______ _______ _______ _____ _____    ______ ____

>  <TORSDO>
F 3

$$$$
=
 OpenBabel10252415103D

 34 39  0  0  1  0  0  0  0  0999 V2000
  186.3390  178.6210  144.8590 C   0  0  0  0  0  0  0  0  0  0  0  0
  187.5250  177.2160  143.1630 C   0  0  0  0  0  0  0  0  0  0  0  0
  185.4500  178.5630  142.4980 C   0  0  0  0  0  0  0  0  0  0  0  0
  184.2780  178.7550  140.3670 C   0  0  1  0  0  3  0  0  0  0  0  0
  188.1750  177.1300  145.5020 C   0  0  0  0  0  3  0  0  0  0  0  0
  188.3850  176.7250  144.2490 C   0  0  0  0  0  3  0  0  0  0  0  0
  186.7340  178.6950  140.4270 N   0  0  0  0  0  0  0  0  0  0  0  0
  186.6840  178.4610  143.3890 C   0  0  1  0  0  3  0  0  0  0  0  0
  187.5710  178.5970  138.2070 N   0  0  0  0  0  2  0  0  0  0  0  0
  184.7970  178.4150  138.6530 S   0  0  0  0  0  0  0  0  0  0  0  0
  187.0560  178.0300  145.8230 C   0  0  0  0  0  3  0  0  0  0  0  0
  184.0510  178.7230  143.0700 C   0  0  1  0  0  3  0  0  0  0  0  0
  184.8350  179.4710  145.3030 S   0  0  0  0  0  0  0  0  0  0  0  0
  187.5600  176.6340  142.0470 O   0  0  0  0  0  0  0  0  0  0  0  0
  183.3780  177.7680  140.8280 O   0  0  0  0  0  0  0  0  0  0  0  0
  182.9850  178.0370  142.1750 C   0  0  2  0  0  3  0  0  0  0  0  0
  186.5100  178.5930  139.1610 C   0  0  0  0  0  0  0  0  0  0  0  0
  185.5300  178.6970  141.1710 C   0  0  0  0  0  0  0  0  0  0  0  0
  183.9460  178.3030  144.4030 O   0  0  0  0  0  0  0  0  0  0  0  0
  179.7020  179.4000  143.4820 C   0  0  0  0  0  0  0  0  0  0  0  0
  179.2200  180.0940  142.3680 C   0  0  0  0  0  3  0  0  0  0  0  0
  181.6740  178.7530  142.2290 C   0  0  0  0  0  0  0  0  0  0  0  0
  179.9620  180.1200  141.1840 C   0  0  0  0  0  3  0  0  0  0  0  0
  180.9280  178.7310  143.4120 C   0  0  0  0  0  3  0  0  0  0  0  0
  181.1880  179.4510  141.1140 C   0  0  0  0  0  3  0  0  0  0  0  0
  178.9640  179.3750  144.6570 O   0  0  0  0  0  1  0  0  0  0  0  0
  188.9660  178.7240  138.6020 C   0  0  0  0  0  2  0  0  0  0  0  0
  190.3570  177.4500  140.7780 F   0  0  0  0  0  0  0  0  0  0  0  0
  189.6620  177.3780  138.4940 C   0  0  2  0  0  3  0  0  0  0  0  0
  190.8280  177.3080  139.4850 C   0  0  2  0  0  3  0  0  0  0  0  0
  192.1090  175.9280  138.0330 C   0  0  0  0  0  2  0  0  0  0  0  0
  191.0090  175.9030  136.9760 C   0  0  0  0  0  2  0  0  0  0  0  0
  190.1890  177.1840  137.0720 C   0  0  0  0  0  2  0  0  0  0  0  0
  191.5140  176.0220  139.3660 N   0  0  0  0  0  2  0  0  0  0  0  0
  1 13  1  0  0  0  0
  1 11  2  0  0  0  0
  2  8  1  0  0  0  0
  2  6  1  0  0  0  0
  4 10  1  6  0  0  0
  4 15  1  0  0  0  0
  4 18  1  0  0  0  0
  5 11  1  0  0  0  0
  6  5  2  0  0  0  0
  7 18  1  0  0  0  0
  8  3  1  6  0  0  0
  8  1  1  0  0  0  0
  9 27  1  0  0  0  0
  9 17  1  0  0  0  0
 10 17  1  0  0  0  0
 12  3  1  6  0  0  0
 12 19  1  0  0  0  0
 14  2  2  0  0  0  0
 15 16  1  0  0  0  0
 16 22  1  6  0  0  0
 16 12  1  0  0  0  0
 17  7  2  0  0  0  0
 18  3  2  0  0  0  0
 19 13  1  0  0  0  0
 20 26  1  0  0  0  0
 21 20  2  0  0  0  0
 22 24  2  0  0  0  0
 23 21  1  0  0  0  0
 24 20  1  0  0  0  0
 25 23  2  0  0  0  0
 25 22  1  0  0  0  0
 29 27  1  6  0  0  0
 29 30  1  0  0  0  0
 30 28  1  1  0  0  0
 31 34  1  0  0  0  0
 32 33  1  0  0  0  0
 32 31  1  0  0  0  0
 33 29  1  0  0  0  0
 34 30  1  0  0  0  0
M  END
>  <MODEL>
5

>  <REMARK>
 VINA RESULT:      -8.0      3.514      7.872
  Name = 
  3 active torsions:
  status: ('A' for Active; 'I' for Inactive)
    1  A    between atoms: C_3  and  C_13
    2  A    between atoms: C_3  and  N_17
    3  A    between atoms: C_12  and  C_28
                            x       y       z     vdW  Elec       q    Type
                         _______ _______ _______ _____ _____    ______ ____

>  <TORSDO>
F 3

$$$$
=
 OpenBabel10252415103D

 34 39  0  0  1  0  0  0  0  0999 V2000
  187.0990  177.5000  144.7210 C   0  0  0  0  0  0  0  0  0  0  0  0
  185.2510  179.0550  144.0710 C   0  0  0  0  0  0  0  0  0  0  0  0
  186.6610  177.9030  142.2690 C   0  0  0  0  0  0  0  0  0  0  0  0
  186.5770  178.0420  139.8350 C   0  0  1  0  0  3  0  0  0  0  0  0
  185.8860  178.8090  146.4020 C   0  0  0  0  0  3  0  0  0  0  0  0
  185.0770  179.3610  145.4980 C   0  0  0  0  0  3  0  0  0  0  0  0
  184.4970  177.9780  141.1430 N   0  0  0  0  0  0  0  0  0  0  0  0
  186.0570  177.8320  143.6680 C   0  0  1  0  0  3  0  0  0  0  0  0
  182.6480  178.3210  139.6930 N   0  0  0  0  0  2  0  0  0  0  0  0
  185.2650  178.5750  138.6860 S   0  0  0  0  0  0  0  0  0  0  0  0
  186.9900  177.9280  145.9850 C   0  0  0  0  0  3  0  0  0  0  0  0
  188.1510  177.7370  142.0230 C   0  0  1  0  0  3  0  0  0  0  0  0
  188.5970  176.6720  144.2200 S   0  0  0  0  0  0  0  0  0  0  0  0
  184.6660  179.7730  143.2170 O   0  0  0  0  0  0  0  0  0  0  0  0
  187.6110  179.0030  139.9020 O   0  0  0  0  0  0  0  0  0  0  0  0
  188.6290  178.5820  140.8120 C   0  0  2  0  0  3  0  0  0  0  0  0
  184.0470  178.2530  139.9650 C   0  0  0  0  0  0  0  0  0  0  0  0
  185.9120  177.9380  141.1630 C   0  0  0  0  0  0  0  0  0  0  0  0
  188.9320  177.9870  143.1600 O   0  0  0  0  0  0  0  0  0  0  0  0
  190.6600  176.9370  138.0710 C   0  0  0  0  0  0  0  0  0  0  0  0
  191.8780  176.7100  138.7180 C   0  0  0  0  0  3  0  0  0  0  0  0
  189.7660  177.9270  140.0940 C   0  0  0  0  0  0  0  0  0  0  0  0
  192.0440  177.0910  140.0530 C   0  0  0  0  0  3  0  0  0  0  0  0
  189.6060  177.5450  138.7590 C   0  0  0  0  0  3  0  0  0  0  0  0
  190.9890  177.6990  140.7410 C   0  0  0  0  0  3  0  0  0  0  0  0
  190.4980  176.5580  136.7450 O   0  0  0  0  0  1  0  0  0  0  0  0
  181.6470  178.0800  140.7210 C   0  0  0  0  0  2  0  0  0  0  0  0
  181.7260  178.8470  143.4960 F   0  0  0  0  0  0  0  0  0  0  0  0
  181.1180  179.4010  141.2530 C   0  0  2  0  0  3  0  0  0  0  0  0
  180.6590  179.2360  142.7060 C   0  0  2  0  0  3  0  0  0  0  0  0
  178.9310  180.8480  142.4460 C   0  0  0  0  0  2  0  0  0  0  0  0
  179.3070  181.1170  140.9920 C   0  0  0  0  0  2  0  0  0  0  0  0
  179.9400  179.8650  140.3960 C   0  0  0  0  0  2  0  0  0  0  0  0
  180.1270  180.5010  143.2120 N   0  0  0  0  0  2  0  0  0  0  0  0
  1 11  2  0  0  0  0
  2  6  1  0  0  0  0
  4 10  1  6  0  0  0
  4 15  1  0  0  0  0
  4 18  1  0  0  0  0
  6  5  2  0  0  0  0
  7 18  1  0  0  0  0
  8  3  1  6  0  0  0
  8  2  1  0  0  0  0
  8  1  1  0  0  0  0
  9 17  1  0  0  0  0
  9 27  1  0  0  0  0
 10 17  1  0  0  0  0
 11  5  1  0  0  0  0
 12  3  1  1  0  0  0
 12 19  1  0  0  0  0
 13  1  1  0  0  0  0
 14  2  2  0  0  0  0
 15 16  1  0  0  0  0
 16 22  1  6  0  0  0
 16 12  1  0  0  0  0
 17  7  2  0  0  0  0
 18  3  2  0  0  0  0
 19 13  1  0  0  0  0
 20 21  2  0  0  0  0
 20 24  1  0  0  0  0
 21 23  1  0  0  0  0
 22 25  1  0  0  0  0
 23 25  2  0  0  0  0
 24 22  2  0  0  0  0
 26 20  1  0  0  0  0
 29 27  1  6  0  0  0
 29 30  1  0  0  0  0
 30 34  1  0  0  0  0
 30 28  1  1  0  0  0
 31 34  1  0  0  0  0
 32 31  1  0  0  0  0
 33 32  1  0  0  0  0
 33 29  1  0  0  0  0
M  END
>  <MODEL>
6

>  <REMARK>
 VINA RESULT:      -8.0      2.848      5.718
  Name = 
  3 active torsions:
  status: ('A' for Active; 'I' for Inactive)
    1  A    between atoms: C_3  and  C_13
    2  A    between atoms: C_3  and  N_17
    3  A    between atoms: C_12  and  C_28
                            x       y       z     vdW  Elec       q    Type
                         _______ _______ _______ _____ _____    ______ ____

>  <TORSDO>
F 3

$$$$
=
 OpenBabel10252415103D

 34 39  0  0  1  0  0  0  0  0999 V2000
  185.9960  177.6490  144.0620 C   0  0  0  0  0  0  0  0  0  0  0  0
  186.5090  178.9170  141.9680 C   0  0  0  0  0  0  0  0  0  0  0  0
  188.2900  177.4170  143.0350 C   0  0  0  0  0  0  0  0  0  0  0  0
  190.5940  176.9490  142.3830 C   0  0  1  0  0  3  0  0  0  0  0  0
  184.4140  179.2790  143.1410 C   0  0  0  0  0  3  0  0  0  0  0  0
  185.1920  179.5580  142.0960 C   0  0  0  0  0  3  0  0  0  0  0  0
  188.8340  177.1220  140.6750 N   0  0  0  0  0  0  0  0  0  0  0  0
  186.8070  177.6670  142.7790 C   0  0  1  0  0  3  0  0  0  0  0  0
  189.8220  177.0200  138.5180 N   0  0  0  0  0  2  0  0  0  0  0  0
  191.4740  177.1280  140.7960 S   0  0  0  0  0  0  0  0  0  0  0  0
  184.8770  178.3700  144.2030 C   0  0  0  0  0  3  0  0  0  0  0  0
  188.8510  177.2580  144.4380 C   0  0  1  0  0  3  0  0  0  0  0  0
  186.6480  176.7870  145.4800 S   0  0  0  0  0  0  0  0  0  0  0  0
  187.3330  179.3780  141.1340 O   0  0  0  0  0  0  0  0  0  0  0  0
  191.0050  177.9390  143.3030 O   0  0  0  0  0  0  0  0  0  0  0  0
  190.3030  177.7980  144.5390 C   0  0  2  0  0  3  0  0  0  0  0  0
  189.8950  177.0800  139.9420 C   0  0  0  0  0  0  0  0  0  0  0  0
  189.1550  177.1470  142.0540 C   0  0  0  0  0  0  0  0  0  0  0  0
  188.0300  177.8130  145.4300 O   0  0  0  0  0  0  0  0  0  0  0  0
  192.0330  176.8600  147.7750 C   0  0  0  0  0  0  0  0  0  0  0  0
  192.6020  175.6270  147.4450 C   0  0  0  0  0  3  0  0  0  0  0  0
  191.1090  177.0350  145.5410 C   0  0  0  0  0  0  0  0  0  0  0  0
  192.4260  175.0940  146.1650 C   0  0  0  0  0  3  0  0  0  0  0  0
  191.2870  177.5630  146.8240 C   0  0  0  0  0  3  0  0  0  0  0  0
  191.6800  175.7970  145.2130 C   0  0  0  0  0  3  0  0  0  0  0  0
  192.2080  177.3880  149.0470 O   0  0  0  0  0  1  0  0  0  0  0  0
  188.5520  176.9970  137.8090 C   0  0  0  0  0  2  0  0  0  0  0  0
  186.0780  175.8100  136.9340 F   0  0  0  0  0  0  0  0  0  0  0  0
  188.4660  175.7580  136.9330 C   0  0  2  0  0  3  0  0  0  0  0  0
  187.1650  175.0030  137.2180 C   0  0  2  0  0  3  0  0  0  0  0  0
  188.1770  172.8960  136.7800 C   0  0  0  0  0  2  0  0  0  0  0  0
  189.5230  173.5350  136.4500 C   0  0  0  0  0  2  0  0  0  0  0  0
  189.6590  174.8450  137.2170 C   0  0  0  0  0  2  0  0  0  0  0  0
  187.0910  173.7970  136.3940 N   0  0  0  0  0  2  0  0  0  0  0  0
  1 11  2  0  0  0  0
  1 13  1  0  0  0  0
  2  6  1  0  0  0  0
  4 10  1  6  0  0  0
  4 15  1  0  0  0  0
  5 11  1  0  0  0  0
  6  5  2  0  0  0  0
  7 18  1  0  0  0  0
  8  2  1  1  0  0  0
  8  3  1  0  0  0  0
  8  1  1  0  0  0  0
  9 17  1  0  0  0  0
 12  3  1  6  0  0  0
 12 16  1  0  0  0  0
 12 19  1  0  0  0  0
 14  2  2  0  0  0  0
 15 16  1  0  0  0  0
 16 22  1  1  0  0  0
 17  7  2  0  0  0  0
 17 10  1  0  0  0  0
 18  4  1  0  0  0  0
 18  3  2  0  0  0  0
 19 13  1  0  0  0  0
 20 26  1  0  0  0  0
 21 20  1  0  0  0  0
 22 24  1  0  0  0  0
 23 21  2  0  0  0  0
 24 20  2  0  0  0  0
 25 22  2  0  0  0  0
 25 23  1  0  0  0  0
 27  9  1  0  0  0  0
 29 33  1  0  0  0  0
 29 30  1  0  0  0  0
 29 27  1  1  0  0  0
 30 28  1  6  0  0  0
 32 31  1  0  0  0  0
 32 33  1  0  0  0  0
 34 31  1  0  0  0  0
 34 30  1  0  0  0  0
M  END
>  <MODEL>
7

>  <REMARK>
 VINA RESULT:      -7.9      3.346      5.649
  Name = 
  3 active torsions:
  status: ('A' for Active; 'I' for Inactive)
    1  A    between atoms: C_3  and  C_13
    2  A    between atoms: C_3  and  N_17
    3  A    between atoms: C_12  and  C_28
                            x       y       z     vdW  Elec       q    Type
                         _______ _______ _______ _____ _____    ______ ____

>  <TORSDO>
F 3

$$$$
=
 OpenBabel10252415103D

 34 39  0  0  1  0  0  0  0  0999 V2000
  186.7880  177.3340  144.7220 C   0  0  0  0  0  0  0  0  0  0  0  0
  185.1190  179.1750  144.4370 C   0  0  0  0  0  0  0  0  0  0  0  0
  186.1780  178.0670  142.3860 C   0  0  0  0  0  0  0  0  0  0  0  0
  185.8840  178.4910  140.0010 C   0  0  1  0  0  3  0  0  0  0  0  0
  185.9320  178.5860  146.6490 C   0  0  0  0  0  3  0  0  0  0  0  0
  185.1250  179.3360  145.8980 C   0  0  0  0  0  3  0  0  0  0  0  0
  183.9490  178.5440  141.5160 N   0  0  0  0  0  0  0  0  0  0  0  0
  185.7070  177.9130  143.8280 C   0  0  1  0  0  3  0  0  0  0  0  0
  182.0350  179.2820  140.3190 N   0  0  0  0  0  2  0  0  0  0  0  0
  184.5550  179.3150  139.0620 S   0  0  0  0  0  0  0  0  0  0  0  0
  186.8590  177.6250  146.0270 C   0  0  0  0  0  3  0  0  0  0  0  0
  187.6010  177.7420  141.9620 C   0  0  1  0  0  3  0  0  0  0  0  0
  188.1030  176.3850  143.9800 S   0  0  0  0  0  0  0  0  0  0  0  0
  184.5600  180.0540  143.7300 O   0  0  0  0  0  0  0  0  0  0  0  0
  187.0420  179.2990  140.0510 O   0  0  0  0  0  0  0  0  0  0  0  0
  188.0740  178.6520  140.7980 C   0  0  2  0  0  3  0  0  0  0  0  0
  183.4310  179.0060  140.4290 C   0  0  0  0  0  0  0  0  0  0  0  0
  185.3400  178.3220  141.3770 C   0  0  0  0  0  0  0  0  0  0  0  0
  188.5140  177.7590  143.0260 O   0  0  0  0  0  0  0  0  0  0  0  0
  189.7910  177.4160  137.6560 C   0  0  0  0  0  0  0  0  0  0  0  0
  190.8280  176.6420  138.1850 C   0  0  0  0  0  3  0  0  0  0  0  0
  189.0360  177.9440  139.8980 C   0  0  0  0  0  0  0  0  0  0  0  0
  190.9730  176.5180  139.5700 C   0  0  0  0  0  3  0  0  0  0  0  0
  188.8960  178.0660  138.5120 C   0  0  0  0  0  3  0  0  0  0  0  0
  190.0780  177.1680  140.4260 C   0  0  0  0  0  3  0  0  0  0  0  0
  189.6500  177.5390  136.2810 O   0  0  0  0  0  1  0  0  0  0  0  0
  181.1130  179.0530  141.4210 C   0  0  0  0  0  2  0  0  0  0  0  0
  179.8260  177.1260  143.1310 F   0  0  0  0  0  0  0  0  0  0  0  0
  179.9830  178.1410  140.9740 C   0  0  2  0  0  3  0  0  0  0  0  0
  180.0030  176.8430  141.7880 C   0  0  2  0  0  3  0  0  0  0  0  0
  179.1850  175.5660  139.9560 C   0  0  0  0  0  2  0  0  0  0  0  0
  179.1000  176.7930  139.0520 C   0  0  0  0  0  2  0  0  0  0  0  0
  180.1430  177.8150  139.4890 C   0  0  0  0  0  2  0  0  0  0  0  0
  178.9310  175.9530  141.3430 N   0  0  0  0  0  2  0  0  0  0  0  0
  1 11  2  0  0  0  0
  2  6  1  0  0  0  0
  4 10  1  6  0  0  0
  4 15  1  0  0  0  0
  4 18  1  0  0  0  0
  6  5  2  0  0  0  0
  8  3  1  6  0  0  0
  8  2  1  0  0  0  0
  8  1  1  0  0  0  0
  9 17  1  0  0  0  0
  9 27  1  0  0  0  0
 10 17  1  0  0  0  0
 11  5  1  0  0  0  0
 12  3  1  1  0  0  0
 12 19  1  0  0  0  0
 13  1  1  0  0  0  0
 14  2  2  0  0  0  0
 15 16  1  0  0  0  0
 16 22  1  6  0  0  0
 16 12  1  0  0  0  0
 17  7  2  0  0  0  0
 18  7  1  0  0  0  0
 18  3  2  0  0  0  0
 19 13  1  0  0  0  0
 20 21  2  0  0  0  0
 20 24  1  0  0  0  0
 21 23  1  0  0  0  0
 22 25  1  0  0  0  0
 23 25  2  0  0  0  0
 24 22  2  0  0  0  0
 26 20  1  0  0  0  0
 29 27  1  1  0  0  0
 29 30  1  0  0  0  0
 30 28  1  1  0  0  0
 31 34  1  0  0  0  0
 32 33  1  0  0  0  0
 32 31  1  0  0  0  0
 33 29  1  0  0  0  0
 34 30  1  0  0  0  0
M  END
>  <MODEL>
8

>  <REMARK>
 VINA RESULT:      -7.9      2.804      5.909
  Name = 
  3 active torsions:
  status: ('A' for Active; 'I' for Inactive)
    1  A    between atoms: C_3  and  C_13
    2  A    between atoms: C_3  and  N_17
    3  A    between atoms: C_12  and  C_28
                            x       y       z     vdW  Elec       q    Type
                         _______ _______ _______ _____ _____    ______ ____

>  <TORSDO>
F 3

$$$$
=
 OpenBabel10252415103D

 34 39  0  0  1  0  0  0  0  0999 V2000
  185.4330  177.8860  144.6500 C   0  0  0  0  0  0  0  0  0  0  0  0
  185.7590  179.2470  142.5770 C   0  0  0  0  0  0  0  0  0  0  0  0
  187.6160  177.6870  143.4000 C   0  0  0  0  0  0  0  0  0  0  0  0
  189.8430  177.2330  142.5120 C   0  0  1  0  0  3  0  0  0  0  0  0
  183.7890  179.5680  143.9590 C   0  0  0  0  0  3  0  0  0  0  0  0
  184.4680  179.8900  142.8580 C   0  0  0  0  0  3  0  0  0  0  0  0
  187.9320  177.4990  140.9880 N   0  0  0  0  0  0  0  0  0  0  0  0
  186.1190  177.9580  143.2970 C   0  0  1  0  0  3  0  0  0  0  0  0
  188.7110  177.4910  138.7450 N   0  0  0  0  0  2  0  0  0  0  0  0
  190.5710  177.4800  140.8580 S   0  0  0  0  0  0  0  0  0  0  0  0
  184.3400  178.6070  144.9290 C   0  0  0  0  0  3  0  0  0  0  0  0
  188.3060  177.4580  144.7350 C   0  0  1  0  0  3  0  0  0  0  0  0
  186.2060  176.9540  145.9590 S   0  0  0  0  0  0  0  0  0  0  0  0
  186.5060  179.7400  141.6910 O   0  0  0  0  0  0  0  0  0  0  0  0
  190.3500  178.1770  143.4330 O   0  0  0  0  0  0  0  0  0  0  0  0
  189.7660  177.9830  144.7220 C   0  0  2  0  0  3  0  0  0  0  0  0
  188.9180  177.4830  140.1570 C   0  0  0  0  0  0  0  0  0  0  0  0
  188.3810  177.4570  142.3300 C   0  0  0  0  0  0  0  0  0  0  0  0
  187.5880  177.9710  145.8250 O   0  0  0  0  0  0  0  0  0  0  0  0
  192.1520  175.2830  145.8910 C   0  0  0  0  0  0  0  0  0  0  0  0
  192.3350  175.6290  147.2340 C   0  0  0  0  0  3  0  0  0  0  0  0
  190.6550  177.1680  145.6080 C   0  0  0  0  0  0  0  0  0  0  0  0
  191.6800  176.7430  147.7660 C   0  0  0  0  0  3  0  0  0  0  0  0
  191.3130  176.0530  145.0800 C   0  0  0  0  0  3  0  0  0  0  0  0
  190.8410  177.5130  146.9540 C   0  0  0  0  0  3  0  0  0  0  0  0
  192.8030  174.1770  145.3640 O   0  0  0  0  0  1  0  0  0  0  0  0
  187.3790  177.5100  138.1590 C   0  0  0  0  0  2  0  0  0  0  0  0
  186.6130  174.7950  137.5790 F   0  0  0  0  0  0  0  0  0  0  0  0
  187.4120  176.8950  136.7690 C   0  0  2  0  0  3  0  0  0  0  0  0
  187.6440  175.3840  136.8690 C   0  0  2  0  0  3  0  0  0  0  0  0
  188.8600  175.3370  134.8260 C   0  0  0  0  0  2  0  0  0  0  0  0
  188.6770  176.8360  134.6040 C   0  0  0  0  0  2  0  0  0  0  0  0
  188.5370  177.5320  135.9530 C   0  0  0  0  0  2  0  0  0  0  0  0
  187.7000  174.7940  135.5320 N   0  0  0  0  0  2  0  0  0  0  0  0
  1 11  2  0  0  0  0
  1 13  1  0  0  0  0
  2  6  1  0  0  0  0
  4 10  1  6  0  0  0
  4 15  1  0  0  0  0
  5 11  1  0  0  0  0
  6  5  2  0  0  0  0
  7 18  1  0  0  0  0
  8  2  1  1  0  0  0
  8  3  1  0  0  0  0
  8  1  1  0  0  0  0
  9 17  1  0  0  0  0
 12  3  1  6  0  0  0
 12 19  1  0  0  0  0
 14  2  2  0  0  0  0
 15 16  1  0  0  0  0
 16 12  1  0  0  0  0
 16 22  1  1  0  0  0
 17 10  1  0  0  0  0
 17  7  2  0  0  0  0
 18  4  1  0  0  0  0
 18  3  2  0  0  0  0
 19 13  1  0  0  0  0
 20 21  1  0  0  0  0
 21 23  2  0  0  0  0
 22 25  2  0  0  0  0
 24 22  1  0  0  0  0
 24 20  2  0  0  0  0
 25 23  1  0  0  0  0
 26 20  1  0  0  0  0
 27  9  1  0  0  0  0
 29 30  1  0  0  0  0
 29 27  1  1  0  0  0
 30 28  1  1  0  0  0
 31 34  1  0  0  0  0
 32 31  1  0  0  0  0
 32 33  1  0  0  0  0
 33 29  1  0  0  0  0
 34 30  1  0  0  0  0
M  END
>  <MODEL>
9

>  <REMARK>
 VINA RESULT:      -7.8      3.432      5.761
  Name = 
  3 active torsions:
  status: ('A' for Active; 'I' for Inactive)
    1  A    between atoms: C_3  and  C_13
    2  A    between atoms: C_3  and  N_17
    3  A    between atoms: C_12  and  C_28
                            x       y       z     vdW  Elec       q    Type
                         _______ _______ _______ _____ _____    ______ ____

>  <TORSDO>
F 3

$$$$
