=
 OpenBabel10262423073D

 37 39  0  0  1  0  0  0  0  0999 V2000
  184.8060  179.1210  141.5840 C   0  0  0  0  0  2  0  0  0  0  0  0
  185.7100  178.1010  142.2690 C   0  0  1  0  0  3  0  0  0  0  0  0
  187.6180  177.5420  137.8050 C   0  0  1  0  0  3  0  0  0  0  0  0
  187.0740  176.2120  137.2840 C   0  0  0  0  0  2  0  0  0  0  0  0
  183.3910  176.7420  137.8740 C   0  0  2  0  0  3  0  0  0  0  0  0
  187.9740  177.2580  140.2710 C   0  0  0  0  0  2  0  0  0  0  0  0
  187.9520  177.7990  143.0910 O   0  0  0  0  0  1  0  0  0  0  0  0
  184.3320  178.9590  138.4820 C   0  0  0  0  0  1  0  0  0  0  0  0
  184.7210  175.9970  137.9920 C   0  0  0  0  0  2  0  0  0  0  0  0
  187.1550  178.5960  142.2650 C   0  0  1  0  0  3  0  0  0  0  0  0
  183.2440  177.9380  138.8440 C   0  0  2  0  0  0  0  0  0  0  0  0
  185.2770  177.9090  143.5820 O   0  0  0  0  0  1  0  0  0  0  0  0
  187.7420  178.6450  140.8540 C   0  0  0  0  0  2  0  0  0  0  0  0
  183.4470  177.4500  140.2880 C   0  0  0  0  0  2  0  0  0  0  0  0
  185.6330  176.3760  136.8460 C   0  0  0  0  0  2  0  0  0  0  0  0
  188.6600  177.3930  138.9200 C   0  0  1  0  0  3  0  0  0  0  0  0
  183.4150  178.5530  141.3430 C   0  0  0  0  0  2  0  0  0  0  0  0
  181.6510  179.2290  137.5100 O   0  0  0  0  0  0  0  0  0  0  0  0
  181.7130  179.9810  138.7000 C   0  0  2  0  0  3  0  0  0  0  0  0
  181.8050  178.4990  138.7040 C   0  0  2  0  0  3  0  0  0  0  0  0
  180.3140  180.4000  139.0960 C   0  0  0  0  0  2  0  0  0  0  0  0
  179.5260  178.9430  141.4020 O   0  0  0  0  0  0  0  0  0  0  0  0
  179.9280  180.1240  141.5680 C   0  0  0  0  0  0  0  0  0  0  0  0
  179.9680  180.6770  142.8770 N   0  0  0  0  0  1  0  0  0  0  0  0
  180.3320  180.9190  140.4530 N   0  0  0  0  0  2  0  0  0  0  0  0
  188.4390  179.5640  136.8890 O   0  0  0  0  0  0  0  0  0  0  0  0
  188.1350  178.3990  136.6860 C   0  0  0  0  0  0  0  0  0  0  0  0
  189.6160  177.9710  134.9080 O   0  0  0  0  0  0  0  0  0  0  0  0
  188.3120  177.8110  135.3240 C   0  0  0  0  0  3  0  0  0  0  0  0
  189.2220  176.7780  135.3760 O   0  0  0  0  0  0  0  0  0  0  0  0
  182.2670  175.8520  137.8800 O   0  0  0  0  0  0  0  0  0  0  0  0
  181.9770  174.9090  136.8850 C   0  0  0  0  0  0  0  0  0  0  0  0
  181.8650  173.6830  137.1520 O   0  0  0  0  0  0  0  0  0  0  0  0
  181.8220  175.3630  135.4790 C   0  0  0  0  0  1  0  0  0  0  0  0
  189.6420  176.2520  138.6770 C   0  0  0  0  0  2  0  0  0  0  0  0
  191.0450  176.7170  138.8790 C   0  0  0  0  0  3  0  0  0  0  0  0
  191.3300  177.3830  139.8590 O   0  0  0  0  0  0  0  0  0  0  0  0
  1  2  1  0  0  0  0
  2 12  1  1  0  0  0
  3 27  1  6  0  0  0
  3 16  1  0  0  0  0
  4  3  1  0  0  0  0
  5 31  1  1  0  0  0
  5  9  1  0  0  0  0
  5 11  1  0  0  0  0
  6 13  1  0  0  0  0
 10  2  1  0  0  0  0
 10  7  1  1  0  0  0
 11  8  1  6  0  0  0
 11 14  1  0  0  0  0
 13 10  1  0  0  0  0
 14 17  1  0  0  0  0
 15  4  1  0  0  0  0
 15  9  1  0  0  0  0
 16 35  1  6  0  0  0
 16  6  1  0  0  0  0
 17  1  1  0  0  0  0
 18 19  1  0  0  0  0
 19 20  1  0  0  0  0
 19 21  1  1  0  0  0
 20 18  1  6  0  0  0
 20 11  1  0  0  0  0
 21 25  1  0  0  0  0
 22 23  2  0  0  0  0
 23 24  1  0  0  0  0
 25 23  1  0  0  0  0
 27 26  2  0  0  0  0
 28 29  1  0  0  0  0
 28 30  1  0  0  0  0
 29 30  1  0  0  0  0
 29 27  1  0  0  0  0
 32 33  2  0  0  0  0
 32 31  1  0  0  0  0
 34 32  1  0  0  0  0
 35 36  1  0  0  0  0
 36 37  2  0  0  0  0
M  END
>  <MODEL>
1

>  <REMARK>
 VINA RESULT:      -5.1      0.000      0.000
  Name = 
  9 active torsions:
  status: ('A' for Active; 'I' for Inactive)
    1  A    between atoms: C_4  and  O_22
    2  A    between atoms: C_6  and  C_19
    3  A    between atoms: C_7  and  C_33
    4  A    between atoms: C_10  and  O_22
    5  A    between atoms: C_16  and  C_30
    6  A    between atoms: C_18  and  C_19
    7  A    between atoms: C_20  and  C_24
    8  A    between atoms: C_30  and  N_32
    9  A    between atoms: C_33  and  C_34
                            x       y       z     vdW  Elec       q    Type
                         _______ _______ _______ _____ _____    ______ ____

>  <TORSDO>
F 9

$$$$
=
 OpenBabel10262423073D

 37 39  0  0  1  0  0  0  0  0999 V2000
  181.1220  180.3480  138.9720 C   0  0  0  0  0  2  0  0  0  0  0  0
  180.7870  180.5730  137.5020 C   0  0  1  0  0  3  0  0  0  0  0  0
  181.4180  175.7410  137.1380 C   0  0  1  0  0  3  0  0  0  0  0  0
  182.7720  175.5490  136.4550 C   0  0  0  0  0  2  0  0  0  0  0  0
  184.9220  177.7230  138.6560 C   0  0  2  0  0  3  0  0  0  0  0  0
  180.3840  177.7870  136.1210 C   0  0  0  0  0  2  0  0  0  0  0  0
  179.0180  180.3020  135.8920 O   0  0  0  0  0  1  0  0  0  0  0  0
  182.7380  177.7970  139.8390 C   0  0  0  0  0  1  0  0  0  0  0  0
  184.3360  177.2450  137.3270 C   0  0  0  0  0  2  0  0  0  0  0  0
  179.4560  179.9080  137.1590 C   0  0  1  0  0  3  0  0  0  0  0  0
  183.9760  178.6310  139.4770 C   0  0  2  0  0  0  0  0  0  0  0  0
  180.7130  181.9440  137.2500 O   0  0  0  0  0  1  0  0  0  0  0  0
  179.5380  178.3840  137.2380 C   0  0  0  0  0  2  0  0  0  0  0  0
  183.5580  179.8380  138.6210 C   0  0  0  0  0  2  0  0  0  0  0  0
  183.8920  175.8030  137.4430 C   0  0  0  0  0  2  0  0  0  0  0  0
  180.3220  176.2700  136.2050 C   0  0  1  0  0  3  0  0  0  0  0  0
  182.5490  180.7720  139.2860 C   0  0  0  0  0  2  0  0  0  0  0  0
  185.2860  178.0760  141.4660 O   0  0  0  0  0  0  0  0  0  0  0  0
  184.1750  178.7410  142.0240 C   0  0  2  0  0  3  0  0  0  0  0  0
  184.7540  179.1420  140.7170 C   0  0  2  0  0  3  0  0  0  0  0  0
  184.6530  179.6900  143.1000 C   0  0  0  0  0  2  0  0  0  0  0  0
  186.2060  178.7560  145.2870 O   0  0  0  0  0  0  0  0  0  0  0  0
  184.9580  178.8220  145.4430 C   0  0  0  0  0  0  0  0  0  0  0  0
  184.3820  178.4290  146.6820 N   0  0  0  0  0  1  0  0  0  0  0  0
  184.1150  179.2740  144.3840 N   0  0  0  0  0  2  0  0  0  0  0  0
  181.2100  173.3940  137.3620 O   0  0  0  0  0  0  0  0  0  0  0  0
  180.9770  174.4910  137.8440 C   0  0  0  0  0  0  0  0  0  0  0  0
  178.9310  174.8100  138.9630 O   0  0  0  0  0  0  0  0  0  0  0  0
  180.2780  174.5910  139.1600 C   0  0  0  0  0  3  0  0  0  0  0  0
  179.3540  173.5760  139.2760 O   0  0  0  0  0  0  0  0  0  0  0  0
  186.2450  178.2530  138.5070 O   0  0  0  0  0  0  0  0  0  0  0  0
  187.2300  177.7420  137.6510 C   0  0  0  0  0  0  0  0  0  0  0  0
  187.7310  176.6010  137.8320 O   0  0  0  0  0  0  0  0  0  0  0  0
  187.7100  178.5760  136.5190 C   0  0  0  0  0  1  0  0  0  0  0  0
  180.3530  175.6330  134.8190 C   0  0  0  0  0  2  0  0  0  0  0  0
  179.1320  174.8070  134.5950 C   0  0  0  0  0  3  0  0  0  0  0  0
  179.2090  173.5900  134.6050 O   0  0  0  0  0  0  0  0  0  0  0  0
  1 17  1  0  0  0  0
  2 12  1  1  0  0  0
  2  1  1  0  0  0  0
  3 27  1  6  0  0  0
  4  3  1  0  0  0  0
  4 15  1  0  0  0  0
  5 31  1  6  0  0  0
  5 11  1  0  0  0  0
  6 16  1  0  0  0  0
  6 13  1  0  0  0  0
  9 15  1  0  0  0  0
  9  5  1  0  0  0  0
 10  7  1  6  0  0  0
 10 13  1  0  0  0  0
 10  2  1  0  0  0  0
 11  8  1  1  0  0  0
 11 20  1  0  0  0  0
 14 17  1  0  0  0  0
 14 11  1  0  0  0  0
 16 35  1  6  0  0  0
 16  3  1  0  0  0  0
 18 19  1  0  0  0  0
 19 21  1  1  0  0  0
 20 18  1  6  0  0  0
 20 19  1  0  0  0  0
 21 25  1  0  0  0  0
 22 23  2  0  0  0  0
 23 24  1  0  0  0  0
 25 23  1  0  0  0  0
 26 27  2  0  0  0  0
 27 29  1  0  0  0  0
 28 29  1  0  0  0  0
 28 30  1  0  0  0  0
 29 30  1  0  0  0  0
 32 33  2  0  0  0  0
 32 31  1  0  0  0  0
 34 32  1  0  0  0  0
 36 37  2  0  0  0  0
 36 35  1  0  0  0  0
M  END
>  <MODEL>
2

>  <REMARK>
 VINA RESULT:      -5.0      2.570      7.519
  Name = 
  9 active torsions:
  status: ('A' for Active; 'I' for Inactive)
    1  A    between atoms: C_4  and  O_22
    2  A    between atoms: C_6  and  C_19
    3  A    between atoms: C_7  and  C_33
    4  A    between atoms: C_10  and  O_22
    5  A    between atoms: C_16  and  C_30
    6  A    between atoms: C_18  and  C_19
    7  A    between atoms: C_20  and  C_24
    8  A    between atoms: C_30  and  N_32
    9  A    between atoms: C_33  and  C_34
                            x       y       z     vdW  Elec       q    Type
                         _______ _______ _______ _____ _____    ______ ____

>  <TORSDO>
F 9

$$$$
=
 OpenBabel10262423073D

 37 39  0  0  1  0  0  0  0  0999 V2000
  185.3190  179.1510  141.5590 C   0  0  0  0  0  2  0  0  0  0  0  0
  186.2070  178.1020  142.2210 C   0  0  1  0  0  3  0  0  0  0  0  0
  187.9140  177.4160  137.6940 C   0  0  1  0  0  3  0  0  0  0  0  0
  187.2960  176.1040  137.2120 C   0  0  0  0  0  2  0  0  0  0  0  0
  183.6630  176.7940  137.9350 C   0  0  2  0  0  3  0  0  0  0  0  0
  188.3540  177.1430  140.1480 C   0  0  0  0  0  2  0  0  0  0  0  0
  188.4640  177.7160  142.9600 O   0  0  0  0  0  1  0  0  0  0  0  0
  184.7180  178.9760  138.4800 C   0  0  0  0  0  1  0  0  0  0  0  0
  184.9650  175.9940  138.0120 C   0  0  0  0  0  2  0  0  0  0  0  0
  187.6690  178.5360  142.1550 C   0  0  1  0  0  3  0  0  0  0  0  0
  183.6040  178.0050  138.8960 C   0  0  2  0  0  0  0  0  0  0  0  0
  185.8180  177.9430  143.5520 O   0  0  0  0  0  1  0  0  0  0  0  0
  188.2020  178.5450  140.7220 C   0  0  0  0  0  2  0  0  0  0  0  0
  183.8430  177.5250  140.3370 C   0  0  0  0  0  2  0  0  0  0  0  0
  185.8460  176.3230  136.8270 C   0  0  0  0  0  2  0  0  0  0  0  0
  188.9910  177.2360  138.7700 C   0  0  1  0  0  3  0  0  0  0  0  0
  183.8970  178.6400  141.3790 C   0  0  0  0  0  2  0  0  0  0  0  0
  181.8610  178.9740  137.4800 O   0  0  0  0  0  0  0  0  0  0  0  0
  182.1520  180.0390  138.3560 C   0  0  2  0  0  3  0  0  0  0  0  0
  182.1850  178.6240  138.8040 C   0  0  2  0  0  3  0  0  0  0  0  0
  180.8570  180.6800  138.8060 C   0  0  0  0  0  2  0  0  0  0  0  0
  180.3490  182.0200  136.3540 O   0  0  0  0  0  0  0  0  0  0  0  0
  180.6600  182.7240  137.3510 C   0  0  0  0  0  0  0  0  0  0  0  0
  180.7500  184.1370  137.2140 N   0  0  0  0  0  1  0  0  0  0  0  0
  180.9380  182.1180  138.6120 N   0  0  0  0  0  2  0  0  0  0  0  0
  188.8630  179.3610  136.7360 O   0  0  0  0  0  0  0  0  0  0  0  0
  188.4220  178.2380  136.5460 C   0  0  0  0  0  0  0  0  0  0  0  0
  189.6660  177.8120  134.5940 O   0  0  0  0  0  0  0  0  0  0  0  0
  188.4210  177.6640  135.1660 C   0  0  0  0  0  3  0  0  0  0  0  0
  189.3160  176.6190  135.0950 O   0  0  0  0  0  0  0  0  0  0  0  0
  182.5050  175.9520  137.9960 O   0  0  0  0  0  0  0  0  0  0  0  0
  182.0800  175.0870  136.9790 C   0  0  0  0  0  0  0  0  0  0  0  0
  182.2450  173.8410  137.0620 O   0  0  0  0  0  0  0  0  0  0  0  0
  181.4410  175.6550  135.7640 C   0  0  0  0  0  1  0  0  0  0  0  0
  189.9150  176.0520  138.5030 C   0  0  0  0  0  2  0  0  0  0  0  0
  191.3180  176.5180  138.2990 C   0  0  0  0  0  3  0  0  0  0  0  0
  191.8430  176.4070  137.2050 O   0  0  0  0  0  0  0  0  0  0  0  0
  1  2  1  0  0  0  0
  2 12  1  1  0  0  0
  3 27  1  6  0  0  0
  3 16  1  0  0  0  0
  4  3  1  0  0  0  0
  5 31  1  1  0  0  0
  5  9  1  0  0  0  0
  5 11  1  0  0  0  0
  6 13  1  0  0  0  0
 10  2  1  0  0  0  0
 10  7  1  1  0  0  0
 11  8  1  6  0  0  0
 11 14  1  0  0  0  0
 13 10  1  0  0  0  0
 14 17  1  0  0  0  0
 15  4  1  0  0  0  0
 15  9  1  0  0  0  0
 16 35  1  6  0  0  0
 16  6  1  0  0  0  0
 17  1  1  0  0  0  0
 18 19  1  0  0  0  0
 19 20  1  0  0  0  0
 19 21  1  1  0  0  0
 20 18  1  6  0  0  0
 20 11  1  0  0  0  0
 22 23  2  0  0  0  0
 23 25  1  0  0  0  0
 24 23  1  0  0  0  0
 25 21  1  0  0  0  0
 27 26  2  0  0  0  0
 28 30  1  0  0  0  0
 28 29  1  0  0  0  0
 29 27  1  0  0  0  0
 30 29  1  0  0  0  0
 32 33  2  0  0  0  0
 32 31  1  0  0  0  0
 34 32  1  0  0  0  0
 36 35  1  0  0  0  0
 37 36  2  0  0  0  0
M  END
>  <MODEL>
3

>  <REMARK>
 VINA RESULT:      -4.9      1.378      1.836
  Name = 
  9 active torsions:
  status: ('A' for Active; 'I' for Inactive)
    1  A    between atoms: C_4  and  O_22
    2  A    between atoms: C_6  and  C_19
    3  A    between atoms: C_7  and  C_33
    4  A    between atoms: C_10  and  O_22
    5  A    between atoms: C_16  and  C_30
    6  A    between atoms: C_18  and  C_19
    7  A    between atoms: C_20  and  C_24
    8  A    between atoms: C_30  and  N_32
    9  A    between atoms: C_33  and  C_34
                            x       y       z     vdW  Elec       q    Type
                         _______ _______ _______ _____ _____    ______ ____

>  <TORSDO>
F 9

$$$$
=
 OpenBabel10262423073D

 37 39  0  0  1  0  0  0  0  0999 V2000
  183.0900  174.7550  135.9850 C   0  0  0  0  0  2  0  0  0  0  0  0
  182.3770  174.1960  137.2100 C   0  0  1  0  0  3  0  0  0  0  0  0
  181.8320  178.8990  138.4190 C   0  0  1  0  0  3  0  0  0  0  0  0
  182.8390  179.1590  139.5390 C   0  0  0  0  0  2  0  0  0  0  0  0
  185.9680  177.8210  137.9220 C   0  0  2  0  0  3  0  0  0  0  0  0
  180.9920  176.5570  138.7380 C   0  0  0  0  0  2  0  0  0  0  0  0
  180.1840  173.8660  138.1470 O   0  0  0  0  0  1  0  0  0  0  0  0
  184.3190  177.6460  136.0720 C   0  0  0  0  0  1  0  0  0  0  0  0
  184.9160  177.9310  139.0270 C   0  0  0  0  0  2  0  0  0  0  0  0
  180.8960  174.5660  137.1690 C   0  0  1  0  0  3  0  0  0  0  0  0
  185.5330  176.9580  136.7140 C   0  0  2  0  0  0  0  0  0  0  0  0
  182.5190  172.8070  137.2330 O   0  0  0  0  0  1  0  0  0  0  0  0
  180.6750  176.0700  137.3310 C   0  0  0  0  0  2  0  0  0  0  0  0
  185.1370  175.5560  137.2050 C   0  0  0  0  0  2  0  0  0  0  0  0
  184.2360  179.2810  138.9640 C   0  0  0  0  0  2  0  0  0  0  0  0
  180.6400  178.0330  138.8450 C   0  0  1  0  0  3  0  0  0  0  0  0
  184.6010  174.6280  136.1180 C   0  0  0  0  0  2  0  0  0  0  0  0
  186.4040  176.1060  134.5940 O   0  0  0  0  0  0  0  0  0  0  0  0
  187.2160  175.4390  135.5330 C   0  0  2  0  0  3  0  0  0  0  0  0
  186.7430  176.8290  135.7530 C   0  0  2  0  0  3  0  0  0  0  0  0
  188.6520  175.4650  135.0560 C   0  0  0  0  0  2  0  0  0  0  0  0
  190.3650  176.6220  137.0030 O   0  0  0  0  0  0  0  0  0  0  0  0
  190.3140  175.3650  136.9440 C   0  0  0  0  0  0  0  0  0  0  0  0
  191.1040  174.5860  137.8320 N   0  0  0  0  0  1  0  0  0  0  0  0
  189.4820  174.7150  135.9840 N   0  0  0  0  0  2  0  0  0  0  0  0
  181.0900  180.2130  136.5960 O   0  0  0  0  0  0  0  0  0  0  0  0
  181.3760  180.1790  137.7830 C   0  0  0  0  0  0  0  0  0  0  0  0
  182.2810  182.2750  138.3540 O   0  0  0  0  0  0  0  0  0  0  0  0
  181.2380  181.4120  138.6150 C   0  0  0  0  0  3  0  0  0  0  0  0
  181.0830  182.5110  137.7990 O   0  0  0  0  0  0  0  0  0  0  0  0
  187.2620  177.4830  138.4360 O   0  0  0  0  0  0  0  0  0  0  0  0
  188.1290  178.3680  139.0920 C   0  0  0  0  0  0  0  0  0  0  0  0
  188.8190  179.2070  138.4540 O   0  0  0  0  0  0  0  0  0  0  0  0
  188.2530  178.2990  140.5700 C   0  0  0  0  0  1  0  0  0  0  0  0
  180.1100  178.3800  140.2330 C   0  0  0  0  0  2  0  0  0  0  0  0
  179.5260  177.1740  140.8870 C   0  0  0  0  0  3  0  0  0  0  0  0
  179.3080  177.1770  142.0860 O   0  0  0  0  0  0  0  0  0  0  0  0
  1 17  1  0  0  0  0
  1  2  1  0  0  0  0
  2 12  1  6  0  0  0
  3 27  1  1  0  0  0
  3 16  1  0  0  0  0
  3  4  1  0  0  0  0
  5 31  1  1  0  0  0
  5  9  1  0  0  0  0
  6 16  1  0  0  0  0
 10  2  1  0  0  0  0
 10 13  1  0  0  0  0
 10  7  1  1  0  0  0
 11  8  1  6  0  0  0
 11 14  1  0  0  0  0
 11  5  1  0  0  0  0
 13  6  1  0  0  0  0
 15  9  1  0  0  0  0
 15  4  1  0  0  0  0
 16 35  1  1  0  0  0
 17 14  1  0  0  0  0
 18 19  1  0  0  0  0
 19 21  1  6  0  0  0
 19 20  1  0  0  0  0
 20 18  1  6  0  0  0
 20 11  1  0  0  0  0
 21 25  1  0  0  0  0
 23 22  2  0  0  0  0
 23 24  1  0  0  0  0
 25 23  1  0  0  0  0
 26 27  2  0  0  0  0
 27 29  1  0  0  0  0
 28 29  1  0  0  0  0
 30 28  1  0  0  0  0
 30 29  1  0  0  0  0
 31 32  1  0  0  0  0
 32 34  1  0  0  0  0
 33 32  2  0  0  0  0
 35 36  1  0  0  0  0
 36 37  2  0  0  0  0
M  END
>  <MODEL>
4

>  <REMARK>
 VINA RESULT:      -4.5      3.614      8.352
  Name = 
  9 active torsions:
  status: ('A' for Active; 'I' for Inactive)
    1  A    between atoms: C_4  and  O_22
    2  A    between atoms: C_6  and  C_19
    3  A    between atoms: C_7  and  C_33
    4  A    between atoms: C_10  and  O_22
    5  A    between atoms: C_16  and  C_30
    6  A    between atoms: C_18  and  C_19
    7  A    between atoms: C_20  and  C_24
    8  A    between atoms: C_30  and  N_32
    9  A    between atoms: C_33  and  C_34
                            x       y       z     vdW  Elec       q    Type
                         _______ _______ _______ _____ _____    ______ ____

>  <TORSDO>
F 9

$$$$
=
 OpenBabel10262423073D

 37 39  0  0  1  0  0  0  0  0999 V2000
  185.0540  174.3910  136.1300 C   0  0  0  0  0  2  0  0  0  0  0  0
  184.1500  173.5940  137.0640 C   0  0  1  0  0  3  0  0  0  0  0  0
  181.4440  177.6620  137.1040 C   0  0  1  0  0  3  0  0  0  0  0  0
  181.7010  178.3190  138.4600 C   0  0  0  0  0  2  0  0  0  0  0  0
  185.4690  178.3790  138.4450 C   0  0  2  0  0  3  0  0  0  0  0  0
  181.4820  175.1840  137.4880 C   0  0  0  0  0  2  0  0  0  0  0  0
  182.0630  172.3960  137.1230 O   0  0  0  0  0  1  0  0  0  0  0  0
  184.9600  177.5320  136.1650 C   0  0  0  0  0  1  0  0  0  0  0  0
  184.0900  178.0510  139.0180 C   0  0  0  0  0  2  0  0  0  0  0  0
  182.8080  173.3220  136.3880 C   0  0  1  0  0  3  0  0  0  0  0  0
  185.9430  177.4070  137.3380 C   0  0  2  0  0  0  0  0  0  0  0  0
  184.7720  172.3870  137.3880 O   0  0  0  0  0  1  0  0  0  0  0  0
  181.9990  174.6020  136.1790 C   0  0  0  0  0  2  0  0  0  0  0  0
  185.9270  175.9690  137.8810 C   0  0  0  0  0  2  0  0  0  0  0  0
  183.0550  179.0020  138.4570 C   0  0  0  0  0  2  0  0  0  0  0  0
  180.5990  176.3850  137.1840 C   0  0  1  0  0  3  0  0  0  0  0  0
  186.2910  174.8970  136.8570 C   0  0  0  0  0  2  0  0  0  0  0  0
  187.4500  178.4880  135.7420 O   0  0  0  0  0  0  0  0  0  0  0  0
  187.9000  177.1520  135.7120 C   0  0  2  0  0  3  0  0  0  0  0  0
  187.4000  177.7820  136.9590 C   0  0  2  0  0  3  0  0  0  0  0  0
  189.4130  177.1380  135.7250 C   0  0  0  0  0  2  0  0  0  0  0  0
  190.3710  176.2910  138.2610 O   0  0  0  0  0  0  0  0  0  0  0  0
  190.3400  175.4390  137.3350 C   0  0  0  0  0  0  0  0  0  0  0  0
  190.7820  174.1110  137.5840 N   0  0  0  0  0  1  0  0  0  0  0  0
  189.8790  175.7960  136.0320 N   0  0  0  0  0  2  0  0  0  0  0  0
  181.0120  178.4710  134.9210 O   0  0  0  0  0  0  0  0  0  0  0  0
  180.8640  178.6380  136.1220 C   0  0  0  0  0  0  0  0  0  0  0  0
  180.7960  180.9670  136.4590 O   0  0  0  0  0  0  0  0  0  0  0  0
  180.0720  179.8040  136.6170 C   0  0  0  0  0  3  0  0  0  0  0  0
  179.8270  180.6760  135.5790 O   0  0  0  0  0  0  0  0  0  0  0  0
  186.4440  178.6060  139.4700 O   0  0  0  0  0  0  0  0  0  0  0  0
  186.1550  178.9070  140.8080 C   0  0  0  0  0  0  0  0  0  0  0  0
  185.2630  179.7420  141.1170 O   0  0  0  0  0  0  0  0  0  0  0  0
  186.9350  178.2450  141.8850 C   0  0  0  0  0  1  0  0  0  0  0  0
  179.4420  176.4900  138.1720 C   0  0  0  0  0  2  0  0  0  0  0  0
  179.5290  175.4100  139.1970 C   0  0  0  0  0  3  0  0  0  0  0  0
  179.3540  175.6710  140.3750 O   0  0  0  0  0  0  0  0  0  0  0  0
  1 17  1  0  0  0  0
  1  2  1  0  0  0  0
  2 12  1  6  0  0  0
  3 27  1  6  0  0  0
  3 16  1  0  0  0  0
  3  4  1  0  0  0  0
  5  9  1  0  0  0  0
  5 31  1  1  0  0  0
 10  2  1  0  0  0  0
 10  7  1  1  0  0  0
 11  8  1  6  0  0  0
 11 14  1  0  0  0  0
 11  5  1  0  0  0  0
 13 10  1  0  0  0  0
 13  6  1  0  0  0  0
 15  4  1  0  0  0  0
 15  9  1  0  0  0  0
 16  6  1  0  0  0  0
 16 35  1  1  0  0  0
 17 14  1  0  0  0  0
 19 21  1  1  0  0  0
 19 18  1  0  0  0  0
 19 20  1  0  0  0  0
 20 18  1  6  0  0  0
 20 11  1  0  0  0  0
 21 25  1  0  0  0  0
 23 24  1  0  0  0  0
 23 22  2  0  0  0  0
 25 23  1  0  0  0  0
 26 27  2  0  0  0  0
 27 29  1  0  0  0  0
 28 29  1  0  0  0  0
 30 28  1  0  0  0  0
 30 29  1  0  0  0  0
 31 32  1  0  0  0  0
 32 33  2  0  0  0  0
 32 34  1  0  0  0  0
 35 36  1  0  0  0  0
 36 37  2  0  0  0  0
M  END
>  <MODEL>
5

>  <REMARK>
 VINA RESULT:      -4.4      3.506      8.291
  Name = 
  9 active torsions:
  status: ('A' for Active; 'I' for Inactive)
    1  A    between atoms: C_4  and  O_22
    2  A    between atoms: C_6  and  C_19
    3  A    between atoms: C_7  and  C_33
    4  A    between atoms: C_10  and  O_22
    5  A    between atoms: C_16  and  C_30
    6  A    between atoms: C_18  and  C_19
    7  A    between atoms: C_20  and  C_24
    8  A    between atoms: C_30  and  N_32
    9  A    between atoms: C_33  and  C_34
                            x       y       z     vdW  Elec       q    Type
                         _______ _______ _______ _____ _____    ______ ____

>  <TORSDO>
F 9

$$$$
=
 OpenBabel10262423073D

 37 39  0  0  1  0  0  0  0  0999 V2000
  184.5990  172.5110  137.0440 C   0  0  0  0  0  2  0  0  0  0  0  0
  185.4610  172.0050  135.8930 C   0  0  1  0  0  3  0  0  0  0  0  0
  187.5120  176.4330  136.1440 C   0  0  1  0  0  3  0  0  0  0  0  0
  186.9640  177.2130  134.9490 C   0  0  0  0  0  2  0  0  0  0  0  0
  183.2720  176.6480  135.4450 C   0  0  2  0  0  3  0  0  0  0  0  0
  187.7780  174.0560  135.3890 C   0  0  0  0  0  2  0  0  0  0  0  0
  187.6670  171.1870  135.3880 O   0  0  0  0  0  1  0  0  0  0  0  0
  184.2300  175.6000  137.4840 C   0  0  0  0  0  1  0  0  0  0  0  0
  184.5840  176.6320  134.6590 C   0  0  0  0  0  2  0  0  0  0  0  0
  186.9130  171.8710  136.3440 C   0  0  1  0  0  3  0  0  0  0  0  0
  183.1120  175.4730  136.4380 C   0  0  2  0  0  0  0  0  0  0  0  0
  184.9790  170.7660  135.4660 O   0  0  0  0  0  1  0  0  0  0  0  0
  187.5490  173.2270  136.6460 C   0  0  0  0  0  2  0  0  0  0  0  0
  183.2570  174.1420  135.6810 C   0  0  0  0  0  2  0  0  0  0  0  0
  185.5420  177.6570  135.2270 C   0  0  0  0  0  2  0  0  0  0  0  0
  188.5120  175.3340  135.7620 C   0  0  1  0  0  3  0  0  0  0  0  0
  183.2070  172.8980  136.5650 C   0  0  0  0  0  2  0  0  0  0  0  0
  181.5010  176.7430  137.7700 O   0  0  0  0  0  0  0  0  0  0  0  0
  181.6500  175.5670  138.5330 C   0  0  2  0  0  3  0  0  0  0  0  0
  181.6890  175.5480  137.0500 C   0  0  2  0  0  3  0  0  0  0  0  0
  180.2880  175.1070  139.0080 C   0  0  0  0  0  2  0  0  0  0  0  0
  178.9310  177.5410  139.5560 O   0  0  0  0  0  0  0  0  0  0  0  0
  179.3390  176.8660  140.5380 C   0  0  0  0  0  0  0  0  0  0  0  0
  179.1150  177.3400  141.8600 N   0  0  0  0  0  1  0  0  0  0  0  0
  180.0370  175.6370  140.3370 N   0  0  0  0  0  2  0  0  0  0  0  0
  188.0440  177.0480  138.3670 O   0  0  0  0  0  0  0  0  0  0  0  0
  188.0830  177.3520  137.1840 C   0  0  0  0  0  0  0  0  0  0  0  0
  187.9480  179.7010  137.1380 O   0  0  0  0  0  0  0  0  0  0  0  0
  188.7330  178.6310  136.7670 C   0  0  0  0  0  3  0  0  0  0  0  0
  189.0230  179.3910  137.8780 O   0  0  0  0  0  0  0  0  0  0  0  0
  182.1340  176.8450  134.5970 O   0  0  0  0  0  0  0  0  0  0  0  0
  181.1370  177.8110  134.7920 C   0  0  0  0  0  0  0  0  0  0  0  0
  179.9160  177.5020  134.8160 O   0  0  0  0  0  0  0  0  0  0  0  0
  181.5300  179.2350  134.9490 C   0  0  0  0  0  1  0  0  0  0  0  0
  189.4820  175.7600  134.6640 C   0  0  0  0  0  2  0  0  0  0  0  0
  190.7300  174.9450  134.7240 C   0  0  0  0  0  3  0  0  0  0  0  0
  191.3190  174.8100  135.7830 O   0  0  0  0  0  0  0  0  0  0  0  0
  2 12  1  1  0  0  0
  2 10  1  0  0  0  0
  2  1  1  0  0  0  0
  3 27  1  1  0  0  0
  4 15  1  0  0  0  0
  4  3  1  0  0  0  0
  5 31  1  6  0  0  0
  5 11  1  0  0  0  0
  6 16  1  0  0  0  0
  6 13  1  0  0  0  0
  9 15  1  0  0  0  0
  9  5  1  0  0  0  0
 10  7  1  6  0  0  0
 10 13  1  0  0  0  0
 11 20  1  0  0  0  0
 11  8  1  1  0  0  0
 14 11  1  0  0  0  0
 14 17  1  0  0  0  0
 16 35  1  6  0  0  0
 16  3  1  0  0  0  0
 17  1  1  0  0  0  0
 18 19  1  0  0  0  0
 19 21  1  6  0  0  0
 20 18  1  6  0  0  0
 20 19  1  0  0  0  0
 21 25  1  0  0  0  0
 22 23  2  0  0  0  0
 23 24  1  0  0  0  0
 25 23  1  0  0  0  0
 27 26  2  0  0  0  0
 28 30  1  0  0  0  0
 29 28  1  0  0  0  0
 29 27  1  0  0  0  0
 29 30  1  0  0  0  0
 31 32  1  0  0  0  0
 32 33  2  0  0  0  0
 32 34  1  0  0  0  0
 35 36  1  0  0  0  0
 36 37  2  0  0  0  0
M  END
>  <MODEL>
6

>  <REMARK>
 VINA RESULT:      -4.4      3.262      5.112
  Name = 
  9 active torsions:
  status: ('A' for Active; 'I' for Inactive)
    1  A    between atoms: C_4  and  O_22
    2  A    between atoms: C_6  and  C_19
    3  A    between atoms: C_7  and  C_33
    4  A    between atoms: C_10  and  O_22
    5  A    between atoms: C_16  and  C_30
    6  A    between atoms: C_18  and  C_19
    7  A    between atoms: C_20  and  C_24
    8  A    between atoms: C_30  and  N_32
    9  A    between atoms: C_33  and  C_34
                            x       y       z     vdW  Elec       q    Type
                         _______ _______ _______ _____ _____    ______ ____

>  <TORSDO>
F 9

$$$$
=
 OpenBabel10262423073D

 37 39  0  0  1  0  0  0  0  0999 V2000
  189.3300  177.6130  139.0960 C   0  0  0  0  0  2  0  0  0  0  0  0
  188.7280  176.3790  138.4320 C   0  0  1  0  0  3  0  0  0  0  0  0
  184.4690  178.6170  139.2810 C   0  0  1  0  0  3  0  0  0  0  0  0
  183.8380  177.8780  140.4610 C   0  0  0  0  0  2  0  0  0  0  0  0
  186.7110  177.9770  142.8960 C   0  0  2  0  0  3  0  0  0  0  0  0
  185.6790  176.8950  137.9170 C   0  0  0  0  0  2  0  0  0  0  0  0
  187.7380  175.6200  136.3740 O   0  0  0  0  0  1  0  0  0  0  0  0
  187.5760  179.3650  141.0260 C   0  0  0  0  0  1  0  0  0  0  0  0
  185.6210  177.2990  142.0650 C   0  0  0  0  0  2  0  0  0  0  0  0
  188.0790  176.7610  137.1050 C   0  0  1  0  0  3  0  0  0  0  0  0
  187.9840  178.3430  142.0970 C   0  0  2  0  0  0  0  0  0  0  0  0
  189.7340  175.4350  138.2150 O   0  0  0  0  0  1  0  0  0  0  0  0
  186.8500  177.6490  137.3010 C   0  0  0  0  0  2  0  0  0  0  0  0
  188.5440  177.0790  141.4230 C   0  0  0  0  0  2  0  0  0  0  0  0
  184.5180  178.2870  141.7520 C   0  0  0  0  0  2  0  0  0  0  0  0
  184.4690  177.8140  137.9740 C   0  0  1  0  0  3  0  0  0  0  0  0
  189.7570  177.3190  140.5270 C   0  0  0  0  0  2  0  0  0  0  0  0
  190.3500  178.6270  142.6500 O   0  0  0  0  0  0  0  0  0  0  0  0
  189.8880  177.8490  143.7310 C   0  0  2  0  0  3  0  0  0  0  0  0
  189.0400  178.8880  143.0930 C   0  0  2  0  0  3  0  0  0  0  0  0
  190.4690  178.3930  145.0170 C   0  0  0  0  0  2  0  0  0  0  0  0
  190.3270  176.8090  147.3700 O   0  0  0  0  0  0  0  0  0  0  0  0
  191.3750  176.7290  146.6760 C   0  0  0  0  0  0  0  0  0  0  0  0
  192.4300  175.8710  147.0880 N   0  0  0  0  0  1  0  0  0  0  0  0
  191.5190  177.5040  145.4850 N   0  0  0  0  0  2  0  0  0  0  0  0
  184.5310  180.9160  138.7190 O   0  0  0  0  0  0  0  0  0  0  0  0
  183.8500  179.9710  139.0880 C   0  0  0  0  0  0  0  0  0  0  0  0
  181.9590  181.3230  138.7190 O   0  0  0  0  0  0  0  0  0  0  0  0
  182.3850  180.1560  139.3170 C   0  0  0  0  0  3  0  0  0  0  0  0
  181.7210  180.1510  138.1100 O   0  0  0  0  0  0  0  0  0  0  0  0
  186.9780  177.2750  144.1170 O   0  0  0  0  0  0  0  0  0  0  0  0
  186.6140  177.7120  145.3980 C   0  0  0  0  0  0  0  0  0  0  0  0
  187.3070  177.4310  146.4110 O   0  0  0  0  0  0  0  0  0  0  0  0
  185.3690  178.5040  145.5660 C   0  0  0  0  0  1  0  0  0  0  0  0
  183.1730  177.0440  137.7410 C   0  0  0  0  0  2  0  0  0  0  0  0
  182.6720  177.2700  136.3550 C   0  0  0  0  0  3  0  0  0  0  0  0
  183.3390  176.9110  135.4000 O   0  0  0  0  0  0  0  0  0  0  0  0
  1 17  1  0  0  0  0
  2 12  1  6  0  0  0
  2  1  1  0  0  0  0
  3 27  1  6  0  0  0
  3  4  1  0  0  0  0
  4 15  1  0  0  0  0
  5 31  1  1  0  0  0
  6 16  1  0  0  0  0
  9  5  1  0  0  0  0
 10  7  1  1  0  0  0
 10 13  1  0  0  0  0
 10  2  1  0  0  0  0
 11  8  1  6  0  0  0
 11  5  1  0  0  0  0
 11 20  1  0  0  0  0
 13  6  1  0  0  0  0
 14 11  1  0  0  0  0
 15  9  1  0  0  0  0
 16 35  1  1  0  0  0
 16  3  1  0  0  0  0
 17 14  1  0  0  0  0
 18 19  1  0  0  0  0
 19 21  1  1  0  0  0
 20 18  1  6  0  0  0
 20 19  1  0  0  0  0
 21 25  1  0  0  0  0
 23 24  1  0  0  0  0
 23 22  2  0  0  0  0
 25 23  1  0  0  0  0
 26 27  2  0  0  0  0
 27 29  1  0  0  0  0
 28 29  1  0  0  0  0
 30 28  1  0  0  0  0
 30 29  1  0  0  0  0
 31 32  1  0  0  0  0
 32 34  1  0  0  0  0
 32 33  2  0  0  0  0
 36 35  1  0  0  0  0
 37 36  2  0  0  0  0
M  END
>  <MODEL>
7

>  <REMARK>
 VINA RESULT:      -3.9      3.861      8.155
  Name = 
  9 active torsions:
  status: ('A' for Active; 'I' for Inactive)
    1  A    between atoms: C_4  and  O_22
    2  A    between atoms: C_6  and  C_19
    3  A    between atoms: C_7  and  C_33
    4  A    between atoms: C_10  and  O_22
    5  A    between atoms: C_16  and  C_30
    6  A    between atoms: C_18  and  C_19
    7  A    between atoms: C_20  and  C_24
    8  A    between atoms: C_30  and  N_32
    9  A    between atoms: C_33  and  C_34
                            x       y       z     vdW  Elec       q    Type
                         _______ _______ _______ _____ _____    ______ ____

>  <TORSDO>
F 9

$$$$
=
 OpenBabel10262423073D

 37 39  0  0  1  0  0  0  0  0999 V2000
  182.0820  173.2850  137.7890 C   0  0  0  0  0  2  0  0  0  0  0  0
  182.6170  172.3690  136.6930 C   0  0  1  0  0  3  0  0  0  0  0  0
  185.9370  175.8970  136.0600 C   0  0  1  0  0  3  0  0  0  0  0  0
  185.5270  176.6300  134.7830 C   0  0  0  0  0  2  0  0  0  0  0  0
  181.9160  177.3510  135.5820 C   0  0  2  0  0  3  0  0  0  0  0  0
  185.3800  173.4770  135.7100 C   0  0  0  0  0  2  0  0  0  0  0  0
  184.3990  170.8250  136.2080 O   0  0  0  0  0  1  0  0  0  0  0  0
  182.7250  176.3590  137.7120 C   0  0  0  0  0  1  0  0  0  0  0  0
  183.0660  176.8040  134.7360 C   0  0  0  0  0  2  0  0  0  0  0  0
  183.9990  171.8450  137.0760 C   0  0  1  0  0  3  0  0  0  0  0  0
  181.5150  176.4450  136.7710 C   0  0  2  0  0  0  0  0  0  0  0  0
  181.7360  171.3010  136.5140 O   0  0  0  0  0  1  0  0  0  0  0  0
  185.0480  172.9560  137.1020 C   0  0  0  0  0  2  0  0  0  0  0  0
  181.1620  175.0430  136.2460 C   0  0  0  0  0  2  0  0  0  0  0  0
  184.3480  177.5400  135.0630 C   0  0  0  0  0  2  0  0  0  0  0  0
  186.5060  174.4940  135.8150 C   0  0  1  0  0  3  0  0  0  0  0  0
  180.8320  174.0220  137.3320 C   0  0  0  0  0  2  0  0  0  0  0  0
  180.5610  178.2730  138.0860 O   0  0  0  0  0  0  0  0  0  0  0  0
  180.3300  177.1600  138.9210 C   0  0  2  0  0  3  0  0  0  0  0  0
  180.2590  177.0590  137.4420 C   0  0  2  0  0  3  0  0  0  0  0  0
  178.9310  177.2470  139.4890 C   0  0  0  0  0  2  0  0  0  0  0  0
  179.4530  179.4710  141.1770 O   0  0  0  0  0  0  0  0  0  0  0  0
  179.2550  178.3550  141.7260 C   0  0  0  0  0  0  0  0  0  0  0  0
  179.3040  178.2490  143.1430 N   0  0  0  0  0  1  0  0  0  0  0  0
  178.9960  177.1920  140.9390 N   0  0  0  0  0  2  0  0  0  0  0  0
  187.6520  176.1920  137.6650 O   0  0  0  0  0  0  0  0  0  0  0  0
  186.8720  176.7260  136.8920 C   0  0  0  0  0  0  0  0  0  0  0  0
  186.3760  178.7970  137.8940 O   0  0  0  0  0  0  0  0  0  0  0  0
  186.8710  178.2130  136.7480 C   0  0  0  0  0  3  0  0  0  0  0  0
  187.7020  178.7740  137.6930 O   0  0  0  0  0  0  0  0  0  0  0  0
  180.8070  177.7770  134.7800 O   0  0  0  0  0  0  0  0  0  0  0  0
  180.2800  179.0750  134.7530 C   0  0  0  0  0  0  0  0  0  0  0  0
  179.0480  179.2820  134.5940 O   0  0  0  0  0  0  0  0  0  0  0  0
  181.2000  180.2330  134.8910 C   0  0  0  0  0  1  0  0  0  0  0  0
  187.4340  174.4240  134.6060 C   0  0  0  0  0  2  0  0  0  0  0  0
  188.7120  173.7450  134.9660 C   0  0  0  0  0  3  0  0  0  0  0  0
  188.8560  173.2690  136.0790 O   0  0  0  0  0  0  0  0  0  0  0  0
  2 12  1  1  0  0  0
  2 10  1  0  0  0  0
  2  1  1  0  0  0  0
  3 27  1  6  0  0  0
  4 15  1  0  0  0  0
  4  3  1  0  0  0  0
  5 31  1  6  0  0  0
  5 11  1  0  0  0  0
  6 16  1  0  0  0  0
  6 13  1  0  0  0  0
  9 15  1  0  0  0  0
  9  5  1  0  0  0  0
 10  7  1  6  0  0  0
 10 13  1  0  0  0  0
 11 20  1  0  0  0  0
 11  8  1  1  0  0  0
 14 11  1  0  0  0  0
 14 17  1  0  0  0  0
 16 35  1  6  0  0  0
 16  3  1  0  0  0  0
 17  1  1  0  0  0  0
 18 19  1  0  0  0  0
 19 21  1  1  0  0  0
 20 18  1  6  0  0  0
 20 19  1  0  0  0  0
 21 25  1  0  0  0  0
 22 23  2  0  0  0  0
 23 24  1  0  0  0  0
 25 23  1  0  0  0  0
 27 26  2  0  0  0  0
 29 27  1  0  0  0  0
 29 30  1  0  0  0  0
 29 28  1  0  0  0  0
 30 28  1  0  0  0  0
 32 31  1  0  0  0  0
 32 34  1  0  0  0  0
 33 32  2  0  0  0  0
 35 36  1  0  0  0  0
 36 37  2  0  0  0  0
M  END
>  <MODEL>
8

>  <REMARK>
 VINA RESULT:      -3.8      3.247      5.179
  Name = 
  9 active torsions:
  status: ('A' for Active; 'I' for Inactive)
    1  A    between atoms: C_4  and  O_22
    2  A    between atoms: C_6  and  C_19
    3  A    between atoms: C_7  and  C_33
    4  A    between atoms: C_10  and  O_22
    5  A    between atoms: C_16  and  C_30
    6  A    between atoms: C_18  and  C_19
    7  A    between atoms: C_20  and  C_24
    8  A    between atoms: C_30  and  N_32
    9  A    between atoms: C_33  and  C_34
                            x       y       z     vdW  Elec       q    Type
                         _______ _______ _______ _____ _____    ______ ____

>  <TORSDO>
F 9

$$$$
=
 OpenBabel10262423073D

 37 39  0  0  1  0  0  0  0  0999 V2000
  183.6420  175.5840  136.1590 C   0  0  0  0  0  2  0  0  0  0  0  0
  182.9340  174.4950  136.9570 C   0  0  1  0  0  3  0  0  0  0  0  0
  180.7560  178.2530  139.1950 C   0  0  1  0  0  3  0  0  0  0  0  0
  181.4190  178.3610  140.5680 C   0  0  0  0  0  2  0  0  0  0  0  0
  185.0420  178.4280  139.5330 C   0  0  2  0  0  3  0  0  0  0  0  0
  180.6400  175.8100  138.6420 C   0  0  0  0  0  2  0  0  0  0  0  0
  180.8220  173.3570  137.1600 O   0  0  0  0  0  1  0  0  0  0  0  0
  183.8790  178.4870  137.3370 C   0  0  0  0  0  1  0  0  0  0  0  0
  183.8310  177.9090  140.3090 C   0  0  0  0  0  2  0  0  0  0  0  0
  181.4420  174.4910  136.6290 C   0  0  1  0  0  3  0  0  0  0  0  0
  185.1140  177.9380  138.0670 C   0  0  2  0  0  0  0  0  0  0  0  0
  183.4930  173.2550  136.6430 O   0  0  0  0  0  1  0  0  0  0  0  0
  180.7410  175.7560  137.1240 C   0  0  0  0  0  2  0  0  0  0  0  0
  185.0920  176.4000  138.0420 C   0  0  0  0  0  2  0  0  0  0  0  0
  182.7880  178.9980  140.4350 C   0  0  0  0  0  2  0  0  0  0  0  0
  179.8350  177.0360  139.0450 C   0  0  1  0  0  3  0  0  0  0  0  0
  185.0700  175.7860  136.6450 C   0  0  0  0  0  2  0  0  0  0  0  0
  186.7900  177.7050  136.3010 O   0  0  0  0  0  0  0  0  0  0  0  0
  187.5430  177.4210  137.4580 C   0  0  2  0  0  3  0  0  0  0  0  0
  186.4530  178.4290  137.4600 C   0  0  2  0  0  3  0  0  0  0  0  0
  188.8800  178.1220  137.3650 C   0  0  0  0  0  2  0  0  0  0  0  0
  190.2940  176.0410  138.6820 O   0  0  0  0  0  0  0  0  0  0  0  0
  190.1700  177.1380  139.2890 C   0  0  0  0  0  0  0  0  0  0  0  0
  190.7260  177.2900  140.5890 N   0  0  0  0  0  1  0  0  0  0  0  0
  189.4630  178.2240  138.6920 N   0  0  0  0  0  2  0  0  0  0  0  0
  179.7550  180.3410  139.6900 O   0  0  0  0  0  0  0  0  0  0  0  0
  180.0440  179.5230  138.8290 C   0  0  0  0  0  0  0  0  0  0  0  0
  180.6590  180.6550  136.8600 O   0  0  0  0  0  0  0  0  0  0  0  0
  179.7180  179.8040  137.3990 C   0  0  0  0  0  3  0  0  0  0  0  0
  180.7340  179.3440  136.5900 O   0  0  0  0  0  0  0  0  0  0  0  0
  186.2650  178.2600  140.2590 O   0  0  0  0  0  0  0  0  0  0  0  0
  186.5000  178.7110  141.5650 C   0  0  0  0  0  0  0  0  0  0  0  0
  185.9470  179.7510  142.0110 O   0  0  0  0  0  0  0  0  0  0  0  0
  187.4410  177.9590  142.4330 C   0  0  0  0  0  1  0  0  0  0  0  0
  178.9890  176.7650  140.2850 C   0  0  0  0  0  2  0  0  0  0  0  0
  178.9540  175.3040  140.5850 C   0  0  0  0  0  3  0  0  0  0  0  0
  178.9670  174.9200  141.7420 O   0  0  0  0  0  0  0  0  0  0  0  0
  1 17  1  0  0  0  0
  1  2  1  0  0  0  0
  2 12  1  6  0  0  0
  3 27  1  1  0  0  0
  3  4  1  0  0  0  0
  5 31  1  1  0  0  0
  5  9  1  0  0  0  0
  6 16  1  0  0  0  0
  9 15  1  0  0  0  0
 10  2  1  0  0  0  0
 10 13  1  0  0  0  0
 10  7  1  1  0  0  0
 11  8  1  6  0  0  0
 11  5  1  0  0  0  0
 13  6  1  0  0  0  0
 14 11  1  0  0  0  0
 15  4  1  0  0  0  0
 16  3  1  0  0  0  0
 16 35  1  1  0  0  0
 17 14  1  0  0  0  0
 18 19  1  0  0  0  0
 19 21  1  6  0  0  0
 19 20  1  0  0  0  0
 20 18  1  6  0  0  0
 20 11  1  0  0  0  0
 21 25  1  0  0  0  0
 22 23  2  0  0  0  0
 23 24  1  0  0  0  0
 25 23  1  0  0  0  0
 27 26  2  0  0  0  0
 28 29  1  0  0  0  0
 29 27  1  0  0  0  0
 30 28  1  0  0  0  0
 30 29  1  0  0  0  0
 31 32  1  0  0  0  0
 32 33  2  0  0  0  0
 32 34  1  0  0  0  0
 35 36  1  0  0  0  0
 36 37  2  0  0  0  0
M  END
>  <MODEL>
9

>  <REMARK>
 VINA RESULT:      -3.7      3.088      8.204
  Name = 
  9 active torsions:
  status: ('A' for Active; 'I' for Inactive)
    1  A    between atoms: C_4  and  O_22
    2  A    between atoms: C_6  and  C_19
    3  A    between atoms: C_7  and  C_33
    4  A    between atoms: C_10  and  O_22
    5  A    between atoms: C_16  and  C_30
    6  A    between atoms: C_18  and  C_19
    7  A    between atoms: C_20  and  C_24
    8  A    between atoms: C_30  and  N_32
    9  A    between atoms: C_33  and  C_34
                            x       y       z     vdW  Elec       q    Type
                         _______ _______ _______ _____ _____    ______ ____

>  <TORSDO>
F 9

$$$$
