=
 OpenBabel10262422223D

 43 47  0  0  1  0  0  0  0  0999 V2000
  191.7490  176.5290  147.4610 C   0  0  0  0  0  0  0  0  0  0  0  0
  187.6840  177.7130  144.5800 C   0  0  0  0  0  0  0  0  0  0  0  0
  188.3820  177.4070  141.8870 N   0  0  0  0  0  0  0  0  0  0  0  0
  189.6450  177.4370  146.6630 C   0  0  0  0  0  0  0  0  0  0  0  0
  192.0490  176.0890  146.0790 C   0  0  0  0  0  3  0  0  0  0  0  0
  192.6480  176.2500  148.4800 O   0  0  0  0  0  1  0  0  0  0  0  0
  190.1740  177.4750  145.2450 C   0  0  1  0  0  3  0  0  0  0  0  0
  190.5940  177.1420  147.7460 C   0  0  0  0  0  3  0  0  0  0  0  0
  191.2890  176.4780  145.0470 C   0  0  0  0  0  3  0  0  0  0  0  0
  189.4010  177.3130  142.9000 C   0  0  0  0  0  3  0  0  0  0  0  0
  189.0910  177.4290  144.1950 C   0  0  0  0  0  0  0  0  0  0  0  0
  187.3610  177.8480  145.8720 C   0  0  0  0  0  3  0  0  0  0  0  0
  186.6580  177.8320  143.5180 C   0  0  0  0  0  0  0  0  0  0  0  0
  187.0170  177.6690  142.2420 C   0  0  0  0  0  3  0  0  0  0  0  0
  188.3590  177.6660  146.9420 C   0  0  0  0  0  3  0  0  0  0  0  0
  188.6970  177.1810  140.4830 C   0  0  1  0  0  3  0  0  0  0  0  0
  188.2550  178.3530  139.6160 C   0  0  0  0  0  2  0  0  0  0  0  0
  190.4730  176.9000  140.2500 S   0  0  0  0  0  0  0  0  0  0  0  0
  189.3000  178.6000  138.5410 C   0  0  1  0  0  3  0  0  0  0  0  0
  190.2770  177.4390  138.5360 C   0  0  0  0  0  2  0  0  0  0  0  0
  188.6180  178.7390  137.1880 C   0  0  0  0  0  2  0  0  0  0  0  0
  188.5840  177.4080  136.4270 C   0  0  1  0  0  3  0  0  0  0  0  0
  186.4940  177.9400  135.1540 C   0  0  0  0  0  1  0  0  0  0  0  0
  187.1460  176.9420  136.1030 C   0  0  0  0  0  0  0  0  0  0  0  0
  187.2150  175.6010  135.3790 C   0  0  0  0  0  1  0  0  0  0  0  0
  186.3160  176.8130  137.3930 C   0  0  0  0  0  2  0  0  0  0  0  0
  185.0410  177.6510  137.3970 C   0  0  0  0  0  3  0  0  0  0  0  0
  183.6000  179.1350  138.7760 C   0  0  0  0  0  2  0  0  0  0  0  0
  182.5550  177.5880  137.5070 C   0  0  0  0  0  2  0  0  0  0  0  0
  182.5910  178.1530  138.7940 O   0  0  0  0  0  0  0  0  0  0  0  0
  183.8130  176.7500  137.2720 C   0  0  0  0  0  2  0  0  0  0  0  0
  184.9710  178.4670  138.6860 C   0  0  0  0  0  2  0  0  0  0  0  0
  189.4960  177.4460  135.2270 C   0  0  0  0  0  3  0  0  0  0  0  0
  190.4520  176.6910  135.1340 O   0  0  0  0  0  0  0  0  0  0  0  0
  185.2130  178.0440  143.8420 C   0  0  0  0  0  2  0  0  0  0  0  0
  184.4670  180.1700  143.9180 O   0  0  0  0  0  1  0  0  0  0  0  0
  184.6850  179.1490  143.0570 N   0  0  0  0  0  0  0  0  0  0  0  0
  183.3840  178.7410  142.5500 C   0  0  0  0  0  2  0  0  0  0  0  0
  182.2870  179.1320  143.5340 C   0  0  0  0  0  2  0  0  0  0  0  0
  180.2240  177.9620  143.8820 O   0  0  0  0  0  1  0  0  0  0  0  0
  180.8860  178.8280  143.0110 C   0  0  0  0  0  0  0  0  0  0  0  0
  180.9550  178.2510  141.7430 O   0  0  0  0  0  1  0  0  0  0  0  0
  180.1070  180.1230  142.9190 C   0  0  0  0  0  1  0  0  0  0  0  0
  1  8  2  0  0  0  0
  1  6  1  0  0  0  0
  2 12  2  0  0  0  0
  3 14  1  0  0  0  0
  3 10  1  0  0  0  0
  4 15  2  0  0  0  0
  4  8  1  0  0  0  0
  5  1  1  0  0  0  0
  7  9  1  6  0  0  0
  7  4  1  0  0  0  0
  9  5  2  0  0  0  0
 10 11  2  0  0  0  0
 11  2  1  0  0  0  0
 11  7  1  0  0  0  0
 12 15  1  0  0  0  0
 13 35  1  0  0  0  0
 13  2  1  0  0  0  0
 14 13  2  0  0  0  0
 16 17  1  6  0  0  0
 16  3  1  0  0  0  0
 18 16  1  0  0  0  0
 19 21  1  6  0  0  0
 19 17  1  0  0  0  0
 20 19  1  0  0  0  0
 20 18  1  0  0  0  0
 22 33  1  6  0  0  0
 22 21  1  0  0  0  0
 23 24  1  0  0  0  0
 24 22  1  0  0  0  0
 24 26  1  0  0  0  0
 25 24  1  0  0  0  0
 26 27  1  0  0  0  0
 27 32  1  0  0  0  0
 28 30  1  0  0  0  0
 29 30  1  0  0  0  0
 31 27  1  0  0  0  0
 31 29  1  0  0  0  0
 32 28  1  0  0  0  0
 34 33  2  0  0  0  0
 37 35  1  0  0  0  0
 37 36  1  0  0  0  0
 38 37  1  0  0  0  0
 38 39  1  0  0  0  0
 41 39  1  0  0  0  0
 41 40  1  0  0  0  0
 42 41  1  0  0  0  0
 43 41  1  0  0  0  0
M  END
>  <MODEL>
1

>  <REMARK>
 VINA RESULT:      -9.1      0.000      0.000
  Name = 
  12 active torsions:
  status: ('A' for Active; 'I' for Inactive)
    1  A    between atoms: C_1  and  C_34
    2  A    between atoms: C_1  and  N_35
    3  A    between atoms: C_2  and  N_13
    4  A    between atoms: C_3  and  C_4
    5  A    between atoms: C_3  and  C_12
    6  A    between atoms: C_4  and  C_15
    7  A    between atoms: C_4  and  C_22
    8  A    between atoms: C_11  and  C_14
    9  A    between atoms: C_14  and  C_22
   10  A    between atoms: C_19  and  C_39
   11  A    between atoms: C_28  and  N_35
   12  A    between atoms: C_28  and  C_39
                            x       y       z     vdW  Elec       q    Type
                         _______ _______ _______ _____ _____    ______ ____

>  <TORSDO>
F 12

$$$$
=
 OpenBabel10262422223D

 43 47  0  0  1  0  0  0  0  0999 V2000
  191.6130  176.3820  146.7670 C   0  0  0  0  0  0  0  0  0  0  0  0
  187.2050  177.8260  144.5980 C   0  0  0  0  0  0  0  0  0  0  0  0
  187.6710  178.3330  141.8860 N   0  0  0  0  0  0  0  0  0  0  0  0
  189.3700  177.2270  146.3900 C   0  0  0  0  0  0  0  0  0  0  0  0
  191.8200  176.3650  145.3000 C   0  0  0  0  0  3  0  0  0  0  0  0
  192.6260  175.9440  147.6070 O   0  0  0  0  0  1  0  0  0  0  0  0
  189.7570  177.7020  145.0070 C   0  0  1  0  0  3  0  0  0  0  0  0
  190.4390  176.7620  147.2850 C   0  0  0  0  0  3  0  0  0  0  0  0
  190.9340  176.9270  144.4680 C   0  0  0  0  0  3  0  0  0  0  0  0
  188.7850  178.0870  142.7640 C   0  0  0  0  0  3  0  0  0  0  0  0
  188.5890  177.8170  144.0590 C   0  0  0  0  0  0  0  0  0  0  0  0
  186.9940  177.5730  145.8960 C   0  0  0  0  0  3  0  0  0  0  0  0
  186.0770  178.1080  143.6800 C   0  0  0  0  0  0  0  0  0  0  0  0
  186.3280  178.3340  142.3880 C   0  0  0  0  0  3  0  0  0  0  0  0
  188.1010  177.2250  146.8060 C   0  0  0  0  0  3  0  0  0  0  0  0
  187.8710  178.5290  140.4560 C   0  0  1  0  0  3  0  0  0  0  0  0
  188.8720  177.5300  139.8890 C   0  0  0  0  0  2  0  0  0  0  0  0
  186.3050  178.3850  139.5530 S   0  0  0  0  0  0  0  0  0  0  0  0
  188.4040  177.0810  138.5150 C   0  0  1  0  0  3  0  0  0  0  0  0
  187.2600  177.9740  138.0750 C   0  0  0  0  0  2  0  0  0  0  0  0
  189.5630  177.1600  137.5310 C   0  0  0  0  0  2  0  0  0  0  0  0
  189.8770  175.7930  136.9110 C   0  0  1  0  0  3  0  0  0  0  0  0
  189.1620  177.1260  134.9150 C   0  0  0  0  0  1  0  0  0  0  0  0
  189.5780  175.7420  135.3960 C   0  0  0  0  0  0  0  0  0  0  0  0
  190.8570  175.3660  134.6530 C   0  0  0  0  0  1  0  0  0  0  0  0
  188.4660  174.7190  135.0990 C   0  0  0  0  0  2  0  0  0  0  0  0
  187.4400  174.5760  136.2180 C   0  0  0  0  0  3  0  0  0  0  0  0
  186.0290  172.9600  137.4750 C   0  0  0  0  0  2  0  0  0  0  0  0
  185.0570  174.9030  136.8610 C   0  0  0  0  0  2  0  0  0  0  0  0
  184.8680  173.5100  136.8970 O   0  0  0  0  0  0  0  0  0  0  0  0
  186.1280  175.2560  135.8280 C   0  0  0  0  0  2  0  0  0  0  0  0
  187.2030  173.0950  136.5070 C   0  0  0  0  0  2  0  0  0  0  0  0
  191.2700  175.3420  137.2710 C   0  0  0  0  0  3  0  0  0  0  0  0
  191.4560  174.4540  138.0900 O   0  0  0  0  0  0  0  0  0  0  0  0
  184.6560  178.0610  144.1440 C   0  0  0  0  0  2  0  0  0  0  0  0
  183.8510  179.1450  145.9500 O   0  0  0  0  0  1  0  0  0  0  0  0
  184.2640  179.3560  144.6790 N   0  0  0  0  0  0  0  0  0  0  0  0
  183.1020  179.8060  143.9270 C   0  0  0  0  0  2  0  0  0  0  0  0
  182.3870  178.6140  143.3000 C   0  0  0  0  0  2  0  0  0  0  0  0
  180.5560  178.3430  141.7770 O   0  0  0  0  0  1  0  0  0  0  0  0
  180.9150  178.8940  143.0080 C   0  0  0  0  0  0  0  0  0  0  0  0
  180.6750  180.2670  142.9920 O   0  0  0  0  0  1  0  0  0  0  0  0
  180.0720  178.2610  144.0940 C   0  0  0  0  0  1  0  0  0  0  0  0
  1  8  2  0  0  0  0
  1  6  1  0  0  0  0
  2 12  2  0  0  0  0
  3 14  1  0  0  0  0
  3 10  1  0  0  0  0
  4 15  2  0  0  0  0
  4  8  1  0  0  0  0
  5  1  1  0  0  0  0
  7  9  1  6  0  0  0
  7  4  1  0  0  0  0
  9  5  2  0  0  0  0
 10 11  2  0  0  0  0
 11  2  1  0  0  0  0
 11  7  1  0  0  0  0
 12 15  1  0  0  0  0
 13 35  1  0  0  0  0
 13  2  1  0  0  0  0
 14 13  2  0  0  0  0
 16 17  1  6  0  0  0
 16  3  1  0  0  0  0
 18 16  1  0  0  0  0
 19 21  1  6  0  0  0
 19 17  1  0  0  0  0
 20 19  1  0  0  0  0
 20 18  1  0  0  0  0
 22 33  1  6  0  0  0
 22 21  1  0  0  0  0
 23 24  1  0  0  0  0
 24 22  1  0  0  0  0
 25 24  1  0  0  0  0
 26 24  1  0  0  0  0
 26 27  1  0  0  0  0
 27 32  1  0  0  0  0
 29 30  1  0  0  0  0
 30 28  1  0  0  0  0
 31 27  1  0  0  0  0
 31 29  1  0  0  0  0
 32 28  1  0  0  0  0
 33 34  2  0  0  0  0
 35 37  1  0  0  0  0
 37 36  1  0  0  0  0
 38 37  1  0  0  0  0
 39 38  1  0  0  0  0
 40 41  1  0  0  0  0
 41 39  1  0  0  0  0
 41 43  1  0  0  0  0
 42 41  1  0  0  0  0
M  END
>  <MODEL>
2

>  <REMARK>
 VINA RESULT:      -9.0      1.885      2.666
  Name = 
  12 active torsions:
  status: ('A' for Active; 'I' for Inactive)
    1  A    between atoms: C_1  and  C_34
    2  A    between atoms: C_1  and  N_35
    3  A    between atoms: C_2  and  N_13
    4  A    between atoms: C_3  and  C_4
    5  A    between atoms: C_3  and  C_12
    6  A    between atoms: C_4  and  C_15
    7  A    between atoms: C_4  and  C_22
    8  A    between atoms: C_11  and  C_14
    9  A    between atoms: C_14  and  C_22
   10  A    between atoms: C_19  and  C_39
   11  A    between atoms: C_28  and  N_35
   12  A    between atoms: C_28  and  C_39
                            x       y       z     vdW  Elec       q    Type
                         _______ _______ _______ _____ _____    ______ ____

>  <TORSDO>
F 12

$$$$
=
 OpenBabel10262422223D

 43 47  0  0  1  0  0  0  0  0999 V2000
  191.3080  176.6850  147.0740 C   0  0  0  0  0  0  0  0  0  0  0  0
  187.3560  177.8620  144.0390 C   0  0  0  0  0  0  0  0  0  0  0  0
  188.3080  178.2030  141.4290 N   0  0  0  0  0  0  0  0  0  0  0  0
  189.1600  177.4410  146.2350 C   0  0  0  0  0  0  0  0  0  0  0  0
  191.7830  176.5770  145.6750 C   0  0  0  0  0  3  0  0  0  0  0  0
  192.1540  176.3300  148.1150 O   0  0  0  0  0  1  0  0  0  0  0  0
  189.7900  177.8350  144.9160 C   0  0  1  0  0  3  0  0  0  0  0  0
  190.0530  177.0650  147.3410 C   0  0  0  0  0  3  0  0  0  0  0  0
  191.0580  177.0590  144.6580 C   0  0  0  0  0  3  0  0  0  0  0  0
  189.2440  178.0460  142.5120 C   0  0  0  0  0  3  0  0  0  0  0  0
  188.8160  177.8560  143.7640 C   0  0  0  0  0  0  0  0  0  0  0  0
  186.9120  177.6890  145.2900 C   0  0  0  0  0  3  0  0  0  0  0  0
  186.4130  178.0530  142.9120 C   0  0  0  0  0  0  0  0  0  0  0  0
  186.8950  178.2010  141.6760 C   0  0  0  0  0  3  0  0  0  0  0  0
  187.8370  177.4320  146.4100 C   0  0  0  0  0  3  0  0  0  0  0  0
  188.7660  178.3110  140.0500 C   0  0  1  0  0  3  0  0  0  0  0  0
  189.8320  177.2700  139.7330 C   0  0  0  0  0  2  0  0  0  0  0  0
  187.3850  178.1270  138.8890 S   0  0  0  0  0  0  0  0  0  0  0  0
  189.6110  176.7440  138.3250 C   0  0  1  0  0  3  0  0  0  0  0  0
  188.5820  177.6190  137.6340 C   0  0  0  0  0  2  0  0  0  0  0  0
  190.9280  176.7520  137.5640 C   0  0  0  0  0  2  0  0  0  0  0  0
  191.6680  175.4140  137.6910 C   0  0  1  0  0  3  0  0  0  0  0  0
  190.9890  175.2530  135.2850 C   0  0  0  0  0  1  0  0  0  0  0  0
  191.3580  174.4480  136.5250 C   0  0  0  0  0  0  0  0  0  0  0  0
  192.6180  173.6540  136.1950 C   0  0  0  0  0  1  0  0  0  0  0  0
  190.2080  173.4960  136.9030 C   0  0  0  0  0  2  0  0  0  0  0  0
  188.9680  173.6430  136.0270 C   0  0  0  0  0  3  0  0  0  0  0  0
  186.5020  173.9600  136.0480 C   0  0  0  0  0  2  0  0  0  0  0  0
  187.3250  172.4410  134.5940 C   0  0  0  0  0  2  0  0  0  0  0  0
  186.3210  172.6530  135.5550 O   0  0  0  0  0  0  0  0  0  0  0  0
  188.6880  172.3390  135.2790 C   0  0  0  0  0  2  0  0  0  0  0  0
  187.7710  174.0220  136.8970 C   0  0  0  0  0  2  0  0  0  0  0  0
  193.1420  175.6290  137.9270 C   0  0  0  0  0  3  0  0  0  0  0  0
  193.6150  176.7540  137.9920 O   0  0  0  0  0  0  0  0  0  0  0  0
  184.9310  177.9980  143.1100 C   0  0  0  0  0  2  0  0  0  0  0  0
  183.9980  179.8730  143.9430 O   0  0  0  0  0  1  0  0  0  0  0  0
  184.3370  179.2820  142.7740 N   0  0  0  0  0  0  0  0  0  0  0  0
  183.0960  179.0160  142.0610 C   0  0  0  0  0  2  0  0  0  0  0  0
  183.3700  178.1630  140.8270 C   0  0  0  0  0  2  0  0  0  0  0  0
  184.2140  179.9820  139.5140 O   0  0  0  0  0  1  0  0  0  0  0  0
  183.2690  178.9550  139.5260 C   0  0  0  0  0  0  0  0  0  0  0  0
  181.9910  179.4950  139.3840 O   0  0  0  0  0  1  0  0  0  0  0  0
  183.5390  178.0230  138.3640 C   0  0  0  0  0  1  0  0  0  0  0  0
  1  8  2  0  0  0  0
  1  6  1  0  0  0  0
  2 12  2  0  0  0  0
  3 14  1  0  0  0  0
  3 10  1  0  0  0  0
  4 15  2  0  0  0  0
  4  8  1  0  0  0  0
  5  1  1  0  0  0  0
  7  9  1  6  0  0  0
  7  4  1  0  0  0  0
  9  5  2  0  0  0  0
 10 11  2  0  0  0  0
 11  2  1  0  0  0  0
 11  7  1  0  0  0  0
 12 15  1  0  0  0  0
 13 35  1  0  0  0  0
 13  2  1  0  0  0  0
 14 13  2  0  0  0  0
 16 17  1  6  0  0  0
 16  3  1  0  0  0  0
 18 16  1  0  0  0  0
 19 21  1  6  0  0  0
 19 17  1  0  0  0  0
 20 19  1  0  0  0  0
 20 18  1  0  0  0  0
 22 21  1  6  0  0  0
 22 33  1  0  0  0  0
 23 24  1  0  0  0  0
 24 26  1  0  0  0  0
 24 22  1  0  0  0  0
 25 24  1  0  0  0  0
 27 32  1  0  0  0  0
 27 26  1  0  0  0  0
 28 32  1  0  0  0  0
 29 31  1  0  0  0  0
 29 30  1  0  0  0  0
 30 28  1  0  0  0  0
 31 27  1  0  0  0  0
 33 34  2  0  0  0  0
 37 35  1  0  0  0  0
 37 36  1  0  0  0  0
 38 37  1  0  0  0  0
 39 38  1  0  0  0  0
 40 41  1  0  0  0  0
 41 39  1  0  0  0  0
 42 41  1  0  0  0  0
 43 41  1  0  0  0  0
M  END
>  <MODEL>
3

>  <REMARK>
 VINA RESULT:      -8.9      2.235      3.706
  Name = 
  12 active torsions:
  status: ('A' for Active; 'I' for Inactive)
    1  A    between atoms: C_1  and  C_34
    2  A    between atoms: C_1  and  N_35
    3  A    between atoms: C_2  and  N_13
    4  A    between atoms: C_3  and  C_4
    5  A    between atoms: C_3  and  C_12
    6  A    between atoms: C_4  and  C_15
    7  A    between atoms: C_4  and  C_22
    8  A    between atoms: C_11  and  C_14
    9  A    between atoms: C_14  and  C_22
   10  A    between atoms: C_19  and  C_39
   11  A    between atoms: C_28  and  N_35
   12  A    between atoms: C_28  and  C_39
                            x       y       z     vdW  Elec       q    Type
                         _______ _______ _______ _____ _____    ______ ____

>  <TORSDO>
F 12

$$$$
=
 OpenBabel10262422223D

 43 47  0  0  1  0  0  0  0  0999 V2000
  191.5000  176.5750  147.2550 C   0  0  0  0  0  0  0  0  0  0  0  0
  187.6070  177.7510  144.1450 C   0  0  0  0  0  0  0  0  0  0  0  0
  188.5900  177.9820  141.5350 N   0  0  0  0  0  0  0  0  0  0  0  0
  189.3800  177.3570  146.3710 C   0  0  0  0  0  0  0  0  0  0  0  0
  191.9840  176.4090  145.8650 C   0  0  0  0  0  3  0  0  0  0  0  0
  192.3270  176.2330  148.3150 O   0  0  0  0  0  1  0  0  0  0  0  0
  190.0310  177.6920  145.0470 C   0  0  1  0  0  3  0  0  0  0  0  0
  190.2530  176.9950  147.4970 C   0  0  0  0  0  3  0  0  0  0  0  0
  191.2810  176.8760  144.8260 C   0  0  0  0  0  3  0  0  0  0  0  0
  189.5130  177.8370  142.6320 C   0  0  0  0  0  3  0  0  0  0  0  0
  189.0680  177.6990  143.8850 C   0  0  0  0  0  0  0  0  0  0  0  0
  187.1470  177.6310  145.3970 C   0  0  0  0  0  3  0  0  0  0  0  0
  186.6790  177.9290  143.0040 C   0  0  0  0  0  0  0  0  0  0  0  0
  187.1750  178.0240  141.7680 C   0  0  0  0  0  3  0  0  0  0  0  0
  188.0550  177.3870  146.5330 C   0  0  0  0  0  3  0  0  0  0  0  0
  189.0630  178.0330  140.1580 C   0  0  1  0  0  3  0  0  0  0  0  0
  190.0810  176.9360  139.8760 C   0  0  0  0  0  2  0  0  0  0  0  0
  187.6840  177.8850  138.9900 S   0  0  0  0  0  0  0  0  0  0  0  0
  189.8460  176.3850  138.4800 C   0  0  1  0  0  3  0  0  0  0  0  0
  188.8650  177.2890  137.7580 C   0  0  0  0  0  2  0  0  0  0  0  0
  191.1690  176.3120  137.7300 C   0  0  0  0  0  2  0  0  0  0  0  0
  191.1630  175.2030  136.6710 C   0  0  1  0  0  3  0  0  0  0  0  0
  192.4060  174.5020  134.6130 C   0  0  0  0  0  1  0  0  0  0  0  0
  192.5600  174.9530  136.0600 C   0  0  0  0  0  0  0  0  0  0  0  0
  193.3360  176.2670  136.0490 C   0  0  0  0  0  1  0  0  0  0  0  0
  193.3210  173.8880  136.8710 C   0  0  0  0  0  2  0  0  0  0  0  0
  194.7940  174.2140  137.0950 C   0  0  0  0  0  3  0  0  0  0  0  0
  197.1220  173.5480  136.5290 C   0  0  0  0  0  2  0  0  0  0  0  0
  196.7010  174.0600  138.6880 C   0  0  0  0  0  2  0  0  0  0  0  0
  197.3310  173.1180  137.8540 O   0  0  0  0  0  0  0  0  0  0  0  0
  195.1830  173.9440  138.5490 C   0  0  0  0  0  2  0  0  0  0  0  0
  195.6520  173.3710  136.1530 C   0  0  0  0  0  2  0  0  0  0  0  0
  190.4960  173.9560  137.1940 C   0  0  0  0  0  3  0  0  0  0  0  0
  189.6080  173.4020  136.5650 O   0  0  0  0  0  0  0  0  0  0  0  0
  185.1950  177.9180  143.1880 C   0  0  0  0  0  2  0  0  0  0  0  0
  184.5380  179.9550  143.8950 O   0  0  0  0  0  1  0  0  0  0  0  0
  184.6330  179.1960  142.7790 N   0  0  0  0  0  0  0  0  0  0  0  0
  183.2740  178.9480  142.3210 C   0  0  0  0  0  2  0  0  0  0  0  0
  182.2940  179.0750  143.4820 C   0  0  0  0  0  2  0  0  0  0  0  0
  180.7110  178.4670  141.7890 O   0  0  0  0  0  1  0  0  0  0  0  0
  180.8370  179.0970  143.0280 C   0  0  0  0  0  0  0  0  0  0  0  0
  180.3770  180.4100  142.9320 O   0  0  0  0  0  1  0  0  0  0  0  0
  179.9960  178.3560  144.0450 C   0  0  0  0  0  1  0  0  0  0  0  0
  1  8  2  0  0  0  0
  1  6  1  0  0  0  0
  2 12  2  0  0  0  0
  3 14  1  0  0  0  0
  3 10  1  0  0  0  0
  4 15  2  0  0  0  0
  4  8  1  0  0  0  0
  5  1  1  0  0  0  0
  7  9  1  6  0  0  0
  7  4  1  0  0  0  0
  9  5  2  0  0  0  0
 10 11  2  0  0  0  0
 11  2  1  0  0  0  0
 11  7  1  0  0  0  0
 12 15  1  0  0  0  0
 13 35  1  0  0  0  0
 13  2  1  0  0  0  0
 14 13  2  0  0  0  0
 16 17  1  6  0  0  0
 16  3  1  0  0  0  0
 18 16  1  0  0  0  0
 19 21  1  6  0  0  0
 19 17  1  0  0  0  0
 20 19  1  0  0  0  0
 20 18  1  0  0  0  0
 22 33  1  1  0  0  0
 22 21  1  0  0  0  0
 23 24  1  0  0  0  0
 24 22  1  0  0  0  0
 24 26  1  0  0  0  0
 25 24  1  0  0  0  0
 26 27  1  0  0  0  0
 27 31  1  0  0  0  0
 28 30  1  0  0  0  0
 30 29  1  0  0  0  0
 31 29  1  0  0  0  0
 32 28  1  0  0  0  0
 32 27  1  0  0  0  0
 34 33  2  0  0  0  0
 37 35  1  0  0  0  0
 37 36  1  0  0  0  0
 38 37  1  0  0  0  0
 38 39  1  0  0  0  0
 40 41  1  0  0  0  0
 41 39  1  0  0  0  0
 41 43  1  0  0  0  0
 42 41  1  0  0  0  0
M  END
>  <MODEL>
4

>  <REMARK>
 VINA RESULT:      -8.9      3.238      5.593
  Name = 
  12 active torsions:
  status: ('A' for Active; 'I' for Inactive)
    1  A    between atoms: C_1  and  C_34
    2  A    between atoms: C_1  and  N_35
    3  A    between atoms: C_2  and  N_13
    4  A    between atoms: C_3  and  C_4
    5  A    between atoms: C_3  and  C_12
    6  A    between atoms: C_4  and  C_15
    7  A    between atoms: C_4  and  C_22
    8  A    between atoms: C_11  and  C_14
    9  A    between atoms: C_14  and  C_22
   10  A    between atoms: C_19  and  C_39
   11  A    between atoms: C_28  and  N_35
   12  A    between atoms: C_28  and  C_39
                            x       y       z     vdW  Elec       q    Type
                         _______ _______ _______ _____ _____    ______ ____

>  <TORSDO>
F 12

$$$$
=
 OpenBabel10262422223D

 43 47  0  0  1  0  0  0  0  0999 V2000
  186.9610  177.7470  145.5870 C   0  0  0  0  0  0  0  0  0  0  0  0
  182.9190  178.8550  142.6460 C   0  0  0  0  0  0  0  0  0  0  0  0
  183.6680  178.5820  139.9630 N   0  0  0  0  0  0  0  0  0  0  0  0
  184.8500  178.6110  144.7590 C   0  0  0  0  0  0  0  0  0  0  0  0
  187.2940  177.3230  144.2070 C   0  0  0  0  0  3  0  0  0  0  0  0
  187.8490  177.4820  146.6190 O   0  0  0  0  0  1  0  0  0  0  0  0
  185.4010  178.6710  143.3510 C   0  0  1  0  0  3  0  0  0  0  0  0
  185.7870  178.3320  145.8560 C   0  0  0  0  0  3  0  0  0  0  0  0
  186.5420  177.7010  143.1650 C   0  0  0  0  0  3  0  0  0  0  0  0
  184.6720  178.5050  140.9920 C   0  0  0  0  0  3  0  0  0  0  0  0
  184.3370  178.6060  142.2830 C   0  0  0  0  0  0  0  0  0  0  0  0
  182.5700  178.9740  143.9330 C   0  0  0  0  0  3  0  0  0  0  0  0
  181.9070  178.9570  141.5670 C   0  0  0  0  0  0  0  0  0  0  0  0
  182.2920  178.8100  140.2960 C   0  0  0  0  0  3  0  0  0  0  0  0
  183.5550  178.8080  145.0180 C   0  0  0  0  0  3  0  0  0  0  0  0
  184.0110  178.3730  138.5620 C   0  0  1  0  0  3  0  0  0  0  0  0
  185.5100  178.1800  138.3770 C   0  0  0  0  0  2  0  0  0  0  0  0
  183.1340  176.9380  137.8840 S   0  0  0  0  0  0  0  0  0  0  0  0
  185.7480  177.1140  137.3210 C   0  0  1  0  0  3  0  0  0  0  0  0
  184.4320  176.8070  136.6330 C   0  0  0  0  0  2  0  0  0  0  0  0
  186.7810  177.6100  136.3190 C   0  0  0  0  0  2  0  0  0  0  0  0
  187.9540  176.6320  136.1790 C   0  0  1  0  0  3  0  0  0  0  0  0
  190.4510  176.8060  136.0870 C   0  0  0  0  0  1  0  0  0  0  0  0
  189.2190  177.1050  136.9320 C   0  0  0  0  0  0  0  0  0  0  0  0
  189.1460  178.6170  137.1170 C   0  0  0  0  0  1  0  0  0  0  0  0
  189.3280  176.4020  138.2980 C   0  0  0  0  0  2  0  0  0  0  0  0
  189.9870  177.2500  139.3810 C   0  0  0  0  0  3  0  0  0  0  0  0
  192.0590  177.5690  140.7180 C   0  0  0  0  0  2  0  0  0  0  0  0
  190.0950  177.7240  141.8220 C   0  0  0  0  0  2  0  0  0  0  0  0
  191.3810  177.1580  141.8820 O   0  0  0  0  0  0  0  0  0  0  0  0
  189.2800  177.0460  140.7200 C   0  0  0  0  0  2  0  0  0  0  0  0
  191.4620  176.8710  139.4970 C   0  0  0  0  0  2  0  0  0  0  0  0
  187.5320  175.2250  136.5220 C   0  0  0  0  0  3  0  0  0  0  0  0
  187.1240  174.4600  135.6620 O   0  0  0  0  0  0  0  0  0  0  0  0
  180.4530  179.1340  141.8680 C   0  0  0  0  0  2  0  0  0  0  0  0
  179.5690  180.9010  142.9520 O   0  0  0  0  0  1  0  0  0  0  0  0
  180.0900  180.5380  141.7580 N   0  0  0  0  0  0  0  0  0  0  0  0
  179.0150  180.6350  140.7820 C   0  0  0  0  0  2  0  0  0  0  0  0
  179.2280  181.8470  139.8810 C   0  0  0  0  0  2  0  0  0  0  0  0
  179.0870  182.2040  137.5150 O   0  0  0  0  0  1  0  0  0  0  0  0
  179.7530  181.4710  138.4980 C   0  0  0  0  0  0  0  0  0  0  0  0
  179.5760  180.1070  138.2640 O   0  0  0  0  0  1  0  0  0  0  0  0
  181.2310  181.7910  138.4330 C   0  0  0  0  0  1  0  0  0  0  0  0
  1  8  2  0  0  0  0
  1  6  1  0  0  0  0
  2 12  2  0  0  0  0
  3 14  1  0  0  0  0
  3 10  1  0  0  0  0
  4 15  2  0  0  0  0
  4  8  1  0  0  0  0
  5  1  1  0  0  0  0
  7  9  1  6  0  0  0
  7  4  1  0  0  0  0
  9  5  2  0  0  0  0
 10 11  2  0  0  0  0
 11  2  1  0  0  0  0
 11  7  1  0  0  0  0
 12 15  1  0  0  0  0
 13 35  1  0  0  0  0
 13  2  1  0  0  0  0
 14 13  2  0  0  0  0
 16 17  1  1  0  0  0
 16  3  1  0  0  0  0
 18 16  1  0  0  0  0
 19 21  1  6  0  0  0
 19 17  1  0  0  0  0
 20 19  1  0  0  0  0
 20 18  1  0  0  0  0
 22 21  1  1  0  0  0
 22 33  1  0  0  0  0
 22 24  1  0  0  0  0
 23 24  1  0  0  0  0
 24 25  1  0  0  0  0
 24 26  1  0  0  0  0
 26 27  1  0  0  0  0
 27 32  1  0  0  0  0
 27 31  1  0  0  0  0
 28 30  1  0  0  0  0
 29 30  1  0  0  0  0
 31 29  1  0  0  0  0
 32 28  1  0  0  0  0
 34 33  2  0  0  0  0
 37 35  1  0  0  0  0
 37 36  1  0  0  0  0
 38 37  1  0  0  0  0
 39 38  1  0  0  0  0
 40 41  1  0  0  0  0
 41 39  1  0  0  0  0
 42 41  1  0  0  0  0
 43 41  1  0  0  0  0
M  END
>  <MODEL>
5

>  <REMARK>
 VINA RESULT:      -8.8      2.812      5.433
  Name = 
  12 active torsions:
  status: ('A' for Active; 'I' for Inactive)
    1  A    between atoms: C_1  and  C_34
    2  A    between atoms: C_1  and  N_35
    3  A    between atoms: C_2  and  N_13
    4  A    between atoms: C_3  and  C_4
    5  A    between atoms: C_3  and  C_12
    6  A    between atoms: C_4  and  C_15
    7  A    between atoms: C_4  and  C_22
    8  A    between atoms: C_11  and  C_14
    9  A    between atoms: C_14  and  C_22
   10  A    between atoms: C_19  and  C_39
   11  A    between atoms: C_28  and  N_35
   12  A    between atoms: C_28  and  C_39
                            x       y       z     vdW  Elec       q    Type
                         _______ _______ _______ _____ _____    ______ ____

>  <TORSDO>
F 12

$$$$
=
 OpenBabel10262422223D

 43 47  0  0  1  0  0  0  0  0999 V2000
  182.3490  179.0820  142.2590 C   0  0  0  0  0  0  0  0  0  0  0  0
  186.5720  178.1510  145.0010 C   0  0  0  0  0  0  0  0  0  0  0  0
  188.5840  177.2710  143.2660 N   0  0  0  0  0  0  0  0  0  0  0  0
  183.8890  178.5830  144.0660 C   0  0  0  0  0  0  0  0  0  0  0  0
  183.4620  178.8980  141.2990 C   0  0  0  0  0  3  0  0  0  0  0  0
  181.0930  179.4390  141.7910 O   0  0  0  0  0  1  0  0  0  0  0  0
  184.8330  177.8970  143.1020 C   0  0  1  0  0  3  0  0  0  0  0  0
  182.5570  178.9630  143.5750 C   0  0  0  0  0  3  0  0  0  0  0  0
  184.6420  178.4000  141.6920 C   0  0  0  0  0  3  0  0  0  0  0  0
  187.2390  177.4260  142.7740 C   0  0  0  0  0  3  0  0  0  0  0  0
  186.2650  177.8700  143.5750 C   0  0  0  0  0  0  0  0  0  0  0  0
  185.6030  178.5810  145.8190 C   0  0  0  0  0  3  0  0  0  0  0  0
  187.9570  177.9580  145.4900 C   0  0  0  0  0  0  0  0  0  0  0  0
  188.8990  177.5480  144.6370 C   0  0  0  0  0  3  0  0  0  0  0  0
  184.2370  178.8420  145.3290 C   0  0  0  0  0  3  0  0  0  0  0  0
  189.6700  176.8840  142.3750 C   0  0  1  0  0  3  0  0  0  0  0  0
  189.2840  177.0650  140.9130 C   0  0  0  0  0  2  0  0  0  0  0  0
  191.1700  177.8420  142.7220 S   0  0  0  0  0  0  0  0  0  0  0  0
  190.4820  177.5930  140.1430 C   0  0  1  0  0  3  0  0  0  0  0  0
  191.7090  177.5030  141.0300 C   0  0  0  0  0  2  0  0  0  0  0  0
  190.6720  176.7770  138.8720 C   0  0  0  0  0  2  0  0  0  0  0  0
  189.8720  177.3570  137.6990 C   0  0  1  0  0  3  0  0  0  0  0  0
  188.8620  176.6750  135.5110 C   0  0  0  0  0  1  0  0  0  0  0  0
  189.0140  176.2920  136.9780 C   0  0  0  0  0  0  0  0  0  0  0  0
  189.7440  174.9540  137.0270 C   0  0  0  0  0  1  0  0  0  0  0  0
  187.6300  176.1730  137.6420 C   0  0  0  0  0  2  0  0  0  0  0  0
  186.4660  176.1680  136.6560 C   0  0  0  0  0  3  0  0  0  0  0  0
  184.2210  177.1210  136.1710 C   0  0  0  0  0  2  0  0  0  0  0  0
  184.4830  174.9030  135.8420 C   0  0  0  0  0  2  0  0  0  0  0  0
  183.6280  175.8660  136.4070 O   0  0  0  0  0  0  0  0  0  0  0  0
  185.7710  174.8070  136.6600 C   0  0  0  0  0  2  0  0  0  0  0  0
  185.4760  177.2700  137.0300 C   0  0  0  0  0  2  0  0  0  0  0  0
  189.0960  178.5780  138.1220 C   0  0  0  0  0  3  0  0  0  0  0  0
  188.9930  179.5490  137.3870 O   0  0  0  0  0  0  0  0  0  0  0  0
  188.3470  178.2910  146.8950 C   0  0  0  0  0  2  0  0  0  0  0  0
  187.7960  177.2710  148.8280 O   0  0  0  0  0  1  0  0  0  0  0  0
  188.4790  177.0710  147.6770 N   0  0  0  0  0  0  0  0  0  0  0  0
  189.8820  176.9340  148.0380 C   0  0  0  0  0  2  0  0  0  0  0  0
  190.4870  175.7160  147.3480 C   0  0  0  0  0  2  0  0  0  0  0  0
  192.0590  177.1330  146.2220 O   0  0  0  0  0  1  0  0  0  0  0  0
  191.9380  175.9350  146.9270 C   0  0  0  0  0  0  0  0  0  0  0  0
  192.3780  174.8780  146.1300 O   0  0  0  0  0  1  0  0  0  0  0  0
  192.8020  176.0050  148.1680 C   0  0  0  0  0  1  0  0  0  0  0  0
  1  8  2  0  0  0  0
  2 13  1  0  0  0  0
  2 12  2  0  0  0  0
  3 14  1  0  0  0  0
  4 15  2  0  0  0  0
  5  9  2  0  0  0  0
  5  1  1  0  0  0  0
  6  1  1  0  0  0  0
  7  9  1  6  0  0  0
  7 11  1  0  0  0  0
  7  4  1  0  0  0  0
  8  4  1  0  0  0  0
 10  3  1  0  0  0  0
 10 11  2  0  0  0  0
 11  2  1  0  0  0  0
 13 35  1  0  0  0  0
 14 13  2  0  0  0  0
 15 12  1  0  0  0  0
 16 17  1  6  0  0  0
 16 18  1  0  0  0  0
 16  3  1  0  0  0  0
 19 21  1  6  0  0  0
 19 17  1  0  0  0  0
 19 20  1  0  0  0  0
 20 18  1  0  0  0  0
 22 33  1  1  0  0  0
 22 21  1  0  0  0  0
 23 24  1  0  0  0  0
 24 25  1  0  0  0  0
 24 26  1  0  0  0  0
 24 22  1  0  0  0  0
 27 31  1  0  0  0  0
 27 32  1  0  0  0  0
 27 26  1  0  0  0  0
 28 30  1  0  0  0  0
 28 32  1  0  0  0  0
 29 30  1  0  0  0  0
 29 31  1  0  0  0  0
 34 33  2  0  0  0  0
 35 37  1  0  0  0  0
 37 38  1  0  0  0  0
 37 36  1  0  0  0  0
 39 38  1  0  0  0  0
 40 41  1  0  0  0  0
 41 39  1  0  0  0  0
 41 43  1  0  0  0  0
 42 41  1  0  0  0  0
M  END
>  <MODEL>
6

>  <REMARK>
 VINA RESULT:      -8.7      2.013      6.412
  Name = 
  12 active torsions:
  status: ('A' for Active; 'I' for Inactive)
    1  A    between atoms: C_1  and  C_34
    2  A    between atoms: C_1  and  N_35
    3  A    between atoms: C_2  and  N_13
    4  A    between atoms: C_3  and  C_4
    5  A    between atoms: C_3  and  C_12
    6  A    between atoms: C_4  and  C_15
    7  A    between atoms: C_4  and  C_22
    8  A    between atoms: C_11  and  C_14
    9  A    between atoms: C_14  and  C_22
   10  A    between atoms: C_19  and  C_39
   11  A    between atoms: C_28  and  N_35
   12  A    between atoms: C_28  and  C_39
                            x       y       z     vdW  Elec       q    Type
                         _______ _______ _______ _____ _____    ______ ____

>  <TORSDO>
F 12

$$$$
=
 OpenBabel10262422223D

 43 47  0  0  1  0  0  0  0  0999 V2000
  181.9800  178.8740  142.7140 C   0  0  0  0  0  0  0  0  0  0  0  0
  184.8120  178.1330  138.5130 C   0  0  0  0  0  0  0  0  0  0  0  0
  187.5150  178.2650  139.2270 N   0  0  0  0  0  0  0  0  0  0  0  0
  182.7430  178.7310  140.4150 C   0  0  0  0  0  0  0  0  0  0  0  0
  183.3770  178.6640  143.1590 C   0  0  0  0  0  3  0  0  0  0  0  0
  180.9730  179.0110  143.6570 O   0  0  0  0  0  1  0  0  0  0  0  0
  184.1590  179.0520  140.8420 C   0  0  1  0  0  3  0  0  0  0  0  0
  181.6720  178.8760  141.4110 C   0  0  0  0  0  3  0  0  0  0  0  0
  184.3940  178.6890  142.2880 C   0  0  0  0  0  3  0  0  0  0  0  0
  186.5070  178.6220  140.1920 C   0  0  0  0  0  3  0  0  0  0  0  0
  185.2090  178.5430  139.8850 C   0  0  0  0  0  0  0  0  0  0  0  0
  183.5160  178.0650  138.1860 C   0  0  0  0  0  3  0  0  0  0  0  0
  185.8680  177.7960  137.5300 C   0  0  0  0  0  0  0  0  0  0  0  0
  187.1490  177.8560  137.9010 C   0  0  0  0  0  3  0  0  0  0  0  0
  182.4540  178.3320  139.1740 C   0  0  0  0  0  3  0  0  0  0  0  0
  188.9270  178.2530  139.5860 C   0  0  1  0  0  3  0  0  0  0  0  0
  189.1280  177.8960  141.0520 C   0  0  0  0  0  2  0  0  0  0  0  0
  189.8520  177.0840  138.5530 S   0  0  0  0  0  0  0  0  0  0  0  0
  190.3500  177.0020  141.1850 C   0  0  1  0  0  3  0  0  0  0  0  0
  191.0930  176.9950  139.8630 C   0  0  0  0  0  2  0  0  0  0  0  0
  191.2410  177.5190  142.3050 C   0  0  0  0  0  2  0  0  0  0  0  0
  191.1710  176.6230  143.5480 C   0  0  1  0  0  3  0  0  0  0  0  0
  191.3270  177.0340  146.0130 C   0  0  0  0  0  1  0  0  0  0  0  0
  190.5170  177.3280  144.7570 C   0  0  0  0  0  0  0  0  0  0  0  0
  190.5570  178.8360  144.5300 C   0  0  0  0  0  1  0  0  0  0  0  0
  189.0630  176.8520  144.9390 C   0  0  0  0  0  2  0  0  0  0  0  0
  188.1540  177.8770  145.6080 C   0  0  0  0  0  3  0  0  0  0  0  0
  186.9580  178.4530  147.7110 C   0  0  0  0  0  2  0  0  0  0  0  0
  185.8240  178.7390  145.7790 C   0  0  0  0  0  2  0  0  0  0  0  0
  185.7200  178.2190  147.0820 O   0  0  0  0  0  0  0  0  0  0  0  0
  186.7750  177.8750  144.9490 C   0  0  0  0  0  2  0  0  0  0  0  0
  188.0300  177.5540  147.0960 C   0  0  0  0  0  2  0  0  0  0  0  0
  190.5570  175.2850  143.2190 C   0  0  0  0  0  3  0  0  0  0  0  0
  191.1360  174.2420  143.4800 O   0  0  0  0  0  0  0  0  0  0  0  0
  185.5350  177.3080  136.1560 C   0  0  0  0  0  2  0  0  0  0  0  0
  186.7610  175.8620  134.9360 O   0  0  0  0  0  1  0  0  0  0  0  0
  185.9410  175.9180  136.0100 N   0  0  0  0  0  0  0  0  0  0  0  0
  184.7510  175.1500  135.6740 C   0  0  0  0  0  2  0  0  0  0  0  0
  185.0250  173.6580  135.8310 C   0  0  0  0  0  2  0  0  0  0  0  0
  185.8800  173.0020  137.9720 O   0  0  0  0  0  1  0  0  0  0  0  0
  184.7050  173.1420  137.2310 C   0  0  0  0  0  0  0  0  0  0  0  0
  184.0500  171.9130  137.1580 O   0  0  0  0  0  1  0  0  0  0  0  0
  183.8020  174.1390  137.9250 C   0  0  0  0  0  1  0  0  0  0  0  0
  1  5  1  0  0  0  0
  1  6  1  0  0  0  0
  2 11  1  0  0  0  0
  3 10  1  0  0  0  0
  4  7  1  0  0  0  0
  4  8  1  0  0  0  0
  7  9  1  1  0  0  0
  8  1  2  0  0  0  0
  9  5  2  0  0  0  0
 11 10  2  0  0  0  0
 11  7  1  0  0  0  0
 12  2  2  0  0  0  0
 12 15  1  0  0  0  0
 13 14  2  0  0  0  0
 13  2  1  0  0  0  0
 14  3  1  0  0  0  0
 15  4  2  0  0  0  0
 16  3  1  6  0  0  0
 16 17  1  0  0  0  0
 17 19  1  0  0  0  0
 18 16  1  0  0  0  0
 18 20  1  0  0  0  0
 19 21  1  1  0  0  0
 20 19  1  0  0  0  0
 22 21  1  6  0  0  0
 22 24  1  0  0  0  0
 24 26  1  0  0  0  0
 24 23  1  0  0  0  0
 25 24  1  0  0  0  0
 26 27  1  0  0  0  0
 27 32  1  0  0  0  0
 29 30  1  0  0  0  0
 30 28  1  0  0  0  0
 31 27  1  0  0  0  0
 31 29  1  0  0  0  0
 32 28  1  0  0  0  0
 33 34  2  0  0  0  0
 33 22  1  0  0  0  0
 35 13  1  0  0  0  0
 36 37  1  0  0  0  0
 37 35  1  0  0  0  0
 38 39  1  0  0  0  0
 38 37  1  0  0  0  0
 39 41  1  0  0  0  0
 41 43  1  0  0  0  0
 41 40  1  0  0  0  0
 42 41  1  0  0  0  0
M  END
>  <MODEL>
7

>  <REMARK>
 VINA RESULT:      -8.7      2.610      8.182
  Name = 
  12 active torsions:
  status: ('A' for Active; 'I' for Inactive)
    1  A    between atoms: C_1  and  C_34
    2  A    between atoms: C_1  and  N_35
    3  A    between atoms: C_2  and  N_13
    4  A    between atoms: C_3  and  C_4
    5  A    between atoms: C_3  and  C_12
    6  A    between atoms: C_4  and  C_15
    7  A    between atoms: C_4  and  C_22
    8  A    between atoms: C_11  and  C_14
    9  A    between atoms: C_14  and  C_22
   10  A    between atoms: C_19  and  C_39
   11  A    between atoms: C_28  and  N_35
   12  A    between atoms: C_28  and  C_39
                            x       y       z     vdW  Elec       q    Type
                         _______ _______ _______ _____ _____    ______ ____

>  <TORSDO>
F 12

$$$$
=
 OpenBabel10262422223D

 43 47  0  0  1  0  0  0  0  0999 V2000
  191.2320  176.7510  146.8580 C   0  0  0  0  0  0  0  0  0  0  0  0
  189.4230  177.5550  142.1360 C   0  0  0  0  0  0  0  0  0  0  0  0
  186.7880  178.4780  142.3360 N   0  0  0  0  0  0  0  0  0  0  0  0
  190.8730  176.6860  144.4590 C   0  0  0  0  0  0  0  0  0  0  0  0
  189.9610  177.4990  146.9970 C   0  0  0  0  0  3  0  0  0  0  0  0
  191.9910  176.4730  147.9850 O   0  0  0  0  0  1  0  0  0  0  0  0
  189.3950  176.9480  144.6500 C   0  0  1  0  0  3  0  0  0  0  0  0
  191.6820  176.3900  145.6500 C   0  0  0  0  0  3  0  0  0  0  0  0
  189.1250  177.6450  145.9610 C   0  0  0  0  0  3  0  0  0  0  0  0
  187.4660  178.0010  143.5150 C   0  0  0  0  0  3  0  0  0  0  0  0
  188.7330  177.5800  143.4510 C   0  0  0  0  0  0  0  0  0  0  0  0
  190.6860  177.1210  142.0530 C   0  0  0  0  0  3  0  0  0  0  0  0
  188.6960  178.0250  140.9330 C   0  0  0  0  0  0  0  0  0  0  0  0
  187.4430  178.4720  141.0600 C   0  0  0  0  0  3  0  0  0  0  0  0
  191.4430  176.7140  143.2520 C   0  0  0  0  0  3  0  0  0  0  0  0
  185.4430  179.0320  142.4160 C   0  0  1  0  0  3  0  0  0  0  0  0
  184.5450  178.4800  141.3170 C   0  0  0  0  0  2  0  0  0  0  0  0
  184.6930  178.6890  144.0310 S   0  0  0  0  0  0  0  0  0  0  0  0
  183.1550  178.2420  141.8820 C   0  0  1  0  0  3  0  0  0  0  0  0
  183.0710  178.8800  143.2550 C   0  0  0  0  0  2  0  0  0  0  0  0
  182.1140  178.8360  140.9440 C   0  0  0  0  0  2  0  0  0  0  0  0
  182.1610  178.1870  139.5550 C   0  0  1  0  0  3  0  0  0  0  0  0
  179.9670  177.3540  140.4280 C   0  0  0  0  0  1  0  0  0  0  0  0
  181.0010  177.1930  139.3210 C   0  0  0  0  0  0  0  0  0  0  0  0
  180.3160  177.5370  138.0020 C   0  0  0  0  0  1  0  0  0  0  0  0
  181.5270  175.7460  139.2900 C   0  0  0  0  0  2  0  0  0  0  0  0
  180.9650  174.9050  138.1490 C   0  0  0  0  0  3  0  0  0  0  0  0
  179.6640  172.8600  137.5930 C   0  0  0  0  0  2  0  0  0  0  0  0
  181.5110  173.2640  136.3580 C   0  0  0  0  0  2  0  0  0  0  0  0
  180.8200  172.2590  137.0590 O   0  0  0  0  0  0  0  0  0  0  0  0
  182.1010  174.2740  137.3440 C   0  0  0  0  0  2  0  0  0  0  0  0
  180.0510  173.8210  138.7170 C   0  0  0  0  0  2  0  0  0  0  0  0
  182.2970  179.2290  138.4740 C   0  0  0  0  0  3  0  0  0  0  0  0
  182.3220  180.4200  138.7420 O   0  0  0  0  0  0  0  0  0  0  0  0
  189.3560  178.0940  139.5930 C   0  0  0  0  0  2  0  0  0  0  0  0
  190.4230  176.3320  138.6770 O   0  0  0  0  0  1  0  0  0  0  0  0
  189.1840  176.8330  138.8880 N   0  0  0  0  0  0  0  0  0  0  0  0
  188.6240  177.1380  137.5800 C   0  0  0  0  0  2  0  0  0  0  0  0
  187.2440  176.5030  137.4360 C   0  0  0  0  0  2  0  0  0  0  0  0
  186.3290  177.8850  135.7040 O   0  0  0  0  0  1  0  0  0  0  0  0
  186.1680  177.5110  137.0390 C   0  0  0  0  0  0  0  0  0  0  0  0
  186.2370  178.6420  137.8520 O   0  0  0  0  0  1  0  0  0  0  0  0
  184.8090  176.8670  137.2100 C   0  0  0  0  0  1  0  0  0  0  0  0
  1  5  1  0  0  0  0
  1  6  1  0  0  0  0
  2 11  1  0  0  0  0
  3 16  1  0  0  0  0
  3 10  1  0  0  0  0
  4  7  1  0  0  0  0
  4  8  1  0  0  0  0
  7  9  1  1  0  0  0
  8  1  2  0  0  0  0
  9  5  2  0  0  0  0
 11 10  2  0  0  0  0
 11  7  1  0  0  0  0
 12  2  2  0  0  0  0
 12 15  1  0  0  0  0
 13 14  2  0  0  0  0
 13  2  1  0  0  0  0
 14  3  1  0  0  0  0
 15  4  2  0  0  0  0
 16 17  1  6  0  0  0
 16 18  1  0  0  0  0
 17 19  1  0  0  0  0
 19 21  1  6  0  0  0
 19 20  1  0  0  0  0
 20 18  1  0  0  0  0
 22 33  1  6  0  0  0
 22 21  1  0  0  0  0
 24 22  1  0  0  0  0
 24 23  1  0  0  0  0
 25 24  1  0  0  0  0
 26 24  1  0  0  0  0
 27 32  1  0  0  0  0
 27 26  1  0  0  0  0
 28 32  1  0  0  0  0
 29 30  1  0  0  0  0
 29 31  1  0  0  0  0
 30 28  1  0  0  0  0
 31 27  1  0  0  0  0
 33 34  2  0  0  0  0
 35 13  1  0  0  0  0
 36 37  1  0  0  0  0
 37 35  1  0  0  0  0
 38 37  1  0  0  0  0
 39 38  1  0  0  0  0
 40 41  1  0  0  0  0
 41 43  1  0  0  0  0
 41 39  1  0  0  0  0
 41 42  1  0  0  0  0
M  END
>  <MODEL>
8

>  <REMARK>
 VINA RESULT:      -8.5      2.694      6.001
  Name = 
  12 active torsions:
  status: ('A' for Active; 'I' for Inactive)
    1  A    between atoms: C_1  and  C_34
    2  A    between atoms: C_1  and  N_35
    3  A    between atoms: C_2  and  N_13
    4  A    between atoms: C_3  and  C_4
    5  A    between atoms: C_3  and  C_12
    6  A    between atoms: C_4  and  C_15
    7  A    between atoms: C_4  and  C_22
    8  A    between atoms: C_11  and  C_14
    9  A    between atoms: C_14  and  C_22
   10  A    between atoms: C_19  and  C_39
   11  A    between atoms: C_28  and  N_35
   12  A    between atoms: C_28  and  C_39
                            x       y       z     vdW  Elec       q    Type
                         _______ _______ _______ _____ _____    ______ ____

>  <TORSDO>
F 12

$$$$
=
 OpenBabel10262422223D

 43 47  0  0  1  0  0  0  0  0999 V2000
  190.9620  176.7880  146.6740 C   0  0  0  0  0  0  0  0  0  0  0  0
  189.5090  177.5180  141.8190 C   0  0  0  0  0  0  0  0  0  0  0  0
  186.8520  178.3960  141.8070 N   0  0  0  0  0  0  0  0  0  0  0  0
  190.7900  176.6950  144.2550 C   0  0  0  0  0  0  0  0  0  0  0  0
  189.6720  177.5150  146.7070 C   0  0  0  0  0  3  0  0  0  0  0  0
  191.6370  176.5340  147.8590 O   0  0  0  0  0  1  0  0  0  0  0  0
  189.2970  176.9330  144.3300 C   0  0  1  0  0  3  0  0  0  0  0  0
  191.5100  176.4250  145.5080 C   0  0  0  0  0  3  0  0  0  0  0  0
  188.9150  177.6370  145.6090 C   0  0  0  0  0  3  0  0  0  0  0  0
  187.4440  177.9420  143.0380 C   0  0  0  0  0  3  0  0  0  0  0  0
  188.7190  177.5420  143.0770 C   0  0  0  0  0  0  0  0  0  0  0  0
  190.7820  177.1040  141.8380 C   0  0  0  0  0  3  0  0  0  0  0  0
  188.8690  177.9640  140.5590 C   0  0  0  0  0  0  0  0  0  0  0  0
  187.6030  178.3890  140.5850 C   0  0  0  0  0  3  0  0  0  0  0  0
  191.4510  176.7220  143.0960 C   0  0  0  0  0  3  0  0  0  0  0  0
  185.4950  178.9270  141.7770 C   0  0  1  0  0  3  0  0  0  0  0  0
  184.6450  178.2310  140.7230 C   0  0  0  0  0  2  0  0  0  0  0  0
  184.6950  178.7600  143.3970 S   0  0  0  0  0  0  0  0  0  0  0  0
  183.2410  178.0310  141.2660 C   0  0  1  0  0  3  0  0  0  0  0  0
  183.0990  178.8240  142.5520 C   0  0  0  0  0  2  0  0  0  0  0  0
  182.2230  178.4890  140.2320 C   0  0  0  0  0  2  0  0  0  0  0  0
  180.9020  178.9180  140.8840 C   0  0  1  0  0  3  0  0  0  0  0  0
  179.0200  179.2690  139.2690 C   0  0  0  0  0  1  0  0  0  0  0  0
  180.1330  179.9630  140.0440 C   0  0  0  0  0  0  0  0  0  0  0  0
  179.4760  180.9660  140.9870 C   0  0  0  0  0  1  0  0  0  0  0  0
  181.0870  180.6840  139.0740 C   0  0  0  0  0  2  0  0  0  0  0  0
  180.3840  181.3660  137.9050 C   0  0  0  0  0  3  0  0  0  0  0  0
  180.2660  181.5180  135.4250 C   0  0  0  0  0  2  0  0  0  0  0  0
  180.1970  183.4610  136.5730 C   0  0  0  0  0  2  0  0  0  0  0  0
  180.7940  182.8230  135.4710 O   0  0  0  0  0  0  0  0  0  0  0  0
  180.7260  182.8560  137.8740 C   0  0  0  0  0  2  0  0  0  0  0  0
  180.8060  180.6990  136.5970 C   0  0  0  0  0  2  0  0  0  0  0  0
  180.0730  177.7190  141.2690 C   0  0  0  0  0  3  0  0  0  0  0  0
  179.4530  177.6890  142.3220 O   0  0  0  0  0  0  0  0  0  0  0  0
  189.6290  178.0320  139.2730 C   0  0  0  0  0  2  0  0  0  0  0  0
  190.1950  175.9510  138.6150 O   0  0  0  0  0  1  0  0  0  0  0  0
  189.2630  176.9120  138.4190 N   0  0  0  0  0  0  0  0  0  0  0  0
  189.3970  177.3540  137.0390 C   0  0  0  0  0  2  0  0  0  0  0  0
  188.1610  176.9630  136.2370 C   0  0  0  0  0  2  0  0  0  0  0  0
  186.5330  178.2440  135.0310 O   0  0  0  0  0  1  0  0  0  0  0  0
  187.0550  178.0120  136.3040 C   0  0  0  0  0  0  0  0  0  0  0  0
  187.5480  179.2060  136.8300 O   0  0  0  0  0  1  0  0  0  0  0  0
  185.9490  177.5010  137.2030 C   0  0  0  0  0  1  0  0  0  0  0  0
  1  5  1  0  0  0  0
  1  6  1  0  0  0  0
  2 12  2  0  0  0  0
  2 11  1  0  0  0  0
  3 10  1  0  0  0  0
  4  7  1  0  0  0  0
  4  8  1  0  0  0  0
  7  9  1  1  0  0  0
  8  1  2  0  0  0  0
  9  5  2  0  0  0  0
 10 11  2  0  0  0  0
 11  7  1  0  0  0  0
 12 15  1  0  0  0  0
 13 14  2  0  0  0  0
 13  2  1  0  0  0  0
 14  3  1  0  0  0  0
 15  4  2  0  0  0  0
 16 17  1  6  0  0  0
 16  3  1  0  0  0  0
 16 18  1  0  0  0  0
 17 19  1  0  0  0  0
 19 21  1  6  0  0  0
 19 20  1  0  0  0  0
 20 18  1  0  0  0  0
 22 21  1  6  0  0  0
 22 33  1  0  0  0  0
 23 24  1  0  0  0  0
 24 22  1  0  0  0  0
 24 25  1  0  0  0  0
 26 24  1  0  0  0  0
 27 26  1  0  0  0  0
 28 30  1  0  0  0  0
 28 32  1  0  0  0  0
 29 31  1  0  0  0  0
 30 29  1  0  0  0  0
 31 27  1  0  0  0  0
 32 27  1  0  0  0  0
 33 34  2  0  0  0  0
 35 13  1  0  0  0  0
 37 36  1  0  0  0  0
 37 35  1  0  0  0  0
 38 37  1  0  0  0  0
 39 41  1  0  0  0  0
 39 38  1  0  0  0  0
 40 41  1  0  0  0  0
 41 42  1  0  0  0  0
 41 43  1  0  0  0  0
M  END
>  <MODEL>
9

>  <REMARK>
 VINA RESULT:      -8.5      2.839      6.726
  Name = 
  12 active torsions:
  status: ('A' for Active; 'I' for Inactive)
    1  A    between atoms: C_1  and  C_34
    2  A    between atoms: C_1  and  N_35
    3  A    between atoms: C_2  and  N_13
    4  A    between atoms: C_3  and  C_4
    5  A    between atoms: C_3  and  C_12
    6  A    between atoms: C_4  and  C_15
    7  A    between atoms: C_4  and  C_22
    8  A    between atoms: C_11  and  C_14
    9  A    between atoms: C_14  and  C_22
   10  A    between atoms: C_19  and  C_39
   11  A    between atoms: C_28  and  N_35
   12  A    between atoms: C_28  and  C_39
                            x       y       z     vdW  Elec       q    Type
                         _______ _______ _______ _____ _____    ______ ____

>  <TORSDO>
F 12

$$$$
