=
 OpenBabel10262419513D

 25 27  0  0  1  0  0  0  0  0999 V2000
  187.5230  178.2950  141.2190 C   0  0  0  0  0  0  0  0  0  0  0  0
  187.3610  178.7280  138.8270 O   0  0  0  0  0  1  0  0  0  0  0  0
  185.3650  178.7560  140.1870 C   0  0  0  0  0  0  0  0  0  0  0  0
  184.3810  179.1260  138.7830 Cl  0  0  0  0  0  0  0  0  0  0  0  0
  186.8870  178.1650  142.4570 C   0  0  0  0  0  3  0  0  0  0  0  0
  184.7470  178.6230  141.4320 C   0  0  0  0  0  3  0  0  0  0  0  0
  185.5050  178.3270  142.5730 C   0  0  0  0  0  0  0  0  0  0  0  0
  186.7530  178.5930  140.0720 C   0  0  0  0  0  0  0  0  0  0  0  0
  189.0150  178.1010  141.1800 C   0  0  1  0  0  3  0  0  0  0  0  0
  189.9670  177.2690  139.0990 N   0  0  0  0  0  1  0  0  0  0  0  0
  189.5910  177.8300  142.5100 C   0  0  0  0  0  0  0  0  0  0  0  0
  191.2700  177.0890  144.6950 C   0  0  0  0  0  2  0  0  0  0  0  0
  190.2380  176.4980  142.5370 C   0  0  2  0  0  3  0  0  0  0  0  0
  191.5610  176.5660  143.2880 C   0  0  0  0  0  2  0  0  0  0  0  0
  190.6460  178.4970  144.6670 C   0  0  0  0  0  2  0  0  0  0  0  0
  189.4180  176.8670  140.3800 C   0  0  1  0  0  3  0  0  0  0  0  0
  190.4300  176.1240  141.1410 N   0  0  0  0  0  2  0  0  0  0  0  0
  189.7660  178.7550  143.4640 C   0  0  0  0  0  3  0  0  0  0  0  0
  184.8840  178.1810  143.8970 C   0  0  0  0  0  3  0  0  0  0  0  0
  184.6670  179.2110  144.7060 C   0  0  0  0  0  3  0  0  0  0  0  0
  184.0610  179.0020  145.9790 N   0  0  0  0  0  2  0  0  0  0  0  0
  184.7740  178.3920  147.0190 N   0  0  0  0  0  2  0  0  0  0  0  0
  186.0120  179.1350  147.1940 C   0  0  0  0  0  2  0  0  0  0  0  0
  187.1560  178.1820  147.4900 C   0  0  0  0  0  2  0  0  0  0  0  0
  187.5390  177.4170  146.2390 C   0  0  0  0  0  1  0  0  0  0  0  0
  1  5  1  0  0  0  0
  2  8  1  0  0  0  0
  3  6  2  0  0  0  0
  4  3  1  0  0  0  0
  5  7  2  0  0  0  0
  6  7  1  0  0  0  0
  7 19  1  0  0  0  0
  8  3  1  0  0  0  0
  8  1  2  0  0  0  0
  9  1  1  1  0  0  0
  9 11  1  0  0  0  0
 11 13  1  0  0  0  0
 11 18  2  0  0  0  0
 13 14  1  1  0  0  0
 14 12  1  0  0  0  0
 15 12  1  0  0  0  0
 16 10  1  6  0  0  0
 16 17  1  0  0  0  0
 16  9  1  0  0  0  0
 17 13  1  0  0  0  0
 18 15  1  0  0  0  0
 19 20  2  0  0  0  0
 20 21  1  0  0  0  0
 21 22  1  0  0  0  0
 22 23  1  0  0  0  0
 23 24  1  0  0  0  0
 25 24  1  0  0  0  0
M  END
>  <MODEL>
1

>  <REMARK>
 VINA RESULT:      -7.9      0.000      0.000
  Name = 
  6 active torsions:
  status: ('A' for Active; 'I' for Inactive)
    1  A    between atoms: C_1  and  C_3
    2  A    between atoms: C_2  and  C_12
    3  A    between atoms: C_6  and  C_23
    4  A    between atoms: C_12  and  N_25
    5  A    between atoms: C_15  and  N_21
    6  A    between atoms: N_21  and  N_25
                            x       y       z     vdW  Elec       q    Type
                         _______ _______ _______ _____ _____    ______ ____

>  <TORSDO>
F 6

$$$$
=
 OpenBabel10262419513D

 25 27  0  0  1  0  0  0  0  0999 V2000
  186.5260  177.7960  144.3370 C   0  0  0  0  0  0  0  0  0  0  0  0
  185.0680  177.8740  146.2880 O   0  0  0  0  0  1  0  0  0  0  0  0
  184.2810  178.7270  144.1700 C   0  0  0  0  0  0  0  0  0  0  0  0
  182.7380  179.1560  144.8860 Cl  0  0  0  0  0  0  0  0  0  0  0  0
  186.7230  178.0660  142.9800 C   0  0  0  0  0  3  0  0  0  0  0  0
  184.4960  178.9900  142.8150 C   0  0  0  0  0  3  0  0  0  0  0  0
  185.7180  178.6600  142.2130 C   0  0  0  0  0  0  0  0  0  0  0  0
  185.2910  178.1310  144.9380 C   0  0  0  0  0  0  0  0  0  0  0  0
  187.6610  177.1580  145.0910 C   0  0  1  0  0  3  0  0  0  0  0  0
  187.6920  177.4640  147.5070 N   0  0  0  0  0  1  0  0  0  0  0  0
  188.8760  177.0000  144.2700 C   0  0  0  0  0  0  0  0  0  0  0  0
  191.5360  176.5950  143.3210 C   0  0  0  0  0  2  0  0  0  0  0  0
  190.0010  177.7710  144.8490 C   0  0  2  0  0  3  0  0  0  0  0  0
  191.2870  176.9590  144.7860 C   0  0  0  0  0  2  0  0  0  0  0  0
  190.3890  175.7480  142.7370 C   0  0  0  0  0  2  0  0  0  0  0  0
  188.1470  178.0250  146.2480 C   0  0  1  0  0  3  0  0  0  0  0  0
  189.6140  178.0620  146.2240 N   0  0  0  0  0  2  0  0  0  0  0  0
  189.0300  176.0730  143.3140 C   0  0  0  0  0  3  0  0  0  0  0  0
  185.9740  178.9230  140.7910 C   0  0  0  0  0  3  0  0  0  0  0  0
  185.0970  178.6330  139.8380 C   0  0  0  0  0  3  0  0  0  0  0  0
  185.4060  178.9110  138.4740 N   0  0  0  0  0  2  0  0  0  0  0  0
  186.6900  178.6690  137.9690 N   0  0  0  0  0  2  0  0  0  0  0  0
  186.7540  177.2650  137.5940 C   0  0  0  0  0  2  0  0  0  0  0  0
  188.1580  176.7300  137.8100 C   0  0  0  0  0  2  0  0  0  0  0  0
  188.7250  177.2550  139.1150 C   0  0  0  0  0  1  0  0  0  0  0  0
  1  8  1  0  0  0  0
  3  4  1  0  0  0  0
  3  8  2  0  0  0  0
  5  1  2  0  0  0  0
  6  3  1  0  0  0  0
  7  6  2  0  0  0  0
  7  5  1  0  0  0  0
  8  2  1  0  0  0  0
  9  1  1  6  0  0  0
  9 16  1  0  0  0  0
 11 13  1  0  0  0  0
 11  9  1  0  0  0  0
 12 14  1  0  0  0  0
 13 14  1  1  0  0  0
 13 17  1  0  0  0  0
 15 18  1  0  0  0  0
 15 12  1  0  0  0  0
 16 10  1  1  0  0  0
 17 16  1  0  0  0  0
 18 11  2  0  0  0  0
 19  7  1  0  0  0  0
 20 19  2  0  0  0  0
 21 20  1  0  0  0  0
 22 21  1  0  0  0  0
 23 24  1  0  0  0  0
 23 22  1  0  0  0  0
 24 25  1  0  0  0  0
M  END
>  <MODEL>
2

>  <REMARK>
 VINA RESULT:      -7.7      2.898      5.584
  Name = 
  6 active torsions:
  status: ('A' for Active; 'I' for Inactive)
    1  A    between atoms: C_1  and  C_3
    2  A    between atoms: C_2  and  C_12
    3  A    between atoms: C_6  and  C_23
    4  A    between atoms: C_12  and  N_25
    5  A    between atoms: C_15  and  N_21
    6  A    between atoms: N_21  and  N_25
                            x       y       z     vdW  Elec       q    Type
                         _______ _______ _______ _____ _____    ______ ____

>  <TORSDO>
F 6

$$$$
=
 OpenBabel10262419513D

 25 27  0  0  1  0  0  0  0  0999 V2000
  186.5830  177.7580  144.3290 C   0  0  0  0  0  0  0  0  0  0  0  0
  185.0740  177.8780  146.2380 O   0  0  0  0  0  1  0  0  0  0  0  0
  184.3450  178.6880  144.0830 C   0  0  0  0  0  0  0  0  0  0  0  0
  182.7840  179.1330  144.7490 Cl  0  0  0  0  0  0  0  0  0  0  0  0
  186.8170  178.0000  142.9720 C   0  0  0  0  0  3  0  0  0  0  0  0
  184.5950  178.9210  142.7290 C   0  0  0  0  0  3  0  0  0  0  0  0
  185.8320  178.5780  142.1670 C   0  0  0  0  0  0  0  0  0  0  0  0
  185.3340  178.1070  144.8900 C   0  0  0  0  0  0  0  0  0  0  0  0
  187.6970  177.1360  145.1260 C   0  0  1  0  0  3  0  0  0  0  0  0
  187.6780  177.5110  147.5320 N   0  0  0  0  0  1  0  0  0  0  0  0
  188.9290  176.9460  144.3370 C   0  0  0  0  0  0  0  0  0  0  0  0
  191.6060  176.4970  143.4590 C   0  0  0  0  0  2  0  0  0  0  0  0
  190.0460  177.7260  144.9170 C   0  0  2  0  0  3  0  0  0  0  0  0
  191.3280  176.9050  144.9070 C   0  0  0  0  0  2  0  0  0  0  0  0
  190.4660  175.6410  142.8740 C   0  0  0  0  0  2  0  0  0  0  0  0
  188.1640  178.0320  146.2680 C   0  0  1  0  0  3  0  0  0  0  0  0
  189.6310  178.0600  146.2750 N   0  0  0  0  0  2  0  0  0  0  0  0
  189.0970  175.9910  143.4120 C   0  0  0  0  0  3  0  0  0  0  0  0
  186.1270  178.8110  140.7460 C   0  0  0  0  0  3  0  0  0  0  0  0
  187.2030  178.3170  140.1460 C   0  0  0  0  0  3  0  0  0  0  0  0
  187.4320  178.5800  138.7640 N   0  0  0  0  0  2  0  0  0  0  0  0
  186.3590  178.6810  137.8680 N   0  0  0  0  0  2  0  0  0  0  0  0
  186.2360  177.4010  137.1880 C   0  0  0  0  0  2  0  0  0  0  0  0
  184.7750  177.0850  136.9310 C   0  0  0  0  0  2  0  0  0  0  0  0
  183.9170  177.6070  138.0680 C   0  0  0  0  0  1  0  0  0  0  0  0
  1  8  1  0  0  0  0
  3  4  1  0  0  0  0
  3  8  2  0  0  0  0
  5  1  2  0  0  0  0
  6  3  1  0  0  0  0
  7  6  2  0  0  0  0
  7  5  1  0  0  0  0
  8  2  1  0  0  0  0
  9  1  1  6  0  0  0
  9 16  1  0  0  0  0
 11 13  1  0  0  0  0
 11  9  1  0  0  0  0
 12 14  1  0  0  0  0
 13 14  1  1  0  0  0
 13 17  1  0  0  0  0
 15 18  1  0  0  0  0
 15 12  1  0  0  0  0
 16 17  1  0  0  0  0
 16 10  1  1  0  0  0
 18 11  2  0  0  0  0
 19  7  1  0  0  0  0
 20 19  2  0  0  0  0
 21 20  1  0  0  0  0
 22 21  1  0  0  0  0
 23 22  1  0  0  0  0
 24 23  1  0  0  0  0
 24 25  1  0  0  0  0
M  END
>  <MODEL>
3

>  <REMARK>
 VINA RESULT:      -7.4      2.886      5.811
  Name = 
  6 active torsions:
  status: ('A' for Active; 'I' for Inactive)
    1  A    between atoms: C_1  and  C_3
    2  A    between atoms: C_2  and  C_12
    3  A    between atoms: C_6  and  C_23
    4  A    between atoms: C_12  and  N_25
    5  A    between atoms: C_15  and  N_21
    6  A    between atoms: N_21  and  N_25
                            x       y       z     vdW  Elec       q    Type
                         _______ _______ _______ _____ _____    ______ ____

>  <TORSDO>
F 6

$$$$
=
 OpenBabel10262419513D

 25 27  0  0  1  0  0  0  0  0999 V2000
  187.6520  177.5210  144.4850 C   0  0  0  0  0  0  0  0  0  0  0  0
  187.5870  177.2810  146.9080 O   0  0  0  0  0  1  0  0  0  0  0  0
  185.6410  178.0950  145.7330 C   0  0  0  0  0  0  0  0  0  0  0  0
  184.7590  178.2440  147.2430 Cl  0  0  0  0  0  0  0  0  0  0  0  0
  187.0010  177.8790  143.3000 C   0  0  0  0  0  3  0  0  0  0  0  0
  185.0060  178.4490  144.5400 C   0  0  0  0  0  3  0  0  0  0  0  0
  185.6830  178.3420  143.3180 C   0  0  0  0  0  0  0  0  0  0  0  0
  186.9640  177.6310  145.7140 C   0  0  0  0  0  0  0  0  0  0  0  0
  189.0720  177.0360  144.3770 C   0  0  1  0  0  3  0  0  0  0  0  0
  190.3970  177.0370  146.4210 N   0  0  0  0  0  1  0  0  0  0  0  0
  189.6430  177.2290  143.0310 C   0  0  0  0  0  0  0  0  0  0  0  0
  191.3660  177.4890  140.7730 C   0  0  0  0  0  2  0  0  0  0  0  0
  190.8160  178.1320  143.0870 C   0  0  2  0  0  3  0  0  0  0  0  0
  191.9290  177.6090  142.1890 C   0  0  0  0  0  2  0  0  0  0  0  0
  190.1800  176.5080  140.7080 C   0  0  0  0  0  2  0  0  0  0  0  0
  190.0240  177.8310  145.2650 C   0  0  1  0  0  3  0  0  0  0  0  0
  191.2230  178.1650  144.4860 N   0  0  0  0  0  2  0  0  0  0  0  0
  189.3380  176.4780  141.9640 C   0  0  0  0  0  3  0  0  0  0  0  0
  185.0430  178.7050  142.0460 C   0  0  0  0  0  3  0  0  0  0  0  0
  185.7360  179.0340  140.9620 C   0  0  0  0  0  3  0  0  0  0  0  0
  185.0550  179.3780  139.7580 N   0  0  0  0  0  2  0  0  0  0  0  0
  185.5790  179.0120  138.5110 N   0  0  0  0  0  2  0  0  0  0  0  0
  184.8560  177.8310  138.0640 C   0  0  0  0  0  2  0  0  0  0  0  0
  185.7680  176.9430  137.2360 C   0  0  0  0  0  2  0  0  0  0  0  0
  187.2150  177.1580  137.6370 C   0  0  0  0  0  1  0  0  0  0  0  0
  1  8  1  0  0  0  0
  3  4  1  0  0  0  0
  5  7  1  0  0  0  0
  5  1  2  0  0  0  0
  6  3  1  0  0  0  0
  7  6  2  0  0  0  0
  8  3  2  0  0  0  0
  8  2  1  0  0  0  0
  9  1  1  6  0  0  0
  9 16  1  0  0  0  0
 11 13  1  0  0  0  0
 11  9  1  0  0  0  0
 12 14  1  0  0  0  0
 13 14  1  6  0  0  0
 13 17  1  0  0  0  0
 15 12  1  0  0  0  0
 15 18  1  0  0  0  0
 16 10  1  1  0  0  0
 17 16  1  0  0  0  0
 18 11  2  0  0  0  0
 19  7  1  0  0  0  0
 20 19  2  0  0  0  0
 21 20  1  0  0  0  0
 22 21  1  0  0  0  0
 23 22  1  0  0  0  0
 24 25  1  0  0  0  0
 24 23  1  0  0  0  0
M  END
>  <MODEL>
4

>  <REMARK>
 VINA RESULT:      -7.3      3.397      5.598
  Name = 
  6 active torsions:
  status: ('A' for Active; 'I' for Inactive)
    1  A    between atoms: C_1  and  C_3
    2  A    between atoms: C_2  and  C_12
    3  A    between atoms: C_6  and  C_23
    4  A    between atoms: C_12  and  N_25
    5  A    between atoms: C_15  and  N_21
    6  A    between atoms: N_21  and  N_25
                            x       y       z     vdW  Elec       q    Type
                         _______ _______ _______ _____ _____    ______ ____

>  <TORSDO>
F 6

$$$$
=
 OpenBabel10262419513D

 25 27  0  0  1  0  0  0  0  0999 V2000
  185.2730  178.2530  142.3470 C   0  0  0  0  0  0  0  0  0  0  0  0
  183.0150  178.4550  141.4540 O   0  0  0  0  0  1  0  0  0  0  0  0
  184.9120  178.6360  139.9690 C   0  0  0  0  0  0  0  0  0  0  0  0
  183.8470  178.8820  138.5970 Cl  0  0  0  0  0  0  0  0  0  0  0  0
  186.6530  178.2510  142.1220 C   0  0  0  0  0  3  0  0  0  0  0  0
  186.2930  178.6310  139.7630 C   0  0  0  0  0  3  0  0  0  0  0  0
  187.1700  178.4380  140.8380 C   0  0  0  0  0  0  0  0  0  0  0  0
  184.3930  178.4480  141.2580 C   0  0  0  0  0  0  0  0  0  0  0  0
  184.7990  178.0480  143.7610 C   0  0  1  0  0  3  0  0  0  0  0  0
  182.4980  178.6750  144.2560 N   0  0  0  0  0  1  0  0  0  0  0  0
  185.8950  178.1090  144.7460 C   0  0  0  0  0  0  0  0  0  0  0  0
  187.4710  178.3020  147.1160 C   0  0  0  0  0  2  0  0  0  0  0  0
  185.6780  179.2220  145.6990 C   0  0  2  0  0  3  0  0  0  0  0  0
  186.0190  178.7810  147.1160 C   0  0  0  0  0  2  0  0  0  0  0  0
  187.6830  177.1100  146.1640 C   0  0  0  0  0  2  0  0  0  0  0  0
  183.8650  179.1610  144.2250 C   0  0  1  0  0  3  0  0  0  0  0  0
  184.2710  179.5830  145.5710 N   0  0  0  0  0  2  0  0  0  0  0  0
  186.7950  177.1360  144.9390 C   0  0  0  0  0  3  0  0  0  0  0  0
  188.6280  178.4270  140.6540 C   0  0  0  0  0  3  0  0  0  0  0  0
  189.3920  177.4120  141.0390 C   0  0  0  0  0  3  0  0  0  0  0  0
  190.8020  177.4620  140.8330 N   0  0  0  0  0  2  0  0  0  0  0  0
  191.6830  177.4980  141.9220 N   0  0  0  0  0  2  0  0  0  0  0  0
  191.0800  176.7230  142.9960 C   0  0  0  0  0  2  0  0  0  0  0  0
  191.0680  177.5330  144.2790 C   0  0  0  0  0  2  0  0  0  0  0  0
  191.1650  179.0130  143.9670 C   0  0  0  0  0  1  0  0  0  0  0  0
  3  8  1  0  0  0  0
  4  3  1  0  0  0  0
  5  1  1  0  0  0  0
  6  3  2  0  0  0  0
  6  7  1  0  0  0  0
  7  5  2  0  0  0  0
  8  2  1  0  0  0  0
  8  1  2  0  0  0  0
  9  1  1  6  0  0  0
  9 16  1  0  0  0  0
  9 11  1  0  0  0  0
 11 18  2  0  0  0  0
 11 13  1  0  0  0  0
 13 14  1  1  0  0  0
 14 12  1  0  0  0  0
 15 12  1  0  0  0  0
 16 10  1  1  0  0  0
 16 17  1  0  0  0  0
 17 13  1  0  0  0  0
 18 15  1  0  0  0  0
 19  7  1  0  0  0  0
 19 20  2  0  0  0  0
 21 20  1  0  0  0  0
 21 22  1  0  0  0  0
 22 23  1  0  0  0  0
 23 24  1  0  0  0  0
 25 24  1  0  0  0  0
M  END
>  <MODEL>
5

>  <REMARK>
 VINA RESULT:      -7.2      1.417      5.456
  Name = 
  6 active torsions:
  status: ('A' for Active; 'I' for Inactive)
    1  A    between atoms: C_1  and  C_3
    2  A    between atoms: C_2  and  C_12
    3  A    between atoms: C_6  and  C_23
    4  A    between atoms: C_12  and  N_25
    5  A    between atoms: C_15  and  N_21
    6  A    between atoms: N_21  and  N_25
                            x       y       z     vdW  Elec       q    Type
                         _______ _______ _______ _____ _____    ______ ____

>  <TORSDO>
F 6

$$$$
=
 OpenBabel10262419513D

 25 27  0  0  1  0  0  0  0  0999 V2000
  189.6190  177.6170  140.1020 C   0  0  0  0  0  0  0  0  0  0  0  0
  192.0230  177.4410  140.4550 O   0  0  0  0  0  1  0  0  0  0  0  0
  190.5370  177.5510  142.3570 C   0  0  0  0  0  0  0  0  0  0  0  0
  191.8990  177.4530  143.4590 Cl  0  0  0  0  0  0  0  0  0  0  0  0
  188.3330  177.7130  140.6440 C   0  0  0  0  0  3  0  0  0  0  0  0
  189.2470  177.6470  142.8810 C   0  0  0  0  0  3  0  0  0  0  0  0
  188.1380  177.7280  142.0270 C   0  0  0  0  0  0  0  0  0  0  0  0
  190.7320  177.5360  140.9680 C   0  0  0  0  0  0  0  0  0  0  0  0
  189.7410  177.6120  138.6020 C   0  0  1  0  0  3  0  0  0  0  0  0
  188.9480  179.5890  137.4220 N   0  0  0  0  0  1  0  0  0  0  0  0
  189.7160  176.2530  138.0310 C   0  0  0  0  0  0  0  0  0  0  0  0
  189.5420  173.9790  136.3160 C   0  0  0  0  0  2  0  0  0  0  0  0
  188.5580  176.0890  137.1220 C   0  0  2  0  0  3  0  0  0  0  0  0
  188.9690  175.3260  135.8710 C   0  0  0  0  0  2  0  0  0  0  0  0
  190.7790  174.1510  137.2180 C   0  0  0  0  0  2  0  0  0  0  0  0
  188.5540  178.2850  137.9220 C   0  0  1  0  0  3  0  0  0  0  0  0
  188.1110  177.4410  136.8060 N   0  0  0  0  0  2  0  0  0  0  0  0
  190.7390  175.3880  138.0870 C   0  0  0  0  0  3  0  0  0  0  0  0
  186.7680  177.8290  142.5480 C   0  0  0  0  0  3  0  0  0  0  0  0
  185.9800  178.8680  142.2980 C   0  0  0  0  0  3  0  0  0  0  0  0
  184.6600  178.9060  142.8340 N   0  0  0  0  0  2  0  0  0  0  0  0
  184.3540  179.7330  143.9230 N   0  0  0  0  0  2  0  0  0  0  0  0
  184.2960  178.8900  145.1080 C   0  0  0  0  0  2  0  0  0  0  0  0
  185.5300  179.1090  145.9640 C   0  0  0  0  0  2  0  0  0  0  0  0
  186.2470  177.7930  146.1980 C   0  0  0  0  0  1  0  0  0  0  0  0
  1  5  2  0  0  0  0
  1  8  1  0  0  0  0
  2  8  1  0  0  0  0
  3  6  1  0  0  0  0
  3  4  1  0  0  0  0
  5  7  1  0  0  0  0
  7 19  1  0  0  0  0
  7  6  2  0  0  0  0
  8  3  2  0  0  0  0
  9  1  1  1  0  0  0
 11 18  2  0  0  0  0
 11  9  1  0  0  0  0
 12 15  1  0  0  0  0
 13 14  1  6  0  0  0
 13 11  1  0  0  0  0
 14 12  1  0  0  0  0
 15 18  1  0  0  0  0
 16 10  1  6  0  0  0
 16  9  1  0  0  0  0
 17 13  1  0  0  0  0
 17 16  1  0  0  0  0
 20 19  2  0  0  0  0
 20 21  1  0  0  0  0
 21 22  1  0  0  0  0
 22 23  1  0  0  0  0
 23 24  1  0  0  0  0
 24 25  1  0  0  0  0
M  END
>  <MODEL>
6

>  <REMARK>
 VINA RESULT:      -7.1      3.210      4.973
  Name = 
  6 active torsions:
  status: ('A' for Active; 'I' for Inactive)
    1  A    between atoms: C_1  and  C_3
    2  A    between atoms: C_2  and  C_12
    3  A    between atoms: C_6  and  C_23
    4  A    between atoms: C_12  and  N_25
    5  A    between atoms: C_15  and  N_21
    6  A    between atoms: N_21  and  N_25
                            x       y       z     vdW  Elec       q    Type
                         _______ _______ _______ _____ _____    ______ ____

>  <TORSDO>
F 6

$$$$
=
 OpenBabel10262419513D

 25 27  0  0  1  0  0  0  0  0999 V2000
  188.7570  177.1870  145.3250 C   0  0  0  0  0  0  0  0  0  0  0  0
  190.1610  177.0700  147.3120 O   0  0  0  0  0  1  0  0  0  0  0  0
  187.9070  177.9180  147.4870 C   0  0  0  0  0  0  0  0  0  0  0  0
  188.1120  178.1840  149.2090 Cl  0  0  0  0  0  0  0  0  0  0  0  0
  187.5280  177.5180  144.7460 C   0  0  0  0  0  3  0  0  0  0  0  0
  186.6860  178.2430  146.8920 C   0  0  0  0  0  3  0  0  0  0  0  0
  186.4900  178.0440  145.5190 C   0  0  0  0  0  0  0  0  0  0  0  0
  188.9480  177.3900  146.7100 C   0  0  0  0  0  0  0  0  0  0  0  0
  189.8230  176.6290  144.4210 C   0  0  1  0  0  3  0  0  0  0  0  0
  191.9100  175.9400  145.4690 N   0  0  0  0  0  1  0  0  0  0  0  0
  189.7290  177.1430  143.0410 C   0  0  0  0  0  0  0  0  0  0  0  0
  190.2160  177.8760  140.3270 C   0  0  0  0  0  2  0  0  0  0  0  0
  190.9570  177.8870  142.6770 C   0  0  2  0  0  3  0  0  0  0  0  0
  191.3840  177.5430  141.2570 C   0  0  0  0  0  2  0  0  0  0  0  0
  188.9560  177.0610  140.6740 C   0  0  0  0  0  2  0  0  0  0  0  0
  191.2240  177.0560  144.8450 C   0  0  1  0  0  3  0  0  0  0  0  0
  191.9640  177.4900  143.6540 N   0  0  0  0  0  2  0  0  0  0  0  0
  188.8100  176.7520  142.1480 C   0  0  0  0  0  3  0  0  0  0  0  0
  185.2170  178.3750  144.8640 C   0  0  0  0  0  3  0  0  0  0  0  0
  185.0540  178.3270  143.5470 C   0  0  0  0  0  3  0  0  0  0  0  0
  183.7930  178.6610  142.9720 N   0  0  0  0  0  2  0  0  0  0  0  0
  182.6780  178.9030  143.7860 N   0  0  0  0  0  2  0  0  0  0  0  0
  181.6010  179.3660  142.9250 C   0  0  0  0  0  2  0  0  0  0  0  0
  180.4140  178.4260  143.0240 C   0  0  0  0  0  2  0  0  0  0  0  0
  179.6940  178.6250  144.3430 C   0  0  0  0  0  1  0  0  0  0  0  0
  1  8  1  0  0  0  0
  3  4  1  0  0  0  0
  5  1  2  0  0  0  0
  5  7  1  0  0  0  0
  6  3  1  0  0  0  0
  7  6  2  0  0  0  0
  8  2  1  0  0  0  0
  8  3  2  0  0  0  0
  9 16  1  0  0  0  0
  9  1  1  1  0  0  0
 11  9  1  0  0  0  0
 12 15  1  0  0  0  0
 12 14  1  0  0  0  0
 13 14  1  6  0  0  0
 13 11  1  0  0  0  0
 13 17  1  0  0  0  0
 15 18  1  0  0  0  0
 16 10  1  6  0  0  0
 17 16  1  0  0  0  0
 18 11  2  0  0  0  0
 19  7  1  0  0  0  0
 20 19  2  0  0  0  0
 21 20  1  0  0  0  0
 21 22  1  0  0  0  0
 23 24  1  0  0  0  0
 23 22  1  0  0  0  0
 24 25  1  0  0  0  0
M  END
>  <MODEL>
7

>  <REMARK>
 VINA RESULT:      -6.9      3.668      5.416
  Name = 
  6 active torsions:
  status: ('A' for Active; 'I' for Inactive)
    1  A    between atoms: C_1  and  C_3
    2  A    between atoms: C_2  and  C_12
    3  A    between atoms: C_6  and  C_23
    4  A    between atoms: C_12  and  N_25
    5  A    between atoms: C_15  and  N_21
    6  A    between atoms: N_21  and  N_25
                            x       y       z     vdW  Elec       q    Type
                         _______ _______ _______ _____ _____    ______ ____

>  <TORSDO>
F 6

$$$$
=
 OpenBabel10262419513D

 25 27  0  0  1  0  0  0  0  0999 V2000
  184.8680  178.5600  143.3240 C   0  0  0  0  0  0  0  0  0  0  0  0
  183.5610  179.4740  145.1660 O   0  0  0  0  0  1  0  0  0  0  0  0
  185.6490  178.3500  145.6220 C   0  0  0  0  0  0  0  0  0  0  0  0
  185.4530  178.6280  147.3430 Cl  0  0  0  0  0  0  0  0  0  0  0  0
  186.0090  177.8780  142.8900 C   0  0  0  0  0  3  0  0  0  0  0  0
  186.7820  177.6700  145.1700 C   0  0  0  0  0  3  0  0  0  0  0  0
  186.9680  177.4310  143.8020 C   0  0  0  0  0  0  0  0  0  0  0  0
  184.6870  178.7980  144.7050 C   0  0  0  0  0  0  0  0  0  0  0  0
  183.8830  179.0030  142.2770 C   0  0  1  0  0  3  0  0  0  0  0  0
  181.6120  179.4680  143.0240 N   0  0  0  0  0  1  0  0  0  0  0  0
  184.2150  178.5030  140.9300 C   0  0  0  0  0  0  0  0  0  0  0  0
  184.1810  177.7260  138.1850 C   0  0  0  0  0  2  0  0  0  0  0  0
  183.1330  177.6340  140.4140 C   0  0  2  0  0  3  0  0  0  0  0  0
  182.8690  177.9330  138.9440 C   0  0  0  0  0  2  0  0  0  0  0  0
  185.2900  178.6680  138.6880 C   0  0  0  0  0  2  0  0  0  0  0  0
  182.4890  178.4310  142.5140 C   0  0  1  0  0  3  0  0  0  0  0  0
  181.9660  177.9230  141.2400 N   0  0  0  0  0  2  0  0  0  0  0  0
  185.2020  178.9890  140.1640 C   0  0  0  0  0  3  0  0  0  0  0  0
  188.1490  176.7200  143.2950 C   0  0  0  0  0  3  0  0  0  0  0  0
  189.3850  177.1790  143.4500 C   0  0  0  0  0  3  0  0  0  0  0  0
  190.4900  176.4420  142.9330 N   0  0  0  0  0  2  0  0  0  0  0  0
  191.5240  176.0180  143.7790 N   0  0  0  0  0  2  0  0  0  0  0  0
  191.6570  177.0070  144.8370 C   0  0  0  0  0  2  0  0  0  0  0  0
  191.6810  176.3220  146.1910 C   0  0  0  0  0  2  0  0  0  0  0  0
  190.4850  176.7520  147.0180 C   0  0  0  0  0  1  0  0  0  0  0  0
  1  8  1  0  0  0  0
  3  4  1  0  0  0  0
  5  1  2  0  0  0  0
  5  7  1  0  0  0  0
  6  3  1  0  0  0  0
  7  6  2  0  0  0  0
  8  2  1  0  0  0  0
  8  3  2  0  0  0  0
  9 16  1  0  0  0  0
  9  1  1  1  0  0  0
 11  9  1  0  0  0  0
 12 15  1  0  0  0  0
 12 14  1  0  0  0  0
 13 14  1  6  0  0  0
 13 11  1  0  0  0  0
 13 17  1  0  0  0  0
 15 18  1  0  0  0  0
 16 10  1  6  0  0  0
 17 16  1  0  0  0  0
 18 11  2  0  0  0  0
 19 20  2  0  0  0  0
 19  7  1  0  0  0  0
 21 20  1  0  0  0  0
 21 22  1  0  0  0  0
 22 23  1  0  0  0  0
 23 24  1  0  0  0  0
 24 25  1  0  0  0  0
M  END
>  <MODEL>
8

>  <REMARK>
 VINA RESULT:      -6.9      3.099      6.575
  Name = 
  6 active torsions:
  status: ('A' for Active; 'I' for Inactive)
    1  A    between atoms: C_1  and  C_3
    2  A    between atoms: C_2  and  C_12
    3  A    between atoms: C_6  and  C_23
    4  A    between atoms: C_12  and  N_25
    5  A    between atoms: C_15  and  N_21
    6  A    between atoms: N_21  and  N_25
                            x       y       z     vdW  Elec       q    Type
                         _______ _______ _______ _____ _____    ______ ____

>  <TORSDO>
F 6

$$$$
=
 OpenBabel10262419513D

 25 27  0  0  1  0  0  0  0  0999 V2000
  186.2280  178.3910  144.7490 C   0  0  0  0  0  0  0  0  0  0  0  0
  185.5820  179.1570  146.9690 O   0  0  0  0  0  1  0  0  0  0  0  0
  187.5970  177.8550  146.6910 C   0  0  0  0  0  0  0  0  0  0  0  0
  187.9180  177.9360  148.4130 Cl  0  0  0  0  0  0  0  0  0  0  0  0
  187.1300  177.6940  143.9390 C   0  0  0  0  0  3  0  0  0  0  0  0
  188.4880  177.1640  145.8670 C   0  0  0  0  0  3  0  0  0  0  0  0
  188.2590  177.0800  144.4870 C   0  0  0  0  0  0  0  0  0  0  0  0
  186.4640  178.4710  146.1390 C   0  0  0  0  0  0  0  0  0  0  0  0
  185.0360  179.0190  144.0790 C   0  0  1  0  0  3  0  0  0  0  0  0
  183.0580  179.3770  145.4540 N   0  0  0  0  0  1  0  0  0  0  0  0
  184.9880  178.7540  142.6290 C   0  0  0  0  0  0  0  0  0  0  0  0
  184.2150  178.4590  139.8990 C   0  0  0  0  0  2  0  0  0  0  0  0
  183.7630  178.0000  142.2770 C   0  0  2  0  0  3  0  0  0  0  0  0
  183.1520  178.5490  140.9950 C   0  0  0  0  0  2  0  0  0  0  0  0
  185.4670  179.2880  140.2430 C   0  0  0  0  0  2  0  0  0  0  0  0
  183.7180  178.4320  144.5730 C   0  0  1  0  0  3  0  0  0  0  0  0
  182.8620  178.1570  143.4120 N   0  0  0  0  0  2  0  0  0  0  0  0
  185.7740  179.3520  141.7230 C   0  0  0  0  0  3  0  0  0  0  0  0
  189.1770  176.3610  143.5930 C   0  0  0  0  0  3  0  0  0  0  0  0
  189.4330  176.7610  142.3540 C   0  0  0  0  0  3  0  0  0  0  0  0
  190.3330  176.0180  141.5360 N   0  0  0  0  0  2  0  0  0  0  0  0
  190.5480  176.3780  140.1990 N   0  0  0  0  0  2  0  0  0  0  0  0
  189.8570  177.6380  139.9700 C   0  0  0  0  0  2  0  0  0  0  0  0
  188.9040  177.5030  138.7970 C   0  0  0  0  0  2  0  0  0  0  0  0
  189.0500  178.6890  137.8630 C   0  0  0  0  0  1  0  0  0  0  0  0
  1  8  1  0  0  0  0
  3  4  1  0  0  0  0
  5  7  1  0  0  0  0
  5  1  2  0  0  0  0
  6  3  1  0  0  0  0
  7  6  2  0  0  0  0
  8  3  2  0  0  0  0
  8  2  1  0  0  0  0
  9 16  1  0  0  0  0
  9  1  1  1  0  0  0
 11  9  1  0  0  0  0
 12 15  1  0  0  0  0
 12 14  1  0  0  0  0
 13 14  1  6  0  0  0
 13 11  1  0  0  0  0
 13 17  1  0  0  0  0
 15 18  1  0  0  0  0
 16 10  1  1  0  0  0
 17 16  1  0  0  0  0
 18 11  2  0  0  0  0
 19  7  1  0  0  0  0
 20 19  2  0  0  0  0
 21 20  1  0  0  0  0
 22 21  1  0  0  0  0
 23 22  1  0  0  0  0
 24 23  1  0  0  0  0
 25 24  1  0  0  0  0
M  END
>  <MODEL>
9

>  <REMARK>
 VINA RESULT:      -6.8      3.048      7.158
  Name = 
  6 active torsions:
  status: ('A' for Active; 'I' for Inactive)
    1  A    between atoms: C_1  and  C_3
    2  A    between atoms: C_2  and  C_12
    3  A    between atoms: C_6  and  C_23
    4  A    between atoms: C_12  and  N_25
    5  A    between atoms: C_15  and  N_21
    6  A    between atoms: N_21  and  N_25
                            x       y       z     vdW  Elec       q    Type
                         _______ _______ _______ _____ _____    ______ ____

>  <TORSDO>
F 6

$$$$
