=
 OpenBabel10262422563D

 37 42  0  0  1  0  0  0  0  0999 V2000
  184.3580  175.4460  136.3750 C   0  0  2  0  0  3  0  0  0  0  0  0
  182.8870  177.5710  137.4340 C   0  0  0  0  0  2  0  0  0  0  0  0
  186.5250  176.5650  137.3400 C   0  0  1  0  0  3  0  0  0  0  0  0
  185.6090  177.7960  137.6500 C   0  0  1  0  0  3  0  0  0  0  0  0
  184.2540  177.2010  137.9460 C   0  0  2  0  0  3  0  0  0  0  0  0
  185.9090  175.5320  136.3460 C   0  0  0  0  0  2  0  0  0  0  0  0
  183.8500  176.8880  136.4960 C   0  0  1  0  0  3  0  0  0  0  0  0
  191.7850  176.2160  138.4560 O   0  0  0  0  0  0  0  0  0  0  0  0
  187.9230  176.8820  136.9680 N   0  0  1  0  0  0  0  0  0  0  0  0
  190.2220  175.7580  136.7070 C   0  0  1  0  0  3  0  0  0  0  0  0
  188.8470  175.8000  137.4090 C   0  0  1  0  0  3  0  0  0  0  0  0
  190.0410  176.0120  135.2220 C   0  0  0  0  0  2  0  0  0  0  0  0
  188.9180  175.6310  138.8150 O   0  0  0  0  0  0  0  0  0  0  0  0
  190.3700  176.8670  140.2760 C   0  0  0  0  0  2  0  0  0  0  0  0
  187.1490  178.2950  135.1000 C   0  0  0  0  0  1  0  0  0  0  0  0
  189.3280  177.2640  135.0310 N   0  0  0  0  0  2  0  0  0  0  0  0
  189.1050  176.8800  139.4350 C   0  0  0  0  0  2  0  0  0  0  0  0
  187.9610  177.0720  135.5030 C   0  0  1  0  0  3  0  0  0  0  0  0
  191.2440  176.7340  137.2760 C   0  0  0  0  0  2  0  0  0  0  0  0
  191.5750  177.2110  139.4130 C   0  0  0  0  0  2  0  0  0  0  0  0
  183.7960  174.4370  137.3980 C   0  0  2  0  0  3  0  0  0  0  0  0
  184.7590  173.2760  137.6170 C   0  0  0  0  0  2  0  0  0  0  0  0
  185.1870  171.6180  135.8320 C   0  0  0  0  0  1  0  0  0  0  0  0
  184.2340  172.0280  136.9340 C   0  0  0  0  0  2  0  0  0  0  0  0
  182.4700  173.8850  136.8990 C   0  0  0  0  0  2  0  0  0  0  0  0
  180.1930  174.4340  136.9360 C   0  0  0  0  0  2  0  0  0  0  0  0
  181.3930  174.3120  137.7760 N   0  0  0  0  0  0  0  0  0  0  0  0
  180.3860  173.2410  137.7480 C   0  0  0  0  0  2  0  0  0  0  0  0
  186.1080  178.5450  138.8740 C   0  0  0  0  0  2  0  0  0  0  0  0
  184.9360  179.0410  139.7010 C   0  0  0  0  0  2  0  0  0  0  0  0
  186.4590  178.3680  141.5690 C   0  0  0  0  0  3  0  0  0  0  0  0
  185.1890  178.7780  141.1440 C   0  0  0  0  0  0  0  0  0  0  0  0
  184.1490  178.9020  142.0730 C   0  0  0  0  0  3  0  0  0  0  0  0
  183.2770  178.7640  144.4090 C   0  0  0  0  0  1  0  0  0  0  0  0
  185.6510  178.2230  143.8480 C   0  0  0  0  0  3  0  0  0  0  0  0
  184.3810  178.6280  143.4240 C   0  0  0  0  0  0  0  0  0  0  0  0
  186.6890  178.0940  142.9200 C   0  0  0  0  0  3  0  0  0  0  0  0
  1  7  1  0  0  0  0
  1 21  1  1  0  0  0
  3  6  1  6  0  0  0
  3  4  1  0  0  0  0
  4  5  1  0  0  0  0
  4 29  1  1  0  0  0
  5  2  1  6  0  0  0
  6  1  1  0  0  0  0
  7  2  1  1  0  0  0
  7  5  1  0  0  0  0
  8 20  1  0  0  0  0
  9  3  1  6  0  0  0
  9 11  1  0  0  0  0
 10 12  1  6  0  0  0
 10 19  1  0  0  0  0
 10 11  1  0  0  0  0
 11 13  1  1  0  0  0
 13 17  1  0  0  0  0
 16 12  1  0  0  0  0
 16 18  1  0  0  0  0
 17 14  1  0  0  0  0
 18 15  1  1  0  0  0
 18  9  1  0  0  0  0
 19  8  1  0  0  0  0
 20 14  1  0  0  0  0
 21 25  1  6  0  0  0
 21 22  1  0  0  0  0
 23 24  1  0  0  0  0
 24 22  1  0  0  0  0
 25 27  1  0  0  0  0
 26 28  1  0  0  0  0
 26 27  1  0  0  0  0
 28 27  1  0  0  0  0
 29 30  1  0  0  0  0
 30 32  1  0  0  0  0
 31 37  1  0  0  0  0
 32 31  2  0  0  0  0
 32 33  1  0  0  0  0
 33 36  2  0  0  0  0
 36 35  1  0  0  0  0
 36 34  1  0  0  0  0
 37 35  2  0  0  0  0
M  END
>  <MODEL>
1

>  <REMARK>
 VINA RESULT:      -6.2      0.000      0.000
  Name = 
  9 active torsions:
  status: ('A' for Active; 'I' for Inactive)
    1  A    between atoms: C_1  and  C_33
    2  A    between atoms: N_4  and  C_10
    3  A    between atoms: C_5  and  C_23
    4  A    between atoms: C_5  and  C_33
    5  A    between atoms: C_6  and  C_31
    6  A    between atoms: C_14  and  C_37
    7  A    between atoms: C_17  and  N_26
    8  A    between atoms: C_17  and  C_33
    9  A    between atoms: C_31  and  C_37
                            x       y       z     vdW  Elec       q    Type
                         _______ _______ _______ _____ _____    ______ ____

>  <TORSDO>
F 9

$$$$
=
 OpenBabel10262422563D

 37 42  0  0  1  0  0  0  0  0999 V2000
  188.9390  178.2270  139.6670 C   0  0  2  0  0  3  0  0  0  0  0  0
  191.5120  177.1410  139.6810 C   0  0  0  0  0  2  0  0  0  0  0  0
  188.2630  176.4080  137.9030 C   0  0  1  0  0  3  0  0  0  0  0  0
  189.7910  176.0760  137.8340 C   0  0  1  0  0  3  0  0  0  0  0  0
  190.3090  176.3610  139.2230 C   0  0  2  0  0  3  0  0  0  0  0  0
  187.9250  177.7710  138.5820 C   0  0  0  0  0  2  0  0  0  0  0  0
  190.3330  177.8940  139.1210 C   0  0  1  0  0  3  0  0  0  0  0  0
  184.3150  173.9900  135.1460 O   0  0  0  0  0  0  0  0  0  0  0  0
  187.5140  176.2530  136.6340 N   0  0  1  0  0  0  0  0  0  0  0  0
  185.1050  176.1670  135.7380 C   0  0  1  0  0  3  0  0  0  0  0  0
  186.0890  175.9080  136.9000 C   0  0  1  0  0  3  0  0  0  0  0  0
  185.4310  177.4970  135.0840 C   0  0  0  0  0  2  0  0  0  0  0  0
  185.9020  174.6560  137.5390 O   0  0  0  0  0  0  0  0  0  0  0  0
  185.7490  172.5440  136.4070 C   0  0  0  0  0  2  0  0  0  0  0  0
  189.0870  177.7580  135.4740 C   0  0  0  0  0  1  0  0  0  0  0  0
  186.8260  177.5030  134.6770 N   0  0  0  0  0  2  0  0  0  0  0  0
  186.6550  173.6680  136.8800 C   0  0  0  0  0  2  0  0  0  0  0  0
  187.6410  177.5210  135.8860 C   0  0  1  0  0  3  0  0  0  0  0  0
  185.0790  175.0660  134.6850 C   0  0  0  0  0  2  0  0  0  0  0  0
  185.1600  172.8830  135.0450 C   0  0  0  0  0  2  0  0  0  0  0  0
  188.6230  177.7140  141.0880 C   0  0  2  0  0  3  0  0  0  0  0  0
  187.1900  178.0400  141.4890 C   0  0  0  0  0  2  0  0  0  0  0  0
  185.7100  178.2620  143.4580 C   0  0  0  0  0  1  0  0  0  0  0  0
  186.9140  177.5400  142.8930 C   0  0  0  0  0  2  0  0  0  0  0  0
  189.5700  178.3590  142.0880 C   0  0  0  0  0  2  0  0  0  0  0  0
  191.5040  177.9360  143.3390 C   0  0  0  0  0  2  0  0  0  0  0  0
  190.2520  177.3340  142.8590 N   0  0  0  0  0  0  0  0  0  0  0  0
  190.3570  177.8470  144.2320 C   0  0  0  0  0  2  0  0  0  0  0  0
  190.0110  174.6090  137.5050 C   0  0  0  0  0  2  0  0  0  0  0  0
  190.7920  174.4730  136.2100 C   0  0  0  0  0  2  0  0  0  0  0  0
  192.8640  175.8060  135.7750 C   0  0  0  0  0  3  0  0  0  0  0  0
  192.2310  174.7590  136.4560 C   0  0  0  0  0  0  0  0  0  0  0  0
  192.9630  173.9580  137.3400 C   0  0  0  0  0  3  0  0  0  0  0  0
  195.0980  173.3610  138.4930 C   0  0  0  0  0  1  0  0  0  0  0  0
  194.9530  175.2590  136.8730 C   0  0  0  0  0  3  0  0  0  0  0  0
  194.3220  174.2110  137.5510 C   0  0  0  0  0  0  0  0  0  0  0  0
  194.2230  176.0560  135.9860 C   0  0  0  0  0  3  0  0  0  0  0  0
  1 21  1  1  0  0  0
  3  6  1  6  0  0  0
  4 29  1  1  0  0  0
  4  3  1  0  0  0  0
  4  5  1  0  0  0  0
  5  2  1  6  0  0  0
  6  1  1  0  0  0  0
  7  5  1  0  0  0  0
  7  1  1  0  0  0  0
  7  2  1  1  0  0  0
  9 11  1  0  0  0  0
  9  3  1  1  0  0  0
 10 19  1  6  0  0  0
 10 11  1  0  0  0  0
 11 13  1  6  0  0  0
 12 10  1  0  0  0  0
 14 17  1  0  0  0  0
 16 12  1  0  0  0  0
 16 18  1  0  0  0  0
 17 13  1  0  0  0  0
 18 15  1  6  0  0  0
 18  9  1  0  0  0  0
 19  8  1  0  0  0  0
 20  8  1  0  0  0  0
 20 14  1  0  0  0  0
 21 22  1  1  0  0  0
 21 25  1  0  0  0  0
 22 24  1  0  0  0  0
 24 23  1  0  0  0  0
 25 27  1  0  0  0  0
 26 28  1  0  0  0  0
 27 26  1  0  0  0  0
 27 28  1  0  0  0  0
 30 32  1  0  0  0  0
 30 29  1  0  0  0  0
 31 37  2  0  0  0  0
 31 32  1  0  0  0  0
 32 33  2  0  0  0  0
 33 36  1  0  0  0  0
 35 36  2  0  0  0  0
 36 34  1  0  0  0  0
 37 35  1  0  0  0  0
M  END
>  <MODEL>
2

>  <REMARK>
 VINA RESULT:      -5.9      2.654      8.102
  Name = 
  9 active torsions:
  status: ('A' for Active; 'I' for Inactive)
    1  A    between atoms: C_1  and  C_33
    2  A    between atoms: N_4  and  C_10
    3  A    between atoms: C_5  and  C_23
    4  A    between atoms: C_5  and  C_33
    5  A    between atoms: C_6  and  C_31
    6  A    between atoms: C_14  and  C_37
    7  A    between atoms: C_17  and  N_26
    8  A    between atoms: C_17  and  C_33
    9  A    between atoms: C_31  and  C_37
                            x       y       z     vdW  Elec       q    Type
                         _______ _______ _______ _____ _____    ______ ____

>  <TORSDO>
F 9

$$$$
=
 OpenBabel10262422563D

 37 42  0  0  1  0  0  0  0  0999 V2000
  185.9770  176.2300  136.6410 C   0  0  2  0  0  3  0  0  0  0  0  0
  185.0340  178.3500  138.1960 C   0  0  0  0  0  2  0  0  0  0  0  0
  188.3660  176.6650  137.6330 C   0  0  1  0  0  3  0  0  0  0  0  0
  187.7460  177.9670  138.2420 C   0  0  1  0  0  3  0  0  0  0  0  0
  186.3060  177.6140  138.5210 C   0  0  2  0  0  3  0  0  0  0  0  0
  187.5080  176.0030  136.5100 C   0  0  0  0  0  2  0  0  0  0  0  0
  185.7940  177.6900  137.0740 C   0  0  1  0  0  3  0  0  0  0  0  0
  193.5750  176.0890  138.8850 O   0  0  0  0  0  0  0  0  0  0  0  0
  189.7860  176.7600  137.2230 N   0  0  1  0  0  0  0  0  0  0  0  0
  191.9680  175.3980  137.2570 C   0  0  1  0  0  3  0  0  0  0  0  0
  190.6060  175.7230  137.9090 C   0  0  1  0  0  3  0  0  0  0  0  0
  191.8040  175.3280  135.7500 C   0  0  0  0  0  2  0  0  0  0  0  0
  190.6680  175.8680  139.3180 O   0  0  0  0  0  0  0  0  0  0  0  0
  192.2360  177.2600  140.4890 C   0  0  0  0  0  2  0  0  0  0  0  0
  189.1390  177.7830  135.0730 C   0  0  0  0  0  1  0  0  0  0  0  0
  191.2100  176.5650  135.2730 N   0  0  0  0  0  2  0  0  0  0  0  0
  190.9730  177.2010  139.6470 C   0  0  0  0  0  2  0  0  0  0  0  0
  189.8340  176.6120  135.7530 C   0  0  1  0  0  3  0  0  0  0  0  0
  193.0790  176.3780  137.6110 C   0  0  0  0  0  2  0  0  0  0  0  0
  193.4640  177.2890  139.5920 C   0  0  0  0  0  2  0  0  0  0  0  0
  185.2470  175.1700  137.4920 C   0  0  2  0  0  3  0  0  0  0  0  0
  185.8690  173.7910  137.3120 C   0  0  0  0  0  2  0  0  0  0  0  0
  184.7600  171.7840  136.3830 C   0  0  0  0  0  1  0  0  0  0  0  0
  184.8350  172.7140  137.5750 C   0  0  0  0  0  2  0  0  0  0  0  0
  183.7830  175.1040  137.0850 C   0  0  0  0  0  2  0  0  0  0  0  0
  182.5380  174.6090  135.1650 C   0  0  0  0  0  2  0  0  0  0  0  0
  183.6440  175.4300  135.6760 N   0  0  0  0  0  0  0  0  0  0  0  0
  182.3000  176.0020  135.5130 C   0  0  0  0  0  2  0  0  0  0  0  0
  188.4370  178.3350  139.5440 C   0  0  0  0  0  2  0  0  0  0  0  0
  187.4160  178.4710  140.6600 C   0  0  0  0  0  2  0  0  0  0  0  0
  187.3090  177.2780  142.8570 C   0  0  0  0  0  3  0  0  0  0  0  0
  188.0300  178.0720  141.9560 C   0  0  0  0  0  0  0  0  0  0  0  0
  189.3120  178.5210  142.2920 C   0  0  0  0  0  3  0  0  0  0  0  0
  191.2400  178.6430  143.8750 C   0  0  0  0  0  1  0  0  0  0  0  0
  189.1580  177.3730  144.4190 C   0  0  0  0  0  3  0  0  0  0  0  0
  189.8770  178.1680  143.5210 C   0  0  0  0  0  0  0  0  0  0  0  0
  187.8750  176.9280  144.0860 C   0  0  0  0  0  3  0  0  0  0  0  0
  1  7  1  0  0  0  0
  1 21  1  1  0  0  0
  3  6  1  6  0  0  0
  3  4  1  0  0  0  0
  4  5  1  0  0  0  0
  4 29  1  1  0  0  0
  5  2  1  1  0  0  0
  6  1  1  0  0  0  0
  7  2  1  1  0  0  0
  7  5  1  0  0  0  0
  8 20  1  0  0  0  0
  9  3  1  1  0  0  0
  9 11  1  0  0  0  0
 10 12  1  6  0  0  0
 10 19  1  0  0  0  0
 10 11  1  0  0  0  0
 11 13  1  1  0  0  0
 13 17  1  0  0  0  0
 16 12  1  0  0  0  0
 16 18  1  0  0  0  0
 17 14  1  0  0  0  0
 18 15  1  6  0  0  0
 18  9  1  0  0  0  0
 19  8  1  0  0  0  0
 20 14  1  0  0  0  0
 21 25  1  6  0  0  0
 22 21  1  0  0  0  0
 22 24  1  0  0  0  0
 23 24  1  0  0  0  0
 26 28  1  0  0  0  0
 26 27  1  0  0  0  0
 27 25  1  0  0  0  0
 28 27  1  0  0  0  0
 29 30  1  0  0  0  0
 30 32  1  0  0  0  0
 31 37  1  0  0  0  0
 32 33  1  0  0  0  0
 32 31  2  0  0  0  0
 33 36  2  0  0  0  0
 36 34  1  0  0  0  0
 36 35  1  0  0  0  0
 37 35  2  0  0  0  0
M  END
>  <MODEL>
3

>  <REMARK>
 VINA RESULT:      -5.8      1.954      2.785
  Name = 
  9 active torsions:
  status: ('A' for Active; 'I' for Inactive)
    1  A    between atoms: C_1  and  C_33
    2  A    between atoms: N_4  and  C_10
    3  A    between atoms: C_5  and  C_23
    4  A    between atoms: C_5  and  C_33
    5  A    between atoms: C_6  and  C_31
    6  A    between atoms: C_14  and  C_37
    7  A    between atoms: C_17  and  N_26
    8  A    between atoms: C_17  and  C_33
    9  A    between atoms: C_31  and  C_37
                            x       y       z     vdW  Elec       q    Type
                         _______ _______ _______ _____ _____    ______ ____

>  <TORSDO>
F 9

$$$$
=
 OpenBabel10262422563D

 37 42  0  0  1  0  0  0  0  0999 V2000
  185.4940  177.5490  137.3350 C   0  0  2  0  0  3  0  0  0  0  0  0
  183.7690  179.1620  138.8270 C   0  0  0  0  0  2  0  0  0  0  0  0
  187.2050  177.6770  139.3190 C   0  0  1  0  0  3  0  0  0  0  0  0
  186.2510  178.7640  139.9170 C   0  0  1  0  0  3  0  0  0  0  0  0
  184.8710  178.3550  139.4610 C   0  0  2  0  0  3  0  0  0  0  0  0
  186.9600  177.3570  137.8110 C   0  0  0  0  0  2  0  0  0  0  0  0
  184.9890  178.8330  138.0050 C   0  0  1  0  0  3  0  0  0  0  0  0
  191.4230  176.9770  142.5980 O   0  0  0  0  0  0  0  0  0  0  0  0
  188.6490  177.8730  139.5860 N   0  0  1  0  0  0  0  0  0  0  0  0
  190.7320  176.5680  140.3470 C   0  0  1  0  0  3  0  0  0  0  0  0
  189.1970  176.7420  140.3860 C   0  0  1  0  0  3  0  0  0  0  0  0
  191.2290  176.7750  138.9290 C   0  0  0  0  0  2  0  0  0  0  0  0
  188.6420  176.6250  141.6860 O   0  0  0  0  0  0  0  0  0  0  0  0
  189.4240  177.8050  143.6260 C   0  0  0  0  0  2  0  0  0  0  0  0
  188.8780  179.2630  137.5620 C   0  0  0  0  0  1  0  0  0  0  0  0
  190.7770  178.0690  138.4440 N   0  0  0  0  0  2  0  0  0  0  0  0
  188.6500  177.8790  142.3220 C   0  0  0  0  0  2  0  0  0  0  0  0
  189.3290  178.0010  138.2800 C   0  0  1  0  0  3  0  0  0  0  0  0
  191.4880  177.4870  141.2990 C   0  0  0  0  0  2  0  0  0  0  0  0
  190.9080  178.0220  143.3670 C   0  0  0  0  0  2  0  0  0  0  0  0
  184.6040  176.2990  137.4990 C   0  0  2  0  0  3  0  0  0  0  0  0
  185.4080  175.0180  137.3150 C   0  0  0  0  0  2  0  0  0  0  0  0
  184.9500  172.6550  136.7490 C   0  0  0  0  0  1  0  0  0  0  0  0
  184.5480  173.8120  137.6380 C   0  0  0  0  0  2  0  0  0  0  0  0
  183.4860  176.3270  136.4680 C   0  0  0  0  0  2  0  0  0  0  0  0
  181.4220  177.4090  136.2300 C   0  0  0  0  0  2  0  0  0  0  0  0
  182.2090  176.5480  137.1250 N   0  0  0  0  0  0  0  0  0  0  0  0
  181.1830  175.9720  136.2430 C   0  0  0  0  0  2  0  0  0  0  0  0
  186.3040  178.7520  141.4350 C   0  0  0  0  0  2  0  0  0  0  0  0
  185.0400  178.1290  142.0010 C   0  0  0  0  0  2  0  0  0  0  0  0
  183.9130  178.8680  144.1090 C   0  0  0  0  0  3  0  0  0  0  0  0
  185.0200  178.2850  143.4810 C   0  0  0  0  0  0  0  0  0  0  0  0
  186.1230  177.8830  144.2420 C   0  0  0  0  0  3  0  0  0  0  0  0
  187.2860  177.6240  146.4380 C   0  0  0  0  0  1  0  0  0  0  0  0
  185.0070  178.6330  146.2570 C   0  0  0  0  0  3  0  0  0  0  0  0
  186.1150  178.0530  145.6300 C   0  0  0  0  0  0  0  0  0  0  0  0
  183.9070  179.0390  145.4960 C   0  0  0  0  0  3  0  0  0  0  0  0
  1 21  1  1  0  0  0
  1  6  1  0  0  0  0
  1  7  1  0  0  0  0
  3  6  1  6  0  0  0
  3  4  1  0  0  0  0
  4 29  1  1  0  0  0
  5  2  1  1  0  0  0
  5  4  1  0  0  0  0
  7  2  1  6  0  0  0
  7  5  1  0  0  0  0
  8 20  1  0  0  0  0
  9  3  1  6  0  0  0
  9 11  1  0  0  0  0
 10 12  1  6  0  0  0
 10 11  1  0  0  0  0
 10 19  1  0  0  0  0
 11 13  1  1  0  0  0
 13 17  1  0  0  0  0
 16 12  1  0  0  0  0
 17 14  1  0  0  0  0
 18 15  1  1  0  0  0
 18 16  1  0  0  0  0
 18  9  1  0  0  0  0
 19  8  1  0  0  0  0
 20 14  1  0  0  0  0
 21 25  1  6  0  0  0
 22 21  1  0  0  0  0
 22 24  1  0  0  0  0
 23 24  1  0  0  0  0
 25 27  1  0  0  0  0
 26 28  1  0  0  0  0
 26 27  1  0  0  0  0
 28 27  1  0  0  0  0
 29 30  1  0  0  0  0
 30 32  1  0  0  0  0
 31 37  1  0  0  0  0
 32 31  2  0  0  0  0
 32 33  1  0  0  0  0
 33 36  2  0  0  0  0
 36 35  1  0  0  0  0
 36 34  1  0  0  0  0
 37 35  2  0  0  0  0
M  END
>  <MODEL>
4

>  <REMARK>
 VINA RESULT:      -5.8      1.958      3.070
  Name = 
  9 active torsions:
  status: ('A' for Active; 'I' for Inactive)
    1  A    between atoms: C_1  and  C_33
    2  A    between atoms: N_4  and  C_10
    3  A    between atoms: C_5  and  C_23
    4  A    between atoms: C_5  and  C_33
    5  A    between atoms: C_6  and  C_31
    6  A    between atoms: C_14  and  C_37
    7  A    between atoms: C_17  and  N_26
    8  A    between atoms: C_17  and  C_33
    9  A    between atoms: C_31  and  C_37
                            x       y       z     vdW  Elec       q    Type
                         _______ _______ _______ _____ _____    ______ ____

>  <TORSDO>
F 9

$$$$
=
 OpenBabel10262422563D

 37 42  0  0  1  0  0  0  0  0999 V2000
  183.9370  177.2430  137.3740 C   0  0  2  0  0  3  0  0  0  0  0  0
  183.0130  178.9240  139.4040 C   0  0  0  0  0  2  0  0  0  0  0  0
  186.3490  177.4850  138.3760 C   0  0  1  0  0  3  0  0  0  0  0  0
  185.7300  178.5970  139.2870 C   0  0  1  0  0  3  0  0  0  0  0  0
  184.3040  178.1580  139.5150 C   0  0  2  0  0  3  0  0  0  0  0  0
  185.4660  177.0830  137.1540 C   0  0  0  0  0  2  0  0  0  0  0  0
  183.7480  178.5580  138.1390 C   0  0  1  0  0  3  0  0  0  0  0  0
  191.5760  176.3540  139.0330 O   0  0  0  0  0  0  0  0  0  0  0  0
  187.7540  177.7010  137.9610 N   0  0  1  0  0  0  0  0  0  0  0  0
  189.8790  176.3860  137.3500 C   0  0  1  0  0  3  0  0  0  0  0  0
  188.5580  176.4610  138.1480 C   0  0  1  0  0  3  0  0  0  0  0  0
  189.6530  176.9130  135.9460 C   0  0  0  0  0  2  0  0  0  0  0  0
  188.6820  176.0440  139.4980 O   0  0  0  0  0  0  0  0  0  0  0  0
  190.3500  176.8360  141.0340 C   0  0  0  0  0  2  0  0  0  0  0  0
  187.0640  179.4950  136.4150 C   0  0  0  0  0  1  0  0  0  0  0  0
  189.0910  178.2510  136.0180 N   0  0  0  0  0  2  0  0  0  0  0  0
  189.0540  177.1370  140.3010 C   0  0  0  0  0  2  0  0  0  0  0  0
  187.7380  178.1370  136.5490 C   0  0  1  0  0  3  0  0  0  0  0  0
  191.0420  177.1270  137.9990 C   0  0  0  0  0  2  0  0  0  0  0  0
  191.5420  177.1850  140.1550 C   0  0  0  0  0  2  0  0  0  0  0  0
  183.2490  175.9990  137.9750 C   0  0  2  0  0  3  0  0  0  0  0  0
  184.0180  174.7260  137.6450 C   0  0  0  0  0  2  0  0  0  0  0  0
  184.1810  173.6420  135.4280 C   0  0  0  0  0  1  0  0  0  0  0  0
  183.2690  173.9180  136.6040 C   0  0  0  0  0  2  0  0  0  0  0  0
  181.8380  175.8750  137.4200 C   0  0  0  0  0  2  0  0  0  0  0  0
  180.0020  175.2600  138.7380 C   0  0  0  0  0  2  0  0  0  0  0  0
  180.8780  176.3860  138.3840 N   0  0  0  0  0  0  0  0  0  0  0  0
  181.0950  175.6300  139.6260 C   0  0  0  0  0  2  0  0  0  0  0  0
  186.4550  178.6670  140.6210 C   0  0  0  0  0  2  0  0  0  0  0  0
  185.4630  178.8920  141.7470 C   0  0  0  0  0  2  0  0  0  0  0  0
  187.1810  177.6010  143.0280 C   0  0  0  0  0  3  0  0  0  0  0  0
  186.0410  178.4140  143.0330 C   0  0  0  0  0  0  0  0  0  0  0  0
  185.4250  178.7460  144.2450 C   0  0  0  0  0  3  0  0  0  0  0  0
  185.3010  178.6290  146.7370 C   0  0  0  0  0  1  0  0  0  0  0  0
  187.0940  177.4640  145.4450 C   0  0  0  0  0  3  0  0  0  0  0  0
  185.9540  178.2740  145.4500 C   0  0  0  0  0  0  0  0  0  0  0  0
  187.7080  177.1290  144.2340 C   0  0  0  0  0  3  0  0  0  0  0  0
  1 21  1  1  0  0  0
  1  7  1  0  0  0  0
  3  6  1  6  0  0  0
  3  4  1  0  0  0  0
  4  5  1  0  0  0  0
  4 29  1  1  0  0  0
  5  2  1  1  0  0  0
  6  1  1  0  0  0  0
  7  2  1  1  0  0  0
  7  5  1  0  0  0  0
  8 20  1  0  0  0  0
  9 11  1  0  0  0  0
  9  3  1  6  0  0  0
 10 12  1  6  0  0  0
 10 19  1  0  0  0  0
 10 11  1  0  0  0  0
 11 13  1  1  0  0  0
 12 16  1  0  0  0  0
 13 17  1  0  0  0  0
 16 18  1  0  0  0  0
 17 14  1  0  0  0  0
 18 15  1  1  0  0  0
 18  9  1  0  0  0  0
 19  8  1  0  0  0  0
 20 14  1  0  0  0  0
 21 25  1  6  0  0  0
 22 21  1  0  0  0  0
 23 24  1  0  0  0  0
 24 22  1  0  0  0  0
 25 27  1  0  0  0  0
 26 28  1  0  0  0  0
 27 26  1  0  0  0  0
 27 28  1  0  0  0  0
 29 30  1  0  0  0  0
 30 32  1  0  0  0  0
 31 32  2  0  0  0  0
 31 37  1  0  0  0  0
 32 33  1  0  0  0  0
 33 36  2  0  0  0  0
 35 36  1  0  0  0  0
 36 34  1  0  0  0  0
 37 35  2  0  0  0  0
M  END
>  <MODEL>
5

>  <REMARK>
 VINA RESULT:      -5.5      1.464      1.872
  Name = 
  9 active torsions:
  status: ('A' for Active; 'I' for Inactive)
    1  A    between atoms: C_1  and  C_33
    2  A    between atoms: N_4  and  C_10
    3  A    between atoms: C_5  and  C_23
    4  A    between atoms: C_5  and  C_33
    5  A    between atoms: C_6  and  C_31
    6  A    between atoms: C_14  and  C_37
    7  A    between atoms: C_17  and  N_26
    8  A    between atoms: C_17  and  C_33
    9  A    between atoms: C_31  and  C_37
                            x       y       z     vdW  Elec       q    Type
                         _______ _______ _______ _____ _____    ______ ____

>  <TORSDO>
F 9

$$$$
=
 OpenBabel10262422563D

 37 42  0  0  1  0  0  0  0  0999 V2000
  189.9170  176.5600  138.1140 C   0  0  2  0  0  3  0  0  0  0  0  0
  188.0870  178.5280  137.3520 C   0  0  0  0  0  2  0  0  0  0  0  0
  189.2730  177.0370  140.6110 C   0  0  1  0  0  3  0  0  0  0  0  0
  188.4850  178.2660  140.0500 C   0  0  1  0  0  3  0  0  0  0  0  0
  188.0140  177.8300  138.6840 C   0  0  2  0  0  3  0  0  0  0  0  0
  190.2960  176.4110  139.6120 C   0  0  0  0  0  2  0  0  0  0  0  0
  189.3570  177.9780  137.9510 C   0  0  1  0  0  3  0  0  0  0  0  0
  188.8370  176.7260  145.9730 O   0  0  0  0  0  0  0  0  0  0  0  0
  189.8890  177.2220  141.9460 N   0  0  1  0  0  0  0  0  0  0  0  0
  190.2280  175.9860  144.1760 C   0  0  1  0  0  3  0  0  0  0  0  0
  189.3680  176.2160  142.9140 C   0  0  1  0  0  3  0  0  0  0  0  0
  191.6940  175.9450  143.7890 C   0  0  0  0  0  2  0  0  0  0  0  0
  187.9800  176.3290  143.1810 O   0  0  0  0  0  0  0  0  0  0  0  0
  187.0110  177.7780  144.8330 C   0  0  0  0  0  2  0  0  0  0  0  0
  191.8810  178.2610  140.9280 C   0  0  0  0  0  1  0  0  0  0  0  0
  192.0360  177.1580  143.0670 N   0  0  0  0  0  2  0  0  0  0  0  0
  187.6570  177.6690  143.4630 C   0  0  0  0  0  2  0  0  0  0  0  0
  191.3540  177.1150  141.7780 C   0  0  1  0  0  3  0  0  0  0  0  0
  190.0120  177.0180  145.2750 C   0  0  0  0  0  2  0  0  0  0  0  0
  188.0820  177.8990  145.9080 C   0  0  0  0  0  2  0  0  0  0  0  0
  189.0420  175.4140  137.5630 C   0  0  2  0  0  3  0  0  0  0  0  0
  189.8280  174.1120  137.4710 C   0  0  0  0  0  2  0  0  0  0  0  0
  192.2480  174.1220  136.9620 C   0  0  0  0  0  1  0  0  0  0  0  0
  190.8600  174.2030  136.3640 C   0  0  0  0  0  2  0  0  0  0  0  0
  188.5340  175.7780  136.1760 C   0  0  0  0  0  2  0  0  0  0  0  0
  186.6740  175.8620  134.7540 C   0  0  0  0  0  2  0  0  0  0  0  0
  187.1970  175.2430  135.9800 N   0  0  0  0  0  0  0  0  0  0  0  0
  187.2240  174.5150  134.7040 C   0  0  0  0  0  2  0  0  0  0  0  0
  187.2800  178.5790  140.9220 C   0  0  0  0  0  2  0  0  0  0  0  0
  186.0220  178.6470  140.0750 C   0  0  0  0  0  2  0  0  0  0  0  0
  183.5760  178.2560  140.4260 C   0  0  0  0  0  3  0  0  0  0  0  0
  184.8210  178.6190  140.9540 C   0  0  0  0  0  0  0  0  0  0  0  0
  184.9270  178.9910  142.2990 C   0  0  0  0  0  3  0  0  0  0  0  0
  183.9090  179.3830  144.5460 C   0  0  0  0  0  1  0  0  0  0  0  0
  182.5510  178.6240  142.5900 C   0  0  0  0  0  3  0  0  0  0  0  0
  183.7940  178.9900  143.1170 C   0  0  0  0  0  0  0  0  0  0  0  0
  182.4430  178.2570  141.2450 C   0  0  0  0  0  3  0  0  0  0  0  0
  1 21  1  1  0  0  0
  1  6  1  0  0  0  0
  3  6  1  6  0  0  0
  4  3  1  0  0  0  0
  4 29  1  1  0  0  0
  5  2  1  6  0  0  0
  5  4  1  0  0  0  0
  7  2  1  6  0  0  0
  7  1  1  0  0  0  0
  7  5  1  0  0  0  0
  9  3  1  6  0  0  0
  9 11  1  0  0  0  0
 10 12  1  6  0  0  0
 10 19  1  0  0  0  0
 11 13  1  1  0  0  0
 11 10  1  0  0  0  0
 13 17  1  0  0  0  0
 14 20  1  0  0  0  0
 16 12  1  0  0  0  0
 17 14  1  0  0  0  0
 18 15  1  6  0  0  0
 18  9  1  0  0  0  0
 18 16  1  0  0  0  0
 19  8  1  0  0  0  0
 20  8  1  0  0  0  0
 21 25  1  6  0  0  0
 22 21  1  0  0  0  0
 24 23  1  0  0  0  0
 24 22  1  0  0  0  0
 26 27  1  0  0  0  0
 27 25  1  0  0  0  0
 28 26  1  0  0  0  0
 28 27  1  0  0  0  0
 30 29  1  0  0  0  0
 30 32  1  0  0  0  0
 31 32  2  0  0  0  0
 31 37  1  0  0  0  0
 32 33  1  0  0  0  0
 33 36  2  0  0  0  0
 35 36  1  0  0  0  0
 36 34  1  0  0  0  0
 37 35  2  0  0  0  0
M  END
>  <MODEL>
6

>  <REMARK>
 VINA RESULT:      -5.4      3.151      5.699
  Name = 
  9 active torsions:
  status: ('A' for Active; 'I' for Inactive)
    1  A    between atoms: C_1  and  C_33
    2  A    between atoms: N_4  and  C_10
    3  A    between atoms: C_5  and  C_23
    4  A    between atoms: C_5  and  C_33
    5  A    between atoms: C_6  and  C_31
    6  A    between atoms: C_14  and  C_37
    7  A    between atoms: C_17  and  N_26
    8  A    between atoms: C_17  and  C_33
    9  A    between atoms: C_31  and  C_37
                            x       y       z     vdW  Elec       q    Type
                         _______ _______ _______ _____ _____    ______ ____

>  <TORSDO>
F 9

$$$$
=
 OpenBabel10262422563D

 37 42  0  0  1  0  0  0  0  0999 V2000
  181.4050  180.3690  138.6170 C   0  0  2  0  0  3  0  0  0  0  0  0
  179.8160  179.2650  140.6320 C   0  0  0  0  0  2  0  0  0  0  0  0
  182.7360  178.1110  138.5360 C   0  0  1  0  0  3  0  0  0  0  0  0
  181.9360  177.7290  139.8260 C   0  0  1  0  0  3  0  0  0  0  0  0
  180.6020  178.4170  139.6680 C   0  0  2  0  0  3  0  0  0  0  0  0
  182.6950  179.6270  138.1710 C   0  0  0  0  0  2  0  0  0  0  0  0
  181.0660  179.8410  140.0160 C   0  0  1  0  0  3  0  0  0  0  0  0
  186.2540  174.6690  136.3430 O   0  0  0  0  0  0  0  0  0  0  0  0
  184.1210  177.5900  138.4600 N   0  0  1  0  0  0  0  0  0  0  0  0
  185.9410  177.0040  136.7400 C   0  0  1  0  0  3  0  0  0  0  0  0
  184.4400  177.1310  137.0790 C   0  0  1  0  0  3  0  0  0  0  0  0
  186.6920  178.1910  137.3130 C   0  0  0  0  0  2  0  0  0  0  0  0
  183.6590  176.0350  136.6340 O   0  0  0  0  0  0  0  0  0  0  0  0
  184.1690  173.7250  137.0510 C   0  0  0  0  0  2  0  0  0  0  0  0
  184.7970  178.9960  140.3700 C   0  0  0  0  0  1  0  0  0  0  0  0
  186.4240  178.2880  138.7380 N   0  0  0  0  0  2  0  0  0  0  0  0
  183.6420  175.0310  137.6200 C   0  0  0  0  0  2  0  0  0  0  0  0
  185.0270  178.6710  138.9020 C   0  0  1  0  0  3  0  0  0  0  0  0
  186.5820  175.7070  137.2180 C   0  0  0  0  0  2  0  0  0  0  0  0
  185.6870  173.6830  137.1540 C   0  0  0  0  0  2  0  0  0  0  0  0
  180.2620  180.3340  137.5800 C   0  0  2  0  0  3  0  0  0  0  0  0
  180.8050  180.3020  136.1570 C   0  0  0  0  0  2  0  0  0  0  0  0
  181.5520  178.3400  134.8480 C   0  0  0  0  0  1  0  0  0  0  0  0
  180.3520  179.0370  135.4540 C   0  0  0  0  0  2  0  0  0  0  0  0
  179.3850  181.5670  137.7410 C   0  0  0  0  0  2  0  0  0  0  0  0
  179.7670  183.7440  136.9650 C   0  0  0  0  0  2  0  0  0  0  0  0
  180.2140  182.7420  137.9440 N   0  0  0  0  0  0  0  0  0  0  0  0
  179.3060  183.8270  138.3440 C   0  0  0  0  0  2  0  0  0  0  0  0
  181.7230  176.2270  139.9040 C   0  0  0  0  0  2  0  0  0  0  0  0
  180.2740  175.8860  139.6010 C   0  0  0  0  0  2  0  0  0  0  0  0
  180.0920  175.7850  137.1070 C   0  0  0  0  0  3  0  0  0  0  0  0
  180.1940  175.1130  138.3310 C   0  0  0  0  0  0  0  0  0  0  0  0
  180.1810  173.7140  138.3620 C   0  0  0  0  0  3  0  0  0  0  0  0
  180.0680  171.5030  137.2060 C   0  0  0  0  0  1  0  0  0  0  0  0
  179.9800  173.6610  135.9490 C   0  0  0  0  0  3  0  0  0  0  0  0
  180.0780  172.9880  137.1720 C   0  0  0  0  0  0  0  0  0  0  0  0
  179.9870  175.0580  135.9180 C   0  0  0  0  0  3  0  0  0  0  0  0
  1 21  1  6  0  0  0
  1  7  1  0  0  0  0
  3  6  1  1  0  0  0
  3  4  1  0  0  0  0
  4 29  1  6  0  0  0
  5  4  1  0  0  0  0
  5  7  1  0  0  0  0
  5  2  1  1  0  0  0
  6  1  1  0  0  0  0
  7  2  1  6  0  0  0
  8 20  1  0  0  0  0
  8 19  1  0  0  0  0
  9  3  1  6  0  0  0
  9 18  1  0  0  0  0
 10 11  1  0  0  0  0
 10 19  1  1  0  0  0
 10 12  1  0  0  0  0
 11 13  1  1  0  0  0
 11  9  1  0  0  0  0
 12 16  1  0  0  0  0
 13 17  1  0  0  0  0
 14 20  1  0  0  0  0
 14 17  1  0  0  0  0
 16 18  1  0  0  0  0
 18 15  1  1  0  0  0
 21 22  1  6  0  0  0
 21 25  1  0  0  0  0
 23 24  1  0  0  0  0
 24 22  1  0  0  0  0
 25 27  1  0  0  0  0
 26 27  1  0  0  0  0
 26 28  1  0  0  0  0
 27 28  1  0  0  0  0
 30 29  1  0  0  0  0
 31 32  1  0  0  0  0
 32 33  2  0  0  0  0
 32 30  1  0  0  0  0
 35 36  2  0  0  0  0
 36 34  1  0  0  0  0
 36 33  1  0  0  0  0
 37 35  1  0  0  0  0
 37 31  2  0  0  0  0
M  END
>  <MODEL>
7

>  <REMARK>
 VINA RESULT:      -5.3      3.414      6.985
  Name = 
  9 active torsions:
  status: ('A' for Active; 'I' for Inactive)
    1  A    between atoms: C_1  and  C_33
    2  A    between atoms: N_4  and  C_10
    3  A    between atoms: C_5  and  C_23
    4  A    between atoms: C_5  and  C_33
    5  A    between atoms: C_6  and  C_31
    6  A    between atoms: C_14  and  C_37
    7  A    between atoms: C_17  and  N_26
    8  A    between atoms: C_17  and  C_33
    9  A    between atoms: C_31  and  C_37
                            x       y       z     vdW  Elec       q    Type
                         _______ _______ _______ _____ _____    ______ ____

>  <TORSDO>
F 9

$$$$
=
 OpenBabel10262422563D

 37 42  0  0  1  0  0  0  0  0999 V2000
  184.8740  179.2500  140.2050 C   0  0  2  0  0  3  0  0  0  0  0  0
  186.2530  177.9450  138.1570 C   0  0  0  0  0  2  0  0  0  0  0  0
  182.6430  178.3030  139.2040 C   0  0  1  0  0  3  0  0  0  0  0  0
  183.5200  177.8450  137.9910 C   0  0  1  0  0  3  0  0  0  0  0  0
  184.8710  177.5340  138.5890 C   0  0  2  0  0  3  0  0  0  0  0  0
  183.3260  179.3490  140.1400 C   0  0  0  0  0  2  0  0  0  0  0  0
  185.3500  178.9830  138.7720 C   0  0  1  0  0  3  0  0  0  0  0  0
  179.3270  181.6200  136.5520 O   0  0  0  0  0  0  0  0  0  0  0  0
  181.2590  178.7160  138.8770 N   0  0  1  0  0  0  0  0  0  0  0  0
  179.7740  179.2920  136.8560 C   0  0  1  0  0  3  0  0  0  0  0  0
  181.1820  179.2580  137.4910 C   0  0  1  0  0  3  0  0  0  0  0  0
  179.0390  178.0060  137.1850 C   0  0  0  0  0  2  0  0  0  0  0  0
  181.9290  180.4460  137.2880 O   0  0  0  0  0  0  0  0  0  0  0  0
  181.1280  182.6660  137.7350 C   0  0  0  0  0  2  0  0  0  0  0  0
  180.3490  177.1090  140.5120 C   0  0  0  0  0  1  0  0  0  0  0  0
  179.0240  177.8160  138.6260 N   0  0  0  0  0  2  0  0  0  0  0  0
  181.6520  181.3650  138.3170 C   0  0  0  0  0  2  0  0  0  0  0  0
  180.3900  177.5330  139.0510 C   0  0  1  0  0  3  0  0  0  0  0  0
  178.9310  180.4910  137.2730 C   0  0  0  0  0  2  0  0  0  0  0  0
  179.6240  182.5790  137.5230 C   0  0  0  0  0  2  0  0  0  0  0  0
  185.4050  178.2890  141.2900 C   0  0  2  0  0  3  0  0  0  0  0  0
  184.4250  178.1680  142.4500 C   0  0  0  0  0  2  0  0  0  0  0  0
  183.9230  178.9820  144.7310 C   0  0  0  0  0  1  0  0  0  0  0  0
  185.0140  178.7940  143.6990 C   0  0  0  0  0  2  0  0  0  0  0  0
  186.7340  178.8010  141.8240 C   0  0  0  0  0  2  0  0  0  0  0  0
  188.9600  178.2290  142.2790 C   0  0  0  0  0  2  0  0  0  0  0  0
  187.8080  177.9090  141.4230 N   0  0  0  0  0  0  0  0  0  0  0  0
  188.1210  177.0820  142.5970 C   0  0  0  0  0  2  0  0  0  0  0  0
  182.9490  176.5890  137.3560 C   0  0  0  0  0  2  0  0  0  0  0  0
  183.0400  175.4230  138.3240 C   0  0  0  0  0  2  0  0  0  0  0  0
  182.6440  173.2830  137.0900 C   0  0  0  0  0  3  0  0  0  0  0  0
  183.5460  174.2170  137.6140 C   0  0  0  0  0  0  0  0  0  0  0  0
  184.9230  173.9950  137.5020 C   0  0  0  0  0  3  0  0  0  0  0  0
  186.8600  172.6170  136.7370 C   0  0  0  0  0  1  0  0  0  0  0  0
  184.4960  171.9180  136.3320 C   0  0  0  0  0  3  0  0  0  0  0  0
  185.3980  172.8490  136.8580 C   0  0  0  0  0  0  0  0  0  0  0  0
  183.1200  172.1350  136.4480 C   0  0  0  0  0  3  0  0  0  0  0  0
  1 21  1  1  0  0  0
  3  6  1  6  0  0  0
  4 29  1  1  0  0  0
  4  5  1  0  0  0  0
  4  3  1  0  0  0  0
  5  2  1  6  0  0  0
  5  7  1  0  0  0  0
  6  1  1  0  0  0  0
  7  2  1  1  0  0  0
  7  1  1  0  0  0  0
  8 19  1  0  0  0  0
  8 20  1  0  0  0  0
  9 18  1  0  0  0  0
  9  3  1  6  0  0  0
 10 12  1  1  0  0  0
 10 19  1  0  0  0  0
 10 11  1  0  0  0  0
 11 13  1  1  0  0  0
 11  9  1  0  0  0  0
 12 16  1  0  0  0  0
 13 17  1  0  0  0  0
 14 17  1  0  0  0  0
 16 18  1  0  0  0  0
 18 15  1  1  0  0  0
 20 14  1  0  0  0  0
 21 25  1  1  0  0  0
 21 22  1  0  0  0  0
 22 24  1  0  0  0  0
 24 23  1  0  0  0  0
 26 28  1  0  0  0  0
 27 25  1  0  0  0  0
 27 26  1  0  0  0  0
 27 28  1  0  0  0  0
 29 30  1  0  0  0  0
 31 32  1  0  0  0  0
 32 30  1  0  0  0  0
 33 32  2  0  0  0  0
 34 36  1  0  0  0  0
 35 37  1  0  0  0  0
 35 36  2  0  0  0  0
 36 33  1  0  0  0  0
 37 31  2  0  0  0  0
M  END
>  <MODEL>
8

>  <REMARK>
 VINA RESULT:      -5.2      3.544      8.654
  Name = 
  9 active torsions:
  status: ('A' for Active; 'I' for Inactive)
    1  A    between atoms: C_1  and  C_33
    2  A    between atoms: N_4  and  C_10
    3  A    between atoms: C_5  and  C_23
    4  A    between atoms: C_5  and  C_33
    5  A    between atoms: C_6  and  C_31
    6  A    between atoms: C_14  and  C_37
    7  A    between atoms: C_17  and  N_26
    8  A    between atoms: C_17  and  C_33
    9  A    between atoms: C_31  and  C_37
                            x       y       z     vdW  Elec       q    Type
                         _______ _______ _______ _____ _____    ______ ____

>  <TORSDO>
F 9

$$$$
=
 OpenBabel10262422563D

 37 42  0  0  1  0  0  0  0  0999 V2000
  185.6560  178.3640  137.5720 C   0  0  2  0  0  3  0  0  0  0  0  0
  184.6770  176.0460  136.3600 C   0  0  0  0  0  2  0  0  0  0  0  0
  183.8610  178.0460  139.4570 C   0  0  1  0  0  3  0  0  0  0  0  0
  183.2690  176.9240  138.5390 C   0  0  1  0  0  3  0  0  0  0  0  0
  184.4630  176.3460  137.8200 C   0  0  2  0  0  3  0  0  0  0  0  0
  184.8630  179.0050  138.7430 C   0  0  0  0  0  2  0  0  0  0  0  0
  184.6590  177.4860  136.8070 C   0  0  1  0  0  3  0  0  0  0  0  0
  179.3210  180.9440  139.6160 O   0  0  0  0  0  0  0  0  0  0  0  0
  182.8740  178.8130  140.2520 N   0  0  1  0  0  0  0  0  0  0  0  0
  180.3360  179.0250  140.6150 C   0  0  1  0  0  3  0  0  0  0  0  0
  181.5090  178.6830  139.6700 C   0  0  1  0  0  3  0  0  0  0  0  0
  180.6080  178.4440  141.9900 C   0  0  0  0  0  2  0  0  0  0  0  0
  181.3740  179.2350  138.3700 O   0  0  0  0  0  0  0  0  0  0  0  0
  180.8830  181.5380  137.8990 C   0  0  0  0  0  2  0  0  0  0  0  0
  184.2800  178.6110  142.2680 C   0  0  0  0  0  1  0  0  0  0  0  0
  181.8970  178.9180  142.4660 N   0  0  0  0  0  2  0  0  0  0  0  0
  181.9270  180.5280  138.3430 C   0  0  0  0  0  2  0  0  0  0  0  0
  182.9290  178.3050  141.6390 C   0  0  1  0  0  3  0  0  0  0  0  0
  180.0430  180.5150  140.7330 C   0  0  0  0  0  2  0  0  0  0  0  0
  180.0640  182.0050  139.0940 C   0  0  0  0  0  2  0  0  0  0  0  0
  186.9770  177.6870  137.9950 C   0  0  2  0  0  3  0  0  0  0  0  0
  187.4930  178.2520  139.3130 C   0  0  0  0  0  2  0  0  0  0  0  0
  189.6520  177.4520  140.2150 C   0  0  0  0  0  1  0  0  0  0  0  0
  188.9980  178.4220  139.2540 C   0  0  0  0  0  2  0  0  0  0  0  0
  188.0330  177.9060  136.9220 C   0  0  0  0  0  2  0  0  0  0  0  0
  189.4790  176.2550  136.1060 C   0  0  0  0  0  2  0  0  0  0  0  0
  188.0970  176.7510  136.0440 N   0  0  0  0  0  0  0  0  0  0  0  0
  188.4430  175.6020  136.8940 C   0  0  0  0  0  2  0  0  0  0  0  0
  182.6080  175.8390  139.3720 C   0  0  0  0  0  2  0  0  0  0  0  0
  181.2800  175.4380  138.7550 C   0  0  0  0  0  2  0  0  0  0  0  0
  181.0250  175.0940  136.2900 C   0  0  0  0  0  3  0  0  0  0  0  0
  181.5170  174.6420  137.5200 C   0  0  0  0  0  0  0  0  0  0  0  0
  182.2000  173.4230  137.5930 C   0  0  0  0  0  3  0  0  0  0  0  0
  183.1270  171.3690  136.5150 C   0  0  0  0  0  1  0  0  0  0  0  0
  181.9100  173.1160  135.2080 C   0  0  0  0  0  3  0  0  0  0  0  0
  182.3990  172.6620  136.4370 C   0  0  0  0  0  0  0  0  0  0  0  0
  181.2230  174.3320  135.1350 C   0  0  0  0  0  3  0  0  0  0  0  0
  1 21  1  1  0  0  0
  1  6  1  0  0  0  0
  3  6  1  6  0  0  0
  4 29  1  1  0  0  0
  4  3  1  0  0  0  0
  5  2  1  6  0  0  0
  5  4  1  0  0  0  0
  7  2  1  6  0  0  0
  7  1  1  0  0  0  0
  7  5  1  0  0  0  0
  8 19  1  0  0  0  0
  9  3  1  6  0  0  0
  9 18  1  0  0  0  0
 10 19  1  1  0  0  0
 10 12  1  0  0  0  0
 11 13  1  6  0  0  0
 11  9  1  0  0  0  0
 11 10  1  0  0  0  0
 12 16  1  0  0  0  0
 14 17  1  0  0  0  0
 14 20  1  0  0  0  0
 17 13  1  0  0  0  0
 18 15  1  1  0  0  0
 18 16  1  0  0  0  0
 20  8  1  0  0  0  0
 21 25  1  6  0  0  0
 21 22  1  0  0  0  0
 24 22  1  0  0  0  0
 24 23  1  0  0  0  0
 26 28  1  0  0  0  0
 27 26  1  0  0  0  0
 27 28  1  0  0  0  0
 27 25  1  0  0  0  0
 30 29  1  0  0  0  0
 31 32  1  0  0  0  0
 32 33  2  0  0  0  0
 32 30  1  0  0  0  0
 35 36  2  0  0  0  0
 36 34  1  0  0  0  0
 36 33  1  0  0  0  0
 37 35  1  0  0  0  0
 37 31  2  0  0  0  0
M  END
>  <MODEL>
9

>  <REMARK>
 VINA RESULT:      -5.1      3.420      8.232
  Name = 
  9 active torsions:
  status: ('A' for Active; 'I' for Inactive)
    1  A    between atoms: C_1  and  C_33
    2  A    between atoms: N_4  and  C_10
    3  A    between atoms: C_5  and  C_23
    4  A    between atoms: C_5  and  C_33
    5  A    between atoms: C_6  and  C_31
    6  A    between atoms: C_14  and  C_37
    7  A    between atoms: C_17  and  N_26
    8  A    between atoms: C_17  and  C_33
    9  A    between atoms: C_31  and  C_37
                            x       y       z     vdW  Elec       q    Type
                         _______ _______ _______ _____ _____    ______ ____

>  <TORSDO>
F 9

$$$$
