=
 OpenBabel10262420013D

 27 31  0  0  1  0  0  0  0  0999 V2000
  188.3120  176.7140  144.9920 O   0  0  0  0  0  0  0  0  0  0  0  0
  186.2770  177.9940  145.2330 C   0  0  0  0  0  0  0  0  0  0  0  0
  186.9830  177.6290  142.7910 C   0  0  0  0  0  2  0  0  0  0  0  0
  182.3690  179.0170  144.0420 C   0  0  0  0  0  3  0  0  0  0  0  0
  182.8980  178.6990  141.7570 C   0  0  0  0  0  3  0  0  0  0  0  0
  185.2970  178.3680  146.1620 C   0  0  0  0  0  3  0  0  0  0  0  0
  184.2160  178.3590  142.0740 C   0  0  0  0  0  0  0  0  0  0  0  0
  189.7790  177.4430  141.1590 C   0  0  0  0  0  2  0  0  0  0  0  0
  185.0490  178.0560  141.0490 F   0  0  0  0  0  0  0  0  0  0  0  0
  190.7300  176.7910  142.1490 C   0  0  0  0  0  2  0  0  0  0  0  0
  184.6320  178.3430  143.4300 C   0  0  0  0  0  0  0  0  0  0  0  0
  187.6890  177.7210  145.7430 C   0  0  1  0  0  3  0  0  0  0  0  0
  182.0120  179.0170  142.7330 N   0  0  0  0  0  0  0  0  0  0  0  0
  183.6720  178.6840  144.4150 C   0  0  0  0  0  0  0  0  0  0  0  0
  189.1600  177.3400  144.0580 C   0  0  1  0  0  3  0  0  0  0  0  0
  185.9560  178.0110  143.8380 C   0  0  0  0  0  0  0  0  0  0  0  0
  189.1060  178.6360  141.8200 C   0  0  0  0  0  2  0  0  0  0  0  0
  184.0100  178.7000  145.7620 C   0  0  0  0  0  3  0  0  0  0  0  0
  190.7930  175.6080  144.2020 F   0  0  0  0  0  0  0  0  0  0  0  0
  189.9340  176.2400  143.3230 C   0  0  2  0  0  3  0  0  0  0  0  0
  188.3480  178.2340  143.0860 C   0  0  1  0  0  3  0  0  0  0  0  0
  190.5630  177.6800  147.9890 C   0  0  0  0  0  3  0  0  0  0  0  0
  187.7810  177.4160  147.2510 C   0  0  2  0  0  3  0  0  0  0  0  0
  188.2440  178.6340  148.0590 C   0  0  0  0  0  2  0  0  0  0  0  0
  189.7390  178.7050  148.2500 C   0  0  0  0  0  3  0  0  0  0  0  0
  190.0870  176.3880  147.3810 C   0  0  0  0  0  2  0  0  0  0  0  0
  188.5940  176.1630  147.6030 C   0  0  0  0  0  2  0  0  0  0  0  0
  2 12  1  0  0  0  0
  2  6  1  0  0  0  0
  3 21  1  0  0  0  0
  3 16  1  0  0  0  0
  4 14  1  0  0  0  0
  5  7  2  0  0  0  0
  5 13  1  0  0  0  0
  7 11  1  0  0  0  0
  8 17  1  0  0  0  0
  8 10  1  0  0  0  0
  9  7  1  0  0  0  0
 10 20  1  0  0  0  0
 11 16  1  0  0  0  0
 11 14  2  0  0  0  0
 12  1  1  6  0  0  0
 12 23  1  0  0  0  0
 13  4  2  0  0  0  0
 14 18  1  0  0  0  0
 15  1  1  1  0  0  0
 16  2  2  0  0  0  0
 18  6  2  0  0  0  0
 20 15  1  0  0  0  0
 20 19  1  1  0  0  0
 21 17  1  6  0  0  0
 21 15  1  0  0  0  0
 22 25  2  0  0  0  0
 23 27  1  6  0  0  0
 23 24  1  0  0  0  0
 24 25  1  0  0  0  0
 26 27  1  0  0  0  0
 26 22  1  0  0  0  0
M  END
>  <MODEL>
1

>  <REMARK>
 VINA RESULT:      -9.6      0.000      0.000
  Name = 
  1 active torsions:
  status: ('A' for Active; 'I' for Inactive)
    1  A    between atoms: C_9  and  C_15
                            x       y       z     vdW  Elec       q    Type
                         _______ _______ _______ _____ _____    ______ ____

>  <TORSDO>
F 1

$$$$
=
 OpenBabel10262420013D

 27 31  0  0  1  0  0  0  0  0999 V2000
  189.1610  178.3810  140.8780 O   0  0  0  0  0  0  0  0  0  0  0  0
  186.7900  178.3340  141.3420 C   0  0  0  0  0  0  0  0  0  0  0  0
  188.2520  177.8060  143.3860 C   0  0  0  0  0  2  0  0  0  0  0  0
  183.4720  179.1310  143.8110 C   0  0  0  0  0  3  0  0  0  0  0  0
  184.7230  178.6800  145.7700 C   0  0  0  0  0  3  0  0  0  0  0  0
  185.5410  178.6840  140.8100 C   0  0  0  0  0  3  0  0  0  0  0  0
  185.8630  178.3890  145.0170 C   0  0  0  0  0  0  0  0  0  0  0  0
  191.0550  176.2690  143.9320 C   0  0  0  0  0  2  0  0  0  0  0  0
  186.9850  178.0330  145.6880 F   0  0  0  0  0  0  0  0  0  0  0  0
  191.8730  176.5590  142.6850 C   0  0  0  0  0  2  0  0  0  0  0  0
  185.8120  178.4750  143.6010 C   0  0  0  0  0  0  0  0  0  0  0  0
  187.9140  177.9820  140.3730 C   0  0  1  0  0  3  0  0  0  0  0  0
  183.5650  179.0400  145.1620 N   0  0  0  0  0  0  0  0  0  0  0  0
  184.5810  178.8540  143.0100 C   0  0  0  0  0  0  0  0  0  0  0  0
  189.7770  177.2460  141.4400 C   0  0  1  0  0  3  0  0  0  0  0  0
  186.9270  178.1940  142.7600 C   0  0  0  0  0  0  0  0  0  0  0  0
  189.6970  175.7170  143.5260 C   0  0  0  0  0  2  0  0  0  0  0  0
  184.4530  178.9480  141.6310 C   0  0  0  0  0  3  0  0  0  0  0  0
  191.9540  177.9490  140.7670 F   0  0  0  0  0  0  0  0  0  0  0  0
  191.1880  177.6530  141.8780 C   0  0  2  0  0  3  0  0  0  0  0  0
  188.9370  176.6860  142.6170 C   0  0  1  0  0  3  0  0  0  0  0  0
  188.8730  176.5330  137.1660 C   0  0  0  0  0  3  0  0  0  0  0  0
  187.7130  178.5010  138.9370 C   0  0  2  0  0  3  0  0  0  0  0  0
  186.8020  177.5840  138.1130 C   0  0  0  0  0  2  0  0  0  0  0  0
  187.5440  176.5190  137.3430 C   0  0  0  0  0  3  0  0  0  0  0  0
  189.7690  177.5580  137.8050 C   0  0  0  0  0  2  0  0  0  0  0  0
  189.0110  178.8270  138.1860 C   0  0  0  0  0  2  0  0  0  0  0  0
  2 16  1  0  0  0  0
  4 13  2  0  0  0  0
  6  2  2  0  0  0  0
  6 18  1  0  0  0  0
  7  9  1  0  0  0  0
  7  5  2  0  0  0  0
 10  8  1  0  0  0  0
 11  7  1  0  0  0  0
 12  1  1  1  0  0  0
 12  2  1  0  0  0  0
 13  5  1  0  0  0  0
 14 11  1  0  0  0  0
 14  4  1  0  0  0  0
 15  1  1  1  0  0  0
 15 20  1  0  0  0  0
 15 21  1  0  0  0  0
 16  3  1  0  0  0  0
 16 11  2  0  0  0  0
 17  8  1  0  0  0  0
 18 14  2  0  0  0  0
 20 19  1  6  0  0  0
 20 10  1  0  0  0  0
 21  3  1  1  0  0  0
 21 17  1  0  0  0  0
 22 25  2  0  0  0  0
 22 26  1  0  0  0  0
 23 24  1  6  0  0  0
 23 12  1  0  0  0  0
 25 24  1  0  0  0  0
 26 27  1  0  0  0  0
 27 23  1  0  0  0  0
M  END
>  <MODEL>
2

>  <REMARK>
 VINA RESULT:      -9.0      2.653      5.628
  Name = 
  1 active torsions:
  status: ('A' for Active; 'I' for Inactive)
    1  A    between atoms: C_9  and  C_15
                            x       y       z     vdW  Elec       q    Type
                         _______ _______ _______ _____ _____    ______ ____

>  <TORSDO>
F 1

$$$$
=
 OpenBabel10262420013D

 27 31  0  0  1  0  0  0  0  0999 V2000
  187.1090  178.9960  140.9230 O   0  0  0  0  0  0  0  0  0  0  0  0
  186.1850  178.3930  143.0720 C   0  0  0  0  0  0  0  0  0  0  0  0
  188.7150  177.9900  142.8850 C   0  0  0  0  0  2  0  0  0  0  0  0
  186.3770  178.2020  147.2750 C   0  0  0  0  0  3  0  0  0  0  0  0
  188.7150  177.8380  147.2300 C   0  0  0  0  0  3  0  0  0  0  0  0
  185.0390  178.5160  143.8690 C   0  0  0  0  0  3  0  0  0  0  0  0
  188.7290  177.8780  145.8340 C   0  0  0  0  0  0  0  0  0  0  0  0
  190.7770  177.0490  140.5660 C   0  0  0  0  0  2  0  0  0  0  0  0
  189.9220  177.7060  145.2140 F   0  0  0  0  0  0  0  0  0  0  0  0
  190.1800  177.6320  139.2970 C   0  0  0  0  0  2  0  0  0  0  0  0
  187.5200  178.0920  145.1240 C   0  0  0  0  0  0  0  0  0  0  0  0
  186.0140  178.3900  141.5560 C   0  0  1  0  0  3  0  0  0  0  0  0
  187.5550  177.9980  147.9150 N   0  0  0  0  0  0  0  0  0  0  0  0
  186.3330  178.2530  145.8810 C   0  0  0  0  0  0  0  0  0  0  0  0
  187.9590  177.9710  140.4660 C   0  0  1  0  0  3  0  0  0  0  0  0
  187.4470  178.1440  143.7010 C   0  0  0  0  0  0  0  0  0  0  0  0
  189.7080  176.2600  141.3080 C   0  0  0  0  0  2  0  0  0  0  0  0
  185.1110  178.4550  145.2540 C   0  0  0  0  0  3  0  0  0  0  0  0
  188.5770  179.1920  138.5120 F   0  0  0  0  0  0  0  0  0  0  0  0
  189.0900  178.6280  139.6650 C   0  0  2  0  0  3  0  0  0  0  0  0
  188.4950  177.1280  141.6510 C   0  0  1  0  0  3  0  0  0  0  0  0
  183.6910  177.2360  138.9920 C   0  0  0  0  0  3  0  0  0  0  0  0
  184.6880  178.9950  141.0570 C   0  0  2  0  0  3  0  0  0  0  0  0
  183.4920  178.0810  141.3450 C   0  0  0  0  0  2  0  0  0  0  0  0
  183.1730  177.1230  140.2230 C   0  0  0  0  0  3  0  0  0  0  0  0
  184.7250  178.2710  138.6350 C   0  0  0  0  0  2  0  0  0  0  0  0
  184.7050  179.4580  139.5940 C   0  0  0  0  0  2  0  0  0  0  0  0
  2 16  2  0  0  0  0
  2  6  1  0  0  0  0
  3 16  1  0  0  0  0
  4 13  1  0  0  0  0
  5 13  2  0  0  0  0
  6 18  2  0  0  0  0
  7  5  1  0  0  0  0
  8 17  1  0  0  0  0
  9  7  1  0  0  0  0
 10 20  1  0  0  0  0
 10  8  1  0  0  0  0
 11  7  2  0  0  0  0
 11 14  1  0  0  0  0
 12  1  1  6  0  0  0
 12  2  1  0  0  0  0
 14  4  2  0  0  0  0
 15  1  1  1  0  0  0
 15 21  1  0  0  0  0
 16 11  1  0  0  0  0
 18 14  1  0  0  0  0
 20 19  1  6  0  0  0
 20 15  1  0  0  0  0
 21 17  1  6  0  0  0
 21  3  1  0  0  0  0
 22 25  2  0  0  0  0
 23 27  1  6  0  0  0
 23 24  1  0  0  0  0
 23 12  1  0  0  0  0
 25 24  1  0  0  0  0
 26 22  1  0  0  0  0
 26 27  1  0  0  0  0
M  END
>  <MODEL>
3

>  <REMARK>
 VINA RESULT:      -8.9      2.540      5.990
  Name = 
  1 active torsions:
  status: ('A' for Active; 'I' for Inactive)
    1  A    between atoms: C_9  and  C_15
                            x       y       z     vdW  Elec       q    Type
                         _______ _______ _______ _____ _____    ______ ____

>  <TORSDO>
F 1

$$$$
=
 OpenBabel10262420013D

 27 31  0  0  1  0  0  0  0  0999 V2000
  187.2700  178.9560  139.8790 O   0  0  0  0  0  0  0  0  0  0  0  0
  186.9480  178.1200  142.1230 C   0  0  0  0  0  0  0  0  0  0  0  0
  189.3260  177.7680  141.2220 C   0  0  0  0  0  2  0  0  0  0  0  0
  188.2580  177.4920  146.0760 C   0  0  0  0  0  3  0  0  0  0  0  0
  190.4910  177.1600  145.3660 C   0  0  0  0  0  3  0  0  0  0  0  0
  186.0600  178.1470  143.2070 C   0  0  0  0  0  3  0  0  0  0  0  0
  190.1310  177.3460  144.0300 C   0  0  0  0  0  0  0  0  0  0  0  0
  190.6720  177.0970  138.3490 C   0  0  0  0  0  2  0  0  0  0  0  0
  191.1090  177.2540  143.0960 F   0  0  0  0  0  0  0  0  0  0  0  0
  189.7660  177.8040  137.3540 C   0  0  0  0  0  2  0  0  0  0  0  0
  188.7790  177.6200  143.6970 C   0  0  0  0  0  0  0  0  0  0  0  0
  186.3750  178.2750  140.7180 C   0  0  1  0  0  3  0  0  0  0  0  0
  189.5610  177.2350  146.3510 N   0  0  0  0  0  0  0  0  0  0  0  0
  187.8420  177.6880  144.7580 C   0  0  0  0  0  0  0  0  0  0  0  0
  187.9480  177.9940  139.1060 C   0  0  1  0  0  3  0  0  0  0  0  0
  188.3270  177.8210  142.3600 C   0  0  0  0  0  0  0  0  0  0  0  0
  189.8280  176.2240  139.2640 C   0  0  0  0  0  2  0  0  0  0  0  0
  186.5000  177.9420  144.5080 C   0  0  0  0  0  3  0  0  0  0  0  0
  188.0400  179.4200  137.1970 F   0  0  0  0  0  0  0  0  0  0  0  0
  188.8330  178.7440  138.1040 C   0  0  2  0  0  3  0  0  0  0  0  0
  188.7680  177.0370  140.0090 C   0  0  1  0  0  3  0  0  0  0  0  0
  183.3770  177.2710  138.8990 C   0  0  0  0  0  3  0  0  0  0  0  0
  184.9750  178.9140  140.6590 C   0  0  2  0  0  3  0  0  0  0  0  0
  183.8960  177.9960  141.2430 C   0  0  0  0  0  2  0  0  0  0  0  0
  183.2400  177.0990  140.2210 C   0  0  0  0  0  3  0  0  0  0  0  0
  184.2830  178.3150  138.3020 C   0  0  0  0  0  2  0  0  0  0  0  0
  184.5720  179.4510  139.2790 C   0  0  0  0  0  2  0  0  0  0  0  0
  2 16  2  0  0  0  0
  2  6  1  0  0  0  0
  3 16  1  0  0  0  0
  4 13  1  0  0  0  0
  5 13  2  0  0  0  0
  6 18  2  0  0  0  0
  7  5  1  0  0  0  0
  8 17  1  0  0  0  0
  9  7  1  0  0  0  0
 10 20  1  0  0  0  0
 10  8  1  0  0  0  0
 11  7  2  0  0  0  0
 11 14  1  0  0  0  0
 12  1  1  6  0  0  0
 12  2  1  0  0  0  0
 14  4  2  0  0  0  0
 15  1  1  1  0  0  0
 15 21  1  0  0  0  0
 16 11  1  0  0  0  0
 18 14  1  0  0  0  0
 20 19  1  6  0  0  0
 20 15  1  0  0  0  0
 21 17  1  6  0  0  0
 21  3  1  0  0  0  0
 22 25  2  0  0  0  0
 23 27  1  6  0  0  0
 23 12  1  0  0  0  0
 23 24  1  0  0  0  0
 25 24  1  0  0  0  0
 26 22  1  0  0  0  0
 26 27  1  0  0  0  0
M  END
>  <MODEL>
4

>  <REMARK>
 VINA RESULT:      -8.4      2.997      6.604
  Name = 
  1 active torsions:
  status: ('A' for Active; 'I' for Inactive)
    1  A    between atoms: C_9  and  C_15
                            x       y       z     vdW  Elec       q    Type
                         _______ _______ _______ _____ _____    ______ ____

>  <TORSDO>
F 1

$$$$
=
 OpenBabel10262420013D

 27 31  0  0  1  0  0  0  0  0999 V2000
  188.3830  178.7010  141.3470 O   0  0  0  0  0  0  0  0  0  0  0  0
  186.0530  178.4030  140.7830 C   0  0  0  0  0  0  0  0  0  0  0  0
  186.5330  178.2500  143.3010 C   0  0  0  0  0  2  0  0  0  0  0  0
  181.9490  179.0040  141.5120 C   0  0  0  0  0  3  0  0  0  0  0  0
  182.2690  178.8940  143.8550 C   0  0  0  0  0  3  0  0  0  0  0  0
  185.1310  178.5440  139.7370 C   0  0  0  0  0  3  0  0  0  0  0  0
  183.6390  178.6800  143.6920 C   0  0  0  0  0  0  0  0  0  0  0  0
  188.9360  177.1310  145.1690 C   0  0  0  0  0  2  0  0  0  0  0  0
  184.3880  178.5280  144.8120 F   0  0  0  0  0  0  0  0  0  0  0  0
  190.1850  177.4050  144.3490 C   0  0  0  0  0  2  0  0  0  0  0  0
  184.1940  178.6280  142.3870 C   0  0  0  0  0  0  0  0  0  0  0  0
  187.5070  178.1050  140.4290 C   0  0  1  0  0  3  0  0  0  0  0  0
  181.4600  179.0500  142.7770 N   0  0  0  0  0  0  0  0  0  0  0  0
  183.3110  178.7950  141.2920 C   0  0  0  0  0  0  0  0  0  0  0  0
  188.7810  177.7080  142.2630 C   0  0  1  0  0  3  0  0  0  0  0  0
  185.5800  178.4120  142.1340 C   0  0  0  0  0  0  0  0  0  0  0  0
  187.9270  176.3800  144.3130 C   0  0  0  0  0  2  0  0  0  0  0  0
  183.7800  178.7450  139.9850 C   0  0  0  0  0  3  0  0  0  0  0  0
  190.9790  178.6120  142.4700 F   0  0  0  0  0  0  0  0  0  0  0  0
  189.8340  178.3260  143.1900 C   0  0  2  0  0  3  0  0  0  0  0  0
  187.5620  177.1580  143.0480 C   0  0  1  0  0  3  0  0  0  0  0  0
  189.4480  176.2390  137.9680 C   0  0  0  0  0  3  0  0  0  0  0  0
  187.9030  178.4610  138.9830 C   0  0  2  0  0  3  0  0  0  0  0  0
  187.2810  177.5030  137.9610 C   0  0  0  0  0  2  0  0  0  0  0  0
  188.1540  176.3160  137.6290 C   0  0  0  0  0  3  0  0  0  0  0  0
  190.1340  177.2850  138.8050 C   0  0  0  0  0  2  0  0  0  0  0  0
  189.4110  178.6280  138.7550 C   0  0  0  0  0  2  0  0  0  0  0  0
  2 16  1  0  0  0  0
  4 13  2  0  0  0  0
  6 18  1  0  0  0  0
  6  2  2  0  0  0  0
  7  5  2  0  0  0  0
  7  9  1  0  0  0  0
 10  8  1  0  0  0  0
 11  7  1  0  0  0  0
 12  2  1  1  0  0  0
 12  1  1  0  0  0  0
 13  5  1  0  0  0  0
 14  4  1  0  0  0  0
 14 11  1  0  0  0  0
 15  1  1  6  0  0  0
 15 21  1  0  0  0  0
 15 20  1  0  0  0  0
 16 11  2  0  0  0  0
 16  3  1  0  0  0  0
 17  8  1  0  0  0  0
 18 14  2  0  0  0  0
 20 19  1  6  0  0  0
 20 10  1  0  0  0  0
 21  3  1  1  0  0  0
 21 17  1  0  0  0  0
 22 26  1  0  0  0  0
 23 24  1  6  0  0  0
 23 12  1  0  0  0  0
 25 24  1  0  0  0  0
 25 22  2  0  0  0  0
 27 26  1  0  0  0  0
 27 23  1  0  0  0  0
M  END
>  <MODEL>
5

>  <REMARK>
 VINA RESULT:      -8.3      2.318      5.443
  Name = 
  1 active torsions:
  status: ('A' for Active; 'I' for Inactive)
    1  A    between atoms: C_9  and  C_15
                            x       y       z     vdW  Elec       q    Type
                         _______ _______ _______ _____ _____    ______ ____

>  <TORSDO>
F 1

$$$$
=
 OpenBabel10262420013D

 27 31  0  0  1  0  0  0  0  0999 V2000
  189.0550  178.2620  144.4910 O   0  0  0  0  0  0  0  0  0  0  0  0
  188.4820  177.7580  142.1980 C   0  0  0  0  0  0  0  0  0  0  0  0
  186.4810  178.5070  143.6220 C   0  0  0  0  0  2  0  0  0  0  0  0
  186.3570  178.5290  138.6460 C   0  0  0  0  0  3  0  0  0  0  0  0
  184.4520  179.2540  139.8500 C   0  0  0  0  0  3  0  0  0  0  0  0
  189.0400  177.5110  140.9370 C   0  0  0  0  0  3  0  0  0  0  0  0
  185.0890  179.0130  141.0700 C   0  0  0  0  0  0  0  0  0  0  0  0
  185.5220  178.1440  146.6990 C   0  0  0  0  0  2  0  0  0  0  0  0
  184.3930  179.2740  142.2030 F   0  0  0  0  0  0  0  0  0  0  0  0
  186.8250  178.1260  147.4810 C   0  0  0  0  0  2  0  0  0  0  0  0
  186.4160  178.5110  141.0840 C   0  0  0  0  0  0  0  0  0  0  0  0
  189.2910  177.3710  143.4330 C   0  0  1  0  0  3  0  0  0  0  0  0
  185.0890  179.0110  138.6770 N   0  0  0  0  0  0  0  0  0  0  0  0
  187.0410  178.2720  139.8340 C   0  0  0  0  0  0  0  0  0  0  0  0
  188.1230  177.6600  145.3570 C   0  0  1  0  0  3  0  0  0  0  0  0
  187.1360  178.2360  142.2830 C   0  0  0  0  0  0  0  0  0  0  0  0
  185.6000  177.1280  145.5690 C   0  0  0  0  0  2  0  0  0  0  0  0
  188.3340  177.7710  139.7700 C   0  0  0  0  0  3  0  0  0  0  0  0
  189.1390  178.6040  147.2980 F   0  0  0  0  0  0  0  0  0  0  0  0
  187.9610  178.5770  146.5750 C   0  0  2  0  0  3  0  0  0  0  0  0
  186.7760  177.4070  144.6320 C   0  0  1  0  0  3  0  0  0  0  0  0
  191.9100  176.0070  145.5740 C   0  0  0  0  0  3  0  0  0  0  0  0
  190.8020  177.2000  143.1860 C   0  0  2  0  0  3  0  0  0  0  0  0
  191.2230  175.7260  143.1780 C   0  0  0  0  0  2  0  0  0  0  0  0
  191.6520  175.2080  144.5290 C   0  0  0  0  0  3  0  0  0  0  0  0
  191.6970  177.4970  145.5320 C   0  0  0  0  0  2  0  0  0  0  0  0
  191.7000  178.0380  144.1050 C   0  0  0  0  0  2  0  0  0  0  0  0
  2 16  1  0  0  0  0
  4 13  2  0  0  0  0
  4 14  1  0  0  0  0
  5  7  2  0  0  0  0
  6  2  2  0  0  0  0
  7 11  1  0  0  0  0
  7  9  1  0  0  0  0
  8 10  1  0  0  0  0
 11 16  2  0  0  0  0
 12  2  1  6  0  0  0
 12  1  1  0  0  0  0
 13  5  1  0  0  0  0
 14 11  1  0  0  0  0
 15  1  1  6  0  0  0
 15 20  1  0  0  0  0
 16  3  1  0  0  0  0
 17  8  1  0  0  0  0
 18 14  2  0  0  0  0
 18  6  1  0  0  0  0
 20 19  1  1  0  0  0
 20 10  1  0  0  0  0
 21  3  1  1  0  0  0
 21 15  1  0  0  0  0
 21 17  1  0  0  0  0
 23 24  1  1  0  0  0
 23 12  1  0  0  0  0
 23 27  1  0  0  0  0
 24 25  1  0  0  0  0
 25 22  2  0  0  0  0
 26 22  1  0  0  0  0
 27 26  1  0  0  0  0
M  END
>  <MODEL>
6

>  <REMARK>
 VINA RESULT:      -8.3      2.217      4.576
  Name = 
  1 active torsions:
  status: ('A' for Active; 'I' for Inactive)
    1  A    between atoms: C_9  and  C_15
                            x       y       z     vdW  Elec       q    Type
                         _______ _______ _______ _____ _____    ______ ____

>  <TORSDO>
F 1

$$$$
=
 OpenBabel10262420013D

 27 31  0  0  1  0  0  0  0  0999 V2000
  184.2830  178.2550  141.4470 O   0  0  0  0  0  0  0  0  0  0  0  0
  186.6420  178.3080  140.9300 C   0  0  0  0  0  0  0  0  0  0  0  0
  186.1380  177.8780  143.4110 C   0  0  0  0  0  2  0  0  0  0  0  0
  190.5780  176.8820  141.3920 C   0  0  0  0  0  3  0  0  0  0  0  0
  190.2290  176.4310  143.6890 C   0  0  0  0  0  3  0  0  0  0  0  0
  187.5520  178.2950  139.8640 C   0  0  0  0  0  3  0  0  0  0  0  0
  188.9150  176.8990  143.6160 C   0  0  0  0  0  0  0  0  0  0  0  0
  183.9080  178.8480  145.5550 C   0  0  0  0  0  2  0  0  0  0  0  0
  188.1760  176.8740  144.7520 F   0  0  0  0  0  0  0  0  0  0  0  0
  182.6490  179.0030  144.7190 C   0  0  0  0  0  2  0  0  0  0  0  0
  188.4050  177.3760  142.3810 C   0  0  0  0  0  0  0  0  0  0  0  0
  185.2640  178.9190  140.6950 C   0  0  1  0  0  3  0  0  0  0  0  0
  191.0250  176.4310  142.5910 N   0  0  0  0  0  0  0  0  0  0  0  0
  189.2730  177.3590  141.2620 C   0  0  0  0  0  0  0  0  0  0  0  0
  184.0310  179.0270  142.5970 C   0  0  1  0  0  3  0  0  0  0  0  0
  187.0780  177.8720  142.2220 C   0  0  0  0  0  0  0  0  0  0  0  0
  185.0430  179.6220  144.9020 C   0  0  0  0  0  2  0  0  0  0  0  0
  188.8470  177.8200  140.0230 C   0  0  0  0  0  3  0  0  0  0  0  0
  181.7120  178.4690  142.6080 F   0  0  0  0  0  0  0  0  0  0  0  0
  182.8710  178.3690  143.3530 C   0  0  2  0  0  3  0  0  0  0  0  0
  185.3050  179.1500  143.4710 C   0  0  1  0  0  3  0  0  0  0  0  0
  182.0410  178.3390  139.0880 C   0  0  0  0  0  3  0  0  0  0  0  0
  184.8470  179.0190  139.2160 C   0  0  2  0  0  3  0  0  0  0  0  0
  183.8060  180.1190  138.9820 C   0  0  0  0  0  2  0  0  0  0  0  0
  182.3790  179.6370  139.0780 C   0  0  0  0  0  3  0  0  0  0  0  0
  183.0610  177.2330  139.1090 C   0  0  0  0  0  2  0  0  0  0  0  0
  184.4170  177.6900  138.5800 C   0  0  0  0  0  2  0  0  0  0  0  0
  2 16  1  0  0  0  0
  4 13  2  0  0  0  0
  6 18  1  0  0  0  0
  6  2  2  0  0  0  0
  7  5  2  0  0  0  0
  7  9  1  0  0  0  0
 10  8  1  0  0  0  0
 11  7  1  0  0  0  0
 12  2  1  6  0  0  0
 12  1  1  0  0  0  0
 13  5  1  0  0  0  0
 14  4  1  0  0  0  0
 14 11  1  0  0  0  0
 15  1  1  6  0  0  0
 15 20  1  0  0  0  0
 15 21  1  0  0  0  0
 16 11  2  0  0  0  0
 16  3  1  0  0  0  0
 17  8  1  0  0  0  0
 18 14  2  0  0  0  0
 20 19  1  6  0  0  0
 20 10  1  0  0  0  0
 21  3  1  1  0  0  0
 21 17  1  0  0  0  0
 22 26  1  0  0  0  0
 23 27  1  1  0  0  0
 23 12  1  0  0  0  0
 24 25  1  0  0  0  0
 24 23  1  0  0  0  0
 25 22  2  0  0  0  0
 27 26  1  0  0  0  0
M  END
>  <MODEL>
7

>  <REMARK>
 VINA RESULT:      -8.3      3.204      7.625
  Name = 
  1 active torsions:
  status: ('A' for Active; 'I' for Inactive)
    1  A    between atoms: C_9  and  C_15
                            x       y       z     vdW  Elec       q    Type
                         _______ _______ _______ _____ _____    ______ ____

>  <TORSDO>
F 1

$$$$
=
 OpenBabel10262420013D

 27 31  0  0  1  0  0  0  0  0999 V2000
  187.6340  178.3180  145.4670 O   0  0  0  0  0  0  0  0  0  0  0  0
  189.0090  177.1500  143.8590 C   0  0  0  0  0  0  0  0  0  0  0  0
  187.0840  178.4780  142.7990 C   0  0  0  0  0  2  0  0  0  0  0  0
  190.9980  176.9070  140.1550 C   0  0  0  0  0  3  0  0  0  0  0  0
  189.2900  178.1340  139.0690 C   0  0  0  0  0  3  0  0  0  0  0  0
  190.2240  176.4650  143.7180 C   0  0  0  0  0  3  0  0  0  0  0  0
  188.5670  178.2470  140.2580 C   0  0  0  0  0  0  0  0  0  0  0  0
  184.0230  179.2060  143.5840 C   0  0  0  0  0  2  0  0  0  0  0  0
  187.3880  178.9150  140.2160 F   0  0  0  0  0  0  0  0  0  0  0  0
  184.0610  179.3350  145.0980 C   0  0  0  0  0  2  0  0  0  0  0  0
  189.0780  177.6700  141.4500 C   0  0  0  0  0  0  0  0  0  0  0  0
  188.3160  177.1170  145.2180 C   0  0  1  0  0  3  0  0  0  0  0  0
  190.4760  177.4750  139.0390 N   0  0  0  0  0  0  0  0  0  0  0  0
  190.3190  176.9910  141.3710 C   0  0  0  0  0  0  0  0  0  0  0  0
  186.2740  178.1050  145.1720 C   0  0  1  0  0  3  0  0  0  0  0  0
  188.4030  177.7380  142.7030 C   0  0  0  0  0  0  0  0  0  0  0  0
  184.6420  177.8780  143.1770 C   0  0  0  0  0  2  0  0  0  0  0  0
  190.8750  176.3920  142.4940 C   0  0  0  0  0  3  0  0  0  0  0  0
  185.5460  179.5380  146.9340 F   0  0  0  0  0  0  0  0  0  0  0  0
  185.5100  179.3760  145.5620 C   0  0  2  0  0  3  0  0  0  0  0  0
  186.0820  177.7430  143.6760 C   0  0  1  0  0  3  0  0  0  0  0  0
  188.2910  178.2530  148.6840 C   0  0  0  0  0  3  0  0  0  0  0  0
  189.2340  176.7530  146.4010 C   0  0  2  0  0  3  0  0  0  0  0  0
  188.4740  176.0370  147.5220 C   0  0  0  0  0  2  0  0  0  0  0  0
  187.9250  176.9680  148.5770 C   0  0  0  0  0  3  0  0  0  0  0  0
  189.2100  178.9230  147.6990 C   0  0  0  0  0  2  0  0  0  0  0  0
  190.0740  177.9170  146.9420 C   0  0  0  0  0  2  0  0  0  0  0  0
  4 14  1  0  0  0  0
  5  7  2  0  0  0  0
  6  2  1  0  0  0  0
  7 11  1  0  0  0  0
  8 10  1  0  0  0  0
  9  7  1  0  0  0  0
 10 20  1  0  0  0  0
 11 16  1  0  0  0  0
 12  2  1  6  0  0  0
 12  1  1  0  0  0  0
 12 23  1  0  0  0  0
 13  5  1  0  0  0  0
 13  4  2  0  0  0  0
 14 11  2  0  0  0  0
 14 18  1  0  0  0  0
 15  1  1  6  0  0  0
 15 20  1  0  0  0  0
 16  3  1  0  0  0  0
 16  2  2  0  0  0  0
 17  8  1  0  0  0  0
 17 21  1  0  0  0  0
 18  6  2  0  0  0  0
 20 19  1  1  0  0  0
 21  3  1  6  0  0  0
 21 15  1  0  0  0  0
 23 27  1  1  0  0  0
 23 24  1  0  0  0  0
 24 25  1  0  0  0  0
 25 22  2  0  0  0  0
 26 22  1  0  0  0  0
 27 26  1  0  0  0  0
M  END
>  <MODEL>
8

>  <REMARK>
 VINA RESULT:      -8.2      2.437      5.163
  Name = 
  1 active torsions:
  status: ('A' for Active; 'I' for Inactive)
    1  A    between atoms: C_9  and  C_15
                            x       y       z     vdW  Elec       q    Type
                         _______ _______ _______ _____ _____    ______ ____

>  <TORSDO>
F 1

$$$$
=
 OpenBabel10262420013D

 27 31  0  0  1  0  0  0  0  0999 V2000
  188.9760  177.0930  140.7930 O   0  0  0  0  0  0  0  0  0  0  0  0
  186.9810  178.3290  141.3700 C   0  0  0  0  0  0  0  0  0  0  0  0
  187.2210  177.8710  138.8540 C   0  0  0  0  0  2  0  0  0  0  0  0
  182.8850  179.1910  140.9130 C   0  0  0  0  0  3  0  0  0  0  0  0
  182.9790  178.7830  138.5830 C   0  0  0  0  0  3  0  0  0  0  0  0
  186.1840  178.7180  142.4540 C   0  0  0  0  0  3  0  0  0  0  0  0
  184.3430  178.4940  138.6540 C   0  0  0  0  0  0  0  0  0  0  0  0
  189.6580  177.6850  136.7240 C   0  0  0  0  0  2  0  0  0  0  0  0
  184.9760  178.1660  137.5010 F   0  0  0  0  0  0  0  0  0  0  0  0
  190.8030  177.1050  137.5380 C   0  0  0  0  0  2  0  0  0  0  0  0
  185.0110  178.5510  139.9040 C   0  0  0  0  0  0  0  0  0  0  0  0
  188.4730  178.1170  141.6100 C   0  0  1  0  0  3  0  0  0  0  0  0
  182.2840  179.1220  139.6980 N   0  0  0  0  0  0  0  0  0  0  0  0
  184.2460  178.9110  141.0410 C   0  0  0  0  0  0  0  0  0  0  0  0
  189.6080  177.6980  139.6900 C   0  0  1  0  0  3  0  0  0  0  0  0
  186.4000  178.2730  140.0630 C   0  0  0  0  0  0  0  0  0  0  0  0
  189.0830  178.8890  137.4530 C   0  0  0  0  0  2  0  0  0  0  0  0
  184.8330  178.9980  142.2970 C   0  0  0  0  0  3  0  0  0  0  0  0
  191.2980  176.0190  139.5850 F   0  0  0  0  0  0  0  0  0  0  0  0
  190.2650  176.5870  138.8640 C   0  0  2  0  0  3  0  0  0  0  0  0
  188.5940  178.5250  138.8570 C   0  0  1  0  0  3  0  0  0  0  0  0
  191.4550  176.6070  143.0720 C   0  0  0  0  0  3  0  0  0  0  0  0
  188.8620  177.8840  143.0820 C   0  0  2  0  0  3  0  0  0  0  0  0
  190.1070  178.6820  143.4840 C   0  0  0  0  0  2  0  0  0  0  0  0
  191.4010  177.9280  143.2970 C   0  0  0  0  0  3  0  0  0  0  0  0
  190.2240  175.7630  142.8790 C   0  0  0  0  0  2  0  0  0  0  0  0
  188.9820  176.4090  143.4880 C   0  0  0  0  0  2  0  0  0  0  0  0
  2 12  1  0  0  0  0
  2  6  1  0  0  0  0
  3 21  1  0  0  0  0
  3 16  1  0  0  0  0
  4 14  1  0  0  0  0
  5  7  2  0  0  0  0
  5 13  1  0  0  0  0
  7 11  1  0  0  0  0
  8 17  1  0  0  0  0
  8 10  1  0  0  0  0
  9  7  1  0  0  0  0
 10 20  1  0  0  0  0
 11 16  1  0  0  0  0
 11 14  2  0  0  0  0
 12  1  1  6  0  0  0
 12 23  1  0  0  0  0
 13  4  2  0  0  0  0
 14 18  1  0  0  0  0
 15  1  1  1  0  0  0
 16  2  2  0  0  0  0
 18  6  2  0  0  0  0
 20 19  1  1  0  0  0
 20 15  1  0  0  0  0
 21 17  1  6  0  0  0
 21 15  1  0  0  0  0
 22 25  2  0  0  0  0
 23 24  1  6  0  0  0
 23 27  1  0  0  0  0
 25 24  1  0  0  0  0
 26 22  1  0  0  0  0
 26 27  1  0  0  0  0
M  END
>  <MODEL>
9

>  <REMARK>
 VINA RESULT:      -8.1      3.070      4.136
  Name = 
  1 active torsions:
  status: ('A' for Active; 'I' for Inactive)
    1  A    between atoms: C_9  and  C_15
                            x       y       z     vdW  Elec       q    Type
                         _______ _______ _______ _____ _____    ______ ____

>  <TORSDO>
F 1

$$$$
