=
 OpenBabel10262422303D

 43 48  0  0  1  0  0  0  0  0999 V2000
  186.3470  179.5410  141.8860 C   0  0  0  0  0  2  0  0  0  0  0  0
  183.0700  177.8010  138.3450 C   0  0  0  0  0  0  0  0  0  0  0  0
  184.1360  179.1680  143.1040 C   0  0  0  0  0  0  0  0  0  0  0  0
  182.9300  178.3310  140.7050 C   0  0  0  0  0  0  0  0  0  0  0  0
  184.4220  178.1560  138.3410 C   0  0  0  0  0  3  0  0  0  0  0  0
  182.4210  177.3400  137.0900 C   0  0  0  0  0  1  0  0  0  0  0  0
  184.3010  178.6820  140.7130 C   0  0  0  0  0  0  0  0  0  0  0  0
  182.3260  177.8890  139.5250 C   0  0  0  0  0  3  0  0  0  0  0  0
  185.0320  178.5930  139.5170 C   0  0  0  0  0  3  0  0  0  0  0  0
  184.9110  179.1060  141.9130 C   0  0  0  0  0  0  0  0  0  0  0  0
  182.7800  178.8380  143.0600 C   0  0  0  0  0  3  0  0  0  0  0  0
  182.1790  178.4220  141.8730 C   0  0  0  0  0  3  0  0  0  0  0  0
  185.2320  178.7320  145.2600 C   0  0  0  0  0  0  0  0  0  0  0  0
  185.7790  177.8870  146.0920 C   0  0  0  0  0  3  0  0  0  0  0  0
  184.6640  179.5600  144.4270 C   0  0  0  0  0  3  0  0  0  0  0  0
  189.1710  177.8390  147.9400 C   0  0  0  0  0  2  0  0  0  0  0  0
  189.2930  177.1440  144.9110 C   0  0  0  0  0  3  0  0  0  0  0  0
  190.3750  177.1520  145.9440 C   0  0  0  0  0  2  0  0  0  0  0  0
  187.7380  177.8820  147.5370 C   0  0  0  0  0  3  0  0  0  0  0  0
  187.2310  177.7560  146.2970 C   0  0  0  0  0  0  0  0  0  0  0  0
  189.8940  176.6830  147.2970 C   0  0  0  0  0  2  0  0  0  0  0  0
  187.9960  177.4230  145.0750 C   0  0  0  0  0  3  0  0  0  0  0  0
  187.2110  178.3820  142.0530 N   0  0  0  0  0  2  0  0  0  0  0  0
  188.3470  178.5560  141.1630 C   0  0  0  0  0  2  0  0  0  0  0  0
  188.6820  177.2430  140.4610 C   0  0  1  0  0  3  0  0  0  0  0  0
  190.9610  175.0610  138.3840 F   0  0  0  0  0  0  0  0  0  0  0  0
  191.2070  176.3850  138.0480 C   0  0  2  0  0  0  0  0  0  0  0  0
  189.1750  177.5030  139.1100 N   0  0  2  0  0  0  0  0  0  0  0  0
  189.7700  176.5260  141.2360 C   0  0  0  0  0  2  0  0  0  0  0  0
  188.4990  176.5480  138.2280 C   0  0  0  0  0  2  0  0  0  0  0  0
  190.6450  177.3180  139.1420 C   0  0  1  0  0  3  0  0  0  0  0  0
  190.5290  176.7030  136.7130 C   0  0  0  0  0  2  0  0  0  0  0  0
  191.0550  176.8790  140.5400 C   0  0  0  0  0  2  0  0  0  0  0  0
  189.0000  176.6930  136.7950 C   0  0  0  0  0  2  0  0  0  0  0  0
  192.7140  176.6200  137.9130 C   0  0  0  0  0  2  0  0  0  0  0  0
  193.3480  175.7980  136.7920 C   0  0  1  0  0  3  0  0  0  0  0  0
  194.3130  176.6690  136.0060 C   0  0  0  0  0  1  0  0  0  0  0  0
  194.0530  174.5870  137.3150 C   0  0  0  0  0  0  0  0  0  0  0  0
  194.6260  172.2840  137.0830 N   0  0  0  0  0  0  0  0  0  0  0  0
  195.4770  173.5120  138.9040 N   0  0  0  0  0  0  0  0  0  0  0  0
  195.3750  172.3440  138.2150 C   0  0  0  0  0  3  0  0  0  0  0  0
  194.8370  174.6300  138.4750 C   0  0  0  0  0  3  0  0  0  0  0  0
  193.9690  173.3800  136.6220 C   0  0  0  0  0  3  0  0  0  0  0  0
  1 10  1  0  0  0  0
  1 23  1  0  0  0  0
  2  8  1  0  0  0  0
  3 15  1  0  0  0  0
  4  7  1  0  0  0  0
  4 12  1  0  0  0  0
  5  2  2  0  0  0  0
  5  9  1  0  0  0  0
  6  2  1  0  0  0  0
  7 10  1  0  0  0  0
  8  4  2  0  0  0  0
  9  7  2  0  0  0  0
 10  3  2  0  0  0  0
 11  3  1  0  0  0  0
 12 11  2  0  0  0  0
 13 14  2  0  0  0  0
 14 20  1  0  0  0  0
 15 13  2  0  0  0  0
 17 22  2  0  0  0  0
 17 18  1  0  0  0  0
 18 21  1  0  0  0  0
 19 16  1  0  0  0  0
 20 19  2  0  0  0  0
 21 16  1  0  0  0  0
 22 20  1  0  0  0  0
 24 23  1  0  0  0  0
 25 24  1  1  0  0  0
 25 29  1  0  0  0  0
 27 26  1  1  0  0  0
 27 31  1  0  0  0  0
 28 30  1  6  0  0  0
 28 31  1  0  0  0  0
 28 25  1  0  0  0  0
 31 33  1  1  0  0  0
 32 34  1  0  0  0  0
 32 27  1  0  0  0  0
 33 29  1  0  0  0  0
 34 30  1  0  0  0  0
 35 27  1  0  0  0  0
 36 37  1  1  0  0  0
 36 38  1  0  0  0  0
 36 35  1  0  0  0  0
 38 42  1  0  0  0  0
 39 41  2  0  0  0  0
 41 40  1  0  0  0  0
 42 40  2  0  0  0  0
 43 39  1  0  0  0  0
 43 38  2  0  0  0  0
M  END
>  <MODEL>
1

>  <REMARK>
 VINA RESULT:     -10.1      0.000      0.000
  Name = 
  9 active torsions:
  status: ('A' for Active; 'I' for Inactive)
    1  A    between atoms: C_2  and  C_13
    2  A    between atoms: C_4  and  C_22
    3  A    between atoms: C_8  and  C_34
    4  A    between atoms: C_11  and  C_14
    5  A    between atoms: C_13  and  N_38
    6  A    between atoms: C_14  and  C_22
    7  A    between atoms: C_27  and  C_30
    8  A    between atoms: C_27  and  N_38
    9  A    between atoms: C_28  and  C_35
                            x       y       z     vdW  Elec       q    Type
                         _______ _______ _______ _____ _____    ______ ____

>  <TORSDO>
F 9

$$$$
=
 OpenBabel10262422303D

 43 48  0  0  1  0  0  0  0  0999 V2000
  187.5600  177.6530  142.8400 C   0  0  0  0  0  2  0  0  0  0  0  0
  190.7660  176.6860  146.7240 C   0  0  0  0  0  0  0  0  0  0  0  0
  186.2250  178.0890  144.9710 C   0  0  0  0  0  0  0  0  0  0  0  0
  188.4470  177.3620  146.5360 C   0  0  0  0  0  0  0  0  0  0  0  0
  190.8800  176.6750  145.3320 C   0  0  0  0  0  3  0  0  0  0  0  0
  191.9350  176.3220  147.5670 C   0  0  0  0  0  1  0  0  0  0  0  0
  188.5560  177.3640  145.1260 C   0  0  0  0  0  0  0  0  0  0  0  0
  189.5510  177.0290  147.3250 C   0  0  0  0  0  3  0  0  0  0  0  0
  189.7830  177.0120  144.5390 C   0  0  0  0  0  3  0  0  0  0  0  0
  187.4450  177.7250  144.3350 C   0  0  0  0  0  0  0  0  0  0  0  0
  186.1410  178.0540  146.3650 C   0  0  0  0  0  3  0  0  0  0  0  0
  187.2400  177.6950  147.1440 C   0  0  0  0  0  3  0  0  0  0  0  0
  184.9840  178.9050  143.0150 C   0  0  0  0  0  0  0  0  0  0  0  0
  184.9850  179.3110  141.7730 C   0  0  0  0  0  3  0  0  0  0  0  0
  185.0040  178.5180  144.2600 C   0  0  0  0  0  3  0  0  0  0  0  0
  182.8740  176.7890  139.7470 C   0  0  0  0  0  2  0  0  0  0  0  0
  185.2190  178.1170  138.1940 C   0  0  0  0  0  3  0  0  0  0  0  0
  184.1650  177.1660  137.7230 C   0  0  0  0  0  2  0  0  0  0  0  0
  183.4420  177.7280  140.7540 C   0  0  0  0  0  3  0  0  0  0  0  0
  184.5480  178.4840  140.6360 C   0  0  0  0  0  0  0  0  0  0  0  0
  182.8240  177.4110  138.3740 C   0  0  0  0  0  2  0  0  0  0  0  0
  185.3750  178.6330  139.4170 C   0  0  0  0  0  3  0  0  0  0  0  0
  188.6290  178.5320  142.3910 N   0  0  0  0  0  2  0  0  0  0  0  0
  188.5690  178.5790  140.9380 C   0  0  0  0  0  2  0  0  0  0  0  0
  188.9440  177.2250  140.3440 C   0  0  1  0  0  3  0  0  0  0  0  0
  191.2310  174.9810  138.3440 F   0  0  0  0  0  0  0  0  0  0  0  0
  191.3770  176.2780  137.8700 C   0  0  2  0  0  0  0  0  0  0  0  0
  189.3430  177.3790  138.9460 N   0  0  2  0  0  0  0  0  0  0  0  0
  190.1150  176.6480  141.1140 C   0  0  0  0  0  2  0  0  0  0  0  0
  188.6790  176.3070  138.2020 C   0  0  0  0  0  2  0  0  0  0  0  0
  190.8200  177.2800  138.9040 C   0  0  1  0  0  3  0  0  0  0  0  0
  190.6060  176.4270  136.5560 C   0  0  0  0  0  2  0  0  0  0  0  0
  191.3350  177.0030  140.3090 C   0  0  0  0  0  2  0  0  0  0  0  0
  189.0880  176.3400  136.7330 C   0  0  0  0  0  2  0  0  0  0  0  0
  192.8560  176.5820  137.6210 C   0  0  0  0  0  2  0  0  0  0  0  0
  193.4790  175.6840  136.5530 C   0  0  1  0  0  3  0  0  0  0  0  0
  194.4690  176.4860  135.7280 C   0  0  0  0  0  1  0  0  0  0  0  0
  194.1510  174.4880  137.1500 C   0  0  0  0  0  0  0  0  0  0  0  0
  194.7270  172.1780  137.0200 N   0  0  0  0  0  0  0  0  0  0  0  0
  195.4880  173.4610  138.8430 N   0  0  0  0  0  0  0  0  0  0  0  0
  195.4170  172.2720  138.1870 C   0  0  0  0  0  3  0  0  0  0  0  0
  194.8750  174.5660  138.3470 C   0  0  0  0  0  3  0  0  0  0  0  0
  194.0990  173.2610  136.4910 C   0  0  0  0  0  3  0  0  0  0  0  0
  1 10  1  0  0  0  0
  2  8  1  0  0  0  0
  2  6  1  0  0  0  0
  3 11  1  0  0  0  0
  4 12  1  0  0  0  0
  4  8  2  0  0  0  0
  5  2  2  0  0  0  0
  7  4  1  0  0  0  0
  9  7  2  0  0  0  0
  9  5  1  0  0  0  0
 10  3  2  0  0  0  0
 10  7  1  0  0  0  0
 11 12  2  0  0  0  0
 13 15  2  0  0  0  0
 14 13  2  0  0  0  0
 15  3  1  0  0  0  0
 16 19  1  0  0  0  0
 17 22  2  0  0  0  0
 18 17  1  0  0  0  0
 18 21  1  0  0  0  0
 20 19  2  0  0  0  0
 20 14  1  0  0  0  0
 21 16  1  0  0  0  0
 22 20  1  0  0  0  0
 23  1  1  0  0  0  0
 24 23  1  0  0  0  0
 25 24  1  1  0  0  0
 25 29  1  0  0  0  0
 27 26  1  1  0  0  0
 27 31  1  0  0  0  0
 28 30  1  6  0  0  0
 28 25  1  0  0  0  0
 31 28  1  0  0  0  0
 31 33  1  1  0  0  0
 32 34  1  0  0  0  0
 32 27  1  0  0  0  0
 33 29  1  0  0  0  0
 34 30  1  0  0  0  0
 35 27  1  0  0  0  0
 36 37  1  1  0  0  0
 36 38  1  0  0  0  0
 36 35  1  0  0  0  0
 38 42  1  0  0  0  0
 39 41  2  0  0  0  0
 41 40  1  0  0  0  0
 42 40  2  0  0  0  0
 43 39  1  0  0  0  0
 43 38  2  0  0  0  0
M  END
>  <MODEL>
2

>  <REMARK>
 VINA RESULT:      -9.8      0.787      5.670
  Name = 
  9 active torsions:
  status: ('A' for Active; 'I' for Inactive)
    1  A    between atoms: C_2  and  C_13
    2  A    between atoms: C_4  and  C_22
    3  A    between atoms: C_8  and  C_34
    4  A    between atoms: C_11  and  C_14
    5  A    between atoms: C_13  and  N_38
    6  A    between atoms: C_14  and  C_22
    7  A    between atoms: C_27  and  C_30
    8  A    between atoms: C_27  and  N_38
    9  A    between atoms: C_28  and  C_35
                            x       y       z     vdW  Elec       q    Type
                         _______ _______ _______ _____ _____    ______ ____

>  <TORSDO>
F 9

$$$$
=
 OpenBabel10262422303D

 43 48  0  0  1  0  0  0  0  0999 V2000
  187.5710  177.4940  142.2500 C   0  0  0  0  0  2  0  0  0  0  0  0
  187.7000  177.8640  147.3630 C   0  0  0  0  0  0  0  0  0  0  0  0
  185.3090  178.4560  142.9370 C   0  0  0  0  0  0  0  0  0  0  0  0
  186.0560  178.3320  145.6470 C   0  0  0  0  0  0  0  0  0  0  0  0
  188.6120  177.4560  146.3860 C   0  0  0  0  0  3  0  0  0  0  0  0
  188.0840  177.8220  148.7990 C   0  0  0  0  0  1  0  0  0  0  0  0
  186.9760  177.9320  144.6490 C   0  0  0  0  0  0  0  0  0  0  0  0
  186.4240  178.3000  146.9940 C   0  0  0  0  0  3  0  0  0  0  0  0
  188.2520  177.4910  145.0380 C   0  0  0  0  0  3  0  0  0  0  0  0
  186.6070  177.9890  143.2880 C   0  0  0  0  0  0  0  0  0  0  0  0
  184.4150  178.8210  143.9450 C   0  0  0  0  0  3  0  0  0  0  0  0
  184.7810  178.7620  145.2890 C   0  0  0  0  0  3  0  0  0  0  0  0
  183.6110  178.2720  141.1720 C   0  0  0  0  0  0  0  0  0  0  0  0
  182.4080  177.9230  140.8020 C   0  0  0  0  0  3  0  0  0  0  0  0
  184.8150  178.5950  141.5520 C   0  0  0  0  0  3  0  0  0  0  0  0
  179.0000  179.6760  141.2900 C   0  0  0  0  0  2  0  0  0  0  0  0
  180.8150  180.8830  139.0710 C   0  0  0  0  0  3  0  0  0  0  0  0
  179.4840  181.3360  139.5830 C   0  0  0  0  0  2  0  0  0  0  0  0
  180.2310  178.8430  141.3860 C   0  0  0  0  0  3  0  0  0  0  0  0
  181.3060  178.8740  140.5780 C   0  0  0  0  0  0  0  0  0  0  0  0
  179.3300  181.1310  141.0710 C   0  0  0  0  0  2  0  0  0  0  0  0
  181.5440  179.8400  139.4830 C   0  0  0  0  0  3  0  0  0  0  0  0
  188.4260  178.5900  141.8170 N   0  0  0  0  0  2  0  0  0  0  0  0
  188.5160  178.5220  140.3670 C   0  0  0  0  0  2  0  0  0  0  0  0
  189.0110  177.1480  139.9260 C   0  0  1  0  0  3  0  0  0  0  0  0
  191.5310  174.8980  138.2350 F   0  0  0  0  0  0  0  0  0  0  0  0
  191.5970  176.1480  137.6350 C   0  0  2  0  0  0  0  0  0  0  0  0
  189.4490  177.1910  138.5330 N   0  0  2  0  0  0  0  0  0  0  0  0
  190.1930  176.7430  140.7850 C   0  0  0  0  0  2  0  0  0  0  0  0
  188.8940  176.0020  137.8830 C   0  0  0  0  0  2  0  0  0  0  0  0
  190.9310  177.2030  138.5440 C   0  0  1  0  0  3  0  0  0  0  0  0
  190.8670  176.1040  136.2910 C   0  0  0  0  0  2  0  0  0  0  0  0
  191.4120  177.1090  139.9850 C   0  0  0  0  0  2  0  0  0  0  0  0
  189.3530  175.9190  136.4310 C   0  0  0  0  0  2  0  0  0  0  0  0
  193.0580  176.5390  137.3990 C   0  0  0  0  0  2  0  0  0  0  0  0
  193.7510  175.6610  136.3580 C   0  0  1  0  0  3  0  0  0  0  0  0
  194.7570  176.4910  135.5810 C   0  0  0  0  0  1  0  0  0  0  0  0
  194.4250  174.4800  136.9810 C   0  0  0  0  0  0  0  0  0  0  0  0
  195.2550  172.2530  136.7910 N   0  0  0  0  0  0  0  0  0  0  0  0
  195.5310  173.4230  138.8160 N   0  0  0  0  0  0  0  0  0  0  0  0
  195.7070  172.2990  138.0720 C   0  0  0  0  0  3  0  0  0  0  0  0
  194.9060  174.5110  138.2970 C   0  0  0  0  0  3  0  0  0  0  0  0
  194.6240  173.3190  136.2350 C   0  0  0  0  0  3  0  0  0  0  0  0
  1 10  1  0  0  0  0
  2  6  1  0  0  0  0
  3 10  2  0  0  0  0
  3 11  1  0  0  0  0
  4  8  2  0  0  0  0
  5  2  2  0  0  0  0
  7  9  2  0  0  0  0
  7  4  1  0  0  0  0
  8  2  1  0  0  0  0
  9  5  1  0  0  0  0
 10  7  1  0  0  0  0
 11 12  2  0  0  0  0
 12  4  1  0  0  0  0
 13 15  2  0  0  0  0
 14 13  2  0  0  0  0
 15  3  1  0  0  0  0
 16 19  1  0  0  0  0
 17 22  2  0  0  0  0
 17 18  1  0  0  0  0
 18 21  1  0  0  0  0
 20 14  1  0  0  0  0
 20 19  2  0  0  0  0
 21 16  1  0  0  0  0
 22 20  1  0  0  0  0
 23  1  1  0  0  0  0
 24 23  1  0  0  0  0
 25 24  1  1  0  0  0
 25 29  1  0  0  0  0
 27 26  1  1  0  0  0
 27 31  1  0  0  0  0
 28 30  1  6  0  0  0
 28 31  1  0  0  0  0
 28 25  1  0  0  0  0
 31 33  1  1  0  0  0
 32 34  1  0  0  0  0
 32 27  1  0  0  0  0
 33 29  1  0  0  0  0
 34 30  1  0  0  0  0
 35 27  1  0  0  0  0
 36 37  1  1  0  0  0
 36 38  1  0  0  0  0
 36 35  1  0  0  0  0
 38 42  1  0  0  0  0
 39 41  2  0  0  0  0
 41 40  1  0  0  0  0
 42 40  2  0  0  0  0
 43 39  1  0  0  0  0
 43 38  2  0  0  0  0
M  END
>  <MODEL>
3

>  <REMARK>
 VINA RESULT:      -9.7      1.522      5.910
  Name = 
  9 active torsions:
  status: ('A' for Active; 'I' for Inactive)
    1  A    between atoms: C_2  and  C_13
    2  A    between atoms: C_4  and  C_22
    3  A    between atoms: C_8  and  C_34
    4  A    between atoms: C_11  and  C_14
    5  A    between atoms: C_13  and  N_38
    6  A    between atoms: C_14  and  C_22
    7  A    between atoms: C_27  and  C_30
    8  A    between atoms: C_27  and  N_38
    9  A    between atoms: C_28  and  C_35
                            x       y       z     vdW  Elec       q    Type
                         _______ _______ _______ _____ _____    ______ ____

>  <TORSDO>
F 9

$$$$
=
 OpenBabel10262422303D

 43 48  0  0  1  0  0  0  0  0999 V2000
  187.8470  177.1330  142.4900 C   0  0  0  0  0  2  0  0  0  0  0  0
  187.7050  177.8800  147.5610 C   0  0  0  0  0  0  0  0  0  0  0  0
  185.7100  178.4530  142.9410 C   0  0  0  0  0  0  0  0  0  0  0  0
  186.2590  178.4390  145.7000 C   0  0  0  0  0  0  0  0  0  0  0  0
  188.6080  177.2730  146.6840 C   0  0  0  0  0  3  0  0  0  0  0  0
  187.9880  177.8970  149.0210 C   0  0  0  0  0  1  0  0  0  0  0  0
  187.1720  177.8370  144.8030 C   0  0  0  0  0  0  0  0  0  0  0  0
  186.5320  178.4610  147.0700 C   0  0  0  0  0  3  0  0  0  0  0  0
  188.3430  177.2520  145.3150 C   0  0  0  0  0  3  0  0  0  0  0  0
  186.9010  177.8380  143.4180 C   0  0  0  0  0  0  0  0  0  0  0  0
  184.8160  179.0180  143.8530 C   0  0  0  0  0  3  0  0  0  0  0  0
  185.0850  179.0130  145.2220 C   0  0  0  0  0  3  0  0  0  0  0  0
  184.1760  178.1730  141.0430 C   0  0  0  0  0  0  0  0  0  0  0  0
  183.0240  177.7680  140.5790 C   0  0  0  0  0  3  0  0  0  0  0  0
  185.3300  178.5520  141.5170 C   0  0  0  0  0  3  0  0  0  0  0  0
  179.5580  179.4570  140.8170 C   0  0  0  0  0  2  0  0  0  0  0  0
  181.4200  180.5430  138.5740 C   0  0  0  0  0  3  0  0  0  0  0  0
  180.0610  180.9970  139.0050 C   0  0  0  0  0  2  0  0  0  0  0  0
  180.8050  178.6690  141.0180 C   0  0  0  0  0  3  0  0  0  0  0  0
  181.9080  178.6690  140.2470 C   0  0  0  0  0  0  0  0  0  0  0  0
  179.8590  180.9000  140.4990 C   0  0  0  0  0  2  0  0  0  0  0  0
  182.1600  179.5560  139.0890 C   0  0  0  0  0  3  0  0  0  0  0  0
  188.8790  178.0600  142.0490 N   0  0  0  0  0  2  0  0  0  0  0  0
  190.0070  177.2650  141.5900 C   0  0  0  0  0  2  0  0  0  0  0  0
  190.3170  177.5730  140.1280 C   0  0  1  0  0  3  0  0  0  0  0  0
  189.8200  177.0160  136.4260 F   0  0  0  0  0  0  0  0  0  0  0  0
  189.5240  175.8300  137.0840 C   0  0  2  0  0  0  0  0  0  0  0  0
  190.5140  176.3330  139.3800 N   0  0  2  0  0  0  0  0  0  0  0  0
  189.1500  178.3200  139.5150 C   0  0  0  0  0  2  0  0  0  0  0  0
  191.7040  176.5300  138.5500 C   0  0  0  0  0  2  0  0  0  0  0  0
  189.2850  176.1080  138.5840 C   0  0  1  0  0  3  0  0  0  0  0  0
  190.6960  174.8580  136.9290 C   0  0  0  0  0  2  0  0  0  0  0  0
  188.3330  177.2730  138.8100 C   0  0  0  0  0  2  0  0  0  0  0  0
  191.9560  175.3080  137.6730 C   0  0  0  0  0  2  0  0  0  0  0  0
  188.2650  175.1980  136.4840 C   0  0  0  0  0  2  0  0  0  0  0  0
  187.1850  176.2240  136.1450 C   0  0  1  0  0  3  0  0  0  0  0  0
  187.1050  176.3980  134.6380 C   0  0  0  0  0  1  0  0  0  0  0  0
  185.8500  175.8330  136.6930 C   0  0  0  0  0  0  0  0  0  0  0  0
  184.4260  174.1710  137.6400 N   0  0  0  0  0  0  0  0  0  0  0  0
  183.6160  176.3630  137.3510 N   0  0  0  0  0  0  0  0  0  0  0  0
  183.4220  175.0800  137.7560 C   0  0  0  0  0  3  0  0  0  0  0  0
  184.8050  176.7560  136.8290 C   0  0  0  0  0  3  0  0  0  0  0  0
  185.6310  174.5240  137.1220 C   0  0  0  0  0  3  0  0  0  0  0  0
  1 10  1  0  0  0  0
  2  6  1  0  0  0  0
  3 10  2  0  0  0  0
  3 11  1  0  0  0  0
  4  8  2  0  0  0  0
  5  2  2  0  0  0  0
  7  9  2  0  0  0  0
  7  4  1  0  0  0  0
  8  2  1  0  0  0  0
  9  5  1  0  0  0  0
 10  7  1  0  0  0  0
 11 12  2  0  0  0  0
 12  4  1  0  0  0  0
 13 15  2  0  0  0  0
 14 13  2  0  0  0  0
 15  3  1  0  0  0  0
 16 19  1  0  0  0  0
 17 18  1  0  0  0  0
 17 22  2  0  0  0  0
 18 21  1  0  0  0  0
 20 14  1  0  0  0  0
 20 19  2  0  0  0  0
 21 16  1  0  0  0  0
 22 20  1  0  0  0  0
 23  1  1  0  0  0  0
 24 23  1  0  0  0  0
 25 24  1  1  0  0  0
 27 26  1  6  0  0  0
 27 31  1  0  0  0  0
 28 30  1  6  0  0  0
 28 25  1  0  0  0  0
 29 25  1  0  0  0  0
 31 33  1  6  0  0  0
 31 28  1  0  0  0  0
 32 27  1  0  0  0  0
 32 34  1  0  0  0  0
 33 29  1  0  0  0  0
 34 30  1  0  0  0  0
 35 27  1  0  0  0  0
 36 37  1  6  0  0  0
 36 35  1  0  0  0  0
 36 38  1  0  0  0  0
 38 42  2  0  0  0  0
 38 43  1  0  0  0  0
 39 41  1  0  0  0  0
 40 41  2  0  0  0  0
 42 40  1  0  0  0  0
 43 39  2  0  0  0  0
M  END
>  <MODEL>
4

>  <REMARK>
 VINA RESULT:      -9.7      2.271      7.367
  Name = 
  9 active torsions:
  status: ('A' for Active; 'I' for Inactive)
    1  A    between atoms: C_2  and  C_13
    2  A    between atoms: C_4  and  C_22
    3  A    between atoms: C_8  and  C_34
    4  A    between atoms: C_11  and  C_14
    5  A    between atoms: C_13  and  N_38
    6  A    between atoms: C_14  and  C_22
    7  A    between atoms: C_27  and  C_30
    8  A    between atoms: C_27  and  N_38
    9  A    between atoms: C_28  and  C_35
                            x       y       z     vdW  Elec       q    Type
                         _______ _______ _______ _____ _____    ______ ____

>  <TORSDO>
F 9

$$$$
=
 OpenBabel10262422303D

 43 48  0  0  1  0  0  0  0  0999 V2000
  189.4240  178.3070  137.0320 C   0  0  0  0  0  2  0  0  0  0  0  0
  192.9250  174.5890  137.4940 C   0  0  0  0  0  0  0  0  0  0  0  0
  188.3600  176.2180  136.0240 C   0  0  0  0  0  0  0  0  0  0  0  0
  190.6970  174.7460  136.5550 C   0  0  0  0  0  0  0  0  0  0  0  0
  192.8660  175.9330  137.8700 C   0  0  0  0  0  3  0  0  0  0  0  0
  194.1450  173.7910  137.7820 C   0  0  0  0  0  1  0  0  0  0  0  0
  190.6230  176.1040  136.9420 C   0  0  0  0  0  0  0  0  0  0  0  0
  191.8420  173.9960  136.8370 C   0  0  0  0  0  3  0  0  0  0  0  0
  191.7230  176.6850  137.5970 C   0  0  0  0  0  3  0  0  0  0  0  0
  189.4550  176.8500  136.6760 C   0  0  0  0  0  0  0  0  0  0  0  0
  188.4710  174.8820  135.6320 C   0  0  0  0  0  3  0  0  0  0  0  0
  189.6270  174.1490  135.8940 C   0  0  0  0  0  3  0  0  0  0  0  0
  185.9410  176.5590  136.2860 C   0  0  0  0  0  0  0  0  0  0  0  0
  184.8120  176.2140  136.8450 C   0  0  0  0  0  3  0  0  0  0  0  0
  187.0720  176.8770  135.7210 C   0  0  0  0  0  3  0  0  0  0  0  0
  182.2910  177.0560  139.6490 C   0  0  0  0  0  2  0  0  0  0  0  0
  184.5910  179.1140  139.2610 C   0  0  0  0  0  3  0  0  0  0  0  0
  183.4950  179.0710  140.2780 C   0  0  0  0  0  2  0  0  0  0  0  0
  183.1050  176.4360  138.5670 C   0  0  0  0  0  3  0  0  0  0  0  0
  184.1710  176.9640  137.9380 C   0  0  0  0  0  0  0  0  0  0  0  0
  183.1620  177.6650  140.7190 C   0  0  0  0  0  2  0  0  0  0  0  0
  184.8390  178.2400  138.2800 C   0  0  0  0  0  3  0  0  0  0  0  0
  188.5570  178.5100  138.1830 N   0  0  0  0  0  2  0  0  0  0  0  0
  189.4120  178.6260  139.3540 C   0  0  0  0  0  2  0  0  0  0  0  0
  189.1520  177.4750  140.3210 C   0  0  1  0  0  3  0  0  0  0  0  0
  188.4740  176.1160  143.7800 F   0  0  0  0  0  0  0  0  0  0  0  0
  189.1820  177.3020  143.9140 C   0  0  2  0  0  0  0  0  0  0  0  0
  189.9860  177.6180  141.5130 N   0  0  2  0  0  0  0  0  0  0  0  0
  187.6990  177.5000  140.7500 C   0  0  0  0  0  2  0  0  0  0  0  0
  190.5490  176.2950  141.7900 C   0  0  0  0  0  2  0  0  0  0  0  0
  189.1070  178.1100  142.6000 C   0  0  1  0  0  3  0  0  0  0  0  0
  190.6460  176.9860  144.2300 C   0  0  0  0  0  2  0  0  0  0  0  0
  187.6840  178.2180  142.0710 C   0  0  0  0  0  2  0  0  0  0  0  0
  191.3860  176.3230  143.0650 C   0  0  0  0  0  2  0  0  0  0  0  0
  188.5930  178.1390  145.0520 C   0  0  0  0  0  2  0  0  0  0  0  0
  187.5010  177.4050  145.8290 C   0  0  1  0  0  3  0  0  0  0  0  0
  187.7760  177.5130  147.3180 C   0  0  0  0  0  1  0  0  0  0  0  0
  186.1380  177.9350  145.5140 C   0  0  0  0  0  0  0  0  0  0  0  0
  184.1140  178.9620  146.2480 N   0  0  0  0  0  0  0  0  0  0  0  0
  184.4010  178.4680  143.9630 N   0  0  0  0  0  0  0  0  0  0  0  0
  183.6420  178.9680  144.9740 C   0  0  0  0  0  3  0  0  0  0  0  0
  185.6360  177.9590  144.2070 C   0  0  0  0  0  3  0  0  0  0  0  0
  185.3440  178.4600  146.5340 C   0  0  0  0  0  3  0  0  0  0  0  0
  1 23  1  0  0  0  0
  2  6  1  0  0  0  0
  2  5  1  0  0  0  0
  3 10  1  0  0  0  0
  4  8  1  0  0  0  0
  4  7  1  0  0  0  0
  7  9  1  0  0  0  0
  8  2  2  0  0  0  0
  9  5  2  0  0  0  0
 10  7  2  0  0  0  0
 10  1  1  0  0  0  0
 11 12  1  0  0  0  0
 11  3  2  0  0  0  0
 12  4  2  0  0  0  0
 13 14  2  0  0  0  0
 14 20  1  0  0  0  0
 15  3  1  0  0  0  0
 15 13  2  0  0  0  0
 16 21  1  0  0  0  0
 17 18  1  0  0  0  0
 18 21  1  0  0  0  0
 19 16  1  0  0  0  0
 20 22  1  0  0  0  0
 20 19  2  0  0  0  0
 22 17  2  0  0  0  0
 23 24  1  0  0  0  0
 25 24  1  6  0  0  0
 25 29  1  0  0  0  0
 25 28  1  0  0  0  0
 27 26  1  6  0  0  0
 27 32  1  0  0  0  0
 27 35  1  0  0  0  0
 28 30  1  1  0  0  0
 28 31  1  0  0  0  0
 29 33  1  0  0  0  0
 30 34  1  0  0  0  0
 31 33  1  6  0  0  0
 31 27  1  0  0  0  0
 34 32  1  0  0  0  0
 35 36  1  0  0  0  0
 36 37  1  1  0  0  0
 38 36  1  0  0  0  0
 38 43  1  0  0  0  0
 39 43  2  0  0  0  0
 40 42  1  0  0  0  0
 40 41  2  0  0  0  0
 41 39  1  0  0  0  0
 42 38  2  0  0  0  0
M  END
>  <MODEL>
5

>  <REMARK>
 VINA RESULT:      -9.4      2.380      9.157
  Name = 
  9 active torsions:
  status: ('A' for Active; 'I' for Inactive)
    1  A    between atoms: C_2  and  C_13
    2  A    between atoms: C_4  and  C_22
    3  A    between atoms: C_8  and  C_34
    4  A    between atoms: C_11  and  C_14
    5  A    between atoms: C_13  and  N_38
    6  A    between atoms: C_14  and  C_22
    7  A    between atoms: C_27  and  C_30
    8  A    between atoms: C_27  and  N_38
    9  A    between atoms: C_28  and  C_35
                            x       y       z     vdW  Elec       q    Type
                         _______ _______ _______ _____ _____    ______ ____

>  <TORSDO>
F 9

$$$$
=
 OpenBabel10262422303D

 43 48  0  0  1  0  0  0  0  0999 V2000
  185.9330  177.7040  142.7320 C   0  0  0  0  0  2  0  0  0  0  0  0
  188.2380  177.8860  147.3100 C   0  0  0  0  0  0  0  0  0  0  0  0
  188.4390  177.7260  142.2510 C   0  0  0  0  0  0  0  0  0  0  0  0
  188.9880  177.8670  145.0060 C   0  0  0  0  0  0  0  0  0  0  0  0
  186.9090  177.8170  146.8820 C   0  0  0  0  0  3  0  0  0  0  0  0
  188.5470  177.9430  148.7620 C   0  0  0  0  0  1  0  0  0  0  0  0
  187.6470  177.7860  144.5640 C   0  0  0  0  0  0  0  0  0  0  0  0
  189.2750  177.9110  146.3730 C   0  0  0  0  0  3  0  0  0  0  0  0
  186.6160  177.7670  145.5190 C   0  0  0  0  0  3  0  0  0  0  0  0
  187.3640  177.7180  143.1830 C   0  0  0  0  0  0  0  0  0  0  0  0
  189.7520  177.8300  142.7170 C   0  0  0  0  0  3  0  0  0  0  0  0
  190.0280  177.9000  144.0810 C   0  0  0  0  0  3  0  0  0  0  0  0
  189.2710  177.6500  139.9410 C   0  0  0  0  0  0  0  0  0  0  0  0
  190.2740  177.6990  139.1050 C   0  0  0  0  0  3  0  0  0  0  0  0
  188.2790  177.6240  140.7860 C   0  0  0  0  0  3  0  0  0  0  0  0
  190.4380  174.3360  137.2110 C   0  0  0  0  0  2  0  0  0  0  0  0
  193.1880  175.6310  137.8690 C   0  0  0  0  0  3  0  0  0  0  0  0
  192.8650  174.3920  137.0960 C   0  0  0  0  0  2  0  0  0  0  0  0
  190.0480  175.6130  137.8700 C   0  0  0  0  0  3  0  0  0  0  0  0
  190.8590  176.5170  138.4490 C   0  0  0  0  0  0  0  0  0  0  0  0
  191.6040  174.5280  136.2750 C   0  0  0  0  0  2  0  0  0  0  0  0
  192.3380  176.4880  138.4450 C   0  0  0  0  0  3  0  0  0  0  0  0
  185.5700  179.0160  142.2180 N   0  0  0  0  0  2  0  0  0  0  0  0
  184.1500  178.9810  141.9060 C   0  0  0  0  0  2  0  0  0  0  0  0
  183.9240  178.3940  140.5160 C   0  0  1  0  0  3  0  0  0  0  0  0
  182.0330  178.1870  137.2530 F   0  0  0  0  0  0  0  0  0  0  0  0
  181.1530  178.6220  138.2340 C   0  0  2  0  0  0  0  0  0  0  0  0
  182.5090  178.0780  140.3250 N   0  0  2  0  0  0  0  0  0  0  0  0
  184.3300  179.4120  139.4700 C   0  0  0  0  0  2  0  0  0  0  0  0
  182.4570  176.7490  139.7120 C   0  0  0  0  0  2  0  0  0  0  0  0
  181.9430  179.1360  139.4570 C   0  0  1  0  0  3  0  0  0  0  0  0
  180.2570  177.4570  138.6640 C   0  0  0  0  0  2  0  0  0  0  0  0
  183.0550  180.0960  139.0620 C   0  0  0  0  0  2  0  0  0  0  0  0
  181.0160  176.3540  139.4070 C   0  0  0  0  0  2  0  0  0  0  0  0
  180.2770  179.7530  137.6890 C   0  0  0  0  0  2  0  0  0  0  0  0
  180.7380  180.2600  136.3240 C   0  0  1  0  0  3  0  0  0  0  0  0
  179.8230  179.7120  135.2430 C   0  0  0  0  0  1  0  0  0  0  0  0
  180.7720  181.7540  136.2650 C   0  0  0  0  0  0  0  0  0  0  0  0
  180.9000  183.8520  137.3920 N   0  0  0  0  0  0  0  0  0  0  0  0
  180.8260  183.8040  135.0390 N   0  0  0  0  0  0  0  0  0  0  0  0
  180.8890  184.5060  136.2010 C   0  0  0  0  0  3  0  0  0  0  0  0
  180.7720  182.4470  135.0470 C   0  0  0  0  0  3  0  0  0  0  0  0
  180.8460  182.4950  137.4440 C   0  0  0  0  0  3  0  0  0  0  0  0
  1 10  1  0  0  0  0
  2  6  1  0  0  0  0
  3 11  2  0  0  0  0
  3 10  1  0  0  0  0
  4  8  1  0  0  0  0
  5  2  1  0  0  0  0
  7  4  1  0  0  0  0
  7  9  1  0  0  0  0
  8  2  2  0  0  0  0
  9  5  2  0  0  0  0
 10  7  2  0  0  0  0
 11 12  1  0  0  0  0
 12  4  2  0  0  0  0
 13 15  2  0  0  0  0
 14 13  2  0  0  0  0
 15  3  1  0  0  0  0
 16 19  1  0  0  0  0
 17 22  2  0  0  0  0
 18 17  1  0  0  0  0
 19 20  2  0  0  0  0
 20 14  1  0  0  0  0
 21 18  1  0  0  0  0
 21 16  1  0  0  0  0
 22 20  1  0  0  0  0
 23  1  1  0  0  0  0
 24 23  1  0  0  0  0
 25 24  1  1  0  0  0
 27 26  1  6  0  0  0
 27 32  1  0  0  0  0
 27 31  1  0  0  0  0
 28 30  1  6  0  0  0
 28 25  1  0  0  0  0
 29 25  1  0  0  0  0
 31 33  1  6  0  0  0
 31 28  1  0  0  0  0
 32 34  1  0  0  0  0
 33 29  1  0  0  0  0
 34 30  1  0  0  0  0
 35 27  1  0  0  0  0
 36 37  1  6  0  0  0
 36 35  1  0  0  0  0
 38 36  1  0  0  0  0
 38 43  1  0  0  0  0
 39 43  2  0  0  0  0
 40 42  1  0  0  0  0
 40 41  2  0  0  0  0
 41 39  1  0  0  0  0
 42 38  2  0  0  0  0
M  END
>  <MODEL>
6

>  <REMARK>
 VINA RESULT:      -9.4      3.636     10.318
  Name = 
  9 active torsions:
  status: ('A' for Active; 'I' for Inactive)
    1  A    between atoms: C_2  and  C_13
    2  A    between atoms: C_4  and  C_22
    3  A    between atoms: C_8  and  C_34
    4  A    between atoms: C_11  and  C_14
    5  A    between atoms: C_13  and  N_38
    6  A    between atoms: C_14  and  C_22
    7  A    between atoms: C_27  and  C_30
    8  A    between atoms: C_27  and  N_38
    9  A    between atoms: C_28  and  C_35
                            x       y       z     vdW  Elec       q    Type
                         _______ _______ _______ _____ _____    ______ ____

>  <TORSDO>
F 9

$$$$
=
 OpenBabel10262422303D

 43 48  0  0  1  0  0  0  0  0999 V2000
  186.7890  178.1130  136.6720 C   0  0  0  0  0  2  0  0  0  0  0  0
  187.9930  173.2140  135.7510 C   0  0  0  0  0  0  0  0  0  0  0  0
  184.7710  176.7460  137.4240 C   0  0  0  0  0  0  0  0  0  0  0  0
  186.0560  174.3730  136.6290 C   0  0  0  0  0  0  0  0  0  0  0  0
  188.6610  174.4330  135.6040 C   0  0  0  0  0  3  0  0  0  0  0  0
  188.6640  171.9490  135.3520 C   0  0  0  0  0  1  0  0  0  0  0  0
  186.7270  175.6110  136.4940 C   0  0  0  0  0  0  0  0  0  0  0  0
  186.6930  173.1840  136.2620 C   0  0  0  0  0  3  0  0  0  0  0  0
  188.0320  175.6220  135.9730 C   0  0  0  0  0  3  0  0  0  0  0  0
  186.0870  176.8050  136.8880 C   0  0  0  0  0  0  0  0  0  0  0  0
  184.1240  175.5120  137.5230 C   0  0  0  0  0  3  0  0  0  0  0  0
  184.7580  174.3340  137.1300 C   0  0  0  0  0  3  0  0  0  0  0  0
  183.2840  177.9190  138.9880 C   0  0  0  0  0  0  0  0  0  0  0  0
  182.5440  177.8990  140.0650 C   0  0  0  0  0  3  0  0  0  0  0  0
  184.0080  177.9160  137.9040 C   0  0  0  0  0  3  0  0  0  0  0  0
  182.2280  179.3140  143.6460 C   0  0  0  0  0  2  0  0  0  0  0  0
  185.1280  179.1350  142.5340 C   0  0  0  0  0  3  0  0  0  0  0  0
  184.6350  179.5530  143.8830 C   0  0  0  0  0  2  0  0  0  0  0  0
  182.0270  178.6910  142.3080 C   0  0  0  0  0  3  0  0  0  0  0  0
  182.9530  178.4790  141.3560 C   0  0  0  0  0  0  0  0  0  0  0  0
  183.4410  178.7510  144.3440 C   0  0  0  0  0  2  0  0  0  0  0  0
  184.4080  178.7150  141.4890 C   0  0  0  0  0  3  0  0  0  0  0  0
  187.1430  178.6960  137.9580 N   0  0  0  0  0  2  0  0  0  0  0  0
  188.5950  178.7120  138.0420 C   0  0  0  0  0  2  0  0  0  0  0  0
  189.0930  177.5480  138.8920 C   0  0  1  0  0  3  0  0  0  0  0  0
  190.2850  176.0790  142.1620 F   0  0  0  0  0  0  0  0  0  0  0  0
  190.6060  177.4300  142.1540 C   0  0  2  0  0  0  0  0  0  0  0  0
  190.2520  177.9590  139.6830 N   0  0  2  0  0  0  0  0  0  0  0  0
  187.9950  177.1170  139.8440 C   0  0  0  0  0  2  0  0  0  0  0  0
  191.2400  176.8850  139.5670 C   0  0  0  0  0  2  0  0  0  0  0  0
  189.7790  178.1590  141.0730 C   0  0  1  0  0  3  0  0  0  0  0  0
  192.0960  177.5950  141.8470 C   0  0  0  0  0  2  0  0  0  0  0  0
  188.3000  177.8060  141.1440 C   0  0  0  0  0  2  0  0  0  0  0  0
  192.4680  177.1890  140.4180 C   0  0  0  0  0  2  0  0  0  0  0  0
  190.3040  178.0490  143.5210 C   0  0  0  0  0  2  0  0  0  0  0  0
  190.1770  177.0090  144.6330 C   0  0  1  0  0  3  0  0  0  0  0  0
  191.5240  176.8200  145.3080 C   0  0  0  0  0  1  0  0  0  0  0  0
  189.1410  177.3910  145.6410 C   0  0  0  0  0  0  0  0  0  0  0  0
  186.9010  178.0400  146.1390 N   0  0  0  0  0  0  0  0  0  0  0  0
  188.4360  177.7330  147.8980 N   0  0  0  0  0  0  0  0  0  0  0  0
  187.1870  178.0510  147.4670 C   0  0  0  0  0  3  0  0  0  0  0  0
  189.4130  177.4000  147.0150 C   0  0  0  0  0  3  0  0  0  0  0  0
  187.8500  177.7130  145.2230 C   0  0  0  0  0  3  0  0  0  0  0  0
  1 10  1  0  0  0  0
  1 23  1  0  0  0  0
  2  8  1  0  0  0  0
  3 11  1  0  0  0  0
  3 15  1  0  0  0  0
  4 12  1  0  0  0  0
  5  2  2  0  0  0  0
  5  9  1  0  0  0  0
  6  2  1  0  0  0  0
  7  4  1  0  0  0  0
  7 10  1  0  0  0  0
  8  4  2  0  0  0  0
  9  7  2  0  0  0  0
 10  3  2  0  0  0  0
 12 11  2  0  0  0  0
 13 14  2  0  0  0  0
 14 20  1  0  0  0  0
 15 13  2  0  0  0  0
 16 21  1  0  0  0  0
 17 18  1  0  0  0  0
 18 21  1  0  0  0  0
 19 16  1  0  0  0  0
 20 22  1  0  0  0  0
 20 19  2  0  0  0  0
 22 17  2  0  0  0  0
 23 24  1  0  0  0  0
 25 24  1  1  0  0  0
 25 28  1  0  0  0  0
 25 29  1  0  0  0  0
 27 26  1  1  0  0  0
 27 35  1  0  0  0  0
 28 30  1  1  0  0  0
 28 31  1  0  0  0  0
 29 33  1  0  0  0  0
 30 34  1  0  0  0  0
 31 33  1  6  0  0  0
 31 27  1  0  0  0  0
 32 27  1  0  0  0  0
 34 32  1  0  0  0  0
 35 36  1  0  0  0  0
 36 37  1  1  0  0  0
 36 38  1  0  0  0  0
 38 42  1  0  0  0  0
 39 41  2  0  0  0  0
 41 40  1  0  0  0  0
 42 40  2  0  0  0  0
 43 38  2  0  0  0  0
 43 39  1  0  0  0  0
M  END
>  <MODEL>
7

>  <REMARK>
 VINA RESULT:      -9.2      2.753      7.113
  Name = 
  9 active torsions:
  status: ('A' for Active; 'I' for Inactive)
    1  A    between atoms: C_2  and  C_13
    2  A    between atoms: C_4  and  C_22
    3  A    between atoms: C_8  and  C_34
    4  A    between atoms: C_11  and  C_14
    5  A    between atoms: C_13  and  N_38
    6  A    between atoms: C_14  and  C_22
    7  A    between atoms: C_27  and  C_30
    8  A    between atoms: C_27  and  N_38
    9  A    between atoms: C_28  and  C_35
                            x       y       z     vdW  Elec       q    Type
                         _______ _______ _______ _____ _____    ______ ____

>  <TORSDO>
F 9

$$$$
=
 OpenBabel10262422303D

 43 48  0  0  1  0  0  0  0  0999 V2000
  192.9270  177.2390  138.7960 C   0  0  0  0  0  2  0  0  0  0  0  0
  194.3670  172.7290  136.8250 C   0  0  0  0  0  0  0  0  0  0  0  0
  190.8450  176.2650  137.6890 C   0  0  0  0  0  0  0  0  0  0  0  0
  192.3110  174.0100  136.8650 C   0  0  0  0  0  0  0  0  0  0  0  0
  195.0060  173.7220  137.5720 C   0  0  0  0  0  3  0  0  0  0  0  0
  195.1220  171.5220  136.3960 C   0  0  0  0  0  1  0  0  0  0  0  0
  192.9460  175.0160  137.6310 C   0  0  0  0  0  0  0  0  0  0  0  0
  193.0220  172.8730  136.4720 C   0  0  0  0  0  3  0  0  0  0  0  0
  194.3010  174.8570  137.9720 C   0  0  0  0  0  3  0  0  0  0  0  0
  192.2180  176.1520  138.0440 C   0  0  0  0  0  0  0  0  0  0  0  0
  190.2510  175.2680  136.9120 C   0  0  0  0  0  3  0  0  0  0  0  0
  190.9750  174.1490  136.5020 C   0  0  0  0  0  3  0  0  0  0  0  0
  188.9740  177.8240  137.3670 C   0  0  0  0  0  0  0  0  0  0  0  0
  187.9970  178.2690  136.6220 C   0  0  0  0  0  3  0  0  0  0  0  0
  189.9650  177.3830  138.0890 C   0  0  0  0  0  3  0  0  0  0  0  0
  184.4580  176.8720  135.9490 C   0  0  0  0  0  2  0  0  0  0  0  0
  184.8520  178.2310  138.7200 C   0  0  0  0  0  3  0  0  0  0  0  0
  183.6620  177.5240  138.1510 C   0  0  0  0  0  2  0  0  0  0  0  0
  185.9010  177.2420  135.9300 C   0  0  0  0  0  3  0  0  0  0  0  0
  186.5770  177.9530  136.8500 C   0  0  0  0  0  0  0  0  0  0  0  0
  184.0410  176.3370  137.2960 C   0  0  0  0  0  2  0  0  0  0  0  0
  186.0470  178.4190  138.1510 C   0  0  0  0  0  3  0  0  0  0  0  0
  193.0720  176.8540  140.1910 N   0  0  0  0  0  2  0  0  0  0  0  0
  192.0940  177.6130  140.9540 C   0  0  0  0  0  2  0  0  0  0  0  0
  191.2720  176.6840  141.8420 C   0  0  1  0  0  3  0  0  0  0  0  0
  188.9270  176.0510  144.7350 F   0  0  0  0  0  0  0  0  0  0  0  0
  189.6520  177.2010  145.0110 C   0  0  2  0  0  0  0  0  0  0  0  0
  191.4880  177.0090  143.2510 N   0  0  2  0  0  0  0  0  0  0  0  0
  189.8000  176.8670  141.5310 C   0  0  0  0  0  2  0  0  0  0  0  0
  191.6800  175.7360  143.9490 C   0  0  0  0  0  2  0  0  0  0  0  0
  190.2890  177.7450  143.7140 C   0  0  1  0  0  3  0  0  0  0  0  0
  190.7560  176.8750  146.0190 C   0  0  0  0  0  2  0  0  0  0  0  0
  189.2880  177.8240  142.5710 C   0  0  0  0  0  2  0  0  0  0  0  0
  191.8460  175.9630  145.4470 C   0  0  0  0  0  2  0  0  0  0  0  0
  188.7310  178.2710  145.6060 C   0  0  0  0  0  2  0  0  0  0  0  0
  187.5260  177.6820  146.3370 C   0  0  1  0  0  3  0  0  0  0  0  0
  187.5380  178.1390  147.7860 C   0  0  0  0  0  1  0  0  0  0  0  0
  186.2350  178.0600  145.6840 C   0  0  0  0  0  0  0  0  0  0  0  0
  184.0510  179.0030  145.8470 N   0  0  0  0  0  0  0  0  0  0  0  0
  184.8410  178.2640  143.7550 N   0  0  0  0  0  0  0  0  0  0  0  0
  183.8590  178.8190  144.5140 C   0  0  0  0  0  3  0  0  0  0  0  0
  186.0210  177.8870  144.3110 C   0  0  0  0  0  3  0  0  0  0  0  0
  185.2170  178.6380  146.4410 C   0  0  0  0  0  3  0  0  0  0  0  0
  1 23  1  0  0  0  0
  2  5  1  0  0  0  0
  3 10  1  0  0  0  0
  3 15  1  0  0  0  0
  4  7  1  0  0  0  0
  5  9  2  0  0  0  0
  6  2  1  0  0  0  0
  7  9  1  0  0  0  0
  7 10  2  0  0  0  0
  8  2  2  0  0  0  0
  8  4  1  0  0  0  0
 10  1  1  0  0  0  0
 11  3  2  0  0  0  0
 12  4  2  0  0  0  0
 12 11  1  0  0  0  0
 13 15  2  0  0  0  0
 14 20  1  0  0  0  0
 14 13  2  0  0  0  0
 16 21  1  0  0  0  0
 18 17  1  0  0  0  0
 19 16  1  0  0  0  0
 19 20  2  0  0  0  0
 20 22  1  0  0  0  0
 21 18  1  0  0  0  0
 22 17  2  0  0  0  0
 23 24  1  0  0  0  0
 25 24  1  6  0  0  0
 25 28  1  0  0  0  0
 27 26  1  6  0  0  0
 27 35  1  0  0  0  0
 27 32  1  0  0  0  0
 28 31  1  0  0  0  0
 28 30  1  1  0  0  0
 29 25  1  0  0  0  0
 29 33  1  0  0  0  0
 30 34  1  0  0  0  0
 31 33  1  6  0  0  0
 31 27  1  0  0  0  0
 34 32  1  0  0  0  0
 35 36  1  0  0  0  0
 36 37  1  1  0  0  0
 38 36  1  0  0  0  0
 38 43  1  0  0  0  0
 39 43  2  0  0  0  0
 40 42  1  0  0  0  0
 40 41  2  0  0  0  0
 41 39  1  0  0  0  0
 42 38  2  0  0  0  0
M  END
>  <MODEL>
8

>  <REMARK>
 VINA RESULT:      -9.1      2.229      9.987
  Name = 
  9 active torsions:
  status: ('A' for Active; 'I' for Inactive)
    1  A    between atoms: C_2  and  C_13
    2  A    between atoms: C_4  and  C_22
    3  A    between atoms: C_8  and  C_34
    4  A    between atoms: C_11  and  C_14
    5  A    between atoms: C_13  and  N_38
    6  A    between atoms: C_14  and  C_22
    7  A    between atoms: C_27  and  C_30
    8  A    between atoms: C_27  and  N_38
    9  A    between atoms: C_28  and  C_35
                            x       y       z     vdW  Elec       q    Type
                         _______ _______ _______ _____ _____    ______ ____

>  <TORSDO>
F 9

$$$$
=
 OpenBabel10262422303D

 43 48  0  0  1  0  0  0  0  0999 V2000
  188.5730  176.3890  138.3110 C   0  0  0  0  0  2  0  0  0  0  0  0
  193.5090  175.8250  137.0420 C   0  0  0  0  0  0  0  0  0  0  0  0
  189.9080  177.3440  140.2640 C   0  0  0  0  0  0  0  0  0  0  0  0
  192.3160  176.6910  138.9640 C   0  0  0  0  0  0  0  0  0  0  0  0
  192.2960  175.5460  136.4080 C   0  0  0  0  0  3  0  0  0  0  0  0
  194.7910  175.5020  136.3630 C   0  0  0  0  0  1  0  0  0  0  0  0
  191.0820  176.4230  138.3260 C   0  0  0  0  0  0  0  0  0  0  0  0
  193.5190  176.3950  138.3180 C   0  0  0  0  0  3  0  0  0  0  0  0
  191.0910  175.8440  137.0460 C   0  0  0  0  0  3  0  0  0  0  0  0
  189.8700  176.7450  138.9740 C   0  0  0  0  0  0  0  0  0  0  0  0
  191.1410  177.5740  140.8790 C   0  0  0  0  0  3  0  0  0  0  0  0
  192.3360  177.2520  140.2380 C   0  0  0  0  0  3  0  0  0  0  0  0
  188.3090  177.1730  142.1210 C   0  0  0  0  0  0  0  0  0  0  0  0
  187.9020  176.5600  143.2010 C   0  0  0  0  0  3  0  0  0  0  0  0
  188.7150  177.7600  141.0300 C   0  0  0  0  0  3  0  0  0  0  0  0
  187.0990  178.0370  146.6790 C   0  0  0  0  0  2  0  0  0  0  0  0
  190.0830  177.3030  146.1990 C   0  0  0  0  0  3  0  0  0  0  0  0
  189.4010  177.8170  147.4270 C   0  0  0  0  0  2  0  0  0  0  0  0
  187.0750  177.4530  145.3090 C   0  0  0  0  0  3  0  0  0  0  0  0
  188.1270  177.0620  144.5670 C   0  0  0  0  0  0  0  0  0  0  0  0
  188.0070  177.2590  147.5980 C   0  0  0  0  0  2  0  0  0  0  0  0
  189.5380  177.0190  145.0120 C   0  0  0  0  0  3  0  0  0  0  0  0
  188.2550  177.3820  137.2950 N   0  0  0  0  0  2  0  0  0  0  0  0
  187.2980  176.7770  136.3820 C   0  0  0  0  0  2  0  0  0  0  0  0
  185.9980  177.5750  136.3660 C   0  0  1  0  0  3  0  0  0  0  0  0
  182.6640  178.5450  137.8540 F   0  0  0  0  0  0  0  0  0  0  0  0
  182.9560  177.2500  138.2580 C   0  0  2  0  0  0  0  0  0  0  0  0
  184.8640  176.7000  136.6560 N   0  0  2  0  0  0  0  0  0  0  0  0
  186.0570  178.6490  137.4340 C   0  0  0  0  0  2  0  0  0  0  0  0
  183.8180  177.0370  135.6890 C   0  0  0  0  0  2  0  0  0  0  0  0
  184.4600  176.9640  138.0570 C   0  0  1  0  0  3  0  0  0  0  0  0
  182.1370  176.2620  137.4250 C   0  0  0  0  0  2  0  0  0  0  0  0
  185.3380  178.0710  138.6210 C   0  0  0  0  0  2  0  0  0  0  0  0
  182.5570  176.2200  135.9530 C   0  0  0  0  0  2  0  0  0  0  0  0
  182.6040  177.0700  139.7370 C   0  0  0  0  0  2  0  0  0  0  0  0
  182.0960  178.3540  140.3910 C   0  0  1  0  0  3  0  0  0  0  0  0
  180.5790  178.3290  140.4500 C   0  0  0  0  0  1  0  0  0  0  0  0
  182.6650  178.5490  141.7600 C   0  0  0  0  0  0  0  0  0  0  0  0
  184.5590  178.6010  143.2080 N   0  0  0  0  0  0  0  0  0  0  0  0
  182.4260  179.1020  144.0720 N   0  0  0  0  0  0  0  0  0  0  0  0
  183.7650  178.9470  144.2540 C   0  0  0  0  0  3  0  0  0  0  0  0
  181.8650  178.9150  142.8500 C   0  0  0  0  0  3  0  0  0  0  0  0
  184.0360  178.4040  141.9690 C   0  0  0  0  0  3  0  0  0  0  0  0
  1 10  1  0  0  0  0
  2  8  1  0  0  0  0
  3 11  1  0  0  0  0
  3 15  1  0  0  0  0
  4 12  1  0  0  0  0
  5  2  2  0  0  0  0
  5  9  1  0  0  0  0
  6  2  1  0  0  0  0
  7  4  1  0  0  0  0
  7 10  1  0  0  0  0
  8  4  2  0  0  0  0
  9  7  2  0  0  0  0
 10  3  2  0  0  0  0
 12 11  2  0  0  0  0
 13 14  2  0  0  0  0
 14 20  1  0  0  0  0
 15 13  2  0  0  0  0
 16 21  1  0  0  0  0
 17 18  1  0  0  0  0
 18 21  1  0  0  0  0
 19 16  1  0  0  0  0
 20 22  1  0  0  0  0
 20 19  2  0  0  0  0
 22 17  2  0  0  0  0
 23  1  1  0  0  0  0
 24 23  1  0  0  0  0
 25 24  1  1  0  0  0
 25 28  1  0  0  0  0
 25 29  1  0  0  0  0
 27 26  1  6  0  0  0
 27 35  1  0  0  0  0
 28 30  1  6  0  0  0
 28 31  1  0  0  0  0
 29 33  1  0  0  0  0
 30 34  1  0  0  0  0
 31 27  1  0  0  0  0
 31 33  1  6  0  0  0
 32 27  1  0  0  0  0
 34 32  1  0  0  0  0
 35 36  1  0  0  0  0
 36 37  1  1  0  0  0
 36 38  1  0  0  0  0
 38 43  2  0  0  0  0
 38 42  1  0  0  0  0
 39 41  2  0  0  0  0
 40 41  1  0  0  0  0
 42 40  2  0  0  0  0
 43 39  1  0  0  0  0
M  END
>  <MODEL>
9

>  <REMARK>
 VINA RESULT:      -9.0      2.617      8.595
  Name = 
  9 active torsions:
  status: ('A' for Active; 'I' for Inactive)
    1  A    between atoms: C_2  and  C_13
    2  A    between atoms: C_4  and  C_22
    3  A    between atoms: C_8  and  C_34
    4  A    between atoms: C_11  and  C_14
    5  A    between atoms: C_13  and  N_38
    6  A    between atoms: C_14  and  C_22
    7  A    between atoms: C_27  and  C_30
    8  A    between atoms: C_27  and  N_38
    9  A    between atoms: C_28  and  C_35
                            x       y       z     vdW  Elec       q    Type
                         _______ _______ _______ _____ _____    ______ ____

>  <TORSDO>
F 9

$$$$
