=
 OpenBabel10262421553D

 30 33  0  0  0  0  0  0  0  0999 V2000
  188.6340  177.8200  144.3210 N   0  0  0  0  0  0  0  0  0  0  0  0
  189.5040  177.6210  146.5430 C   0  0  0  0  0  0  0  0  0  0  0  0
  184.7450  178.4010  145.7360 C   0  0  0  0  0  3  0  0  0  0  0  0
  187.6290  177.9910  143.4200 C   0  0  0  0  0  0  0  0  0  0  0  0
  183.7030  178.6250  144.8330 C   0  0  0  0  0  3  0  0  0  0  0  0
  189.2850  177.6060  147.9230 C   0  0  0  0  0  3  0  0  0  0  0  0
  191.1410  177.4000  145.9420 Cl  0  0  0  0  0  0  0  0  0  0  0  0
  186.0570  178.1930  145.2760 C   0  0  0  0  0  0  0  0  0  0  0  0
  187.9960  177.7810  148.4330 C   0  0  0  0  0  3  0  0  0  0  0  0
  188.4260  177.8110  145.6630 C   0  0  0  0  0  0  0  0  0  0  0  0
  186.3130  178.2020  143.8820 C   0  0  0  0  0  0  0  0  0  0  0  0
  183.9600  178.6510  143.4620 C   0  0  0  0  0  3  0  0  0  0  0  0
  185.2560  178.4430  142.9900 C   0  0  0  0  0  3  0  0  0  0  0  0
  186.9200  177.9730  147.5650 C   0  0  0  0  0  3  0  0  0  0  0  0
  187.1210  177.9900  146.1750 C   0  0  0  0  0  0  0  0  0  0  0  0
  188.8330  176.7680  140.2280 O   0  0  0  0  0  0  0  0  0  0  0  0
  188.9260  177.0910  141.4440 C   0  0  0  0  0  0  0  0  0  0  0  0
  187.9460  177.9800  142.0150 N   0  0  0  0  0  0  0  0  0  0  0  0
  191.2660  177.2110  142.4400 C   0  0  0  0  0  3  0  0  0  0  0  0
  190.0710  175.4040  142.8950 N   0  0  0  0  0  0  0  0  0  0  0  0
  190.0610  176.5710  142.2320 C   0  0  0  0  0  0  0  0  0  0  0  0
  191.9870  176.3940  143.2300 N   0  0  0  0  0  2  0  0  0  0  0  0
  191.2520  175.3230  143.4850 N   0  0  0  0  0  0  0  0  0  0  0  0
  187.3210  178.9820  141.1610 C   0  0  0  0  0  2  0  0  0  0  0  0
  187.0150  178.3870  139.7960 C   0  0  0  0  0  2  0  0  0  0  0  0
  184.9300  179.5930  139.6270 N   0  0  0  0  0  0  0  0  0  0  0  0
  185.5550  178.4650  139.5180 C   0  0  0  0  0  3  0  0  0  0  0  0
  183.0640  180.7260  138.7770 O   0  0  0  0  0  0  0  0  0  0  0  0
  183.5280  179.7160  139.3700 C   0  0  0  0  0  0  0  0  0  0  0  0
  182.6070  178.6360  139.8100 C   0  0  0  0  0  1  0  0  0  0  0  0
  1 10  1  0  0  0  0
  2  6  1  0  0  0  0
  4 11  1  0  0  0  0
  4  1  2  0  0  0  0
  5  3  2  0  0  0  0
  6  9  2  0  0  0  0
  7  2  1  0  0  0  0
  8  3  1  0  0  0  0
  8 15  1  0  0  0  0
 10 15  1  0  0  0  0
 10  2  2  0  0  0  0
 11  8  2  0  0  0  0
 12  5  1  0  0  0  0
 13 12  2  0  0  0  0
 13 11  1  0  0  0  0
 14  9  1  0  0  0  0
 15 14  2  0  0  0  0
 16 17  2  0  0  0  0
 17 18  1  0  0  0  0
 17 21  1  0  0  0  0
 18  4  1  0  0  0  0
 19 22  1  0  0  0  0
 20 23  2  0  0  0  0
 21 19  2  0  0  0  0
 21 20  1  0  0  0  0
 22 23  1  0  0  0  0
 24 18  1  0  0  0  0
 25 24  1  0  0  0  0
 27 26  2  0  0  0  0
 27 25  1  0  0  0  0
 28 29  2  0  0  0  0
 29 26  1  0  0  0  0
 29 30  1  0  0  0  0
M  END
>  <MODEL>
1

>  <REMARK>
 VINA RESULT:      -9.3      0.000      0.000
  Name = 
  6 active torsions:
  status: ('A' for Active; 'I' for Inactive)
    1  A    between atoms: C_4  and  N_13
    2  A    between atoms: N_7  and  C_15
    3  A    between atoms: C_8  and  C_12
    4  A    between atoms: N_13  and  C_27
    5  A    between atoms: C_16  and  C_30
    6  A    between atoms: C_27  and  C_30
                            x       y       z     vdW  Elec       q    Type
                         _______ _______ _______ _____ _____    ______ ____

>  <TORSDO>
F 6

$$$$
=
 OpenBabel10262421553D

 30 33  0  0  1  0  0  0  0  0999 V2000
  184.2450  178.6240  139.5980 N   0  0  0  0  0  0  0  0  0  0  0  0
  186.6170  178.4380  139.3360 C   0  0  0  0  0  0  0  0  0  0  0  0
  184.5590  178.6780  143.7650 C   0  0  0  0  0  3  0  0  0  0  0  0
  183.1060  178.7120  140.3390 C   0  0  0  0  0  0  0  0  0  0  0  0
  183.4100  178.8140  144.5480 C   0  0  0  0  0  3  0  0  0  0  0  0
  187.8860  178.3400  139.9130 C   0  0  0  0  0  3  0  0  0  0  0  0
  186.4800  178.4400  137.5850 Cl  0  0  0  0  0  0  0  0  0  0  0  0
  184.4690  178.6480  142.3630 C   0  0  0  0  0  0  0  0  0  0  0  0
  188.0310  178.3390  141.3030 C   0  0  0  0  0  3  0  0  0  0  0  0
  185.4800  178.5350  140.1550 C   0  0  0  0  0  0  0  0  0  0  0  0
  183.1970  178.7450  141.7470 C   0  0  0  0  0  0  0  0  0  0  0  0
  182.1590  178.9270  143.9390 C   0  0  0  0  0  3  0  0  0  0  0  0
  182.0540  178.8950  142.5480 C   0  0  0  0  0  3  0  0  0  0  0  0
  186.9050  178.4380  142.1230 C   0  0  0  0  0  3  0  0  0  0  0  0
  185.6220  178.5360  141.5620 C   0  0  0  0  0  0  0  0  0  0  0  0
  180.0010  177.6340  138.8140 O   0  0  0  0  0  0  0  0  0  0  0  0
  181.2530  177.6810  138.9620 C   0  0  0  0  0  0  0  0  0  0  0  0
  181.8400  178.7970  139.6590 N   0  0  0  0  0  0  0  0  0  0  0  0
  182.5610  176.5550  137.0910 C   0  0  0  0  0  3  0  0  0  0  0  0
  182.5080  175.5170  139.0450 N   0  0  0  0  0  0  0  0  0  0  0  0
  182.0770  176.6020  138.3820 C   0  0  1  0  0  3  0  0  0  0  0  0
  183.2760  175.4170  137.0050 N   0  0  0  0  0  0  0  0  0  0  0  0
  183.2270  174.8170  138.1850 N   0  0  0  0  0  0  0  0  0  0  0  0
  181.1820  180.0960  139.5900 C   0  0  0  0  0  2  0  0  0  0  0  0
  181.2040  180.6170  138.1620 C   0  0  0  0  0  2  0  0  0  0  0  0
  181.0520  182.8590  137.2810 N   0  0  0  0  0  0  0  0  0  0  0  0
  181.5810  182.0560  138.1460 C   0  0  0  0  0  3  0  0  0  0  0  0
  182.4680  184.6760  137.7110 O   0  0  0  0  0  0  0  0  0  0  0  0
  181.3850  184.2490  137.2280 C   0  0  0  0  0  0  0  0  0  0  0  0
  180.4380  185.2030  136.5930 C   0  0  0  0  0  1  0  0  0  0  0  0
  1 10  2  0  0  0  0
  1  4  1  0  0  0  0
  2  6  2  0  0  0  0
  2 10  1  0  0  0  0
  3  5  2  0  0  0  0
  4 11  2  0  0  0  0
  6  9  1  0  0  0  0
  7  2  1  0  0  0  0
  8  3  1  0  0  0  0
  9 14  2  0  0  0  0
 10 15  1  0  0  0  0
 11  8  1  0  0  0  0
 11 13  1  0  0  0  0
 12  5  1  0  0  0  0
 13 12  2  0  0  0  0
 15 14  1  0  0  0  0
 15  8  2  0  0  0  0
 16 17  2  0  0  0  0
 17 18  1  0  0  0  0
 18  4  1  0  0  0  0
 19 21  1  0  0  0  0
 21 17  1  1  0  0  0
 21 20  1  0  0  0  0
 22 19  2  0  0  0  0
 22 23  1  0  0  0  0
 23 20  2  0  0  0  0
 24 18  1  0  0  0  0
 25 24  1  0  0  0  0
 26 27  2  0  0  0  0
 27 25  1  0  0  0  0
 29 26  1  0  0  0  0
 29 28  2  0  0  0  0
 30 29  1  0  0  0  0
M  END
>  <MODEL>
2

>  <REMARK>
 VINA RESULT:      -8.7      4.676      6.793
  Name = 
  6 active torsions:
  status: ('A' for Active; 'I' for Inactive)
    1  A    between atoms: C_4  and  N_13
    2  A    between atoms: N_7  and  C_15
    3  A    between atoms: C_8  and  C_12
    4  A    between atoms: N_13  and  C_27
    5  A    between atoms: C_16  and  C_30
    6  A    between atoms: C_27  and  C_30
                            x       y       z     vdW  Elec       q    Type
                         _______ _______ _______ _____ _____    ______ ____

>  <TORSDO>
F 6

$$$$
=
 OpenBabel10262421553D

 30 33  0  0  1  0  0  0  0  0999 V2000
  186.7320  177.6240  142.4030 N   0  0  0  0  0  0  0  0  0  0  0  0
  184.5050  178.2110  141.7470 C   0  0  0  0  0  0  0  0  0  0  0  0
  185.9460  178.5170  146.4100 C   0  0  0  0  0  3  0  0  0  0  0  0
  187.7310  177.4740  143.3150 C   0  0  0  0  0  0  0  0  0  0  0  0
  186.9400  178.3280  147.3720 C   0  0  0  0  0  3  0  0  0  0  0  0
  183.2330  178.6760  142.0920 C   0  0  0  0  0  3  0  0  0  0  0  0
  184.8350  177.8110  140.0680 Cl  0  0  0  0  0  0  0  0  0  0  0  0
  186.1970  178.2320  145.0570 C   0  0  0  0  0  0  0  0  0  0  0  0
  182.9370  179.0000  143.4190 C   0  0  0  0  0  3  0  0  0  0  0  0
  185.4930  178.0700  142.7360 C   0  0  0  0  0  0  0  0  0  0  0  0
  187.4770  177.7580  144.6740 C   0  0  0  0  0  0  0  0  0  0  0  0
  188.1940  177.8460  146.9960 C   0  0  0  0  0  3  0  0  0  0  0  0
  188.4600  177.5610  145.6560 C   0  0  0  0  0  3  0  0  0  0  0  0
  183.9120  178.8590  144.4070 C   0  0  0  0  0  3  0  0  0  0  0  0
  185.1970  178.3940  144.0800 C   0  0  0  0  0  0  0  0  0  0  0  0
  190.8450  177.3660  141.4660 O   0  0  0  0  0  0  0  0  0  0  0  0
  189.5910  177.3870  141.6050 C   0  0  0  0  0  0  0  0  0  0  0  0
  189.0140  177.0000  142.8670 N   0  0  0  0  0  0  0  0  0  0  0  0
  188.4650  176.9900  139.3570 C   0  0  0  0  0  3  0  0  0  0  0  0
  188.1230  178.9540  140.3190 N   0  0  0  0  0  0  0  0  0  0  0  0
  188.7550  177.7770  140.4520 C   0  0  1  0  0  3  0  0  0  0  0  0
  187.6580  177.7300  138.5730 N   0  0  0  0  0  0  0  0  0  0  0  0
  187.4710  178.8980  139.1700 N   0  0  0  0  0  0  0  0  0  0  0  0
  189.7040  176.0080  143.6830 C   0  0  0  0  0  2  0  0  0  0  0  0
  191.1940  176.3110  143.7230 C   0  0  0  0  0  2  0  0  0  0  0  0
  191.5350  175.9640  146.0880 N   0  0  0  0  0  0  0  0  0  0  0  0
  191.5870  176.7750  145.0800 C   0  0  0  0  0  3  0  0  0  0  0  0
  191.4330  177.4160  147.9230 O   0  0  0  0  0  0  0  0  0  0  0  0
  191.9030  176.3650  147.4100 C   0  0  0  0  0  0  0  0  0  0  0  0
  192.8550  175.5310  148.1890 C   0  0  0  0  0  1  0  0  0  0  0  0
  1 10  2  0  0  0  0
  1  4  1  0  0  0  0
  2  6  2  0  0  0  0
  2 10  1  0  0  0  0
  3  5  2  0  0  0  0
  4 11  2  0  0  0  0
  6  9  1  0  0  0  0
  7  2  1  0  0  0  0
  8  3  1  0  0  0  0
  9 14  2  0  0  0  0
 10 15  1  0  0  0  0
 11  8  1  0  0  0  0
 11 13  1  0  0  0  0
 12  5  1  0  0  0  0
 13 12  2  0  0  0  0
 15 14  1  0  0  0  0
 15  8  2  0  0  0  0
 16 17  2  0  0  0  0
 17 18  1  0  0  0  0
 18  4  1  0  0  0  0
 18 24  1  0  0  0  0
 19 21  1  0  0  0  0
 20 21  1  0  0  0  0
 21 17  1  1  0  0  0
 22 23  1  0  0  0  0
 22 19  2  0  0  0  0
 23 20  2  0  0  0  0
 24 25  1  0  0  0  0
 25 27  1  0  0  0  0
 26 29  1  0  0  0  0
 27 26  2  0  0  0  0
 29 28  2  0  0  0  0
 29 30  1  0  0  0  0
M  END
>  <MODEL>
3

>  <REMARK>
 VINA RESULT:      -8.7      2.818      6.420
  Name = 
  6 active torsions:
  status: ('A' for Active; 'I' for Inactive)
    1  A    between atoms: C_4  and  N_13
    2  A    between atoms: N_7  and  C_15
    3  A    between atoms: C_8  and  C_12
    4  A    between atoms: N_13  and  C_27
    5  A    between atoms: C_16  and  C_30
    6  A    between atoms: C_27  and  C_30
                            x       y       z     vdW  Elec       q    Type
                         _______ _______ _______ _____ _____    ______ ____

>  <TORSDO>
F 6

$$$$
=
 OpenBabel10262421553D

 30 33  0  0  0  0  0  0  0  0999 V2000
  188.0800  177.5950  143.9260 N   0  0  0  0  0  0  0  0  0  0  0  0
  187.7350  177.7240  146.2920 C   0  0  0  0  0  0  0  0  0  0  0  0
  184.2180  178.9850  143.1370 C   0  0  0  0  0  3  0  0  0  0  0  0
  187.6820  177.7220  142.6310 C   0  0  0  0  0  0  0  0  0  0  0  0
  183.8010  179.1690  141.8170 C   0  0  0  0  0  3  0  0  0  0  0  0
  186.8950  178.0160  147.3700 C   0  0  0  0  0  3  0  0  0  0  0  0
  189.3670  177.1620  146.6170 Cl  0  0  0  0  0  0  0  0  0  0  0  0
  185.5100  178.5090  143.4190 C   0  0  0  0  0  0  0  0  0  0  0  0
  185.5920  178.4680  147.1470 C   0  0  0  0  0  3  0  0  0  0  0  0
  187.2680  177.8830  144.9770 C   0  0  0  0  0  0  0  0  0  0  0  0
  186.3860  178.2040  142.3480 C   0  0  0  0  0  0  0  0  0  0  0  0
  184.6720  178.8840  140.7640 C   0  0  0  0  0  3  0  0  0  0  0  0
  185.9560  178.4070  141.0280 C   0  0  0  0  0  3  0  0  0  0  0  0
  185.1230  178.6320  145.8420 C   0  0  0  0  0  3  0  0  0  0  0  0
  185.9510  178.3430  144.7460 C   0  0  0  0  0  0  0  0  0  0  0  0
  190.6340  176.3620  141.0280 O   0  0  0  0  0  0  0  0  0  0  0  0
  189.9990  177.0950  141.8360 C   0  0  0  0  0  0  0  0  0  0  0  0
  188.6110  177.3860  141.5840 N   0  0  0  0  0  0  0  0  0  0  0  0
  191.4230  176.9370  143.9400 C   0  0  0  0  0  3  0  0  0  0  0  0
  190.8100  178.9640  143.2910 N   0  0  0  0  0  0  0  0  0  0  0  0
  190.7150  177.6560  142.9990 C   0  0  0  0  0  0  0  0  0  0  0  0
  191.9270  177.8460  144.7960 N   0  0  0  0  0  2  0  0  0  0  0  0
  191.5450  179.0460  144.3860 N   0  0  0  0  0  0  0  0  0  0  0  0
  188.1430  177.4480  140.2040 C   0  0  0  0  0  2  0  0  0  0  0  0
  188.9270  178.4980  139.4340 C   0  0  0  0  0  2  0  0  0  0  0  0
  188.1960  178.2430  137.1470 N   0  0  0  0  0  0  0  0  0  0  0  0
  189.1270  178.0580  138.0260 C   0  0  0  0  0  3  0  0  0  0  0  0
  189.4550  177.4390  135.3420 O   0  0  0  0  0  0  0  0  0  0  0  0
  188.3430  177.8370  135.7830 C   0  0  0  0  0  0  0  0  0  0  0  0
  187.1680  177.8860  134.8750 C   0  0  0  0  0  1  0  0  0  0  0  0
  1 10  1  0  0  0  0
  2  7  1  0  0  0  0
  2  6  1  0  0  0  0
  3  8  1  0  0  0  0
  4  1  2  0  0  0  0
  5  3  2  0  0  0  0
  8 15  1  0  0  0  0
  9  6  2  0  0  0  0
 10  2  2  0  0  0  0
 11  4  1  0  0  0  0
 11  8  2  0  0  0  0
 12 13  2  0  0  0  0
 12  5  1  0  0  0  0
 13 11  1  0  0  0  0
 14  9  1  0  0  0  0
 15 10  1  0  0  0  0
 15 14  2  0  0  0  0
 16 17  2  0  0  0  0
 17 21  1  0  0  0  0
 18 17  1  0  0  0  0
 18  4  1  0  0  0  0
 19 22  1  0  0  0  0
 20 23  2  0  0  0  0
 21 20  1  0  0  0  0
 21 19  2  0  0  0  0
 23 22  1  0  0  0  0
 24 18  1  0  0  0  0
 25 24  1  0  0  0  0
 26 27  2  0  0  0  0
 27 25  1  0  0  0  0
 28 29  2  0  0  0  0
 29 26  1  0  0  0  0
 30 29  1  0  0  0  0
M  END
>  <MODEL>
4

>  <REMARK>
 VINA RESULT:      -8.6      2.226      3.179
  Name = 
  6 active torsions:
  status: ('A' for Active; 'I' for Inactive)
    1  A    between atoms: C_4  and  N_13
    2  A    between atoms: N_7  and  C_15
    3  A    between atoms: C_8  and  C_12
    4  A    between atoms: N_13  and  C_27
    5  A    between atoms: C_16  and  C_30
    6  A    between atoms: C_27  and  C_30
                            x       y       z     vdW  Elec       q    Type
                         _______ _______ _______ _____ _____    ______ ____

>  <TORSDO>
F 6

$$$$
=
 OpenBabel10262421553D

 30 33  0  0  0  0  0  0  0  0999 V2000
  183.3780  178.9920  140.6510 N   0  0  0  0  0  0  0  0  0  0  0  0
  185.3010  178.6200  142.0280 C   0  0  0  0  0  0  0  0  0  0  0  0
  180.8110  178.8880  143.9480 C   0  0  0  0  0  3  0  0  0  0  0  0
  182.0420  179.1500  140.4460 C   0  0  0  0  0  0  0  0  0  0  0  0
  179.4420  179.0930  143.7700 C   0  0  0  0  0  3  0  0  0  0  0  0
  185.8470  178.4000  143.2950 C   0  0  0  0  0  3  0  0  0  0  0  0
  186.3760  178.6880  140.6410 Cl  0  0  0  0  0  0  0  0  0  0  0  0
  181.6870  178.9090  142.8490 C   0  0  0  0  0  0  0  0  0  0  0  0
  185.0200  178.3430  144.4200 C   0  0  0  0  0  3  0  0  0  0  0  0
  183.9130  178.7830  141.8820 C   0  0  0  0  0  0  0  0  0  0  0  0
  181.1640  179.1300  141.5510 C   0  0  0  0  0  0  0  0  0  0  0  0
  178.9310  179.3270  142.4930 C   0  0  0  0  0  3  0  0  0  0  0  0
  179.7860  179.3490  141.3910 C   0  0  0  0  0  3  0  0  0  0  0  0
  183.6410  178.5070  144.2830 C   0  0  0  0  0  3  0  0  0  0  0  0
  183.0730  178.7290  143.0170 C   0  0  0  0  0  0  0  0  0  0  0  0
  180.0340  178.7300  137.4590 O   0  0  0  0  0  0  0  0  0  0  0  0
  180.8200  178.3650  138.3750 C   0  0  0  0  0  0  0  0  0  0  0  0
  181.5660  179.3600  139.1030 N   0  0  0  0  0  0  0  0  0  0  0  0
  180.0890  176.1320  139.3560 C   0  0  0  0  0  3  0  0  0  0  0  0
  181.9850  176.1550  138.2130 N   0  0  0  0  0  0  0  0  0  0  0  0
  180.9720  176.9220  138.6480 C   0  0  0  0  0  0  0  0  0  0  0  0
  180.6080  174.8900  139.3360 N   0  0  0  0  0  2  0  0  0  0  0  0
  181.7390  174.9320  138.6490 N   0  0  0  0  0  0  0  0  0  0  0  0
  181.9480  180.5910  138.4230 C   0  0  0  0  0  2  0  0  0  0  0  0
  180.9630  181.6990  138.7590 C   0  0  0  0  0  2  0  0  0  0  0  0
  180.3070  183.8160  137.7990 N   0  0  0  0  0  0  0  0  0  0  0  0
  180.8710  182.6630  137.6290 C   0  0  0  0  0  3  0  0  0  0  0  0
  179.5570  185.8480  136.9060 O   0  0  0  0  0  0  0  0  0  0  0  0
  180.1960  184.7740  136.7430 C   0  0  0  0  0  0  0  0  0  0  0  0
  180.8440  184.4970  135.4340 C   0  0  0  0  0  1  0  0  0  0  0  0
  1 10  1  0  0  0  0
  2  6  1  0  0  0  0
  4  1  2  0  0  0  0
  4 11  1  0  0  0  0
  5  3  1  0  0  0  0
  6  9  2  0  0  0  0
  7  2  1  0  0  0  0
  8 15  1  0  0  0  0
  8  3  2  0  0  0  0
 10  2  2  0  0  0  0
 10 15  1  0  0  0  0
 11  8  1  0  0  0  0
 12  5  2  0  0  0  0
 13 11  2  0  0  0  0
 13 12  1  0  0  0  0
 14  9  1  0  0  0  0
 15 14  2  0  0  0  0
 16 17  2  0  0  0  0
 17 21  1  0  0  0  0
 17 18  1  0  0  0  0
 18  4  1  0  0  0  0
 20 21  1  0  0  0  0
 20 23  2  0  0  0  0
 21 19  2  0  0  0  0
 22 19  1  0  0  0  0
 23 22  1  0  0  0  0
 24 25  1  0  0  0  0
 24 18  1  0  0  0  0
 27 26  2  0  0  0  0
 27 25  1  0  0  0  0
 29 28  2  0  0  0  0
 29 26  1  0  0  0  0
 30 29  1  0  0  0  0
M  END
>  <MODEL>
5

>  <REMARK>
 VINA RESULT:      -8.6      4.748      7.275
  Name = 
  6 active torsions:
  status: ('A' for Active; 'I' for Inactive)
    1  A    between atoms: C_4  and  N_13
    2  A    between atoms: N_7  and  C_15
    3  A    between atoms: C_8  and  C_12
    4  A    between atoms: N_13  and  C_27
    5  A    between atoms: C_16  and  C_30
    6  A    between atoms: C_27  and  C_30
                            x       y       z     vdW  Elec       q    Type
                         _______ _______ _______ _____ _____    ______ ____

>  <TORSDO>
F 6

$$$$
=
 OpenBabel10262421553D

 30 33  0  0  0  0  0  0  0  0999 V2000
  188.7060  177.8140  144.3260 N   0  0  0  0  0  0  0  0  0  0  0  0
  189.4290  177.6980  146.6060 C   0  0  0  0  0  0  0  0  0  0  0  0
  184.7330  178.4400  145.4620 C   0  0  0  0  0  3  0  0  0  0  0  0
  187.7610  177.9510  143.3560 C   0  0  0  0  0  0  0  0  0  0  0  0
  183.7520  178.6300  144.4870 C   0  0  0  0  0  3  0  0  0  0  0  0
  189.1200  177.7330  147.9680 C   0  0  0  0  0  3  0  0  0  0  0  0
  191.1000  177.4580  146.1210 Cl  0  0  0  0  0  0  0  0  0  0  0  0
  186.0710  178.2180  145.0970 C   0  0  0  0  0  0  0  0  0  0  0  0
  187.8010  177.9250  148.3870 C   0  0  0  0  0  3  0  0  0  0  0  0
  188.4100  177.8530  145.6510 C   0  0  0  0  0  0  0  0  0  0  0  0
  186.4180  178.1770  143.7240 C   0  0  0  0  0  0  0  0  0  0  0  0
  184.0980  178.6060  143.1350 C   0  0  0  0  0  3  0  0  0  0  0  0
  185.4220  178.3830  142.7560 C   0  0  0  0  0  3  0  0  0  0  0  0
  186.7840  178.0840  147.4450 C   0  0  0  0  0  3  0  0  0  0  0  0
  187.0740  178.0500  146.0710 C   0  0  0  0  0  0  0  0  0  0  0  0
  189.1350  176.5990  140.2870 O   0  0  0  0  0  0  0  0  0  0  0  0
  189.1580  176.9570  141.4960 C   0  0  0  0  0  0  0  0  0  0  0  0
  188.1690  177.8880  141.9760 N   0  0  0  0  0  0  0  0  0  0  0  0
  191.4120  177.0630  142.6750 C   0  0  0  0  0  3  0  0  0  0  0  0
  190.1730  175.2630  143.0350 N   0  0  0  0  0  0  0  0  0  0  0  0
  190.2230  176.4300  142.3730 C   0  0  0  0  0  0  0  0  0  0  0  0
  192.0630  176.2410  143.5200 N   0  0  0  0  0  2  0  0  0  0  0  0
  191.3020  175.1750  143.7170 N   0  0  0  0  0  0  0  0  0  0  0  0
  187.6300  178.8810  141.0550 C   0  0  0  0  0  2  0  0  0  0  0  0
  186.4560  178.2960  140.2860 C   0  0  0  0  0  2  0  0  0  0  0  0
  187.8090  178.7310  138.3340 N   0  0  0  0  0  0  0  0  0  0  0  0
  186.8370  178.0630  138.8670 C   0  0  0  0  0  3  0  0  0  0  0  0
  189.4150  178.3210  136.6780 O   0  0  0  0  0  0  0  0  0  0  0  0
  188.2100  178.5400  136.9740 C   0  0  0  0  0  0  0  0  0  0  0  0
  187.1890  178.6040  135.8960 C   0  0  0  0  0  1  0  0  0  0  0  0
  1 10  1  0  0  0  0
  2  6  1  0  0  0  0
  4 11  1  0  0  0  0
  4  1  2  0  0  0  0
  5  3  2  0  0  0  0
  6  9  2  0  0  0  0
  7  2  1  0  0  0  0
  8  3  1  0  0  0  0
  8 15  1  0  0  0  0
 10 15  1  0  0  0  0
 10  2  2  0  0  0  0
 11  8  2  0  0  0  0
 12  5  1  0  0  0  0
 13 12  2  0  0  0  0
 13 11  1  0  0  0  0
 14  9  1  0  0  0  0
 15 14  2  0  0  0  0
 16 17  2  0  0  0  0
 17 18  1  0  0  0  0
 17 21  1  0  0  0  0
 18  4  1  0  0  0  0
 19 22  1  0  0  0  0
 20 23  2  0  0  0  0
 21 19  2  0  0  0  0
 21 20  1  0  0  0  0
 22 23  1  0  0  0  0
 24 18  1  0  0  0  0
 25 24  1  0  0  0  0
 26 27  2  0  0  0  0
 27 25  1  0  0  0  0
 28 29  2  0  0  0  0
 29 26  1  0  0  0  0
 30 29  1  0  0  0  0
M  END
>  <MODEL>
6

>  <REMARK>
 VINA RESULT:      -8.5      1.727      2.089
  Name = 
  6 active torsions:
  status: ('A' for Active; 'I' for Inactive)
    1  A    between atoms: C_4  and  N_13
    2  A    between atoms: N_7  and  C_15
    3  A    between atoms: C_8  and  C_12
    4  A    between atoms: N_13  and  C_27
    5  A    between atoms: C_16  and  C_30
    6  A    between atoms: C_27  and  C_30
                            x       y       z     vdW  Elec       q    Type
                         _______ _______ _______ _____ _____    ______ ____

>  <TORSDO>
F 6

$$$$
=
 OpenBabel10262421553D

 30 33  0  0  0  0  0  0  0  0999 V2000
  185.2920  178.6760  142.4030 N   0  0  0  0  0  0  0  0  0  0  0  0
  184.0240  178.9240  144.4190 C   0  0  0  0  0  0  0  0  0  0  0  0
  188.5260  177.0150  144.4650 C   0  0  0  0  0  3  0  0  0  0  0  0
  186.4020  178.3200  141.7010 C   0  0  0  0  0  0  0  0  0  0  0  0
  189.6590  176.5990  143.7620 C   0  0  0  0  0  3  0  0  0  0  0  0
  183.9310  178.7800  145.8060 C   0  0  0  0  0  3  0  0  0  0  0  0
  182.6590  179.6000  143.5440 Cl  0  0  0  0  0  0  0  0  0  0  0  0
  187.4340  177.5840  143.7880 C   0  0  0  0  0  0  0  0  0  0  0  0
  184.9970  178.2430  146.5320 C   0  0  0  0  0  3  0  0  0  0  0  0
  185.1950  178.5310  143.7500 C   0  0  0  0  0  0  0  0  0  0  0  0
  187.4970  177.7450  142.3810 C   0  0  0  0  0  0  0  0  0  0  0  0
  189.7120  176.7420  142.3750 C   0  0  0  0  0  3  0  0  0  0  0  0
  188.6380  177.3090  141.6890 C   0  0  0  0  0  3  0  0  0  0  0  0
  186.1620  177.8470  145.8740 C   0  0  0  0  0  3  0  0  0  0  0  0
  186.2760  177.9850  144.4810 C   0  0  0  0  0  0  0  0  0  0  0  0
  185.3090  179.4070  138.4220 O   0  0  0  0  0  0  0  0  0  0  0  0
  185.2210  178.7810  139.5130 C   0  0  0  0  0  0  0  0  0  0  0  0
  186.4150  178.5170  140.2750 N   0  0  0  0  0  0  0  0  0  0  0  0
  182.7830  179.1010  140.1710 C   0  0  0  0  0  3  0  0  0  0  0  0
  183.5630  177.0300  140.1850 N   0  0  0  0  0  0  0  0  0  0  0  0
  183.8930  178.3110  139.9570 C   0  0  0  0  0  0  0  0  0  0  0  0
  181.7960  178.2610  140.5390 N   0  0  0  0  0  2  0  0  0  0  0  0
  182.2890  177.0320  140.5400 N   0  0  0  0  0  0  0  0  0  0  0  0
  187.6770  178.3370  139.5680 C   0  0  0  0  0  2  0  0  0  0  0  0
  187.4460  177.5700  138.2760 C   0  0  0  0  0  2  0  0  0  0  0  0
  189.7390  176.8590  138.5350 N   0  0  0  0  0  0  0  0  0  0  0  0
  188.5690  176.6250  138.0330 C   0  0  0  0  0  3  0  0  0  0  0  0
  190.6720  174.7440  138.1520 O   0  0  0  0  0  0  0  0  0  0  0  0
  190.8480  175.9800  138.3280 C   0  0  0  0  0  0  0  0  0  0  0  0
  192.2270  176.5320  138.3200 C   0  0  0  0  0  1  0  0  0  0  0  0
  1 10  1  0  0  0  0
  2  6  1  0  0  0  0
  4 11  1  0  0  0  0
  4  1  2  0  0  0  0
  5  3  2  0  0  0  0
  6  9  2  0  0  0  0
  7  2  1  0  0  0  0
  8  3  1  0  0  0  0
  8 15  1  0  0  0  0
 10  2  2  0  0  0  0
 10 15  1  0  0  0  0
 11  8  2  0  0  0  0
 12  5  1  0  0  0  0
 13 12  2  0  0  0  0
 13 11  1  0  0  0  0
 14  9  1  0  0  0  0
 15 14  2  0  0  0  0
 16 17  2  0  0  0  0
 17 21  1  0  0  0  0
 17 18  1  0  0  0  0
 18  4  1  0  0  0  0
 19 22  1  0  0  0  0
 20 23  2  0  0  0  0
 21 19  2  0  0  0  0
 21 20  1  0  0  0  0
 22 23  1  0  0  0  0
 24 18  1  0  0  0  0
 25 24  1  0  0  0  0
 27 25  1  0  0  0  0
 27 26  2  0  0  0  0
 28 29  2  0  0  0  0
 29 26  1  0  0  0  0
 30 29  1  0  0  0  0
M  END
>  <MODEL>
7

>  <REMARK>
 VINA RESULT:      -8.2      2.887      5.989
  Name = 
  6 active torsions:
  status: ('A' for Active; 'I' for Inactive)
    1  A    between atoms: C_4  and  N_13
    2  A    between atoms: N_7  and  C_15
    3  A    between atoms: C_8  and  C_12
    4  A    between atoms: N_13  and  C_27
    5  A    between atoms: C_16  and  C_30
    6  A    between atoms: C_27  and  C_30
                            x       y       z     vdW  Elec       q    Type
                         _______ _______ _______ _____ _____    ______ ____

>  <TORSDO>
F 6

$$$$
=
 OpenBabel10262421553D

 30 33  0  0  1  0  0  0  0  0999 V2000
  184.1390  177.8750  141.3760 N   0  0  0  0  0  0  0  0  0  0  0  0
  185.5820  178.3070  143.2380 C   0  0  0  0  0  0  0  0  0  0  0  0
  180.7560  179.0350  143.5370 C   0  0  0  0  0  3  0  0  0  0  0  0
  182.9230  177.8180  140.7680 C   0  0  0  0  0  0  0  0  0  0  0  0
  179.5020  179.0300  142.9220 C   0  0  0  0  0  3  0  0  0  0  0  0
  185.7420  178.7140  144.5650 C   0  0  0  0  0  3  0  0  0  0  0  0
  187.0030  177.8400  142.3170 Cl  0  0  0  0  0  0  0  0  0  0  0  0
  181.9020  178.6380  142.8280 C   0  0  0  0  0  0  0  0  0  0  0  0
  184.6330  179.0950  145.3250 C   0  0  0  0  0  3  0  0  0  0  0  0
  184.3000  178.2760  142.6640 C   0  0  0  0  0  0  0  0  0  0  0  0
  181.7730  178.2190  141.4800 C   0  0  0  0  0  0  0  0  0  0  0  0
  179.3790  178.6330  141.5900 C   0  0  0  0  0  3  0  0  0  0  0  0
  180.5080  178.2330  140.8730 C   0  0  0  0  0  3  0  0  0  0  0  0
  183.3570  179.0700  144.7600 C   0  0  0  0  0  3  0  0  0  0  0  0
  183.1750  178.6620  143.4280 C   0  0  0  0  0  0  0  0  0  0  0  0
  183.3840  177.8260  137.1740 O   0  0  0  0  0  0  0  0  0  0  0  0
  182.9730  178.2710  138.2800 C   0  0  0  0  0  0  0  0  0  0  0  0
  182.8510  177.3730  139.4010 N   0  0  0  0  0  0  0  0  0  0  0  0
  181.3440  180.2230  138.1540 C   0  0  0  0  0  3  0  0  0  0  0  0
  183.4280  180.6900  138.7380 N   0  0  0  0  0  0  0  0  0  0  0  0
  182.6000  179.6960  138.3790 C   0  0  1  0  0  3  0  0  0  0  0  0
  181.4540  181.5460  138.3790 N   0  0  0  0  0  0  0  0  0  0  0  0
  182.7070  181.7970  138.7250 N   0  0  0  0  0  0  0  0  0  0  0  0
  182.5370  175.9710  139.1490 C   0  0  0  0  0  2  0  0  0  0  0  0
  181.2030  175.8560  138.4300 C   0  0  0  0  0  2  0  0  0  0  0  0
  181.8360  173.9570  137.0790 N   0  0  0  0  0  0  0  0  0  0  0  0
  181.0070  174.4680  137.9320 C   0  0  0  0  0  3  0  0  0  0  0  0
  180.7240  172.3260  135.8170 O   0  0  0  0  0  0  0  0  0  0  0  0
  181.6870  172.6280  136.5730 C   0  0  0  0  0  0  0  0  0  0  0  0
  182.6810  171.5880  136.9460 C   0  0  0  0  0  1  0  0  0  0  0  0
  1 10  1  0  0  0  0
  2  6  1  0  0  0  0
  4  1  2  0  0  0  0
  4 11  1  0  0  0  0
  5  3  1  0  0  0  0
  6  9  2  0  0  0  0
  7  2  1  0  0  0  0
  8 15  1  0  0  0  0
  8  3  2  0  0  0  0
 10  2  2  0  0  0  0
 10 15  1  0  0  0  0
 11  8  1  0  0  0  0
 12  5  2  0  0  0  0
 13 11  2  0  0  0  0
 13 12  1  0  0  0  0
 14  9  1  0  0  0  0
 15 14  2  0  0  0  0
 16 17  2  0  0  0  0
 17 18  1  0  0  0  0
 18  4  1  0  0  0  0
 19 22  2  0  0  0  0
 19 21  1  0  0  0  0
 21 17  1  1  0  0  0
 21 20  1  0  0  0  0
 22 23  1  0  0  0  0
 23 20  2  0  0  0  0
 24 18  1  0  0  0  0
 25 24  1  0  0  0  0
 26 27  2  0  0  0  0
 27 25  1  0  0  0  0
 28 29  2  0  0  0  0
 29 30  1  0  0  0  0
 29 26  1  0  0  0  0
M  END
>  <MODEL>
8

>  <REMARK>
 VINA RESULT:      -8.2      4.115      6.981
  Name = 
  6 active torsions:
  status: ('A' for Active; 'I' for Inactive)
    1  A    between atoms: C_4  and  N_13
    2  A    between atoms: N_7  and  C_15
    3  A    between atoms: C_8  and  C_12
    4  A    between atoms: N_13  and  C_27
    5  A    between atoms: C_16  and  C_30
    6  A    between atoms: C_27  and  C_30
                            x       y       z     vdW  Elec       q    Type
                         _______ _______ _______ _____ _____    ______ ____

>  <TORSDO>
F 6

$$$$
=
 OpenBabel10262421553D

 30 33  0  0  1  0  0  0  0  0999 V2000
  186.2400  178.5640  139.4650 N   0  0  0  0  0  0  0  0  0  0  0  0
  188.5790  178.2200  139.8480 C   0  0  0  0  0  0  0  0  0  0  0  0
  185.3830  178.3090  143.5470 C   0  0  0  0  0  3  0  0  0  0  0  0
  184.9470  178.6860  139.8710 C   0  0  0  0  0  0  0  0  0  0  0  0
  184.0700  178.4760  143.9940 C   0  0  0  0  0  3  0  0  0  0  0  0
  189.6300  177.9880  140.7390 C   0  0  0  0  0  3  0  0  0  0  0  0
  188.9360  178.3520  138.1320 Cl  0  0  0  0  0  0  0  0  0  0  0  0
  185.6860  178.3810  142.1770 C   0  0  0  0  0  0  0  0  0  0  0  0
  189.3810  177.8810  142.1100 C   0  0  0  0  0  3  0  0  0  0  0  0
  187.2650  178.3450  140.3290 C   0  0  0  0  0  0  0  0  0  0  0  0
  184.6430  178.6160  141.2470 C   0  0  0  0  0  0  0  0  0  0  0  0
  183.0470  178.7240  143.0780 C   0  0  0  0  0  3  0  0  0  0  0  0
  183.3320  178.7950  141.7140 C   0  0  0  0  0  3  0  0  0  0  0  0
  188.0780  178.0070  142.5960 C   0  0  0  0  0  3  0  0  0  0  0  0
  187.0090  178.2390  141.7150 C   0  0  0  0  0  0  0  0  0  0  0  0
  182.3250  177.9510  137.4800 O   0  0  0  0  0  0  0  0  0  0  0  0
  183.4870  177.8880  137.9660 C   0  0  0  0  0  0  0  0  0  0  0  0
  183.9270  178.9110  138.8800 N   0  0  0  0  0  0  0  0  0  0  0  0
  184.1550  175.4380  137.7900 C   0  0  0  0  0  3  0  0  0  0  0  0
  185.5070  176.9180  136.8490 N   0  0  0  0  0  0  0  0  0  0  0  0
  184.3710  176.7800  137.5520 C   0  0  1  0  0  3  0  0  0  0  0  0
  185.1900  174.7910  137.2210 N   0  0  0  0  0  0  0  0  0  0  0  0
  185.9810  175.6980  136.6670 N   0  0  0  0  0  0  0  0  0  0  0  0
  183.3960  180.2620  138.7350 C   0  0  0  0  0  2  0  0  0  0  0  0
  181.9000  180.2650  138.9990 C   0  0  0  0  0  2  0  0  0  0  0  0
  181.4110  182.4000  137.9820 N   0  0  0  0  0  0  0  0  0  0  0  0
  181.2050  181.1230  138.0010 C   0  0  0  0  0  3  0  0  0  0  0  0
  179.7870  182.8610  136.3580 O   0  0  0  0  0  0  0  0  0  0  0  0
  180.7650  183.2640  137.0420 C   0  0  0  0  0  0  0  0  0  0  0  0
  181.2570  184.6550  136.8710 C   0  0  0  0  0  1  0  0  0  0  0  0
  1  4  2  0  0  0  0
  1 10  1  0  0  0  0
  2 10  2  0  0  0  0
  2  6  1  0  0  0  0
  3  5  1  0  0  0  0
  4 11  1  0  0  0  0
  6  9  2  0  0  0  0
  7  2  1  0  0  0  0
  8  3  2  0  0  0  0
  9 14  1  0  0  0  0
 10 15  1  0  0  0  0
 11 13  2  0  0  0  0
 11  8  1  0  0  0  0
 12  5  2  0  0  0  0
 13 12  1  0  0  0  0
 15  8  1  0  0  0  0
 15 14  2  0  0  0  0
 16 17  2  0  0  0  0
 17 18  1  0  0  0  0
 18  4  1  0  0  0  0
 20 21  1  0  0  0  0
 21 19  1  0  0  0  0
 21 17  1  6  0  0  0
 22 19  2  0  0  0  0
 23 20  2  0  0  0  0
 23 22  1  0  0  0  0
 24 18  1  0  0  0  0
 24 25  1  0  0  0  0
 26 27  2  0  0  0  0
 27 25  1  0  0  0  0
 28 29  2  0  0  0  0
 29 26  1  0  0  0  0
 30 29  1  0  0  0  0
M  END
>  <MODEL>
9

>  <REMARK>
 VINA RESULT:      -8.1      3.877      5.865
  Name = 
  6 active torsions:
  status: ('A' for Active; 'I' for Inactive)
    1  A    between atoms: C_4  and  N_13
    2  A    between atoms: N_7  and  C_15
    3  A    between atoms: C_8  and  C_12
    4  A    between atoms: N_13  and  C_27
    5  A    between atoms: C_16  and  C_30
    6  A    between atoms: C_27  and  C_30
                            x       y       z     vdW  Elec       q    Type
                         _______ _______ _______ _____ _____    ______ ____

>  <TORSDO>
F 6

$$$$
