=
 OpenBabel10262423303D

 34 39  0  0  1  0  0  0  0  0999 V2000
  188.7720  177.5610  144.6780 C   0  0  2  0  0  3  0  0  0  0  0  0
  191.2410  177.3200  141.9450 C   0  0  0  0  0  3  0  0  0  0  0  0
  191.6620  177.8540  144.2420 C   0  0  0  0  0  2  0  0  0  0  0  0
  189.6740  176.8350  147.0350 C   0  0  0  0  0  0  0  0  0  0  0  0
  190.9170  176.6930  147.5400 N   0  0  0  0  0  0  0  0  0  0  0  0
  188.5010  176.3750  147.6950 N   0  0  0  0  0  1  0  0  0  0  0  0
  191.0850  177.4250  145.5050 N   0  0  0  0  0  0  0  0  0  0  0  0
  189.7750  177.3110  145.7410 C   0  0  0  0  0  0  0  0  0  0  0  0
  191.7590  177.0710  146.5860 N   0  0  0  0  0  0  0  0  0  0  0  0
  190.6210  177.0140  140.6520 C   0  0  0  0  0  3  0  0  0  0  0  0
  189.3670  177.1950  140.2330 C   0  0  0  0  0  0  0  0  0  0  0  0
  188.3010  177.8210  141.0350 C   0  0  0  0  0  3  0  0  0  0  0  0
  190.6870  177.6070  143.1190 C   0  0  2  0  0  3  0  0  0  0  0  0
  188.2330  178.0120  142.3480 C   0  0  0  0  0  3  0  0  0  0  0  0
  189.2150  177.6730  143.3970 C   0  0  0  0  0  0  0  0  0  0  0  0
  189.0500  176.8220  138.8810 N   0  0  0  0  0  0  0  0  0  0  0  0
  187.9070  177.2920  138.2740 O   0  0  0  0  0  0  0  0  0  0  0  0
  189.8140  176.0750  138.2350 O   0  0  0  0  0  0  0  0  0  0  0  0
  186.8980  178.7580  145.6630 N   0  0  0  0  0  0  0  0  0  0  0  0
  187.3360  177.7450  144.9900 C   0  0  0  0  0  3  0  0  0  0  0  0
  185.4770  178.9150  145.9440 C   0  0  0  0  0  2  0  0  0  0  0  0
  184.3170  178.8330  142.2640 C   0  0  0  0  0  2  0  0  0  0  0  0
  183.1320  178.8540  145.0110 C   0  0  0  0  0  2  0  0  0  0  0  0
  180.6040  178.6180  141.5290 C   0  0  0  0  0  0  0  0  0  0  0  0
  181.9900  178.7310  141.3690 C   0  0  0  0  0  3  0  0  0  0  0  0
  182.8310  178.7960  142.4830 C   0  0  0  0  0  0  0  0  0  0  0  0
  180.8910  178.6400  143.9370 C   0  0  0  0  0  3  0  0  0  0  0  0
  182.2780  178.7260  143.7820 C   0  0  0  0  0  0  0  0  0  0  0  0
  180.0570  178.5860  142.8180 C   0  0  0  0  0  3  0  0  0  0  0  0
  184.6110  178.5850  144.7270 C   0  0  1  0  0  3  0  0  0  0  0  0
  185.0670  179.3470  143.4870 C   0  0  0  0  0  2  0  0  0  0  0  0
  179.7100  178.5930  140.3290 C   0  0  2  0  0  3  0  0  0  0  0  0
  180.3430  179.2470  139.2530 O   0  0  0  0  0  0  0  0  0  0  0  0
  179.3380  179.9680  139.9200 C   0  0  0  0  0  2  0  0  0  0  0  0
  1 20  1  1  0  0  0
  1  8  1  0  0  0  0
  3  7  1  0  0  0  0
  4  5  1  0  0  0  0
  4  6  1  0  0  0  0
  7  8  1  0  0  0  0
  7  9  1  0  0  0  0
  8  4  2  0  0  0  0
  9  5  2  0  0  0  0
 10  2  2  0  0  0  0
 11 10  1  0  0  0  0
 11 12  2  0  0  0  0
 12 14  1  0  0  0  0
 13  2  1  1  0  0  0
 13 15  1  0  0  0  0
 13  3  1  0  0  0  0
 14 15  2  0  0  0  0
 15  1  1  0  0  0  0
 16 11  1  0  0  0  0
 17 16  2  0  0  0  0
 18 16  2  0  0  0  0
 19 21  1  0  0  0  0
 20 19  2  0  0  0  0
 22 26  1  0  0  0  0
 22 31  1  0  0  0  0
 24 29  1  0  0  0  0
 25 24  2  0  0  0  0
 25 26  1  0  0  0  0
 26 28  2  0  0  0  0
 28 27  1  0  0  0  0
 28 23  1  0  0  0  0
 29 27  2  0  0  0  0
 30 23  1  0  0  0  0
 30 21  1  1  0  0  0
 31 30  1  0  0  0  0
 32 24  1  1  0  0  0
 33 34  1  0  0  0  0
 33 32  1  0  0  0  0
 34 32  1  0  0  0  0
M  END
>  <MODEL>
1

>  <REMARK>
 VINA RESULT:     -10.3      0.000      0.000
  Name = 
  5 active torsions:
  status: ('A' for Active; 'I' for Inactive)
    1  A    between atoms: C_1  and  C_9
    2  A    between atoms: N_3  and  C_25
    3  A    between atoms: C_7  and  C_11
    4  A    between atoms: N_8  and  C_18
    5  A    between atoms: C_18  and  C_30
                            x       y       z     vdW  Elec       q    Type
                         _______ _______ _______ _____ _____    ______ ____

>  <TORSDO>
F 5

$$$$
=
 OpenBabel10262423303D

 34 39  0  0  1  0  0  0  0  0999 V2000
  183.0370  178.7010  141.6490 C   0  0  2  0  0  3  0  0  0  0  0  0
  184.0910  177.5330  138.3100 C   0  0  0  0  0  3  0  0  0  0  0  0
  182.0070  177.1030  139.4090 C   0  0  0  0  0  2  0  0  0  0  0  0
  180.4650  179.1820  141.8780 C   0  0  0  0  0  0  0  0  0  0  0  0
  179.3900  178.8030  141.1560 N   0  0  0  0  0  0  0  0  0  0  0  0
  180.4190  180.1820  142.8890 N   0  0  0  0  0  1  0  0  0  0  0  0
  181.1530  177.8700  140.3010 N   0  0  0  0  0  0  0  0  0  0  0  0
  181.5900  178.5820  141.3440 C   0  0  0  0  0  0  0  0  0  0  0  0
  179.8410  177.9930  140.2050 N   0  0  0  0  0  0  0  0  0  0  0  0
  185.4560  177.9510  137.9740 C   0  0  0  0  0  3  0  0  0  0  0  0
  186.4690  178.3090  138.7650 C   0  0  0  0  0  0  0  0  0  0  0  0
  186.4150  178.3110  140.2370 C   0  0  0  0  0  3  0  0  0  0  0  0
  183.4130  177.6450  139.4490 C   0  0  2  0  0  3  0  0  0  0  0  0
  185.3600  178.3050  141.0460 C   0  0  0  0  0  3  0  0  0  0  0  0
  183.9240  178.2730  140.7110 C   0  0  0  0  0  0  0  0  0  0  0  0
  187.7210  178.6450  138.1440 N   0  0  0  0  0  0  0  0  0  0  0  0
  187.8780  178.5360  136.7800 O   0  0  0  0  0  0  0  0  0  0  0  0
  188.6800  179.0500  138.8320 O   0  0  0  0  0  0  0  0  0  0  0  0
  183.5570  178.4740  144.0140 N   0  0  0  0  0  0  0  0  0  0  0  0
  183.5180  179.2110  142.9530 C   0  0  0  0  0  3  0  0  0  0  0  0
  184.0470  179.0040  145.2800 C   0  0  0  0  0  2  0  0  0  0  0  0
  187.5980  177.6570  144.5960 C   0  0  0  0  0  2  0  0  0  0  0  0
  185.9390  178.5990  146.9010 C   0  0  0  0  0  2  0  0  0  0  0  0
  190.0370  177.4010  147.4880 C   0  0  0  0  0  0  0  0  0  0  0  0
  189.4650  177.3050  146.2140 C   0  0  0  0  0  3  0  0  0  0  0  0
  188.1420  177.7000  145.9970 C   0  0  0  0  0  0  0  0  0  0  0  0
  187.9480  178.2890  148.3460 C   0  0  0  0  0  3  0  0  0  0  0  0
  187.3820  178.2200  147.0690 C   0  0  0  0  0  0  0  0  0  0  0  0
  189.2680  177.8820  148.5550 C   0  0  0  0  0  3  0  0  0  0  0  0
  185.5570  178.8160  145.4360 C   0  0  1  0  0  3  0  0  0  0  0  0
  186.0740  177.6720  144.5700 C   0  0  0  0  0  2  0  0  0  0  0  0
  191.4390  176.9350  147.7180 C   0  0  2  0  0  3  0  0  0  0  0  0
  192.0310  176.5840  146.4880 O   0  0  0  0  0  0  0  0  0  0  0  0
  191.6010  175.5220  147.3000 C   0  0  0  0  0  2  0  0  0  0  0  0
  1 20  1  1  0  0  0
  3 13  1  0  0  0  0
  3  7  1  0  0  0  0
  4  6  1  0  0  0  0
  5  4  1  0  0  0  0
  7  8  1  0  0  0  0
  8  1  1  0  0  0  0
  8  4  2  0  0  0  0
  9  7  1  0  0  0  0
  9  5  2  0  0  0  0
 10  2  2  0  0  0  0
 10 11  1  0  0  0  0
 11 12  2  0  0  0  0
 12 14  1  0  0  0  0
 13  2  1  6  0  0  0
 13 15  1  0  0  0  0
 15 14  2  0  0  0  0
 15  1  1  0  0  0  0
 16 11  1  0  0  0  0
 16 18  2  0  0  0  0
 17 16  2  0  0  0  0
 19 21  1  0  0  0  0
 20 19  2  0  0  0  0
 22 26  1  0  0  0  0
 23 28  1  0  0  0  0
 24 29  1  0  0  0  0
 25 24  2  0  0  0  0
 26 25  1  0  0  0  0
 26 28  2  0  0  0  0
 27 29  2  0  0  0  0
 28 27  1  0  0  0  0
 30 21  1  1  0  0  0
 30 23  1  0  0  0  0
 31 22  1  0  0  0  0
 31 30  1  0  0  0  0
 32 24  1  6  0  0  0
 33 34  1  0  0  0  0
 33 32  1  0  0  0  0
 34 32  1  0  0  0  0
M  END
>  <MODEL>
2

>  <REMARK>
 VINA RESULT:     -10.0      3.718      8.341
  Name = 
  5 active torsions:
  status: ('A' for Active; 'I' for Inactive)
    1  A    between atoms: C_1  and  C_9
    2  A    between atoms: N_3  and  C_25
    3  A    between atoms: C_7  and  C_11
    4  A    between atoms: N_8  and  C_18
    5  A    between atoms: C_18  and  C_30
                            x       y       z     vdW  Elec       q    Type
                         _______ _______ _______ _____ _____    ______ ____

>  <TORSDO>
F 5

$$$$
=
 OpenBabel10262423303D

 34 39  0  0  1  0  0  0  0  0999 V2000
  188.9080  177.8740  144.6980 C   0  0  2  0  0  3  0  0  0  0  0  0
  190.9360  177.0770  141.7190 C   0  0  0  0  0  3  0  0  0  0  0  0
  191.7110  177.3870  143.9640 C   0  0  0  0  0  2  0  0  0  0  0  0
  189.8030  176.8390  146.9400 C   0  0  0  0  0  0  0  0  0  0  0  0
  191.0030  176.3440  147.3100 N   0  0  0  0  0  0  0  0  0  0  0  0
  188.6200  176.6900  147.7150 N   0  0  0  0  0  1  0  0  0  0  0  0
  191.1650  177.0820  145.2760 N   0  0  0  0  0  0  0  0  0  0  0  0
  189.9040  177.3190  145.6470 C   0  0  0  0  0  0  0  0  0  0  0  0
  191.8180  176.5170  146.2760 N   0  0  0  0  0  0  0  0  0  0  0  0
  190.1310  177.0020  140.4950 C   0  0  0  0  0  3  0  0  0  0  0  0
  188.9400  177.5330  140.2110 C   0  0  0  0  0  0  0  0  0  0  0  0
  188.1720  178.3940  141.1280 C   0  0  0  0  0  3  0  0  0  0  0  0
  190.6000  177.4580  142.9480 C   0  0  2  0  0  3  0  0  0  0  0  0
  188.2880  178.5450  142.4430 C   0  0  0  0  0  3  0  0  0  0  0  0
  189.2370  177.9110  143.3790 C   0  0  0  0  0  0  0  0  0  0  0  0
  188.4020  177.3140  138.8970 N   0  0  0  0  0  0  0  0  0  0  0  0
  187.4330  178.1490  138.3870 O   0  0  0  0  0  0  0  0  0  0  0  0
  188.8150  176.3680  138.1940 O   0  0  0  0  0  0  0  0  0  0  0  0
  186.4990  177.7940  145.0220 N   0  0  0  0  0  0  0  0  0  0  0  0
  187.6160  178.4290  145.1610 C   0  0  0  0  0  3  0  0  0  0  0  0
  185.2460  178.3640  145.4990 C   0  0  0  0  0  2  0  0  0  0  0  0
  182.0100  179.1300  143.5400 C   0  0  0  0  0  2  0  0  0  0  0  0
  184.8170  178.2370  143.0140 C   0  0  0  0  0  2  0  0  0  0  0  0
  182.0640  178.8620  139.7590 C   0  0  0  0  0  0  0  0  0  0  0  0
  181.6250  179.0360  141.0760 C   0  0  0  0  0  3  0  0  0  0  0  0
  182.5030  178.8510  142.1480 C   0  0  0  0  0  0  0  0  0  0  0  0
  184.2780  178.3080  140.5800 C   0  0  0  0  0  3  0  0  0  0  0  0
  183.8510  178.5070  141.8970 C   0  0  0  0  0  0  0  0  0  0  0  0
  183.3900  178.4850  139.5160 C   0  0  0  0  0  3  0  0  0  0  0  0
  184.3480  178.8210  144.3480 C   0  0  1  0  0  3  0  0  0  0  0  0
  182.8850  178.4750  144.6020 C   0  0  0  0  0  2  0  0  0  0  0  0
  181.1040  179.0200  138.6220 C   0  0  2  0  0  3  0  0  0  0  0  0
  181.8170  179.1350  137.4110 O   0  0  0  0  0  0  0  0  0  0  0  0
  181.2960  180.3240  137.9460 C   0  0  0  0  0  2  0  0  0  0  0  0
  1 20  1  1  0  0  0
  1  8  1  0  0  0  0
  3  7  1  0  0  0  0
  4  5  1  0  0  0  0
  4  6  1  0  0  0  0
  7  8  1  0  0  0  0
  7  9  1  0  0  0  0
  8  4  2  0  0  0  0
  9  5  2  0  0  0  0
 10  2  2  0  0  0  0
 11 10  1  0  0  0  0
 11 12  2  0  0  0  0
 12 14  1  0  0  0  0
 13  2  1  1  0  0  0
 13 15  1  0  0  0  0
 13  3  1  0  0  0  0
 14 15  2  0  0  0  0
 15  1  1  0  0  0  0
 16 11  1  0  0  0  0
 17 16  2  0  0  0  0
 18 16  2  0  0  0  0
 19 20  2  0  0  0  0
 19 21  1  0  0  0  0
 22 31  1  0  0  0  0
 23 30  1  0  0  0  0
 24 25  1  0  0  0  0
 25 26  2  0  0  0  0
 26 22  1  0  0  0  0
 27 28  2  0  0  0  0
 28 26  1  0  0  0  0
 28 23  1  0  0  0  0
 29 24  2  0  0  0  0
 29 27  1  0  0  0  0
 30 31  1  0  0  0  0
 30 21  1  1  0  0  0
 32 24  1  1  0  0  0
 33 34  1  0  0  0  0
 33 32  1  0  0  0  0
 34 32  1  0  0  0  0
M  END
>  <MODEL>
3

>  <REMARK>
 VINA RESULT:      -9.8      1.098      1.756
  Name = 
  5 active torsions:
  status: ('A' for Active; 'I' for Inactive)
    1  A    between atoms: C_1  and  C_9
    2  A    between atoms: N_3  and  C_25
    3  A    between atoms: C_7  and  C_11
    4  A    between atoms: N_8  and  C_18
    5  A    between atoms: C_18  and  C_30
                            x       y       z     vdW  Elec       q    Type
                         _______ _______ _______ _____ _____    ______ ____

>  <TORSDO>
F 5

$$$$
=
 OpenBabel10262423303D

 34 39  0  0  1  0  0  0  0  0999 V2000
  188.3700  177.3800  145.3090 C   0  0  2  0  0  3  0  0  0  0  0  0
  184.9340  178.7280  145.2990 C   0  0  0  0  0  3  0  0  0  0  0  0
  186.1630  177.8950  147.1780 C   0  0  0  0  0  2  0  0  0  0  0  0
  189.7240  177.8540  147.5080 C   0  0  0  0  0  0  0  0  0  0  0  0
  189.3560  178.2010  148.7590 N   0  0  0  0  0  0  0  0  0  0  0  0
  191.0710  177.8780  147.0510 N   0  0  0  0  0  1  0  0  0  0  0  0
  187.5620  177.9250  147.5680 N   0  0  0  0  0  0  0  0  0  0  0  0
  188.5850  177.6670  146.7470 C   0  0  0  0  0  0  0  0  0  0  0  0
  188.0280  178.2270  148.7680 N   0  0  0  0  0  0  0  0  0  0  0  0
  184.4820  179.1060  143.9560 C   0  0  0  0  0  3  0  0  0  0  0  0
  184.9080  178.7030  142.7570 C   0  0  0  0  0  0  0  0  0  0  0  0
  185.9600  177.6960  142.5410 C   0  0  0  0  0  3  0  0  0  0  0  0
  186.0380  178.0990  145.6900 C   0  0  2  0  0  3  0  0  0  0  0  0
  186.8920  177.2530  143.3800 C   0  0  0  0  0  3  0  0  0  0  0  0
  187.1360  177.6220  144.7880 C   0  0  0  0  0  0  0  0  0  0  0  0
  184.2450  179.2320  141.5960 N   0  0  0  0  0  0  0  0  0  0  0  0
  184.9730  179.7520  140.5490 O   0  0  0  0  0  0  0  0  0  0  0  0
  182.9990  179.2170  141.5160 O   0  0  0  0  0  0  0  0  0  0  0  0
  190.1880  177.5120  143.6980 N   0  0  0  0  0  0  0  0  0  0  0  0
  189.4350  176.7920  144.4640 C   0  0  0  0  0  3  0  0  0  0  0  0
  191.2340  176.9040  142.8880 C   0  0  0  0  0  2  0  0  0  0  0  0
  191.5320  176.7810  139.0420 C   0  0  0  0  0  2  0  0  0  0  0  0
  189.5270  177.5250  141.1340 C   0  0  0  0  0  2  0  0  0  0  0  0
  188.5200  177.7410  136.9500 C   0  0  0  0  0  0  0  0  0  0  0  0
  189.8130  177.3620  137.3300 C   0  0  0  0  0  3  0  0  0  0  0  0
  190.1590  177.2720  138.6810 C   0  0  0  0  0  0  0  0  0  0  0  0
  187.9060  177.9510  139.2870 C   0  0  0  0  0  3  0  0  0  0  0  0
  189.1890  177.5470  139.6710 C   0  0  0  0  0  0  0  0  0  0  0  0
  187.5720  178.0480  137.9350 C   0  0  0  0  0  3  0  0  0  0  0  0
  190.8090  176.7430  141.4270 C   0  0  1  0  0  3  0  0  0  0  0  0
  191.9210  177.1540  140.4680 C   0  0  0  0  0  2  0  0  0  0  0  0
  188.1730  177.8770  135.5010 C   0  0  2  0  0  3  0  0  0  0  0  0
  186.7730  177.8460  135.3430 O   0  0  0  0  0  0  0  0  0  0  0  0
  187.4660  176.6700  135.0120 C   0  0  0  0  0  2  0  0  0  0  0  0
  1 20  1  1  0  0  0
  1  8  1  0  0  0  0
  3  7  1  0  0  0  0
  4  5  1  0  0  0  0
  5  9  2  0  0  0  0
  6  4  1  0  0  0  0
  7  9  1  0  0  0  0
  8  4  2  0  0  0  0
  8  7  1  0  0  0  0
 10  2  2  0  0  0  0
 11 10  1  0  0  0  0
 12 11  2  0  0  0  0
 12 14  1  0  0  0  0
 13  2  1  1  0  0  0
 13  3  1  0  0  0  0
 14 15  2  0  0  0  0
 15  1  1  0  0  0  0
 15 13  1  0  0  0  0
 16 11  1  0  0  0  0
 17 16  2  0  0  0  0
 18 16  2  0  0  0  0
 19 20  2  0  0  0  0
 21 19  1  0  0  0  0
 22 31  1  0  0  0  0
 23 30  1  0  0  0  0
 24 25  2  0  0  0  0
 24 29  1  0  0  0  0
 25 26  1  0  0  0  0
 26 22  1  0  0  0  0
 26 28  2  0  0  0  0
 27 28  1  0  0  0  0
 28 23  1  0  0  0  0
 29 27  2  0  0  0  0
 30 21  1  1  0  0  0
 31 30  1  0  0  0  0
 32 24  1  1  0  0  0
 33 32  1  0  0  0  0
 34 33  1  0  0  0  0
 34 32  1  0  0  0  0
M  END
>  <MODEL>
4

>  <REMARK>
 VINA RESULT:      -9.5      2.720      6.446
  Name = 
  5 active torsions:
  status: ('A' for Active; 'I' for Inactive)
    1  A    between atoms: C_1  and  C_9
    2  A    between atoms: N_3  and  C_25
    3  A    between atoms: C_7  and  C_11
    4  A    between atoms: N_8  and  C_18
    5  A    between atoms: C_18  and  C_30
                            x       y       z     vdW  Elec       q    Type
                         _______ _______ _______ _____ _____    ______ ____

>  <TORSDO>
F 5

$$$$
=
 OpenBabel10262423303D

 34 39  0  0  1  0  0  0  0  0999 V2000
  184.4930  178.7690  141.7160 C   0  0  2  0  0  3  0  0  0  0  0  0
  186.0730  177.8770  144.9300 C   0  0  0  0  0  3  0  0  0  0  0  0
  183.9770  178.9880  144.5990 C   0  0  0  0  0  2  0  0  0  0  0  0
  181.8680  178.6840  141.7260 C   0  0  0  0  0  0  0  0  0  0  0  0
  180.9520  178.6970  142.7160 N   0  0  0  0  0  0  0  0  0  0  0  0
  181.5560  178.3900  140.3700 N   0  0  0  0  0  1  0  0  0  0  0  0
  182.9220  178.8870  143.6050 N   0  0  0  0  0  0  0  0  0  0  0  0
  183.1250  178.8150  142.2870 C   0  0  0  0  0  0  0  0  0  0  0  0
  181.6240  178.8320  143.8520 N   0  0  0  0  0  0  0  0  0  0  0  0
  187.3830  177.2410  144.7560 C   0  0  0  0  0  2  0  0  0  0  0  0
  188.2350  177.2880  143.7300 C   0  0  0  0  0  0  0  0  0  0  0  0
  188.0230  178.0810  142.5060 C   0  0  0  0  0  3  0  0  0  0  0  0
  185.2670  178.4460  144.0380 C   0  0  0  0  0  0  0  0  0  0  0  0
  186.9020  178.6000  142.0180 C   0  0  0  0  0  3  0  0  0  0  0  0
  185.5330  178.5560  142.5670 C   0  0  0  0  0  0  0  0  0  0  0  0
  189.4780  176.5770  143.8550 N   0  0  0  0  0  0  0  0  0  0  0  0
  189.8860  175.7000  142.8750 O   0  0  0  0  0  0  0  0  0  0  0  0
  190.2100  176.7530  144.8510 O   0  0  0  0  0  0  0  0  0  0  0  0
  184.9490  178.0360  139.4420 N   0  0  0  0  0  0  0  0  0  0  0  0
  184.7440  179.0030  140.2750 C   0  0  0  0  0  3  0  0  0  0  0  0
  185.1820  178.3000  138.0280 C   0  0  0  0  0  2  0  0  0  0  0  0
  187.9770  176.2940  136.2800 C   0  0  0  0  0  2  0  0  0  0  0  0
  187.5540  177.8770  138.7830 C   0  0  0  0  0  2  0  0  0  0  0  0
  191.4000  176.1450  137.9040 C   0  0  0  0  0  0  0  0  0  0  0  0
  190.3290  175.9260  137.0300 C   0  0  0  0  0  3  0  0  0  0  0  0
  189.0750  176.4870  137.2880 C   0  0  0  0  0  0  0  0  0  0  0  0
  189.9610  177.4960  139.3130 C   0  0  0  0  0  3  0  0  0  0  0  0
  188.8950  177.3010  138.4290 C   0  0  0  0  0  0  0  0  0  0  0  0
  191.2070  176.9220  139.0530 C   0  0  0  0  0  3  0  0  0  0  0  0
  186.5930  177.8970  137.5930 C   0  0  1  0  0  3  0  0  0  0  0  0
  186.5980  176.5530  136.8750 C   0  0  0  0  0  2  0  0  0  0  0  0
  192.7250  175.5020  137.6410 C   0  0  2  0  0  3  0  0  0  0  0  0
  193.7540  176.2910  138.1950 O   0  0  0  0  0  0  0  0  0  0  0  0
  193.5800  176.3770  136.8040 C   0  0  0  0  0  2  0  0  0  0  0  0
  1 20  1  1  0  0  0
  1  8  1  0  0  0  0
  1 15  1  0  0  0  0
  4  8  2  0  0  0  0
  4  5  1  0  0  0  0
  5  9  2  0  0  0  0
  6  4  1  0  0  0  0
  7  9  1  0  0  0  0
  7  3  1  0  0  0  0
  8  7  1  0  0  0  0
 10  2  1  0  0  0  0
 11 16  1  0  0  0  0
 11 10  1  0  0  0  0
 12 11  2  0  0  0  0
 13  3  1  0  0  0  0
 13  2  2  0  0  0  0
 14 12  1  0  0  0  0
 14 15  2  0  0  0  0
 15 13  1  0  0  0  0
 16 18  2  0  0  0  0
 17 16  2  0  0  0  0
 19 20  2  0  0  0  0
 21 19  1  0  0  0  0
 22 31  1  0  0  0  0
 22 26  1  0  0  0  0
 24 29  1  0  0  0  0
 25 26  1  0  0  0  0
 25 24  2  0  0  0  0
 26 28  2  0  0  0  0
 28 23  1  0  0  0  0
 28 27  1  0  0  0  0
 29 27  2  0  0  0  0
 30 21  1  1  0  0  0
 30 23  1  0  0  0  0
 31 30  1  0  0  0  0
 32 24  1  1  0  0  0
 32 33  1  0  0  0  0
 34 32  1  0  0  0  0
 34 33  1  0  0  0  0
M  END
>  <MODEL>
5

>  <REMARK>
 VINA RESULT:      -9.3      3.544      8.521
  Name = 
  5 active torsions:
  status: ('A' for Active; 'I' for Inactive)
    1  A    between atoms: C_1  and  C_9
    2  A    between atoms: N_3  and  C_25
    3  A    between atoms: C_7  and  C_11
    4  A    between atoms: N_8  and  C_18
    5  A    between atoms: C_18  and  C_30
                            x       y       z     vdW  Elec       q    Type
                         _______ _______ _______ _____ _____    ______ ____

>  <TORSDO>
F 5

$$$$
=
 OpenBabel10262423303D

 34 39  0  0  1  0  0  0  0  0999 V2000
  185.8630  178.0130  138.4820 C   0  0  2  0  0  3  0  0  0  0  0  0
  182.4270  178.2560  139.8080 C   0  0  0  0  0  3  0  0  0  0  0  0
  183.0960  178.1860  137.5090 C   0  0  0  0  0  2  0  0  0  0  0  0
  186.0750  176.6720  136.2330 C   0  0  0  0  0  0  0  0  0  0  0  0
  185.1830  176.3190  135.2850 N   0  0  0  0  0  0  0  0  0  0  0  0
  187.3990  176.1550  136.2970 N   0  0  0  0  0  1  0  0  0  0  0  0
  184.1570  177.5080  136.7820 N   0  0  0  0  0  0  0  0  0  0  0  0
  185.4290  177.4380  137.1860 C   0  0  0  0  0  0  0  0  0  0  0  0
  184.0210  176.8540  135.6420 N   0  0  0  0  0  0  0  0  0  0  0  0
  182.3930  178.3210  141.2730 C   0  0  0  0  0  2  0  0  0  0  0  0
  183.3350  178.6910  142.1420 C   0  0  0  0  0  0  0  0  0  0  0  0
  184.6720  179.1820  141.7650 C   0  0  0  0  0  3  0  0  0  0  0  0
  183.4580  178.2910  138.9690 C   0  0  0  0  0  0  0  0  0  0  0  0
  185.3270  179.0530  140.6150 C   0  0  0  0  0  3  0  0  0  0  0  0
  184.9010  178.3980  139.3630 C   0  0  0  0  0  0  0  0  0  0  0  0
  183.0010  178.6810  143.5400 N   0  0  0  0  0  0  0  0  0  0  0  0
  181.6850  178.6960  143.9460 O   0  0  0  0  0  0  0  0  0  0  0  0
  183.8990  178.6480  144.4060 O   0  0  0  0  0  0  0  0  0  0  0  0
  188.0060  177.3320  139.4100 N   0  0  0  0  0  0  0  0  0  0  0  0
  187.2940  178.2220  138.8000 C   0  0  0  0  0  3  0  0  0  0  0  0
  189.4140  177.5650  139.6990 C   0  0  0  0  0  2  0  0  0  0  0  0
  191.1640  177.1510  143.1130 C   0  0  0  0  0  2  0  0  0  0  0  0
  188.4030  177.4760  142.0100 C   0  0  0  0  0  2  0  0  0  0  0  0
  189.0540  177.2250  146.2620 C   0  0  0  0  0  0  0  0  0  0  0  0
  190.1420  177.1080  145.3890 C   0  0  0  0  0  3  0  0  0  0  0  0
  189.9570  177.1990  144.0070 C   0  0  0  0  0  0  0  0  0  0  0  0
  187.5750  177.5210  144.3620 C   0  0  0  0  0  3  0  0  0  0  0  0
  188.6630  177.4320  143.4880 C   0  0  0  0  0  0  0  0  0  0  0  0
  187.7680  177.4190  145.7420 C   0  0  0  0  0  3  0  0  0  0  0  0
  189.6750  177.7230  141.1980 C   0  0  1  0  0  3  0  0  0  0  0  0
  190.8010  176.8110  141.6730 C   0  0  0  0  0  2  0  0  0  0  0  0
  189.2580  177.0820  147.7370 C   0  0  2  0  0  3  0  0  0  0  0  0
  188.0450  177.3320  148.4100 O   0  0  0  0  0  0  0  0  0  0  0  0
  188.9970  178.3640  148.4330 C   0  0  0  0  0  2  0  0  0  0  0  0
  1 20  1  6  0  0  0
  1 15  1  0  0  0  0
  2 10  1  0  0  0  0
  3 13  1  0  0  0  0
  4  6  1  0  0  0  0
  4  8  2  0  0  0  0
  5  9  2  0  0  0  0
  5  4  1  0  0  0  0
  7  8  1  0  0  0  0
  7  3  1  0  0  0  0
  8  1  1  0  0  0  0
  9  7  1  0  0  0  0
 10 11  1  0  0  0  0
 11 16  1  0  0  0  0
 12 11  2  0  0  0  0
 13 15  1  0  0  0  0
 13  2  2  0  0  0  0
 14 12  1  0  0  0  0
 15 14  2  0  0  0  0
 16 17  2  0  0  0  0
 16 18  2  0  0  0  0
 19 21  1  0  0  0  0
 20 19  2  0  0  0  0
 22 26  1  0  0  0  0
 23 28  1  0  0  0  0
 25 24  2  0  0  0  0
 26 25  1  0  0  0  0
 27 29  2  0  0  0  0
 28 26  2  0  0  0  0
 28 27  1  0  0  0  0
 29 24  1  0  0  0  0
 30 21  1  6  0  0  0
 30 31  1  0  0  0  0
 30 23  1  0  0  0  0
 31 22  1  0  0  0  0
 32 24  1  6  0  0  0
 32 33  1  0  0  0  0
 32 34  1  0  0  0  0
 33 34  1  0  0  0  0
M  END
>  <MODEL>
6

>  <REMARK>
 VINA RESULT:      -9.1      3.847      8.936
  Name = 
  5 active torsions:
  status: ('A' for Active; 'I' for Inactive)
    1  A    between atoms: C_1  and  C_9
    2  A    between atoms: N_3  and  C_25
    3  A    between atoms: C_7  and  C_11
    4  A    between atoms: N_8  and  C_18
    5  A    between atoms: C_18  and  C_30
                            x       y       z     vdW  Elec       q    Type
                         _______ _______ _______ _____ _____    ______ ____

>  <TORSDO>
F 5

$$$$
=
 OpenBabel10262423303D

 34 39  0  0  1  0  0  0  0  0999 V2000
  188.1750  177.6450  138.2800 C   0  0  2  0  0  3  0  0  0  0  0  0
  184.4980  177.9620  138.2430 C   0  0  0  0  0  3  0  0  0  0  0  0
  185.9670  177.8550  136.3540 C   0  0  0  0  0  2  0  0  0  0  0  0
  189.1750  176.2760  136.2750 C   0  0  0  0  0  0  0  0  0  0  0  0
  188.6890  175.9280  135.0650 N   0  0  0  0  0  0  0  0  0  0  0  0
  190.3720  175.7370  136.8240 N   0  0  0  0  0  1  0  0  0  0  0  0
  187.2070  177.1510  136.0730 N   0  0  0  0  0  0  0  0  0  0  0  0
  188.2380  177.0640  136.9180 C   0  0  0  0  0  0  0  0  0  0  0  0
  187.4880  176.4860  134.9660 N   0  0  0  0  0  0  0  0  0  0  0  0
  183.9270  178.0440  139.5920 C   0  0  0  0  0  2  0  0  0  0  0  0
  184.4890  178.4070  140.7460 C   0  0  0  0  0  0  0  0  0  0  0  0
  185.8810  178.8710  140.8870 C   0  0  0  0  0  3  0  0  0  0  0  0
  185.7670  177.9700  137.8440 C   0  0  0  0  0  0  0  0  0  0  0  0
  186.9110  178.7180  140.0610 C   0  0  0  0  0  3  0  0  0  0  0  0
  186.9640  178.0570  138.7420 C   0  0  0  0  0  0  0  0  0  0  0  0
  183.6620  178.4190  141.9220 N   0  0  0  0  0  0  0  0  0  0  0  0
  182.3010  178.5990  141.8190 O   0  0  0  0  0  0  0  0  0  0  0  0
  184.1660  178.2550  143.0530 O   0  0  0  0  0  0  0  0  0  0  0  0
  189.8440  176.9150  139.8920 N   0  0  0  0  0  0  0  0  0  0  0  0
  189.3920  177.8340  139.1040 C   0  0  0  0  0  3  0  0  0  0  0  0
  191.0500  177.1280  140.6810 C   0  0  0  0  0  2  0  0  0  0  0  0
  191.3950  177.1080  144.5250 C   0  0  0  0  0  2  0  0  0  0  0  0
  189.2470  177.2270  142.4450 C   0  0  0  0  0  2  0  0  0  0  0  0
  188.2600  177.4110  146.6360 C   0  0  0  0  0  0  0  0  0  0  0  0
  189.5960  177.2490  146.2480 C   0  0  0  0  0  3  0  0  0  0  0  0
  189.9410  177.1990  144.8950 C   0  0  0  0  0  0  0  0  0  0  0  0
  187.6000  177.4700  144.3030 C   0  0  0  0  0  3  0  0  0  0  0  0
  188.9360  177.3360  143.9110 C   0  0  0  0  0  0  0  0  0  0  0  0
  187.2630  177.5080  145.6580 C   0  0  0  0  0  3  0  0  0  0  0  0
  190.7320  177.4390  142.1450 C   0  0  1  0  0  3  0  0  0  0  0  0
  191.5950  176.6180  143.0960 C   0  0  0  0  0  2  0  0  0  0  0  0
  187.8970  177.4190  148.0870 C   0  0  2  0  0  3  0  0  0  0  0  0
  187.5770  178.7310  148.4900 O   0  0  0  0  0  0  0  0  0  0  0  0
  188.8440  178.2530  148.8650 C   0  0  0  0  0  2  0  0  0  0  0  0
  1 15  1  0  0  0  0
  1 20  1  6  0  0  0
  2 10  1  0  0  0  0
  3 13  1  0  0  0  0
  4  6  1  0  0  0  0
  4  8  2  0  0  0  0
  5  4  1  0  0  0  0
  7  3  1  0  0  0  0
  7  8  1  0  0  0  0
  8  1  1  0  0  0  0
  9  5  2  0  0  0  0
  9  7  1  0  0  0  0
 10 11  1  0  0  0  0
 11 12  2  0  0  0  0
 11 16  1  0  0  0  0
 13  2  2  0  0  0  0
 13 15  1  0  0  0  0
 14 12  1  0  0  0  0
 15 14  2  0  0  0  0
 16 18  2  0  0  0  0
 17 16  2  0  0  0  0
 19 21  1  0  0  0  0
 20 19  2  0  0  0  0
 22 26  1  0  0  0  0
 23 28  1  0  0  0  0
 25 24  1  0  0  0  0
 26 25  2  0  0  0  0
 27 29  1  0  0  0  0
 28 27  2  0  0  0  0
 28 26  1  0  0  0  0
 29 24  2  0  0  0  0
 30 21  1  6  0  0  0
 30 23  1  0  0  0  0
 30 31  1  0  0  0  0
 31 22  1  0  0  0  0
 32 24  1  6  0  0  0
 32 33  1  0  0  0  0
 32 34  1  0  0  0  0
 33 34  1  0  0  0  0
M  END
>  <MODEL>
7

>  <REMARK>
 VINA RESULT:      -9.1      3.930      8.428
  Name = 
  5 active torsions:
  status: ('A' for Active; 'I' for Inactive)
    1  A    between atoms: C_1  and  C_9
    2  A    between atoms: N_3  and  C_25
    3  A    between atoms: C_7  and  C_11
    4  A    between atoms: N_8  and  C_18
    5  A    between atoms: C_18  and  C_30
                            x       y       z     vdW  Elec       q    Type
                         _______ _______ _______ _____ _____    ______ ____

>  <TORSDO>
F 5

$$$$
=
 OpenBabel10262423303D

 34 39  0  0  1  0  0  0  0  0999 V2000
  188.0710  177.7280  143.6540 C   0  0  2  0  0  3  0  0  0  0  0  0
  191.3490  176.1680  144.3210 C   0  0  0  0  0  3  0  0  0  0  0  0
  190.0560  176.0290  142.3100 C   0  0  0  0  0  2  0  0  0  0  0  0
  187.6940  178.4550  141.1590 C   0  0  0  0  0  0  0  0  0  0  0  0
  188.2910  178.1090  139.9990 N   0  0  0  0  0  0  0  0  0  0  0  0
  186.7870  179.5450  141.2800 N   0  0  0  0  0  1  0  0  0  0  0  0
  189.1820  176.9480  141.6010 N   0  0  0  0  0  0  0  0  0  0  0  0
  188.2510  177.7110  142.1820 C   0  0  0  0  0  0  0  0  0  0  0  0
  189.1880  177.1780  140.3000 N   0  0  0  0  0  0  0  0  0  0  0  0
  191.8290  176.4300  145.6820 C   0  0  0  0  0  2  0  0  0  0  0  0
  191.1570  176.7670  146.7850 C   0  0  0  0  0  0  0  0  0  0  0  0
  189.6930  176.9090  146.8570 C   0  0  0  0  0  3  0  0  0  0  0  0
  190.1780  176.4450  143.7540 C   0  0  0  0  0  0  0  0  0  0  0  0
  188.8090  177.0730  145.8780 C   0  0  0  0  0  3  0  0  0  0  0  0
  189.0280  177.1380  144.4200 C   0  0  0  0  0  0  0  0  0  0  0  0
  191.9030  176.9310  148.0020 N   0  0  0  0  0  0  0  0  0  0  0  0
  192.9080  176.0500  148.3330 O   0  0  0  0  0  0  0  0  0  0  0  0
  191.6570  177.8820  148.7730 O   0  0  0  0  0  0  0  0  0  0  0  0
  185.6800  177.8350  144.0850 N   0  0  0  0  0  0  0  0  0  0  0  0
  186.8650  178.3120  144.2840 C   0  0  0  0  0  3  0  0  0  0  0  0
  184.5150  178.4260  144.7300 C   0  0  0  0  0  2  0  0  0  0  0  0
  181.0660  179.2590  143.2120 C   0  0  0  0  0  2  0  0  0  0  0  0
  183.7790  178.3710  142.3160 C   0  0  0  0  0  2  0  0  0  0  0  0
  180.6470  179.0980  139.4470 C   0  0  0  0  0  0  0  0  0  0  0  0
  180.3770  179.2360  140.8140 C   0  0  0  0  0  3  0  0  0  0  0  0
  181.3800  179.0180  141.7620 C   0  0  0  0  0  0  0  0  0  0  0  0
  182.9420  178.5130  139.9710 C   0  0  0  0  0  3  0  0  0  0  0  0
  182.6830  178.6760  141.3350 C   0  0  0  0  0  0  0  0  0  0  0  0
  181.9300  178.7230  139.0310 C   0  0  0  0  0  3  0  0  0  0  0  0
  183.4840  178.9200  143.7130 C   0  0  1  0  0  3  0  0  0  0  0  0
  182.0620  178.5710  144.1380 C   0  0  0  0  0  2  0  0  0  0  0  0
  179.5540  179.2910  138.4440 C   0  0  2  0  0  3  0  0  0  0  0  0
  180.1110  179.4310  137.1570 O   0  0  0  0  0  0  0  0  0  0  0  0
  179.6720  180.6110  137.7810 C   0  0  0  0  0  2  0  0  0  0  0  0
  1 20  1  6  0  0  0
  1 15  1  0  0  0  0
  2 10  1  0  0  0  0
  3 13  1  0  0  0  0
  4  6  1  0  0  0  0
  4  8  2  0  0  0  0
  5  9  2  0  0  0  0
  5  4  1  0  0  0  0
  7  8  1  0  0  0  0
  7  3  1  0  0  0  0
  8  1  1  0  0  0  0
  9  7  1  0  0  0  0
 10 11  1  0  0  0  0
 11 12  2  0  0  0  0
 11 16  1  0  0  0  0
 13  2  2  0  0  0  0
 13 15  1  0  0  0  0
 14 12  1  0  0  0  0
 15 14  2  0  0  0  0
 16 17  2  0  0  0  0
 16 18  2  0  0  0  0
 19 20  2  0  0  0  0
 19 21  1  0  0  0  0
 22 31  1  0  0  0  0
 23 30  1  0  0  0  0
 24 25  1  0  0  0  0
 25 26  2  0  0  0  0
 26 22  1  0  0  0  0
 27 28  2  0  0  0  0
 28 26  1  0  0  0  0
 28 23  1  0  0  0  0
 29 24  2  0  0  0  0
 29 27  1  0  0  0  0
 30 31  1  0  0  0  0
 30 21  1  1  0  0  0
 32 24  1  1  0  0  0
 33 34  1  0  0  0  0
 33 32  1  0  0  0  0
 34 32  1  0  0  0  0
M  END
>  <MODEL>
8

>  <REMARK>
 VINA RESULT:      -9.1      3.038      4.947
  Name = 
  5 active torsions:
  status: ('A' for Active; 'I' for Inactive)
    1  A    between atoms: C_1  and  C_9
    2  A    between atoms: N_3  and  C_25
    3  A    between atoms: C_7  and  C_11
    4  A    between atoms: N_8  and  C_18
    5  A    between atoms: C_18  and  C_30
                            x       y       z     vdW  Elec       q    Type
                         _______ _______ _______ _____ _____    ______ ____

>  <TORSDO>
F 5

$$$$
=
 OpenBabel10262423303D

 34 39  0  0  1  0  0  0  0  0999 V2000
  184.1340  177.9270  139.2750 C   0  0  2  0  0  3  0  0  0  0  0  0
  182.1450  175.6490  137.1580 C   0  0  0  0  0  3  0  0  0  0  0  0
  183.9200  177.1000  136.4640 C   0  0  0  0  0  2  0  0  0  0  0  0
  186.6260  178.2360  138.5080 C   0  0  0  0  0  0  0  0  0  0  0  0
  187.2660  178.0050  137.3430 N   0  0  0  0  0  0  0  0  0  0  0  0
  187.2980  178.5330  139.7270 N   0  0  0  0  0  1  0  0  0  0  0  0
  185.1620  177.5450  137.0720 N   0  0  0  0  0  0  0  0  0  0  0  0
  185.2830  177.9540  138.3390 C   0  0  0  0  0  0  0  0  0  0  0  0
  186.3430  177.5930  136.4810 N   0  0  0  0  0  0  0  0  0  0  0  0
  181.1070  174.9420  137.9150 C   0  0  0  0  0  2  0  0  0  0  0  0
  180.5220  175.2500  139.0740 C   0  0  0  0  0  0  0  0  0  0  0  0
  180.7990  176.4730  139.8480 C   0  0  0  0  0  3  0  0  0  0  0  0
  182.9640  176.6290  137.5300 C   0  0  0  0  0  0  0  0  0  0  0  0
  181.8380  177.3000  139.7800 C   0  0  0  0  0  3  0  0  0  0  0  0
  183.0160  177.2530  138.8920 C   0  0  0  0  0  0  0  0  0  0  0  0
  179.4990  174.3690  139.5660 N   0  0  0  0  0  0  0  0  0  0  0  0
  178.9800  174.5340  140.8310 O   0  0  0  0  0  0  0  0  0  0  0  0
  179.0580  173.4480  138.8480 O   0  0  0  0  0  0  0  0  0  0  0  0
  184.3210  178.0520  141.6970 N   0  0  0  0  0  0  0  0  0  0  0  0
  184.1620  178.6550  140.5640 C   0  0  0  0  0  3  0  0  0  0  0  0
  184.3560  178.7980  142.9470 C   0  0  0  0  0  2  0  0  0  0  0  0
  186.0810  178.1050  146.3290 C   0  0  0  0  0  2  0  0  0  0  0  0
  186.7740  178.2510  143.4220 C   0  0  0  0  0  2  0  0  0  0  0  0
  189.7650  177.2080  146.3430 C   0  0  0  0  0  0  0  0  0  0  0  0
  188.4690  177.5250  146.7660 C   0  0  0  0  0  3  0  0  0  0  0  0
  187.4790  177.8540  145.8360 C   0  0  0  0  0  0  0  0  0  0  0  0
  189.0880  177.5540  144.0400 C   0  0  0  0  0  3  0  0  0  0  0  0
  187.7850  177.8450  144.4560 C   0  0  0  0  0  0  0  0  0  0  0  0
  190.0730  177.2370  144.9770 C   0  0  0  0  0  3  0  0  0  0  0  0
  185.3400  178.1940  143.9500 C   0  0  1  0  0  3  0  0  0  0  0  0
  185.2420  178.8710  145.3130 C   0  0  0  0  0  2  0  0  0  0  0  0
  190.8280  176.9010  147.3500 C   0  0  2  0  0  3  0  0  0  0  0  0
  192.0710  176.7640  146.7010 O   0  0  0  0  0  0  0  0  0  0  0  0
  191.4340  175.5740  147.0900 C   0  0  0  0  0  2  0  0  0  0  0  0
  1 20  1  6  0  0  0
  2 13  2  0  0  0  0
  2 10  1  0  0  0  0
  3  7  1  0  0  0  0
  3 13  1  0  0  0  0
  4  6  1  0  0  0  0
  5  4  1  0  0  0  0
  7  8  1  0  0  0  0
  8  4  2  0  0  0  0
  8  1  1  0  0  0  0
  9  7  1  0  0  0  0
  9  5  2  0  0  0  0
 10 11  1  0  0  0  0
 11 16  1  0  0  0  0
 11 12  2  0  0  0  0
 13 15  1  0  0  0  0
 14 12  1  0  0  0  0
 15  1  1  0  0  0  0
 15 14  2  0  0  0  0
 16 17  2  0  0  0  0
 18 16  2  0  0  0  0
 19 21  1  0  0  0  0
 20 19  2  0  0  0  0
 23 30  1  0  0  0  0
 23 28  1  0  0  0  0
 24 25  1  0  0  0  0
 26 22  1  0  0  0  0
 26 25  2  0  0  0  0
 27 28  2  0  0  0  0
 27 29  1  0  0  0  0
 28 26  1  0  0  0  0
 29 24  2  0  0  0  0
 30 21  1  6  0  0  0
 30 31  1  0  0  0  0
 31 22  1  0  0  0  0
 32 24  1  6  0  0  0
 33 34  1  0  0  0  0
 33 32  1  0  0  0  0
 34 32  1  0  0  0  0
M  END
>  <MODEL>
9

>  <REMARK>
 VINA RESULT:      -9.0      4.206      8.983
  Name = 
  5 active torsions:
  status: ('A' for Active; 'I' for Inactive)
    1  A    between atoms: C_1  and  C_9
    2  A    between atoms: N_3  and  C_25
    3  A    between atoms: C_7  and  C_11
    4  A    between atoms: N_8  and  C_18
    5  A    between atoms: C_18  and  C_30
                            x       y       z     vdW  Elec       q    Type
                         _______ _______ _______ _____ _____    ______ ____

>  <TORSDO>
F 5

$$$$
