=
 OpenBabel10262419143D

 34 38  0  0  1  0  0  0  0  0999 V2000
  192.1540  175.5990  136.3170 C   0  0  2  0  0  3  0  0  0  0  0  0
  193.1240  176.6610  138.3710 C   0  0  1  0  0  3  0  0  0  0  0  0
  190.5510  176.2920  137.9980 C   0  0  2  0  0  3  0  0  0  0  0  0
  194.2460  174.9510  136.8700 C   0  0  0  0  0  2  0  0  0  0  0  0
  188.0870  176.0670  137.3130 C   0  0  1  0  0  3  0  0  0  0  0  0
  185.7270  176.4640  136.9890 O   0  0  0  0  0  1  0  0  0  0  0  0
  193.9680  175.3870  138.3350 C   0  0  0  0  0  2  0  0  0  0  0  0
  191.4670  176.6790  140.2820 C   0  0  0  0  0  2  0  0  0  0  0  0
  186.3970  178.8390  137.8410 O   0  0  0  0  0  1  0  0  0  0  0  0
  191.9250  176.6130  137.4100 C   0  0  2  0  0  3  0  0  0  0  0  0
  186.8730  179.0420  135.6390 F   0  0  0  0  0  0  0  0  0  0  0  0
  193.4890  175.6520  135.8940 O   0  0  0  0  0  0  0  0  0  0  0  0
  189.5070  176.5110  136.8410 C   0  0  1  0  0  0  0  0  0  0  0  0
  187.0050  176.8650  136.5860 C   0  0  1  0  0  3  0  0  0  0  0  0
  191.1470  175.9320  135.2340 C   0  0  0  0  0  2  0  0  0  0  0  0
  192.8060  177.1860  139.7690 C   0  0  0  0  0  2  0  0  0  0  0  0
  188.6660  178.6820  137.1530 C   0  0  0  0  0  2  0  0  0  0  0  0
  187.2080  178.3760  136.8030 C   0  0  2  0  0  0  0  0  0  0  0  0
  189.5370  177.8720  136.3970 O   0  0  0  0  0  0  0  0  0  0  0  0
  187.8590  174.5610  137.2190 C   0  0  0  0  0  1  0  0  0  0  0  0
  190.3400  177.0570  139.3210 C   0  0  2  0  0  3  0  0  0  0  0  0
  189.8400  175.6780  135.7220 O   0  0  0  0  0  0  0  0  0  0  0  0
  189.0190  176.6970  139.9930 C   0  0  0  0  0  2  0  0  0  0  0  0
  189.3030  177.0090  143.5690 C   0  0  0  0  0  3  0  0  0  0  0  0
  188.9990  177.3250  142.3420 C   0  0  0  0  0  0  0  0  0  0  0  0
  188.6980  177.6350  141.1110 C   0  0  0  0  0  0  0  0  0  0  0  0
  188.1420  178.9790  140.8070 C   0  0  0  0  0  1  0  0  0  0  0  0
  191.6140  178.9320  143.8790 C   0  0  0  0  0  1  0  0  0  0  0  0
  189.3610  178.0670  144.6290 C   0  0  2  0  0  3  0  0  0  0  0  0
  190.7970  178.4130  145.0480 C   0  0  1  0  0  3  0  0  0  0  0  0
  190.7140  176.8590  147.3070 S   0  0  0  0  0  0  0  0  0  0  0  0
  189.1030  176.4510  146.5600 C   0  0  0  0  0  2  0  0  0  0  0  0
  188.5200  177.6640  145.8400 C   0  0  0  0  0  2  0  0  0  0  0  0
  191.4990  177.2310  145.7060 C   0  0  0  0  0  2  0  0  0  0  0  0
  1 15  1  6  0  0  0
  1 10  1  0  0  0  0
  2  7  1  1  0  0  0
  2 16  1  0  0  0  0
  3 21  1  0  0  0  0
  4  7  1  0  0  0  0
 10  3  1  0  0  0  0
 10  2  1  0  0  0  0
 11 18  1  0  0  0  0
 12  1  1  0  0  0  0
 12  4  1  0  0  0  0
 13  5  1  0  0  0  0
 13  3  1  0  0  0  0
 14 18  1  0  0  0  0
 14  6  1  0  0  0  0
 14  5  1  0  0  0  0
 15 22  1  0  0  0  0
 16  8  1  0  0  0  0
 18 17  1  0  0  0  0
 18  9  1  0  0  0  0
 19 13  1  0  0  0  0
 19 17  1  0  0  0  0
 20  5  1  0  0  0  0
 21 23  1  0  0  0  0
 21  8  1  0  0  0  0
 22 13  1  0  0  0  0
 23 26  1  0  0  0  0
 24 29  1  0  0  0  0
 25 24  2  0  0  0  0
 26 25  2  0  0  0  0
 27 26  1  0  0  0  0
 28 30  1  0  0  0  0
 29 30  1  0  0  0  0
 29 33  1  0  0  0  0
 30 34  1  0  0  0  0
 32 31  1  0  0  0  0
 33 32  1  0  0  0  0
 34 31  1  0  0  0  0
M  END
>  <MODEL>
1

>  <REMARK>
 VINA RESULT:      -7.8      0.000      0.000
  Name = 
  3 active torsions:
  status: ('A' for Active; 'I' for Inactive)
    1  A    between atoms: C_3  and  C_13
    2  A    between atoms: C_5  and  C_18
    3  A    between atoms: C_5  and  C_31
                            x       y       z     vdW  Elec       q    Type
                         _______ _______ _______ _____ _____    ______ ____

>  <TORSDO>
F 3

$$$$
=
 OpenBabel10262419143D

 34 38  0  0  1  0  0  0  0  0999 V2000
  182.9560  177.9730  136.8820 C   0  0  2  0  0  3  0  0  0  0  0  0
  183.3650  178.3330  139.3300 C   0  0  1  0  0  3  0  0  0  0  0  0
  185.2690  177.8340  137.5920 C   0  0  2  0  0  3  0  0  0  0  0  0
  181.4660  179.2940  137.9490 C   0  0  0  0  0  2  0  0  0  0  0  0
  186.9230  177.0870  135.7760 C   0  0  1  0  0  3  0  0  0  0  0  0
  188.7410  176.0240  134.5940 O   0  0  0  0  0  1  0  0  0  0  0  0
  182.5380  179.5850  139.0360 C   0  0  0  0  0  2  0  0  0  0  0  0
  185.7940  178.8570  139.8020 C   0  0  0  0  0  2  0  0  0  0  0  0
  188.8480  174.6200  136.7920 O   0  0  0  0  0  1  0  0  0  0  0  0
  183.8310  177.6090  138.0560 C   0  0  2  0  0  3  0  0  0  0  0  0
  187.2590  173.4820  135.6550 F   0  0  0  0  0  0  0  0  0  0  0  0
  181.6180  178.0430  137.2930 O   0  0  0  0  0  0  0  0  0  0  0  0
  185.5200  176.8270  136.4080 C   0  0  1  0  0  0  0  0  0  0  0  0
  187.4900  175.8000  135.1780 C   0  0  1  0  0  3  0  0  0  0  0  0
  183.2260  176.9170  135.8290 C   0  0  0  0  0  2  0  0  0  0  0  0
  184.4400  178.5060  140.4000 C   0  0  0  0  0  2  0  0  0  0  0  0
  186.5700  174.9640  137.3770 C   0  0  0  0  0  2  0  0  0  0  0  0
  187.5650  174.6930  136.2460 C   0  0  2  0  0  0  0  0  0  0  0  0
  185.3640  175.4780  136.8620 O   0  0  0  0  0  0  0  0  0  0  0  0
  186.9370  178.2440  134.7810 C   0  0  0  0  0  1  0  0  0  0  0  0
  186.2340  177.7950  138.7950 C   0  0  2  0  0  3  0  0  0  0  0  0
  184.5600  177.0530  135.3670 O   0  0  0  0  0  0  0  0  0  0  0  0
  187.6720  178.1070  138.3930 C   0  0  0  0  0  2  0  0  0  0  0  0
  188.2780  177.5440  141.8980 C   0  0  0  0  0  3  0  0  0  0  0  0
  188.4690  177.5030  140.6100 C   0  0  0  0  0  0  0  0  0  0  0  0
  188.6530  177.4640  139.3190 C   0  0  0  0  0  0  0  0  0  0  0  0
  189.7820  176.6750  138.7610 C   0  0  0  0  0  1  0  0  0  0  0  0
  187.5720  177.1420  144.8100 C   0  0  0  0  0  1  0  0  0  0  0  0
  189.0030  176.5930  142.8000 C   0  0  2  0  0  3  0  0  0  0  0  0
  188.9880  177.0340  144.2700 C   0  0  1  0  0  3  0  0  0  0  0  0
  191.5170  178.0910  144.1770 S   0  0  0  0  0  0  0  0  0  0  0  0
  191.2790  177.6370  142.4280 C   0  0  0  0  0  2  0  0  0  0  0  0
  190.4340  176.3710  142.3110 C   0  0  0  0  0  2  0  0  0  0  0  0
  189.7380  178.3430  144.4800 C   0  0  0  0  0  2  0  0  0  0  0  0
  1 15  1  6  0  0  0
  1 12  1  0  0  0  0
  1 10  1  0  0  0  0
  2  7  1  6  0  0  0
  2 16  1  0  0  0  0
  3 10  1  0  0  0  0
  3 21  1  0  0  0  0
  4  7  1  0  0  0  0
  5 13  1  0  0  0  0
  6 14  1  0  0  0  0
  8 16  1  0  0  0  0
 10  2  1  0  0  0  0
 11 18  1  0  0  0  0
 12  4  1  0  0  0  0
 13 19  1  0  0  0  0
 13  3  1  0  0  0  0
 14  5  1  0  0  0  0
 14 18  1  0  0  0  0
 18  9  1  0  0  0  0
 18 17  1  0  0  0  0
 19 17  1  0  0  0  0
 20  5  1  0  0  0  0
 21  8  1  0  0  0  0
 22 15  1  0  0  0  0
 22 13  1  0  0  0  0
 23 21  1  0  0  0  0
 23 26  1  0  0  0  0
 24 29  1  0  0  0  0
 25 24  2  0  0  0  0
 26 25  2  0  0  0  0
 27 26  1  0  0  0  0
 29 30  1  0  0  0  0
 30 34  1  0  0  0  0
 30 28  1  0  0  0  0
 31 34  1  0  0  0  0
 32 31  1  0  0  0  0
 33 32  1  0  0  0  0
 33 29  1  0  0  0  0
M  END
>  <MODEL>
2

>  <REMARK>
 VINA RESULT:      -6.9      2.787      6.135
  Name = 
  3 active torsions:
  status: ('A' for Active; 'I' for Inactive)
    1  A    between atoms: C_3  and  C_13
    2  A    between atoms: C_5  and  C_18
    3  A    between atoms: C_5  and  C_31
                            x       y       z     vdW  Elec       q    Type
                         _______ _______ _______ _____ _____    ______ ____

>  <TORSDO>
F 3

$$$$
=
 OpenBabel10262419143D

 34 38  0  0  1  0  0  0  0  0999 V2000
  182.6230  179.0030  142.7980 C   0  0  2  0  0  3  0  0  0  0  0  0
  184.9800  178.1500  142.8580 C   0  0  1  0  0  3  0  0  0  0  0  0
  183.7340  178.8330  140.6500 C   0  0  2  0  0  3  0  0  0  0  0  0
  183.7730  179.4130  144.6980 C   0  0  0  0  0  2  0  0  0  0  0  0
  182.2460  179.3090  138.6120 C   0  0  1  0  0  3  0  0  0  0  0  0
  181.1950  179.2200  136.4400 O   0  0  0  0  0  1  0  0  0  0  0  0
  185.0980  179.2630  143.9000 C   0  0  0  0  0  2  0  0  0  0  0  0
  186.2200  178.6830  140.7180 C   0  0  0  0  0  2  0  0  0  0  0  0
  182.4590  176.9380  136.3420 O   0  0  0  0  0  1  0  0  0  0  0  0
  183.6750  178.2220  142.0500 C   0  0  2  0  0  3  0  0  0  0  0  0
  180.5760  176.3180  137.4310 F   0  0  0  0  0  0  0  0  0  0  0  0
  182.6780  178.6860  144.1610 O   0  0  0  0  0  0  0  0  0  0  0  0
  182.3230  178.5890  139.9960 C   0  0  1  0  0  0  0  0  0  0  0  0
  181.2850  178.5750  137.6780 C   0  0  1  0  0  3  0  0  0  0  0  0
  181.3060  178.6550  142.1330 C   0  0  0  0  0  2  0  0  0  0  0  0
  186.2380  177.9080  142.0270 C   0  0  0  0  0  2  0  0  0  0  0  0
  182.5570  176.6460  138.6980 C   0  0  0  0  0  2  0  0  0  0  0  0
  181.7110  177.1040  137.5080 C   0  0  2  0  0  0  0  0  0  0  0  0
  182.0560  177.1860  139.9000 O   0  0  0  0  0  0  0  0  0  0  0  0
  181.9280  180.7970  138.7190 C   0  0  0  0  0  1  0  0  0  0  0  0
  184.9820  178.3280  139.8960 C   0  0  2  0  0  3  0  0  0  0  0  0
  181.3010  179.1740  140.8130 O   0  0  0  0  0  0  0  0  0  0  0  0
  185.1330  178.9820  138.5260 C   0  0  0  0  0  2  0  0  0  0  0  0
  185.6420  175.8080  136.9040 C   0  0  0  0  0  3  0  0  0  0  0  0
  185.8850  177.0290  137.2880 C   0  0  0  0  0  0  0  0  0  0  0  0
  186.1200  178.2530  137.6750 C   0  0  0  0  0  0  0  0  0  0  0  0
  187.3210  178.9660  137.1670 C   0  0  0  0  0  1  0  0  0  0  0  0
  184.6860  173.3980  135.3490 C   0  0  0  0  0  1  0  0  0  0  0  0
  186.3970  175.2140  135.7540 C   0  0  2  0  0  3  0  0  0  0  0  0
  186.1530  173.7070  135.5940 C   0  0  1  0  0  3  0  0  0  0  0  0
  188.4910  173.0030  136.8440 S   0  0  0  0  0  0  0  0  0  0  0  0
  188.5180  174.8100  137.0740 C   0  0  0  0  0  2  0  0  0  0  0  0
  187.8910  175.5160  135.8750 C   0  0  0  0  0  2  0  0  0  0  0  0
  186.6720  172.9160  136.7880 C   0  0  0  0  0  2  0  0  0  0  0  0
  1 15  1  6  0  0  0
  1 12  1  0  0  0  0
  2 16  1  6  0  0  0
  2  7  1  0  0  0  0
  3 10  1  0  0  0  0
  5 20  1  0  0  0  0
  5 13  1  0  0  0  0
  6 14  1  0  0  0  0
  7  4  1  0  0  0  0
  8 16  1  0  0  0  0
  9 18  1  0  0  0  0
 10  1  1  0  0  0  0
 10  2  1  0  0  0  0
 11 18  1  0  0  0  0
 12  4  1  0  0  0  0
 13  3  1  0  0  0  0
 13 22  1  0  0  0  0
 14  5  1  0  0  0  0
 17 19  1  0  0  0  0
 18 14  1  0  0  0  0
 18 17  1  0  0  0  0
 19 13  1  0  0  0  0
 21  3  1  0  0  0  0
 21  8  1  0  0  0  0
 22 15  1  0  0  0  0
 23 21  1  0  0  0  0
 24 25  2  0  0  0  0
 25 26  2  0  0  0  0
 26 23  1  0  0  0  0
 27 26  1  0  0  0  0
 28 30  1  0  0  0  0
 29 33  1  0  0  0  0
 29 24  1  0  0  0  0
 30 29  1  0  0  0  0
 30 34  1  0  0  0  0
 31 32  1  0  0  0  0
 33 32  1  0  0  0  0
 34 31  1  0  0  0  0
M  END
>  <MODEL>
3

>  <REMARK>
 VINA RESULT:      -6.7      5.069      8.941
  Name = 
  3 active torsions:
  status: ('A' for Active; 'I' for Inactive)
    1  A    between atoms: C_3  and  C_13
    2  A    between atoms: C_5  and  C_18
    3  A    between atoms: C_5  and  C_31
                            x       y       z     vdW  Elec       q    Type
                         _______ _______ _______ _____ _____    ______ ____

>  <TORSDO>
F 3

$$$$
=
 OpenBabel10262419143D

 34 38  0  0  1  0  0  0  0  0999 V2000
  185.9140  178.0060  144.7330 C   0  0  2  0  0  3  0  0  0  0  0  0
  185.2580  179.2850  142.6790 C   0  0  1  0  0  3  0  0  0  0  0  0
  187.4000  177.7750  142.8330 C   0  0  2  0  0  3  0  0  0  0  0  0
  183.7020  178.3840  144.4690 C   0  0  0  0  0  2  0  0  0  0  0  0
  189.5570  176.4590  143.2890 C   0  0  1  0  0  3  0  0  0  0  0  0
  191.8560  175.7220  143.3290 O   0  0  0  0  0  1  0  0  0  0  0  0
  183.9390  178.5590  142.9430 C   0  0  0  0  0  2  0  0  0  0  0  0
  186.4510  178.4230  140.6220 C   0  0  0  0  0  2  0  0  0  0  0  0
  192.2360  178.0850  142.2850 O   0  0  0  0  0  1  0  0  0  0  0  0
  186.4240  178.7330  143.5140 C   0  0  2  0  0  3  0  0  0  0  0  0
  192.2200  178.6050  144.4860 F   0  0  0  0  0  0  0  0  0  0  0  0
  184.8260  178.7010  145.2790 O   0  0  0  0  0  0  0  0  0  0  0  0
  188.5800  177.5420  143.8480 C   0  0  1  0  0  0  0  0  0  0  0  0
  190.9750  176.6960  143.8090 C   0  0  1  0  0  3  0  0  0  0  0  0
  187.1030  177.8860  145.6650 C   0  0  0  0  0  2  0  0  0  0  0  0
  185.5790  179.5240  141.2060 C   0  0  0  0  0  2  0  0  0  0  0  0
  190.2680  179.0450  143.2080 C   0  0  0  0  0  2  0  0  0  0  0  0
  191.4580  178.1120  143.4440 C   0  0  2  0  0  0  0  0  0  0  0  0
  189.2400  178.7800  144.1350 O   0  0  0  0  0  0  0  0  0  0  0  0
  189.0820  175.0300  143.5300 C   0  0  0  0  0  1  0  0  0  0  0  0
  187.7490  178.2800  141.4170 C   0  0  2  0  0  3  0  0  0  0  0  0
  188.0650  177.0240  145.0810 O   0  0  0  0  0  0  0  0  0  0  0  0
  188.6490  177.3080  140.6620 C   0  0  0  0  0  2  0  0  0  0  0  0
  187.7580  175.8770  137.4790 C   0  0  0  0  0  3  0  0  0  0  0  0
  188.2190  176.7450  138.3350 C   0  0  0  0  0  0  0  0  0  0  0  0
  188.6780  177.6090  139.1990 C   0  0  0  0  0  0  0  0  0  0  0  0
  189.1220  178.9480  138.7320 C   0  0  0  0  0  1  0  0  0  0  0  0
  185.2310  177.3790  136.7770 C   0  0  0  0  0  1  0  0  0  0  0  0
  187.4110  176.3040  136.0850 C   0  0  2  0  0  3  0  0  0  0  0  0
  185.8970  176.3820  135.8440 C   0  0  1  0  0  3  0  0  0  0  0  0
  185.7780  173.9440  134.5940 S   0  0  0  0  0  0  0  0  0  0  0  0
  187.5250  173.9700  135.1120 C   0  0  0  0  0  2  0  0  0  0  0  0
  188.0810  175.3900  135.0590 C   0  0  0  0  0  2  0  0  0  0  0  0
  185.2310  175.0170  135.9610 C   0  0  0  0  0  2  0  0  0  0  0  0
  1 12  1  0  0  0  0
  1 15  1  1  0  0  0
  2 16  1  6  0  0  0
  2  7  1  0  0  0  0
  2 10  1  0  0  0  0
  3 10  1  0  0  0  0
  3 13  1  0  0  0  0
  4 12  1  0  0  0  0
  5 20  1  0  0  0  0
  5 14  1  0  0  0  0
  5 13  1  0  0  0  0
  6 14  1  0  0  0  0
  7  4  1  0  0  0  0
  8 16  1  0  0  0  0
  8 21  1  0  0  0  0
  9 18  1  0  0  0  0
 10  1  1  0  0  0  0
 13 19  1  0  0  0  0
 13 22  1  0  0  0  0
 17 18  1  0  0  0  0
 17 19  1  0  0  0  0
 18 14  1  0  0  0  0
 18 11  1  0  0  0  0
 21  3  1  0  0  0  0
 22 15  1  0  0  0  0
 23 21  1  0  0  0  0
 24 25  2  0  0  0  0
 25 26  2  0  0  0  0
 26 23  1  0  0  0  0
 27 26  1  0  0  0  0
 29 24  1  0  0  0  0
 30 34  1  0  0  0  0
 30 29  1  0  0  0  0
 30 28  1  0  0  0  0
 31 32  1  0  0  0  0
 31 34  1  0  0  0  0
 33 32  1  0  0  0  0
 33 29  1  0  0  0  0
M  END
>  <MODEL>
4

>  <REMARK>
 VINA RESULT:      -5.9      4.768      8.857
  Name = 
  3 active torsions:
  status: ('A' for Active; 'I' for Inactive)
    1  A    between atoms: C_3  and  C_13
    2  A    between atoms: C_5  and  C_18
    3  A    between atoms: C_5  and  C_31
                            x       y       z     vdW  Elec       q    Type
                         _______ _______ _______ _____ _____    ______ ____

>  <TORSDO>
F 3

$$$$
=
 OpenBabel10262419143D

 34 38  0  0  1  0  0  0  0  0999 V2000
  185.7830  178.1680  144.6050 C   0  0  2  0  0  3  0  0  0  0  0  0
  185.1520  179.3150  142.4660 C   0  0  1  0  0  3  0  0  0  0  0  0
  187.2250  177.7230  142.7080 C   0  0  2  0  0  3  0  0  0  0  0  0
  183.5870  178.6280  144.3420 C   0  0  0  0  0  2  0  0  0  0  0  0
  189.3280  176.3470  143.2360 C   0  0  1  0  0  3  0  0  0  0  0  0
  191.5910  175.5080  143.3020 O   0  0  0  0  0  1  0  0  0  0  0  0
  183.8050  178.6740  142.8040 C   0  0  0  0  0  2  0  0  0  0  0  0
  186.2700  178.2430  140.4670 C   0  0  0  0  0  2  0  0  0  0  0  0
  192.0600  177.7640  142.0730 O   0  0  0  0  0  1  0  0  0  0  0  0
  186.3060  178.7750  143.3260 C   0  0  2  0  0  3  0  0  0  0  0  0
  192.1060  178.4520  144.2270 F   0  0  0  0  0  0  0  0  0  0  0  0
  184.7380  178.9530  145.1090 O   0  0  0  0  0  0  0  0  0  0  0  0
  188.4110  177.5140  143.7220 C   0  0  1  0  0  0  0  0  0  0  0  0
  190.7630  176.5560  143.7180 C   0  0  1  0  0  3  0  0  0  0  0  0
  186.9810  178.0650  145.5270 C   0  0  0  0  0  2  0  0  0  0  0  0
  185.4590  179.4260  140.9750 C   0  0  0  0  0  2  0  0  0  0  0  0
  190.1540  178.8830  142.9460 C   0  0  0  0  0  2  0  0  0  0  0  0
  191.3040  177.9160  143.2370 C   0  0  2  0  0  0  0  0  0  0  0  0
  189.1300  178.7380  143.9040 O   0  0  0  0  0  0  0  0  0  0  0  0
  188.7920  174.9640  143.5930 C   0  0  0  0  0  1  0  0  0  0  0  0
  187.5730  178.1020  141.2530 C   0  0  2  0  0  3  0  0  0  0  0  0
  187.8930  177.1160  144.9990 O   0  0  0  0  0  0  0  0  0  0  0  0
  188.4150  177.0330  140.5630 C   0  0  0  0  0  2  0  0  0  0  0  0
  191.3570  176.2460  138.6410 C   0  0  0  0  0  3  0  0  0  0  0  0
  190.3540  176.9410  139.0980 C   0  0  0  0  0  0  0  0  0  0  0  0
  189.3470  177.6310  139.5600 C   0  0  0  0  0  0  0  0  0  0  0  0
  189.0570  178.9740  138.9960 C   0  0  0  0  0  1  0  0  0  0  0  0
  189.9770  176.3630  135.9540 C   0  0  0  0  0  1  0  0  0  0  0  0
  192.0460  176.6580  137.3760 C   0  0  2  0  0  3  0  0  0  0  0  0
  191.4420  176.0020  136.1260 C   0  0  1  0  0  3  0  0  0  0  0  0
  193.3860  174.0730  135.9680 S   0  0  0  0  0  0  0  0  0  0  0  0
  193.8510  174.8910  137.5280 C   0  0  0  0  0  2  0  0  0  0  0  0
  193.5470  176.3850  137.4650 C   0  0  0  0  0  2  0  0  0  0  0  0
  191.6200  174.4890  136.1350 C   0  0  0  0  0  2  0  0  0  0  0  0
  1 12  1  0  0  0  0
  1 15  1  1  0  0  0
  2 16  1  6  0  0  0
  2  7  1  0  0  0  0
  2 10  1  0  0  0  0
  3 10  1  0  0  0  0
  3 13  1  0  0  0  0
  4 12  1  0  0  0  0
  5 20  1  0  0  0  0
  5 14  1  0  0  0  0
  5 13  1  0  0  0  0
  6 14  1  0  0  0  0
  7  4  1  0  0  0  0
  8 16  1  0  0  0  0
  8 21  1  0  0  0  0
  9 18  1  0  0  0  0
 10  1  1  0  0  0  0
 13 19  1  0  0  0  0
 13 22  1  0  0  0  0
 17 18  1  0  0  0  0
 17 19  1  0  0  0  0
 18 14  1  0  0  0  0
 18 11  1  0  0  0  0
 21  3  1  0  0  0  0
 22 15  1  0  0  0  0
 23 21  1  0  0  0  0
 24 25  2  0  0  0  0
 25 26  2  0  0  0  0
 26 23  1  0  0  0  0
 27 26  1  0  0  0  0
 28 30  1  0  0  0  0
 29 33  1  0  0  0  0
 29 24  1  0  0  0  0
 30 34  1  0  0  0  0
 30 29  1  0  0  0  0
 31 34  1  0  0  0  0
 31 32  1  0  0  0  0
 33 32  1  0  0  0  0
M  END
>  <MODEL>
5

>  <REMARK>
 VINA RESULT:      -5.6      4.278      8.417
  Name = 
  3 active torsions:
  status: ('A' for Active; 'I' for Inactive)
    1  A    between atoms: C_3  and  C_13
    2  A    between atoms: C_5  and  C_18
    3  A    between atoms: C_5  and  C_31
                            x       y       z     vdW  Elec       q    Type
                         _______ _______ _______ _____ _____    ______ ____

>  <TORSDO>
F 3

$$$$
=
 OpenBabel10262419143D

 34 38  0  0  1  0  0  0  0  0999 V2000
  183.3540  177.2620  136.9550 C   0  0  2  0  0  3  0  0  0  0  0  0
  185.4360  178.2400  137.9550 C   0  0  1  0  0  3  0  0  0  0  0  0
  183.2740  177.6890  139.3400 C   0  0  2  0  0  3  0  0  0  0  0  0
  185.2890  176.7490  135.9070 C   0  0  0  0  0  2  0  0  0  0  0  0
  180.9840  177.3130  140.4380 C   0  0  1  0  0  3  0  0  0  0  0  0
  179.0060  177.5370  141.8050 O   0  0  0  0  0  1  0  0  0  0  0  0
  186.0550  177.0470  137.2260 C   0  0  0  0  0  2  0  0  0  0  0  0
  185.4760  177.9760  140.4700 C   0  0  0  0  0  2  0  0  0  0  0  0
  180.0460  179.8880  142.2590 O   0  0  0  0  0  1  0  0  0  0  0  0
  183.9020  178.1670  138.0310 C   0  0  2  0  0  3  0  0  0  0  0  0
  178.9310  180.2970  140.3340 F   0  0  0  0  0  0  0  0  0  0  0  0
  184.0660  177.4570  135.7640 O   0  0  0  0  0  0  0  0  0  0  0  0
  181.7220  177.9080  139.1980 C   0  0  1  0  0  0  0  0  0  0  0  0
  179.6850  178.0720  140.7050 C   0  0  1  0  0  3  0  0  0  0  0  0
  181.8780  177.5920  136.8570 C   0  0  0  0  0  2  0  0  0  0  0  0
  186.1260  178.6290  139.2600 C   0  0  0  0  0  2  0  0  0  0  0  0
  181.2800  179.9720  140.2300 C   0  0  0  0  0  2  0  0  0  0  0  0
  179.9640  179.5740  140.9010 C   0  0  2  0  0  0  0  0  0  0  0  0
  181.4330  179.2970  139.0020 O   0  0  0  0  0  0  0  0  0  0  0  0
  180.7680  175.8060  140.3510 C   0  0  0  0  0  1  0  0  0  0  0  0
  183.9910  178.3310  140.5460 C   0  0  2  0  0  3  0  0  0  0  0  0
  181.2330  177.1940  138.0550 O   0  0  0  0  0  0  0  0  0  0  0  0
  183.4590  177.8130  141.8780 C   0  0  0  0  0  2  0  0  0  0  0  0
  186.3900  177.7030  143.9670 C   0  0  0  0  0  3  0  0  0  0  0  0
  185.2430  178.1110  143.5040 C   0  0  0  0  0  0  0  0  0  0  0  0
  184.0950  178.5150  143.0340 C   0  0  0  0  0  0  0  0  0  0  0  0
  183.4740  179.7520  143.5740 C   0  0  0  0  0  1  0  0  0  0  0  0
  189.3750  178.0500  143.6350 C   0  0  0  0  0  1  0  0  0  0  0  0
  187.2190  178.6040  144.8320 C   0  0  2  0  0  3  0  0  0  0  0  0
  188.6690  178.1230  144.9780 C   0  0  1  0  0  3  0  0  0  0  0  0
  188.2440  176.9820  147.4360 S   0  0  0  0  0  0  0  0  0  0  0  0
  186.5480  177.4920  147.0050 C   0  0  0  0  0  2  0  0  0  0  0  0
  186.5640  178.7890  146.2010 C   0  0  0  0  0  2  0  0  0  0  0  0
  188.7550  176.7830  145.6980 C   0  0  0  0  0  2  0  0  0  0  0  0
  1 15  1  6  0  0  0
  1 10  1  0  0  0  0
  2  7  1  1  0  0  0
  2 10  1  0  0  0  0
  2 16  1  0  0  0  0
  3 21  1  0  0  0  0
  4  7  1  0  0  0  0
  5 14  1  0  0  0  0
  8 21  1  0  0  0  0
 10  3  1  0  0  0  0
 11 18  1  0  0  0  0
 12  4  1  0  0  0  0
 12  1  1  0  0  0  0
 13  3  1  0  0  0  0
 13  5  1  0  0  0  0
 14 18  1  0  0  0  0
 14  6  1  0  0  0  0
 15 22  1  0  0  0  0
 16  8  1  0  0  0  0
 17 18  1  0  0  0  0
 18  9  1  0  0  0  0
 19 13  1  0  0  0  0
 19 17  1  0  0  0  0
 20  5  1  0  0  0  0
 21 23  1  0  0  0  0
 22 13  1  0  0  0  0
 23 26  1  0  0  0  0
 24 29  1  0  0  0  0
 25 24  2  0  0  0  0
 26 25  2  0  0  0  0
 26 27  1  0  0  0  0
 28 30  1  0  0  0  0
 29 30  1  0  0  0  0
 29 33  1  0  0  0  0
 30 34  1  0  0  0  0
 32 31  1  0  0  0  0
 33 32  1  0  0  0  0
 34 31  1  0  0  0  0
M  END
>  <MODEL>
6

>  <REMARK>
 VINA RESULT:      -5.6      4.968      6.989
  Name = 
  3 active torsions:
  status: ('A' for Active; 'I' for Inactive)
    1  A    between atoms: C_3  and  C_13
    2  A    between atoms: C_5  and  C_18
    3  A    between atoms: C_5  and  C_31
                            x       y       z     vdW  Elec       q    Type
                         _______ _______ _______ _____ _____    ______ ____

>  <TORSDO>
F 3

$$$$
=
 OpenBabel10262419143D

 34 38  0  0  1  0  0  0  0  0999 V2000
  188.9460  177.2920  141.0770 C   0  0  2  0  0  3  0  0  0  0  0  0
  187.0760  178.8540  141.6690 C   0  0  1  0  0  3  0  0  0  0  0  0
  187.1880  177.5000  139.4220 C   0  0  2  0  0  3  0  0  0  0  0  0
  188.5330  177.5470  143.2840 C   0  0  0  0  0  2  0  0  0  0  0  0
  187.6300  176.2870  137.2030 C   0  0  1  0  0  3  0  0  0  0  0  0
  187.7710  175.7240  134.8590 O   0  0  0  0  0  1  0  0  0  0  0  0
  187.0870  177.9990  142.9360 C   0  0  0  0  0  2  0  0  0  0  0  0
  185.0320  178.4470  140.2360 C   0  0  0  0  0  2  0  0  0  0  0  0
  187.1720  178.2520  134.6040 O   0  0  0  0  0  1  0  0  0  0  0  0
  187.9190  178.2530  140.5320 C   0  0  2  0  0  3  0  0  0  0  0  0
  189.4170  178.3840  134.8500 F   0  0  0  0  0  0  0  0  0  0  0  0
  189.4890  177.8010  142.2640 O   0  0  0  0  0  0  0  0  0  0  0  0
  188.2610  177.1830  138.3150 C   0  0  1  0  0  0  0  0  0  0  0  0
  188.3170  176.5340  135.8610 C   0  0  1  0  0  3  0  0  0  0  0  0
  189.9570  177.1010  139.9640 C   0  0  0  0  0  2  0  0  0  0  0  0
  185.7010  179.3660  141.2480 C   0  0  0  0  0  2  0  0  0  0  0  0
  188.0450  178.8940  136.7200 C   0  0  0  0  0  2  0  0  0  0  0  0
  188.2390  178.0230  135.4760 C   0  0  2  0  0  0  0  0  0  0  0  0
  188.8110  178.3980  137.7940 O   0  0  0  0  0  0  0  0  0  0  0  0
  187.5850  174.8070  137.5680 C   0  0  0  0  0  1  0  0  0  0  0  0
  185.9150  178.2660  139.0020 C   0  0  2  0  0  3  0  0  0  0  0  0
  189.3360  176.4240  138.8840 O   0  0  0  0  0  0  0  0  0  0  0  0
  185.1020  177.5060  137.9590 C   0  0  0  0  0  2  0  0  0  0  0  0
  182.1390  179.5480  138.1030 C   0  0  0  0  0  3  0  0  0  0  0  0
  182.8940  178.4930  138.2190 C   0  0  0  0  0  0  0  0  0  0  0  0
  183.6560  177.4390  138.3310 C   0  0  0  0  0  0  0  0  0  0  0  0
  183.0560  176.1360  138.7170 C   0  0  0  0  0  1  0  0  0  0  0  0
  180.3280  181.2810  136.4140 C   0  0  0  0  0  1  0  0  0  0  0  0
  180.6470  179.4100  138.0820 C   0  0  2  0  0  3  0  0  0  0  0  0
  179.9290  180.7310  137.7720 C   0  0  1  0  0  3  0  0  0  0  0  0
  179.3450  181.2520  140.4000 S   0  0  0  0  0  0  0  0  0  0  0  0
  180.3640  179.7510  140.5740 C   0  0  0  0  0  2  0  0  0  0  0  0
  180.1420  178.8100  139.3940 C   0  0  0  0  0  2  0  0  0  0  0  0
  180.1610  181.7740  138.8570 C   0  0  0  0  0  2  0  0  0  0  0  0
  1 15  1  6  0  0  0
  1 12  1  0  0  0  0
  2 16  1  6  0  0  0
  2  7  1  0  0  0  0
  3 10  1  0  0  0  0
  5 20  1  0  0  0  0
  5 13  1  0  0  0  0
  6 14  1  0  0  0  0
  7  4  1  0  0  0  0
  8 16  1  0  0  0  0
  9 18  1  0  0  0  0
 10  1  1  0  0  0  0
 10  2  1  0  0  0  0
 11 18  1  0  0  0  0
 12  4  1  0  0  0  0
 13 22  1  0  0  0  0
 13  3  1  0  0  0  0
 14  5  1  0  0  0  0
 17 19  1  0  0  0  0
 18 14  1  0  0  0  0
 18 17  1  0  0  0  0
 19 13  1  0  0  0  0
 21  3  1  0  0  0  0
 21  8  1  0  0  0  0
 22 15  1  0  0  0  0
 23 26  1  0  0  0  0
 23 21  1  0  0  0  0
 24 25  2  0  0  0  0
 25 26  2  0  0  0  0
 26 27  1  0  0  0  0
 28 30  1  0  0  0  0
 29 24  1  0  0  0  0
 29 33  1  0  0  0  0
 30 29  1  0  0  0  0
 30 34  1  0  0  0  0
 31 32  1  0  0  0  0
 33 32  1  0  0  0  0
 34 31  1  0  0  0  0
M  END
>  <MODEL>
7

>  <REMARK>
 VINA RESULT:      -5.6      4.662      7.472
  Name = 
  3 active torsions:
  status: ('A' for Active; 'I' for Inactive)
    1  A    between atoms: C_3  and  C_13
    2  A    between atoms: C_5  and  C_18
    3  A    between atoms: C_5  and  C_31
                            x       y       z     vdW  Elec       q    Type
                         _______ _______ _______ _____ _____    ______ ____

>  <TORSDO>
F 3

$$$$
=
 OpenBabel10262419143D

 34 38  0  0  1  0  0  0  0  0999 V2000
  189.3620  173.4700  135.4800 C   0  0  2  0  0  3  0  0  0  0  0  0
  187.3280  172.4510  136.5360 C   0  0  1  0  0  3  0  0  0  0  0  0
  187.8040  175.0330  136.4830 C   0  0  2  0  0  3  0  0  0  0  0  0
  188.6710  171.5070  134.6010 C   0  0  0  0  0  2  0  0  0  0  0  0
  188.5940  177.4750  136.5380 C   0  0  1  0  0  3  0  0  0  0  0  0
  189.0550  179.7460  137.2190 O   0  0  0  0  0  1  0  0  0  0  0  0
  187.2480  171.7840  135.1620 C   0  0  0  0  0  2  0  0  0  0  0  0
  185.5050  174.1670  136.8940 C   0  0  0  0  0  2  0  0  0  0  0  0
  188.3130  178.8000  139.5360 O   0  0  0  0  0  1  0  0  0  0  0  0
  188.3420  173.6060  136.5830 C   0  0  2  0  0  3  0  0  0  0  0  0
  190.4960  178.2120  139.5330 F   0  0  0  0  0  0  0  0  0  0  0  0
  189.7220  172.1240  135.3310 O   0  0  0  0  0  0  0  0  0  0  0  0
  189.0220  175.9900  136.7620 C   0  0  1  0  0  0  0  0  0  0  0  0
  189.4180  178.4100  137.4220 C   0  0  1  0  0  3  0  0  0  0  0  0
  190.5100  174.3790  135.8720 C   0  0  0  0  0  2  0  0  0  0  0  0
  185.9800  172.7520  137.1860 C   0  0  0  0  0  2  0  0  0  0  0  0
  188.8780  176.5460  139.0390 C   0  0  0  0  0  2  0  0  0  0  0  0
  189.2800  178.0170  138.9050 C   0  0  2  0  0  0  0  0  0  0  0  0
  189.5420  175.7610  138.0760 O   0  0  0  0  0  0  0  0  0  0  0  0
  188.6110  177.8990  135.0730 C   0  0  0  0  0  1  0  0  0  0  0  0
  186.5400  175.1930  137.3530 C   0  0  2  0  0  3  0  0  0  0  0  0
  190.0730  175.7270  135.8230 O   0  0  0  0  0  0  0  0  0  0  0  0
  185.9140  176.5770  137.2130 C   0  0  0  0  0  2  0  0  0  0  0  0
  182.6240  176.1210  138.6060 C   0  0  0  0  0  3  0  0  0  0  0  0
  183.5470  176.3060  137.7060 C   0  0  0  0  0  0  0  0  0  0  0  0
  184.4780  176.4920  136.8090 C   0  0  0  0  0  0  0  0  0  0  0  0
  184.0950  176.7400  135.3950 C   0  0  0  0  0  1  0  0  0  0  0  0
  180.7590  177.5170  140.5320 C   0  0  0  0  0  1  0  0  0  0  0  0
  181.1920  176.4280  138.2920 C   0  0  2  0  0  3  0  0  0  0  0  0
  180.3000  176.4600  139.5420 C   0  0  1  0  0  3  0  0  0  0  0  0
  179.3250  173.9280  139.1440 S   0  0  0  0  0  0  0  0  0  0  0  0
  180.5590  174.0260  137.8060 C   0  0  0  0  0  2  0  0  0  0  0  0
  180.6440  175.4470  137.2560 C   0  0  0  0  0  2  0  0  0  0  0  0
  180.2180  175.0980  140.2180 C   0  0  0  0  0  2  0  0  0  0  0  0
  1 15  1  1  0  0  0
  1 10  1  0  0  0  0
  2  7  1  6  0  0  0
  2 10  1  0  0  0  0
  2 16  1  0  0  0  0
  3 10  1  0  0  0  0
  3 13  1  0  0  0  0
  3 21  1  0  0  0  0
  4  7  1  0  0  0  0
  4 12  1  0  0  0  0
  5 13  1  0  0  0  0
  5 14  1  0  0  0  0
  6 14  1  0  0  0  0
  8 16  1  0  0  0  0
  8 21  1  0  0  0  0
 12  1  1  0  0  0  0
 13 19  1  0  0  0  0
 14 18  1  0  0  0  0
 18 17  1  0  0  0  0
 18 11  1  0  0  0  0
 18  9  1  0  0  0  0
 19 17  1  0  0  0  0
 20  5  1  0  0  0  0
 22 15  1  0  0  0  0
 22 13  1  0  0  0  0
 23 21  1  0  0  0  0
 25 24  2  0  0  0  0
 26 23  1  0  0  0  0
 26 25  2  0  0  0  0
 27 26  1  0  0  0  0
 29 24  1  0  0  0  0
 29 30  1  0  0  0  0
 30 34  1  0  0  0  0
 30 28  1  0  0  0  0
 31 34  1  0  0  0  0
 32 31  1  0  0  0  0
 33 32  1  0  0  0  0
 33 29  1  0  0  0  0
M  END
>  <MODEL>
8

>  <REMARK>
 VINA RESULT:      -5.5      4.516      7.241
  Name = 
  3 active torsions:
  status: ('A' for Active; 'I' for Inactive)
    1  A    between atoms: C_3  and  C_13
    2  A    between atoms: C_5  and  C_18
    3  A    between atoms: C_5  and  C_31
                            x       y       z     vdW  Elec       q    Type
                         _______ _______ _______ _____ _____    ______ ____

>  <TORSDO>
F 3

$$$$
=
 OpenBabel10262419143D

 34 38  0  0  1  0  0  0  0  0999 V2000
  190.9980  174.2440  135.4800 C   0  0  2  0  0  3  0  0  0  0  0  0
  189.4060  172.3980  136.0640 C   0  0  1  0  0  3  0  0  0  0  0  0
  188.7230  174.9310  135.9530 C   0  0  2  0  0  3  0  0  0  0  0  0
  191.4660  172.2190  134.5940 C   0  0  0  0  0  2  0  0  0  0  0  0
  188.3450  177.4690  136.0350 C   0  0  1  0  0  3  0  0  0  0  0  0
  187.5970  179.6810  136.6500 O   0  0  0  0  0  1  0  0  0  0  0  0
  189.9710  171.8270  134.7640 C   0  0  0  0  0  2  0  0  0  0  0  0
  186.9970  173.1380  135.8380 C   0  0  0  0  0  2  0  0  0  0  0  0
  186.7710  178.4000  138.7700 O   0  0  0  0  0  1  0  0  0  0  0  0
  189.7760  173.8740  136.2820 C   0  0  2  0  0  3  0  0  0  0  0  0
  188.9170  178.8150  139.3500 F   0  0  0  0  0  0  0  0  0  0  0  0
  191.9260  173.1950  135.5180 O   0  0  0  0  0  0  0  0  0  0  0  0
  189.2960  176.3070  136.4590 C   0  0  1  0  0  0  0  0  0  0  0  0
  188.4330  178.6260  137.0290 C   0  0  1  0  0  3  0  0  0  0  0  0
  191.5040  175.5410  136.0800 C   0  0  0  0  0  2  0  0  0  0  0  0
  187.9430  172.0560  136.3370 C   0  0  0  0  0  2  0  0  0  0  0  0
  188.3550  176.6380  138.5850 C   0  0  0  0  0  2  0  0  0  0  0  0
  188.1060  178.1430  138.4540 C   0  0  2  0  0  0  0  0  0  0  0  0
  189.5130  176.2640  137.8740 O   0  0  0  0  0  0  0  0  0  0  0  0
  188.5490  177.9260  134.5940 C   0  0  0  0  0  1  0  0  0  0  0  0
  187.3380  174.4880  136.4690 C   0  0  2  0  0  3  0  0  0  0  0  0
  190.5590  176.5680  135.8310 O   0  0  0  0  0  0  0  0  0  0  0  0
  186.2360  175.4690  136.0820 C   0  0  0  0  0  2  0  0  0  0  0  0
  183.5820  177.4700  137.4690 C   0  0  0  0  0  3  0  0  0  0  0  0
  184.3220  176.4220  137.2420 C   0  0  0  0  0  0  0  0  0  0  0  0
  185.0670  175.3770  137.0080 C   0  0  0  0  0  0  0  0  0  0  0  0
  184.6800  174.0580  137.5730 C   0  0  0  0  0  1  0  0  0  0  0  0
  181.3010  179.3690  136.8990 C   0  0  0  0  0  1  0  0  0  0  0  0
  182.2110  177.3140  138.0530 C   0  0  2  0  0  3  0  0  0  0  0  0
  181.4790  178.6520  138.2250 C   0  0  1  0  0  3  0  0  0  0  0  0
  182.0550  178.8400  140.9010 S   0  0  0  0  0  0  0  0  0  0  0  0
  182.9980  177.3450  140.4590 C   0  0  0  0  0  2  0  0  0  0  0  0
  182.2720  176.5500  139.3760 C   0  0  0  0  0  2  0  0  0  0  0  0
  182.1780  179.5590  139.2310 C   0  0  0  0  0  2  0  0  0  0  0  0
  1 12  1  0  0  0  0
  1 15  1  1  0  0  0
  1 10  1  0  0  0  0
  2  7  1  6  0  0  0
  2 10  1  0  0  0  0
  2 16  1  0  0  0  0
  3 10  1  0  0  0  0
  3 13  1  0  0  0  0
  3 21  1  0  0  0  0
  4  7  1  0  0  0  0
  4 12  1  0  0  0  0
  5 13  1  0  0  0  0
  5 14  1  0  0  0  0
  6 14  1  0  0  0  0
  8 16  1  0  0  0  0
  8 21  1  0  0  0  0
 13 19  1  0  0  0  0
 14 18  1  0  0  0  0
 18 17  1  0  0  0  0
 18  9  1  0  0  0  0
 18 11  1  0  0  0  0
 19 17  1  0  0  0  0
 20  5  1  0  0  0  0
 22 15  1  0  0  0  0
 22 13  1  0  0  0  0
 23 21  1  0  0  0  0
 23 26  1  0  0  0  0
 24 29  1  0  0  0  0
 25 24  2  0  0  0  0
 26 25  2  0  0  0  0
 26 27  1  0  0  0  0
 28 30  1  0  0  0  0
 29 30  1  0  0  0  0
 29 33  1  0  0  0  0
 30 34  1  0  0  0  0
 32 31  1  0  0  0  0
 33 32  1  0  0  0  0
 34 31  1  0  0  0  0
M  END
>  <MODEL>
9

>  <REMARK>
 VINA RESULT:      -5.5      4.231      6.349
  Name = 
  3 active torsions:
  status: ('A' for Active; 'I' for Inactive)
    1  A    between atoms: C_3  and  C_13
    2  A    between atoms: C_5  and  C_18
    3  A    between atoms: C_5  and  C_31
                            x       y       z     vdW  Elec       q    Type
                         _______ _______ _______ _____ _____    ______ ____

>  <TORSDO>
F 3

$$$$
