=
 OpenBabel10252414513D

 34 39  0  0  1  0  0  0  0  0999 V2000
  182.8020  178.0750  139.5290 C   0  0  1  0  0  3  0  0  0  0  0  0
  184.3530  178.3690  141.4840 C   0  0  1  0  0  3  0  0  0  0  0  0
  185.1920  178.0450  139.1290 C   0  0  1  0  0  3  0  0  0  0  0  0
  187.7340  178.6100  137.3330 C   0  0  0  0  0  2  0  0  0  0  0  0
  181.1000  178.6930  138.4330 C   0  0  0  0  0  2  0  0  0  0  0  0
  183.3560  178.9170  142.2910 O   0  0  0  0  0  1  0  0  0  0  0  0
  186.7920  178.3150  141.0390 C   0  0  0  0  0  2  0  0  0  0  0  0
  184.0880  178.6910  140.0140 C   0  0  1  0  0  3  0  0  0  0  0  0
  187.7400  177.9940  138.7180 C   0  0  2  0  0  3  0  0  0  0  0  0
  181.3910  178.4560  139.9190 C   0  0  0  0  0  2  0  0  0  0  0  0
  184.8620  178.0810  137.5780 C   0  0  1  0  0  3  0  0  0  0  0  0
  182.5940  178.7070  138.1960 C   0  0  2  0  0  3  0  0  0  0  0  0
  185.6980  178.9510  141.8810 C   0  0  0  0  0  2  0  0  0  0  0  0
  187.0960  177.6780  136.3140 C   0  0  0  0  0  2  0  0  0  0  0  0
  185.7220  177.1430  136.7150 C   0  0  1  0  0  3  0  0  0  0  0  0
  186.5770  178.5850  139.5430 C   0  0  1  0  0  3  0  0  0  0  0  0
  183.3660  177.8370  137.2420 C   0  0  0  0  0  2  0  0  0  0  0  0
  186.8840  173.5460  137.3120 C   0  0  0  0  0  0  0  0  0  0  0  0
  185.6700  172.9350  137.6380 C   0  0  0  0  0  3  0  0  0  0  0  0
  185.7410  175.6790  137.0680 C   0  0  0  0  0  0  0  0  0  0  0  0
  184.4970  173.6860  137.6690 C   0  0  0  0  0  3  0  0  0  0  0  0
  186.9180  174.9140  137.0260 C   0  0  0  0  0  3  0  0  0  0  0  0
  184.5290  175.0550  137.3830 C   0  0  0  0  0  3  0  0  0  0  0  0
  188.0300  172.8220  137.3070 F   0  0  0  0  0  0  0  0  0  0  0  0
  189.0350  178.2730  139.3330 N   0  0  0  0  0  2  0  0  0  0  0  0
  189.6760  176.9910  139.5720 C   0  0  0  0  0  2  0  0  0  0  0  0
  190.7770  177.1320  140.6110 C   0  0  0  0  0  2  0  0  0  0  0  0
  190.3350  175.2330  142.8370 O   0  0  0  0  0  1  0  0  0  0  0  0
  190.2150  177.4880  141.9820 C   0  0  1  0  0  3  0  0  0  0  0  0
  189.4680  176.3100  142.6330 C   0  0  2  0  0  3  0  0  0  0  0  0
  189.4950  177.9320  144.6300 C   0  0  0  0  0  2  0  0  0  0  0  0
  191.0000  177.9220  144.3890 C   0  0  0  0  0  2  0  0  0  0  0  0
  191.3230  178.0490  142.8930 C   0  0  0  0  0  2  0  0  0  0  0  0
  188.8250  176.7160  143.9730 C   0  0  0  0  0  2  0  0  0  0  0  0
  1 10  1  1  0  0  0
  1  8  1  0  0  0  0
  2 13  1  0  0  0  0
  2  6  1  1  0  0  0
  3 16  1  0  0  0  0
  3  8  1  0  0  0  0
  4  9  1  0  0  0  0
  5 10  1  0  0  0  0
  7 13  1  0  0  0  0
  8  2  1  0  0  0  0
  9 25  1  0  0  0  0
  9 16  1  0  0  0  0
 11  3  1  0  0  0  0
 12  5  1  0  0  0  0
 12  1  1  0  0  0  0
 14 15  1  0  0  0  0
 14  4  1  0  0  0  0
 15 20  1  0  0  0  0
 15 11  1  0  0  0  0
 16  7  1  0  0  0  0
 17 11  1  0  0  0  0
 17 12  1  0  0  0  0
 18 19  1  0  0  0  0
 19 21  2  0  0  0  0
 20 23  2  0  0  0  0
 22 20  1  0  0  0  0
 22 18  2  0  0  0  0
 23 21  1  0  0  0  0
 24 18  1  0  0  0  0
 25 26  1  0  0  0  0
 26 27  1  0  0  0  0
 27 29  1  0  0  0  0
 29 30  1  0  0  0  0
 29 33  1  0  0  0  0
 30 28  1  0  0  0  0
 30 34  1  0  0  0  0
 32 31  1  0  0  0  0
 33 32  1  0  0  0  0
 34 31  1  0  0  0  0
M  END
>  <MODEL>
1

>  <REMARK>
 VINA RESULT:      -7.8      0.000      0.000
  Name = 
  5 active torsions:
  status: ('A' for Active; 'I' for Inactive)
    1  A    between atoms: C_3  and  C_13
    2  A    between atoms: C_3  and  C_17
    3  A    between atoms: C_12  and  C_28
    4  A    between atoms: C_17  and  N_29
    5  A    between atoms: C_18  and  N_29
                            x       y       z     vdW  Elec       q    Type
                         _______ _______ _______ _____ _____    ______ ____

>  <TORSDO>
F 5

$$$$
=
 OpenBabel10252414513D

 34 39  0  0  1  0  0  0  0  0999 V2000
  192.0910  174.7990  137.7280 C   0  0  1  0  0  3  0  0  0  0  0  0
  190.1750  173.4060  136.8900 C   0  0  1  0  0  3  0  0  0  0  0  0
  189.8690  175.7660  137.7230 C   0  0  1  0  0  3  0  0  0  0  0  0
  187.8870  178.2170  137.4690 C   0  0  0  0  0  2  0  0  0  0  0  0
  194.0570  175.5430  137.4850 C   0  0  0  0  0  2  0  0  0  0  0  0
  191.0140  172.5170  136.2190 O   0  0  0  0  0  1  0  0  0  0  0  0
  187.9120  174.4230  136.9160 C   0  0  0  0  0  2  0  0  0  0  0  0
  190.8040  174.7970  136.9440 C   0  0  1  0  0  3  0  0  0  0  0  0
  187.4940  176.7780  137.7320 C   0  0  2  0  0  3  0  0  0  0  0  0
  193.4080  174.1620  137.3410 C   0  0  0  0  0  2  0  0  0  0  0  0
  190.5480  177.1540  138.0780 C   0  0  1  0  0  3  0  0  0  0  0  0
  192.6680  176.1420  137.4470 C   0  0  2  0  0  3  0  0  0  0  0  0
  188.8480  173.4950  136.1580 C   0  0  0  0  0  2  0  0  0  0  0  0
  188.6340  178.8150  138.6510 C   0  0  0  0  0  2  0  0  0  0  0  0
  189.8110  177.9760  139.1480 C   0  0  1  0  0  3  0  0  0  0  0  0
  188.4940  175.8390  137.0250 C   0  0  1  0  0  3  0  0  0  0  0  0
  192.0450  177.0440  138.4760 C   0  0  0  0  0  2  0  0  0  0  0  0
  188.1420  176.8970  142.4180 C   0  0  0  0  0  0  0  0  0  0  0  0
  189.1800  176.1720  143.0080 C   0  0  0  0  0  3  0  0  0  0  0  0
  189.5500  177.3280  140.4810 C   0  0  0  0  0  0  0  0  0  0  0  0
  190.3990  176.0330  142.3470 C   0  0  0  0  0  3  0  0  0  0  0  0
  188.3270  177.4740  141.1580 C   0  0  0  0  0  3  0  0  0  0  0  0
  190.5860  176.6100  141.0870 C   0  0  0  0  0  3  0  0  0  0  0  0
  186.9480  177.0110  143.0490 F   0  0  0  0  0  0  0  0  0  0  0  0
  186.1320  176.5820  137.2450 N   0  0  0  0  0  2  0  0  0  0  0  0
  185.4390  177.8500  137.3980 C   0  0  0  0  0  2  0  0  0  0  0  0
  184.0760  177.6370  138.0370 C   0  0  0  0  0  2  0  0  0  0  0  0
  184.4120  180.2210  139.4410 O   0  0  0  0  0  1  0  0  0  0  0  0
  184.1270  177.8250  139.5480 C   0  0  1  0  0  3  0  0  0  0  0  0
  184.9670  179.0470  139.9600 C   0  0  2  0  0  3  0  0  0  0  0  0
  183.9550  178.4580  142.2500 C   0  0  0  0  0  2  0  0  0  0  0  0
  182.6350  178.5800  141.4980 C   0  0  0  0  0  2  0  0  0  0  0  0
  182.7040  177.8730  140.1360 C   0  0  0  0  0  2  0  0  0  0  0  0
  185.0880  179.1660  141.4910 C   0  0  0  0  0  2  0  0  0  0  0  0
  1 10  1  6  0  0  0
  2  6  1  6  0  0  0
  2  8  1  0  0  0  0
  3 11  1  0  0  0  0
  4  9  1  0  0  0  0
  4 14  1  0  0  0  0
  7 16  1  0  0  0  0
  8  3  1  0  0  0  0
  8  1  1  0  0  0  0
 10  5  1  0  0  0  0
 11 17  1  0  0  0  0
 11 15  1  0  0  0  0
 12  5  1  0  0  0  0
 12  1  1  0  0  0  0
 12 17  1  0  0  0  0
 13  2  1  0  0  0  0
 13  7  1  0  0  0  0
 14 15  1  0  0  0  0
 15 20  1  0  0  0  0
 16  3  1  0  0  0  0
 16  9  1  0  0  0  0
 18 19  1  0  0  0  0
 18 24  1  0  0  0  0
 20 23  2  0  0  0  0
 20 22  1  0  0  0  0
 21 19  2  0  0  0  0
 22 18  2  0  0  0  0
 23 21  1  0  0  0  0
 25 26  1  0  0  0  0
 25  9  1  0  0  0  0
 26 27  1  0  0  0  0
 27 29  1  0  0  0  0
 28 30  1  0  0  0  0
 29 30  1  0  0  0  0
 29 33  1  0  0  0  0
 30 34  1  0  0  0  0
 32 31  1  0  0  0  0
 33 32  1  0  0  0  0
 34 31  1  0  0  0  0
M  END
>  <MODEL>
2

>  <REMARK>
 VINA RESULT:      -7.7      2.854      7.509
  Name = 
  5 active torsions:
  status: ('A' for Active; 'I' for Inactive)
    1  A    between atoms: C_3  and  C_13
    2  A    between atoms: C_3  and  C_17
    3  A    between atoms: C_12  and  C_28
    4  A    between atoms: C_17  and  N_29
    5  A    between atoms: C_18  and  N_29
                            x       y       z     vdW  Elec       q    Type
                         _______ _______ _______ _____ _____    ______ ____

>  <TORSDO>
F 5

$$$$
=
 OpenBabel10252414513D

 34 39  0  0  1  0  0  0  0  0999 V2000
  181.9070  175.9430  137.2480 C   0  0  1  0  0  3  0  0  0  0  0  0
  184.2020  176.7730  136.6470 C   0  0  1  0  0  3  0  0  0  0  0  0
  183.0680  177.3820  138.8150 C   0  0  1  0  0  3  0  0  0  0  0  0
  183.7460  178.3490  141.7490 C   0  0  0  0  0  2  0  0  0  0  0  0
  180.5190  174.3540  137.4070 C   0  0  0  0  0  2  0  0  0  0  0  0
  184.3880  175.7890  135.6770 O   0  0  0  0  0  1  0  0  0  0  0  0
  185.3510  178.2580  138.2680 C   0  0  0  0  0  2  0  0  0  0  0  0
  183.2880  176.2610  137.7600 C   0  0  1  0  0  3  0  0  0  0  0  0
  184.3050  178.9320  140.4680 C   0  0  2  0  0  3  0  0  0  0  0  0
  181.5020  174.8150  136.3250 C   0  0  0  0  0  2  0  0  0  0  0  0
  181.9200  177.0530  139.8590 C   0  0  1  0  0  3  0  0  0  0  0  0
  181.2690  175.2290  138.3880 C   0  0  2  0  0  3  0  0  0  0  0  0
  185.5450  177.1480  137.2480 C   0  0  0  0  0  2  0  0  0  0  0  0
  182.2590  178.6380  141.8890 C   0  0  0  0  0  2  0  0  0  0  0  0
  181.4200  178.2610  140.6690 C   0  0  1  0  0  3  0  0  0  0  0  0
  184.4250  177.8150  139.4090 C   0  0  1  0  0  3  0  0  0  0  0  0
  180.6950  176.3230  139.2450 C   0  0  0  0  0  2  0  0  0  0  0  0
  180.8580  180.8830  137.9380 C   0  0  0  0  0  0  0  0  0  0  0  0
  180.0080  181.7680  138.6050 C   0  0  0  0  0  3  0  0  0  0  0  0
  180.9150  179.4590  139.9100 C   0  0  0  0  0  0  0  0  0  0  0  0
  179.6200  181.5090  139.9190 C   0  0  0  0  0  3  0  0  0  0  0  0
  181.3110  179.7320  138.5900 C   0  0  0  0  0  3  0  0  0  0  0  0
  180.0730  180.3590  140.5720 C   0  0  0  0  0  3  0  0  0  0  0  0
  181.2140  181.1200  136.6530 F   0  0  0  0  0  0  0  0  0  0  0  0
  185.6020  179.5320  140.7690 N   0  0  0  0  0  2  0  0  0  0  0  0
  186.1520  178.8070  141.9030 C   0  0  0  0  0  2  0  0  0  0  0  0
  187.5590  178.3240  141.5920 C   0  0  0  0  0  2  0  0  0  0  0  0
  187.9010  175.8750  143.2180 O   0  0  0  0  0  1  0  0  0  0  0  0
  188.4060  178.2070  142.8530 C   0  0  1  0  0  3  0  0  0  0  0  0
  187.8740  177.1350  143.8210 C   0  0  2  0  0  3  0  0  0  0  0  0
  190.1030  177.6680  144.9890 C   0  0  0  0  0  2  0  0  0  0  0  0
  190.6930  177.3290  143.6260 C   0  0  0  0  0  2  0  0  0  0  0  0
  189.8870  177.9820  142.4930 C   0  0  0  0  0  2  0  0  0  0  0  0
  188.6830  177.0980  145.1310 C   0  0  0  0  0  2  0  0  0  0  0  0
  1 10  1  6  0  0  0
  1  8  1  0  0  0  0
  1 12  1  0  0  0  0
  2  6  1  6  0  0  0
  2 13  1  0  0  0  0
  2  8  1  0  0  0  0
  3 16  1  0  0  0  0
  3 11  1  0  0  0  0
  4 14  1  0  0  0  0
  5 12  1  0  0  0  0
  7 16  1  0  0  0  0
  8  3  1  0  0  0  0
  9 25  1  0  0  0  0
  9  4  1  0  0  0  0
 10  5  1  0  0  0  0
 11 15  1  0  0  0  0
 12 17  1  0  0  0  0
 13  7  1  0  0  0  0
 15 14  1  0  0  0  0
 16  9  1  0  0  0  0
 17 11  1  0  0  0  0
 18 22  2  0  0  0  0
 18 19  1  0  0  0  0
 19 21  2  0  0  0  0
 20 23  2  0  0  0  0
 20 15  1  0  0  0  0
 21 23  1  0  0  0  0
 22 20  1  0  0  0  0
 24 18  1  0  0  0  0
 25 26  1  0  0  0  0
 27 26  1  0  0  0  0
 27 29  1  0  0  0  0
 28 30  1  0  0  0  0
 29 30  1  0  0  0  0
 30 34  1  0  0  0  0
 31 34  1  0  0  0  0
 32 31  1  0  0  0  0
 33 29  1  0  0  0  0
 33 32  1  0  0  0  0
M  END
>  <MODEL>
3

>  <REMARK>
 VINA RESULT:      -7.3      2.987      5.468
  Name = 
  5 active torsions:
  status: ('A' for Active; 'I' for Inactive)
    1  A    between atoms: C_3  and  C_13
    2  A    between atoms: C_3  and  C_17
    3  A    between atoms: C_12  and  C_28
    4  A    between atoms: C_17  and  N_29
    5  A    between atoms: C_18  and  N_29
                            x       y       z     vdW  Elec       q    Type
                         _______ _______ _______ _____ _____    ______ ____

>  <TORSDO>
F 5

$$$$
=
 OpenBabel10252414513D

 34 39  0  0  1  0  0  0  0  0999 V2000
  190.6120  174.0610  136.7680 C   0  0  1  0  0  3  0  0  0  0  0  0
  188.2270  173.2700  136.7320 C   0  0  1  0  0  3  0  0  0  0  0  0
  188.8460  175.6820  137.1260 C   0  0  1  0  0  3  0  0  0  0  0  0
  187.6330  178.5940  136.8910 C   0  0  0  0  0  2  0  0  0  0  0  0
  192.5400  174.1040  135.8970 C   0  0  0  0  0  2  0  0  0  0  0  0
  188.5480  172.0890  136.0640 O   0  0  0  0  0  1  0  0  0  0  0  0
  186.4470  174.9540  137.1200 C   0  0  0  0  0  2  0  0  0  0  0  0
  189.2010  174.3830  136.3480 C   0  0  1  0  0  3  0  0  0  0  0  0
  186.9570  177.3960  137.5270 C   0  0  2  0  0  3  0  0  0  0  0  0
  191.5240  172.9970  136.2000 C   0  0  0  0  0  2  0  0  0  0  0  0
  189.9550  176.8100  137.0150 C   0  0  1  0  0  3  0  0  0  0  0  0
  191.4240  175.1080  136.0890 C   0  0  2  0  0  3  0  0  0  0  0  0
  186.8200  173.6960  136.3520 C   0  0  0  0  0  2  0  0  0  0  0  0
  188.8340  179.0500  137.7050 C   0  0  0  0  0  2  0  0  0  0  0  0
  189.8280  177.9420  138.0490 C   0  0  1  0  0  3  0  0  0  0  0  0
  187.4010  176.1120  136.7940 C   0  0  1  0  0  3  0  0  0  0  0  0
  191.4110  176.2730  137.0400 C   0  0  0  0  0  2  0  0  0  0  0  0
  188.6700  177.3100  141.6410 C   0  0  0  0  0  0  0  0  0  0  0  0
  189.8810  176.9530  142.2410 C   0  0  0  0  0  3  0  0  0  0  0  0
  189.8090  177.5670  139.5060 C   0  0  0  0  0  0  0  0  0  0  0  0
  191.0510  176.9130  141.4840 C   0  0  0  0  0  3  0  0  0  0  0  0
  188.6360  177.6180  140.2780 C   0  0  0  0  0  3  0  0  0  0  0  0
  191.0170  177.2200  140.1210 C   0  0  0  0  0  3  0  0  0  0  0  0
  187.5290  177.3240  142.3700 F   0  0  0  0  0  0  0  0  0  0  0  0
  185.5130  177.5920  137.4450 N   0  0  0  0  0  2  0  0  0  0  0  0
  185.1940  178.7500  138.2650 C   0  0  0  0  0  2  0  0  0  0  0  0
  183.7040  178.7960  138.5620 C   0  0  0  0  0  2  0  0  0  0  0  0
  182.2580  176.9040  140.3200 O   0  0  0  0  0  1  0  0  0  0  0  0
  183.4310  178.9970  140.0470 C   0  0  1  0  0  3  0  0  0  0  0  0
  182.1470  178.2850  140.5100 C   0  0  2  0  0  3  0  0  0  0  0  0
  183.0690  178.9960  142.8040 C   0  0  0  0  0  2  0  0  0  0  0  0
  184.3100  178.2430  142.3400 C   0  0  0  0  0  2  0  0  0  0  0  0
  184.6570  178.5880  140.8840 C   0  0  0  0  0  2  0  0  0  0  0  0
  181.8350  178.5780  141.9900 C   0  0  0  0  0  2  0  0  0  0  0  0
  1 10  1  6  0  0  0
  2  6  1  6  0  0  0
  4  9  1  0  0  0  0
  4 14  1  0  0  0  0
  5 12  1  0  0  0  0
  5 10  1  0  0  0  0
  8  2  1  0  0  0  0
  8  1  1  0  0  0  0
  8  3  1  0  0  0  0
 11 17  1  0  0  0  0
 11  3  1  0  0  0  0
 11 15  1  0  0  0  0
 12  1  1  0  0  0  0
 12 17  1  0  0  0  0
 13  2  1  0  0  0  0
 13  7  1  0  0  0  0
 14 15  1  0  0  0  0
 15 20  1  0  0  0  0
 16  7  1  0  0  0  0
 16  3  1  0  0  0  0
 16  9  1  0  0  0  0
 18 19  1  0  0  0  0
 18 24  1  0  0  0  0
 20 23  2  0  0  0  0
 20 22  1  0  0  0  0
 21 19  2  0  0  0  0
 22 18  2  0  0  0  0
 23 21  1  0  0  0  0
 25  9  1  0  0  0  0
 25 26  1  0  0  0  0
 26 27  1  0  0  0  0
 27 29  1  0  0  0  0
 28 30  1  0  0  0  0
 29 30  1  0  0  0  0
 29 33  1  0  0  0  0
 30 34  1  0  0  0  0
 32 31  1  0  0  0  0
 33 32  1  0  0  0  0
 34 31  1  0  0  0  0
M  END
>  <MODEL>
4

>  <REMARK>
 VINA RESULT:      -7.1      2.846      7.193
  Name = 
  5 active torsions:
  status: ('A' for Active; 'I' for Inactive)
    1  A    between atoms: C_3  and  C_13
    2  A    between atoms: C_3  and  C_17
    3  A    between atoms: C_12  and  C_28
    4  A    between atoms: C_17  and  N_29
    5  A    between atoms: C_18  and  N_29
                            x       y       z     vdW  Elec       q    Type
                         _______ _______ _______ _____ _____    ______ ____

>  <TORSDO>
F 5

$$$$
=
 OpenBabel10252414513D

 34 39  0  0  1  0  0  0  0  0999 V2000
  183.5490  178.3770  142.6170 C   0  0  1  0  0  3  0  0  0  0  0  0
  184.8380  178.6300  140.4760 C   0  0  1  0  0  3  0  0  0  0  0  0
  182.3200  178.7010  140.5540 C   0  0  1  0  0  3  0  0  0  0  0  0
  179.8460  179.7970  138.9160 C   0  0  0  0  0  2  0  0  0  0  0  0
  183.2490  178.8990  144.6460 C   0  0  0  0  0  2  0  0  0  0  0  0
  186.0250  178.9460  141.1360 O   0  0  0  0  0  1  0  0  0  0  0  0
  183.5460  178.9420  138.3820 C   0  0  0  0  0  2  0  0  0  0  0  0
  183.6320  179.0900  141.2920 C   0  0  1  0  0  3  0  0  0  0  0  0
  181.0200  179.0260  138.3470 C   0  0  2  0  0  3  0  0  0  0  0  0
  184.4750  178.5250  143.8050 C   0  0  0  0  0  2  0  0  0  0  0  0
  181.0170  178.8800  141.4410 C   0  0  1  0  0  3  0  0  0  0  0  0
  182.4980  179.1320  143.3540 C   0  0  2  0  0  3  0  0  0  0  0  0
  184.8130  179.3270  139.1270 C   0  0  0  0  0  2  0  0  0  0  0  0
  178.9890  178.9200  139.8170 C   0  0  0  0  0  2  0  0  0  0  0  0
  179.7660  178.1690  140.8980 C   0  0  1  0  0  3  0  0  0  0  0  0
  182.2900  179.3600  139.1590 C   0  0  1  0  0  3  0  0  0  0  0  0
  181.2060  178.4890  142.9310 C   0  0  0  0  0  2  0  0  0  0  0  0
  180.4340  174.7850  139.2420 C   0  0  0  0  0  0  0  0  0  0  0  0
  179.8770  173.9220  140.1900 C   0  0  0  0  0  3  0  0  0  0  0  0
  179.8510  176.6890  140.6400 C   0  0  0  0  0  0  0  0  0  0  0  0
  179.3000  174.4360  141.3500 C   0  0  0  0  0  3  0  0  0  0  0  0
  180.4200  176.1650  139.4670 C   0  0  0  0  0  3  0  0  0  0  0  0
  179.2860  175.8160  141.5760 C   0  0  0  0  0  3  0  0  0  0  0  0
  181.0180  174.2840  138.1270 F   0  0  0  0  0  0  0  0  0  0  0  0
  181.1660  179.3910  136.9410 N   0  0  0  0  0  2  0  0  0  0  0  0
  180.0820  180.3070  136.6260 C   0  0  0  0  0  2  0  0  0  0  0  0
  180.5590  181.3830  135.6630 C   0  0  0  0  0  2  0  0  0  0  0  0
  181.5930  182.9230  137.9680 O   0  0  0  0  0  1  0  0  0  0  0  0
  180.0880  182.7680  136.0870 C   0  0  1  0  0  3  0  0  0  0  0  0
  180.2480  183.0050  137.5990 C   0  0  2  0  0  3  0  0  0  0  0  0
  179.6130  185.3910  136.8770 C   0  0  0  0  0  2  0  0  0  0  0  0
  180.8020  185.2310  135.9360 C   0  0  0  0  0  2  0  0  0  0  0  0
  180.7860  183.8570  135.2500 C   0  0  0  0  0  2  0  0  0  0  0  0
  179.6780  184.3720  138.0240 C   0  0  0  0  0  2  0  0  0  0  0  0
  1 12  1  0  0  0  0
  1 10  1  1  0  0  0
  2  6  1  1  0  0  0
  2  8  1  0  0  0  0
  3  8  1  0  0  0  0
  3 11  1  0  0  0  0
  4 14  1  0  0  0  0
  7 13  1  0  0  0  0
  7 16  1  0  0  0  0
  8  1  1  0  0  0  0
  9  4  1  0  0  0  0
  9 16  1  0  0  0  0
 10  5  1  0  0  0  0
 11 17  1  0  0  0  0
 12  5  1  0  0  0  0
 13  2  1  0  0  0  0
 14 15  1  0  0  0  0
 15 11  1  0  0  0  0
 16  3  1  0  0  0  0
 17 12  1  0  0  0  0
 18 22  2  0  0  0  0
 18 19  1  0  0  0  0
 19 21  2  0  0  0  0
 20 15  1  0  0  0  0
 20 23  2  0  0  0  0
 21 23  1  0  0  0  0
 22 20  1  0  0  0  0
 24 18  1  0  0  0  0
 25  9  1  0  0  0  0
 26 25  1  0  0  0  0
 27 29  1  0  0  0  0
 27 26  1  0  0  0  0
 29 30  1  0  0  0  0
 30 28  1  0  0  0  0
 30 34  1  0  0  0  0
 31 34  1  0  0  0  0
 32 31  1  0  0  0  0
 33 32  1  0  0  0  0
 33 29  1  0  0  0  0
M  END
>  <MODEL>
5

>  <REMARK>
 VINA RESULT:      -6.8      4.414      8.475
  Name = 
  5 active torsions:
  status: ('A' for Active; 'I' for Inactive)
    1  A    between atoms: C_3  and  C_13
    2  A    between atoms: C_3  and  C_17
    3  A    between atoms: C_12  and  C_28
    4  A    between atoms: C_17  and  N_29
    5  A    between atoms: C_18  and  N_29
                            x       y       z     vdW  Elec       q    Type
                         _______ _______ _______ _____ _____    ______ ____

>  <TORSDO>
F 5

$$$$
=
 OpenBabel10252414513D

 34 39  0  0  1  0  0  0  0  0999 V2000
  183.0810  176.2050  136.0790 C   0  0  1  0  0  3  0  0  0  0  0  0
  185.4080  177.1200  136.3200 C   0  0  1  0  0  3  0  0  0  0  0  0
  183.6260  177.4810  138.0660 C   0  0  1  0  0  3  0  0  0  0  0  0
  183.3060  178.1360  141.1440 C   0  0  0  0  0  2  0  0  0  0  0  0
  181.7850  174.5920  135.6340 C   0  0  0  0  0  2  0  0  0  0  0  0
  185.9340  176.2480  135.3670 O   0  0  0  0  0  1  0  0  0  0  0  0
  185.9240  178.4370  138.3580 C   0  0  0  0  0  2  0  0  0  0  0  0
  184.2160  176.4820  137.0300 C   0  0  1  0  0  3  0  0  0  0  0  0
  184.2120  178.8600  140.1680 C   0  0  2  0  0  3  0  0  0  0  0  0
  183.0360  175.1770  134.9700 C   0  0  0  0  0  2  0  0  0  0  0  0
  182.2250  177.0290  138.6550 C   0  0  1  0  0  3  0  0  0  0  0  0
  182.1500  175.3650  136.8830 C   0  0  2  0  0  3  0  0  0  0  0  0
  186.4780  177.4440  137.3480 C   0  0  0  0  0  2  0  0  0  0  0  0
  181.8390  178.3910  140.8330 C   0  0  0  0  0  2  0  0  0  0  0  0
  181.4430  178.1370  139.3790 C   0  0  1  0  0  3  0  0  0  0  0  0
  184.7080  177.8640  139.0980 C   0  0  1  0  0  3  0  0  0  0  0  0
  181.2880  176.3540  137.6170 C   0  0  0  0  0  2  0  0  0  0  0  0
  180.9050  180.6570  136.5500 C   0  0  0  0  0  0  0  0  0  0  0  0
  180.6910  181.8250  137.2850 C   0  0  0  0  0  3  0  0  0  0  0  0
  181.1470  179.4030  138.6210 C   0  0  0  0  0  0  0  0  0  0  0  0
  180.7140  181.7880  138.6790 C   0  0  0  0  0  3  0  0  0  0  0  0
  181.1350  179.4500  137.2170 C   0  0  0  0  0  3  0  0  0  0  0  0
  180.9430  180.5820  139.3460 C   0  0  0  0  0  3  0  0  0  0  0  0
  180.8570  180.6870  135.1960 F   0  0  0  0  0  0  0  0  0  0  0  0
  185.3210  179.4390  140.9220 N   0  0  0  0  0  2  0  0  0  0  0  0
  185.1730  178.9990  142.2990 C   0  0  0  0  0  2  0  0  0  0  0  0
  186.2300  177.9600  142.6410 C   0  0  0  0  0  2  0  0  0  0  0  0
  188.5150  178.6280  144.3990 O   0  0  0  0  0  1  0  0  0  0  0  0
  186.3010  177.7010  144.1410 C   0  0  1  0  0  3  0  0  0  0  0  0
  187.7440  177.4860  144.6310 C   0  0  2  0  0  3  0  0  0  0  0  0
  186.5520  177.6030  146.9080 C   0  0  0  0  0  2  0  0  0  0  0  0
  186.0520  178.9410  146.3770 C   0  0  0  0  0  2  0  0  0  0  0  0
  185.5820  178.8190  144.9190 C   0  0  0  0  0  2  0  0  0  0  0  0
  187.7890  177.1300  146.1290 C   0  0  0  0  0  2  0  0  0  0  0  0
  1 10  1  6  0  0  0
  1 12  1  0  0  0  0
  1  8  1  0  0  0  0
  2  6  1  6  0  0  0
  2  8  1  0  0  0  0
  2 13  1  0  0  0  0
  3 11  1  0  0  0  0
  3 16  1  0  0  0  0
  5 12  1  0  0  0  0
  7 16  1  0  0  0  0
  8  3  1  0  0  0  0
  9 25  1  0  0  0  0
  9  4  1  0  0  0  0
 10  5  1  0  0  0  0
 11 15  1  0  0  0  0
 12 17  1  0  0  0  0
 13  7  1  0  0  0  0
 14  4  1  0  0  0  0
 15 14  1  0  0  0  0
 16  9  1  0  0  0  0
 17 11  1  0  0  0  0
 18 22  2  0  0  0  0
 18 19  1  0  0  0  0
 19 21  2  0  0  0  0
 20 23  2  0  0  0  0
 20 15  1  0  0  0  0
 21 23  1  0  0  0  0
 22 20  1  0  0  0  0
 24 18  1  0  0  0  0
 25 26  1  0  0  0  0
 26 27  1  0  0  0  0
 27 29  1  0  0  0  0
 28 30  1  0  0  0  0
 29 30  1  0  0  0  0
 29 33  1  0  0  0  0
 30 34  1  0  0  0  0
 32 31  1  0  0  0  0
 33 32  1  0  0  0  0
 34 31  1  0  0  0  0
M  END
>  <MODEL>
6

>  <REMARK>
 VINA RESULT:      -6.7      3.220      5.720
  Name = 
  5 active torsions:
  status: ('A' for Active; 'I' for Inactive)
    1  A    between atoms: C_3  and  C_13
    2  A    between atoms: C_3  and  C_17
    3  A    between atoms: C_12  and  C_28
    4  A    between atoms: C_17  and  N_29
    5  A    between atoms: C_18  and  N_29
                            x       y       z     vdW  Elec       q    Type
                         _______ _______ _______ _____ _____    ______ ____

>  <TORSDO>
F 5

$$$$
=
 OpenBabel10252414513D

 34 39  0  0  1  0  0  0  0  0999 V2000
  186.4050  177.9130  141.9330 C   0  0  1  0  0  3  0  0  0  0  0  0
  188.7010  176.9410  142.2410 C   0  0  1  0  0  3  0  0  0  0  0  0
  187.8570  177.7310  140.0010 C   0  0  1  0  0  3  0  0  0  0  0  0
  188.9190  178.7380  137.1970 C   0  0  0  0  0  2  0  0  0  0  0  0
  184.8830  179.2470  142.5520 C   0  0  0  0  0  2  0  0  0  0  0  0
  188.6890  177.1480  143.6200 O   0  0  0  0  0  1  0  0  0  0  0  0
  190.1530  176.7550  140.2380 C   0  0  0  0  0  2  0  0  0  0  0  0
  187.8550  177.9980  141.5340 C   0  0  1  0  0  3  0  0  0  0  0  0
  189.4050  177.5140  137.9460 C   0  0  2  0  0  3  0  0  0  0  0  0
  185.7960  178.2510  143.2760 C   0  0  0  0  0  2  0  0  0  0  0  0
  186.7910  178.5960  139.2060 C   0  0  1  0  0  3  0  0  0  0  0  0
  185.8130  179.1540  141.3620 C   0  0  2  0  0  3  0  0  0  0  0  0
  190.1290  177.0330  141.7320 C   0  0  0  0  0  2  0  0  0  0  0  0
  187.4920  178.5570  136.7050 C   0  0  0  0  0  2  0  0  0  0  0  0
  186.5010  178.1060  137.7780 C   0  0  1  0  0  3  0  0  0  0  0  0
  189.3040  177.7730  139.4650 C   0  0  1  0  0  3  0  0  0  0  0  0
  185.4430  178.7830  139.9530 C   0  0  0  0  0  2  0  0  0  0  0  0
  186.4860  174.3330  137.1360 C   0  0  0  0  0  0  0  0  0  0  0  0
  185.1130  174.0740  137.1710 C   0  0  0  0  0  3  0  0  0  0  0  0
  186.0480  176.6820  137.5980 C   0  0  0  0  0  0  0  0  0  0  0  0
  184.2120  175.1100  137.4080 C   0  0  0  0  0  3  0  0  0  0  0  0
  186.9510  175.6350  137.3470 C   0  0  0  0  0  3  0  0  0  0  0  0
  184.6760  176.4120  137.6190 C   0  0  0  0  0  3  0  0  0  0  0  0
  187.3640  173.3220  136.9320 F   0  0  0  0  0  0  0  0  0  0  0  0
  190.7800  177.2450  137.5350 N   0  0  0  0  0  2  0  0  0  0  0  0
  190.7910  175.9260  136.9260 C   0  0  0  0  0  2  0  0  0  0  0  0
  191.6940  175.9130  135.7030 C   0  0  0  0  0  2  0  0  0  0  0  0
  194.1980  176.9500  136.8930 O   0  0  0  0  0  1  0  0  0  0  0  0
  192.9620  175.1040  135.9470 C   0  0  1  0  0  3  0  0  0  0  0  0
  194.2320  175.9720  135.8940 C   0  0  2  0  0  3  0  0  0  0  0  0
  195.2710  173.7820  136.7550 C   0  0  0  0  0  2  0  0  0  0  0  0
  194.2190  173.9230  137.8500 C   0  0  0  0  0  2  0  0  0  0  0  0
  192.8540  174.3100  137.2620 C   0  0  0  0  0  2  0  0  0  0  0  0
  195.5090  175.1240  136.0460 C   0  0  0  0  0  2  0  0  0  0  0  0
  1 10  1  1  0  0  0
  2  6  1  1  0  0  0
  3  8  1  0  0  0  0
  4  9  1  0  0  0  0
  5 10  1  0  0  0  0
  7 13  1  0  0  0  0
  8  1  1  0  0  0  0
  8  2  1  0  0  0  0
  9 16  1  0  0  0  0
 11 17  1  0  0  0  0
 11  3  1  0  0  0  0
 12  1  1  0  0  0  0
 12  5  1  0  0  0  0
 13  2  1  0  0  0  0
 14  4  1  0  0  0  0
 14 15  1  0  0  0  0
 15 11  1  0  0  0  0
 16  3  1  0  0  0  0
 16  7  1  0  0  0  0
 17 12  1  0  0  0  0
 18 19  2  0  0  0  0
 18 22  1  0  0  0  0
 19 21  1  0  0  0  0
 20 23  1  0  0  0  0
 20 15  1  0  0  0  0
 21 23  2  0  0  0  0
 22 20  2  0  0  0  0
 24 18  1  0  0  0  0
 25  9  1  0  0  0  0
 26 25  1  0  0  0  0
 27 29  1  0  0  0  0
 27 26  1  0  0  0  0
 29 33  1  0  0  0  0
 30 29  1  0  0  0  0
 30 34  1  0  0  0  0
 30 28  1  0  0  0  0
 31 32  1  0  0  0  0
 33 32  1  0  0  0  0
 34 31  1  0  0  0  0
M  END
>  <MODEL>
7

>  <REMARK>
 VINA RESULT:      -6.6      3.121      4.907
  Name = 
  5 active torsions:
  status: ('A' for Active; 'I' for Inactive)
    1  A    between atoms: C_3  and  C_13
    2  A    between atoms: C_3  and  C_17
    3  A    between atoms: C_12  and  C_28
    4  A    between atoms: C_17  and  N_29
    5  A    between atoms: C_18  and  N_29
                            x       y       z     vdW  Elec       q    Type
                         _______ _______ _______ _____ _____    ______ ____

>  <TORSDO>
F 5

$$$$
=
 OpenBabel10252414513D

 34 39  0  0  1  0  0  0  0  0999 V2000
  184.1710  178.3280  140.4470 C   0  0  1  0  0  3  0  0  0  0  0  0
  186.2850  178.2490  141.8040 C   0  0  1  0  0  3  0  0  0  0  0  0
  186.2790  178.0090  139.2940 C   0  0  1  0  0  3  0  0  0  0  0  0
  188.1810  178.3710  136.7930 C   0  0  0  0  0  2  0  0  0  0  0  0
  182.3270  179.2560  139.9820 C   0  0  0  0  0  2  0  0  0  0  0  0
  185.6900  178.8590  142.9080 O   0  0  0  0  0  1  0  0  0  0  0  0
  188.4210  177.9040  140.5920 C   0  0  0  0  0  2  0  0  0  0  0  0
  185.6240  178.7240  140.5110 C   0  0  1  0  0  3  0  0  0  0  0  0
  188.5290  177.6490  138.0790 C   0  0  2  0  0  3  0  0  0  0  0  0
  183.0310  178.8620  141.2860 C   0  0  0  0  0  2  0  0  0  0  0  0
  185.4880  178.2160  137.9360 C   0  0  1  0  0  3  0  0  0  0  0  0
  183.6540  179.0880  139.2760 C   0  0  2  0  0  3  0  0  0  0  0  0
  187.7590  178.6110  141.7640 C   0  0  0  0  0  2  0  0  0  0  0  0
  187.1200  177.6200  136.0050 C   0  0  0  0  0  2  0  0  0  0  0  0
  185.8760  177.2430  136.8100 C   0  0  1  0  0  3  0  0  0  0  0  0
  187.7900  178.3220  139.2570 C   0  0  1  0  0  3  0  0  0  0  0  0
  183.9430  178.2040  138.0940 C   0  0  0  0  0  2  0  0  0  0  0  0
  186.7520  173.5400  137.2160 C   0  0  0  0  0  0  0  0  0  0  0  0
  185.4940  173.0120  137.5170 C   0  0  0  0  0  3  0  0  0  0  0  0
  185.7800  175.7670  137.0870 C   0  0  0  0  0  0  0  0  0  0  0  0
  184.3830  173.8500  137.5930 C   0  0  0  0  0  3  0  0  0  0  0  0
  186.8940  174.9140  137.0000 C   0  0  0  0  0  3  0  0  0  0  0  0
  184.5240  175.2250  137.3780 C   0  0  0  0  0  3  0  0  0  0  0  0
  187.8360  172.7300  137.1670 F   0  0  0  0  0  0  0  0  0  0  0  0
  189.9780  177.7000  138.2520 N   0  0  0  0  0  2  0  0  0  0  0  0
  190.5570  176.8470  137.2280 C   0  0  0  0  0  2  0  0  0  0  0  0
  190.4990  175.3890  137.6550 C   0  0  0  0  0  2  0  0  0  0  0  0
  191.7800  174.2970  135.2210 O   0  0  0  0  0  1  0  0  0  0  0  0
  191.8700  174.7280  137.5950 C   0  0  1  0  0  3  0  0  0  0  0  0
  191.9710  173.6880  136.4650 C   0  0  2  0  0  3  0  0  0  0  0  0
  194.4420  173.7590  137.1770 C   0  0  0  0  0  2  0  0  0  0  0  0
  194.2900  175.2530  136.9140 C   0  0  0  0  0  2  0  0  0  0  0  0
  192.9810  175.7910  137.5090 C   0  0  0  0  0  2  0  0  0  0  0  0
  193.3300  172.9620  136.4790 C   0  0  0  0  0  2  0  0  0  0  0  0
  1  8  1  0  0  0  0
  1 10  1  1  0  0  0
  2  6  1  1  0  0  0
  3  8  1  0  0  0  0
  4  9  1  0  0  0  0
  5 10  1  0  0  0  0
  7 13  1  0  0  0  0
  8  2  1  0  0  0  0
  9 25  1  0  0  0  0
  9 16  1  0  0  0  0
 11 17  1  0  0  0  0
 11  3  1  0  0  0  0
 12  5  1  0  0  0  0
 12  1  1  0  0  0  0
 13  2  1  0  0  0  0
 14  4  1  0  0  0  0
 14 15  1  0  0  0  0
 15 20  1  0  0  0  0
 15 11  1  0  0  0  0
 16  3  1  0  0  0  0
 16  7  1  0  0  0  0
 17 12  1  0  0  0  0
 18 19  1  0  0  0  0
 19 21  2  0  0  0  0
 20 23  2  0  0  0  0
 22 20  1  0  0  0  0
 22 18  2  0  0  0  0
 23 21  1  0  0  0  0
 24 18  1  0  0  0  0
 26 27  1  0  0  0  0
 26 25  1  0  0  0  0
 28 30  1  0  0  0  0
 29 27  1  0  0  0  0
 30 34  1  0  0  0  0
 30 29  1  0  0  0  0
 32 31  1  0  0  0  0
 32 33  1  0  0  0  0
 33 29  1  0  0  0  0
 34 31  1  0  0  0  0
M  END
>  <MODEL>
8

>  <REMARK>
 VINA RESULT:      -6.5      2.767      3.840
  Name = 
  5 active torsions:
  status: ('A' for Active; 'I' for Inactive)
    1  A    between atoms: C_3  and  C_13
    2  A    between atoms: C_3  and  C_17
    3  A    between atoms: C_12  and  C_28
    4  A    between atoms: C_17  and  N_29
    5  A    between atoms: C_18  and  N_29
                            x       y       z     vdW  Elec       q    Type
                         _______ _______ _______ _____ _____    ______ ____

>  <TORSDO>
F 5

$$$$
=
 OpenBabel10252414513D

 34 39  0  0  1  0  0  0  0  0999 V2000
  183.3000  177.5110  137.5260 C   0  0  1  0  0  3  0  0  0  0  0  0
  184.1290  178.1580  139.8080 C   0  0  1  0  0  3  0  0  0  0  0  0
  185.6900  177.6560  137.8940 C   0  0  1  0  0  3  0  0  0  0  0  0
  188.6400  178.2490  136.9160 C   0  0  0  0  0  2  0  0  0  0  0  0
  182.0060  177.8480  135.8850 C   0  0  0  0  0  2  0  0  0  0  0  0
  182.9000  178.6990  140.1870 O   0  0  0  0  0  1  0  0  0  0  0  0
  186.5830  178.2780  140.1520 C   0  0  0  0  0  2  0  0  0  0  0  0
  184.3300  178.2920  138.3000 C   0  0  1  0  0  3  0  0  0  0  0  0
  188.2360  177.7920  138.3030 C   0  0  2  0  0  3  0  0  0  0  0  0
  181.8200  177.8040  137.4060 C   0  0  0  0  0  2  0  0  0  0  0  0
  185.8710  177.4910  136.3270 C   0  0  1  0  0  3  0  0  0  0  0  0
  183.4950  177.9720  136.1230 C   0  0  2  0  0  3  0  0  0  0  0  0
  185.2460  178.9000  140.5210 C   0  0  0  0  0  2  0  0  0  0  0  0
  188.4090  177.1560  135.8830 C   0  0  0  0  0  2  0  0  0  0  0  0
  187.0080  176.5460  135.9050 C   0  0  1  0  0  3  0  0  0  0  0  0
  186.8420  178.3620  138.6420 C   0  0  1  0  0  3  0  0  0  0  0  0
  184.5750  177.0770  135.5800 C   0  0  0  0  0  2  0  0  0  0  0  0
  185.8770  173.2750  137.5390 C   0  0  0  0  0  0  0  0  0  0  0  0
  187.0680  172.5450  137.5000 C   0  0  0  0  0  3  0  0  0  0  0  0
  186.9890  175.1380  136.4370 C   0  0  0  0  0  0  0  0  0  0  0  0
  188.2150  173.1080  136.9440 C   0  0  0  0  0  3  0  0  0  0  0  0
  185.8390  174.5690  137.0100 C   0  0  0  0  0  3  0  0  0  0  0  0
  188.1780  174.4010  136.4150 C   0  0  0  0  0  3  0  0  0  0  0  0
  184.7550  172.7190  138.0560 F   0  0  0  0  0  0  0  0  0  0  0  0
  189.2510  178.2530  139.2470 N   0  0  0  0  0  2  0  0  0  0  0  0
  189.7120  177.0850  139.9780 C   0  0  0  0  0  2  0  0  0  0  0  0
  190.7870  177.4760  140.9790 C   0  0  0  0  0  2  0  0  0  0  0  0
  191.6030  178.9210  143.4300 O   0  0  0  0  0  1  0  0  0  0  0  0
  190.3960  177.0990  142.4030 C   0  0  1  0  0  3  0  0  0  0  0  0
  191.4530  177.5310  143.4350 C   0  0  2  0  0  3  0  0  0  0  0  0
  189.5870  176.7920  145.0450 C   0  0  0  0  0  2  0  0  0  0  0  0
  188.7520  177.7900  144.2510 C   0  0  0  0  0  2  0  0  0  0  0  0
  188.9950  177.6410  142.7420 C   0  0  0  0  0  2  0  0  0  0  0  0
  191.0880  177.0570  144.8550 C   0  0  0  0  0  2  0  0  0  0  0  0
  1 10  1  1  0  0  0
  1  8  1  0  0  0  0
  2  6  1  1  0  0  0
  2 13  1  0  0  0  0
  3  8  1  0  0  0  0
  3 16  1  0  0  0  0
  4  9  1  0  0  0  0
  5 12  1  0  0  0  0
  5 10  1  0  0  0  0
  7 13  1  0  0  0  0
  8  2  1  0  0  0  0
  9 16  1  0  0  0  0
  9 25  1  0  0  0  0
 11  3  1  0  0  0  0
 12  1  1  0  0  0  0
 14 15  1  0  0  0  0
 14  4  1  0  0  0  0
 15 11  1  0  0  0  0
 15 20  1  0  0  0  0
 16  7  1  0  0  0  0
 17 12  1  0  0  0  0
 17 11  1  0  0  0  0
 18 24  1  0  0  0  0
 19 18  1  0  0  0  0
 20 22  1  0  0  0  0
 21 19  2  0  0  0  0
 22 18  2  0  0  0  0
 23 20  2  0  0  0  0
 23 21  1  0  0  0  0
 25 26  1  0  0  0  0
 26 27  1  0  0  0  0
 27 29  1  0  0  0  0
 28 30  1  0  0  0  0
 29 33  1  0  0  0  0
 29 30  1  0  0  0  0
 30 34  1  0  0  0  0
 32 31  1  0  0  0  0
 33 32  1  0  0  0  0
 34 31  1  0  0  0  0
M  END
>  <MODEL>
9

>  <REMARK>
 VINA RESULT:      -6.5      1.427      2.058
  Name = 
  5 active torsions:
  status: ('A' for Active; 'I' for Inactive)
    1  A    between atoms: C_3  and  C_13
    2  A    between atoms: C_3  and  C_17
    3  A    between atoms: C_12  and  C_28
    4  A    between atoms: C_17  and  N_29
    5  A    between atoms: C_18  and  N_29
                            x       y       z     vdW  Elec       q    Type
                         _______ _______ _______ _____ _____    ______ ____

>  <TORSDO>
F 5

$$$$
