=
 OpenBabel10262422263D

 43 48  0  0  1  0  0  0  0  0999 V2000
  182.1280  179.3100  143.1390 C   0  0  0  0  0  0  0  0  0  0  0  0
  186.4590  177.6270  145.1450 C   0  0  0  0  0  0  0  0  0  0  0  0
  188.1920  177.2980  142.9850 C   0  0  0  0  0  0  0  0  0  0  0  0
  183.8520  178.5620  144.6670 C   0  0  0  0  0  0  0  0  0  0  0  0
  183.0000  179.1350  142.0620 C   0  0  0  0  0  3  0  0  0  0  0  0
  180.8670  179.7580  142.9220 F   0  0  0  0  0  0  0  0  0  0  0  0
  184.7410  178.3820  143.5800 C   0  0  0  0  0  0  0  0  0  0  0  0
  182.5520  179.0240  144.4390 C   0  0  0  0  0  3  0  0  0  0  0  0
  184.3010  178.6730  142.2800 C   0  0  0  0  0  3  0  0  0  0  0  0
  186.9230  177.7430  142.7910 N   0  0  0  0  0  0  0  0  0  0  0  0
  186.0470  177.9160  143.8210 C   0  0  0  0  0  0  0  0  0  0  0  0
  185.5620  177.8170  146.2070 C   0  0  0  0  0  3  0  0  0  0  0  0
  187.7640  177.1560  145.3660 C   0  0  0  0  0  0  0  0  0  0  0  0
  188.6300  176.9970  144.2810 C   0  0  0  0  0  3  0  0  0  0  0  0
  184.2680  178.2810  145.9680 C   0  0  0  0  0  3  0  0  0  0  0  0
  189.0750  177.1410  141.8210 C   0  0  0  0  0  3  0  0  0  0  0  0
  188.8390  177.7370  140.6530 C   0  0  0  0  0  3  0  0  0  0  0  0
  189.8160  178.7530  138.7710 F   0  0  0  0  0  0  0  0  0  0  0  0
  189.7500  177.5650  139.4810 C   0  0  1  0  0  0  0  0  0  0  0  0
  191.1410  177.1820  139.9630 C   0  0  0  0  0  1  0  0  0  0  0  0
  189.1810  176.4550  138.5980 C   0  0  0  0  0  2  0  0  0  0  0  0
  188.7450  176.9500  137.2230 C   0  0  2  0  0  3  0  0  0  0  0  0
  186.0850  177.1200  135.8000 C   0  0  0  0  0  2  0  0  0  0  0  0
  186.6120  175.8110  136.4170 C   0  0  2  0  0  3  0  0  0  0  0  0
  187.7850  178.1400  137.3720 C   0  0  0  0  0  2  0  0  0  0  0  0
  188.1500  175.7820  136.4240 C   0  0  1  0  0  3  0  0  0  0  0  0
  188.6410  175.8100  135.1290 F   0  0  0  0  0  0  0  0  0  0  0  0
  186.9660  178.3390  136.1020 C   0  0  0  0  0  2  0  0  0  0  0  0
  186.0130  174.5780  135.7220 C   0  0  0  0  0  3  0  0  0  0  0  0
  186.1150  172.9080  137.5970 C   0  0  0  0  0  2  0  0  0  0  0  0
  184.1650  174.0080  137.3270 C   0  0  0  0  0  2  0  0  0  0  0  0
  184.7210  172.7320  137.5270 O   0  0  0  0  0  0  0  0  0  0  0  0
  184.4920  174.5040  135.9160 C   0  0  0  0  0  2  0  0  0  0  0  0
  186.6640  173.2770  136.2180 C   0  0  0  0  0  2  0  0  0  0  0  0
  188.2540  176.8080  146.7410 C   0  0  0  0  0  2  0  0  0  0  0  0
  189.0830  177.9390  147.3410 C   0  0  1  0  0  3  0  0  0  0  0  0
  188.3960  178.4870  148.5790 C   0  0  0  0  0  1  0  0  0  0  0  0
  190.5120  177.5060  147.6620 C   0  0  0  0  0  2  0  0  0  0  0  0
  192.0080  177.7230  145.4880 O   0  0  0  0  0  1  0  0  0  0  0  0
  191.7220  175.4060  144.9560 O   0  0  0  0  0  1  0  0  0  0  0  0
  190.8350  176.2310  147.0250 N   0  0  0  0  0  0  0  0  0  0  0  0
  191.8020  176.4070  145.9220 C   0  0  0  0  0  0  0  0  0  0  0  0
  192.2890  176.0310  147.2320 C   0  0  0  0  0  2  0  0  0  0  0  0
  1  8  1  0  0  0  0
  2 13  1  0  0  0  0
  2 12  1  0  0  0  0
  3 14  1  0  0  0  0
  4 15  1  0  0  0  0
  5  9  1  0  0  0  0
  5  1  2  0  0  0  0
  6  1  1  0  0  0  0
  7 11  1  0  0  0  0
  7  4  1  0  0  0  0
  8  4  2  0  0  0  0
  9  7  2  0  0  0  0
 10  3  2  0  0  0  0
 10 11  1  0  0  0  0
 11  2  2  0  0  0  0
 13 35  1  0  0  0  0
 14 13  2  0  0  0  0
 15 12  2  0  0  0  0
 16  3  1  0  0  0  0
 17 16  2  0  0  0  0
 18 19  1  0  0  0  0
 19 20  1  1  0  0  0
 19 17  1  0  0  0  0
 21 19  1  0  0  0  0
 22 25  1  0  0  0  0
 22 21  1  1  0  0  0
 23 28  1  0  0  0  0
 23 24  1  0  0  0  0
 24 29  1  6  0  0  0
 24 26  1  0  0  0  0
 26 27  1  6  0  0  0
 26 22  1  0  0  0  0
 28 25  1  0  0  0  0
 29 33  1  0  0  0  0
 29 34  1  0  0  0  0
 31 32  1  0  0  0  0
 32 30  1  0  0  0  0
 33 31  1  0  0  0  0
 34 30  1  0  0  0  0
 35 36  1  0  0  0  0
 36 38  1  0  0  0  0
 36 37  1  1  0  0  0
 39 42  1  0  0  0  0
 40 42  1  0  0  0  0
 41 43  1  0  0  0  0
 41 38  1  0  0  0  0
 42 41  1  0  0  0  0
 42 43  1  0  0  0  0
M  END
>  <MODEL>
1

>  <REMARK>
 VINA RESULT:     -10.1      0.000      0.000
  Name = 
  9 active torsions:
  status: ('A' for Active; 'I' for Inactive)
    1  A    between atoms: C_1  and  C_9
    2  A    between atoms: C_1  and  C_35
    3  A    between atoms: C_2  and  C_13
    4  A    between atoms: C_3  and  C_4
    5  A    between atoms: C_3  and  C_12
    6  A    between atoms: C_6  and  C_12
    7  A    between atoms: C_9  and  N_32
    8  A    between atoms: C_11  and  C_14
    9  A    between atoms: C_34  and  C_35
                            x       y       z     vdW  Elec       q    Type
                         _______ _______ _______ _____ _____    ______ ____

>  <TORSDO>
F 9

$$$$
=
 OpenBabel10262422263D

 43 48  0  0  1  0  0  0  0  0999 V2000
  191.2960  176.5180  147.0980 C   0  0  0  0  0  0  0  0  0  0  0  0
  187.2800  177.9420  144.3670 C   0  0  0  0  0  0  0  0  0  0  0  0
  188.0670  177.6760  141.7050 C   0  0  0  0  0  0  0  0  0  0  0  0
  189.1070  177.2840  146.3990 C   0  0  0  0  0  0  0  0  0  0  0  0
  191.6850  176.3960  145.7620 C   0  0  0  0  0  3  0  0  0  0  0  0
  192.1670  176.2070  148.0880 F   0  0  0  0  0  0  0  0  0  0  0  0
  189.4940  177.1620  145.0420 C   0  0  0  0  0  0  0  0  0  0  0  0
  190.0090  176.9620  147.4170 C   0  0  0  0  0  3  0  0  0  0  0  0
  190.7890  176.7150  144.7380 C   0  0  0  0  0  3  0  0  0  0  0  0
  188.9260  177.3720  142.7140 N   0  0  0  0  0  0  0  0  0  0  0  0
  188.5770  177.4890  144.0260 C   0  0  0  0  0  0  0  0  0  0  0  0
  186.9160  178.0500  145.7170 C   0  0  0  0  0  3  0  0  0  0  0  0
  186.3790  178.2710  143.3390 C   0  0  0  0  0  0  0  0  0  0  0  0
  186.7780  178.1310  142.0070 C   0  0  0  0  0  3  0  0  0  0  0  0
  187.8240  177.7240  146.7250 C   0  0  0  0  0  3  0  0  0  0  0  0
  188.5200  177.5190  140.3160 C   0  0  0  0  0  3  0  0  0  0  0  0
  188.0150  178.2320  139.3100 C   0  0  0  0  0  3  0  0  0  0  0  0
  187.4150  177.7340  137.0920 F   0  0  0  0  0  0  0  0  0  0  0  0
  188.4900  178.0590  137.9030 C   0  0  1  0  0  0  0  0  0  0  0  0
  189.1240  179.3510  137.4130 C   0  0  0  0  0  1  0  0  0  0  0  0
  189.5220  176.9330  137.8870 C   0  0  0  0  0  2  0  0  0  0  0  0
  189.3410  175.9740  136.7150 C   0  0  2  0  0  3  0  0  0  0  0  0
  190.5430  173.3000  135.9840 C   0  0  0  0  0  2  0  0  0  0  0  0
  191.4050  174.5330  136.3160 C   0  0  2  0  0  3  0  0  0  0  0  0
  188.7780  174.6350  137.2110 C   0  0  0  0  0  2  0  0  0  0  0  0
  190.6700  175.8350  135.9570 C   0  0  1  0  0  3  0  0  0  0  0  0
  190.4340  175.8990  134.5940 F   0  0  0  0  0  0  0  0  0  0  0  0
  189.0410  173.5260  136.1980 C   0  0  0  0  0  2  0  0  0  0  0  0
  192.7890  174.4490  135.6540 C   0  0  0  0  0  3  0  0  0  0  0  0
  194.0400  176.1630  137.0000 C   0  0  0  0  0  2  0  0  0  0  0  0
  194.2280  174.0180  137.6690 C   0  0  0  0  0  2  0  0  0  0  0  0
  194.9670  175.1850  137.4010 O   0  0  0  0  0  0  0  0  0  0  0  0
  193.6920  173.4280  136.3620 C   0  0  0  0  0  2  0  0  0  0  0  0
  193.4830  175.8190  135.6170 C   0  0  0  0  0  2  0  0  0  0  0  0
  184.9990  178.7780  143.6330 C   0  0  0  0  0  2  0  0  0  0  0  0
  184.0050  178.3510  142.5580 C   0  0  1  0  0  3  0  0  0  0  0  0
  182.5920  178.7010  142.9880 C   0  0  0  0  0  1  0  0  0  0  0  0
  184.3240  178.9620  141.1950 C   0  0  0  0  0  2  0  0  0  0  0  0
  184.2700  180.4810  139.0270 O   0  0  0  0  0  1  0  0  0  0  0  0
  182.3240  179.3650  138.1900 O   0  0  0  0  0  1  0  0  0  0  0  0
  183.3640  178.5300  140.1830 N   0  0  0  0  0  0  0  0  0  0  0  0
  183.4980  179.3150  138.9390 C   0  0  0  0  0  0  0  0  0  0  0  0
  184.1710  178.0380  139.0410 C   0  0  0  0  0  2  0  0  0  0  0  0
  1  8  1  0  0  0  0
  1  6  1  0  0  0  0
  2 12  1  0  0  0  0
  3 14  2  0  0  0  0
  3 10  1  0  0  0  0
  4 15  1  0  0  0  0
  4  8  2  0  0  0  0
  5  1  2  0  0  0  0
  7  4  1  0  0  0  0
  9  7  2  0  0  0  0
  9  5  1  0  0  0  0
 10 11  2  0  0  0  0
 11  2  1  0  0  0  0
 11  7  1  0  0  0  0
 12 15  2  0  0  0  0
 13 35  1  0  0  0  0
 13  2  2  0  0  0  0
 14 13  1  0  0  0  0
 16  3  1  0  0  0  0
 17 16  2  0  0  0  0
 18 19  1  0  0  0  0
 19 20  1  6  0  0  0
 19 17  1  0  0  0  0
 21 19  1  0  0  0  0
 22 25  1  0  0  0  0
 22 21  1  1  0  0  0
 23 28  1  0  0  0  0
 23 24  1  0  0  0  0
 24 29  1  6  0  0  0
 26 27  1  6  0  0  0
 26 24  1  0  0  0  0
 26 22  1  0  0  0  0
 28 25  1  0  0  0  0
 29 33  1  0  0  0  0
 30 32  1  0  0  0  0
 32 31  1  0  0  0  0
 33 31  1  0  0  0  0
 34 29  1  0  0  0  0
 34 30  1  0  0  0  0
 36 37  1  1  0  0  0
 36 35  1  0  0  0  0
 38 36  1  0  0  0  0
 40 42  1  0  0  0  0
 41 38  1  0  0  0  0
 42 39  1  0  0  0  0
 42 43  1  0  0  0  0
 42 41  1  0  0  0  0
 43 41  1  0  0  0  0
M  END
>  <MODEL>
2

>  <REMARK>
 VINA RESULT:      -9.7      3.511      6.931
  Name = 
  9 active torsions:
  status: ('A' for Active; 'I' for Inactive)
    1  A    between atoms: C_1  and  C_9
    2  A    between atoms: C_1  and  C_35
    3  A    between atoms: C_2  and  C_13
    4  A    between atoms: C_3  and  C_4
    5  A    between atoms: C_3  and  C_12
    6  A    between atoms: C_6  and  C_12
    7  A    between atoms: C_9  and  N_32
    8  A    between atoms: C_11  and  C_14
    9  A    between atoms: C_34  and  C_35
                            x       y       z     vdW  Elec       q    Type
                         _______ _______ _______ _____ _____    ______ ____

>  <TORSDO>
F 9

$$$$
=
 OpenBabel10262422263D

 43 48  0  0  1  0  0  0  0  0999 V2000
  181.6650  179.0550  142.3970 C   0  0  0  0  0  0  0  0  0  0  0  0
  185.8650  178.1490  145.0710 C   0  0  0  0  0  0  0  0  0  0  0  0
  187.8800  177.7860  143.1770 C   0  0  0  0  0  0  0  0  0  0  0  0
  183.2540  178.7010  144.1900 C   0  0  0  0  0  0  0  0  0  0  0  0
  182.6790  178.8630  141.4550 C   0  0  0  0  0  3  0  0  0  0  0  0
  180.4010  179.3190  141.9860 F   0  0  0  0  0  0  0  0  0  0  0  0
  184.2860  178.5060  143.2410 C   0  0  0  0  0  0  0  0  0  0  0  0
  181.9510  178.9740  143.7620 C   0  0  0  0  0  3  0  0  0  0  0  0
  183.9840  178.5900  141.8740 C   0  0  0  0  0  3  0  0  0  0  0  0
  186.6050  178.0490  142.7880 N   0  0  0  0  0  0  0  0  0  0  0  0
  185.5940  178.2320  143.6840 C   0  0  0  0  0  0  0  0  0  0  0  0
  184.8280  178.3510  145.9930 C   0  0  0  0  0  3  0  0  0  0  0  0
  187.1760  177.8680  145.4950 C   0  0  0  0  0  0  0  0  0  0  0  0
  188.1820  177.6910  144.5420 C   0  0  0  0  0  3  0  0  0  0  0  0
  183.5320  178.6250  145.5550 C   0  0  0  0  0  3  0  0  0  0  0  0
  188.9130  177.6030  142.1490 C   0  0  0  0  0  3  0  0  0  0  0  0
  188.6480  177.6600  140.8450 C   0  0  0  0  0  3  0  0  0  0  0  0
  189.8110  178.6160  139.0390 F   0  0  0  0  0  0  0  0  0  0  0  0
  189.7130  177.4720  139.8130 C   0  0  1  0  0  0  0  0  0  0  0  0
  191.0460  177.2030  140.4950 C   0  0  0  0  0  1  0  0  0  0  0  0
  189.3250  176.2780  138.9430 C   0  0  0  0  0  2  0  0  0  0  0  0
  188.8010  176.6860  137.5700 C   0  0  2  0  0  3  0  0  0  0  0  0
  188.3690  175.2160  134.9650 C   0  0  0  0  0  2  0  0  0  0  0  0
  189.7190  175.2090  135.7060 C   0  0  2  0  0  3  0  0  0  0  0  0
  187.5160  175.9120  137.2440 C   0  0  0  0  0  2  0  0  0  0  0  0
  189.9100  176.4980  136.5230 C   0  0  1  0  0  3  0  0  0  0  0  0
  189.9480  177.6010  135.6860 F   0  0  0  0  0  0  0  0  0  0  0  0
  187.2450  175.9140  135.7430 C   0  0  0  0  0  2  0  0  0  0  0  0
  190.8900  174.9550  134.7440 C   0  0  0  0  0  3  0  0  0  0  0  0
  192.8220  175.0400  136.3480 C   0  0  0  0  0  2  0  0  0  0  0  0
  191.9890  172.9980  135.8750 C   0  0  0  0  0  2  0  0  0  0  0  0
  193.1850  173.7290  135.9930 O   0  0  0  0  0  0  0  0  0  0  0  0
  191.2180  173.4580  134.6360 C   0  0  0  0  0  2  0  0  0  0  0  0
  192.1460  175.7330  135.1630 C   0  0  0  0  0  2  0  0  0  0  0  0
  187.5240  177.7430  146.9490 C   0  0  0  0  0  2  0  0  0  0  0  0
  189.0080  177.9940  147.1910 C   0  0  1  0  0  3  0  0  0  0  0  0
  189.2120  178.6250  148.5570 C   0  0  0  0  0  1  0  0  0  0  0  0
  189.8430  176.7230  147.0510 C   0  0  0  0  0  2  0  0  0  0  0  0
  191.2670  174.6410  147.8580 O   0  0  0  0  0  1  0  0  0  0  0  0
  193.2020  176.0010  148.2290 O   0  0  0  0  0  1  0  0  0  0  0  0
  191.2660  177.0010  147.2310 N   0  0  0  0  0  0  0  0  0  0  0  0
  192.0270  175.7680  147.5190 C   0  0  0  0  0  0  0  0  0  0  0  0
  191.9640  176.2540  146.1570 C   0  0  0  0  0  2  0  0  0  0  0  0
  1  8  1  0  0  0  0
  2 13  1  0  0  0  0
  2 12  1  0  0  0  0
  3 14  1  0  0  0  0
  4 15  1  0  0  0  0
  5  9  1  0  0  0  0
  5  1  2  0  0  0  0
  6  1  1  0  0  0  0
  7 11  1  0  0  0  0
  7  4  1  0  0  0  0
  8  4  2  0  0  0  0
  9  7  2  0  0  0  0
 10  3  2  0  0  0  0
 10 11  1  0  0  0  0
 11  2  2  0  0  0  0
 13 35  1  0  0  0  0
 14 13  2  0  0  0  0
 15 12  2  0  0  0  0
 16  3  1  0  0  0  0
 17 16  2  0  0  0  0
 18 19  1  0  0  0  0
 19 20  1  1  0  0  0
 19 17  1  0  0  0  0
 21 19  1  0  0  0  0
 22 21  1  1  0  0  0
 23 24  1  0  0  0  0
 23 28  1  0  0  0  0
 24 29  1  6  0  0  0
 24 26  1  0  0  0  0
 25 22  1  0  0  0  0
 26 27  1  6  0  0  0
 26 22  1  0  0  0  0
 28 25  1  0  0  0  0
 29 34  1  0  0  0  0
 31 32  1  0  0  0  0
 32 30  1  0  0  0  0
 33 29  1  0  0  0  0
 33 31  1  0  0  0  0
 34 30  1  0  0  0  0
 35 36  1  0  0  0  0
 36 37  1  1  0  0  0
 38 36  1  0  0  0  0
 38 41  1  0  0  0  0
 41 42  1  0  0  0  0
 42 39  1  0  0  0  0
 42 40  1  0  0  0  0
 43 41  1  0  0  0  0
 43 42  1  0  0  0  0
M  END
>  <MODEL>
3

>  <REMARK>
 VINA RESULT:      -9.6      2.237      3.008
  Name = 
  9 active torsions:
  status: ('A' for Active; 'I' for Inactive)
    1  A    between atoms: C_1  and  C_9
    2  A    between atoms: C_1  and  C_35
    3  A    between atoms: C_2  and  C_13
    4  A    between atoms: C_3  and  C_4
    5  A    between atoms: C_3  and  C_12
    6  A    between atoms: C_6  and  C_12
    7  A    between atoms: C_9  and  N_32
    8  A    between atoms: C_11  and  C_14
    9  A    between atoms: C_34  and  C_35
                            x       y       z     vdW  Elec       q    Type
                         _______ _______ _______ _____ _____    ______ ____

>  <TORSDO>
F 9

$$$$
=
 OpenBabel10262422263D

 43 48  0  0  1  0  0  0  0  0999 V2000
  181.9450  178.9120  143.9100 C   0  0  0  0  0  0  0  0  0  0  0  0
  186.9550  178.2120  144.0650 C   0  0  0  0  0  0  0  0  0  0  0  0
  187.7340  177.8740  141.4080 C   0  0  0  0  0  0  0  0  0  0  0  0
  184.2400  178.6540  144.6400 C   0  0  0  0  0  0  0  0  0  0  0  0
  182.3430  178.7340  142.5820 C   0  0  0  0  0  3  0  0  0  0  0  0
  180.6390  179.1240  144.2020 F   0  0  0  0  0  0  0  0  0  0  0  0
  184.6500  178.4730  143.2970 C   0  0  0  0  0  0  0  0  0  0  0  0
  182.8910  178.8720  144.9380 C   0  0  0  0  0  3  0  0  0  0  0  0
  183.6890  178.5150  142.2760 C   0  0  0  0  0  3  0  0  0  0  0  0
  186.4290  178.0850  141.7250 N   0  0  0  0  0  0  0  0  0  0  0  0
  186.0100  178.2540  143.0100 C   0  0  0  0  0  0  0  0  0  0  0  0
  186.5270  178.4000  145.3870 C   0  0  0  0  0  3  0  0  0  0  0  0
  188.3080  177.9860  143.7600 C   0  0  0  0  0  0  0  0  0  0  0  0
  188.6940  177.8210  142.4270 C   0  0  0  0  0  3  0  0  0  0  0  0
  185.1790  178.6180  145.6720 C   0  0  0  0  0  3  0  0  0  0  0  0
  188.1040  177.7040  139.9970 C   0  0  0  0  0  3  0  0  0  0  0  0
  189.1090  176.9220  139.6050 C   0  0  0  0  0  3  0  0  0  0  0  0
  188.4190  176.1590  137.4920 F   0  0  0  0  0  0  0  0  0  0  0  0
  189.4700  176.7610  138.1640 C   0  0  1  0  0  0  0  0  0  0  0  0
  189.7520  178.1230  137.5500 C   0  0  0  0  0  1  0  0  0  0  0  0
  190.7180  175.8840  138.0820 C   0  0  0  0  0  2  0  0  0  0  0  0
  190.8730  175.1900  136.7340 C   0  0  2  0  0  3  0  0  0  0  0  0
  192.2300  172.6480  135.8240 C   0  0  0  0  0  2  0  0  0  0  0  0
  192.9650  173.7380  136.6280 C   0  0  2  0  0  3  0  0  0  0  0  0
  190.1930  173.8130  136.7680 C   0  0  0  0  0  2  0  0  0  0  0  0
  192.3610  175.1260  136.3590 C   0  0  1  0  0  3  0  0  0  0  0  0
  192.5180  175.4730  135.0270 F   0  0  0  0  0  0  0  0  0  0  0  0
  190.7280  172.9140  135.6590 C   0  0  0  0  0  2  0  0  0  0  0  0
  194.4790  173.7050  136.3690 C   0  0  0  0  0  3  0  0  0  0  0  0
  195.3390  174.4000  138.6260 C   0  0  0  0  0  2  0  0  0  0  0  0
  195.2230  172.1840  138.2270 C   0  0  0  0  0  2  0  0  0  0  0  0
  196.0580  173.1970  138.7320 O   0  0  0  0  0  0  0  0  0  0  0  0
  195.0810  172.3340  136.7100 C   0  0  0  0  0  2  0  0  0  0  0  0
  195.2110  174.8030  137.1550 C   0  0  0  0  0  2  0  0  0  0  0  0
  189.3550  177.9060  144.8320 C   0  0  0  0  0  2  0  0  0  0  0  0
  190.6840  177.4030  144.2800 C   0  0  1  0  0  3  0  0  0  0  0  0
  191.6760  178.5480  144.1880 C   0  0  0  0  0  1  0  0  0  0  0  0
  191.2590  176.2520  145.1040 C   0  0  0  0  0  2  0  0  0  0  0  0
  190.0650  176.2950  147.4670 O   0  0  0  0  0  1  0  0  0  0  0  0
  191.8800  177.5040  148.4560 O   0  0  0  0  0  1  0  0  0  0  0  0
  192.0980  176.7480  146.1920 N   0  0  0  0  0  0  0  0  0  0  0  0
  191.4340  176.5920  147.5020 C   0  0  0  0  0  0  0  0  0  0  0  0
  192.3680  175.5780  147.0610 C   0  0  0  0  0  2  0  0  0  0  0  0
  1  6  1  0  0  0  0
  1  8  1  0  0  0  0
  2 12  1  0  0  0  0
  3 10  2  0  0  0  0
  3 14  1  0  0  0  0
  4  8  2  0  0  0  0
  4 15  1  0  0  0  0
  5  1  2  0  0  0  0
  7  4  1  0  0  0  0
  9  5  1  0  0  0  0
  9  7  2  0  0  0  0
 10 11  1  0  0  0  0
 11  7  1  0  0  0  0
 11  2  2  0  0  0  0
 12 15  2  0  0  0  0
 13  2  1  0  0  0  0
 13 35  1  0  0  0  0
 14 13  2  0  0  0  0
 16  3  1  0  0  0  0
 17 16  2  0  0  0  0
 18 19  1  0  0  0  0
 19 20  1  6  0  0  0
 19 17  1  0  0  0  0
 21 19  1  0  0  0  0
 22 25  1  0  0  0  0
 22 21  1  1  0  0  0
 23 24  1  0  0  0  0
 24 29  1  6  0  0  0
 26 27  1  6  0  0  0
 26 24  1  0  0  0  0
 26 22  1  0  0  0  0
 28 23  1  0  0  0  0
 28 25  1  0  0  0  0
 29 33  1  0  0  0  0
 29 34  1  0  0  0  0
 30 32  1  0  0  0  0
 31 32  1  0  0  0  0
 33 31  1  0  0  0  0
 34 30  1  0  0  0  0
 36 37  1  1  0  0  0
 36 35  1  0  0  0  0
 36 38  1  0  0  0  0
 38 41  1  0  0  0  0
 39 42  1  0  0  0  0
 41 43  1  0  0  0  0
 41 42  1  0  0  0  0
 42 40  1  0  0  0  0
 43 42  1  0  0  0  0
M  END
>  <MODEL>
4

>  <REMARK>
 VINA RESULT:      -9.6      3.161      4.740
  Name = 
  9 active torsions:
  status: ('A' for Active; 'I' for Inactive)
    1  A    between atoms: C_1  and  C_9
    2  A    between atoms: C_1  and  C_35
    3  A    between atoms: C_2  and  C_13
    4  A    between atoms: C_3  and  C_4
    5  A    between atoms: C_3  and  C_12
    6  A    between atoms: C_6  and  C_12
    7  A    between atoms: C_9  and  N_32
    8  A    between atoms: C_11  and  C_14
    9  A    between atoms: C_34  and  C_35
                            x       y       z     vdW  Elec       q    Type
                         _______ _______ _______ _____ _____    ______ ____

>  <TORSDO>
F 9

$$$$
=
 OpenBabel10262422263D

 43 48  0  0  1  0  0  0  0  0999 V2000
  188.7300  177.2490  146.8260 C   0  0  0  0  0  0  0  0  0  0  0  0
  188.7660  178.0150  141.8230 C   0  0  0  0  0  0  0  0  0  0  0  0
  186.1090  178.5090  141.1340 C   0  0  0  0  0  0  0  0  0  0  0  0
  189.4030  177.5130  144.5150 C   0  0  0  0  0  0  0  0  0  0  0  0
  187.4000  177.4890  146.4710 C   0  0  0  0  0  3  0  0  0  0  0  0
  189.0510  177.0030  148.1190 F   0  0  0  0  0  0  0  0  0  0  0  0
  188.0580  177.7580  144.1470 C   0  0  0  0  0  0  0  0  0  0  0  0
  189.7300  177.2610  145.8500 C   0  0  0  0  0  3  0  0  0  0  0  0
  187.0640  177.7430  145.1380 C   0  0  0  0  0  3  0  0  0  0  0  0
  186.4540  178.2570  142.4250 N   0  0  0  0  0  0  0  0  0  0  0  0
  187.7410  178.0110  142.8000 C   0  0  0  0  0  0  0  0  0  0  0  0
  190.0930  177.7750  142.2110 C   0  0  0  0  0  3  0  0  0  0  0  0
  188.4300  178.2630  140.4810 C   0  0  0  0  0  0  0  0  0  0  0  0
  187.0980  178.5140  140.1420 C   0  0  0  0  0  3  0  0  0  0  0  0
  190.4080  177.5260  143.5470 C   0  0  0  0  0  3  0  0  0  0  0  0
  184.6990  178.7670  140.8130 C   0  0  0  0  0  3  0  0  0  0  0  0
  183.7030  178.0260  141.2980 C   0  0  0  0  0  3  0  0  0  0  0  0
  181.6460  177.1210  140.6090 F   0  0  0  0  0  0  0  0  0  0  0  0
  182.2750  178.3050  140.9590 C   0  0  1  0  0  0  0  0  0  0  0  0
  181.5720  178.9170  142.1610 C   0  0  0  0  0  1  0  0  0  0  0  0
  182.2470  179.2830  139.7870 C   0  0  0  0  0  2  0  0  0  0  0  0
  181.3180  178.8410  138.6610 C   0  0  2  0  0  3  0  0  0  0  0  0
  180.7480  179.8750  135.8800 C   0  0  0  0  0  2  0  0  0  0  0  0
  180.6660  180.7710  137.1300 C   0  0  2  0  0  3  0  0  0  0  0  0
  182.1380  178.4360  137.4280 C   0  0  0  0  0  2  0  0  0  0  0  0
  180.2950  179.9510  138.3770 C   0  0  1  0  0  3  0  0  0  0  0  0
  179.0350  179.3940  138.2330 F   0  0  0  0  0  0  0  0  0  0  0  0
  181.2780  178.4640  136.1700 C   0  0  0  0  0  2  0  0  0  0  0  0
  179.7140  181.9570  136.9130 C   0  0  0  0  0  3  0  0  0  0  0  0
  181.2650  183.8770  137.3880 C   0  0  0  0  0  2  0  0  0  0  0  0
  181.0210  183.2850  135.2260 C   0  0  0  0  0  2  0  0  0  0  0  0
  181.0410  184.3880  136.0980 O   0  0  0  0  0  0  0  0  0  0  0  0
  179.7550  182.4570  135.4610 C   0  0  0  0  0  2  0  0  0  0  0  0
  180.0260  183.1170  137.8700 C   0  0  0  0  0  2  0  0  0  0  0  0
  189.4660  178.2570  139.3960 C   0  0  0  0  0  2  0  0  0  0  0  0
  189.6670  176.8570  138.8240 C   0  0  1  0  0  3  0  0  0  0  0  0
  189.2490  176.8270  137.3650 C   0  0  0  0  0  1  0  0  0  0  0  0
  191.1020  176.3630  138.9870 C   0  0  0  0  0  2  0  0  0  0  0  0
  193.7280  176.6860  139.1010 O   0  0  0  0  0  1  0  0  0  0  0  0
  193.9090  176.7450  136.7150 O   0  0  0  0  0  1  0  0  0  0  0  0
  191.7770  176.2580  137.6960 N   0  0  0  0  0  0  0  0  0  0  0  0
  193.2460  176.2830  137.8490 C   0  0  0  0  0  0  0  0  0  0  0  0
  192.5690  175.0070  137.7520 C   0  0  0  0  0  2  0  0  0  0  0  0
  1  6  1  0  0  0  0
  2 12  1  0  0  0  0
  2 11  1  0  0  0  0
  3 10  1  0  0  0  0
  4  8  1  0  0  0  0
  5  1  1  0  0  0  0
  7  4  2  0  0  0  0
  7  9  1  0  0  0  0
  8  1  2  0  0  0  0
  9  5  2  0  0  0  0
 10 11  2  0  0  0  0
 11  7  1  0  0  0  0
 12 15  2  0  0  0  0
 13  2  2  0  0  0  0
 14 13  1  0  0  0  0
 14  3  2  0  0  0  0
 15  4  1  0  0  0  0
 16  3  1  0  0  0  0
 16 17  2  0  0  0  0
 18 19  1  0  0  0  0
 19 17  1  0  0  0  0
 19 20  1  1  0  0  0
 21 19  1  0  0  0  0
 22 21  1  1  0  0  0
 23 28  1  0  0  0  0
 23 24  1  0  0  0  0
 24 29  1  6  0  0  0
 24 26  1  0  0  0  0
 25 22  1  0  0  0  0
 26 27  1  6  0  0  0
 26 22  1  0  0  0  0
 28 25  1  0  0  0  0
 29 34  1  0  0  0  0
 30 34  1  0  0  0  0
 31 33  1  0  0  0  0
 31 32  1  0  0  0  0
 32 30  1  0  0  0  0
 33 29  1  0  0  0  0
 35 13  1  0  0  0  0
 36 37  1  6  0  0  0
 36 38  1  0  0  0  0
 36 35  1  0  0  0  0
 40 42  1  0  0  0  0
 41 43  1  0  0  0  0
 41 42  1  0  0  0  0
 41 38  1  0  0  0  0
 42 39  1  0  0  0  0
 43 42  1  0  0  0  0
M  END
>  <MODEL>
5

>  <REMARK>
 VINA RESULT:      -9.6      4.623      7.866
  Name = 
  9 active torsions:
  status: ('A' for Active; 'I' for Inactive)
    1  A    between atoms: C_1  and  C_9
    2  A    between atoms: C_1  and  C_35
    3  A    between atoms: C_2  and  C_13
    4  A    between atoms: C_3  and  C_4
    5  A    between atoms: C_3  and  C_12
    6  A    between atoms: C_6  and  C_12
    7  A    between atoms: C_9  and  N_32
    8  A    between atoms: C_11  and  C_14
    9  A    between atoms: C_34  and  C_35
                            x       y       z     vdW  Elec       q    Type
                         _______ _______ _______ _____ _____    ______ ____

>  <TORSDO>
F 9

$$$$
=
 OpenBabel10262422263D

 43 48  0  0  1  0  0  0  0  0999 V2000
  191.2290  176.7130  146.9650 C   0  0  0  0  0  0  0  0  0  0  0  0
  186.9230  177.8810  144.5750 C   0  0  0  0  0  0  0  0  0  0  0  0
  187.6160  178.1220  141.8840 C   0  0  0  0  0  0  0  0  0  0  0  0
  188.9210  177.2270  146.4410 C   0  0  0  0  0  0  0  0  0  0  0  0
  191.5690  176.8440  145.6160 C   0  0  0  0  0  3  0  0  0  0  0  0
  192.1820  176.4010  147.8750 F   0  0  0  0  0  0  0  0  0  0  0  0
  189.2580  177.3610  145.0720 C   0  0  0  0  0  0  0  0  0  0  0  0
  189.9070  176.9050  147.3770 C   0  0  0  0  0  3  0  0  0  0  0  0
  190.5890  177.1660  144.6730 C   0  0  0  0  0  3  0  0  0  0  0  0
  188.5570  177.8120  142.8150 N   0  0  0  0  0  0  0  0  0  0  0  0
  188.2560  177.6860  144.1390 C   0  0  0  0  0  0  0  0  0  0  0  0
  186.6110  177.7380  145.9350 C   0  0  0  0  0  3  0  0  0  0  0  0
  185.9370  178.2120  143.6290 C   0  0  0  0  0  0  0  0  0  0  0  0
  186.2890  178.3270  142.2820 C   0  0  0  0  0  3  0  0  0  0  0  0
  187.6030  177.4140  146.8600 C   0  0  0  0  0  3  0  0  0  0  0  0
  188.0210  178.2370  140.4770 C   0  0  0  0  0  3  0  0  0  0  0  0
  188.7110  177.2880  139.8460 C   0  0  0  0  0  3  0  0  0  0  0  0
  188.0780  176.9920  137.6020 F   0  0  0  0  0  0  0  0  0  0  0  0
  189.1140  177.4240  138.4130 C   0  0  1  0  0  0  0  0  0  0  0  0
  189.4300  178.8790  138.1040 C   0  0  0  0  0  1  0  0  0  0  0  0
  190.3560  176.5630  138.1860 C   0  0  0  0  0  2  0  0  0  0  0  0
  190.2860  175.7430  136.9030 C   0  0  2  0  0  3  0  0  0  0  0  0
  191.4200  173.0740  136.0520 C   0  0  0  0  0  2  0  0  0  0  0  0
  192.2970  174.2010  136.6300 C   0  0  2  0  0  3  0  0  0  0  0  0
  189.5810  174.4050  137.1690 C   0  0  0  0  0  2  0  0  0  0  0  0
  191.6990  175.5830  136.3210 C   0  0  1  0  0  3  0  0  0  0  0  0
  191.6630  175.8010  134.9530 F   0  0  0  0  0  0  0  0  0  0  0  0
  189.9190  173.3870  136.0850 C   0  0  0  0  0  2  0  0  0  0  0  0
  193.7540  174.0820  136.1560 C   0  0  0  0  0  3  0  0  0  0  0  0
  194.9650  174.8920  138.2030 C   0  0  0  0  0  2  0  0  0  0  0  0
  194.7140  172.6610  137.9940 C   0  0  0  0  0  2  0  0  0  0  0  0
  195.6490  173.6680  138.2940 O   0  0  0  0  0  0  0  0  0  0  0  0
  194.3520  172.7110  136.5070 C   0  0  0  0  0  2  0  0  0  0  0  0
  194.6330  175.1980  136.7410 C   0  0  0  0  0  2  0  0  0  0  0  0
  184.5120  178.4550  144.0300 C   0  0  0  0  0  2  0  0  0  0  0  0
  183.6780  178.9520  142.8540 C   0  0  1  0  0  3  0  0  0  0  0  0
  183.6210  177.8890  141.7720 C   0  0  0  0  0  1  0  0  0  0  0  0
  182.2720  179.3740  143.2740 C   0  0  0  0  0  2  0  0  0  0  0  0
  180.1000  178.2990  144.3420 O   0  0  0  0  0  1  0  0  0  0  0  0
  179.2940  177.5940  142.2010 O   0  0  0  0  0  1  0  0  0  0  0  0
  181.2750  178.9400  142.2990 N   0  0  0  0  0  0  0  0  0  0  0  0
  180.0270  178.5050  142.9580 C   0  0  0  0  0  0  0  0  0  0  0  0
  180.1240  179.8600  142.4590 C   0  0  0  0  0  2  0  0  0  0  0  0
  1  8  1  0  0  0  0
  1  6  1  0  0  0  0
  2 12  1  0  0  0  0
  3 14  2  0  0  0  0
  3 10  1  0  0  0  0
  4 15  1  0  0  0  0
  4  8  2  0  0  0  0
  5  1  2  0  0  0  0
  7  4  1  0  0  0  0
  9  7  2  0  0  0  0
  9  5  1  0  0  0  0
 10 11  2  0  0  0  0
 11  2  1  0  0  0  0
 11  7  1  0  0  0  0
 12 15  2  0  0  0  0
 13 35  1  0  0  0  0
 13  2  2  0  0  0  0
 14 13  1  0  0  0  0
 16  3  1  0  0  0  0
 17 16  2  0  0  0  0
 18 19  1  0  0  0  0
 19 20  1  6  0  0  0
 19 17  1  0  0  0  0
 21 19  1  0  0  0  0
 22 25  1  0  0  0  0
 22 21  1  1  0  0  0
 23 28  1  0  0  0  0
 23 24  1  0  0  0  0
 24 29  1  6  0  0  0
 26 27  1  6  0  0  0
 26 24  1  0  0  0  0
 26 22  1  0  0  0  0
 28 25  1  0  0  0  0
 29 33  1  0  0  0  0
 29 34  1  0  0  0  0
 30 32  1  0  0  0  0
 31 32  1  0  0  0  0
 33 31  1  0  0  0  0
 34 30  1  0  0  0  0
 36 37  1  6  0  0  0
 36 38  1  0  0  0  0
 36 35  1  0  0  0  0
 40 42  1  0  0  0  0
 41 43  1  0  0  0  0
 41 42  1  0  0  0  0
 41 38  1  0  0  0  0
 42 39  1  0  0  0  0
 43 42  1  0  0  0  0
M  END
>  <MODEL>
6

>  <REMARK>
 VINA RESULT:      -9.5      3.873      7.316
  Name = 
  9 active torsions:
  status: ('A' for Active; 'I' for Inactive)
    1  A    between atoms: C_1  and  C_9
    2  A    between atoms: C_1  and  C_35
    3  A    between atoms: C_2  and  C_13
    4  A    between atoms: C_3  and  C_4
    5  A    between atoms: C_3  and  C_12
    6  A    between atoms: C_6  and  C_12
    7  A    between atoms: C_9  and  N_32
    8  A    between atoms: C_11  and  C_14
    9  A    between atoms: C_34  and  C_35
                            x       y       z     vdW  Elec       q    Type
                         _______ _______ _______ _____ _____    ______ ____

>  <TORSDO>
F 9

$$$$
=
 OpenBabel10262422263D

 43 48  0  0  1  0  0  0  0  0999 V2000
  184.5700  178.6230  145.5530 C   0  0  0  0  0  0  0  0  0  0  0  0
  182.5290  179.0640  140.9430 C   0  0  0  0  0  0  0  0  0  0  0  0
  184.6110  178.5380  139.1620 C   0  0  0  0  0  0  0  0  0  0  0  0
  183.0430  178.9650  143.7040 C   0  0  0  0  0  0  0  0  0  0  0  0
  185.6090  178.3680  144.6540 C   0  0  0  0  0  3  0  0  0  0  0  0
  184.8040  178.5800  146.8870 F   0  0  0  0  0  0  0  0  0  0  0  0
  184.0910  178.7080  142.7870 C   0  0  0  0  0  0  0  0  0  0  0  0
  183.2890  178.9200  145.0790 C   0  0  0  0  0  3  0  0  0  0  0  0
  185.3720  178.4110  143.2770 C   0  0  0  0  0  3  0  0  0  0  0  0
  184.8240  178.5040  140.5040 N   0  0  0  0  0  0  0  0  0  0  0  0
  183.8320  178.7560  141.4050 C   0  0  0  0  0  0  0  0  0  0  0  0
  181.5050  179.3090  141.8690 C   0  0  0  0  0  3  0  0  0  0  0  0
  182.2900  179.1130  139.5580 C   0  0  0  0  0  0  0  0  0  0  0  0
  183.3360  178.8450  138.6710 C   0  0  0  0  0  3  0  0  0  0  0  0
  181.7610  179.2600  143.2390 C   0  0  0  0  0  3  0  0  0  0  0  0
  185.7330  178.2530  138.2580 C   0  0  0  0  0  3  0  0  0  0  0  0
  185.9280  177.0550  137.7090 C   0  0  0  0  0  3  0  0  0  0  0  0
  186.6480  175.9890  135.7410 F   0  0  0  0  0  0  0  0  0  0  0  0
  187.0760  176.7840  136.7900 C   0  0  1  0  0  0  0  0  0  0  0  0
  187.6180  178.0970  136.2460 C   0  0  0  0  0  1  0  0  0  0  0  0
  188.1620  176.0650  137.5890 C   0  0  0  0  0  2  0  0  0  0  0  0
  189.4400  176.8840  137.7300 C   0  0  2  0  0  3  0  0  0  0  0  0
  191.6570  176.9790  139.7820 C   0  0  0  0  0  2  0  0  0  0  0  0
  190.1710  177.1240  140.1600 C   0  0  2  0  0  3  0  0  0  0  0  0
  190.6660  175.9610  137.6880 C   0  0  0  0  0  2  0  0  0  0  0  0
  189.3620  177.7370  139.0060 C   0  0  1  0  0  3  0  0  0  0  0  0
  189.8050  179.0210  138.7320 F   0  0  0  0  0  0  0  0  0  0  0  0
  191.8830  176.6440  138.3010 C   0  0  0  0  0  2  0  0  0  0  0  0
  189.9960  177.9080  141.4700 C   0  0  0  0  0  3  0  0  0  0  0  0
  188.4230  176.3850  142.7030 C   0  0  0  0  0  2  0  0  0  0  0  0
  190.6210  176.1400  143.1430 C   0  0  0  0  0  2  0  0  0  0  0  0
  189.3550  176.2530  143.7470 O   0  0  0  0  0  0  0  0  0  0  0  0
  191.0260  177.4810  142.5260 C   0  0  0  0  0  2  0  0  0  0  0  0
  188.5770  177.7540  142.0370 C   0  0  0  0  0  2  0  0  0  0  0  0
  180.9390  179.4570  139.0040 C   0  0  0  0  0  2  0  0  0  0  0  0
  181.0350  179.9520  137.5650 C   0  0  1  0  0  3  0  0  0  0  0  0
  180.5910  178.8600  136.6090 C   0  0  0  0  0  1  0  0  0  0  0  0
  180.2350  181.2330  137.3350 C   0  0  0  0  0  2  0  0  0  0  0  0
  180.5200  183.2780  135.6780 O   0  0  0  0  0  1  0  0  0  0  0  0
  181.9350  184.4400  137.2210 O   0  0  0  0  0  1  0  0  0  0  0  0
  180.9070  182.3900  137.9200 N   0  0  0  0  0  0  0  0  0  0  0  0
  180.8870  183.5480  137.0030 C   0  0  0  0  0  0  0  0  0  0  0  0
  179.8740  183.4470  138.0310 C   0  0  0  0  0  2  0  0  0  0  0  0
  1  6  1  0  0  0  0
  2 11  1  0  0  0  0
  2 12  1  0  0  0  0
  3 10  1  0  0  0  0
  4  8  2  0  0  0  0
  5  1  2  0  0  0  0
  7  9  2  0  0  0  0
  7  4  1  0  0  0  0
  8  1  1  0  0  0  0
  9  5  1  0  0  0  0
 10 11  2  0  0  0  0
 11  7  1  0  0  0  0
 12 15  2  0  0  0  0
 13  2  2  0  0  0  0
 14  3  2  0  0  0  0
 14 13  1  0  0  0  0
 15  4  1  0  0  0  0
 16  3  1  0  0  0  0
 17 16  2  0  0  0  0
 18 19  1  0  0  0  0
 19 20  1  6  0  0  0
 19 21  1  0  0  0  0
 19 17  1  0  0  0  0
 22 21  1  1  0  0  0
 22 26  1  0  0  0  0
 23 24  1  0  0  0  0
 24 29  1  1  0  0  0
 25 22  1  0  0  0  0
 25 28  1  0  0  0  0
 26 27  1  6  0  0  0
 26 24  1  0  0  0  0
 28 23  1  0  0  0  0
 29 34  1  0  0  0  0
 29 33  1  0  0  0  0
 30 32  1  0  0  0  0
 31 32  1  0  0  0  0
 33 31  1  0  0  0  0
 34 30  1  0  0  0  0
 35 13  1  0  0  0  0
 36 37  1  6  0  0  0
 36 35  1  0  0  0  0
 38 36  1  0  0  0  0
 38 41  1  0  0  0  0
 39 42  1  0  0  0  0
 41 43  1  0  0  0  0
 42 40  1  0  0  0  0
 42 41  1  0  0  0  0
 42 43  1  0  0  0  0
M  END
>  <MODEL>
7

>  <REMARK>
 VINA RESULT:      -9.4      3.991      8.336
  Name = 
  9 active torsions:
  status: ('A' for Active; 'I' for Inactive)
    1  A    between atoms: C_1  and  C_9
    2  A    between atoms: C_1  and  C_35
    3  A    between atoms: C_2  and  C_13
    4  A    between atoms: C_3  and  C_4
    5  A    between atoms: C_3  and  C_12
    6  A    between atoms: C_6  and  C_12
    7  A    between atoms: C_9  and  N_32
    8  A    between atoms: C_11  and  C_14
    9  A    between atoms: C_34  and  C_35
                            x       y       z     vdW  Elec       q    Type
                         _______ _______ _______ _____ _____    ______ ____

>  <TORSDO>
F 9

$$$$
=
 OpenBabel10262422263D

 43 48  0  0  1  0  0  0  0  0999 V2000
  191.2930  176.2620  146.8300 C   0  0  0  0  0  0  0  0  0  0  0  0
  187.7030  178.1020  143.7740 C   0  0  0  0  0  0  0  0  0  0  0  0
  188.6740  177.7270  141.1870 C   0  0  0  0  0  0  0  0  0  0  0  0
  189.2700  177.2610  145.9510 C   0  0  0  0  0  0  0  0  0  0  0  0
  191.7760  176.0850  145.5310 C   0  0  0  0  0  3  0  0  0  0  0  0
  192.0390  175.8630  147.8880 F   0  0  0  0  0  0  0  0  0  0  0  0
  189.7520  177.0860  144.6310 C   0  0  0  0  0  0  0  0  0  0  0  0
  190.0420  176.8490  147.0400 C   0  0  0  0  0  3  0  0  0  0  0  0
  191.0100  176.4950  144.4350 C   0  0  0  0  0  3  0  0  0  0  0  0
  189.4060  177.3380  142.2640 N   0  0  0  0  0  0  0  0  0  0  0  0
  188.9650  177.5050  143.5430 C   0  0  0  0  0  0  0  0  0  0  0  0
  187.2420  178.2610  145.0900 C   0  0  0  0  0  3  0  0  0  0  0  0
  186.9330  178.5210  142.6750 C   0  0  0  0  0  0  0  0  0  0  0  0
  187.4230  178.3270  141.3810 C   0  0  0  0  0  3  0  0  0  0  0  0
  188.0210  177.8440  146.1690 C   0  0  0  0  0  3  0  0  0  0  0  0
  189.2200  177.5100  139.8410 C   0  0  0  0  0  3  0  0  0  0  0  0
  188.4650  177.1360  138.8090 C   0  0  0  0  0  3  0  0  0  0  0  0
  188.1360  176.2090  136.6740 F   0  0  0  0  0  0  0  0  0  0  0  0
  189.0390  176.9210  137.4460 C   0  0  1  0  0  0  0  0  0  0  0  0
  189.3230  178.2640  136.7900 C   0  0  0  0  0  1  0  0  0  0  0  0
  190.3390  176.1320  137.5990 C   0  0  0  0  0  2  0  0  0  0  0  0
  190.6650  175.2780  136.3790 C   0  0  2  0  0  3  0  0  0  0  0  0
  192.3810  172.8320  135.9260 C   0  0  0  0  0  2  0  0  0  0  0  0
  192.9220  174.1130  136.5900 C   0  0  2  0  0  3  0  0  0  0  0  0
  190.1590  173.8440  136.5880 C   0  0  0  0  0  2  0  0  0  0  0  0
  192.1720  175.3570  136.0880 C   0  0  1  0  0  3  0  0  0  0  0  0
  192.3720  175.5280  134.7280 F   0  0  0  0  0  0  0  0  0  0  0  0
  190.8720  172.8730  135.6530 C   0  0  0  0  0  2  0  0  0  0  0  0
  194.4430  174.2420  136.4110 C   0  0  0  0  0  3  0  0  0  0  0  0
  195.2270  173.5980  138.7090 C   0  0  0  0  0  2  0  0  0  0  0  0
  195.1840  171.9610  137.1600 C   0  0  0  0  0  2  0  0  0  0  0  0
  195.9770  172.5400  138.1670 O   0  0  0  0  0  0  0  0  0  0  0  0
  195.0750  172.9150  135.9670 C   0  0  0  0  0  2  0  0  0  0  0  0
  195.1240  174.7390  137.6940 C   0  0  0  0  0  2  0  0  0  0  0  0
  185.5980  179.1820  142.8540 C   0  0  0  0  0  2  0  0  0  0  0  0
  184.4640  178.1620  142.8430 C   0  0  1  0  0  3  0  0  0  0  0  0
  183.3400  178.6260  143.7500 C   0  0  0  0  0  1  0  0  0  0  0  0
  183.9440  177.8850  141.4330 C   0  0  0  0  0  2  0  0  0  0  0  0
  185.0480  178.2670  139.0570 O   0  0  0  0  0  1  0  0  0  0  0  0
  184.1850  180.4960  138.9200 O   0  0  0  0  0  1  0  0  0  0  0  0
  183.5300  179.1190  140.7700 N   0  0  0  0  0  0  0  0  0  0  0  0
  184.0490  179.1910  139.3890 C   0  0  0  0  0  0  0  0  0  0  0  0
  182.7060  178.7000  139.6120 C   0  0  0  0  0  2  0  0  0  0  0  0
  1  8  1  0  0  0  0
  1  6  1  0  0  0  0
  2 12  1  0  0  0  0
  3 14  2  0  0  0  0
  3 10  1  0  0  0  0
  4 15  1  0  0  0  0
  4  8  2  0  0  0  0
  5  1  2  0  0  0  0
  7  4  1  0  0  0  0
  9  7  2  0  0  0  0
  9  5  1  0  0  0  0
 10 11  2  0  0  0  0
 11  2  1  0  0  0  0
 11  7  1  0  0  0  0
 12 15  2  0  0  0  0
 13 35  1  0  0  0  0
 13  2  2  0  0  0  0
 14 13  1  0  0  0  0
 16  3  1  0  0  0  0
 17 16  2  0  0  0  0
 18 19  1  0  0  0  0
 19 20  1  6  0  0  0
 19 21  1  0  0  0  0
 19 17  1  0  0  0  0
 22 25  1  0  0  0  0
 22 21  1  1  0  0  0
 23 24  1  0  0  0  0
 24 29  1  6  0  0  0
 26 27  1  6  0  0  0
 26 22  1  0  0  0  0
 26 24  1  0  0  0  0
 28 23  1  0  0  0  0
 28 25  1  0  0  0  0
 29 34  1  0  0  0  0
 31 32  1  0  0  0  0
 32 30  1  0  0  0  0
 33 29  1  0  0  0  0
 33 31  1  0  0  0  0
 34 30  1  0  0  0  0
 36 35  1  0  0  0  0
 36 37  1  1  0  0  0
 38 36  1  0  0  0  0
 39 42  1  0  0  0  0
 40 42  1  0  0  0  0
 41 38  1  0  0  0  0
 42 43  1  0  0  0  0
 42 41  1  0  0  0  0
 43 41  1  0  0  0  0
M  END
>  <MODEL>
8

>  <REMARK>
 VINA RESULT:      -9.3      3.853      7.226
  Name = 
  9 active torsions:
  status: ('A' for Active; 'I' for Inactive)
    1  A    between atoms: C_1  and  C_9
    2  A    between atoms: C_1  and  C_35
    3  A    between atoms: C_2  and  C_13
    4  A    between atoms: C_3  and  C_4
    5  A    between atoms: C_3  and  C_12
    6  A    between atoms: C_6  and  C_12
    7  A    between atoms: C_9  and  N_32
    8  A    between atoms: C_11  and  C_14
    9  A    between atoms: C_34  and  C_35
                            x       y       z     vdW  Elec       q    Type
                         _______ _______ _______ _____ _____    ______ ____

>  <TORSDO>
F 9

$$$$
=
 OpenBabel10262422263D

 43 48  0  0  1  0  0  0  0  0999 V2000
  190.1530  177.1370  146.8350 C   0  0  0  0  0  0  0  0  0  0  0  0
  189.2300  177.8620  141.9120 C   0  0  0  0  0  0  0  0  0  0  0  0
  186.4990  178.3990  141.7450 C   0  0  0  0  0  0  0  0  0  0  0  0
  190.3690  177.3700  144.4340 C   0  0  0  0  0  0  0  0  0  0  0  0
  188.7830  177.3990  146.7410 C   0  0  0  0  0  3  0  0  0  0  0  0
  190.7140  176.8960  148.0440 F   0  0  0  0  0  0  0  0  0  0  0  0
  188.9820  177.6370  144.3320 C   0  0  0  0  0  0  0  0  0  0  0  0
  190.9450  177.1220  145.6830 C   0  0  0  0  0  3  0  0  0  0  0  0
  188.2000  177.6480  145.4960 C   0  0  0  0  0  3  0  0  0  0  0  0
  187.0830  178.1510  142.9470 N   0  0  0  0  0  0  0  0  0  0  0  0
  188.4140  177.8850  143.0680 C   0  0  0  0  0  0  0  0  0  0  0  0
  190.6030  177.6010  142.0370 C   0  0  0  0  0  3  0  0  0  0  0  0
  188.6450  178.1050  140.6570 C   0  0  0  0  0  0  0  0  0  0  0  0
  187.2770  178.3780  140.5800 C   0  0  0  0  0  3  0  0  0  0  0  0
  191.1670  177.3570  143.2900 C   0  0  0  0  0  3  0  0  0  0  0  0
  185.0580  178.6800  141.7000 C   0  0  0  0  0  3  0  0  0  0  0  0
  184.2230  178.0320  140.8890 C   0  0  0  0  0  3  0  0  0  0  0  0
  182.0560  177.1680  140.5930 F   0  0  0  0  0  0  0  0  0  0  0  0
  182.7590  178.3320  140.8590 C   0  0  1  0  0  0  0  0  0  0  0  0
  182.3220  178.8940  142.2030 C   0  0  0  0  0  1  0  0  0  0  0  0
  182.5090  179.3620  139.7580 C   0  0  0  0  0  2  0  0  0  0  0  0
  181.5170  178.8800  138.7050 C   0  0  2  0  0  3  0  0  0  0  0  0
  180.7570  179.8410  135.9420 C   0  0  0  0  0  2  0  0  0  0  0  0
  180.7400  180.7650  137.1750 C   0  0  2  0  0  3  0  0  0  0  0  0
  182.2640  178.4580  137.4310 C   0  0  0  0  0  2  0  0  0  0  0  0
  180.4620  179.9690  138.4610 C   0  0  1  0  0  3  0  0  0  0  0  0
  179.2040  179.3920  138.4100 F   0  0  0  0  0  0  0  0  0  0  0  0
  181.3260  178.4450  136.2300 C   0  0  0  0  0  2  0  0  0  0  0  0
  179.7580  181.9320  136.9920 C   0  0  0  0  0  3  0  0  0  0  0  0
  181.2920  183.8820  137.3920 C   0  0  0  0  0  2  0  0  0  0  0  0
  180.9690  183.2740  135.2450 C   0  0  0  0  0  2  0  0  0  0  0  0
  181.0050  184.3820  136.1100 O   0  0  0  0  0  0  0  0  0  0  0  0
  179.7290  182.4240  135.5370 C   0  0  0  0  0  2  0  0  0  0  0  0
  180.0900  183.1030  137.9300 C   0  0  0  0  0  2  0  0  0  0  0  0
  189.4500  178.0710  139.3920 C   0  0  0  0  0  2  0  0  0  0  0  0
  188.5570  177.9160  138.1660 C   0  0  1  0  0  3  0  0  0  0  0  0
  188.9490  178.9290  137.1060 C   0  0  0  0  0  1  0  0  0  0  0  0
  188.5880  176.4990  137.5980 C   0  0  0  0  0  2  0  0  0  0  0  0
  187.8740  176.3070  135.0560 O   0  0  0  0  0  1  0  0  0  0  0  0
  185.6080  175.8050  135.6410 O   0  0  0  0  0  1  0  0  0  0  0  0
  187.2380  175.9810  137.3910 N   0  0  0  0  0  0  0  0  0  0  0  0
  186.9630  175.7440  135.9590 C   0  0  0  0  0  0  0  0  0  0  0  0
  187.4060  174.6400  136.7830 C   0  0  0  0  0  2  0  0  0  0  0  0
  1  6  1  0  0  0  0
  2 12  1  0  0  0  0
  2 11  1  0  0  0  0
  3 10  1  0  0  0  0
  4  8  1  0  0  0  0
  5  1  1  0  0  0  0
  7  4  2  0  0  0  0
  7  9  1  0  0  0  0
  8  1  2  0  0  0  0
  9  5  2  0  0  0  0
 10 11  2  0  0  0  0
 11  7  1  0  0  0  0
 12 15  2  0  0  0  0
 13  2  2  0  0  0  0
 14 13  1  0  0  0  0
 14  3  2  0  0  0  0
 15  4  1  0  0  0  0
 16  3  1  0  0  0  0
 17 16  2  0  0  0  0
 18 19  1  0  0  0  0
 19 17  1  0  0  0  0
 19 20  1  1  0  0  0
 21 19  1  0  0  0  0
 22 21  1  1  0  0  0
 23 28  1  0  0  0  0
 23 24  1  0  0  0  0
 24 29  1  6  0  0  0
 24 26  1  0  0  0  0
 25 22  1  0  0  0  0
 26 27  1  6  0  0  0
 26 22  1  0  0  0  0
 28 25  1  0  0  0  0
 29 34  1  0  0  0  0
 30 34  1  0  0  0  0
 31 33  1  0  0  0  0
 31 32  1  0  0  0  0
 32 30  1  0  0  0  0
 33 29  1  0  0  0  0
 35 13  1  0  0  0  0
 36 37  1  6  0  0  0
 36 35  1  0  0  0  0
 38 36  1  0  0  0  0
 39 42  1  0  0  0  0
 40 42  1  0  0  0  0
 41 38  1  0  0  0  0
 42 43  1  0  0  0  0
 42 41  1  0  0  0  0
 43 41  1  0  0  0  0
M  END
>  <MODEL>
9

>  <REMARK>
 VINA RESULT:      -9.2      4.311      8.393
  Name = 
  9 active torsions:
  status: ('A' for Active; 'I' for Inactive)
    1  A    between atoms: C_1  and  C_9
    2  A    between atoms: C_1  and  C_35
    3  A    between atoms: C_2  and  C_13
    4  A    between atoms: C_3  and  C_4
    5  A    between atoms: C_3  and  C_12
    6  A    between atoms: C_6  and  C_12
    7  A    between atoms: C_9  and  N_32
    8  A    between atoms: C_11  and  C_14
    9  A    between atoms: C_34  and  C_35
                            x       y       z     vdW  Elec       q    Type
                         _______ _______ _______ _____ _____    ______ ____

>  <TORSDO>
F 9

$$$$
