=
 OpenBabel10262419593D

 27 31  0  0  1  0  0  0  0  0999 V2000
  187.3080  177.6700  143.9430 N   0  0  2  0  0  0  0  0  0  0  0  0
  187.2090  178.6940  141.9520 C   0  0  1  0  0  3  0  0  0  0  0  0
  188.6070  177.4530  143.3160 C   0  0  1  0  0  3  0  0  0  0  0  0
  188.9580  177.2230  138.0330 C   0  0  0  0  0  3  0  0  0  0  0  0
  191.2020  176.1670  138.2790 C   0  0  0  0  0  1  0  0  0  0  0  0
  186.7070  178.7490  140.6130 N   0  0  0  0  0  2  0  0  0  0  0  0
  189.9650  177.1460  140.2620 C   0  0  0  0  0  0  0  0  0  0  0  0
  191.0850  176.7810  141.1770 C   0  0  0  0  0  1  0  0  0  0  0  0
  188.8250  177.7990  140.7450 C   0  0  0  0  0  0  0  0  0  0  0  0
  186.4890  178.3900  143.0200 C   0  0  1  0  0  3  0  0  0  0  0  0
  190.0230  176.8570  138.8790 C   0  0  0  0  0  0  0  0  0  0  0  0
  187.8240  177.8750  138.5430 C   0  0  0  0  0  3  0  0  0  0  0  0
  187.4070  178.0720  145.3330 C   0  0  0  0  0  2  0  0  0  0  0  0
  188.5380  178.2190  142.0750 N   0  0  0  0  0  0  0  0  0  0  0  0
  187.7910  178.1570  139.9050 C   0  0  0  0  0  0  0  0  0  0  0  0
  188.8910  178.0650  145.6620 C   0  0  2  0  0  3  0  0  0  0  0  0
  189.5930  178.0760  144.2880 C   0  0  1  0  0  3  0  0  0  0  0  0
  182.2400  178.7830  143.4330 C   0  0  0  0  0  3  0  0  0  0  0  0
  185.0200  178.5150  143.1540 C   0  0  0  0  0  0  0  0  0  0  0  0
  184.1780  178.3890  142.0390 C   0  0  0  0  0  3  0  0  0  0  0  0
  182.7930  178.5200  142.1770 C   0  0  0  0  0  3  0  0  0  0  0  0
  183.0710  178.9140  144.5480 C   0  0  0  0  0  3  0  0  0  0  0  0
  184.4550  178.7820  144.4090 C   0  0  0  0  0  3  0  0  0  0  0  0
  191.9650  178.3520  144.2370 O   0  0  0  0  0  1  0  0  0  0  0  0
  190.9530  177.3920  144.2480 C   0  0  0  0  0  2  0  0  0  0  0  0
  188.4470  176.8420  147.6710 O   0  0  0  0  0  1  0  0  0  0  0  0
  189.1770  176.8110  146.4840 C   0  0  0  0  0  2  0  0  0  0  0  0
  1 13  1  1  0  0  0
  2  6  1  6  0  0  0
  2 14  1  0  0  0  0
  2 10  1  0  0  0  0
  3 14  1  6  0  0  0
  3  1  1  0  0  0  0
  3 17  1  0  0  0  0
  4 12  2  0  0  0  0
  4 11  1  0  0  0  0
  5 11  1  0  0  0  0
  7  9  1  0  0  0  0
  7  8  1  0  0  0  0
  9 14  1  0  0  0  0
 10 19  1  6  0  0  0
 10  1  1  0  0  0  0
 11  7  2  0  0  0  0
 12 15  1  0  0  0  0
 13 16  1  0  0  0  0
 15  6  1  0  0  0  0
 15  9  2  0  0  0  0
 16 27  1  6  0  0  0
 17 25  1  1  0  0  0
 17 16  1  0  0  0  0
 18 22  1  0  0  0  0
 19 23  1  0  0  0  0
 20 21  1  0  0  0  0
 20 19  2  0  0  0  0
 21 18  2  0  0  0  0
 23 22  2  0  0  0  0
 24 25  1  0  0  0  0
 27 26  1  0  0  0  0
M  END
>  <MODEL>
1

>  <REMARK>
 VINA RESULT:      -9.3      0.000      0.000
  Name = 
  3 active torsions:
  status: ('A' for Active; 'I' for Inactive)
    1  A    between atoms: C_9  and  C_15
    2  A    between atoms: C_20  and  C_26
    3  A    between atoms: C_22  and  C_24
                            x       y       z     vdW  Elec       q    Type
                         _______ _______ _______ _____ _____    ______ ____

>  <TORSDO>
F 3

$$$$
=
 OpenBabel10262419593D

 27 31  0  0  1  0  0  0  0  0999 V2000
  187.6160  178.0790  144.0290 N   0  0  2  0  0  0  0  0  0  0  0  0
  188.9030  176.6830  142.8380 C   0  0  1  0  0  3  0  0  0  0  0  0
  187.1820  178.2190  142.6440 C   0  0  1  0  0  3  0  0  0  0  0  0
  190.6560  177.4290  138.7200 C   0  0  0  0  0  3  0  0  0  0  0  0
  189.0920  178.5970  137.1700 C   0  0  0  0  0  1  0  0  0  0  0  0
  190.1770  176.3500  142.2780 N   0  0  0  0  0  2  0  0  0  0  0  0
  188.4120  177.9770  139.5310 C   0  0  0  0  0  0  0  0  0  0  0  0
  187.0530  178.5550  139.3210 C   0  0  0  0  0  1  0  0  0  0  0  0
  188.7640  177.3870  140.7510 C   0  0  0  0  0  0  0  0  0  0  0  0
  188.7110  177.1630  144.0560 C   0  0  1  0  0  3  0  0  0  0  0  0
  189.3830  177.9920  138.5020 C   0  0  0  0  0  0  0  0  0  0  0  0
  190.9840  176.8460  139.9540 C   0  0  0  0  0  3  0  0  0  0  0  0
  186.5120  177.9590  144.9620 C   0  0  0  0  0  2  0  0  0  0  0  0
  187.9680  177.2240  141.9200 N   0  0  0  0  0  0  0  0  0  0  0  0
  190.0120  176.8330  140.9490 C   0  0  0  0  0  0  0  0  0  0  0  0
  185.2480  178.0860  144.1280 C   0  0  2  0  0  3  0  0  0  0  0  0
  185.7130  177.8340  142.6790 C   0  0  1  0  0  3  0  0  0  0  0  0
  191.3230  176.7030  147.4260 C   0  0  0  0  0  3  0  0  0  0  0  0
  189.6230  177.0100  145.2130 C   0  0  0  0  0  0  0  0  0  0  0  0
  190.9740  176.6790  145.0310 C   0  0  0  0  0  3  0  0  0  0  0  0
  191.8220  176.5280  146.1330 C   0  0  0  0  0  3  0  0  0  0  0  0
  189.9780  177.0280  147.6170 C   0  0  0  0  0  3  0  0  0  0  0  0
  189.1310  177.1800  146.5150 C   0  0  0  0  0  3  0  0  0  0  0  0
  183.7760  177.7950  141.2810 O   0  0  0  0  0  1  0  0  0  0  0  0
  184.9040  178.5480  141.6030 C   0  0  0  0  0  2  0  0  0  0  0  0
  183.5720  179.4220  145.1940 O   0  0  0  0  0  1  0  0  0  0  0  0
  184.6830  179.4850  144.3530 C   0  0  0  0  0  2  0  0  0  0  0  0
  1 10  1  0  0  0  0
  1 13  1  1  0  0  0
  2  6  1  6  0  0  0
  2 10  1  0  0  0  0
  3 14  1  6  0  0  0
  3 17  1  0  0  0  0
  3  1  1  0  0  0  0
  4 12  1  0  0  0  0
  5 11  1  0  0  0  0
  7  9  2  0  0  0  0
  8  7  1  0  0  0  0
  9 15  1  0  0  0  0
  9 14  1  0  0  0  0
 10 19  1  6  0  0  0
 11  4  2  0  0  0  0
 11  7  1  0  0  0  0
 12 15  2  0  0  0  0
 14  2  1  0  0  0  0
 15  6  1  0  0  0  0
 16 27  1  6  0  0  0
 16 13  1  0  0  0  0
 17 25  1  6  0  0  0
 17 16  1  0  0  0  0
 18 22  1  0  0  0  0
 19 23  1  0  0  0  0
 20 19  2  0  0  0  0
 20 21  1  0  0  0  0
 21 18  2  0  0  0  0
 23 22  2  0  0  0  0
 24 25  1  0  0  0  0
 27 26  1  0  0  0  0
M  END
>  <MODEL>
2

>  <REMARK>
 VINA RESULT:      -9.2      2.349      5.120
  Name = 
  3 active torsions:
  status: ('A' for Active; 'I' for Inactive)
    1  A    between atoms: C_9  and  C_15
    2  A    between atoms: C_20  and  C_26
    3  A    between atoms: C_22  and  C_24
                            x       y       z     vdW  Elec       q    Type
                         _______ _______ _______ _____ _____    ______ ____

>  <TORSDO>
F 3

$$$$
=
 OpenBabel10262419593D

 27 31  0  0  1  0  0  0  0  0999 V2000
  188.4290  177.8260  142.1950 N   0  0  2  0  0  0  0  0  0  0  0  0
  187.1070  177.2300  143.9040 C   0  0  1  0  0  3  0  0  0  0  0  0
  189.3220  177.5440  143.3130 C   0  0  1  0  0  3  0  0  0  0  0  0
  187.6340  178.3250  148.2750 C   0  0  0  0  0  3  0  0  0  0  0  0
  190.0060  178.2620  149.0370 C   0  0  0  0  0  1  0  0  0  0  0  0
  186.1550  177.5830  144.9120 N   0  0  0  0  0  2  0  0  0  0  0  0
  189.3520  177.6520  146.6670 C   0  0  0  0  0  0  0  0  0  0  0  0
  190.7740  177.3660  146.3180 C   0  0  0  0  0  1  0  0  0  0  0  0
  188.3320  177.4950  145.7200 C   0  0  0  0  0  0  0  0  0  0  0  0
  187.0860  177.6650  142.6550 C   0  0  1  0  0  3  0  0  0  0  0  0
  188.9860  178.0740  147.9660 C   0  0  0  0  0  0  0  0  0  0  0  0
  186.6320  178.1640  147.3060 C   0  0  0  0  0  3  0  0  0  0  0  0
  188.8730  177.2320  140.9480 C   0  0  0  0  0  2  0  0  0  0  0  0
  188.4360  177.0620  144.3680 N   0  0  0  0  0  0  0  0  0  0  0  0
  187.0120  177.7390  146.0380 C   0  0  0  0  0  0  0  0  0  0  0  0
  190.1950  176.5520  141.2600 C   0  0  2  0  0  3  0  0  0  0  0  0
  190.2140  176.4280  142.7980 C   0  0  1  0  0  3  0  0  0  0  0  0
  183.6750  179.1120  140.4960 C   0  0  0  0  0  3  0  0  0  0  0  0
  185.9030  178.1700  141.9210 C   0  0  0  0  0  0  0  0  0  0  0  0
  184.6210  178.1170  142.4890 C   0  0  0  0  0  3  0  0  0  0  0  0
  183.5120  178.5880  141.7810 C   0  0  0  0  0  3  0  0  0  0  0  0
  184.9470  179.1650  139.9210 C   0  0  0  0  0  3  0  0  0  0  0  0
  186.0560  178.6950  140.6300 C   0  0  0  0  0  3  0  0  0  0  0  0
  191.9160  175.1900  143.9290 O   0  0  0  0  0  1  0  0  0  0  0  0
  191.5980  176.4550  143.4350 C   0  0  0  0  0  2  0  0  0  0  0  0
  191.6780  176.9920  139.4330 O   0  0  0  0  0  1  0  0  0  0  0  0
  191.3110  177.4320  140.7050 C   0  0  0  0  0  2  0  0  0  0  0  0
  1 13  1  6  0  0  0
  1 10  1  0  0  0  0
  1  3  1  0  0  0  0
  2 14  1  0  0  0  0
  2  6  1  1  0  0  0
  3 14  1  1  0  0  0
  6 15  1  0  0  0  0
  7 11  2  0  0  0  0
  8  7  1  0  0  0  0
  9 15  2  0  0  0  0
  9  7  1  0  0  0  0
 10 19  1  1  0  0  0
 10  2  1  0  0  0  0
 11  4  1  0  0  0  0
 11  5  1  0  0  0  0
 12  4  2  0  0  0  0
 13 16  1  0  0  0  0
 14  9  1  0  0  0  0
 15 12  1  0  0  0  0
 16 27  1  1  0  0  0
 16 17  1  0  0  0  0
 17  3  1  0  0  0  0
 17 25  1  1  0  0  0
 18 21  1  0  0  0  0
 19 20  1  0  0  0  0
 21 20  2  0  0  0  0
 22 18  2  0  0  0  0
 22 23  1  0  0  0  0
 23 19  2  0  0  0  0
 25 24  1  0  0  0  0
 26 27  1  0  0  0  0
M  END
>  <MODEL>
3

>  <REMARK>
 VINA RESULT:      -9.1      1.997      5.440
  Name = 
  3 active torsions:
  status: ('A' for Active; 'I' for Inactive)
    1  A    between atoms: C_9  and  C_15
    2  A    between atoms: C_20  and  C_26
    3  A    between atoms: C_22  and  C_24
                            x       y       z     vdW  Elec       q    Type
                         _______ _______ _______ _____ _____    ______ ____

>  <TORSDO>
F 3

$$$$
=
 OpenBabel10262419593D

 27 31  0  0  1  0  0  0  0  0999 V2000
  187.1790  178.4050  141.9720 N   0  0  2  0  0  0  0  0  0  0  0  0
  186.7910  177.1760  143.8050 C   0  0  1  0  0  3  0  0  0  0  0  0
  188.4860  177.9580  142.4380 C   0  0  1  0  0  3  0  0  0  0  0  0
  189.2650  177.0850  147.6070 C   0  0  0  0  0  3  0  0  0  0  0  0
  191.7220  177.1590  147.1970 C   0  0  0  0  0  1  0  0  0  0  0  0
  186.4070  177.0950  145.1810 N   0  0  0  0  0  2  0  0  0  0  0  0
  190.0530  177.1390  145.2910 C   0  0  0  0  0  0  0  0  0  0  0  0
  191.1570  177.1700  144.2880 C   0  0  0  0  0  1  0  0  0  0  0  0
  188.7130  177.1040  144.8870 C   0  0  0  0  0  0  0  0  0  0  0  0
  186.1970  177.9310  142.8950 C   0  0  1  0  0  3  0  0  0  0  0  0
  190.3240  177.1280  146.6790 C   0  0  0  0  0  0  0  0  0  0  0  0
  187.9300  177.0550  147.1760 C   0  0  0  0  0  3  0  0  0  0  0  0
  187.0010  178.2500  140.5400 C   0  0  0  0  0  2  0  0  0  0  0  0
  188.1840  177.0810  143.5650 N   0  0  0  0  0  0  0  0  0  0  0  0
  187.6860  177.0570  145.8060 C   0  0  0  0  0  0  0  0  0  0  0  0
  188.3210  177.7090  140.0160 C   0  0  2  0  0  3  0  0  0  0  0  0
  189.0440  177.1700  141.2670 C   0  0  1  0  0  3  0  0  0  0  0  0
  182.1630  179.3780  143.0330 C   0  0  0  0  0  3  0  0  0  0  0  0
  184.8090  178.4420  142.9490 C   0  0  0  0  0  0  0  0  0  0  0  0
  184.3440  179.1610  144.0600 C   0  0  0  0  0  3  0  0  0  0  0  0
  183.0270  179.6290  144.1020 C   0  0  0  0  0  3  0  0  0  0  0  0
  182.6160  178.6590  141.9240 C   0  0  0  0  0  3  0  0  0  0  0  0
  183.9330  178.1920  141.8830 C   0  0  0  0  0  3  0  0  0  0  0  0
  191.0320  176.3460  140.2280 O   0  0  0  0  0  1  0  0  0  0  0  0
  190.5660  177.2200  141.2100 C   0  0  0  0  0  2  0  0  0  0  0  0
  188.6080  179.0020  138.0210 O   0  0  0  0  0  1  0  0  0  0  0  0
  189.0560  178.8610  139.3340 C   0  0  0  0  0  2  0  0  0  0  0  0
  1 13  1  6  0  0  0
  1  3  1  0  0  0  0
  1 10  1  0  0  0  0
  2  6  1  1  0  0  0
  3 14  1  1  0  0  0
  6 15  1  0  0  0  0
  7 11  1  0  0  0  0
  8  7  1  0  0  0  0
  9  7  2  0  0  0  0
  9 15  1  0  0  0  0
 10 19  1  1  0  0  0
 10  2  1  0  0  0  0
 11  5  1  0  0  0  0
 11  4  2  0  0  0  0
 12  4  1  0  0  0  0
 14  2  1  0  0  0  0
 14  9  1  0  0  0  0
 15 12  2  0  0  0  0
 16 27  1  1  0  0  0
 16 13  1  0  0  0  0
 16 17  1  0  0  0  0
 17 25  1  6  0  0  0
 17  3  1  0  0  0  0
 18 21  1  0  0  0  0
 19 20  1  0  0  0  0
 20 21  2  0  0  0  0
 22 18  2  0  0  0  0
 23 22  1  0  0  0  0
 23 19  2  0  0  0  0
 24 25  1  0  0  0  0
 26 27  1  0  0  0  0
M  END
>  <MODEL>
4

>  <REMARK>
 VINA RESULT:      -8.9      2.154      5.129
  Name = 
  3 active torsions:
  status: ('A' for Active; 'I' for Inactive)
    1  A    between atoms: C_9  and  C_15
    2  A    between atoms: C_20  and  C_26
    3  A    between atoms: C_22  and  C_24
                            x       y       z     vdW  Elec       q    Type
                         _______ _______ _______ _____ _____    ______ ____

>  <TORSDO>
F 3

$$$$
=
 OpenBabel10262419593D

 27 31  0  0  1  0  0  0  0  0999 V2000
  186.9200  177.8510  141.3490 N   0  0  2  0  0  0  0  0  0  0  0  0
  188.8280  178.4530  142.3580 C   0  0  1  0  0  3  0  0  0  0  0  0
  186.6050  177.9580  142.7690 C   0  0  1  0  0  3  0  0  0  0  0  0
  190.3770  176.9940  146.3650 C   0  0  0  0  0  3  0  0  0  0  0  0
  188.5960  176.7590  148.0940 C   0  0  0  0  0  1  0  0  0  0  0  0
  190.1500  178.1270  142.7990 N   0  0  0  0  0  2  0  0  0  0  0  0
  188.0850  177.6040  145.7600 C   0  0  0  0  0  0  0  0  0  0  0  0
  186.6430  177.7670  146.1060 C   0  0  0  0  0  1  0  0  0  0  0  0
  188.5620  177.9320  144.4860 C   0  0  0  0  0  0  0  0  0  0  0  0
  188.3140  178.1140  141.1870 C   0  0  1  0  0  3  0  0  0  0  0  0
  189.0170  177.1280  146.7110 C   0  0  0  0  0  0  0  0  0  0  0  0
  190.8280  177.3270  145.0790 C   0  0  0  0  0  3  0  0  0  0  0  0
  185.9310  178.4860  140.4980 C   0  0  0  0  0  2  0  0  0  0  0  0
  187.8400  178.4500  143.3730 N   0  0  0  0  0  0  0  0  0  0  0  0
  189.8970  177.8020  144.1620 C   0  0  0  0  0  0  0  0  0  0  0  0
  184.8500  179.0030  141.4320 C   0  0  2  0  0  3  0  0  0  0  0  0
  185.5130  179.0120  142.8250 C   0  0  1  0  0  3  0  0  0  0  0  0
  190.5050  177.1290  137.6350 C   0  0  0  0  0  3  0  0  0  0  0  0
  189.0720  177.7870  139.9570 C   0  0  0  0  0  0  0  0  0  0  0  0
  188.8470  178.4850  138.7610 C   0  0  0  0  0  3  0  0  0  0  0  0
  189.5620  178.1590  137.6050 C   0  0  0  0  0  3  0  0  0  0  0  0
  190.7330  176.4260  138.8200 C   0  0  0  0  0  3  0  0  0  0  0  0
  190.0180  176.7530  139.9760 C   0  0  0  0  0  3  0  0  0  0  0  0
  183.8800  179.9800  144.2750 O   0  0  0  0  0  1  0  0  0  0  0  0
  184.5640  178.7970  143.9980 C   0  0  0  0  0  2  0  0  0  0  0  0
  182.4860  178.7850  141.1270 O   0  0  0  0  0  1  0  0  0  0  0  0
  183.6570  178.0560  141.3300 C   0  0  0  0  0  2  0  0  0  0  0  0
  1 13  1  6  0  0  0
  1  3  1  0  0  0  0
  2  6  1  1  0  0  0
  2 14  1  0  0  0  0
  3 17  1  0  0  0  0
  3 14  1  1  0  0  0
  4 11  1  0  0  0  0
  6 15  1  0  0  0  0
  7  8  1  0  0  0  0
  7 11  2  0  0  0  0
  9  7  1  0  0  0  0
 10 19  1  1  0  0  0
 10  1  1  0  0  0  0
 10  2  1  0  0  0  0
 11  5  1  0  0  0  0
 12  4  2  0  0  0  0
 13 16  1  0  0  0  0
 14  9  1  0  0  0  0
 15  9  2  0  0  0  0
 15 12  1  0  0  0  0
 16 27  1  1  0  0  0
 16 17  1  0  0  0  0
 17 25  1  1  0  0  0
 18 22  1  0  0  0  0
 19 23  1  0  0  0  0
 20 19  2  0  0  0  0
 21 18  2  0  0  0  0
 21 20  1  0  0  0  0
 22 23  2  0  0  0  0
 25 24  1  0  0  0  0
 26 27  1  0  0  0  0
M  END
>  <MODEL>
5

>  <REMARK>
 VINA RESULT:      -8.8      2.392      6.558
  Name = 
  3 active torsions:
  status: ('A' for Active; 'I' for Inactive)
    1  A    between atoms: C_9  and  C_15
    2  A    between atoms: C_20  and  C_26
    3  A    between atoms: C_22  and  C_24
                            x       y       z     vdW  Elec       q    Type
                         _______ _______ _______ _____ _____    ______ ____

>  <TORSDO>
F 3

$$$$
=
 OpenBabel10262419593D

 27 31  0  0  1  0  0  0  0  0999 V2000
  187.9540  177.4210  142.9270 N   0  0  2  0  0  0  0  0  0  0  0  0
  186.9970  178.6820  141.3410 C   0  0  1  0  0  3  0  0  0  0  0  0
  188.7560  177.2280  141.7250 C   0  0  1  0  0  3  0  0  0  0  0  0
  186.4680  177.6240  136.9610 C   0  0  0  0  0  3  0  0  0  0  0  0
  188.4370  176.4540  135.9750 C   0  0  0  0  0  1  0  0  0  0  0  0
  185.9150  178.9180  140.4350 N   0  0  0  0  0  2  0  0  0  0  0  0
  188.4200  177.2360  138.3850 C   0  0  0  0  0  0  0  0  0  0  0  0
  189.8040  176.7170  138.5920 C   0  0  0  0  0  1  0  0  0  0  0  0
  187.7270  177.8730  139.4210 C   0  0  0  0  0  0  0  0  0  0  0  0
  186.8630  178.2800  142.5940 C   0  0  1  0  0  3  0  0  0  0  0  0
  187.7710  177.1150  137.1350 C   0  0  0  0  0  0  0  0  0  0  0  0
  185.7950  178.2550  138.0170 C   0  0  0  0  0  3  0  0  0  0  0  0
  188.7550  177.6480  144.1150 C   0  0  0  0  0  2  0  0  0  0  0  0
  188.1660  178.1400  140.7500 N   0  0  0  0  0  0  0  0  0  0  0  0
  186.4550  178.3720  139.2360 C   0  0  0  0  0  0  0  0  0  0  0  0
  190.2030  177.5410  143.6660 C   0  0  2  0  0  3  0  0  0  0  0  0
  190.1450  177.6880  142.1310 C   0  0  1  0  0  3  0  0  0  0  0  0
  183.4120  178.7920  145.0870 C   0  0  0  0  0  3  0  0  0  0  0  0
  185.6640  178.4490  143.4470 C   0  0  0  0  0  0  0  0  0  0  0  0
  184.3910  178.6190  142.8810 C   0  0  0  0  0  3  0  0  0  0  0  0
  183.2690  178.7880  143.6970 C   0  0  0  0  0  3  0  0  0  0  0  0
  184.6760  178.6280  145.6590 C   0  0  0  0  0  3  0  0  0  0  0  0
  185.7970  178.4580  144.8430 C   0  0  0  0  0  3  0  0  0  0  0  0
  192.1690  177.8780  140.8770 O   0  0  0  0  0  1  0  0  0  0  0  0
  191.2420  176.9580  141.3660 C   0  0  0  0  0  2  0  0  0  0  0  0
  191.6780  176.3630  145.1380 O   0  0  0  0  0  1  0  0  0  0  0  0
  190.7320  176.1860  144.1290 C   0  0  0  0  0  2  0  0  0  0  0  0
  1 13  1  1  0  0  0
  2  6  1  6  0  0  0
  2 10  1  0  0  0  0
  3 14  1  6  0  0  0
  3 17  1  0  0  0  0
  3  1  1  0  0  0  0
  4 11  2  0  0  0  0
  4 12  1  0  0  0  0
  5 11  1  0  0  0  0
  7  8  1  0  0  0  0
  7  9  2  0  0  0  0
  9 14  1  0  0  0  0
 10  1  1  0  0  0  0
 10 19  1  6  0  0  0
 11  7  1  0  0  0  0
 12 15  2  0  0  0  0
 14  2  1  0  0  0  0
 15  9  1  0  0  0  0
 15  6  1  0  0  0  0
 16 13  1  0  0  0  0
 16 27  1  6  0  0  0
 17 25  1  6  0  0  0
 17 16  1  0  0  0  0
 18 22  1  0  0  0  0
 19 23  1  0  0  0  0
 20 19  2  0  0  0  0
 20 21  1  0  0  0  0
 21 18  2  0  0  0  0
 23 22  2  0  0  0  0
 24 25  1  0  0  0  0
 27 26  1  0  0  0  0
M  END
>  <MODEL>
6

>  <REMARK>
 VINA RESULT:      -8.7      1.446      2.231
  Name = 
  3 active torsions:
  status: ('A' for Active; 'I' for Inactive)
    1  A    between atoms: C_9  and  C_15
    2  A    between atoms: C_20  and  C_26
    3  A    between atoms: C_22  and  C_24
                            x       y       z     vdW  Elec       q    Type
                         _______ _______ _______ _____ _____    ______ ____

>  <TORSDO>
F 3

$$$$
=
 OpenBabel10262419593D

 27 31  0  0  1  0  0  0  0  0999 V2000
  189.5770  177.0180  141.1540 N   0  0  2  0  0  0  0  0  0  0  0  0
  188.4870  178.2460  142.6800 C   0  0  1  0  0  3  0  0  0  0  0  0
  188.3880  177.5300  140.4810 C   0  0  1  0  0  3  0  0  0  0  0  0
  183.9980  178.4860  143.2910 C   0  0  0  0  0  3  0  0  0  0  0  0
  182.7050  178.5240  141.1600 C   0  0  0  0  0  1  0  0  0  0  0  0
  187.6970  178.3220  143.8710 N   0  0  0  0  0  2  0  0  0  0  0  0
  185.2370  178.4480  141.1800 C   0  0  0  0  0  0  0  0  0  0  0  0
  185.2770  178.4590  139.6890 C   0  0  0  0  0  1  0  0  0  0  0  0
  186.4170  178.4170  141.9330 C   0  0  0  0  0  0  0  0  0  0  0  0
  189.5350  177.4550  142.5130 C   0  0  1  0  0  3  0  0  0  0  0  0
  184.0090  178.4840  141.8820 C   0  0  0  0  0  0  0  0  0  0  0  0
  185.1960  178.4510  144.0210 C   0  0  0  0  0  3  0  0  0  0  0  0
  190.7830  177.1520  140.3590 C   0  0  0  0  0  2  0  0  0  0  0  0
  187.7640  178.4030  141.4710 N   0  0  0  0  0  0  0  0  0  0  0  0
  186.3920  178.4250  143.3120 C   0  0  0  0  0  0  0  0  0  0  0  0
  190.3410  177.7490  139.0330 C   0  0  2  0  0  3  0  0  0  0  0  0
  188.9420  178.3330  139.3170 C   0  0  1  0  0  3  0  0  0  0  0  0
  191.9550  175.8030  145.6430 C   0  0  0  0  0  3  0  0  0  0  0  0
  190.3800  176.8810  143.5850 C   0  0  0  0  0  0  0  0  0  0  0  0
  191.0530  175.6630  143.4020 C   0  0  0  0  0  3  0  0  0  0  0  0
  191.8390  175.1270  144.4260 C   0  0  0  0  0  3  0  0  0  0  0  0
  191.2850  177.0130  145.8360 C   0  0  0  0  0  3  0  0  0  0  0  0
  190.5000  177.5490  144.8120 C   0  0  0  0  0  3  0  0  0  0  0  0
  188.3040  179.4240  137.2900 O   0  0  0  0  0  1  0  0  0  0  0  0
  187.9920  178.3530  138.1260 C   0  0  0  0  0  2  0  0  0  0  0  0
  190.8420  175.4550  138.5620 O   0  0  0  0  0  1  0  0  0  0  0  0
  190.3350  176.6260  137.9990 C   0  0  0  0  0  2  0  0  0  0  0  0
  1 13  1  6  0  0  0
  1 10  1  0  0  0  0
  2  6  1  1  0  0  0
  3  1  1  0  0  0  0
  3 14  1  1  0  0  0
  4 12  1  0  0  0  0
  5 11  1  0  0  0  0
  7 11  1  0  0  0  0
  7  9  2  0  0  0  0
  8  7  1  0  0  0  0
  9 15  1  0  0  0  0
 10  2  1  0  0  0  0
 10 19  1  1  0  0  0
 11  4  2  0  0  0  0
 14  9  1  0  0  0  0
 14  2  1  0  0  0  0
 15  6  1  0  0  0  0
 15 12  2  0  0  0  0
 16 27  1  6  0  0  0
 16 17  1  0  0  0  0
 16 13  1  0  0  0  0
 17 25  1  6  0  0  0
 17  3  1  0  0  0  0
 18 22  1  0  0  0  0
 19 23  1  0  0  0  0
 20 19  2  0  0  0  0
 20 21  1  0  0  0  0
 21 18  2  0  0  0  0
 23 22  2  0  0  0  0
 24 25  1  0  0  0  0
 27 26  1  0  0  0  0
M  END
>  <MODEL>
7

>  <REMARK>
 VINA RESULT:      -8.5      2.507      6.512
  Name = 
  3 active torsions:
  status: ('A' for Active; 'I' for Inactive)
    1  A    between atoms: C_9  and  C_15
    2  A    between atoms: C_20  and  C_26
    3  A    between atoms: C_22  and  C_24
                            x       y       z     vdW  Elec       q    Type
                         _______ _______ _______ _____ _____    ______ ____

>  <TORSDO>
F 3

$$$$
=
 OpenBabel10262419593D

 27 31  0  0  1  0  0  0  0  0999 V2000
  187.7690  177.6150  143.2810 N   0  0  2  0  0  0  0  0  0  0  0  0
  186.0890  178.9020  144.0170 C   0  0  1  0  0  3  0  0  0  0  0  0
  186.9200  177.8650  142.1220 C   0  0  1  0  0  3  0  0  0  0  0  0
  181.7230  178.6500  142.8080 C   0  0  0  0  0  3  0  0  0  0  0  0
  181.3880  178.2080  140.3770 C   0  0  0  0  0  1  0  0  0  0  0  0
  184.8870  179.0500  144.7780 N   0  0  0  0  0  2  0  0  0  0  0  0
  183.7020  178.4620  141.3790 C   0  0  0  0  0  0  0  0  0  0  0  0
  184.3330  178.2590  140.0420 C   0  0  0  0  0  1  0  0  0  0  0  0
  184.4830  178.6940  142.5170 C   0  0  0  0  0  0  0  0  0  0  0  0
  187.1620  178.2370  144.4140 C   0  0  1  0  0  3  0  0  0  0  0  0
  182.2970  178.4430  141.5370 C   0  0  0  0  0  0  0  0  0  0  0  0
  182.5300  178.8760  143.9330 C   0  0  0  0  0  3  0  0  0  0  0  0
  189.1820  177.7840  142.9970 C   0  0  0  0  0  2  0  0  0  0  0  0
  185.9010  178.7860  142.6170 N   0  0  0  0  0  0  0  0  0  0  0  0
  183.9090  178.9010  143.7540 C   0  0  0  0  0  0  0  0  0  0  0  0
  189.2710  178.1180  141.5180 C   0  0  2  0  0  3  0  0  0  0  0  0
  187.8420  178.5530  141.1310 C   0  0  1  0  0  3  0  0  0  0  0  0
  188.3010  177.3780  148.4570 C   0  0  0  0  0  3  0  0  0  0  0  0
  187.5420  177.9390  145.8130 C   0  0  0  0  0  0  0  0  0  0  0  0
  186.8120  178.4650  146.8900 C   0  0  0  0  0  3  0  0  0  0  0  0
  187.1880  178.1850  148.2060 C   0  0  0  0  0  3  0  0  0  0  0  0
  189.0370  176.8540  147.3920 C   0  0  0  0  0  3  0  0  0  0  0  0
  188.6600  177.1340  146.0750 C   0  0  0  0  0  3  0  0  0  0  0  0
  188.2970  178.9660  138.8230 O   0  0  0  0  0  1  0  0  0  0  0  0
  187.4470  178.2760  139.6860 C   0  0  0  0  0  2  0  0  0  0  0  0
  190.3720  175.9990  141.6840 O   0  0  0  0  0  1  0  0  0  0  0  0
  189.7460  176.8650  140.7870 C   0  0  0  0  0  2  0  0  0  0  0  0
  1 13  1  6  0  0  0
  1 10  1  0  0  0  0
  2 10  1  0  0  0  0
  2  6  1  1  0  0  0
  3 14  1  1  0  0  0
  3  1  1  0  0  0  0
  4 12  1  0  0  0  0
  5 11  1  0  0  0  0
  7 11  1  0  0  0  0
  7  9  2  0  0  0  0
  8  7  1  0  0  0  0
  9 14  1  0  0  0  0
  9 15  1  0  0  0  0
 10 19  1  1  0  0  0
 11  4  2  0  0  0  0
 14  2  1  0  0  0  0
 15 12  2  0  0  0  0
 15  6  1  0  0  0  0
 16 27  1  6  0  0  0
 16 13  1  0  0  0  0
 17 25  1  6  0  0  0
 17 16  1  0  0  0  0
 17  3  1  0  0  0  0
 19 23  2  0  0  0  0
 19 20  1  0  0  0  0
 20 21  2  0  0  0  0
 21 18  1  0  0  0  0
 22 18  2  0  0  0  0
 23 22  1  0  0  0  0
 24 25  1  0  0  0  0
 27 26  1  0  0  0  0
M  END
>  <MODEL>
8

>  <REMARK>
 VINA RESULT:      -8.5      2.005      5.836
  Name = 
  3 active torsions:
  status: ('A' for Active; 'I' for Inactive)
    1  A    between atoms: C_9  and  C_15
    2  A    between atoms: C_20  and  C_26
    3  A    between atoms: C_22  and  C_24
                            x       y       z     vdW  Elec       q    Type
                         _______ _______ _______ _____ _____    ______ ____

>  <TORSDO>
F 3

$$$$
=
 OpenBabel10262419593D

 27 31  0  0  1  0  0  0  0  0999 V2000
  188.7280  177.2980  141.2050 N   0  0  2  0  0  0  0  0  0  0  0  0
  187.0480  178.7160  141.6390 C   0  0  1  0  0  3  0  0  0  0  0  0
  188.0580  177.5270  139.9300 C   0  0  1  0  0  3  0  0  0  0  0  0
  182.8760  178.6360  139.8580 C   0  0  0  0  0  3  0  0  0  0  0  0
  182.8420  178.0720  137.4300 C   0  0  0  0  0  1  0  0  0  0  0  0
  185.7660  178.9740  142.2200 N   0  0  0  0  0  2  0  0  0  0  0  0
  185.0120  178.2570  138.7240 C   0  0  0  0  0  0  0  0  0  0  0  0
  185.8020  177.9420  137.4990 C   0  0  0  0  0  1  0  0  0  0  0  0
  185.6470  178.5110  139.9460 C   0  0  0  0  0  0  0  0  0  0  0  0
  188.0140  178.0180  142.2120 C   0  0  1  0  0  3  0  0  0  0  0  0
  183.6000  178.3240  138.6890 C   0  0  0  0  0  0  0  0  0  0  0  0
  183.5380  178.8820  141.0700 C   0  0  0  0  0  3  0  0  0  0  0  0
  190.1740  177.3730  141.1100 C   0  0  0  0  0  2  0  0  0  0  0  0
  187.0420  178.5300  140.2340 N   0  0  0  0  0  0  0  0  0  0  0  0
  184.9270  178.8200  141.0810 C   0  0  0  0  0  0  0  0  0  0  0  0
  190.4800  177.6150  139.6410 C   0  0  2  0  0  3  0  0  0  0  0  0
  189.1460  178.1050  139.0420 C   0  0  1  0  0  3  0  0  0  0  0  0
  188.5330  177.3630  146.4170 C   0  0  0  0  0  3  0  0  0  0  0  0
  188.1840  177.7810  143.6630 C   0  0  0  0  0  0  0  0  0  0  0  0
  187.0940  177.4280  144.4730 C   0  0  0  0  0  3  0  0  0  0  0  0
  187.2670  177.2180  145.8440 C   0  0  0  0  0  3  0  0  0  0  0  0
  189.6240  177.7190  145.6200 C   0  0  0  0  0  3  0  0  0  0  0  0
  189.4500  177.9280  144.2500 C   0  0  0  0  0  3  0  0  0  0  0  0
  189.1720  178.8930  136.7870 O   0  0  0  0  0  1  0  0  0  0  0  0
  188.9310  177.7660  137.5720 C   0  0  0  0  0  2  0  0  0  0  0  0
  192.2500  176.4590  138.5170 O   0  0  0  0  0  1  0  0  0  0  0  0
  190.9700  176.2970  139.0470 C   0  0  0  0  0  2  0  0  0  0  0  0
  1 13  1  6  0  0  0
  1 10  1  0  0  0  0
  2 10  1  0  0  0  0
  2  6  1  1  0  0  0
  3 14  1  1  0  0  0
  3  1  1  0  0  0  0
  4 12  1  0  0  0  0
  5 11  1  0  0  0  0
  7  9  2  0  0  0  0
  8  7  1  0  0  0  0
  9 14  1  0  0  0  0
  9 15  1  0  0  0  0
 10 19  1  1  0  0  0
 11  7  1  0  0  0  0
 11  4  2  0  0  0  0
 12 15  2  0  0  0  0
 14  2  1  0  0  0  0
 15  6  1  0  0  0  0
 16 27  1  6  0  0  0
 16 13  1  0  0  0  0
 17 25  1  6  0  0  0
 17 16  1  0  0  0  0
 17  3  1  0  0  0  0
 19 23  2  0  0  0  0
 19 20  1  0  0  0  0
 20 21  2  0  0  0  0
 21 18  1  0  0  0  0
 22 18  2  0  0  0  0
 23 22  1  0  0  0  0
 24 25  1  0  0  0  0
 26 27  1  0  0  0  0
M  END
>  <MODEL>
9

>  <REMARK>
 VINA RESULT:      -8.5      2.695      5.635
  Name = 
  3 active torsions:
  status: ('A' for Active; 'I' for Inactive)
    1  A    between atoms: C_9  and  C_15
    2  A    between atoms: C_20  and  C_26
    3  A    between atoms: C_22  and  C_24
                            x       y       z     vdW  Elec       q    Type
                         _______ _______ _______ _____ _____    ______ ____

>  <TORSDO>
F 3

$$$$
