=
 OpenBabel10262419423D

 31 32  0  0  1  0  0  0  0  0999 V2000
  192.0170  175.9150  146.4160 C   0  0  0  0  0  0  0  0  0  0  0  0
  190.4410  178.2810  143.8970 C   0  0  0  0  0  2  0  0  0  0  0  0
  191.0710  177.0570  144.5020 C   0  0  0  0  0  0  0  0  0  0  0  0
  192.2630  174.7880  145.6250 C   0  0  0  0  0  3  0  0  0  0  0  0
  190.5580  177.1310  141.6900 C   0  0  1  0  0  0  0  0  0  0  0  0
  192.3840  175.9060  147.8560 C   0  0  0  0  0  1  0  0  0  0  0  0
  190.9770  175.9320  142.3470 O   0  0  0  0  0  0  0  0  0  0  0  0
  189.6110  177.9260  142.6390 C   0  0  1  0  0  3  0  0  0  0  0  0
  191.6930  177.9040  141.4260 O   0  0  0  0  0  1  0  0  0  0  0  0
  191.4220  177.0490  145.8560 C   0  0  0  0  0  3  0  0  0  0  0  0
  191.3310  175.9280  143.7020 C   0  0  0  0  0  0  0  0  0  0  0  0
  191.9180  174.7940  144.2690 C   0  0  0  0  0  3  0  0  0  0  0  0
  188.4020  177.1470  143.0080 N   0  0  0  0  0  0  0  0  0  0  0  0
  187.2110  177.7420  142.4160 C   0  0  0  0  0  1  0  0  0  0  0  0
  188.1830  177.0770  144.4650 C   0  0  0  0  0  2  0  0  0  0  0  0
  186.7380  177.3740  144.8940 C   0  0  0  0  0  2  0  0  0  0  0  0
  187.0100  177.8160  147.2080 O   0  0  0  0  0  1  0  0  0  0  0  0
  186.6790  178.4250  145.9950 C   0  0  2  0  0  3  0  0  0  0  0  0
  185.2850  179.0500  146.0910 C   0  0  1  0  0  3  0  0  0  0  0  0
  184.5860  178.9980  144.7440 C   0  0  0  0  0  1  0  0  0  0  0  0
  184.5080  178.3640  147.0260 O   0  0  0  0  0  1  0  0  0  0  0  0
  189.9090  176.7610  140.3530 C   0  0  0  0  0  2  0  0  0  0  0  0
  190.2620  177.7130  139.2980 N   0  0  0  0  0  0  0  0  0  0  0  0
  189.1170  178.5860  139.0100 C   0  0  0  0  0  2  0  0  0  0  0  0
  188.9610  178.9220  137.5270 C   0  0  0  0  0  1  0  0  0  0  0  0
  190.6010  176.9640  138.0900 C   0  0  0  0  0  2  0  0  0  0  0  0
  191.6590  175.9180  138.3950 C   0  0  0  0  0  2  0  0  0  0  0  0
  193.0400  176.4320  138.0260 C   0  0  0  0  0  2  0  0  0  0  0  0
  194.0100  175.2740  137.8730 C   0  0  0  0  0  2  0  0  0  0  0  0
  194.3090  173.0830  136.7620 C   0  0  0  0  0  1  0  0  0  0  0  0
  193.2910  174.0590  137.3160 C   0  0  0  0  0  2  0  0  0  0  0  0
  1  6  1  0  0  0  0
  2  3  1  0  0  0  0
  3 10  2  0  0  0  0
  4  1  2  0  0  0  0
  5  9  1  6  0  0  0
  5  7  1  0  0  0  0
  5  8  1  0  0  0  0
  7 11  1  0  0  0  0
  8 13  1  1  0  0  0
  8  2  1  0  0  0  0
 10  1  1  0  0  0  0
 11 12  2  0  0  0  0
 11  3  1  0  0  0  0
 12  4  1  0  0  0  0
 13 15  1  0  0  0  0
 14 13  1  0  0  0  0
 15 16  1  0  0  0  0
 16 18  1  0  0  0  0
 18 19  1  0  0  0  0
 18 17  1  1  0  0  0
 19 20  1  6  0  0  0
 19 21  1  0  0  0  0
 22  5  1  0  0  0  0
 23 22  1  0  0  0  0
 24 23  1  0  0  0  0
 25 24  1  0  0  0  0
 26 27  1  0  0  0  0
 26 23  1  0  0  0  0
 28 27  1  0  0  0  0
 29 28  1  0  0  0  0
 30 31  1  0  0  0  0
 31 29  1  0  0  0  0
M  END
>  <MODEL>
1

>  <REMARK>
 VINA RESULT:      -7.2      0.000      0.000
  Name = 
  13 active torsions:
  status: ('A' for Active; 'I' for Inactive)
    1  A    between atoms: C_1  and  C_11
    2  A    between atoms: C_1  and  C_24
    3  A    between atoms: C_3  and  N_9
    4  A    between atoms: N_5  and  C_10
    5  A    between atoms: N_5  and  C_21
    6  A    between atoms: C_6  and  N_9
    7  A    between atoms: C_6  and  C_19
    8  A    between atoms: C_7  and  N_9
    9  A    between atoms: C_7  and  C_15
   10  A    between atoms: C_10  and  C_18
   11  A    between atoms: C_17  and  C_31
   12  A    between atoms: C_18  and  C_31
   13  A    between atoms: C_19  and  C_24
                            x       y       z     vdW  Elec       q    Type
                         _______ _______ _______ _____ _____    ______ ____

>  <TORSDO>
F 13

$$$$
=
 OpenBabel10262419423D

 31 32  0  0  1  0  0  0  0  0999 V2000
  192.0550  175.9280  146.4620 C   0  0  0  0  0  0  0  0  0  0  0  0
  190.5030  178.3310  143.9650 C   0  0  0  0  0  2  0  0  0  0  0  0
  191.1140  177.0930  144.5610 C   0  0  0  0  0  0  0  0  0  0  0  0
  192.2720  174.7980  145.6660 C   0  0  0  0  0  3  0  0  0  0  0  0
  190.5770  177.1850  141.7540 C   0  0  1  0  0  0  0  0  0  0  0  0
  192.4350  175.9080  147.9000 C   0  0  0  0  0  1  0  0  0  0  0  0
  190.9800  175.9770  142.4030 O   0  0  0  0  0  0  0  0  0  0  0  0
  189.6550  177.9960  142.7130 C   0  0  1  0  0  3  0  0  0  0  0  0
  191.7250  177.9370  141.4810 O   0  0  0  0  0  1  0  0  0  0  0  0
  191.4780  177.0740  145.9110 C   0  0  0  0  0  3  0  0  0  0  0  0
  191.3450  175.9620  143.7550 C   0  0  0  0  0  0  0  0  0  0  0  0
  191.9150  174.8150  144.3140 C   0  0  0  0  0  3  0  0  0  0  0  0
  188.4340  177.2400  143.0910 N   0  0  0  0  0  0  0  0  0  0  0  0
  187.2490  177.8660  142.5210 C   0  0  0  0  0  1  0  0  0  0  0  0
  188.2330  177.1590  144.5500 C   0  0  0  0  0  2  0  0  0  0  0  0
  186.8520  177.6410  145.0170 C   0  0  0  0  0  2  0  0  0  0  0  0
  186.0150  178.7420  146.9430 O   0  0  0  0  0  1  0  0  0  0  0  0
  186.7260  177.6110  146.5360 C   0  0  2  0  0  3  0  0  0  0  0  0
  188.1020  177.5930  147.2060 C   0  0  1  0  0  3  0  0  0  0  0  0
  188.1380  178.5660  148.3710 C   0  0  0  0  0  1  0  0  0  0  0  0
  188.3930  176.3130  147.6810 O   0  0  0  0  0  1  0  0  0  0  0  0
  189.9100  176.8320  140.4210 C   0  0  0  0  0  2  0  0  0  0  0  0
  190.2220  177.8150  139.3820 N   0  0  0  0  0  0  0  0  0  0  0  0
  188.9960  178.5070  138.9650 C   0  0  0  0  0  2  0  0  0  0  0  0
  189.0390  179.0150  137.5240 C   0  0  0  0  0  1  0  0  0  0  0  0
  190.7820  177.1120  138.2300 C   0  0  0  0  0  2  0  0  0  0  0  0
  190.3710  175.6490  138.2510 C   0  0  0  0  0  2  0  0  0  0  0  0
  190.3310  175.0860  136.8410 C   0  0  0  0  0  2  0  0  0  0  0  0
  189.0240  175.4550  136.1630 C   0  0  0  0  0  2  0  0  0  0  0  0
  186.8030  176.1030  137.0410 C   0  0  0  0  0  1  0  0  0  0  0  0
  187.8490  175.0070  137.0120 C   0  0  0  0  0  2  0  0  0  0  0  0
  1  6  1  0  0  0  0
  2  3  1  0  0  0  0
  3 10  2  0  0  0  0
  4  1  2  0  0  0  0
  5  9  1  6  0  0  0
  5  7  1  0  0  0  0
  5  8  1  0  0  0  0
  7 11  1  0  0  0  0
  8 13  1  1  0  0  0
  8  2  1  0  0  0  0
 10  1  1  0  0  0  0
 11 12  2  0  0  0  0
 11  3  1  0  0  0  0
 12  4  1  0  0  0  0
 13 15  1  0  0  0  0
 14 13  1  0  0  0  0
 15 16  1  0  0  0  0
 16 18  1  0  0  0  0
 18 17  1  1  0  0  0
 18 19  1  0  0  0  0
 19 21  1  0  0  0  0
 19 20  1  1  0  0  0
 22  5  1  0  0  0  0
 23 22  1  0  0  0  0
 24 23  1  0  0  0  0
 25 24  1  0  0  0  0
 26 27  1  0  0  0  0
 26 23  1  0  0  0  0
 28 27  1  0  0  0  0
 29 28  1  0  0  0  0
 29 31  1  0  0  0  0
 31 30  1  0  0  0  0
M  END
>  <MODEL>
2

>  <REMARK>
 VINA RESULT:      -6.9      1.479      2.518
  Name = 
  13 active torsions:
  status: ('A' for Active; 'I' for Inactive)
    1  A    between atoms: C_1  and  C_11
    2  A    between atoms: C_1  and  C_24
    3  A    between atoms: C_3  and  N_9
    4  A    between atoms: N_5  and  C_10
    5  A    between atoms: N_5  and  C_21
    6  A    between atoms: C_6  and  N_9
    7  A    between atoms: C_6  and  C_19
    8  A    between atoms: C_7  and  N_9
    9  A    between atoms: C_7  and  C_15
   10  A    between atoms: C_10  and  C_18
   11  A    between atoms: C_17  and  C_31
   12  A    between atoms: C_18  and  C_31
   13  A    between atoms: C_19  and  C_24
                            x       y       z     vdW  Elec       q    Type
                         _______ _______ _______ _____ _____    ______ ____

>  <TORSDO>
F 13

$$$$
=
 OpenBabel10262419423D

 31 32  0  0  1  0  0  0  0  0999 V2000
  191.3300  176.4280  145.9300 C   0  0  0  0  0  0  0  0  0  0  0  0
  189.3190  175.8590  142.7590 C   0  0  0  0  0  2  0  0  0  0  0  0
  189.8430  176.4860  144.0220 C   0  0  0  0  0  0  0  0  0  0  0  0
  190.8030  177.6420  146.3820 C   0  0  0  0  0  3  0  0  0  0  0  0
  187.6360  177.6930  142.6610 C   0  0  1  0  0  0  0  0  0  0  0  0
  192.4070  175.7520  146.7020 C   0  0  0  0  0  1  0  0  0  0  0  0
  188.2930  178.3420  143.7520 O   0  0  0  0  0  0  0  0  0  0  0  0
  188.6940  176.9180  141.8190 C   0  0  1  0  0  3  0  0  0  0  0  0
  186.7150  176.7810  143.1870 O   0  0  0  0  0  1  0  0  0  0  0  0
  190.8510  175.8500  144.7520 C   0  0  0  0  0  3  0  0  0  0  0  0
  189.3010  177.7010  144.4830 C   0  0  0  0  0  0  0  0  0  0  0  0
  189.7900  178.2790  145.6570 C   0  0  0  0  0  3  0  0  0  0  0  0
  189.7400  177.8150  141.2670 N   0  0  0  0  0  0  0  0  0  0  0  0
  189.2970  178.4040  140.0110 C   0  0  0  0  0  1  0  0  0  0  0  0
  191.0160  177.1240  141.0050 C   0  0  0  0  0  2  0  0  0  0  0  0
  191.5320  177.2890  139.5680 C   0  0  0  0  0  2  0  0  0  0  0  0
  193.8970  177.4160  139.6870 O   0  0  0  0  0  1  0  0  0  0  0  0
  192.8500  176.5550  139.3520 C   0  0  2  0  0  3  0  0  0  0  0  0
  192.9970  176.0970  137.8990 C   0  0  1  0  0  3  0  0  0  0  0  0
  191.6470  176.0850  137.2060 C   0  0  0  0  0  1  0  0  0  0  0  0
  193.8510  176.9550  137.2040 O   0  0  0  0  0  1  0  0  0  0  0  0
  186.8640  178.7410  141.8540 C   0  0  0  0  0  2  0  0  0  0  0  0
  185.4160  178.5680  141.9860 N   0  0  0  0  0  0  0  0  0  0  0  0
  184.7510  178.9620  140.7380 C   0  0  0  0  0  2  0  0  0  0  0  0
  183.6760  177.9760  140.2790 C   0  0  0  0  0  1  0  0  0  0  0  0
  184.9420  179.4290  143.0660 C   0  0  0  0  0  2  0  0  0  0  0  0
  183.7590  178.7880  143.7730 C   0  0  0  0  0  2  0  0  0  0  0  0
  183.9030  178.9160  145.2790 C   0  0  0  0  0  2  0  0  0  0  0  0
  185.3580  179.1430  145.6510 C   0  0  0  0  0  2  0  0  0  0  0  0
  186.8420  178.3290  147.4570 C   0  0  0  0  0  1  0  0  0  0  0  0
  185.9250  177.9080  146.3270 C   0  0  0  0  0  2  0  0  0  0  0  0
  1  4  1  0  0  0  0
  1  6  1  0  0  0  0
  2  3  1  0  0  0  0
  3 11  2  0  0  0  0
  3 10  1  0  0  0  0
  5  9  1  1  0  0  0
  5  7  1  0  0  0  0
  7 11  1  0  0  0  0
  8 13  1  1  0  0  0
  8  5  1  0  0  0  0
  8  2  1  0  0  0  0
 10  1  2  0  0  0  0
 11 12  1  0  0  0  0
 12  4  2  0  0  0  0
 14 13  1  0  0  0  0
 15 13  1  0  0  0  0
 16 15  1  0  0  0  0
 18 16  1  0  0  0  0
 18 17  1  6  0  0  0
 19 20  1  6  0  0  0
 19 18  1  0  0  0  0
 21 19  1  0  0  0  0
 22 23  1  0  0  0  0
 22  5  1  0  0  0  0
 23 26  1  0  0  0  0
 24 23  1  0  0  0  0
 25 24  1  0  0  0  0
 26 27  1  0  0  0  0
 27 28  1  0  0  0  0
 28 29  1  0  0  0  0
 29 31  1  0  0  0  0
 31 30  1  0  0  0  0
M  END
>  <MODEL>
3

>  <REMARK>
 VINA RESULT:      -6.5      2.142      7.473
  Name = 
  13 active torsions:
  status: ('A' for Active; 'I' for Inactive)
    1  A    between atoms: C_1  and  C_11
    2  A    between atoms: C_1  and  C_24
    3  A    between atoms: C_3  and  N_9
    4  A    between atoms: N_5  and  C_10
    5  A    between atoms: N_5  and  C_21
    6  A    between atoms: C_6  and  N_9
    7  A    between atoms: C_6  and  C_19
    8  A    between atoms: C_7  and  N_9
    9  A    between atoms: C_7  and  C_15
   10  A    between atoms: C_10  and  C_18
   11  A    between atoms: C_17  and  C_31
   12  A    between atoms: C_18  and  C_31
   13  A    between atoms: C_19  and  C_24
                            x       y       z     vdW  Elec       q    Type
                         _______ _______ _______ _____ _____    ______ ____

>  <TORSDO>
F 13

$$$$
=
 OpenBabel10262419423D

 31 32  0  0  1  0  0  0  0  0999 V2000
  185.2490  178.4820  144.1860 C   0  0  0  0  0  0  0  0  0  0  0  0
  188.3350  176.5700  143.0710 C   0  0  0  0  0  2  0  0  0  0  0  0
  187.2140  177.5710  143.1040 C   0  0  0  0  0  0  0  0  0  0  0  0
  185.1150  179.4200  143.1570 C   0  0  0  0  0  3  0  0  0  0  0  0
  188.9480  177.4760  140.8330 C   0  0  1  0  0  0  0  0  0  0  0  0
  184.2790  178.4710  145.3130 C   0  0  0  0  0  1  0  0  0  0  0  0
  187.9890  178.5220  141.0040 O   0  0  0  0  0  0  0  0  0  0  0  0
  189.5270  177.0830  142.2260 C   0  0  1  0  0  3  0  0  0  0  0  0
  188.2920  176.3690  140.2830 O   0  0  0  0  0  1  0  0  0  0  0  0
  186.2970  177.5590  144.1610 C   0  0  0  0  0  3  0  0  0  0  0  0
  187.0710  178.5060  142.0610 C   0  0  0  0  0  0  0  0  0  0  0  0
  186.0260  179.4320  142.0960 C   0  0  0  0  0  3  0  0  0  0  0  0
  190.1960  178.2250  142.8980 N   0  0  0  0  0  0  0  0  0  0  0  0
  191.6400  178.1470  142.7190 C   0  0  0  0  0  1  0  0  0  0  0  0
  189.9330  178.2770  144.3480 C   0  0  0  0  0  2  0  0  0  0  0  0
  190.9340  177.4770  145.1930 C   0  0  0  0  0  2  0  0  0  0  0  0
  189.4030  177.7100  146.9890 O   0  0  0  0  0  1  0  0  0  0  0  0
  190.2570  176.7920  146.3750 C   0  0  2  0  0  3  0  0  0  0  0  0
  191.2880  176.2830  147.3860 C   0  0  1  0  0  3  0  0  0  0  0  0
  192.3190  175.4060  146.6970 C   0  0  0  0  0  1  0  0  0  0  0  0
  191.9450  177.3550  147.9910 O   0  0  0  0  0  1  0  0  0  0  0  0
  190.0160  177.9400  139.8380 C   0  0  0  0  0  2  0  0  0  0  0  0
  190.3010  176.9170  138.8310 N   0  0  0  0  0  0  0  0  0  0  0  0
  191.7230  176.5560  138.8760 C   0  0  0  0  0  2  0  0  0  0  0  0
  192.1020  175.4390  137.9030 C   0  0  0  0  0  1  0  0  0  0  0  0
  189.9940  177.4640  137.5120 C   0  0  0  0  0  2  0  0  0  0  0  0
  189.1590  178.7270  137.6440 C   0  0  0  0  0  2  0  0  0  0  0  0
  187.9040  178.6280  136.7940 C   0  0  0  0  0  2  0  0  0  0  0  0
  187.1140  177.3850  137.1630 C   0  0  0  0  0  2  0  0  0  0  0  0
  185.3630  178.3850  138.5980 C   0  0  0  0  0  1  0  0  0  0  0  0
  185.6370  177.7150  137.2670 C   0  0  0  0  0  2  0  0  0  0  0  0
  1  6  1  0  0  0  0
  2  3  1  0  0  0  0
  3 10  2  0  0  0  0
  4  1  2  0  0  0  0
  5  9  1  6  0  0  0
  5  7  1  0  0  0  0
  5  8  1  0  0  0  0
  7 11  1  0  0  0  0
  8 13  1  1  0  0  0
  8  2  1  0  0  0  0
 10  1  1  0  0  0  0
 11 12  2  0  0  0  0
 11  3  1  0  0  0  0
 12  4  1  0  0  0  0
 13 15  1  0  0  0  0
 14 13  1  0  0  0  0
 15 16  1  0  0  0  0
 16 18  1  0  0  0  0
 18 17  1  1  0  0  0
 18 19  1  0  0  0  0
 19 20  1  6  0  0  0
 19 21  1  0  0  0  0
 22  5  1  0  0  0  0
 23 24  1  0  0  0  0
 23 22  1  0  0  0  0
 25 24  1  0  0  0  0
 26 27  1  0  0  0  0
 26 23  1  0  0  0  0
 28 29  1  0  0  0  0
 28 27  1  0  0  0  0
 29 31  1  0  0  0  0
 31 30  1  0  0  0  0
M  END
>  <MODEL>
4

>  <REMARK>
 VINA RESULT:      -6.4      2.002      5.570
  Name = 
  13 active torsions:
  status: ('A' for Active; 'I' for Inactive)
    1  A    between atoms: C_1  and  C_11
    2  A    between atoms: C_1  and  C_24
    3  A    between atoms: C_3  and  N_9
    4  A    between atoms: N_5  and  C_10
    5  A    between atoms: N_5  and  C_21
    6  A    between atoms: C_6  and  N_9
    7  A    between atoms: C_6  and  C_19
    8  A    between atoms: C_7  and  N_9
    9  A    between atoms: C_7  and  C_15
   10  A    between atoms: C_10  and  C_18
   11  A    between atoms: C_17  and  C_31
   12  A    between atoms: C_18  and  C_31
   13  A    between atoms: C_19  and  C_24
                            x       y       z     vdW  Elec       q    Type
                         _______ _______ _______ _____ _____    ______ ____

>  <TORSDO>
F 13

$$$$
=
 OpenBabel10262419423D

 31 32  0  0  1  0  0  0  0  0999 V2000
  192.0510  175.8020  146.4560 C   0  0  0  0  0  0  0  0  0  0  0  0
  190.4930  178.4330  144.2030 C   0  0  0  0  0  2  0  0  0  0  0  0
  191.1010  177.1420  144.6780 C   0  0  0  0  0  0  0  0  0  0  0  0
  192.2500  174.7480  145.5590 C   0  0  0  0  0  3  0  0  0  0  0  0
  190.5350  177.4910  141.8970 C   0  0  1  0  0  0  0  0  0  0  0  0
  192.4460  175.6490  147.8810 C   0  0  0  0  0  1  0  0  0  0  0  0
  190.9340  176.2260  142.4300 O   0  0  0  0  0  0  0  0  0  0  0  0
  189.6290  178.2190  142.9360 C   0  0  1  0  0  3  0  0  0  0  0  0
  191.6870  178.2560  141.6810 O   0  0  0  0  0  1  0  0  0  0  0  0
  191.4780  176.9980  146.0170 C   0  0  0  0  0  3  0  0  0  0  0  0
  191.3130  176.0860  143.7710 C   0  0  0  0  0  0  0  0  0  0  0  0
  191.8800  174.8900  144.2170 C   0  0  0  0  0  3  0  0  0  0  0  0
  188.4070  177.4410  143.2580 N   0  0  0  0  0  0  0  0  0  0  0  0
  187.2910  177.8790  142.4300 C   0  0  0  0  0  1  0  0  0  0  0  0
  187.9910  177.5730  144.6660 C   0  0  0  0  0  2  0  0  0  0  0  0
  186.4720  177.4980  144.8780 C   0  0  0  0  0  2  0  0  0  0  0  0
  185.7050  178.3340  146.9610 O   0  0  0  0  0  1  0  0  0  0  0  0
  185.9450  178.7100  145.6380 C   0  0  2  0  0  3  0  0  0  0  0  0
  184.6560  179.2420  145.0060 C   0  0  1  0  0  3  0  0  0  0  0  0
  184.3590  178.5110  143.7090 C   0  0  0  0  0  1  0  0  0  0  0  0
  183.5800  179.0650  145.8770 O   0  0  0  0  0  1  0  0  0  0  0  0
  189.8510  177.2650  140.5450 C   0  0  0  0  0  2  0  0  0  0  0  0
  190.6090  176.3390  139.7020 N   0  0  0  0  0  0  0  0  0  0  0  0
  191.9100  176.9270  139.3610 C   0  0  0  0  0  2  0  0  0  0  0  0
  192.5240  176.3570  138.0810 C   0  0  0  0  0  1  0  0  0  0  0  0
  189.8570  176.1090  138.4710 C   0  0  0  0  0  2  0  0  0  0  0  0
  188.8240  177.2040  138.2690 C   0  0  0  0  0  2  0  0  0  0  0  0
  189.1940  178.0740  137.0810 C   0  0  0  0  0  2  0  0  0  0  0  0
  189.4690  177.2110  135.8620 C   0  0  0  0  0  2  0  0  0  0  0  0
  187.9250  175.7500  134.5950 C   0  0  0  0  0  1  0  0  0  0  0  0
  188.2550  177.1850  134.9530 C   0  0  0  0  0  2  0  0  0  0  0  0
  1  6  1  0  0  0  0
  2  3  1  0  0  0  0
  3 10  2  0  0  0  0
  4  1  2  0  0  0  0
  5  9  1  6  0  0  0
  5  7  1  0  0  0  0
  5  8  1  0  0  0  0
  7 11  1  0  0  0  0
  8 13  1  1  0  0  0
  8  2  1  0  0  0  0
 10  1  1  0  0  0  0
 11 12  2  0  0  0  0
 11  3  1  0  0  0  0
 12  4  1  0  0  0  0
 13 15  1  0  0  0  0
 14 13  1  0  0  0  0
 15 16  1  0  0  0  0
 16 18  1  0  0  0  0
 18 17  1  1  0  0  0
 19 20  1  6  0  0  0
 19 18  1  0  0  0  0
 19 21  1  0  0  0  0
 22  5  1  0  0  0  0
 23 22  1  0  0  0  0
 24 23  1  0  0  0  0
 25 24  1  0  0  0  0
 26 23  1  0  0  0  0
 27 26  1  0  0  0  0
 28 27  1  0  0  0  0
 29 28  1  0  0  0  0
 30 31  1  0  0  0  0
 31 29  1  0  0  0  0
M  END
>  <MODEL>
5

>  <REMARK>
 VINA RESULT:      -6.3      1.313      2.501
  Name = 
  13 active torsions:
  status: ('A' for Active; 'I' for Inactive)
    1  A    between atoms: C_1  and  C_11
    2  A    between atoms: C_1  and  C_24
    3  A    between atoms: C_3  and  N_9
    4  A    between atoms: N_5  and  C_10
    5  A    between atoms: N_5  and  C_21
    6  A    between atoms: C_6  and  N_9
    7  A    between atoms: C_6  and  C_19
    8  A    between atoms: C_7  and  N_9
    9  A    between atoms: C_7  and  C_15
   10  A    between atoms: C_10  and  C_18
   11  A    between atoms: C_17  and  C_31
   12  A    between atoms: C_18  and  C_31
   13  A    between atoms: C_19  and  C_24
                            x       y       z     vdW  Elec       q    Type
                         _______ _______ _______ _____ _____    ______ ____

>  <TORSDO>
F 13

$$$$
=
 OpenBabel10262419423D

 31 32  0  0  1  0  0  0  0  0999 V2000
  185.6670  178.1170  145.7850 C   0  0  0  0  0  0  0  0  0  0  0  0
  185.3480  179.6970  142.3460 C   0  0  0  0  0  2  0  0  0  0  0  0
  185.7950  178.7980  143.4660 C   0  0  0  0  0  0  0  0  0  0  0  0
  186.6420  177.1400  145.5540 C   0  0  0  0  0  3  0  0  0  0  0  0
  187.0850  178.6240  140.9200 C   0  0  1  0  0  0  0  0  0  0  0  0
  185.0760  178.2710  147.1400 C   0  0  0  0  0  1  0  0  0  0  0  0
  187.3370  177.6730  141.9570 O   0  0  0  0  0  0  0  0  0  0  0  0
  185.5840  179.0390  140.9640 C   0  0  1  0  0  3  0  0  0  0  0  0
  187.8780  179.7510  141.1590 O   0  0  0  0  0  1  0  0  0  0  0  0
  185.2440  178.9460  144.7430 C   0  0  0  0  0  3  0  0  0  0  0  0
  186.7860  177.8250  143.2360 C   0  0  0  0  0  0  0  0  0  0  0  0
  187.2000  176.9940  144.2800 C   0  0  0  0  0  3  0  0  0  0  0  0
  184.6750  177.8830  140.7690 N   0  0  0  0  0  0  0  0  0  0  0  0
  184.1830  177.8450  139.3990 C   0  0  0  0  0  1  0  0  0  0  0  0
  183.4990  177.9150  141.6590 C   0  0  0  0  0  2  0  0  0  0  0  0
  182.1990  178.3410  140.9610 C   0  0  0  0  0  2  0  0  0  0  0  0
  181.8160  179.0390  143.1940 O   0  0  0  0  0  1  0  0  0  0  0  0
  181.2360  179.0230  141.9240 C   0  0  2  0  0  3  0  0  0  0  0  0
  179.8920  178.2920  141.9760 C   0  0  1  0  0  3  0  0  0  0  0  0
  179.8480  177.1880  140.9340 C   0  0  0  0  0  1  0  0  0  0  0  0
  179.6940  177.7270  143.2370 O   0  0  0  0  0  1  0  0  0  0  0  0
  187.5100  178.0170  139.5790 C   0  0  0  0  0  2  0  0  0  0  0  0
  188.9100  178.3110  139.2690 N   0  0  0  0  0  0  0  0  0  0  0  0
  189.0480  178.6370  137.8450 C   0  0  0  0  0  2  0  0  0  0  0  0
  187.7220  178.6260  137.0830 C   0  0  0  0  0  1  0  0  0  0  0  0
  189.7100  177.1250  139.5620 C   0  0  0  0  0  2  0  0  0  0  0  0
  190.8340  177.4690  140.5250 C   0  0  0  0  0  2  0  0  0  0  0  0
  190.4150  177.1880  141.9580 C   0  0  0  0  0  2  0  0  0  0  0  0
  191.6320  177.1450  142.8640 C   0  0  0  0  0  2  0  0  0  0  0  0
  191.5210  176.7490  145.3040 C   0  0  0  0  0  1  0  0  0  0  0  0
  191.3070  177.7720  144.2070 C   0  0  0  0  0  2  0  0  0  0  0  0
  1  6  1  0  0  0  0
  2  3  1  0  0  0  0
  3 10  1  0  0  0  0
  4  1  1  0  0  0  0
  5  8  1  0  0  0  0
  5  9  1  1  0  0  0
  5  7  1  0  0  0  0
  7 11  1  0  0  0  0
  8 13  1  1  0  0  0
  8  2  1  0  0  0  0
 10  1  2  0  0  0  0
 11  3  2  0  0  0  0
 11 12  1  0  0  0  0
 12  4  2  0  0  0  0
 13 15  1  0  0  0  0
 14 13  1  0  0  0  0
 16 15  1  0  0  0  0
 16 18  1  0  0  0  0
 18 19  1  0  0  0  0
 18 17  1  1  0  0  0
 19 20  1  6  0  0  0
 19 21  1  0  0  0  0
 22  5  1  0  0  0  0
 23 26  1  0  0  0  0
 23 22  1  0  0  0  0
 24 23  1  0  0  0  0
 25 24  1  0  0  0  0
 26 27  1  0  0  0  0
 27 28  1  0  0  0  0
 28 29  1  0  0  0  0
 29 31  1  0  0  0  0
 31 30  1  0  0  0  0
M  END
>  <MODEL>
6

>  <REMARK>
 VINA RESULT:      -6.1      3.071      5.478
  Name = 
  13 active torsions:
  status: ('A' for Active; 'I' for Inactive)
    1  A    between atoms: C_1  and  C_11
    2  A    between atoms: C_1  and  C_24
    3  A    between atoms: C_3  and  N_9
    4  A    between atoms: N_5  and  C_10
    5  A    between atoms: N_5  and  C_21
    6  A    between atoms: C_6  and  N_9
    7  A    between atoms: C_6  and  C_19
    8  A    between atoms: C_7  and  N_9
    9  A    between atoms: C_7  and  C_15
   10  A    between atoms: C_10  and  C_18
   11  A    between atoms: C_17  and  C_31
   12  A    between atoms: C_18  and  C_31
   13  A    between atoms: C_19  and  C_24
                            x       y       z     vdW  Elec       q    Type
                         _______ _______ _______ _____ _____    ______ ____

>  <TORSDO>
F 13

$$$$
=
 OpenBabel10262419423D

 31 32  0  0  1  0  0  0  0  0999 V2000
  185.2330  178.5170  144.1660 C   0  0  0  0  0  0  0  0  0  0  0  0
  188.4230  176.5300  143.6180 C   0  0  0  0  0  2  0  0  0  0  0  0
  187.3030  177.5140  143.4150 C   0  0  0  0  0  0  0  0  0  0  0  0
  185.2100  179.3280  143.0270 C   0  0  0  0  0  3  0  0  0  0  0  0
  189.2730  177.1810  141.3690 C   0  0  1  0  0  0  0  0  0  0  0  0
  184.1460  178.6220  145.1760 C   0  0  0  0  0  1  0  0  0  0  0  0
  188.3010  178.2270  141.3140 O   0  0  0  0  0  0  0  0  0  0  0  0
  189.6980  176.9590  142.8520 C   0  0  1  0  0  3  0  0  0  0  0  0
  188.6810  176.0100  140.8830 O   0  0  0  0  0  1  0  0  0  0  0  0
  186.2780  177.6100  144.3610 C   0  0  0  0  0  3  0  0  0  0  0  0
  187.2730  178.3200  142.2610 C   0  0  0  0  0  0  0  0  0  0  0  0
  186.2300  179.2310  142.0760 C   0  0  0  0  0  3  0  0  0  0  0  0
  190.2900  178.1790  143.4550 N   0  0  0  0  0  0  0  0  0  0  0  0
  191.7150  178.2530  143.1630 C   0  0  0  0  0  1  0  0  0  0  0  0
  190.1370  178.2310  144.9210 C   0  0  0  0  0  2  0  0  0  0  0  0
  191.0700  177.2770  145.6810 C   0  0  0  0  0  2  0  0  0  0  0  0
  190.7140  175.8530  147.5430 O   0  0  0  0  0  1  0  0  0  0  0  0
  190.7140  177.1960  147.1610 C   0  0  2  0  0  3  0  0  0  0  0  0
  189.3410  177.8150  147.4360 C   0  0  1  0  0  3  0  0  0  0  0  0
  188.3050  176.7290  147.6610 C   0  0  0  0  0  1  0  0  0  0  0  0
  189.3940  178.6280  148.5690 O   0  0  0  0  0  1  0  0  0  0  0  0
  190.4430  177.5430  140.4480 C   0  0  0  0  0  2  0  0  0  0  0  0
  190.1860  177.1440  139.0630 N   0  0  0  0  0  0  0  0  0  0  0  0
  191.4330  176.6920  138.4340 C   0  0  0  0  0  2  0  0  0  0  0  0
  191.3900  175.2380  137.9630 C   0  0  0  0  0  1  0  0  0  0  0  0
  189.6800  178.3020  138.3310 C   0  0  0  0  0  2  0  0  0  0  0  0
  188.8420  177.8550  137.1460 C   0  0  0  0  0  2  0  0  0  0  0  0
  187.7270  176.9280  137.5990 C   0  0  0  0  0  2  0  0  0  0  0  0
  187.7880  175.6180  136.8330 C   0  0  0  0  0  2  0  0  0  0  0  0
  185.3530  175.7600  136.4180 C   0  0  0  0  0  1  0  0  0  0  0  0
  186.4670  174.8820  136.9480 C   0  0  0  0  0  2  0  0  0  0  0  0
  1 10  1  0  0  0  0
  1  6  1  0  0  0  0
  3  2  1  0  0  0  0
  3 10  2  0  0  0  0
  4  1  2  0  0  0  0
  5  9  1  6  0  0  0
  5  8  1  0  0  0  0
  7  5  1  0  0  0  0
  7 11  1  0  0  0  0
  8 13  1  1  0  0  0
  8  2  1  0  0  0  0
 11  3  1  0  0  0  0
 12 11  2  0  0  0  0
 12  4  1  0  0  0  0
 13 15  1  0  0  0  0
 14 13  1  0  0  0  0
 15 16  1  0  0  0  0
 16 18  1  0  0  0  0
 18 19  1  0  0  0  0
 18 17  1  6  0  0  0
 19 20  1  1  0  0  0
 19 21  1  0  0  0  0
 22  5  1  0  0  0  0
 23 22  1  0  0  0  0
 24 23  1  0  0  0  0
 25 24  1  0  0  0  0
 26 23  1  0  0  0  0
 27 28  1  0  0  0  0
 27 26  1  0  0  0  0
 29 31  1  0  0  0  0
 29 28  1  0  0  0  0
 30 31  1  0  0  0  0
M  END
>  <MODEL>
7

>  <REMARK>
 VINA RESULT:      -6.0      2.227      5.049
  Name = 
  13 active torsions:
  status: ('A' for Active; 'I' for Inactive)
    1  A    between atoms: C_1  and  C_11
    2  A    between atoms: C_1  and  C_24
    3  A    between atoms: C_3  and  N_9
    4  A    between atoms: N_5  and  C_10
    5  A    between atoms: N_5  and  C_21
    6  A    between atoms: C_6  and  N_9
    7  A    between atoms: C_6  and  C_19
    8  A    between atoms: C_7  and  N_9
    9  A    between atoms: C_7  and  C_15
   10  A    between atoms: C_10  and  C_18
   11  A    between atoms: C_17  and  C_31
   12  A    between atoms: C_18  and  C_31
   13  A    between atoms: C_19  and  C_24
                            x       y       z     vdW  Elec       q    Type
                         _______ _______ _______ _____ _____    ______ ____

>  <TORSDO>
F 13

$$$$
=
 OpenBabel10262419423D

 31 32  0  0  1  0  0  0  0  0999 V2000
  183.5050  178.7550  143.8050 C   0  0  0  0  0  0  0  0  0  0  0  0
  182.6290  178.7980  140.1090 C   0  0  0  0  0  2  0  0  0  0  0  0
  183.4210  178.7230  141.3860 C   0  0  0  0  0  0  0  0  0  0  0  0
  184.8950  178.6050  143.7600 C   0  0  0  0  0  3  0  0  0  0  0  0
  184.7930  178.7480  138.8770 C   0  0  1  0  0  0  0  0  0  0  0  0
  182.8090  178.8470  145.1150 C   0  0  0  0  0  1  0  0  0  0  0  0
  185.4770  178.4900  140.1060 O   0  0  0  0  0  0  0  0  0  0  0  0
  183.3740  178.1080  138.9400 C   0  0  1  0  0  3  0  0  0  0  0  0
  184.6630  180.1340  138.7330 O   0  0  0  0  0  1  0  0  0  0  0  0
  182.7680  178.8150  142.6190 C   0  0  0  0  0  3  0  0  0  0  0  0
  184.8210  178.5850  141.3400 C   0  0  0  0  0  0  0  0  0  0  0  0
  185.5520  178.5180  142.5280 C   0  0  0  0  0  3  0  0  0  0  0  0
  183.4290  176.6390  139.1450 N   0  0  0  0  0  0  0  0  0  0  0  0
  183.3790  175.9430  137.8660 C   0  0  0  0  0  1  0  0  0  0  0  0
  182.3170  176.1280  139.9690 C   0  0  0  0  0  2  0  0  0  0  0  0
  181.1120  175.6360  139.1550 C   0  0  0  0  0  2  0  0  0  0  0  0
  179.0600  174.5170  139.5570 O   0  0  0  0  0  1  0  0  0  0  0  0
  179.8420  175.5870  139.9970 C   0  0  2  0  0  3  0  0  0  0  0  0
  179.0500  176.8920  139.8800 C   0  0  1  0  0  3  0  0  0  0  0  0
  179.2040  177.7210  141.1430 C   0  0  0  0  0  1  0  0  0  0  0  0
  179.5050  177.6410  138.7940 O   0  0  0  0  0  1  0  0  0  0  0  0
  185.6460  178.2250  137.7170 C   0  0  0  0  0  2  0  0  0  0  0  0
  187.0230  178.7150  137.7930 N   0  0  0  0  0  0  0  0  0  0  0  0
  187.5770  178.8590  136.4410 C   0  0  0  0  0  2  0  0  0  0  0  0
  187.9740  177.5310  135.7970 C   0  0  0  0  0  1  0  0  0  0  0  0
  187.8240  177.7410  138.5300 C   0  0  0  0  0  2  0  0  0  0  0  0
  188.9470  178.4360  139.2800 C   0  0  0  0  0  2  0  0  0  0  0  0
  189.5380  177.5140  140.3320 C   0  0  0  0  0  2  0  0  0  0  0  0
  189.0560  177.9140  141.7150 C   0  0  0  0  0  2  0  0  0  0  0  0
  189.0230  176.8220  143.9350 C   0  0  0  0  0  1  0  0  0  0  0  0
  188.6010  176.6900  142.4860 C   0  0  0  0  0  2  0  0  0  0  0  0
  1  6  1  0  0  0  0
  2  3  1  0  0  0  0
  3 10  1  0  0  0  0
  4  1  1  0  0  0  0
  5  9  1  6  0  0  0
  5  8  1  0  0  0  0
  5  7  1  0  0  0  0
  7 11  1  0  0  0  0
  8 13  1  1  0  0  0
  8  2  1  0  0  0  0
 10  1  2  0  0  0  0
 11  3  2  0  0  0  0
 11 12  1  0  0  0  0
 12  4  2  0  0  0  0
 13 15  1  0  0  0  0
 14 13  1  0  0  0  0
 16 15  1  0  0  0  0
 16 18  1  0  0  0  0
 18 17  1  6  0  0  0
 19 18  1  0  0  0  0
 19 20  1  1  0  0  0
 21 19  1  0  0  0  0
 22 23  1  0  0  0  0
 22  5  1  0  0  0  0
 23 26  1  0  0  0  0
 24 23  1  0  0  0  0
 25 24  1  0  0  0  0
 26 27  1  0  0  0  0
 27 28  1  0  0  0  0
 28 29  1  0  0  0  0
 29 31  1  0  0  0  0
 31 30  1  0  0  0  0
M  END
>  <MODEL>
8

>  <REMARK>
 VINA RESULT:      -5.8      4.984      7.518
  Name = 
  13 active torsions:
  status: ('A' for Active; 'I' for Inactive)
    1  A    between atoms: C_1  and  C_11
    2  A    between atoms: C_1  and  C_24
    3  A    between atoms: C_3  and  N_9
    4  A    between atoms: N_5  and  C_10
    5  A    between atoms: N_5  and  C_21
    6  A    between atoms: C_6  and  N_9
    7  A    between atoms: C_6  and  C_19
    8  A    between atoms: C_7  and  N_9
    9  A    between atoms: C_7  and  C_15
   10  A    between atoms: C_10  and  C_18
   11  A    between atoms: C_17  and  C_31
   12  A    between atoms: C_18  and  C_31
   13  A    between atoms: C_19  and  C_24
                            x       y       z     vdW  Elec       q    Type
                         _______ _______ _______ _____ _____    ______ ____

>  <TORSDO>
F 13

$$$$
=
 OpenBabel10262419423D

 31 32  0  0  1  0  0  0  0  0999 V2000
  184.3330  177.0650  135.6910 C   0  0  0  0  0  0  0  0  0  0  0  0
  188.1020  177.5250  135.7650 C   0  0  0  0  0  2  0  0  0  0  0  0
  186.6660  177.4510  136.2060 C   0  0  0  0  0  0  0  0  0  0  0  0
  183.9920  177.3340  137.0210 C   0  0  0  0  0  3  0  0  0  0  0  0
  188.6620  178.3300  138.0550 C   0  0  1  0  0  0  0  0  0  0  0  0
  183.2740  176.7110  134.7100 C   0  0  0  0  0  1  0  0  0  0  0  0
  187.3200  178.0620  138.4690 O   0  0  0  0  0  0  0  0  0  0  0  0
  189.0700  177.3060  136.9540 C   0  0  1  0  0  3  0  0  0  0  0  0
  188.7030  179.6210  137.5160 O   0  0  0  0  0  1  0  0  0  0  0  0
  185.6680  177.1230  135.2830 C   0  0  0  0  0  3  0  0  0  0  0  0
  186.3220  177.7360  137.5420 C   0  0  0  0  0  0  0  0  0  0  0  0
  184.9870  177.6680  137.9460 C   0  0  0  0  0  3  0  0  0  0  0  0
  189.0020  175.9040  137.4370 N   0  0  0  0  0  0  0  0  0  0  0  0
  190.3140  175.4530  137.8810 C   0  0  0  0  0  1  0  0  0  0  0  0
  188.5360  174.9590  136.4050 C   0  0  0  0  0  2  0  0  0  0  0  0
  188.5920  173.4860  136.8370 C   0  0  0  0  0  2  0  0  0  0  0  0
  187.2120  172.6070  135.1210 O   0  0  0  0  0  1  0  0  0  0  0  0
  187.2990  172.7500  136.5070 C   0  0  2  0  0  3  0  0  0  0  0  0
  186.0780  173.5130  137.0290 C   0  0  1  0  0  3  0  0  0  0  0  0
  184.9900  173.5600  135.9710 C   0  0  0  0  0  1  0  0  0  0  0  0
  185.5680  172.8910  138.1690 O   0  0  0  0  0  1  0  0  0  0  0  0
  189.5750  178.2980  139.2850 C   0  0  0  0  0  2  0  0  0  0  0  0
  188.9380  177.6200  140.4150 N   0  0  0  0  0  0  0  0  0  0  0  0
  188.4410  178.6120  141.3760 C   0  0  0  0  0  2  0  0  0  0  0  0
  186.9180  178.6200  141.5160 C   0  0  0  0  0  1  0  0  0  0  0  0
  189.9340  176.7800  141.0750 C   0  0  0  0  0  2  0  0  0  0  0  0
  189.4280  176.3280  142.4350 C   0  0  0  0  0  2  0  0  0  0  0  0
  190.5510  175.6960  143.2390 C   0  0  0  0  0  2  0  0  0  0  0  0
  191.6470  176.7130  143.5040 C   0  0  0  0  0  2  0  0  0  0  0  0
  191.3390  179.1200  143.9910 C   0  0  0  0  0  1  0  0  0  0  0  0
  191.1880  177.7180  144.5440 C   0  0  0  0  0  2  0  0  0  0  0  0
  1  4  1  0  0  0  0
  2  3  1  0  0  0  0
  2  8  1  0  0  0  0
  3 11  2  0  0  0  0
  4 12  2  0  0  0  0
  5  9  1  6  0  0  0
  5  7  1  0  0  0  0
  5 22  1  0  0  0  0
  6  1  1  0  0  0  0
  8 13  1  1  0  0  0
  8  5  1  0  0  0  0
 10  1  2  0  0  0  0
 10  3  1  0  0  0  0
 11 12  1  0  0  0  0
 11  7  1  0  0  0  0
 13 14  1  0  0  0  0
 15 16  1  0  0  0  0
 15 13  1  0  0  0  0
 18 17  1  6  0  0  0
 18 16  1  0  0  0  0
 18 19  1  0  0  0  0
 19 20  1  6  0  0  0
 19 21  1  0  0  0  0
 22 23  1  0  0  0  0
 23 26  1  0  0  0  0
 23 24  1  0  0  0  0
 24 25  1  0  0  0  0
 26 27  1  0  0  0  0
 27 28  1  0  0  0  0
 28 29  1  0  0  0  0
 29 31  1  0  0  0  0
 30 31  1  0  0  0  0
M  END
>  <MODEL>
9

>  <REMARK>
 VINA RESULT:      -5.7      4.092      8.635
  Name = 
  13 active torsions:
  status: ('A' for Active; 'I' for Inactive)
    1  A    between atoms: C_1  and  C_11
    2  A    between atoms: C_1  and  C_24
    3  A    between atoms: C_3  and  N_9
    4  A    between atoms: N_5  and  C_10
    5  A    between atoms: N_5  and  C_21
    6  A    between atoms: C_6  and  N_9
    7  A    between atoms: C_6  and  C_19
    8  A    between atoms: C_7  and  N_9
    9  A    between atoms: C_7  and  C_15
   10  A    between atoms: C_10  and  C_18
   11  A    between atoms: C_17  and  C_31
   12  A    between atoms: C_18  and  C_31
   13  A    between atoms: C_19  and  C_24
                            x       y       z     vdW  Elec       q    Type
                         _______ _______ _______ _____ _____    ______ ____

>  <TORSDO>
F 13

$$$$
