=
 OpenBabel10262420483D

 28 32  0  0  1  0  0  0  0  0999 V2000
  187.3950  177.8660  144.1370 C   0  0  0  0  0  0  0  0  0  0  0  0
  186.2920  178.1630  143.2600 N   0  0  0  0  0  0  0  0  0  0  0  0
  187.8600  178.1680  141.3320 C   0  0  0  0  0  0  0  0  0  0  0  0
  191.7180  177.2530  139.6220 C   0  0  0  0  0  2  0  0  0  0  0  0
  190.4910  176.5390  146.5320 O   0  0  0  0  0  0  0  0  0  0  0  0
  186.5510  178.6520  141.8940 C   0  0  0  0  0  2  0  0  0  0  0  0
  189.4260  177.9700  137.9170 C   0  0  0  0  0  3  0  0  0  0  0  0
  190.1580  177.3850  141.6010 C   0  0  0  0  0  0  0  0  0  0  0  0
  190.6120  175.7850  137.8030 C   0  0  1  0  0  3  0  0  0  0  0  0
  190.3520  177.4790  140.2120 C   0  0  0  0  0  0  0  0  0  0  0  0
  188.0630  178.2590  139.9540 C   0  0  0  0  0  3  0  0  0  0  0  0
  190.0660  177.0440  137.1960 C   0  0  0  0  0  3  0  0  0  0  0  0
  189.7860  177.1730  144.3550 C   0  0  0  0  0  0  0  0  0  0  0  0
  188.9060  177.7240  142.1630 C   0  0  0  0  0  0  0  0  0  0  0  0
  189.2850  177.8930  139.3850 C   0  0  0  0  0  0  0  0  0  0  0  0
  188.3110  177.4980  146.4480 C   0  0  0  0  0  2  0  0  0  0  0  0
  191.0130  176.8620  143.7590 C   0  0  0  0  0  3  0  0  0  0  0  0
  189.5830  177.0250  145.8060 C   0  0  0  0  0  0  0  0  0  0  0  0
  191.0050  174.8170  136.7080 C   0  0  0  0  0  1  0  0  0  0  0  0
  191.8050  176.0040  138.7410 C   0  0  0  0  0  2  0  0  0  0  0  0
  191.1720  176.9750  142.4140 N   0  0  0  0  0  0  0  0  0  0  0  0
  187.2050  177.7690  145.4610 C   0  0  0  0  0  3  0  0  0  0  0  0
  188.7260  177.6110  143.5480 C   0  0  0  0  0  0  0  0  0  0  0  0
  184.0490  178.2710  142.6570 C   0  0  0  0  0  1  0  0  0  0  0  0
  184.9750  178.1390  143.7750 N   0  0  0  0  0  0  0  0  0  0  0  0
  184.7880  179.2790  144.6740 C   0  0  0  0  0  3  0  0  0  0  0  0
  184.6630  180.4460  143.9390 F   0  0  0  0  0  0  0  0  0  0  0  0
  183.6400  179.1070  145.4280 F   0  0  0  0  0  0  0  0  0  0  0  0
  1 22  2  0  0  0  0
  2 25  1  0  0  0  0
  2  1  1  0  0  0  0
  3  6  1  0  0  0  0
  3 14  1  0  0  0  0
  4 10  1  0  0  0  0
  6  2  1  0  0  0  0
  7 15  1  0  0  0  0
  8 14  2  0  0  0  0
  8 21  1  0  0  0  0
  9 19  1  6  0  0  0
  9 20  1  0  0  0  0
 10  8  1  0  0  0  0
 11  3  2  0  0  0  0
 12  9  1  0  0  0  0
 12  7  2  0  0  0  0
 13 18  1  0  0  0  0
 14 23  1  0  0  0  0
 15 11  1  0  0  0  0
 15 10  2  0  0  0  0
 17 13  1  0  0  0  0
 18 16  1  0  0  0  0
 18  5  2  0  0  0  0
 20  4  1  0  0  0  0
 21 17  2  0  0  0  0
 22 16  1  0  0  0  0
 23  1  1  0  0  0  0
 23 13  2  0  0  0  0
 24 25  1  0  0  0  0
 25 26  1  0  0  0  0
 26 28  1  0  0  0  0
 27 26  1  0  0  0  0
M  END
>  <MODEL>
1

>  <REMARK>
 VINA RESULT:     -10.0      0.000      0.000
  Name = 
  2 active torsions:
  status: ('A' for Active; 'I' for Inactive)
    1  A    between atoms: N_2  and  N_11
    2  A    between atoms: C_6  and  N_11
                            x       y       z     vdW  Elec       q    Type
                         _______ _______ _______ _____ _____    ______ ____

>  <TORSDO>
F 2

$$$$
=
 OpenBabel10262420483D

 28 32  0  0  1  0  0  0  0  0999 V2000
  189.3920  177.4430  144.5950 C   0  0  0  0  0  0  0  0  0  0  0  0
  188.5030  177.3460  145.7230 N   0  0  0  0  0  0  0  0  0  0  0  0
  186.6460  178.1780  144.2970 C   0  0  0  0  0  0  0  0  0  0  0  0
  185.0140  179.0910  140.4040 C   0  0  0  0  0  2  0  0  0  0  0  0
  191.7800  177.2730  141.2260 O   0  0  0  0  0  0  0  0  0  0  0  0
  187.1960  178.0280  145.6880 C   0  0  0  0  0  2  0  0  0  0  0  0
  183.2910  178.9690  142.7890 C   0  0  0  0  0  3  0  0  0  0  0  0
  186.9350  178.3820  141.8800 C   0  0  0  0  0  0  0  0  0  0  0  0
  183.0300  177.4830  140.8100 C   0  0  1  0  0  3  0  0  0  0  0  0
  185.5680  178.6800  141.7420 C   0  0  0  0  0  0  0  0  0  0  0  0
  185.2900  178.4770  144.1490 C   0  0  0  0  0  3  0  0  0  0  0  0
  182.5160  178.4610  141.8260 C   0  0  0  0  0  3  0  0  0  0  0  0
  189.6420  177.7710  142.1300 C   0  0  0  0  0  0  0  0  0  0  0  0
  187.4740  178.1230  143.1600 C   0  0  0  0  0  0  0  0  0  0  0  0
  184.7390  178.7000  142.8850 C   0  0  0  0  0  0  0  0  0  0  0  0
  191.6960  177.2600  143.6080 C   0  0  0  0  0  2  0  0  0  0  0  0
  189.0700  178.0480  140.8840 C   0  0  0  0  0  3  0  0  0  0  0  0
  191.0650  177.4130  142.2530 C   0  0  0  0  0  0  0  0  0  0  0  0
  181.8700  176.8710  140.0550 C   0  0  0  0  0  1  0  0  0  0  0  0
  184.0300  178.0780  139.8130 C   0  0  0  0  0  2  0  0  0  0  0  0
  187.7470  178.3450  140.7870 N   0  0  0  0  0  0  0  0  0  0  0  0
  190.6940  177.1480  144.7280 C   0  0  0  0  0  3  0  0  0  0  0  0
  188.8360  177.8120  143.2770 C   0  0  0  0  0  0  0  0  0  0  0  0
  187.8590  176.7210  147.8690 C   0  0  0  0  0  1  0  0  0  0  0  0
  188.9610  176.7360  146.9140 N   0  0  0  0  0  0  0  0  0  0  0  0
  190.0540  177.5330  147.4740 C   0  0  0  0  0  3  0  0  0  0  0  0
  189.6090  178.2360  148.5810 F   0  0  0  0  0  0  0  0  0  0  0  0
  191.0940  176.7070  147.8640 F   0  0  0  0  0  0  0  0  0  0  0  0
  1 22  2  0  0  0  0
  1  2  1  0  0  0  0
  2 25  1  0  0  0  0
  3  6  1  0  0  0  0
  4 10  1  0  0  0  0
  5 18  2  0  0  0  0
  6  2  1  0  0  0  0
  7 15  1  0  0  0  0
  8 14  1  0  0  0  0
  9 19  1  6  0  0  0
  9 12  1  0  0  0  0
 10  8  2  0  0  0  0
 10 15  1  0  0  0  0
 11  3  1  0  0  0  0
 12  7  2  0  0  0  0
 13 18  1  0  0  0  0
 13 23  2  0  0  0  0
 14 23  1  0  0  0  0
 14  3  2  0  0  0  0
 15 11  2  0  0  0  0
 16 22  1  0  0  0  0
 17 13  1  0  0  0  0
 18 16  1  0  0  0  0
 20  4  1  0  0  0  0
 20  9  1  0  0  0  0
 21 17  2  0  0  0  0
 21  8  1  0  0  0  0
 23  1  1  0  0  0  0
 25 26  1  0  0  0  0
 25 24  1  0  0  0  0
 26 28  1  0  0  0  0
 26 27  1  0  0  0  0
M  END
>  <MODEL>
2

>  <REMARK>
 VINA RESULT:      -9.6      3.168      5.699
  Name = 
  2 active torsions:
  status: ('A' for Active; 'I' for Inactive)
    1  A    between atoms: N_2  and  N_11
    2  A    between atoms: C_6  and  N_11
                            x       y       z     vdW  Elec       q    Type
                         _______ _______ _______ _____ _____    ______ ____

>  <TORSDO>
F 2

$$$$
=
 OpenBabel10262420483D

 28 32  0  0  1  0  0  0  0  0999 V2000
  187.7020  177.7890  144.5550 C   0  0  0  0  0  0  0  0  0  0  0  0
  186.3820  178.0930  145.0440 N   0  0  0  0  0  0  0  0  0  0  0  0
  185.6810  178.6490  142.7260 C   0  0  0  0  0  0  0  0  0  0  0  0
  186.3780  178.5670  138.4650 C   0  0  0  0  0  2  0  0  0  0  0  0
  191.3150  176.4660  143.0450 O   0  0  0  0  0  0  0  0  0  0  0  0
  185.4420  178.8490  144.1980 C   0  0  0  0  0  2  0  0  0  0  0  0
  183.7390  179.2750  139.5650 C   0  0  0  0  0  3  0  0  0  0  0  0
  187.1370  178.1370  140.8330 C   0  0  0  0  0  0  0  0  0  0  0  0
  184.1460  177.3200  138.0800 C   0  0  1  0  0  3  0  0  0  0  0  0
  186.1110  178.5030  139.9450 C   0  0  0  0  0  0  0  0  0  0  0  0
  184.6690  179.0120  141.8360 C   0  0  0  0  0  3  0  0  0  0  0  0
  183.4360  178.5860  138.4610 C   0  0  0  0  0  3  0  0  0  0  0  0
  189.1760  177.3850  142.5780 C   0  0  0  0  0  0  0  0  0  0  0  0
  186.9190  178.2030  142.2280 C   0  0  0  0  0  0  0  0  0  0  0  0
  184.8610  178.9180  140.4560 C   0  0  0  0  0  0  0  0  0  0  0  0
  190.0910  177.1330  144.9780 C   0  0  0  0  0  2  0  0  0  0  0  0
  189.3540  177.3490  141.1910 C   0  0  0  0  0  3  0  0  0  0  0  0
  190.2440  176.9530  143.4950 C   0  0  0  0  0  0  0  0  0  0  0  0
  183.3920  176.6250  136.9670 C   0  0  0  0  0  1  0  0  0  0  0  0
  185.6060  177.5190  137.6590 C   0  0  0  0  0  2  0  0  0  0  0  0
  188.3450  177.7220  140.3590 N   0  0  0  0  0  0  0  0  0  0  0  0
  188.6770  177.4300  145.4050 C   0  0  0  0  0  3  0  0  0  0  0  0
  187.9480  177.8190  143.0990 C   0  0  0  0  0  0  0  0  0  0  0  0
  184.6620  178.1510  146.6080 C   0  0  0  0  0  1  0  0  0  0  0  0
  186.0620  177.8060  146.3910 N   0  0  0  0  0  0  0  0  0  0  0  0
  186.8890  178.6340  147.2710 C   0  0  0  0  0  3  0  0  0  0  0  0
  186.1760  179.7480  147.6800 F   0  0  0  0  0  0  0  0  0  0  0  0
  187.2600  177.9120  148.3920 F   0  0  0  0  0  0  0  0  0  0  0  0
  1  2  1  0  0  0  0
  1 22  2  0  0  0  0
  2 25  1  0  0  0  0
  3  6  1  0  0  0  0
  4 10  1  0  0  0  0
  5 18  2  0  0  0  0
  6  2  1  0  0  0  0
  7 15  1  0  0  0  0
  8 14  1  0  0  0  0
  9 19  1  6  0  0  0
  9 12  1  0  0  0  0
 10 15  2  0  0  0  0
 10  8  1  0  0  0  0
 11  3  2  0  0  0  0
 12  7  2  0  0  0  0
 13 23  1  0  0  0  0
 13 18  1  0  0  0  0
 14  3  1  0  0  0  0
 14 23  2  0  0  0  0
 15 11  1  0  0  0  0
 16 22  1  0  0  0  0
 17 13  2  0  0  0  0
 18 16  1  0  0  0  0
 20  9  1  0  0  0  0
 20  4  1  0  0  0  0
 21  8  2  0  0  0  0
 21 17  1  0  0  0  0
 23  1  1  0  0  0  0
 25 24  1  0  0  0  0
 25 26  1  0  0  0  0
 26 27  1  0  0  0  0
 26 28  1  0  0  0  0
M  END
>  <MODEL>
3

>  <REMARK>
 VINA RESULT:      -8.6      2.664      4.143
  Name = 
  2 active torsions:
  status: ('A' for Active; 'I' for Inactive)
    1  A    between atoms: N_2  and  N_11
    2  A    between atoms: C_6  and  N_11
                            x       y       z     vdW  Elec       q    Type
                         _______ _______ _______ _____ _____    ______ ____

>  <TORSDO>
F 2

$$$$
=
 OpenBabel10262420483D

 28 32  0  0  1  0  0  0  0  0999 V2000
  190.7160  177.4080  140.5910 C   0  0  0  0  0  0  0  0  0  0  0  0
  190.3920  177.5950  141.9810 N   0  0  0  0  0  0  0  0  0  0  0  0
  188.1010  178.2990  141.3270 C   0  0  0  0  0  0  0  0  0  0  0  0
  184.9620  178.6090  138.3780 C   0  0  0  0  0  2  0  0  0  0  0  0
  191.4400  176.4230  136.6420 O   0  0  0  0  0  0  0  0  0  0  0  0
  189.1930  178.3640  142.3590 C   0  0  0  0  0  2  0  0  0  0  0  0
  184.4200  179.0720  141.2350 C   0  0  0  0  0  3  0  0  0  0  0  0
  187.3310  178.0290  139.0240 C   0  0  0  0  0  0  0  0  0  0  0  0
  183.3470  177.2730  139.8920 C   0  0  1  0  0  3  0  0  0  0  0  0
  186.0340  178.4080  139.4140 C   0  0  0  0  0  0  0  0  0  0  0  0
  186.8110  178.6760  141.7030 C   0  0  0  0  0  3  0  0  0  0  0  0
  183.3110  178.4600  140.8090 C   0  0  0  0  0  3  0  0  0  0  0  0
  189.8890  177.2540  138.2370 C   0  0  0  0  0  0  0  0  0  0  0  0
  188.3660  177.9670  139.9850 C   0  0  0  0  0  0  0  0  0  0  0  0
  185.7720  178.7070  140.7690 C   0  0  0  0  0  0  0  0  0  0  0  0
  192.3790  176.8570  138.7900 C   0  0  0  0  0  2  0  0  0  0  0  0
  188.8390  177.3420  137.3170 C   0  0  0  0  0  3  0  0  0  0  0  0
  191.2310  176.8090  137.8230 C   0  0  0  0  0  0  0  0  0  0  0  0
  181.9780  176.6300  139.8320 C   0  0  0  0  0  1  0  0  0  0  0  0
  183.8240  177.5890  138.4700 C   0  0  0  0  0  2  0  0  0  0  0  0
  187.6000  177.7240  137.7240 N   0  0  0  0  0  0  0  0  0  0  0  0
  191.9510  177.0370  140.2230 C   0  0  0  0  0  3  0  0  0  0  0  0
  189.6490  177.5720  139.5820 C   0  0  0  0  0  0  0  0  0  0  0  0
  190.9430  175.8400  143.4050 C   0  0  0  0  0  1  0  0  0  0  0  0
  191.3170  177.1800  142.9670 N   0  0  0  0  0  0  0  0  0  0  0  0
  191.2380  178.0850  144.1150 C   0  0  0  0  0  3  0  0  0  0  0  0
  191.6840  177.4420  145.2570 F   0  0  0  0  0  0  0  0  0  0  0  0
  192.0300  179.1990  143.8970 F   0  0  0  0  0  0  0  0  0  0  0  0
  1  2  1  0  0  0  0
  2  6  1  0  0  0  0
  2 25  1  0  0  0  0
  3 11  1  0  0  0  0
  3  6  1  0  0  0  0
  4 20  1  0  0  0  0
  4 10  1  0  0  0  0
  5 18  2  0  0  0  0
  8 10  2  0  0  0  0
  8 14  1  0  0  0  0
  9 19  1  6  0  0  0
  9 12  1  0  0  0  0
 10 15  1  0  0  0  0
 12  7  2  0  0  0  0
 13 23  2  0  0  0  0
 14  3  2  0  0  0  0
 15  7  1  0  0  0  0
 15 11  2  0  0  0  0
 16 22  1  0  0  0  0
 17 21  2  0  0  0  0
 17 13  1  0  0  0  0
 18 13  1  0  0  0  0
 18 16  1  0  0  0  0
 20  9  1  0  0  0  0
 21  8  1  0  0  0  0
 22  1  2  0  0  0  0
 23 14  1  0  0  0  0
 23  1  1  0  0  0  0
 25 24  1  0  0  0  0
 25 26  1  0  0  0  0
 26 27  1  0  0  0  0
 28 26  1  0  0  0  0
M  END
>  <MODEL>
4

>  <REMARK>
 VINA RESULT:      -8.5      3.535      6.481
  Name = 
  2 active torsions:
  status: ('A' for Active; 'I' for Inactive)
    1  A    between atoms: N_2  and  N_11
    2  A    between atoms: C_6  and  N_11
                            x       y       z     vdW  Elec       q    Type
                         _______ _______ _______ _____ _____    ______ ____

>  <TORSDO>
F 2

$$$$
=
 OpenBabel10262420483D

 28 32  0  0  1  0  0  0  0  0999 V2000
  186.5750  178.3530  140.6410 C   0  0  0  0  0  0  0  0  0  0  0  0
  187.8270  178.2060  139.9450 N   0  0  0  0  0  0  0  0  0  0  0  0
  189.0160  178.2690  142.1260 C   0  0  0  0  0  0  0  0  0  0  0  0
  188.9700  178.0680  146.4400 C   0  0  0  0  0  2  0  0  0  0  0  0
  182.9930  178.2830  142.7010 O   0  0  0  0  0  0  0  0  0  0  0  0
  189.0930  178.4980  140.6420 C   0  0  0  0  0  2  0  0  0  0  0  0
  191.4930  177.8790  144.9310 C   0  0  0  0  0  3  0  0  0  0  0  0
  187.7680  178.1470  144.2230 C   0  0  0  0  0  0  0  0  0  0  0  0
  190.6190  176.0760  146.4080 C   0  0  1  0  0  3  0  0  0  0  0  0
  188.9750  178.0430  144.9350 C   0  0  0  0  0  0  0  0  0  0  0  0
  190.2090  178.1660  142.8430 C   0  0  0  0  0  3  0  0  0  0  0  0
  191.6810  177.0330  145.9490 C   0  0  0  0  0  3  0  0  0  0  0  0
  185.3630  178.3310  142.8270 C   0  0  0  0  0  0  0  0  0  0  0  0
  187.7880  178.2530  142.8130 C   0  0  0  0  0  0  0  0  0  0  0  0
  190.2010  178.0260  144.2330 C   0  0  0  0  0  0  0  0  0  0  0  0
  184.0780  178.6350  140.6080 C   0  0  0  0  0  2  0  0  0  0  0  0
  185.3900  178.2390  144.2220 C   0  0  0  0  0  3  0  0  0  0  0  0
  184.0890  178.3920  142.0900 C   0  0  0  0  0  0  0  0  0  0  0  0
  191.2190  175.0630  147.3590 C   0  0  0  0  0  1  0  0  0  0  0  0
  189.4130  176.7470  147.0750 C   0  0  0  0  0  2  0  0  0  0  0  0
  186.5750  178.1520  144.8810 N   0  0  0  0  0  0  0  0  0  0  0  0
  185.4240  178.4430  139.9580 C   0  0  0  0  0  3  0  0  0  0  0  0
  186.5740  178.3410  142.1180 C   0  0  0  0  0  0  0  0  0  0  0  0
  188.3280  176.5920  138.3470 C   0  0  0  0  0  1  0  0  0  0  0  0
  187.8190  177.9420  138.5560 N   0  0  0  0  0  0  0  0  0  0  0  0
  188.7100  178.8870  137.8800 C   0  0  0  0  0  3  0  0  0  0  0  0
  189.8630  178.2400  137.4700 F   0  0  0  0  0  0  0  0  0  0  0  0
  188.0820  179.4190  136.7670 F   0  0  0  0  0  0  0  0  0  0  0  0
  1 23  1  0  0  0  0
  2  1  1  0  0  0  0
  2  6  1  0  0  0  0
  3 14  2  0  0  0  0
  3 11  1  0  0  0  0
  4 20  1  0  0  0  0
  6  3  1  0  0  0  0
  7 12  2  0  0  0  0
  8 21  1  0  0  0  0
  8 10  2  0  0  0  0
  9 20  1  0  0  0  0
  9 19  1  1  0  0  0
 10  4  1  0  0  0  0
 11 15  2  0  0  0  0
 12  9  1  0  0  0  0
 13 17  1  0  0  0  0
 14  8  1  0  0  0  0
 15  7  1  0  0  0  0
 15 10  1  0  0  0  0
 16 18  1  0  0  0  0
 17 21  2  0  0  0  0
 18  5  2  0  0  0  0
 18 13  1  0  0  0  0
 22 16  1  0  0  0  0
 22  1  2  0  0  0  0
 23 14  1  0  0  0  0
 23 13  2  0  0  0  0
 24 25  1  0  0  0  0
 25  2  1  0  0  0  0
 26 25  1  0  0  0  0
 27 26  1  0  0  0  0
 28 26  1  0  0  0  0
M  END
>  <MODEL>
5

>  <REMARK>
 VINA RESULT:      -8.4      3.422      6.463
  Name = 
  2 active torsions:
  status: ('A' for Active; 'I' for Inactive)
    1  A    between atoms: N_2  and  N_11
    2  A    between atoms: C_6  and  N_11
                            x       y       z     vdW  Elec       q    Type
                         _______ _______ _______ _____ _____    ______ ____

>  <TORSDO>
F 2

$$$$
=
 OpenBabel10262420483D

 28 32  0  0  1  0  0  0  0  0999 V2000
  184.4780  178.6150  141.9940 C   0  0  0  0  0  0  0  0  0  0  0  0
  185.0080  178.4260  140.6690 N   0  0  0  0  0  0  0  0  0  0  0  0
  187.3000  178.3440  141.6250 C   0  0  0  0  0  0  0  0  0  0  0  0
  189.9470  177.9870  145.0180 C   0  0  0  0  0  2  0  0  0  0  0  0
  182.9740  178.6650  145.8440 O   0  0  0  0  0  0  0  0  0  0  0  0
  186.4470  178.6230  140.4180 C   0  0  0  0  0  2  0  0  0  0  0  0
  190.9540  177.7160  142.2640 C   0  0  0  0  0  3  0  0  0  0  0  0
  187.6310  178.2130  144.0420 C   0  0  0  0  0  0  0  0  0  0  0  0
  191.0790  175.9110  143.9730 C   0  0  1  0  0  3  0  0  0  0  0  0
  189.0090  178.0170  143.8420 C   0  0  0  0  0  0  0  0  0  0  0  0
  188.6690  178.1500  141.4380 C   0  0  0  0  0  3  0  0  0  0  0  0
  191.6810  176.8240  142.9450 C   0  0  0  0  0  3  0  0  0  0  0  0
  184.9000  178.5790  144.4570 C   0  0  0  0  0  0  0  0  0  0  0  0
  186.7730  178.3700  142.9300 C   0  0  0  0  0  0  0  0  0  0  0  0
  189.5220  177.9590  142.5280 C   0  0  0  0  0  0  0  0  0  0  0  0
  182.5340  179.0340  143.5300 C   0  0  0  0  0  2  0  0  0  0  0  0
  185.7870  178.4350  145.5290 C   0  0  0  0  0  3  0  0  0  0  0  0
  183.4520  178.7360  144.6810 C   0  0  0  0  0  0  0  0  0  0  0  0
  192.0730  174.8320  144.3440 C   0  0  0  0  0  1  0  0  0  0  0  0
  190.6010  176.6210  145.2440 C   0  0  0  0  0  2  0  0  0  0  0  0
  187.1150  178.2590  145.3020 N   0  0  0  0  0  0  0  0  0  0  0  0
  183.1620  178.7930  142.1820 C   0  0  0  0  0  3  0  0  0  0  0  0
  185.3990  178.5490  143.1470 C   0  0  0  0  0  0  0  0  0  0  0  0
  184.9030  177.8940  138.4070 C   0  0  0  0  0  1  0  0  0  0  0  0
  184.1160  178.2150  139.5920 N   0  0  0  0  0  0  0  0  0  0  0  0
  183.3670  179.4470  139.3370 C   0  0  0  0  0  3  0  0  0  0  0  0
  184.1850  180.3780  138.7190 F   0  0  0  0  0  0  0  0  0  0  0  0
  182.2900  179.1850  138.5080 F   0  0  0  0  0  0  0  0  0  0  0  0
  1 22  2  0  0  0  0
  1 23  1  0  0  0  0
  2  1  1  0  0  0  0
  3 14  1  0  0  0  0
  4 20  1  0  0  0  0
  6  2  1  0  0  0  0
  6  3  1  0  0  0  0
  7 15  1  0  0  0  0
  7 12  2  0  0  0  0
  8 21  1  0  0  0  0
  9 19  1  1  0  0  0
  9 20  1  0  0  0  0
 10  8  1  0  0  0  0
 10  4  1  0  0  0  0
 11  3  2  0  0  0  0
 11 15  1  0  0  0  0
 12  9  1  0  0  0  0
 13 18  1  0  0  0  0
 13 17  1  0  0  0  0
 14 23  1  0  0  0  0
 14  8  2  0  0  0  0
 15 10  2  0  0  0  0
 16 18  1  0  0  0  0
 18  5  2  0  0  0  0
 21 17  2  0  0  0  0
 22 16  1  0  0  0  0
 23 13  2  0  0  0  0
 24 25  1  0  0  0  0
 25  2  1  0  0  0  0
 26 25  1  0  0  0  0
 27 26  1  0  0  0  0
 28 26  1  0  0  0  0
M  END
>  <MODEL>
6

>  <REMARK>
 VINA RESULT:      -8.4      3.387      5.073
  Name = 
  2 active torsions:
  status: ('A' for Active; 'I' for Inactive)
    1  A    between atoms: N_2  and  N_11
    2  A    between atoms: C_6  and  N_11
                            x       y       z     vdW  Elec       q    Type
                         _______ _______ _______ _____ _____    ______ ____

>  <TORSDO>
F 2

$$$$
=
 OpenBabel10262420483D

 28 32  0  0  1  0  0  0  0  0999 V2000
  189.3500  177.5310  142.1640 C   0  0  0  0  0  0  0  0  0  0  0  0
  188.8460  177.4300  143.5090 N   0  0  0  0  0  0  0  0  0  0  0  0
  186.6450  178.2710  142.7200 C   0  0  0  0  0  0  0  0  0  0  0  0
  183.9070  179.2050  139.5140 C   0  0  0  0  0  2  0  0  0  0  0  0
  190.5970  177.3740  138.2270 O   0  0  0  0  0  0  0  0  0  0  0  0
  187.5930  178.1130  143.8770 C   0  0  0  0  0  2  0  0  0  0  0  0
  182.9920  179.0740  142.3100 C   0  0  0  0  0  3  0  0  0  0  0  0
  186.1840  178.4860  140.3310 C   0  0  0  0  0  0  0  0  0  0  0  0
  182.1370  177.5970  140.4980 C   0  0  1  0  0  3  0  0  0  0  0  0
  184.8410  178.7870  140.6170 C   0  0  0  0  0  0  0  0  0  0  0  0
  185.3100  178.5720  142.9940 C   0  0  0  0  0  3  0  0  0  0  0  0
  181.9590  178.5710  141.6260 C   0  0  0  0  0  3  0  0  0  0  0  0
  188.8370  177.8700  139.7420 C   0  0  0  0  0  0  0  0  0  0  0  0
  187.0870  178.2200  141.3850 C   0  0  0  0  0  0  0  0  0  0  0  0
  184.4000  178.8020  141.9590 C   0  0  0  0  0  0  0  0  0  0  0  0
  191.2420  177.3500  140.5210 C   0  0  0  0  0  2  0  0  0  0  0  0
  187.9130  178.1540  138.7310 C   0  0  0  0  0  3  0  0  0  0  0  0
  190.2300  177.5100  139.4240 C   0  0  0  0  0  0  0  0  0  0  0  0
  180.8000  176.9910  140.1300 C   0  0  0  0  0  1  0  0  0  0  0  0
  182.7870  178.1960  139.2460 C   0  0  0  0  0  2  0  0  0  0  0  0
  186.6250  178.4530  139.0420 N   0  0  0  0  0  0  0  0  0  0  0  0
  190.6290  177.2340  141.8920 C   0  0  0  0  0  3  0  0  0  0  0  0
  188.4190  177.9070  141.0800 C   0  0  0  0  0  0  0  0  0  0  0  0
  188.9410  176.9120  145.7750 C   0  0  0  0  0  1  0  0  0  0  0  0
  189.6440  176.8140  144.5010 N   0  0  0  0  0  0  0  0  0  0  0  0
  190.9150  177.5320  144.6120 C   0  0  0  0  0  3  0  0  0  0  0  0
  190.6800  178.8760  144.8460 F   0  0  0  0  0  0  0  0  0  0  0  0
  191.6580  177.0230  145.6640 F   0  0  0  0  0  0  0  0  0  0  0  0
  1  2  1  0  0  0  0
  2  6  1  0  0  0  0
  2 25  1  0  0  0  0
  3 11  1  0  0  0  0
  3  6  1  0  0  0  0
  4 10  1  0  0  0  0
  5 18  2  0  0  0  0
  8 10  2  0  0  0  0
  8 14  1  0  0  0  0
  9 19  1  6  0  0  0
  9 12  1  0  0  0  0
 10 15  1  0  0  0  0
 12  7  2  0  0  0  0
 13 23  2  0  0  0  0
 14  3  2  0  0  0  0
 15  7  1  0  0  0  0
 15 11  2  0  0  0  0
 16 22  1  0  0  0  0
 17 21  2  0  0  0  0
 17 13  1  0  0  0  0
 18 13  1  0  0  0  0
 18 16  1  0  0  0  0
 20  4  1  0  0  0  0
 20  9  1  0  0  0  0
 21  8  1  0  0  0  0
 22  1  2  0  0  0  0
 23 14  1  0  0  0  0
 23  1  1  0  0  0  0
 25 26  1  0  0  0  0
 25 24  1  0  0  0  0
 26 27  1  0  0  0  0
 26 28  1  0  0  0  0
M  END
>  <MODEL>
7

>  <REMARK>
 VINA RESULT:      -8.3      3.165      6.320
  Name = 
  2 active torsions:
  status: ('A' for Active; 'I' for Inactive)
    1  A    between atoms: N_2  and  N_11
    2  A    between atoms: C_6  and  N_11
                            x       y       z     vdW  Elec       q    Type
                         _______ _______ _______ _____ _____    ______ ____

>  <TORSDO>
F 2

$$$$
=
 OpenBabel10262420483D

 28 32  0  0  1  0  0  0  0  0999 V2000
  183.3580  178.7810  142.6160 C   0  0  0  0  0  0  0  0  0  0  0  0
  182.4620  178.7490  141.4890 N   0  0  0  0  0  0  0  0  0  0  0  0
  184.4240  178.6980  139.9650 C   0  0  0  0  0  0  0  0  0  0  0  0
  188.6580  178.1610  139.3030 C   0  0  0  0  0  2  0  0  0  0  0  0
  185.9480  178.3810  145.8120 O   0  0  0  0  0  0  0  0  0  0  0  0
  182.9710  179.0460  140.1390 C   0  0  0  0  0  2  0  0  0  0  0  0
  186.7570  178.2090  137.0540 C   0  0  0  0  0  3  0  0  0  0  0  0
  186.6750  178.3550  140.8520 C   0  0  0  0  0  0  0  0  0  0  0  0
  188.1960  176.2580  137.6140 C   0  0  1  0  0  3  0  0  0  0  0  0
  187.1750  178.2530  139.5420 C   0  0  0  0  0  0  0  0  0  0  0  0
  184.9310  178.5970  138.6690 C   0  0  0  0  0  3  0  0  0  0  0  0
  187.6570  177.2970  136.6750 C   0  0  0  0  0  3  0  0  0  0  0  0
  185.6990  178.5320  143.4560 C   0  0  0  0  0  0  0  0  0  0  0  0
  185.2940  178.5710  141.0640 C   0  0  0  0  0  0  0  0  0  0  0  0
  186.2880  178.3490  138.4470 C   0  0  0  0  0  0  0  0  0  0  0  0
  183.7460  178.9460  145.0940 C   0  0  0  0  0  2  0  0  0  0  0  0
  187.0590  178.3330  143.2000 C   0  0  0  0  0  3  0  0  0  0  0  0
  185.1820  178.5890  144.8340 C   0  0  0  0  0  0  0  0  0  0  0  0
  188.9500  175.2030  136.8330 C   0  0  0  0  0  1  0  0  0  0  0  0
  189.1000  176.8170  138.7180 C   0  0  0  0  0  2  0  0  0  0  0  0
  187.5120  178.2520  141.9210 N   0  0  0  0  0  0  0  0  0  0  0  0
  182.8770  178.8690  143.8660 C   0  0  0  0  0  3  0  0  0  0  0  0
  184.8100  178.6540  142.3780 C   0  0  0  0  0  0  0  0  0  0  0  0
  180.5790  177.5700  140.8020 C   0  0  0  0  0  1  0  0  0  0  0  0
  181.0750  178.5940  141.7140 N   0  0  0  0  0  0  0  0  0  0  0  0
  180.3940  179.8550  141.4160 C   0  0  0  0  0  3  0  0  0  0  0  0
  179.2360  179.6100  140.6970 F   0  0  0  0  0  0  0  0  0  0  0  0
  180.0550  180.5020  142.5920 F   0  0  0  0  0  0  0  0  0  0  0  0
  1 22  2  0  0  0  0
  2 25  1  0  0  0  0
  2  1  1  0  0  0  0
  3  6  1  0  0  0  0
  3 14  1  0  0  0  0
  4 10  1  0  0  0  0
  6  2  1  0  0  0  0
  7 15  1  0  0  0  0
  8 14  2  0  0  0  0
  8 21  1  0  0  0  0
  9 19  1  6  0  0  0
  9 20  1  0  0  0  0
 10  8  1  0  0  0  0
 11  3  2  0  0  0  0
 12  7  2  0  0  0  0
 12  9  1  0  0  0  0
 13 18  1  0  0  0  0
 14 23  1  0  0  0  0
 15 11  1  0  0  0  0
 15 10  2  0  0  0  0
 17 13  1  0  0  0  0
 18 16  1  0  0  0  0
 18  5  2  0  0  0  0
 20  4  1  0  0  0  0
 21 17  2  0  0  0  0
 22 16  1  0  0  0  0
 23  1  1  0  0  0  0
 23 13  2  0  0  0  0
 24 25  1  0  0  0  0
 26 25  1  0  0  0  0
 26 28  1  0  0  0  0
 27 26  1  0  0  0  0
M  END
>  <MODEL>
8

>  <REMARK>
 VINA RESULT:      -8.3      2.852      4.081
  Name = 
  2 active torsions:
  status: ('A' for Active; 'I' for Inactive)
    1  A    between atoms: N_2  and  N_11
    2  A    between atoms: C_6  and  N_11
                            x       y       z     vdW  Elec       q    Type
                         _______ _______ _______ _____ _____    ______ ____

>  <TORSDO>
F 2

$$$$
=
 OpenBabel10262420483D

 28 32  0  0  1  0  0  0  0  0999 V2000
  181.0850  178.8240  140.6700 C   0  0  0  0  0  0  0  0  0  0  0  0
  181.7320  178.7770  139.3850 N   0  0  0  0  0  0  0  0  0  0  0  0
  183.9380  178.9330  140.5190 C   0  0  0  0  0  0  0  0  0  0  0  0
  186.3480  178.7260  144.0960 C   0  0  0  0  0  2  0  0  0  0  0  0
  179.3050  178.4680  144.3830 O   0  0  0  0  0  0  0  0  0  0  0  0
  183.1480  179.1690  139.2610 C   0  0  0  0  0  2  0  0  0  0  0  0
  187.5840  178.7380  141.4230 C   0  0  0  0  0  3  0  0  0  0  0  0
  184.1020  178.7110  142.9470 C   0  0  0  0  0  0  0  0  0  0  0  0
  187.8170  176.8710  143.0520 C   0  0  1  0  0  3  0  0  0  0  0  0
  185.5040  178.7020  142.8500 C   0  0  0  0  0  0  0  0  0  0  0  0
  185.3310  178.9250  140.4350 C   0  0  0  0  0  3  0  0  0  0  0  0
  188.3690  177.9090  142.1190 C   0  0  0  0  0  3  0  0  0  0  0  0
  181.3230  178.7040  143.1550 C   0  0  0  0  0  0  0  0  0  0  0  0
  183.3160  178.8190  141.7770 C   0  0  0  0  0  0  0  0  0  0  0  0
  186.1170  178.7830  141.5810 C   0  0  0  0  0  0  0  0  0  0  0  0
  178.9940  178.9060  142.0610 C   0  0  0  0  0  2  0  0  0  0  0  0
  182.1390  178.6130  144.2880 C   0  0  0  0  0  3  0  0  0  0  0  0
  179.8550  178.6640  143.2670 C   0  0  0  0  0  0  0  0  0  0  0  0
  188.9130  175.9080  143.4530 C   0  0  0  0  0  1  0  0  0  0  0  0
  187.1570  177.4430  144.3110 C   0  0  0  0  0  2  0  0  0  0  0  0
  183.4920  178.6200  144.1610 N   0  0  0  0  0  0  0  0  0  0  0  0
  179.7460  178.8220  140.7590 C   0  0  0  0  0  3  0  0  0  0  0  0
  181.9180  178.8110  141.8900 C   0  0  0  0  0  0  0  0  0  0  0  0
  181.3980  177.2440  137.6680 C   0  0  0  0  0  1  0  0  0  0  0  0
  180.9580  178.5150  138.2310 N   0  0  0  0  0  0  0  0  0  0  0  0
  181.1930  179.5700  137.2430 C   0  0  0  0  0  3  0  0  0  0  0  0
  180.5050  179.2860  136.0750 F   0  0  0  0  0  0  0  0  0  0  0  0
  180.7500  180.7870  137.7320 F   0  0  0  0  0  0  0  0  0  0  0  0
  1 22  2  0  0  0  0
  1 23  1  0  0  0  0
  2  1  1  0  0  0  0
  3 14  1  0  0  0  0
  4 20  1  0  0  0  0
  6  2  1  0  0  0  0
  6  3  1  0  0  0  0
  7 15  1  0  0  0  0
  7 12  2  0  0  0  0
  8 21  1  0  0  0  0
  9 19  1  1  0  0  0
  9 20  1  0  0  0  0
 10  8  1  0  0  0  0
 10  4  1  0  0  0  0
 11  3  2  0  0  0  0
 11 15  1  0  0  0  0
 12  9  1  0  0  0  0
 13 18  1  0  0  0  0
 13 17  1  0  0  0  0
 14 23  1  0  0  0  0
 14  8  2  0  0  0  0
 15 10  2  0  0  0  0
 16 18  1  0  0  0  0
 18  5  2  0  0  0  0
 21 17  2  0  0  0  0
 22 16  1  0  0  0  0
 23 13  2  0  0  0  0
 24 25  1  0  0  0  0
 25  2  1  0  0  0  0
 26 28  1  0  0  0  0
 26 25  1  0  0  0  0
 27 26  1  0  0  0  0
M  END
>  <MODEL>
9

>  <REMARK>
 VINA RESULT:      -8.2      4.444      7.286
  Name = 
  2 active torsions:
  status: ('A' for Active; 'I' for Inactive)
    1  A    between atoms: N_2  and  N_11
    2  A    between atoms: C_6  and  N_11
                            x       y       z     vdW  Elec       q    Type
                         _______ _______ _______ _____ _____    ______ ____

>  <TORSDO>
F 2

$$$$
