=
 OpenBabel10262420563D

 28 32  0  0  1  0  0  0  0  0999 V2000
  182.8670  178.7250  141.4630 C   0  0  1  0  0  3  0  0  0  0  0  0
  188.1600  178.5740  140.5940 C   0  0  0  0  0  3  0  0  0  0  0  0
  185.6800  179.3700  145.5370 C   0  0  0  0  0  1  0  0  0  0  0  0
  188.7220  177.0530  142.4040 C   0  0  0  0  0  0  0  0  0  0  0  0
  186.6180  178.4830  142.5830 C   0  0  1  0  0  3  0  0  0  0  0  0
  190.1640  177.2250  140.4610 C   0  0  0  0  0  0  0  0  0  0  0  0
  187.8350  177.9950  141.8290 C   0  0  0  0  0  0  0  0  0  0  0  0
  187.5190  177.2420  144.5990 C   0  0  0  0  0  2  0  0  0  0  0  0
  189.8680  176.6620  141.7050 C   0  0  0  0  0  3  0  0  0  0  0  0
  184.0330  178.8300  143.7540 C   0  0  2  0  0  3  0  0  0  0  0  0
  185.3940  178.6470  141.6620 C   0  0  0  0  0  2  0  0  0  0  0  0
  188.4290  176.3910  143.7210 C   0  0  0  0  0  2  0  0  0  0  0  0
  181.6100  179.3030  143.5820 C   0  0  0  0  0  2  0  0  0  0  0  0
  185.1530  178.2570  144.6400 C   0  0  1  0  0  3  0  0  0  0  0  0
  182.6800  178.6280  144.4200 C   0  0  0  0  0  2  0  0  0  0  0  0
  191.3060  176.8340  139.7770 O   0  0  0  0  0  1  0  0  0  0  0  0
  189.3140  178.1860  139.9090 C   0  0  0  0  0  3  0  0  0  0  0  0
  186.2740  177.6130  143.8010 C   0  0  1  0  0  3  0  0  0  0  0  0
  181.5390  178.6280  142.2230 C   0  0  0  0  0  2  0  0  0  0  0  0
  184.0620  178.2530  142.3210 C   0  0  2  0  0  3  0  0  0  0  0  0
  182.7020  177.9530  140.1400 C   0  0  1  0  0  3  0  0  0  0  0  0
  181.3860  177.2560  139.9450 C   0  0  0  0  0  3  0  0  0  0  0  0
  180.5290  179.0400  138.4740 C   0  0  0  0  0  0  0  0  0  0  0  0
  183.2740  178.8270  138.6370 S   0  0  0  0  0  0  0  0  0  0  0  0
  179.2130  177.0350  139.0970 O   0  0  0  0  0  1  0  0  0  0  0  0
  180.4020  177.7480  139.1850 C   0  0  0  0  0  0  0  0  0  0  0  0
  179.3010  179.7580  138.0350 C   0  0  0  0  0  1  0  0  0  0  0  0
  181.7060  179.6370  138.2910 C   0  0  0  0  0  3  0  0  0  0  0  0
  1 19  1  1  0  0  0
  1 20  1  0  0  0  0
  2  7  1  0  0  0  0
  4 12  1  0  0  0  0
  5 11  1  6  0  0  0
  5 18  1  0  0  0  0
  6  9  2  0  0  0  0
  7  4  2  0  0  0  0
  7  5  1  0  0  0  0
  9  4  1  0  0  0  0
 10 15  1  1  0  0  0
 10 14  1  0  0  0  0
 12  8  1  0  0  0  0
 13 15  1  0  0  0  0
 14  3  1  6  0  0  0
 16  6  1  0  0  0  0
 17  6  1  0  0  0  0
 17  2  2  0  0  0  0
 18  8  1  1  0  0  0
 18 14  1  0  0  0  0
 19 13  1  0  0  0  0
 20 11  1  6  0  0  0
 20 10  1  0  0  0  0
 21 22  1  6  0  0  0
 21  1  1  0  0  0  0
 23 26  1  0  0  0  0
 24 21  1  0  0  0  0
 25 26  1  0  0  0  0
 26 22  2  0  0  0  0
 27 23  1  0  0  0  0
 28 23  2  0  0  0  0
 28 24  1  0  0  0  0
M  END
>  <MODEL>
1

>  <REMARK>
 VINA RESULT:      -9.5      0.000      0.000
  Name = 
  1 active torsions:
  status: ('A' for Active; 'I' for Inactive)
    1  A    between atoms: C_1  and  C_2
                            x       y       z     vdW  Elec       q    Type
                         _______ _______ _______ _____ _____    ______ ____

>  <TORSDO>
F 1

$$$$
=
 OpenBabel10262420563D

 28 32  0  0  1  0  0  0  0  0999 V2000
  190.3810  177.0590  143.0460 C   0  0  1  0  0  3  0  0  0  0  0  0
  185.0520  177.6930  143.0520 C   0  0  0  0  0  3  0  0  0  0  0  0
  188.1700  176.1970  147.4400 C   0  0  0  0  0  1  0  0  0  0  0  0
  184.9100  179.0500  145.0620 C   0  0  0  0  0  0  0  0  0  0  0  0
  186.8800  177.4590  144.7690 C   0  0  1  0  0  3  0  0  0  0  0  0
  183.1810  179.1930  143.3670 C   0  0  0  0  0  0  0  0  0  0  0  0
  185.6110  178.1120  144.2680 C   0  0  0  0  0  0  0  0  0  0  0  0
  186.4090  178.5420  147.0090 C   0  0  0  0  0  2  0  0  0  0  0  0
  183.7110  179.5970  144.5940 C   0  0  0  0  0  3  0  0  0  0  0  0
  189.5710  176.7990  145.4740 C   0  0  2  0  0  3  0  0  0  0  0  0
  187.9310  177.3020  143.6530 C   0  0  0  0  0  2  0  0  0  0  0  0
  185.4570  179.5460  146.3710 C   0  0  0  0  0  2  0  0  0  0  0  0
  191.8870  176.1690  144.8750 C   0  0  0  0  0  2  0  0  0  0  0  0
  188.6530  177.3560  146.5780 C   0  0  1  0  0  3  0  0  0  0  0  0
  191.0210  176.8290  145.9320 C   0  0  0  0  0  2  0  0  0  0  0  0
  181.9880  179.7380  142.9130 O   0  0  0  0  0  1  0  0  0  0  0  0
  183.8470  178.2360  142.6000 C   0  0  0  0  0  3  0  0  0  0  0  0
  187.4800  178.1660  145.9920 C   0  0  1  0  0  3  0  0  0  0  0  0
  191.8120  176.9770  143.5900 C   0  0  0  0  0  2  0  0  0  0  0  0
  189.3770  177.5250  144.1250 C   0  0  2  0  0  3  0  0  0  0  0  0
  190.4120  177.9530  141.7920 C   0  0  1  0  0  3  0  0  0  0  0  0
  191.6540  177.8660  140.9530 C   0  0  0  0  0  3  0  0  0  0  0  0
  190.5750  176.3820  139.3050 C   0  0  0  0  0  0  0  0  0  0  0  0
  188.8780  177.9670  140.7930 S   0  0  0  0  0  0  0  0  0  0  0  0
  192.9350  177.1200  139.1380 O   0  0  0  0  0  1  0  0  0  0  0  0
  191.7260  177.1570  139.8220 C   0  0  0  0  0  0  0  0  0  0  0  0
  190.8130  175.2740  138.3390 C   0  0  0  0  0  1  0  0  0  0  0  0
  189.3330  176.5790  139.7430 C   0  0  0  0  0  3  0  0  0  0  0  0
  1 19  1  1  0  0  0
  1 20  1  0  0  0  0
  2  7  1  0  0  0  0
  4 12  1  0  0  0  0
  5 11  1  6  0  0  0
  5 18  1  0  0  0  0
  6  9  2  0  0  0  0
  7  5  1  0  0  0  0
  7  4  2  0  0  0  0
  9  4  1  0  0  0  0
 10 15  1  1  0  0  0
 10 14  1  0  0  0  0
 12  8  1  0  0  0  0
 13 15  1  0  0  0  0
 14  3  1  6  0  0  0
 16  6  1  0  0  0  0
 17  2  2  0  0  0  0
 17  6  1  0  0  0  0
 18 14  1  0  0  0  0
 18  8  1  1  0  0  0
 19 13  1  0  0  0  0
 20 11  1  6  0  0  0
 20 10  1  0  0  0  0
 21 22  1  6  0  0  0
 21  1  1  0  0  0  0
 23 28  2  0  0  0  0
 23 26  1  0  0  0  0
 24 21  1  0  0  0  0
 25 26  1  0  0  0  0
 26 22  2  0  0  0  0
 27 23  1  0  0  0  0
 28 24  1  0  0  0  0
M  END
>  <MODEL>
2

>  <REMARK>
 VINA RESULT:      -9.1      3.005      7.781
  Name = 
  1 active torsions:
  status: ('A' for Active; 'I' for Inactive)
    1  A    between atoms: C_1  and  C_2
                            x       y       z     vdW  Elec       q    Type
                         _______ _______ _______ _____ _____    ______ ____

>  <TORSDO>
F 1

$$$$
=
 OpenBabel10262420563D

 28 32  0  0  1  0  0  0  0  0999 V2000
  182.6450  178.2530  140.5350 C   0  0  1  0  0  3  0  0  0  0  0  0
  188.0050  178.3790  140.3030 C   0  0  0  0  0  3  0  0  0  0  0  0
  184.8880  179.8340  144.7070 C   0  0  0  0  0  1  0  0  0  0  0  0
  188.4270  177.2540  142.4140 C   0  0  0  0  0  0  0  0  0  0  0  0
  186.2360  178.5170  142.0900 C   0  0  1  0  0  3  0  0  0  0  0  0
  190.0860  177.1960  140.6450 C   0  0  0  0  0  0  0  0  0  0  0  0
  187.5640  178.0040  141.5800 C   0  0  0  0  0  0  0  0  0  0  0  0
  186.9520  177.7290  144.3880 C   0  0  0  0  0  2  0  0  0  0  0  0
  189.6720  176.8390  141.9310 C   0  0  0  0  0  3  0  0  0  0  0  0
  183.5090  178.8560  142.8820 C   0  0  2  0  0  3  0  0  0  0  0  0
  185.1280  178.4170  141.0250 C   0  0  0  0  0  2  0  0  0  0  0  0
  188.0130  176.8130  143.7900 C   0  0  0  0  0  2  0  0  0  0  0  0
  181.1030  179.0930  142.3580 C   0  0  0  0  0  2  0  0  0  0  0  0
  184.5440  178.5410  143.9780 C   0  0  1  0  0  3  0  0  0  0  0  0
  182.1000  178.6650  143.4190 C   0  0  0  0  0  2  0  0  0  0  0  0
  191.3250  176.7830  140.1760 O   0  0  0  0  0  1  0  0  0  0  0  0
  189.2550  177.9710  139.8340 C   0  0  0  0  0  3  0  0  0  0  0  0
  185.7960  177.8520  143.4030 C   0  0  1  0  0  3  0  0  0  0  0  0
  181.2410  178.1850  141.1480 C   0  0  0  0  0  2  0  0  0  0  0  0
  183.7500  178.0380  141.5930 C   0  0  2  0  0  3  0  0  0  0  0  0
  182.6910  177.2490  139.3680 C   0  0  1  0  0  3  0  0  0  0  0  0
  181.6090  176.2080  139.3530 C   0  0  0  0  0  3  0  0  0  0  0  0
  180.3060  177.4230  137.6470 C   0  0  0  0  0  0  0  0  0  0  0  0
  183.0090  177.9690  137.7160 S   0  0  0  0  0  0  0  0  0  0  0  0
  179.5720  175.2810  138.6550 O   0  0  0  0  0  1  0  0  0  0  0  0
  180.5290  176.2850  138.5680 C   0  0  0  0  0  0  0  0  0  0  0  0
  178.9310  177.7060  137.1520 C   0  0  0  0  0  1  0  0  0  0  0  0
  181.2820  178.2670  137.3130 C   0  0  0  0  0  3  0  0  0  0  0  0
  1 19  1  1  0  0  0
  1 20  1  0  0  0  0
  2  7  1  0  0  0  0
  4 12  1  0  0  0  0
  5 11  1  6  0  0  0
  5 18  1  0  0  0  0
  6  9  2  0  0  0  0
  7  5  1  0  0  0  0
  7  4  2  0  0  0  0
  9  4  1  0  0  0  0
 10 15  1  1  0  0  0
 10 14  1  0  0  0  0
 12  8  1  0  0  0  0
 13 15  1  0  0  0  0
 14  3  1  6  0  0  0
 16  6  1  0  0  0  0
 17  2  2  0  0  0  0
 17  6  1  0  0  0  0
 18 14  1  0  0  0  0
 18  8  1  1  0  0  0
 19 13  1  0  0  0  0
 20 11  1  6  0  0  0
 20 10  1  0  0  0  0
 21 22  1  6  0  0  0
 21  1  1  0  0  0  0
 23 26  1  0  0  0  0
 24 21  1  0  0  0  0
 26 25  1  0  0  0  0
 26 22  2  0  0  0  0
 27 23  1  0  0  0  0
 28 23  2  0  0  0  0
 28 24  1  0  0  0  0
M  END
>  <MODEL>
3

>  <REMARK>
 VINA RESULT:      -8.7      1.037      1.112
  Name = 
  1 active torsions:
  status: ('A' for Active; 'I' for Inactive)
    1  A    between atoms: C_1  and  C_2
                            x       y       z     vdW  Elec       q    Type
                         _______ _______ _______ _____ _____    ______ ____

>  <TORSDO>
F 1

$$$$
=
 OpenBabel10262420563D

 28 32  0  0  1  0  0  0  0  0999 V2000
  186.0410  178.2940  139.7410 C   0  0  1  0  0  3  0  0  0  0  0  0
  187.1130  176.9920  144.8360 C   0  0  0  0  0  3  0  0  0  0  0  0
  190.6390  176.5110  140.5280 C   0  0  0  0  0  1  0  0  0  0  0  0
  189.2580  178.1210  144.9930 C   0  0  0  0  0  0  0  0  0  0  0  0
  188.4200  177.3470  142.7130 C   0  0  1  0  0  3  0  0  0  0  0  0
  187.9430  177.7130  146.9900 C   0  0  0  0  0  0  0  0  0  0  0  0
  188.2440  177.5290  144.2040 C   0  0  0  0  0  0  0  0  0  0  0  0
  190.8200  178.0940  143.0280 C   0  0  0  0  0  2  0  0  0  0  0  0
  189.0890  178.2250  146.3770 C   0  0  0  0  0  3  0  0  0  0  0  0
  188.5300  177.6570  139.8720 C   0  0  2  0  0  3  0  0  0  0  0  0
  187.1180  177.6240  141.9370 C   0  0  0  0  0  2  0  0  0  0  0  0
  190.4920  178.7200  144.3780 C   0  0  0  0  0  2  0  0  0  0  0  0
  187.4410  177.9180  137.6660 C   0  0  0  0  0  2  0  0  0  0  0  0
  189.8430  177.8030  140.6640 C   0  0  1  0  0  3  0  0  0  0  0  0
  188.7100  178.1800  138.4560 C   0  0  0  0  0  2  0  0  0  0  0  0
  187.7860  177.8180  148.3650 O   0  0  0  0  0  1  0  0  0  0  0  0
  186.9590  177.0900  146.2200 C   0  0  0  0  0  3  0  0  0  0  0  0
  189.5840  178.1680  142.1390 C   0  0  1  0  0  3  0  0  0  0  0  0
  186.2960  178.7020  138.2850 C   0  0  0  0  0  2  0  0  0  0  0  0
  187.3350  178.3250  140.5860 C   0  0  2  0  0  3  0  0  0  0  0  0
  184.9160  179.1940  140.2850 C   0  0  1  0  0  3  0  0  0  0  0  0
  184.0230  179.8250  139.2560 C   0  0  0  0  0  3  0  0  0  0  0  0
  182.2380  178.1620  139.6190 C   0  0  0  0  0  0  0  0  0  0  0  0
  183.9910  178.5260  141.7160 S   0  0  0  0  0  0  0  0  0  0  0  0
  182.0740  180.0020  137.9670 O   0  0  0  0  0  1  0  0  0  0  0  0
  182.8060  179.3590  138.9580 C   0  0  0  0  0  0  0  0  0  0  0  0
  181.1250  177.4220  138.9630 C   0  0  0  0  0  1  0  0  0  0  0  0
  182.7490  177.6630  140.7430 C   0  0  0  0  0  3  0  0  0  0  0  0
  1 19  1  6  0  0  0
  1 21  1  0  0  0  0
  1 20  1  0  0  0  0
  2 17  1  0  0  0  0
  4  9  2  0  0  0  0
  5 11  1  6  0  0  0
  5  7  1  0  0  0  0
  6 16  1  0  0  0  0
  7  2  2  0  0  0  0
  7  4  1  0  0  0  0
  8 12  1  0  0  0  0
  9  6  1  0  0  0  0
 10 15  1  6  0  0  0
 10 20  1  0  0  0  0
 10 14  1  0  0  0  0
 12  4  1  0  0  0  0
 13 19  1  0  0  0  0
 13 15  1  0  0  0  0
 14  3  1  1  0  0  0
 14 18  1  0  0  0  0
 17  6  2  0  0  0  0
 18  5  1  0  0  0  0
 18  8  1  1  0  0  0
 20 11  1  1  0  0  0
 21 22  1  6  0  0  0
 21 24  1  0  0  0  0
 23 28  2  0  0  0  0
 25 26  1  0  0  0  0
 26 22  2  0  0  0  0
 26 23  1  0  0  0  0
 27 23  1  0  0  0  0
 28 24  1  0  0  0  0
M  END
>  <MODEL>
4

>  <REMARK>
 VINA RESULT:      -8.1      2.721      5.045
  Name = 
  1 active torsions:
  status: ('A' for Active; 'I' for Inactive)
    1  A    between atoms: C_1  and  C_2
                            x       y       z     vdW  Elec       q    Type
                         _______ _______ _______ _____ _____    ______ ____

>  <TORSDO>
F 1

$$$$
=
 OpenBabel10262420563D

 28 32  0  0  1  0  0  0  0  0999 V2000
  189.8330  177.1860  138.7290 C   0  0  1  0  0  3  0  0  0  0  0  0
  191.0360  177.9410  143.9050 C   0  0  0  0  0  3  0  0  0  0  0  0
  186.3080  179.5250  141.3840 C   0  0  0  0  0  1  0  0  0  0  0  0
  188.9360  177.1400  144.8250 C   0  0  0  0  0  0  0  0  0  0  0  0
  188.9820  178.0760  142.4540 C   0  0  1  0  0  3  0  0  0  0  0  0
  190.9590  177.0720  146.1600 C   0  0  0  0  0  0  0  0  0  0  0  0
  189.6700  177.6710  143.7380 C   0  0  0  0  0  0  0  0  0  0  0  0
  186.7850  177.6660  143.6440 C   0  0  0  0  0  2  0  0  0  0  0  0
  189.5920  176.8260  146.0190 C   0  0  0  0  0  3  0  0  0  0  0  0
  187.7500  178.1700  139.8750 C   0  0  2  0  0  3  0  0  0  0  0  0
  189.8160  177.7120  141.2100 C   0  0  0  0  0  2  0  0  0  0  0  0
  187.4710  176.8220  144.7110 C   0  0  0  0  0  2  0  0  0  0  0  0
  187.8530  178.0450  137.4060 C   0  0  0  0  0  2  0  0  0  0  0  0
  186.8320  178.1210  141.1100 C   0  0  1  0  0  3  0  0  0  0  0  0
  186.9520  177.8750  138.6150 C   0  0  0  0  0  2  0  0  0  0  0  0
  191.6010  176.7610  147.3510 O   0  0  0  0  0  1  0  0  0  0  0  0
  191.6800  177.6360  145.1060 C   0  0  0  0  0  3  0  0  0  0  0  0
  187.5530  177.5250  142.3360 C   0  0  1  0  0  3  0  0  0  0  0  0
  188.9740  177.0210  137.4700 C   0  0  0  0  0  2  0  0  0  0  0  0
  188.9740  177.2390  140.0130 C   0  0  2  0  0  3  0  0  0  0  0  0
  190.8850  176.0610  138.7250 C   0  0  1  0  0  3  0  0  0  0  0  0
  190.6250  174.9220  137.7810 C   0  0  0  0  0  3  0  0  0  0  0  0
  192.2200  175.7900  136.1130 C   0  0  0  0  0  0  0  0  0  0  0  0
  192.6300  176.6100  138.7140 S   0  0  0  0  0  0  0  0  0  0  0  0
  190.8990  173.7190  135.7890 O   0  0  0  0  0  1  0  0  0  0  0  0
  191.2350  174.7970  136.5980 C   0  0  0  0  0  0  0  0  0  0  0  0
  192.5210  175.8730  134.6570 C   0  0  0  0  0  1  0  0  0  0  0  0
  192.7870  176.6830  136.9230 C   0  0  0  0  0  3  0  0  0  0  0  0
  1 19  1  6  0  0  0
  1 20  1  0  0  0  0
  2 17  1  0  0  0  0
  4  9  2  0  0  0  0
  5 11  1  6  0  0  0
  5  7  1  0  0  0  0
  6 16  1  0  0  0  0
  7  2  2  0  0  0  0
  7  4  1  0  0  0  0
  8 12  1  0  0  0  0
  9  6  1  0  0  0  0
 10 15  1  6  0  0  0
 10 20  1  0  0  0  0
 10 14  1  0  0  0  0
 12  4  1  0  0  0  0
 13 19  1  0  0  0  0
 13 15  1  0  0  0  0
 14  3  1  1  0  0  0
 14 18  1  0  0  0  0
 17  6  2  0  0  0  0
 18  5  1  0  0  0  0
 18  8  1  1  0  0  0
 20 11  1  1  0  0  0
 21 22  1  6  0  0  0
 21  1  1  0  0  0  0
 23 26  1  0  0  0  0
 23 28  2  0  0  0  0
 24 21  1  0  0  0  0
 25 26  1  0  0  0  0
 26 22  2  0  0  0  0
 27 23  1  0  0  0  0
 28 24  1  0  0  0  0
M  END
>  <MODEL>
5

>  <REMARK>
 VINA RESULT:      -7.9      4.718      7.585
  Name = 
  1 active torsions:
  status: ('A' for Active; 'I' for Inactive)
    1  A    between atoms: C_1  and  C_2
                            x       y       z     vdW  Elec       q    Type
                         _______ _______ _______ _____ _____    ______ ____

>  <TORSDO>
F 1

$$$$
=
 OpenBabel10262420563D

 28 32  0  0  1  0  0  0  0  0999 V2000
  187.6050  178.0670  142.8480 C   0  0  1  0  0  3  0  0  0  0  0  0
  183.6490  179.3790  139.4670 C   0  0  0  0  0  3  0  0  0  0  0  0
  189.0710  179.0030  138.1670 C   0  0  0  0  0  1  0  0  0  0  0  0
  184.2830  177.8810  137.6620 C   0  0  0  0  0  0  0  0  0  0  0  0
  186.0660  178.6910  139.2950 C   0  0  1  0  0  3  0  0  0  0  0  0
  181.9830  178.6150  137.8890 C   0  0  0  0  0  0  0  0  0  0  0  0
  184.6320  178.6140  138.8220 C   0  0  0  0  0  0  0  0  0  0  0  0
  186.7130  177.5290  137.1390 C   0  0  0  0  0  2  0  0  0  0  0  0
  182.9570  177.8720  137.2190 C   0  0  0  0  0  3  0  0  0  0  0  0
  188.6230  178.2380  140.4920 C   0  0  2  0  0  3  0  0  0  0  0  0
  186.1740  178.6260  140.8300 C   0  0  0  0  0  2  0  0  0  0  0  0
  185.2860  177.0360  136.9280 C   0  0  0  0  0  2  0  0  0  0  0  0
  190.1070  178.0830  142.4660 C   0  0  0  0  0  2  0  0  0  0  0  0
  188.4530  177.8890  139.0020 C   0  0  1  0  0  3  0  0  0  0  0  0
  189.9060  177.6270  141.0320 C   0  0  0  0  0  2  0  0  0  0  0  0
  180.6700  178.6030  137.4390 O   0  0  0  0  0  1  0  0  0  0  0  0
  182.3300  179.3730  139.0090 C   0  0  0  0  0  3  0  0  0  0  0  0
  186.9760  177.6440  138.6360 C   0  0  1  0  0  3  0  0  0  0  0  0
  188.9690  177.5530  143.3230 C   0  0  0  0  0  2  0  0  0  0  0  0
  187.3930  177.8360  141.3350 C   0  0  2  0  0  3  0  0  0  0  0  0
  186.5290  177.4160  143.7380 C   0  0  1  0  0  3  0  0  0  0  0  0
  186.9870  176.9510  145.0900 C   0  0  0  0  0  3  0  0  0  0  0  0
  186.0560  178.9380  146.2160 C   0  0  0  0  0  0  0  0  0  0  0  0
  184.9170  178.2810  143.7910 S   0  0  0  0  0  0  0  0  0  0  0  0
  187.2610  177.1320  147.4110 O   0  0  0  0  0  1  0  0  0  0  0  0
  186.7680  177.6400  146.2150 C   0  0  0  0  0  0  0  0  0  0  0  0
  186.2300  179.8680  147.3650 C   0  0  0  0  0  1  0  0  0  0  0  0
  185.3310  179.3510  145.1770 C   0  0  0  0  0  3  0  0  0  0  0  0
  1 19  1  1  0  0  0
  1 21  1  0  0  0  0
  4  7  1  0  0  0  0
  5 11  1  1  0  0  0
  6 17  2  0  0  0  0
  7  5  1  0  0  0  0
  7  2  2  0  0  0  0
  9  4  2  0  0  0  0
  9  6  1  0  0  0  0
 10 15  1  1  0  0  0
 10 20  1  0  0  0  0
 12  8  1  0  0  0  0
 12  4  1  0  0  0  0
 13 19  1  0  0  0  0
 14  3  1  6  0  0  0
 14 10  1  0  0  0  0
 15 13  1  0  0  0  0
 16  6  1  0  0  0  0
 17  2  1  0  0  0  0
 18  8  1  6  0  0  0
 18 14  1  0  0  0  0
 18  5  1  0  0  0  0
 20 11  1  6  0  0  0
 20  1  1  0  0  0  0
 21 24  1  0  0  0  0
 21 22  1  1  0  0  0
 22 26  2  0  0  0  0
 23 27  1  0  0  0  0
 24 28  1  0  0  0  0
 26 23  1  0  0  0  0
 26 25  1  0  0  0  0
 28 23  2  0  0  0  0
M  END
>  <MODEL>
6

>  <REMARK>
 VINA RESULT:      -7.2      2.702      7.453
  Name = 
  1 active torsions:
  status: ('A' for Active; 'I' for Inactive)
    1  A    between atoms: C_1  and  C_2
                            x       y       z     vdW  Elec       q    Type
                         _______ _______ _______ _____ _____    ______ ____

>  <TORSDO>
F 1

$$$$
=
 OpenBabel10262420563D

 28 32  0  0  1  0  0  0  0  0999 V2000
  189.7000  177.2120  140.0400 C   0  0  1  0  0  3  0  0  0  0  0  0
  184.7780  179.1620  139.1570 C   0  0  0  0  0  3  0  0  0  0  0  0
  188.5400  177.8780  135.2290 C   0  0  0  0  0  1  0  0  0  0  0  0
  184.1270  177.5750  137.4370 C   0  0  0  0  0  0  0  0  0  0  0  0
  186.6010  178.0780  137.7980 C   0  0  1  0  0  3  0  0  0  0  0  0
  182.4380  178.6860  138.7770 C   0  0  0  0  0  0  0  0  0  0  0  0
  185.1420  178.2410  138.1640 C   0  0  0  0  0  0  0  0  0  0  0  0
  185.8190  176.8190  135.7440 C   0  0  0  0  0  2  0  0  0  0  0  0
  182.7850  177.7880  137.7640 C   0  0  0  0  0  3  0  0  0  0  0  0
  189.3070  177.2040  137.4980 C   0  0  2  0  0  3  0  0  0  0  0  0
  187.5050  177.9990  139.0420 C   0  0  0  0  0  2  0  0  0  0  0  0
  184.4490  176.5720  136.3650 C   0  0  0  0  0  2  0  0  0  0  0  0
  191.5790  176.8060  138.3940 C   0  0  0  0  0  2  0  0  0  0  0  0
  188.3170  176.8850  136.3630 C   0  0  1  0  0  3  0  0  0  0  0  0
  190.5780  176.3870  137.3320 C   0  0  0  0  0  2  0  0  0  0  0  0
  181.1030  178.8940  139.0920 O   0  0  0  0  0  1  0  0  0  0  0  0
  183.4350  179.3780  139.4680 C   0  0  0  0  0  3  0  0  0  0  0  0
  186.8570  176.8910  136.8570 C   0  0  1  0  0  3  0  0  0  0  0  0
  191.0170  176.4770  139.7670 C   0  0  0  0  0  2  0  0  0  0  0  0
  188.6790  177.0160  138.8970 C   0  0  2  0  0  3  0  0  0  0  0  0
  189.1900  176.7530  141.4200 C   0  0  1  0  0  3  0  0  0  0  0  0
  190.1760  176.0030  142.2690 C   0  0  0  0  0  3  0  0  0  0  0  0
  190.6880  177.9920  143.6340 C   0  0  0  0  0  0  0  0  0  0  0  0
  188.2390  177.9980  142.3660 S   0  0  0  0  0  0  0  0  0  0  0  0
  191.7630  175.7860  143.9800 O   0  0  0  0  0  1  0  0  0  0  0  0
  190.8520  176.5640  143.2760 C   0  0  0  0  0  0  0  0  0  0  0  0
  191.7510  178.6770  144.4200 C   0  0  0  0  0  1  0  0  0  0  0  0
  189.6610  178.7200  143.1970 C   0  0  0  0  0  3  0  0  0  0  0  0
  1 19  1  6  0  0  0
  1 21  1  0  0  0  0
  2 17  1  0  0  0  0
  4  9  2  0  0  0  0
  4  7  1  0  0  0  0
  5  7  1  0  0  0  0
  5 11  1  1  0  0  0
  6 16  1  0  0  0  0
  6 17  2  0  0  0  0
  7  2  2  0  0  0  0
  8 12  1  0  0  0  0
  9  6  1  0  0  0  0
 10 15  1  1  0  0  0
 10 20  1  0  0  0  0
 12  4  1  0  0  0  0
 13 19  1  0  0  0  0
 14  3  1  6  0  0  0
 14 18  1  0  0  0  0
 14 10  1  0  0  0  0
 15 13  1  0  0  0  0
 18  8  1  6  0  0  0
 18  5  1  0  0  0  0
 20 11  1  1  0  0  0
 20  1  1  0  0  0  0
 21 22  1  1  0  0  0
 21 24  1  0  0  0  0
 22 26  2  0  0  0  0
 23 27  1  0  0  0  0
 24 28  1  0  0  0  0
 26 23  1  0  0  0  0
 26 25  1  0  0  0  0
 28 23  2  0  0  0  0
M  END
>  <MODEL>
7

>  <REMARK>
 VINA RESULT:      -7.1      3.184      8.845
  Name = 
  1 active torsions:
  status: ('A' for Active; 'I' for Inactive)
    1  A    between atoms: C_1  and  C_2
                            x       y       z     vdW  Elec       q    Type
                         _______ _______ _______ _____ _____    ______ ____

>  <TORSDO>
F 1

$$$$
=
 OpenBabel10262420563D

 28 32  0  0  1  0  0  0  0  0999 V2000
  188.7510  177.8430  143.0600 C   0  0  1  0  0  3  0  0  0  0  0  0
  187.3430  177.7630  137.8820 C   0  0  0  0  0  3  0  0  0  0  0  0
  192.5730  177.8780  139.8460 C   0  0  0  0  0  1  0  0  0  0  0  0
  188.8580  175.9970  137.1830 C   0  0  0  0  0  0  0  0  0  0  0  0
  189.4440  177.4070  139.2240 C   0  0  1  0  0  3  0  0  0  0  0  0
  186.8230  176.4270  135.9340 C   0  0  0  0  0  0  0  0  0  0  0  0
  188.5120  177.0180  138.0990 C   0  0  0  0  0  0  0  0  0  0  0  0
  191.1660  175.8850  138.1600 C   0  0  0  0  0  2  0  0  0  0  0  0
  187.9990  175.6970  136.1200 C   0  0  0  0  0  3  0  0  0  0  0  0
  190.9050  177.6120  141.6730 C   0  0  2  0  0  3  0  0  0  0  0  0
  188.6830  177.7120  140.5280 C   0  0  0  0  0  2  0  0  0  0  0  0
  190.0920  175.1580  137.3610 C   0  0  0  0  0  2  0  0  0  0  0  0
  191.0460  178.1280  144.0890 C   0  0  0  0  0  2  0  0  0  0  0  0
  191.5870  176.9080  140.4850 C   0  0  1  0  0  3  0  0  0  0  0  0
  191.6690  177.3310  142.9580 C   0  0  0  0  0  2  0  0  0  0  0  0
  185.9790  176.1240  134.8750 O   0  0  0  0  0  1  0  0  0  0  0  0
  186.4980  177.4640  136.8110 C   0  0  0  0  0  3  0  0  0  0  0  0
  190.5580  176.3780  139.4670 C   0  0  1  0  0  3  0  0  0  0  0  0
  189.6190  177.6530  144.3090 C   0  0  0  0  0  2  0  0  0  0  0  0
  189.4110  177.2420  141.7980 C   0  0  2  0  0  3  0  0  0  0  0  0
  187.3570  177.2670  143.3720 C   0  0  1  0  0  3  0  0  0  0  0  0
  187.1550  176.7530  144.7680 C   0  0  0  0  0  3  0  0  0  0  0  0
  185.9600  178.7940  145.4690 C   0  0  0  0  0  0  0  0  0  0  0  0
  185.9400  178.2530  142.7650 S   0  0  0  0  0  0  0  0  0  0  0  0
  186.4110  176.8880  146.9870 O   0  0  0  0  0  1  0  0  0  0  0  0
  186.5170  177.4450  145.7180 C   0  0  0  0  0  0  0  0  0  0  0  0
  185.6810  179.6950  146.6210 C   0  0  0  0  0  1  0  0  0  0  0  0
  185.7820  179.2720  144.2380 C   0  0  0  0  0  3  0  0  0  0  0  0
  1 21  1  0  0  0  0
  1 19  1  1  0  0  0
  2  7  1  0  0  0  0
  4 12  1  0  0  0  0
  4  7  2  0  0  0  0
  5 18  1  0  0  0  0
  5 11  1  1  0  0  0
  6  9  2  0  0  0  0
  6 17  1  0  0  0  0
  7  5  1  0  0  0  0
  9  4  1  0  0  0  0
 10 20  1  0  0  0  0
 10 15  1  1  0  0  0
 12  8  1  0  0  0  0
 13 19  1  0  0  0  0
 14  3  1  6  0  0  0
 14 10  1  0  0  0  0
 15 13  1  0  0  0  0
 16  6  1  0  0  0  0
 17  2  2  0  0  0  0
 18  8  1  6  0  0  0
 18 14  1  0  0  0  0
 20 11  1  6  0  0  0
 20  1  1  0  0  0  0
 21 22  1  1  0  0  0
 22 26  2  0  0  0  0
 23 26  1  0  0  0  0
 23 27  1  0  0  0  0
 24 21  1  0  0  0  0
 24 28  1  0  0  0  0
 26 25  1  0  0  0  0
 28 23  2  0  0  0  0
M  END
>  <MODEL>
8

>  <REMARK>
 VINA RESULT:      -7.1      4.129      7.139
  Name = 
  1 active torsions:
  status: ('A' for Active; 'I' for Inactive)
    1  A    between atoms: C_1  and  C_2
                            x       y       z     vdW  Elec       q    Type
                         _______ _______ _______ _____ _____    ______ ____

>  <TORSDO>
F 1

$$$$
=
 OpenBabel10262420563D

 28 32  0  0  1  0  0  0  0  0999 V2000
  189.0700  177.5310  146.9780 C   0  0  1  0  0  3  0  0  0  0  0  0
  188.9770  176.4460  141.7230 C   0  0  0  0  0  3  0  0  0  0  0  0
  184.5490  177.7530  144.8700 C   0  0  0  0  0  1  0  0  0  0  0  0
  187.6220  178.3460  141.0450 C   0  0  0  0  0  0  0  0  0  0  0  0
  187.4140  177.4510  143.4230 C   0  0  1  0  0  3  0  0  0  0  0  0
  189.1360  177.2980  139.4650 C   0  0  0  0  0  0  0  0  0  0  0  0
  188.0460  177.4430  142.0490 C   0  0  0  0  0  0  0  0  0  0  0  0
  185.7230  179.0970  142.5030 C   0  0  0  0  0  2  0  0  0  0  0  0
  188.1870  178.2780  139.7680 C   0  0  0  0  0  3  0  0  0  0  0  0
  186.6780  177.9690  146.1370 C   0  0  2  0  0  3  0  0  0  0  0  0
  188.4510  177.2180  144.5390 C   0  0  0  0  0  2  0  0  0  0  0  0
  186.6330  179.4400  141.3300 C   0  0  0  0  0  2  0  0  0  0  0  0
  187.1370  177.9060  148.5680 C   0  0  0  0  0  2  0  0  0  0  0  0
  185.8120  178.5890  145.0260 C   0  0  1  0  0  3  0  0  0  0  0  0
  186.3560  178.6140  147.4760 C   0  0  0  0  0  2  0  0  0  0  0  0
  189.6880  177.2360  138.1940 O   0  0  0  0  0  1  0  0  0  0  0  0
  189.5260  176.3790  140.4410 C   0  0  0  0  0  3  0  0  0  0  0  0
  186.5870  178.7150  143.6990 C   0  0  1  0  0  3  0  0  0  0  0  0
  188.6240  178.1050  148.3280 C   0  0  0  0  0  2  0  0  0  0  0  0
  188.1870  178.0350  145.8140 C   0  0  2  0  0  3  0  0  0  0  0  0
  190.5680  177.8490  146.8110 C   0  0  1  0  0  3  0  0  0  0  0  0
  191.5160  176.9680  147.5720 C   0  0  0  0  0  3  0  0  0  0  0  0
  192.0510  175.6230  145.5750 C   0  0  0  0  0  0  0  0  0  0  0  0
  191.1210  178.1750  145.0970 S   0  0  0  0  0  0  0  0  0  0  0  0
  193.0220  175.1880  147.8140 O   0  0  0  0  0  1  0  0  0  0  0  0
  192.1920  175.9610  147.0100 C   0  0  0  0  0  0  0  0  0  0  0  0
  192.4380  174.2660  145.1010 C   0  0  0  0  0  1  0  0  0  0  0  0
  191.5000  176.4620  144.7000 C   0  0  0  0  0  3  0  0  0  0  0  0
  1 19  1  1  0  0  0
  2  7  1  0  0  0  0
  4 12  1  0  0  0  0
  4  7  2  0  0  0  0
  5 18  1  0  0  0  0
  5 11  1  1  0  0  0
  6  9  2  0  0  0  0
  6 17  1  0  0  0  0
  7  5  1  0  0  0  0
  9  4  1  0  0  0  0
 10 15  1  1  0  0  0
 12  8  1  0  0  0  0
 14  3  1  6  0  0  0
 14 10  1  0  0  0  0
 15 13  1  0  0  0  0
 16  6  1  0  0  0  0
 17  2  2  0  0  0  0
 18  8  1  6  0  0  0
 18 14  1  0  0  0  0
 19 13  1  0  0  0  0
 20 11  1  6  0  0  0
 20 10  1  0  0  0  0
 20  1  1  0  0  0  0
 21  1  1  0  0  0  0
 21 22  1  6  0  0  0
 23 26  1  0  0  0  0
 24 21  1  0  0  0  0
 26 22  2  0  0  0  0
 26 25  1  0  0  0  0
 27 23  1  0  0  0  0
 28 24  1  0  0  0  0
 28 23  2  0  0  0  0
M  END
>  <MODEL>
9

>  <REMARK>
 VINA RESULT:      -6.8      4.249      8.039
  Name = 
  1 active torsions:
  status: ('A' for Active; 'I' for Inactive)
    1  A    between atoms: C_1  and  C_2
                            x       y       z     vdW  Elec       q    Type
                         _______ _______ _______ _____ _____    ______ ____

>  <TORSDO>
F 1

$$$$
