=
 OpenBabel10262421443D

 30 32  0  0  1  0  0  0  0  0999 V2000
  183.2880  178.4990  139.5180 C   0  0  1  0  0  3  0  0  0  0  0  0
  181.9730  179.2690  139.7240 C   0  0  1  0  0  3  0  0  0  0  0  0
  183.8750  177.6680  141.0480 S   0  0  0  0  0  0  0  0  0  0  0  0
  180.6310  180.0270  142.2700 C   0  0  1  0  0  3  0  0  0  0  0  0
  183.6920  178.9680  143.4520 C   0  0  2  0  0  3  0  0  0  0  0  0
  185.4940  179.5700  141.8970 O   0  0  0  0  0  1  0  0  0  0  0  0
  179.9030  179.2800  141.1520 C   0  0  2  0  0  3  0  0  0  0  0  0
  184.1490  179.2030  141.9910 C   0  0  1  0  0  3  0  0  0  0  0  0
  182.5030  179.6590  143.7440 O   0  0  0  0  0  0  0  0  0  0  0  0
  178.9310  178.4400  141.9720 C   0  0  0  0  0  2  0  0  0  0  0  0
  179.5960  180.2950  143.1690 O   0  0  0  0  0  0  0  0  0  0  0  0
  181.5450  180.0310  138.4820 C   0  0  0  0  0  1  0  0  0  0  0  0
  180.8290  178.4230  140.2810 C   0  0  0  0  0  2  0  0  0  0  0  0
  179.1950  178.9770  143.3880 C   0  0  2  0  0  3  0  0  0  0  0  0
  180.4740  178.3290  143.9030 C   0  0  0  0  0  2  0  0  0  0  0  0
  181.4990  179.0110  143.0170 C   0  0  1  0  0  3  0  0  0  0  0  0
  184.7450  179.3110  144.5020 C   0  0  0  0  0  2  0  0  0  0  0  0
  185.6610  178.6570  146.7280 C   0  0  0  0  0  1  0  0  0  0  0  0
  184.4400  178.6310  145.8280 C   0  0  0  0  0  2  0  0  0  0  0  0
  183.2870  177.5740  138.2790 C   0  0  2  0  0  3  0  0  0  0  0  0
  182.0950  175.4300  138.4970 C   0  0  0  0  0  2  0  0  0  0  0  0
  183.2360  176.1070  138.5930 C   0  0  0  0  0  3  0  0  0  0  0  0
  184.4000  177.8890  137.2710 C   0  0  2  0  0  3  0  0  0  0  0  0
  184.5020  176.8720  136.1760 C   0  0  0  0  0  3  0  0  0  0  0  0
  183.9910  177.0810  135.0880 O   0  0  0  0  0  0  0  0  0  0  0  0
  185.7380  178.0550  137.9740 C   0  0  0  0  0  2  0  0  0  0  0  0
  186.9820  176.9700  137.2110 S   0  0  0  0  0  0  0  0  0  0  0  0
  188.3400  177.6520  138.2030 C   0  0  0  0  0  3  0  0  0  0  0  0
  188.9830  178.8000  137.4550 C   0  0  0  0  0  1  0  0  0  0  0  0
  187.8000  178.1550  139.5240 C   0  0  0  0  0  1  0  0  0  0  0  0
  1 20  1  6  0  0  0
  1  2  1  0  0  0  0
  1  3  1  0  0  0  0
  2 12  1  6  0  0  0
  2 13  1  0  0  0  0
  3  8  1  0  0  0  0
  4 16  1  0  0  0  0
  4 11  1  1  0  0  0
  5  9  1  0  0  0  0
  5 17  1  1  0  0  0
  7 13  1  1  0  0  0
  7 10  1  0  0  0  0
  7  4  1  0  0  0  0
  8  6  1  1  0  0  0
  8  5  1  0  0  0  0
 11 14  1  0  0  0  0
 14 10  1  6  0  0  0
 14 15  1  0  0  0  0
 16  9  1  0  0  0  0
 16 15  1  1  0  0  0
 17 19  1  0  0  0  0
 19 18  1  0  0  0  0
 20 22  1  1  0  0  0
 21 22  2  0  0  0  0
 23 24  1  6  0  0  0
 23 26  1  0  0  0  0
 23 20  1  0  0  0  0
 25 24  2  0  0  0  0
 27 26  1  0  0  0  0
 27 28  1  0  0  0  0
 28 30  1  0  0  0  0
 29 28  1  0  0  0  0
M  END
>  <MODEL>
1

>  <REMARK>
 VINA RESULT:      -5.6      0.000      0.000
  Name = 
  9 active torsions:
  status: ('A' for Active; 'I' for Inactive)
    1  A    between atoms: C_1  and  C_22
    2  A    between atoms: C_2  and  C_14
    3  A    between atoms: C_3  and  S_28
    4  A    between atoms: C_6  and  C_8
    5  A    between atoms: C_6  and  C_21
    6  A    between atoms: C_14  and  C_20
    7  A    between atoms: C_14  and  C_22
    8  A    between atoms: C_20  and  S_28
    9  A    between atoms: C_22  and  C_29
                            x       y       z     vdW  Elec       q    Type
                         _______ _______ _______ _____ _____    ______ ____

>  <TORSDO>
F 9

$$$$
=
 OpenBabel10262421443D

 30 32  0  0  1  0  0  0  0  0999 V2000
  183.4100  178.2180  139.5130 C   0  0  1  0  0  3  0  0  0  0  0  0
  182.0830  178.9930  139.5780 C   0  0  1  0  0  3  0  0  0  0  0  0
  183.9200  177.5390  141.1430 S   0  0  0  0  0  0  0  0  0  0  0  0
  180.6070  179.9740  141.9680 C   0  0  1  0  0  3  0  0  0  0  0  0
  183.6050  179.0560  143.4020 C   0  0  2  0  0  3  0  0  0  0  0  0
  185.4840  179.5260  141.8930 O   0  0  0  0  0  1  0  0  0  0  0  0
  179.9410  179.1190  140.8890 C   0  0  2  0  0  3  0  0  0  0  0  0
  184.1380  179.1580  141.9510 C   0  0  1  0  0  3  0  0  0  0  0  0
  182.4010  179.7620  143.5650 O   0  0  0  0  0  0  0  0  0  0  0  0
  178.9310  178.3510  141.7330 C   0  0  0  0  0  2  0  0  0  0  0  0
  179.5250  180.3160  142.7830 O   0  0  0  0  0  0  0  0  0  0  0  0
  181.7180  179.6310  138.2490 C   0  0  0  0  0  1  0  0  0  0  0  0
  180.9150  178.1920  140.1510 C   0  0  0  0  0  2  0  0  0  0  0  0
  179.1180  179.0200  143.1040 C   0  0  2  0  0  3  0  0  0  0  0  0
  180.3710  178.4350  143.7430 C   0  0  0  0  0  2  0  0  0  0  0  0
  181.4380  179.0390  142.8520 C   0  0  1  0  0  3  0  0  0  0  0  0
  184.6000  179.5060  144.4680 C   0  0  0  0  0  2  0  0  0  0  0  0
  185.6430  178.8350  146.6320 C   0  0  0  0  0  1  0  0  0  0  0  0
  184.4040  178.7330  145.7630 C   0  0  0  0  0  2  0  0  0  0  0  0
  183.4770  177.1820  138.3680 C   0  0  2  0  0  3  0  0  0  0  0  0
  181.9680  175.2400  138.2510 C   0  0  0  0  0  2  0  0  0  0  0  0
  183.0680  175.7920  138.7570 C   0  0  0  0  0  3  0  0  0  0  0  0
  184.8150  177.1780  137.6150 C   0  0  2  0  0  3  0  0  0  0  0  0
  185.6770  178.3550  137.9520 C   0  0  0  0  0  3  0  0  0  0  0  0
  186.7830  178.1920  138.4420 O   0  0  0  0  0  0  0  0  0  0  0  0
  184.5930  177.0900  136.1130 C   0  0  0  0  0  2  0  0  0  0  0  0
  184.8760  175.3880  135.5390 S   0  0  0  0  0  0  0  0  0  0  0  0
  186.1400  175.0610  136.8000 C   0  0  0  0  0  3  0  0  0  0  0  0
  185.9960  173.6380  137.2990 C   0  0  0  0  0  1  0  0  0  0  0  0
  187.5160  175.2440  136.1980 C   0  0  0  0  0  1  0  0  0  0  0  0
  1 20  1  6  0  0  0
  1  2  1  0  0  0  0
  1  3  1  0  0  0  0
  2 12  1  6  0  0  0
  2 13  1  0  0  0  0
  3  8  1  0  0  0  0
  4 11  1  1  0  0  0
  4 16  1  0  0  0  0
  5  9  1  0  0  0  0
  5 17  1  1  0  0  0
  7 13  1  1  0  0  0
  7 10  1  0  0  0  0
  7  4  1  0  0  0  0
  8  6  1  1  0  0  0
  8  5  1  0  0  0  0
 11 14  1  0  0  0  0
 14 10  1  6  0  0  0
 14 15  1  0  0  0  0
 16  9  1  0  0  0  0
 16 15  1  1  0  0  0
 17 19  1  0  0  0  0
 19 18  1  0  0  0  0
 20 22  1  1  0  0  0
 21 22  2  0  0  0  0
 23 26  1  6  0  0  0
 23 24  1  0  0  0  0
 23 20  1  0  0  0  0
 24 25  2  0  0  0  0
 27 26  1  0  0  0  0
 27 28  1  0  0  0  0
 28 29  1  0  0  0  0
 30 28  1  0  0  0  0
M  END
>  <MODEL>
2

>  <REMARK>
 VINA RESULT:      -5.4      1.400      1.947
  Name = 
  9 active torsions:
  status: ('A' for Active; 'I' for Inactive)
    1  A    between atoms: C_1  and  C_22
    2  A    between atoms: C_2  and  C_14
    3  A    between atoms: C_3  and  S_28
    4  A    between atoms: C_6  and  C_8
    5  A    between atoms: C_6  and  C_21
    6  A    between atoms: C_14  and  C_20
    7  A    between atoms: C_14  and  C_22
    8  A    between atoms: C_20  and  S_28
    9  A    between atoms: C_22  and  C_29
                            x       y       z     vdW  Elec       q    Type
                         _______ _______ _______ _____ _____    ______ ____

>  <TORSDO>
F 9

$$$$
=
 OpenBabel10262421443D

 30 32  0  0  1  0  0  0  0  0999 V2000
  187.7620  177.4770  141.9570 C   0  0  1  0  0  3  0  0  0  0  0  0
  187.9130  176.7780  143.3190 C   0  0  1  0  0  3  0  0  0  0  0  0
  186.7300  178.9950  142.0440 S   0  0  0  0  0  0  0  0  0  0  0  0
  186.3650  177.2150  145.8240 C   0  0  1  0  0  3  0  0  0  0  0  0
  184.4590  179.0040  143.5760 C   0  0  2  0  0  3  0  0  0  0  0  0
  184.4220  177.9040  141.3800 O   0  0  0  0  0  1  0  0  0  0  0  0
  187.8940  177.2560  145.7880 C   0  0  2  0  0  3  0  0  0  0  0  0
  185.1940  178.1390  142.5210 C   0  0  1  0  0  3  0  0  0  0  0  0
  184.5190  178.4270  144.8560 O   0  0  0  0  0  0  0  0  0  0  0  0
  188.1650  178.2890  146.8750 C   0  0  0  0  0  2  0  0  0  0  0  0
  186.1000  177.3140  147.1910 O   0  0  0  0  0  0  0  0  0  0  0  0
  188.6860  175.4750  143.2210 C   0  0  0  0  0  1  0  0  0  0  0  0
  188.4660  177.6720  144.4270 C   0  0  0  0  0  2  0  0  0  0  0  0
  186.7470  178.5290  147.4180 C   0  0  2  0  0  3  0  0  0  0  0  0
  186.0290  179.4650  146.4540 C   0  0  0  0  0  2  0  0  0  0  0  0
  185.8530  178.5440  145.2620 C   0  0  1  0  0  3  0  0  0  0  0  0
  183.0050  179.3120  143.2310 C   0  0  0  0  0  2  0  0  0  0  0  0
  180.6350  178.7010  143.7120 C   0  0  0  0  0  1  0  0  0  0  0  0
  182.0570  178.6850  144.2410 C   0  0  0  0  0  2  0  0  0  0  0  0
  189.0990  177.6850  141.2070 C   0  0  2  0  0  3  0  0  0  0  0  0
  191.3260  177.8260  142.2460 C   0  0  0  0  0  2  0  0  0  0  0  0
  190.1540  178.4030  141.9960 C   0  0  0  0  0  3  0  0  0  0  0  0
  188.9350  178.2980  139.8100 C   0  0  2  0  0  3  0  0  0  0  0  0
  187.6550  177.8980  139.1440 C   0  0  0  0  0  3  0  0  0  0  0  0
  187.1720  178.5920  138.2630 O   0  0  0  0  0  0  0  0  0  0  0  0
  190.1260  177.9620  138.9260 C   0  0  0  0  0  2  0  0  0  0  0  0
  190.1310  176.1870  138.5350 S   0  0  0  0  0  0  0  0  0  0  0  0
  191.8240  176.2280  137.8810 C   0  0  0  0  0  3  0  0  0  0  0  0
  192.7470  176.8440  138.9120 C   0  0  0  0  0  1  0  0  0  0  0  0
  192.2840  174.8190  137.5760 C   0  0  0  0  0  1  0  0  0  0  0  0
  1 20  1  1  0  0  0
  1  3  1  0  0  0  0
  1  2  1  0  0  0  0
  2 12  1  6  0  0  0
  2 13  1  0  0  0  0
  3  8  1  0  0  0  0
  4 11  1  1  0  0  0
  5 17  1  6  0  0  0
  5  9  1  0  0  0  0
  7 13  1  6  0  0  0
  7  4  1  0  0  0  0
  7 10  1  0  0  0  0
  8  6  1  6  0  0  0
  8  5  1  0  0  0  0
  9 16  1  0  0  0  0
 10 14  1  0  0  0  0
 11 14  1  0  0  0  0
 14 15  1  6  0  0  0
 16  4  1  0  0  0  0
 16 15  1  1  0  0  0
 17 19  1  0  0  0  0
 18 19  1  0  0  0  0
 20 22  1  1  0  0  0
 22 21  2  0  0  0  0
 23 26  1  6  0  0  0
 23 20  1  0  0  0  0
 24 23  1  0  0  0  0
 25 24  2  0  0  0  0
 27 26  1  0  0  0  0
 28 27  1  0  0  0  0
 28 29  1  0  0  0  0
 30 28  1  0  0  0  0
M  END
>  <MODEL>
3

>  <REMARK>
 VINA RESULT:      -5.3      3.161      6.227
  Name = 
  9 active torsions:
  status: ('A' for Active; 'I' for Inactive)
    1  A    between atoms: C_1  and  C_22
    2  A    between atoms: C_2  and  C_14
    3  A    between atoms: C_3  and  S_28
    4  A    between atoms: C_6  and  C_8
    5  A    between atoms: C_6  and  C_21
    6  A    between atoms: C_14  and  C_20
    7  A    between atoms: C_14  and  C_22
    8  A    between atoms: C_20  and  S_28
    9  A    between atoms: C_22  and  C_29
                            x       y       z     vdW  Elec       q    Type
                         _______ _______ _______ _____ _____    ______ ____

>  <TORSDO>
F 9

$$$$
=
 OpenBabel10262421443D

 30 32  0  0  1  0  0  0  0  0999 V2000
  187.7400  177.7500  141.6880 C   0  0  1  0  0  3  0  0  0  0  0  0
  187.9800  177.0100  143.0140 C   0  0  1  0  0  3  0  0  0  0  0  0
  186.5520  179.1430  141.8520 S   0  0  0  0  0  0  0  0  0  0  0  0
  186.4240  177.1620  145.5460 C   0  0  1  0  0  3  0  0  0  0  0  0
  184.3110  178.8370  143.3970 C   0  0  2  0  0  3  0  0  0  0  0  0
  184.3660  177.8420  141.1530 O   0  0  0  0  0  1  0  0  0  0  0  0
  187.9380  177.3690  145.5030 C   0  0  2  0  0  3  0  0  0  0  0  0
  185.1220  178.1050  142.2980 C   0  0  1  0  0  3  0  0  0  0  0  0
  184.4470  178.2120  144.6490 O   0  0  0  0  0  0  0  0  0  0  0  0
  188.1100  178.3740  146.6360 C   0  0  0  0  0  2  0  0  0  0  0  0
  186.1640  177.1690  146.9190 O   0  0  0  0  0  0  0  0  0  0  0  0
  188.8870  175.8030  142.8500 C   0  0  0  0  0  1  0  0  0  0  0  0
  188.4470  177.9070  144.1590 C   0  0  0  0  0  2  0  0  0  0  0  0
  186.6810  178.4350  147.1980 C   0  0  2  0  0  3  0  0  0  0  0  0
  185.8550  179.3320  146.2830 C   0  0  0  0  0  2  0  0  0  0  0  0
  185.7650  178.4530  145.0510 C   0  0  1  0  0  3  0  0  0  0  0  0
  182.8280  179.0030  143.0770 C   0  0  0  0  0  2  0  0  0  0  0  0
  180.4990  178.6170  143.8830 C   0  0  0  0  0  1  0  0  0  0  0  0
  181.9640  178.6470  144.2760 C   0  0  0  0  0  2  0  0  0  0  0  0
  189.0370  178.1350  140.9390 C   0  0  2  0  0  3  0  0  0  0  0  0
  187.7790  178.1150  138.8230 C   0  0  0  0  0  2  0  0  0  0  0  0
  188.8370  178.5390  139.5080 C   0  0  0  0  0  3  0  0  0  0  0  0
  190.1590  177.0970  141.0730 C   0  0  2  0  0  3  0  0  0  0  0  0
  191.4020  177.6570  141.6920 C   0  0  0  0  0  3  0  0  0  0  0  0
  191.6940  177.3880  142.8470 O   0  0  0  0  0  0  0  0  0  0  0  0
  190.4720  176.4590  139.7280 C   0  0  0  0  0  2  0  0  0  0  0  0
  192.1880  176.8220  139.2500 S   0  0  0  0  0  0  0  0  0  0  0  0
  191.9770  176.1480  137.5780 C   0  0  0  0  0  3  0  0  0  0  0  0
  192.2520  174.6590  137.5980 C   0  0  0  0  0  1  0  0  0  0  0  0
  190.5590  176.3900  137.1090 C   0  0  0  0  0  1  0  0  0  0  0  0
  1 20  1  1  0  0  0
  1  3  1  0  0  0  0
  1  2  1  0  0  0  0
  2 12  1  6  0  0  0
  2 13  1  0  0  0  0
  3  8  1  0  0  0  0
  4 11  1  1  0  0  0
  5 17  1  6  0  0  0
  5  9  1  0  0  0  0
  7 13  1  6  0  0  0
  7  4  1  0  0  0  0
  7 10  1  0  0  0  0
  8  6  1  6  0  0  0
  8  5  1  0  0  0  0
  9 16  1  0  0  0  0
 10 14  1  0  0  0  0
 11 14  1  0  0  0  0
 14 15  1  6  0  0  0
 16  4  1  0  0  0  0
 16 15  1  1  0  0  0
 17 19  1  0  0  0  0
 18 19  1  0  0  0  0
 20 22  1  6  0  0  0
 20 23  1  0  0  0  0
 21 22  2  0  0  0  0
 23 26  1  6  0  0  0
 23 24  1  0  0  0  0
 24 25  2  0  0  0  0
 27 26  1  0  0  0  0
 28 29  1  0  0  0  0
 28 27  1  0  0  0  0
 30 28  1  0  0  0  0
M  END
>  <MODEL>
4

>  <REMARK>
 VINA RESULT:      -5.2      3.266      6.431
  Name = 
  9 active torsions:
  status: ('A' for Active; 'I' for Inactive)
    1  A    between atoms: C_1  and  C_22
    2  A    between atoms: C_2  and  C_14
    3  A    between atoms: C_3  and  S_28
    4  A    between atoms: C_6  and  C_8
    5  A    between atoms: C_6  and  C_21
    6  A    between atoms: C_14  and  C_20
    7  A    between atoms: C_14  and  C_22
    8  A    between atoms: C_20  and  S_28
    9  A    between atoms: C_22  and  C_29
                            x       y       z     vdW  Elec       q    Type
                         _______ _______ _______ _____ _____    ______ ____

>  <TORSDO>
F 9

$$$$
=
 OpenBabel10262421443D

 30 32  0  0  1  0  0  0  0  0999 V2000
  187.9330  177.2960  142.0730 C   0  0  1  0  0  3  0  0  0  0  0  0
  187.9240  176.6220  143.4550 C   0  0  1  0  0  3  0  0  0  0  0  0
  186.9610  178.8540  142.0330 S   0  0  0  0  0  0  0  0  0  0  0  0
  186.1640  177.1750  145.7920 C   0  0  1  0  0  3  0  0  0  0  0  0
  184.5560  178.9860  143.3380 C   0  0  2  0  0  3  0  0  0  0  0  0
  184.6830  177.8410  141.1700 O   0  0  0  0  0  1  0  0  0  0  0  0
  187.6890  177.1550  145.9020 C   0  0  2  0  0  3  0  0  0  0  0  0
  185.3520  178.0700  142.3750 C   0  0  1  0  0  3  0  0  0  0  0  0
  184.4700  178.4360  144.6290 O   0  0  0  0  0  0  0  0  0  0  0  0
  187.8980  178.2000  146.9920 C   0  0  0  0  0  2  0  0  0  0  0  0
  185.7730  177.3150  147.1250 O   0  0  0  0  0  0  0  0  0  0  0  0
  188.6480  175.2870  143.4570 C   0  0  0  0  0  1  0  0  0  0  0  0
  188.4050  177.5180  144.5960 C   0  0  0  0  0  2  0  0  0  0  0  0
  186.4460  178.5080  147.3910 C   0  0  2  0  0  3  0  0  0  0  0  0
  185.8620  179.4500  146.3450 C   0  0  0  0  0  2  0  0  0  0  0  0
  185.7630  178.5100  145.1590 C   0  0  1  0  0  3  0  0  0  0  0  0
  183.1550  179.3440  142.8500 C   0  0  0  0  0  2  0  0  0  0  0  0
  180.7450  178.8510  143.2590 C   0  0  0  0  0  1  0  0  0  0  0  0
  182.1070  179.0210  143.9040 C   0  0  0  0  0  2  0  0  0  0  0  0
  189.3420  177.4340  141.4510 C   0  0  2  0  0  3  0  0  0  0  0  0
  191.0980  178.4850  142.8210 C   0  0  0  0  0  2  0  0  0  0  0  0
  190.1210  178.6240  141.9280 C   0  0  0  0  0  3  0  0  0  0  0  0
  189.3540  177.3380  139.9200 C   0  0  2  0  0  3  0  0  0  0  0  0
  190.5910  176.6850  139.3860 C   0  0  0  0  0  3  0  0  0  0  0  0
  190.5200  175.6310  138.7740 O   0  0  0  0  0  0  0  0  0  0  0  0
  189.1570  178.7070  139.2880 C   0  0  0  0  0  2  0  0  0  0  0  0
  188.6670  178.5260  137.5460 S   0  0  0  0  0  0  0  0  0  0  0  0
  187.2820  177.4220  137.9410 C   0  0  0  0  0  3  0  0  0  0  0  0
  185.9850  178.2020  137.8870 C   0  0  0  0  0  1  0  0  0  0  0  0
  187.2300  176.2940  136.9330 C   0  0  0  0  0  1  0  0  0  0  0  0
  1 20  1  1  0  0  0
  1  2  1  0  0  0  0
  2 12  1  6  0  0  0
  2 13  1  0  0  0  0
  3  1  1  0  0  0  0
  3  8  1  0  0  0  0
  4  7  1  0  0  0  0
  4 11  1  1  0  0  0
  5 17  1  6  0  0  0
  5  9  1  0  0  0  0
  7 13  1  6  0  0  0
  7 10  1  0  0  0  0
  8  6  1  6  0  0  0
  8  5  1  0  0  0  0
  9 16  1  0  0  0  0
 10 14  1  0  0  0  0
 11 14  1  0  0  0  0
 14 15  1  6  0  0  0
 16  4  1  0  0  0  0
 16 15  1  1  0  0  0
 17 19  1  0  0  0  0
 18 19  1  0  0  0  0
 20 22  1  6  0  0  0
 22 21  2  0  0  0  0
 23 26  1  6  0  0  0
 23 20  1  0  0  0  0
 24 23  1  0  0  0  0
 25 24  2  0  0  0  0
 27 28  1  0  0  0  0
 27 26  1  0  0  0  0
 29 28  1  0  0  0  0
 30 28  1  0  0  0  0
M  END
>  <MODEL>
5

>  <REMARK>
 VINA RESULT:      -5.0      2.905      6.248
  Name = 
  9 active torsions:
  status: ('A' for Active; 'I' for Inactive)
    1  A    between atoms: C_1  and  C_22
    2  A    between atoms: C_2  and  C_14
    3  A    between atoms: C_3  and  S_28
    4  A    between atoms: C_6  and  C_8
    5  A    between atoms: C_6  and  C_21
    6  A    between atoms: C_14  and  C_20
    7  A    between atoms: C_14  and  C_22
    8  A    between atoms: C_20  and  S_28
    9  A    between atoms: C_22  and  C_29
                            x       y       z     vdW  Elec       q    Type
                         _______ _______ _______ _____ _____    ______ ____

>  <TORSDO>
F 9

$$$$
=
 OpenBabel10262421443D

 30 32  0  0  1  0  0  0  0  0999 V2000
  190.5210  177.7270  140.4050 C   0  0  1  0  0  3  0  0  0  0  0  0
  191.7790  177.3280  139.6170 C   0  0  1  0  0  3  0  0  0  0  0  0
  188.9670  177.1710  139.5960 S   0  0  0  0  0  0  0  0  0  0  0  0
  191.9960  176.3350  136.8200 C   0  0  1  0  0  3  0  0  0  0  0  0
  188.7080  177.3710  136.8770 C   0  0  2  0  0  3  0  0  0  0  0  0
  188.4420  179.3830  138.2580 O   0  0  0  0  0  1  0  0  0  0  0  0
  192.6220  175.5940  138.0020 C   0  0  2  0  0  3  0  0  0  0  0  0
  189.1650  178.1980  138.1040 C   0  0  1  0  0  3  0  0  0  0  0  0
  189.7960  176.9820  136.0760 O   0  0  0  0  0  0  0  0  0  0  0  0
  192.5000  174.1540  137.5200 C   0  0  0  0  0  2  0  0  0  0  0  0
  192.4740  175.6060  135.7290 O   0  0  0  0  0  0  0  0  0  0  0  0
  193.0530  177.8730  140.2410 C   0  0  0  0  0  1  0  0  0  0  0  0
  191.8950  175.8320  139.3310 C   0  0  0  0  0  2  0  0  0  0  0  0
  191.9580  174.3620  136.0960 C   0  0  2  0  0  3  0  0  0  0  0  0
  190.4650  174.6480  136.1990 C   0  0  0  0  0  2  0  0  0  0  0  0
  190.4960  176.0290  136.8240 C   0  0  1  0  0  3  0  0  0  0  0  0
  187.6650  178.0650  136.0050 C   0  0  0  0  0  2  0  0  0  0  0  0
  186.4630  176.0510  136.8540 C   0  0  0  0  0  1  0  0  0  0  0  0
  186.3300  177.3400  136.0640 C   0  0  0  0  0  2  0  0  0  0  0  0
  190.5870  177.3820  141.9110 C   0  0  2  0  0  3  0  0  0  0  0  0
  190.7800  175.3060  143.2200 C   0  0  0  0  0  2  0  0  0  0  0  0
  190.1690  175.9820  142.2510 C   0  0  0  0  0  3  0  0  0  0  0  0
  189.8840  178.4070  142.8110 C   0  0  2  0  0  3  0  0  0  0  0  0
  190.7440  178.8760  143.9440 C   0  0  0  0  0  3  0  0  0  0  0  0
  191.9440  178.6540  143.9420 O   0  0  0  0  0  0  0  0  0  0  0  0
  188.5650  177.8570  143.3330 C   0  0  0  0  0  2  0  0  0  0  0  0
  188.5590  177.8710  145.1510 S   0  0  0  0  0  0  0  0  0  0  0  0
  186.7700  177.5850  145.2540 C   0  0  0  0  0  3  0  0  0  0  0  0
  186.1730  178.5020  146.3000 C   0  0  0  0  0  1  0  0  0  0  0  0
  186.1330  177.8740  143.9120 C   0  0  0  0  0  1  0  0  0  0  0  0
  1 20  1  1  0  0  0
  2 12  1  1  0  0  0
  2  1  1  0  0  0  0
  3  1  1  0  0  0  0
  4 11  1  6  0  0  0
  4 16  1  0  0  0  0
  4  7  1  0  0  0  0
  5 17  1  6  0  0  0
  5  8  1  0  0  0  0
  7 10  1  6  0  0  0
  7 13  1  0  0  0  0
  8  6  1  1  0  0  0
  8  3  1  0  0  0  0
  9 16  1  0  0  0  0
  9  5  1  0  0  0  0
 11 14  1  0  0  0  0
 13  2  1  0  0  0  0
 14 15  1  1  0  0  0
 14 10  1  0  0  0  0
 16 15  1  6  0  0  0
 17 19  1  0  0  0  0
 19 18  1  0  0  0  0
 20 22  1  6  0  0  0
 20 23  1  0  0  0  0
 22 21  2  0  0  0  0
 23 26  1  1  0  0  0
 23 24  1  0  0  0  0
 25 24  2  0  0  0  0
 26 27  1  0  0  0  0
 27 28  1  0  0  0  0
 28 29  1  0  0  0  0
 30 28  1  0  0  0  0
M  END
>  <MODEL>
6

>  <REMARK>
 VINA RESULT:      -4.9      4.969     10.251
  Name = 
  9 active torsions:
  status: ('A' for Active; 'I' for Inactive)
    1  A    between atoms: C_1  and  C_22
    2  A    between atoms: C_2  and  C_14
    3  A    between atoms: C_3  and  S_28
    4  A    between atoms: C_6  and  C_8
    5  A    between atoms: C_6  and  C_21
    6  A    between atoms: C_14  and  C_20
    7  A    between atoms: C_14  and  C_22
    8  A    between atoms: C_20  and  S_28
    9  A    between atoms: C_22  and  C_29
                            x       y       z     vdW  Elec       q    Type
                         _______ _______ _______ _____ _____    ______ ____

>  <TORSDO>
F 9

$$$$
=
 OpenBabel10262421443D

 30 32  0  0  1  0  0  0  0  0999 V2000
  187.4790  176.9800  138.0080 C   0  0  1  0  0  3  0  0  0  0  0  0
  188.2570  175.7510  137.5100 C   0  0  1  0  0  3  0  0  0  0  0  0
  188.5660  178.2590  138.7540 S   0  0  0  0  0  0  0  0  0  0  0  0
  191.0690  174.9610  138.0840 C   0  0  1  0  0  3  0  0  0  0  0  0
  190.6370  177.4990  140.3780 C   0  0  2  0  0  3  0  0  0  0  0  0
  188.3500  177.5000  141.2710 O   0  0  0  0  0  1  0  0  0  0  0  0
  190.5240  175.0690  136.6590 C   0  0  2  0  0  3  0  0  0  0  0  0
  189.1300  177.2260  140.1450 C   0  0  1  0  0  3  0  0  0  0  0  0
  191.4320  176.4120  139.9760 O   0  0  0  0  0  0  0  0  0  0  0  0
  191.7790  175.5140  135.9180 C   0  0  0  0  0  2  0  0  0  0  0  0
  192.3420  174.4280  137.8730 O   0  0  0  0  0  0  0  0  0  0  0  0
  187.3430  174.6580  136.9830 C   0  0  0  0  0  1  0  0  0  0  0  0
  189.3720  176.0720  136.5160 C   0  0  0  0  0  2  0  0  0  0  0  0
  192.8290  175.4340  137.0380 C   0  0  2  0  0  3  0  0  0  0  0  0
  192.6820  176.6770  137.9080 C   0  0  0  0  0  2  0  0  0  0  0  0
  191.3550  176.3820  138.5790 C   0  0  1  0  0  3  0  0  0  0  0  0
  190.9910  177.8770  141.8140 C   0  0  0  0  0  2  0  0  0  0  0  0
  190.8180  176.7210  144.0180 C   0  0  0  0  0  1  0  0  0  0  0  0
  191.4000  176.6530  142.6190 C   0  0  0  0  0  2  0  0  0  0  0  0
  186.4780  177.5500  136.9760 C   0  0  2  0  0  3  0  0  0  0  0  0
  187.1730  178.4350  134.7860 C   0  0  0  0  0  2  0  0  0  0  0  0
  187.0350  178.6290  136.0950 C   0  0  0  0  0  3  0  0  0  0  0  0
  185.1320  177.9670  137.5850 C   0  0  2  0  0  3  0  0  0  0  0  0
  185.2730  178.5940  138.9380 C   0  0  0  0  0  3  0  0  0  0  0  0
  184.9340  179.7520  139.1210 O   0  0  0  0  0  0  0  0  0  0  0  0
  184.1720  176.7890  137.6380 C   0  0  0  0  0  2  0  0  0  0  0  0
  182.5160  177.3090  137.0980 S   0  0  0  0  0  0  0  0  0  0  0  0
  181.7610  176.9520  138.7090 C   0  0  0  0  0  3  0  0  0  0  0  0
  182.6560  176.0090  139.4860 C   0  0  0  0  0  1  0  0  0  0  0  0
  181.5930  178.2390  139.4870 C   0  0  0  0  0  1  0  0  0  0  0  0
  1 20  1  6  0  0  0
  1  3  1  0  0  0  0
  2 12  1  6  0  0  0
  2  1  1  0  0  0  0
  3  8  1  0  0  0  0
  4 11  1  6  0  0  0
  4 16  1  0  0  0  0
  5 17  1  1  0  0  0
  7 10  1  6  0  0  0
  7  4  1  0  0  0  0
  8  5  1  0  0  0  0
  8  6  1  1  0  0  0
  9  5  1  0  0  0  0
 13  7  1  0  0  0  0
 13  2  1  0  0  0  0
 14 10  1  6  0  0  0
 14 11  1  0  0  0  0
 14 15  1  0  0  0  0
 16 15  1  6  0  0  0
 16  9  1  0  0  0  0
 17 19  1  0  0  0  0
 19 18  1  0  0  0  0
 20 22  1  1  0  0  0
 20 23  1  0  0  0  0
 21 22  2  0  0  0  0
 23 26  1  1  0  0  0
 23 24  1  0  0  0  0
 24 25  2  0  0  0  0
 27 26  1  0  0  0  0
 27 28  1  0  0  0  0
 28 29  1  0  0  0  0
 28 30  1  0  0  0  0
M  END
>  <MODEL>
7

>  <REMARK>
 VINA RESULT:      -4.7      3.727      8.549
  Name = 
  9 active torsions:
  status: ('A' for Active; 'I' for Inactive)
    1  A    between atoms: C_1  and  C_22
    2  A    between atoms: C_2  and  C_14
    3  A    between atoms: C_3  and  S_28
    4  A    between atoms: C_6  and  C_8
    5  A    between atoms: C_6  and  C_21
    6  A    between atoms: C_14  and  C_20
    7  A    between atoms: C_14  and  C_22
    8  A    between atoms: C_20  and  S_28
    9  A    between atoms: C_22  and  C_29
                            x       y       z     vdW  Elec       q    Type
                         _______ _______ _______ _____ _____    ______ ____

>  <TORSDO>
F 9

$$$$
=
 OpenBabel10262421443D

 30 32  0  0  1  0  0  0  0  0999 V2000
  181.4410  177.9880  140.4440 C   0  0  1  0  0  3  0  0  0  0  0  0
  180.7240  178.8870  139.4240 C   0  0  1  0  0  3  0  0  0  0  0  0
  181.8560  176.3310  139.7670 S   0  0  0  0  0  0  0  0  0  0  0  0
  179.4730  178.1400  136.8280 C   0  0  1  0  0  3  0  0  0  0  0  0
  180.0440  175.0210  138.1840 C   0  0  2  0  0  3  0  0  0  0  0  0
  179.7150  175.0440  140.6170 O   0  0  0  0  0  1  0  0  0  0  0  0
  180.5030  179.2640  136.9470 C   0  0  2  0  0  3  0  0  0  0  0  0
  180.1290  175.8030  139.5190 C   0  0  1  0  0  3  0  0  0  0  0  0
  179.3750  175.7580  137.1910 O   0  0  0  0  0  0  0  0  0  0  0  0
  181.1840  179.1560  135.5880 C   0  0  0  0  0  2  0  0  0  0  0  0
  179.0650  178.2530  135.4980 O   0  0  0  0  0  0  0  0  0  0  0  0
  180.3000  180.2190  140.0190 C   0  0  0  0  0  1  0  0  0  0  0  0
  181.4830  179.0800  138.1120 C   0  0  0  0  0  2  0  0  0  0  0  0
  180.3170  178.0860  134.9050 C   0  0  2  0  0  3  0  0  0  0  0  0
  180.7490  176.7240  135.4340 C   0  0  0  0  0  2  0  0  0  0  0  0
  180.2340  176.8110  136.8570 C   0  0  1  0  0  3  0  0  0  0  0  0
  179.4020  173.6420  138.3050 C   0  0  0  0  0  2  0  0  0  0  0  0
  181.1740  172.9140  136.7070 C   0  0  0  0  0  1  0  0  0  0  0  0
  180.3930  172.5430  137.9540 C   0  0  0  0  0  2  0  0  0  0  0  0
  182.6280  178.6730  141.1600 C   0  0  2  0  0  3  0  0  0  0  0  0
  184.6840  179.0060  139.8470 C   0  0  0  0  0  2  0  0  0  0  0  0
  183.9820  178.2420  140.6790 C   0  0  0  0  0  3  0  0  0  0  0  0
  182.5390  178.6230  142.6910 C   0  0  2  0  0  3  0  0  0  0  0  0
  181.2940  179.2620  143.2240 C   0  0  0  0  0  3  0  0  0  0  0  0
  180.4840  178.6040  143.8590 O   0  0  0  0  0  0  0  0  0  0  0  0
  183.7730  179.2440  143.3280 C   0  0  0  0  0  2  0  0  0  0  0  0
  183.7360  178.9990  145.1290 S   0  0  0  0  0  0  0  0  0  0  0  0
  185.5450  178.9440  145.2650 C   0  0  0  0  0  3  0  0  0  0  0  0
  185.9330  178.6300  146.6950 C   0  0  0  0  0  1  0  0  0  0  0  0
  186.0900  177.8690  144.3500 C   0  0  0  0  0  1  0  0  0  0  0  0
  1 20  1  6  0  0  0
  2 12  1  1  0  0  0
  2  1  1  0  0  0  0
  3  1  1  0  0  0  0
  4 11  1  6  0  0  0
  4 16  1  0  0  0  0
  4  7  1  0  0  0  0
  5 17  1  1  0  0  0
  5  8  1  0  0  0  0
  7 10  1  6  0  0  0
  7 13  1  0  0  0  0
  8  3  1  0  0  0  0
  8  6  1  1  0  0  0
  9  5  1  0  0  0  0
 13  2  1  0  0  0  0
 14 15  1  1  0  0  0
 14 11  1  0  0  0  0
 14 10  1  0  0  0  0
 16 15  1  6  0  0  0
 16  9  1  0  0  0  0
 18 19  1  0  0  0  0
 19 17  1  0  0  0  0
 20 22  1  1  0  0  0
 20 23  1  0  0  0  0
 21 22  2  0  0  0  0
 23 24  1  1  0  0  0
 23 26  1  0  0  0  0
 24 25  2  0  0  0  0
 26 27  1  0  0  0  0
 27 28  1  0  0  0  0
 28 29  1  0  0  0  0
 30 28  1  0  0  0  0
M  END
>  <MODEL>
8

>  <REMARK>
 VINA RESULT:      -4.6      2.836      7.032
  Name = 
  9 active torsions:
  status: ('A' for Active; 'I' for Inactive)
    1  A    between atoms: C_1  and  C_22
    2  A    between atoms: C_2  and  C_14
    3  A    between atoms: C_3  and  S_28
    4  A    between atoms: C_6  and  C_8
    5  A    between atoms: C_6  and  C_21
    6  A    between atoms: C_14  and  C_20
    7  A    between atoms: C_14  and  C_22
    8  A    between atoms: C_20  and  S_28
    9  A    between atoms: C_22  and  C_29
                            x       y       z     vdW  Elec       q    Type
                         _______ _______ _______ _____ _____    ______ ____

>  <TORSDO>
F 9

$$$$
=
 OpenBabel10262421443D

 30 32  0  0  1  0  0  0  0  0999 V2000
  190.9760  174.6710  137.2200 C   0  0  1  0  0  3  0  0  0  0  0  0
  190.4660  175.8950  137.9970 C   0  0  1  0  0  3  0  0  0  0  0  0
  189.8000  174.1050  135.9270 S   0  0  0  0  0  0  0  0  0  0  0  0
  187.7250  177.0530  138.0680 C   0  0  1  0  0  3  0  0  0  0  0  0
  187.1140  174.0640  136.4620 C   0  0  2  0  0  3  0  0  0  0  0  0
  188.5410  172.2770  137.3530 O   0  0  0  0  0  1  0  0  0  0  0  0
  188.9610  177.8950  137.7490 C   0  0  2  0  0  3  0  0  0  0  0  0
  188.4690  173.6460  137.0840 C   0  0  1  0  0  3  0  0  0  0  0  0
  186.5530  175.1670  137.1290 O   0  0  0  0  0  0  0  0  0  0  0  0
  188.3590  178.9100  136.7840 C   0  0  0  0  0  2  0  0  0  0  0  0
  186.7190  178.0200  138.1390 O   0  0  0  0  0  0  0  0  0  0  0  0
  191.3980  176.2980  139.1260 C   0  0  0  0  0  1  0  0  0  0  0  0
  190.1050  177.0930  137.1190 C   0  0  0  0  0  2  0  0  0  0  0  0
  186.8690  178.5380  136.8520 C   0  0  2  0  0  3  0  0  0  0  0  0
  186.6540  177.3070  135.9800 C   0  0  0  0  0  2  0  0  0  0  0  0
  187.3680  176.2590  136.8090 C   0  0  1  0  0  3  0  0  0  0  0  0
  186.0820  172.9410  136.3920 C   0  0  0  0  0  2  0  0  0  0  0  0
  183.6850  172.9330  137.0820 C   0  0  0  0  0  1  0  0  0  0  0  0
  185.1210  173.0050  137.5680 C   0  0  0  0  0  2  0  0  0  0  0  0
  192.4290  174.8110  136.7100 C   0  0  2  0  0  3  0  0  0  0  0  0
  193.0830  176.0420  134.6800 C   0  0  0  0  0  2  0  0  0  0  0  0
  192.5580  174.9460  135.2210 C   0  0  0  0  0  3  0  0  0  0  0  0
  193.3830  173.7410  137.2570 C   0  0  2  0  0  3  0  0  0  0  0  0
  194.6800  174.3100  137.7440 C   0  0  0  0  0  3  0  0  0  0  0  0
  194.7090  175.3930  138.3060 O   0  0  0  0  0  0  0  0  0  0  0  0
  193.6300  172.6540  136.2220 C   0  0  0  0  0  2  0  0  0  0  0  0
  195.3950  172.2170  136.1860 S   0  0  0  0  0  0  0  0  0  0  0  0
  195.0780  170.4660  136.5440 C   0  0  0  0  0  3  0  0  0  0  0  0
  195.2650  170.2140  138.0250 C   0  0  0  0  0  1  0  0  0  0  0  0
  193.6590  170.1180  136.1520 C   0  0  0  0  0  1  0  0  0  0  0  0
  1 20  1  6  0  0  0
  1  2  1  0  0  0  0
  2 12  1  1  0  0  0
  3  8  1  0  0  0  0
  3  1  1  0  0  0  0
  4 11  1  6  0  0  0
  5 17  1  1  0  0  0
  5  8  1  0  0  0  0
  5  9  1  0  0  0  0
  7 10  1  6  0  0  0
  7  4  1  0  0  0  0
  8  6  1  6  0  0  0
 10 14  1  0  0  0  0
 13  7  1  0  0  0  0
 13  2  1  0  0  0  0
 14 15  1  6  0  0  0
 14 11  1  0  0  0  0
 16 15  1  6  0  0  0
 16  9  1  0  0  0  0
 16  4  1  0  0  0  0
 17 19  1  0  0  0  0
 18 19  1  0  0  0  0
 20 22  1  6  0  0  0
 20 23  1  0  0  0  0
 21 22  2  0  0  0  0
 23 26  1  6  0  0  0
 23 24  1  0  0  0  0
 24 25  2  0  0  0  0
 27 26  1  0  0  0  0
 27 28  1  0  0  0  0
 28 29  1  0  0  0  0
 30 28  1  0  0  0  0
M  END
>  <MODEL>
9

>  <REMARK>
 VINA RESULT:      -4.5      6.342      9.904
  Name = 
  9 active torsions:
  status: ('A' for Active; 'I' for Inactive)
    1  A    between atoms: C_1  and  C_22
    2  A    between atoms: C_2  and  C_14
    3  A    between atoms: C_3  and  S_28
    4  A    between atoms: C_6  and  C_8
    5  A    between atoms: C_6  and  C_21
    6  A    between atoms: C_14  and  C_20
    7  A    between atoms: C_14  and  C_22
    8  A    between atoms: C_20  and  S_28
    9  A    between atoms: C_22  and  C_29
                            x       y       z     vdW  Elec       q    Type
                         _______ _______ _______ _____ _____    ______ ____

>  <TORSDO>
F 9

$$$$
