=
 OpenBabel10252414513D

 34 39  0  0  1  0  0  0  0  0999 V2000
  182.7020  178.7190  141.6110 C   0  0  0  0  0  0  0  0  0  0  0  0
  183.5930  179.6350  139.5500 C   0  0  0  0  0  0  0  0  0  0  0  0
  185.1330  178.6810  141.3030 C   0  0  0  0  0  0  0  0  0  0  0  0
  187.5190  178.3210  141.0900 C   0  0  0  0  0  0  0  0  0  0  0  0
  181.2010  179.3560  139.8270 C   0  0  0  0  0  3  0  0  0  0  0  0
  182.2900  179.7670  139.0620 C   0  0  0  0  0  3  0  0  0  0  0  0
  186.3150  178.0350  138.7680 S   0  0  0  0  0  0  0  0  0  0  0  0
  183.8310  178.9830  140.7890 C   0  0  0  0  0  0  0  0  0  0  0  0
  188.6530  178.0690  140.1700 C   0  0  0  0  0  2  0  0  0  0  0  0
  181.4060  178.8650  141.1130 C   0  0  0  0  0  3  0  0  0  0  0  0
  185.2810  178.4590  142.7050 C   0  0  0  0  0  0  0  0  0  0  0  0
  182.8650  178.3710  142.9470 C   0  0  0  0  0  3  0  0  0  0  0  0
  184.6090  180.2630  138.8420 O   0  0  0  0  0  1  0  0  0  0  0  0
  187.6530  178.2520  142.4340 N   0  0  0  0  0  0  0  0  0  0  0  0
  186.5790  178.3180  143.2670 C   0  0  0  0  0  0  0  0  0  0  0  0
  188.1220  178.3140  138.7630 C   0  0  1  0  0  3  0  0  0  0  0  0
  186.2850  178.4910  140.5000 C   0  0  0  0  0  0  0  0  0  0  0  0
  184.1380  178.2790  143.4950 C   0  0  0  0  0  3  0  0  0  0  0  0
  188.1600  177.4060  146.6070 C   0  0  0  0  0  0  0  0  0  0  0  0
  187.2220  177.9310  147.5000 C   0  0  0  0  0  3  0  0  0  0  0  0
  186.8310  178.2010  144.7280 C   0  0  0  0  0  0  0  0  0  0  0  0
  186.0860  178.5820  147.0140 C   0  0  0  0  0  3  0  0  0  0  0  0
  187.9610  177.5350  145.2290 C   0  0  0  0  0  3  0  0  0  0  0  0
  185.8900  178.7120  145.6360 C   0  0  0  0  0  3  0  0  0  0  0  0
  189.2580  176.7680  147.0760 F   0  0  0  0  0  0  0  0  0  0  0  0
  190.0800  177.0640  137.9600 C   0  0  0  0  0  3  0  0  0  0  0  0
  188.7960  177.3940  137.8020 C   0  0  0  0  0  3  0  0  0  0  0  0
  192.2960  176.4360  136.9580 C   0  0  0  0  0  2  0  0  0  0  0  0
  190.7860  176.1460  137.0090 C   0  0  1  0  0  3  0  0  0  0  0  0
  193.0870  175.4560  137.8230 C   0  0  0  0  0  2  0  0  0  0  0  0
  192.8780  174.0030  137.3730 C   0  0  1  0  0  3  0  0  0  0  0  0
  191.5070  173.7450  136.7330 C   0  0  0  0  0  2  0  0  0  0  0  0
  190.4440  174.6770  137.3050 C   0  0  0  0  0  2  0  0  0  0  0  0
  193.8820  173.6370  136.4770 O   0  0  0  0  0  1  0  0  0  0  0  0
  1 12  1  0  0  0  0
  2  8  1  0  0  0  0
  3 11  1  0  0  0  0
  4 14  2  0  0  0  0
  5 10  2  0  0  0  0
  6  2  2  0  0  0  0
  6  5  1  0  0  0  0
  7 17  1  0  0  0  0
  8  3  1  0  0  0  0
  8  1  2  0  0  0  0
  9  4  1  0  0  0  0
 10  1  1  0  0  0  0
 11 15  2  0  0  0  0
 11 18  1  0  0  0  0
 12 18  2  0  0  0  0
 13  2  1  0  0  0  0
 14 15  1  0  0  0  0
 15 21  1  0  0  0  0
 16 27  1  6  0  0  0
 16  7  1  0  0  0  0
 16  9  1  0  0  0  0
 17  4  1  0  0  0  0
 17  3  2  0  0  0  0
 19 25  1  0  0  0  0
 19 20  1  0  0  0  0
 21 23  1  0  0  0  0
 21 24  2  0  0  0  0
 22 20  2  0  0  0  0
 23 19  2  0  0  0  0
 24 22  1  0  0  0  0
 27 26  2  0  0  0  0
 28 29  1  0  0  0  0
 28 30  1  0  0  0  0
 29 33  1  0  0  0  0
 29 26  1  1  0  0  0
 31 34  1  6  0  0  0
 31 30  1  0  0  0  0
 32 33  1  0  0  0  0
 32 31  1  0  0  0  0
M  END
>  <MODEL>
1

>  <REMARK>
 VINA RESULT:     -10.0      0.000      0.000
  Name = 
  3 active torsions:
  status: ('A' for Active; 'I' for Inactive)
    1  A    between atoms: C_3  and  C_13
    2  A    between atoms: C_12  and  C_28
    3  A    between atoms: C_17  and  C_29
                            x       y       z     vdW  Elec       q    Type
                         _______ _______ _______ _____ _____    ______ ____

>  <TORSDO>
F 3

$$$$
=
 OpenBabel10252414513D

 34 39  0  0  1  0  0  0  0  0999 V2000
  188.4030  178.4500  139.6440 C   0  0  0  0  0  0  0  0  0  0  0  0
  186.7430  177.7770  138.0090 C   0  0  0  0  0  0  0  0  0  0  0  0
  186.0600  178.3900  140.3560 C   0  0  0  0  0  0  0  0  0  0  0  0
  183.7970  178.6400  141.1840 C   0  0  0  0  0  0  0  0  0  0  0  0
  189.0410  178.1520  137.3310 C   0  0  0  0  0  3  0  0  0  0  0  0
  187.7330  177.7880  137.0210 C   0  0  0  0  0  3  0  0  0  0  0  0
  183.9470  179.3120  138.6450 S   0  0  0  0  0  0  0  0  0  0  0  0
  187.0360  178.2380  139.3200 C   0  0  0  0  0  0  0  0  0  0  0  0
  182.3870  178.9510  140.8510 C   0  0  0  0  0  2  0  0  0  0  0  0
  189.3820  178.4480  138.6480 C   0  0  0  0  0  3  0  0  0  0  0  0
  186.4990  178.4080  141.7140 C   0  0  0  0  0  0  0  0  0  0  0  0
  188.8030  178.6010  140.9670 C   0  0  0  0  0  3  0  0  0  0  0  0
  185.5240  177.1960  137.6880 O   0  0  0  0  0  1  0  0  0  0  0  0
  184.2240  178.5150  142.4610 N   0  0  0  0  0  0  0  0  0  0  0  0
  185.5450  178.3960  142.7680 C   0  0  0  0  0  0  0  0  0  0  0  0
  182.2950  178.9330  139.3310 C   0  0  1  0  0  3  0  0  0  0  0  0
  184.6810  178.6230  140.1260 C   0  0  0  0  0  0  0  0  0  0  0  0
  187.8660  178.5420  141.9900 C   0  0  0  0  0  3  0  0  0  0  0  0
  187.3730  177.5040  145.9850 C   0  0  0  0  0  0  0  0  0  0  0  0
  186.5210  178.0620  146.9410 C   0  0  0  0  0  3  0  0  0  0  0  0
  185.9130  178.2960  144.2050 C   0  0  0  0  0  0  0  0  0  0  0  0
  185.3610  178.7290  146.5370 C   0  0  0  0  0  3  0  0  0  0  0  0
  187.0660  177.6160  144.6260 C   0  0  0  0  0  3  0  0  0  0  0  0
  185.0580  178.8410  145.1770 C   0  0  0  0  0  3  0  0  0  0  0  0
  188.4930  176.8510  146.3750 F   0  0  0  0  0  0  0  0  0  0  0  0
  181.3960  180.5080  137.6710 C   0  0  0  0  0  3  0  0  0  0  0  0
  181.2910  179.9370  138.8740 C   0  0  0  0  0  3  0  0  0  0  0  0
  180.4590  182.8120  138.0240 C   0  0  0  0  0  2  0  0  0  0  0  0
  180.4050  181.5230  137.1850 C   0  0  1  0  0  3  0  0  0  0  0  0
  181.2740  183.9020  137.3290 C   0  0  0  0  0  2  0  0  0  0  0  0
  180.6870  184.2640  135.9580 C   0  0  1  0  0  3  0  0  0  0  0  0
  179.9560  183.1020  135.2710 C   0  0  0  0  0  2  0  0  0  0  0  0
  180.5530  181.7570  135.6740 C   0  0  0  0  0  2  0  0  0  0  0  0
  179.8150  185.3450  136.0880 O   0  0  0  0  0  1  0  0  0  0  0  0
  1 12  1  0  0  0  0
  2  8  1  0  0  0  0
  3 11  1  0  0  0  0
  4 14  2  0  0  0  0
  5 10  2  0  0  0  0
  6  5  1  0  0  0  0
  6  2  2  0  0  0  0
  7 16  1  0  0  0  0
  7 17  1  0  0  0  0
  8  1  2  0  0  0  0
  8  3  1  0  0  0  0
  9  4  1  0  0  0  0
 10  1  1  0  0  0  0
 11 18  1  0  0  0  0
 11 15  2  0  0  0  0
 12 18  2  0  0  0  0
 13  2  1  0  0  0  0
 14 15  1  0  0  0  0
 15 21  1  0  0  0  0
 16 27  1  1  0  0  0
 16  9  1  0  0  0  0
 17  3  2  0  0  0  0
 17  4  1  0  0  0  0
 19 25  1  0  0  0  0
 19 20  1  0  0  0  0
 21 23  1  0  0  0  0
 21 24  2  0  0  0  0
 22 20  2  0  0  0  0
 23 19  2  0  0  0  0
 24 22  1  0  0  0  0
 26 27  2  0  0  0  0
 29 26  1  1  0  0  0
 29 28  1  0  0  0  0
 30 28  1  0  0  0  0
 31 34  1  1  0  0  0
 31 30  1  0  0  0  0
 32 33  1  0  0  0  0
 32 31  1  0  0  0  0
 33 29  1  0  0  0  0
M  END
>  <MODEL>
2

>  <REMARK>
 VINA RESULT:     -10.0      2.755      7.818
  Name = 
  3 active torsions:
  status: ('A' for Active; 'I' for Inactive)
    1  A    between atoms: C_3  and  C_13
    2  A    between atoms: C_12  and  C_28
    3  A    between atoms: C_17  and  C_29
                            x       y       z     vdW  Elec       q    Type
                         _______ _______ _______ _____ _____    ______ ____

>  <TORSDO>
F 3

$$$$
=
 OpenBabel10252414513D

 34 39  0  0  1  0  0  0  0  0999 V2000
  185.8250  177.8830  143.1350 C   0  0  0  0  0  0  0  0  0  0  0  0
  186.3910  178.7990  140.9620 C   0  0  0  0  0  0  0  0  0  0  0  0
  188.1600  177.7370  142.4090 C   0  0  0  0  0  0  0  0  0  0  0  0
  190.4520  177.2680  141.7800 C   0  0  0  0  0  0  0  0  0  0  0  0
  184.0710  178.6280  141.6470 C   0  0  0  0  0  3  0  0  0  0  0  0
  185.0310  179.0030  140.7100 C   0  0  0  0  0  3  0  0  0  0  0  0
  188.8520  177.0880  139.7000 S   0  0  0  0  0  0  0  0  0  0  0  0
  186.8060  178.1100  142.1330 C   0  0  0  0  0  0  0  0  0  0  0  0
  191.3960  176.9810  140.6740 C   0  0  0  0  0  2  0  0  0  0  0  0
  184.4710  178.1010  142.8730 C   0  0  0  0  0  3  0  0  0  0  0  0
  188.5370  177.4790  143.7610 C   0  0  0  0  0  0  0  0  0  0  0  0
  186.1980  177.5000  144.4180 C   0  0  0  0  0  3  0  0  0  0  0  0
  187.2990  179.3920  140.0960 O   0  0  0  0  0  1  0  0  0  0  0  0
  190.8130  177.1650  143.0790 N   0  0  0  0  0  0  0  0  0  0  0  0
  189.9040  177.2640  144.0870 C   0  0  0  0  0  0  0  0  0  0  0  0
  190.6430  177.2810  139.3840 C   0  0  1  0  0  3  0  0  0  0  0  0
  189.1450  177.5090  141.4150 C   0  0  0  0  0  0  0  0  0  0  0  0
  187.5400  177.3370  144.7350 C   0  0  0  0  0  3  0  0  0  0  0  0
  190.2890  177.6190  147.8580 C   0  0  0  0  0  0  0  0  0  0  0  0
  191.4240  176.8390  148.0860 C   0  0  0  0  0  3  0  0  0  0  0  0
  190.3990  177.1040  145.4810 C   0  0  0  0  0  0  0  0  0  0  0  0
  192.0550  176.1970  147.0170 C   0  0  0  0  0  3  0  0  0  0  0  0
  189.7830  177.7560  146.5610 C   0  0  0  0  0  3  0  0  0  0  0  0
  191.5480  176.3330  145.7220 C   0  0  0  0  0  3  0  0  0  0  0  0
  189.6790  178.2470  148.8910 F   0  0  0  0  0  0  0  0  0  0  0  0
  192.3610  176.3510  137.8930 C   0  0  0  0  0  3  0  0  0  0  0  0
  191.0920  176.3500  138.3090 C   0  0  0  0  0  3  0  0  0  0  0  0
  194.3700  175.2520  136.8610 C   0  0  0  0  0  2  0  0  0  0  0  0
  192.8430  175.4310  136.8120 C   0  0  1  0  0  3  0  0  0  0  0  0
  194.7620  173.9490  137.5570 C   0  0  0  0  0  2  0  0  0  0  0  0
  194.1740  172.7240  136.8430 C   0  0  1  0  0  3  0  0  0  0  0  0
  192.8460  173.0040  136.1260 C   0  0  0  0  0  2  0  0  0  0  0  0
  192.0600  174.1080  136.8270 C   0  0  0  0  0  2  0  0  0  0  0  0
  195.0980  172.2230  135.9260 O   0  0  0  0  0  1  0  0  0  0  0  0
  1 12  1  0  0  0  0
  2  8  1  0  0  0  0
  3 11  1  0  0  0  0
  4 14  2  0  0  0  0
  5 10  2  0  0  0  0
  6  2  2  0  0  0  0
  6  5  1  0  0  0  0
  7 17  1  0  0  0  0
  8  3  1  0  0  0  0
  8  1  2  0  0  0  0
  9  4  1  0  0  0  0
 10  1  1  0  0  0  0
 11 15  2  0  0  0  0
 11 18  1  0  0  0  0
 12 18  2  0  0  0  0
 13  2  1  0  0  0  0
 14 15  1  0  0  0  0
 15 21  1  0  0  0  0
 16 27  1  6  0  0  0
 16  7  1  0  0  0  0
 16  9  1  0  0  0  0
 17  4  1  0  0  0  0
 17  3  2  0  0  0  0
 19 20  1  0  0  0  0
 19 25  1  0  0  0  0
 21 24  2  0  0  0  0
 21 23  1  0  0  0  0
 22 20  2  0  0  0  0
 23 19  2  0  0  0  0
 24 22  1  0  0  0  0
 26 27  2  0  0  0  0
 28 30  1  0  0  0  0
 29 33  1  0  0  0  0
 29 28  1  0  0  0  0
 29 26  1  1  0  0  0
 31 34  1  6  0  0  0
 31 30  1  0  0  0  0
 32 33  1  0  0  0  0
 32 31  1  0  0  0  0
M  END
>  <MODEL>
3

>  <REMARK>
 VINA RESULT:      -9.9      2.098      3.311
  Name = 
  3 active torsions:
  status: ('A' for Active; 'I' for Inactive)
    1  A    between atoms: C_3  and  C_13
    2  A    between atoms: C_12  and  C_28
    3  A    between atoms: C_17  and  C_29
                            x       y       z     vdW  Elec       q    Type
                         _______ _______ _______ _____ _____    ______ ____

>  <TORSDO>
F 3

$$$$
=
 OpenBabel10252414513D

 34 39  0  0  1  0  0  0  0  0999 V2000
  186.9140  177.6360  145.1060 C   0  0  0  0  0  0  0  0  0  0  0  0
  184.9850  179.0530  144.7130 C   0  0  0  0  0  0  0  0  0  0  0  0
  186.4120  178.2630  142.7910 C   0  0  0  0  0  0  0  0  0  0  0  0
  185.9480  178.5560  140.4310 C   0  0  0  0  0  0  0  0  0  0  0  0
  185.3970  178.1380  146.9210 C   0  0  0  0  0  3  0  0  0  0  0  0
  184.6340  178.9240  146.0610 C   0  0  0  0  0  3  0  0  0  0  0  0
  183.7160  178.3340  141.8060 S   0  0  0  0  0  0  0  0  0  0  0  0
  186.0650  178.3000  144.1790 C   0  0  0  0  0  0  0  0  0  0  0  0
  184.9100  178.7440  139.3900 C   0  0  0  0  0  2  0  0  0  0  0  0
  186.5550  177.5230  146.4500 C   0  0  0  0  0  3  0  0  0  0  0  0
  187.7350  177.8730  142.4250 C   0  0  0  0  0  0  0  0  0  0  0  0
  188.1490  177.1390  144.7050 C   0  0  0  0  0  3  0  0  0  0  0  0
  184.3220  180.0180  143.9680 O   0  0  0  0  0  1  0  0  0  0  0  0
  187.2430  178.3180  140.1230 N   0  0  0  0  0  0  0  0  0  0  0  0
  188.1580  177.9810  141.0730 C   0  0  0  0  0  0  0  0  0  0  0  0
  183.6170  179.0590  140.1300 C   0  0  1  0  0  3  0  0  0  0  0  0
  185.4980  178.4970  141.7330 C   0  0  0  0  0  0  0  0  0  0  0  0
  188.5680  177.2910  143.3890 C   0  0  0  0  0  3  0  0  0  0  0  0
  191.1470  177.0260  138.9180 C   0  0  0  0  0  0  0  0  0  0  0  0
  192.1870  177.1230  139.8450 C   0  0  0  0  0  3  0  0  0  0  0  0
  189.5490  177.7090  140.6240 C   0  0  0  0  0  0  0  0  0  0  0  0
  191.9140  177.5020  141.1620 C   0  0  0  0  0  3  0  0  0  0  0  0
  189.8350  177.3120  139.3080 C   0  0  0  0  0  3  0  0  0  0  0  0
  190.6020  177.7890  141.5490 C   0  0  0  0  0  3  0  0  0  0  0  0
  191.4080  176.6530  137.6440 F   0  0  0  0  0  0  0  0  0  0  0  0
  181.8920  177.3480  139.7560 C   0  0  0  0  0  3  0  0  0  0  0  0
  182.4560  178.4990  139.3800 C   0  0  0  0  0  3  0  0  0  0  0  0
  181.1750  176.0450  137.7320 C   0  0  0  0  0  2  0  0  0  0  0  0
  180.7270  176.7580  139.0210 C   0  0  1  0  0  3  0  0  0  0  0  0
  181.2710  174.5330  137.9300 C   0  0  0  0  0  2  0  0  0  0  0  0
  179.9240  173.9280  138.3520 C   0  0  1  0  0  3  0  0  0  0  0  0
  179.0360  174.8920  139.1500 C   0  0  0  0  0  2  0  0  0  0  0  0
  179.8740  175.8830  139.9520 C   0  0  0  0  0  2  0  0  0  0  0  0
  179.2310  173.4870  137.2250 O   0  0  0  0  0  1  0  0  0  0  0  0
  1 10  2  0  0  0  0
  2  6  1  0  0  0  0
  3  8  1  0  0  0  0
  4 17  1  0  0  0  0
  6  5  2  0  0  0  0
  8  2  2  0  0  0  0
  8  1  1  0  0  0  0
  9 16  1  0  0  0  0
  9  4  1  0  0  0  0
 10  5  1  0  0  0  0
 11  3  1  0  0  0  0
 11 18  1  0  0  0  0
 12  1  1  0  0  0  0
 13  2  1  0  0  0  0
 14  4  2  0  0  0  0
 14 15  1  0  0  0  0
 15 11  2  0  0  0  0
 16 27  1  6  0  0  0
 16  7  1  0  0  0  0
 17  7  1  0  0  0  0
 17  3  2  0  0  0  0
 18 12  2  0  0  0  0
 19 23  2  0  0  0  0
 19 20  1  0  0  0  0
 20 22  2  0  0  0  0
 21 15  1  0  0  0  0
 21 24  2  0  0  0  0
 22 24  1  0  0  0  0
 23 21  1  0  0  0  0
 25 19  1  0  0  0  0
 27 26  2  0  0  0  0
 28 30  1  0  0  0  0
 28 29  1  0  0  0  0
 29 26  1  1  0  0  0
 29 33  1  0  0  0  0
 30 31  1  0  0  0  0
 31 34  1  6  0  0  0
 31 32  1  0  0  0  0
 32 33  1  0  0  0  0
M  END
>  <MODEL>
4

>  <REMARK>
 VINA RESULT:      -9.8      3.558      7.650
  Name = 
  3 active torsions:
  status: ('A' for Active; 'I' for Inactive)
    1  A    between atoms: C_3  and  C_13
    2  A    between atoms: C_12  and  C_28
    3  A    between atoms: C_17  and  C_29
                            x       y       z     vdW  Elec       q    Type
                         _______ _______ _______ _____ _____    ______ ____

>  <TORSDO>
F 3

$$$$
=
 OpenBabel10252414513D

 34 39  0  0  1  0  0  0  0  0999 V2000
  188.7820  177.1380  146.0440 C   0  0  0  0  0  0  0  0  0  0  0  0
  186.8700  178.6010  146.3350 C   0  0  0  0  0  0  0  0  0  0  0  0
  187.6580  177.9600  144.0280 C   0  0  0  0  0  0  0  0  0  0  0  0
  186.5480  178.4520  141.9320 C   0  0  0  0  0  0  0  0  0  0  0  0
  187.8670  177.5020  148.2530 C   0  0  0  0  0  3  0  0  0  0  0  0
  186.9160  178.3640  147.7120 C   0  0  0  0  0  3  0  0  0  0  0  0
  184.7980  178.1380  143.8710 S   0  0  0  0  0  0  0  0  0  0  0  0
  187.7260  177.8840  145.4560 C   0  0  0  0  0  0  0  0  0  0  0  0
  185.2620  178.7350  141.2520 C   0  0  0  0  0  2  0  0  0  0  0  0
  188.8200  176.9170  147.4230 C   0  0  0  0  0  3  0  0  0  0  0  0
  188.8080  177.5890  143.2680 C   0  0  0  0  0  0  0  0  0  0  0  0
  189.8330  176.6650  145.2670 C   0  0  0  0  0  3  0  0  0  0  0  0
  186.0530  179.6310  145.8890 O   0  0  0  0  0  1  0  0  0  0  0  0
  187.6910  178.2280  141.2460 N   0  0  0  0  0  0  0  0  0  0  0  0
  188.8280  177.8050  141.8630 C   0  0  0  0  0  0  0  0  0  0  0  0
  184.2460  179.0010  142.3560 C   0  0  1  0  0  3  0  0  0  0  0  0
  186.4880  178.2890  143.3000 C   0  0  0  0  0  0  0  0  0  0  0  0
  189.8630  176.9210  143.9030 C   0  0  0  0  0  3  0  0  0  0  0  0
  191.0450  176.8060  138.9340 C   0  0  0  0  0  0  0  0  0  0  0  0
  192.3150  177.0250  139.4730 C   0  0  0  0  0  3  0  0  0  0  0  0
  190.0230  177.5570  141.0130 C   0  0  0  0  0  0  0  0  0  0  0  0
  192.4450  177.5000  140.7800 C   0  0  0  0  0  3  0  0  0  0  0  0
  189.9060  177.0660  139.7030 C   0  0  0  0  0  3  0  0  0  0  0  0
  191.3060  177.7600  141.5460 C   0  0  0  0  0  3  0  0  0  0  0  0
  190.9160  176.3390  137.6700 F   0  0  0  0  0  0  0  0  0  0  0  0
  182.4890  178.6640  140.6700 C   0  0  0  0  0  3  0  0  0  0  0  0
  182.9020  178.5150  141.9320 C   0  0  0  0  0  3  0  0  0  0  0  0
  181.2470  177.3140  138.9540 C   0  0  0  0  0  2  0  0  0  0  0  0
  181.1420  178.1900  140.2150 C   0  0  1  0  0  3  0  0  0  0  0  0
  181.1830  175.8260  139.2960 C   0  0  0  0  0  2  0  0  0  0  0  0
  179.8710  175.4620  140.0070 C   0  0  1  0  0  3  0  0  0  0  0  0
  179.2780  176.6090  140.8360 C   0  0  0  0  0  2  0  0  0  0  0  0
  180.3710  177.5310  141.3690 C   0  0  0  0  0  2  0  0  0  0  0  0
  178.9310  175.0340  139.0700 O   0  0  0  0  0  1  0  0  0  0  0  0
  1 10  2  0  0  0  0
  2  6  1  0  0  0  0
  3  8  1  0  0  0  0
  4 17  2  0  0  0  0
  6  5  2  0  0  0  0
  8  1  1  0  0  0  0
  8  2  2  0  0  0  0
  9  4  1  0  0  0  0
  9 16  1  0  0  0  0
 10  5  1  0  0  0  0
 11 18  1  0  0  0  0
 11  3  2  0  0  0  0
 12  1  1  0  0  0  0
 13  2  1  0  0  0  0
 14 15  2  0  0  0  0
 14  4  1  0  0  0  0
 15 11  1  0  0  0  0
 16 27  1  6  0  0  0
 16  7  1  0  0  0  0
 17  7  1  0  0  0  0
 17  3  1  0  0  0  0
 18 12  2  0  0  0  0
 19 20  2  0  0  0  0
 19 23  1  0  0  0  0
 20 22  1  0  0  0  0
 21 24  1  0  0  0  0
 21 15  1  0  0  0  0
 22 24  2  0  0  0  0
 23 21  2  0  0  0  0
 25 19  1  0  0  0  0
 26 27  2  0  0  0  0
 28 30  1  0  0  0  0
 28 29  1  0  0  0  0
 29 26  1  1  0  0  0
 29 33  1  0  0  0  0
 30 31  1  0  0  0  0
 31 34  1  6  0  0  0
 31 32  1  0  0  0  0
 32 33  1  0  0  0  0
M  END
>  <MODEL>
5

>  <REMARK>
 VINA RESULT:      -9.7      3.641      8.362
  Name = 
  3 active torsions:
  status: ('A' for Active; 'I' for Inactive)
    1  A    between atoms: C_3  and  C_13
    2  A    between atoms: C_12  and  C_28
    3  A    between atoms: C_17  and  C_29
                            x       y       z     vdW  Elec       q    Type
                         _______ _______ _______ _____ _____    ______ ____

>  <TORSDO>
F 3

$$$$
=
 OpenBabel10252414513D

 34 39  0  0  1  0  0  0  0  0999 V2000
  187.6140  178.5700  147.1810 C   0  0  0  0  0  0  0  0  0  0  0  0
  189.3540  177.0330  146.4790 C   0  0  0  0  0  0  0  0  0  0  0  0
  187.5990  177.8190  144.8490 C   0  0  0  0  0  0  0  0  0  0  0  0
  187.5520  177.4010  142.4630 C   0  0  0  0  0  0  0  0  0  0  0  0
  189.4480  178.0630  148.6730 C   0  0  0  0  0  3  0  0  0  0  0  0
  189.9810  177.2000  147.7180 C   0  0  0  0  0  3  0  0  0  0  0  0
  190.0280  177.5580  143.3410 S   0  0  0  0  0  0  0  0  0  0  0  0
  188.2230  177.8220  146.1380 C   0  0  0  0  0  0  0  0  0  0  0  0
  188.3430  177.1130  141.2440 C   0  0  0  0  0  2  0  0  0  0  0  0
  188.2470  178.7200  148.4170 C   0  0  0  0  0  3  0  0  0  0  0  0
  186.2480  178.2650  144.7410 C   0  0  0  0  0  0  0  0  0  0  0  0
  186.3470  179.1170  147.0150 C   0  0  0  0  0  3  0  0  0  0  0  0
  189.8050  176.0030  145.6660 O   0  0  0  0  0  1  0  0  0  0  0  0
  186.2340  177.6970  142.4130 N   0  0  0  0  0  0  0  0  0  0  0  0
  185.5510  178.1240  143.5100 C   0  0  0  0  0  0  0  0  0  0  0  0
  189.7460  176.7580  141.7210 C   0  0  1  0  0  3  0  0  0  0  0  0
  188.2630  177.4910  143.6410 C   0  0  0  0  0  0  0  0  0  0  0  0
  185.6580  178.9330  145.8220 C   0  0  0  0  0  3  0  0  0  0  0  0
  182.1900  178.9730  141.9370 C   0  0  0  0  0  0  0  0  0  0  0  0
  181.4010  179.1590  143.0740 C   0  0  0  0  0  3  0  0  0  0  0  0
  184.1100  178.4530  143.3410 C   0  0  0  0  0  0  0  0  0  0  0  0
  181.9620  179.0030  144.3450 C   0  0  0  0  0  3  0  0  0  0  0  0
  183.5390  178.6280  142.0710 C   0  0  0  0  0  3  0  0  0  0  0  0
  183.3090  178.6560  144.4760 C   0  0  0  0  0  3  0  0  0  0  0  0
  181.6510  179.1300  140.7050 F   0  0  0  0  0  0  0  0  0  0  0  0
  190.9310  176.5590  139.5760 C   0  0  0  0  0  3  0  0  0  0  0  0
  190.7510  177.2220  140.7210 C   0  0  0  0  0  3  0  0  0  0  0  0
  193.3760  176.7530  139.0360 C   0  0  0  0  0  2  0  0  0  0  0  0
  191.9350  176.9970  138.5540 C   0  0  1  0  0  3  0  0  0  0  0  0
  193.9600  175.4730  138.4390 C   0  0  0  0  0  2  0  0  0  0  0  0
  193.9850  175.5220  136.9050 C   0  0  1  0  0  3  0  0  0  0  0  0
  192.8690  176.3790  136.2940 C   0  0  0  0  0  2  0  0  0  0  0  0
  191.6260  176.3830  137.1800 C   0  0  0  0  0  2  0  0  0  0  0  0
  195.2230  175.9950  136.4690 O   0  0  0  0  0  1  0  0  0  0  0  0
  1 10  2  0  0  0  0
  2  6  1  0  0  0  0
  3  8  1  0  0  0  0
  4 17  1  0  0  0  0
  6  5  2  0  0  0  0
  7 17  1  0  0  0  0
  8  2  2  0  0  0  0
  8  1  1  0  0  0  0
  9 16  1  0  0  0  0
  9  4  1  0  0  0  0
 10  5  1  0  0  0  0
 11  3  1  0  0  0  0
 11 18  1  0  0  0  0
 12  1  1  0  0  0  0
 13  2  1  0  0  0  0
 14  4  2  0  0  0  0
 14 15  1  0  0  0  0
 15 11  2  0  0  0  0
 16 27  1  6  0  0  0
 16  7  1  0  0  0  0
 17  3  2  0  0  0  0
 18 12  2  0  0  0  0
 19 23  2  0  0  0  0
 19 20  1  0  0  0  0
 20 22  2  0  0  0  0
 21 15  1  0  0  0  0
 21 24  2  0  0  0  0
 22 24  1  0  0  0  0
 23 21  1  0  0  0  0
 25 19  1  0  0  0  0
 26 27  2  0  0  0  0
 29 28  1  0  0  0  0
 29 26  1  1  0  0  0
 30 28  1  0  0  0  0
 31 34  1  1  0  0  0
 31 30  1  0  0  0  0
 32 31  1  0  0  0  0
 32 33  1  0  0  0  0
 33 29  1  0  0  0  0
M  END
>  <MODEL>
6

>  <REMARK>
 VINA RESULT:      -9.5      3.081      5.815
  Name = 
  3 active torsions:
  status: ('A' for Active; 'I' for Inactive)
    1  A    between atoms: C_3  and  C_13
    2  A    between atoms: C_12  and  C_28
    3  A    between atoms: C_17  and  C_29
                            x       y       z     vdW  Elec       q    Type
                         _______ _______ _______ _____ _____    ______ ____

>  <TORSDO>
F 3

$$$$
=
 OpenBabel10252414513D

 34 39  0  0  1  0  0  0  0  0999 V2000
  189.9910  177.2670  146.6800 C   0  0  0  0  0  0  0  0  0  0  0  0
  191.3170  175.7700  145.3090 C   0  0  0  0  0  0  0  0  0  0  0  0
  189.3280  176.9770  144.3400 C   0  0  0  0  0  0  0  0  0  0  0  0
  188.6610  177.0260  142.0110 C   0  0  0  0  0  0  0  0  0  0  0  0
  192.0550  176.3530  147.5440 C   0  0  0  0  0  3  0  0  0  0  0  0
  192.2380  175.6510  146.3550 C   0  0  0  0  0  3  0  0  0  0  0  0
  191.2760  176.8320  142.2350 S   0  0  0  0  0  0  0  0  0  0  0  0
  190.2390  176.6890  145.4060 C   0  0  0  0  0  0  0  0  0  0  0  0
  189.0970  176.9180  140.5990 C   0  0  0  0  0  2  0  0  0  0  0  0
  190.9150  177.1330  147.7190 C   0  0  0  0  0  3  0  0  0  0  0  0
  188.0530  177.5330  144.6580 C   0  0  0  0  0  0  0  0  0  0  0  0
  188.7950  177.9270  146.9390 C   0  0  0  0  0  3  0  0  0  0  0  0
  191.4340  174.8820  144.2480 O   0  0  0  0  0  1  0  0  0  0  0  0
  187.4140  177.4220  142.3510 N   0  0  0  0  0  0  0  0  0  0  0  0
  187.0700  177.6800  143.6430 C   0  0  0  0  0  0  0  0  0  0  0  0
  190.5210  176.3780  140.6330 C   0  0  1  0  0  3  0  0  0  0  0  0
  189.6400  176.8380  142.9640 C   0  0  0  0  0  0  0  0  0  0  0  0
  187.8240  178.0240  145.9500 C   0  0  0  0  0  3  0  0  0  0  0  0
  183.4430  178.7220  143.1430 C   0  0  0  0  0  0  0  0  0  0  0  0
  183.0900  179.0950  144.4420 C   0  0  0  0  0  3  0  0  0  0  0  0
  185.6810  178.1400  143.9070 C   0  0  0  0  0  0  0  0  0  0  0  0
  184.0280  179.0020  145.4730 C   0  0  0  0  0  3  0  0  0  0  0  0
  184.7330  178.2530  142.8770 C   0  0  0  0  0  3  0  0  0  0  0  0
  185.3170  178.5310  145.2050 C   0  0  0  0  0  3  0  0  0  0  0  0
  182.5380  178.8180  142.1410 F   0  0  0  0  0  0  0  0  0  0  0  0
  191.5920  176.2070  138.4270 C   0  0  0  0  0  3  0  0  0  0  0  0
  191.3050  176.9480  139.5000 C   0  0  0  0  0  3  0  0  0  0  0  0
  193.8950  176.6020  137.5050 C   0  0  0  0  0  2  0  0  0  0  0  0
  192.3810  176.7500  137.2740 C   0  0  1  0  0  3  0  0  0  0  0  0
  194.4600  175.3880  136.7680 C   0  0  0  0  0  2  0  0  0  0  0  0
  194.2290  175.4840  135.2540 C   0  0  1  0  0  3  0  0  0  0  0  0
  192.9690  176.2720  134.8690 C   0  0  0  0  0  2  0  0  0  0  0  0
  191.8930  176.1560  135.9440 C   0  0  0  0  0  2  0  0  0  0  0  0
  195.3410  176.0630  134.6420 O   0  0  0  0  0  1  0  0  0  0  0  0
  1 12  1  0  0  0  0
  1 10  2  0  0  0  0
  2  8  2  0  0  0  0
  2  6  1  0  0  0  0
  3 11  1  0  0  0  0
  3  8  1  0  0  0  0
  4 14  2  0  0  0  0
  4 17  1  0  0  0  0
  5 10  1  0  0  0  0
  6  5  2  0  0  0  0
  7 17  1  0  0  0  0
  8  1  1  0  0  0  0
  9 16  1  0  0  0  0
  9  4  1  0  0  0  0
 11 18  1  0  0  0  0
 13  2  1  0  0  0  0
 14 15  1  0  0  0  0
 15 21  1  0  0  0  0
 15 11  2  0  0  0  0
 16 27  1  6  0  0  0
 16  7  1  0  0  0  0
 17  3  2  0  0  0  0
 18 12  2  0  0  0  0
 19 20  1  0  0  0  0
 20 22  2  0  0  0  0
 21 24  2  0  0  0  0
 23 19  2  0  0  0  0
 23 21  1  0  0  0  0
 24 22  1  0  0  0  0
 25 19  1  0  0  0  0
 26 27  2  0  0  0  0
 29 28  1  0  0  0  0
 29 26  1  1  0  0  0
 30 28  1  0  0  0  0
 31 34  1  6  0  0  0
 31 30  1  0  0  0  0
 32 31  1  0  0  0  0
 32 33  1  0  0  0  0
 33 29  1  0  0  0  0
M  END
>  <MODEL>
7

>  <REMARK>
 VINA RESULT:      -9.5      3.263      6.106
  Name = 
  3 active torsions:
  status: ('A' for Active; 'I' for Inactive)
    1  A    between atoms: C_3  and  C_13
    2  A    between atoms: C_12  and  C_28
    3  A    between atoms: C_17  and  C_29
                            x       y       z     vdW  Elec       q    Type
                         _______ _______ _______ _____ _____    ______ ____

>  <TORSDO>
F 3

$$$$
=
 OpenBabel10252414513D

 34 39  0  0  1  0  0  0  0  0999 V2000
  186.9590  177.5070  144.7500 C   0  0  0  0  0  0  0  0  0  0  0  0
  185.1330  179.0900  144.5480 C   0  0  0  0  0  0  0  0  0  0  0  0
  186.3450  178.2570  142.5000 C   0  0  0  0  0  0  0  0  0  0  0  0
  185.7380  178.6740  140.1920 C   0  0  0  0  0  0  0  0  0  0  0  0
  185.6260  178.0630  146.6880 C   0  0  0  0  0  3  0  0  0  0  0  0
  184.8710  178.9400  145.9130 C   0  0  0  0  0  3  0  0  0  0  0  0
  183.6000  178.5840  141.7240 S   0  0  0  0  0  0  0  0  0  0  0  0
  186.1040  178.2710  143.9110 C   0  0  0  0  0  0  0  0  0  0  0  0
  184.6460  178.9840  139.2380 C   0  0  0  0  0  2  0  0  0  0  0  0
  186.6910  177.3740  146.1130 C   0  0  0  0  0  3  0  0  0  0  0  0
  187.6010  177.7750  142.0240 C   0  0  0  0  0  0  0  0  0  0  0  0
  188.1160  176.9270  144.2420 C   0  0  0  0  0  3  0  0  0  0  0  0
  184.5010  180.1320  143.8840 O   0  0  0  0  0  1  0  0  0  0  0  0
  186.9820  178.3430  139.7790 N   0  0  0  0  0  0  0  0  0  0  0  0
  187.9320  177.8980  140.6470 C   0  0  0  0  0  0  0  0  0  0  0  0
  183.4410  179.3760  140.0830 C   0  0  1  0  0  3  0  0  0  0  0  0
  185.3790  178.6040  141.5210 C   0  0  0  0  0  0  0  0  0  0  0  0
  188.4500  177.0920  142.9040 C   0  0  0  0  0  3  0  0  0  0  0  0
  191.6750  177.3060  140.2930 C   0  0  0  0  0  0  0  0  0  0  0  0
  191.7570  176.9040  138.9570 C   0  0  0  0  0  3  0  0  0  0  0  0
  189.2590  177.5300  140.0870 C   0  0  0  0  0  0  0  0  0  0  0  0
  190.5980  176.8230  138.1810 C   0  0  0  0  0  3  0  0  0  0  0  0
  190.4330  177.6220  140.8520 C   0  0  0  0  0  3  0  0  0  0  0  0
  189.3580  177.1380  138.7420 C   0  0  0  0  0  3  0  0  0  0  0  0
  192.7980  177.3920  141.0450 F   0  0  0  0  0  0  0  0  0  0  0  0
  182.0310  177.6750  139.0040 C   0  0  0  0  0  3  0  0  0  0  0  0
  182.1860  178.9400  139.4060 C   0  0  0  0  0  3  0  0  0  0  0  0
  181.0310  176.9270  136.8250 C   0  0  0  0  0  2  0  0  0  0  0  0
  180.7840  177.2080  138.3180 C   0  0  1  0  0  3  0  0  0  0  0  0
  181.2280  175.4360  136.5580 C   0  0  0  0  0  2  0  0  0  0  0  0
  180.0040  174.6150  136.9880 C   0  0  1  0  0  3  0  0  0  0  0  0
  179.2260  175.2310  138.1590 C   0  0  0  0  0  2  0  0  0  0  0  0
  180.1470  176.0320  139.0750 C   0  0  0  0  0  2  0  0  0  0  0  0
  179.1460  174.4430  135.9020 O   0  0  0  0  0  1  0  0  0  0  0  0
  1 10  2  0  0  0  0
  2  6  1  0  0  0  0
  3  8  1  0  0  0  0
  4 17  1  0  0  0  0
  6  5  2  0  0  0  0
  8  2  2  0  0  0  0
  8  1  1  0  0  0  0
  9 16  1  0  0  0  0
  9  4  1  0  0  0  0
 10  5  1  0  0  0  0
 11  3  1  0  0  0  0
 11 18  1  0  0  0  0
 12  1  1  0  0  0  0
 13  2  1  0  0  0  0
 14  4  2  0  0  0  0
 14 15  1  0  0  0  0
 15 11  2  0  0  0  0
 16 27  1  6  0  0  0
 16  7  1  0  0  0  0
 17  7  1  0  0  0  0
 17  3  2  0  0  0  0
 18 12  2  0  0  0  0
 19 23  1  0  0  0  0
 19 25  1  0  0  0  0
 20 19  2  0  0  0  0
 21 15  1  0  0  0  0
 21 23  2  0  0  0  0
 22 24  2  0  0  0  0
 22 20  1  0  0  0  0
 24 21  1  0  0  0  0
 26 27  2  0  0  0  0
 28 29  1  0  0  0  0
 29 26  1  1  0  0  0
 29 33  1  0  0  0  0
 30 28  1  0  0  0  0
 30 31  1  0  0  0  0
 31 34  1  6  0  0  0
 31 32  1  0  0  0  0
 32 33  1  0  0  0  0
M  END
>  <MODEL>
8

>  <REMARK>
 VINA RESULT:      -9.5      3.267      7.609
  Name = 
  3 active torsions:
  status: ('A' for Active; 'I' for Inactive)
    1  A    between atoms: C_3  and  C_13
    2  A    between atoms: C_12  and  C_28
    3  A    between atoms: C_17  and  C_29
                            x       y       z     vdW  Elec       q    Type
                         _______ _______ _______ _____ _____    ______ ____

>  <TORSDO>
F 3

$$$$
=
 OpenBabel10252414513D

 34 39  0  0  1  0  0  0  0  0999 V2000
  185.4490  178.0400  144.0410 C   0  0  0  0  0  0  0  0  0  0  0  0
  185.6750  179.1040  141.8730 C   0  0  0  0  0  0  0  0  0  0  0  0
  187.6460  177.9670  142.9580 C   0  0  0  0  0  0  0  0  0  0  0  0
  189.8150  177.5650  141.9560 C   0  0  0  0  0  0  0  0  0  0  0  0
  183.4880  178.8630  142.8920 C   0  0  0  0  0  3  0  0  0  0  0  0
  184.2930  179.3100  141.8460 C   0  0  0  0  0  3  0  0  0  0  0  0
  187.9140  177.5060  140.1380 S   0  0  0  0  0  0  0  0  0  0  0  0
  186.2660  178.3430  142.9180 C   0  0  0  0  0  0  0  0  0  0  0  0
  190.5780  177.3630  140.7020 C   0  0  0  0  0  2  0  0  0  0  0  0
  184.0710  178.2600  144.0030 C   0  0  0  0  0  3  0  0  0  0  0  0
  188.2260  177.6240  144.2160 C   0  0  0  0  0  0  0  0  0  0  0  0
  186.0150  177.5770  145.2230 C   0  0  0  0  0  3  0  0  0  0  0  0
  186.4400  179.7620  140.9200 O   0  0  0  0  0  1  0  0  0  0  0  0
  190.3710  177.3800  143.1750 N   0  0  0  0  0  0  0  0  0  0  0  0
  189.6270  177.4030  144.3150 C   0  0  0  0  0  0  0  0  0  0  0  0
  189.6360  177.7390  139.5660 C   0  0  1  0  0  3  0  0  0  0  0  0
  188.4670  177.8160  141.8130 C   0  0  0  0  0  0  0  0  0  0  0  0
  187.3900  177.4070  145.3200 C   0  0  0  0  0  3  0  0  0  0  0  0
  192.0700  176.0650  146.9080 C   0  0  0  0  0  0  0  0  0  0  0  0
  191.5740  176.6550  148.0730 C   0  0  0  0  0  3  0  0  0  0  0  0
  190.3300  177.1570  145.6020 C   0  0  0  0  0  0  0  0  0  0  0  0
  190.4530  177.4870  148.0100 C   0  0  0  0  0  3  0  0  0  0  0  0
  191.4470  176.3110  145.6810 C   0  0  0  0  0  3  0  0  0  0  0  0
  189.8330  177.7320  146.7820 C   0  0  0  0  0  3  0  0  0  0  0  0
  193.1520  175.2530  146.9680 F   0  0  0  0  0  0  0  0  0  0  0  0
  188.9550  176.6150  137.4880 C   0  0  0  0  0  3  0  0  0  0  0  0
  189.9160  176.8860  138.3750 C   0  0  0  0  0  3  0  0  0  0  0  0
  190.5430  175.0070  136.3920 C   0  0  0  0  0  2  0  0  0  0  0  0
  189.2050  175.7590  136.2830 C   0  0  1  0  0  3  0  0  0  0  0  0
  190.3420  173.5630  136.8490 C   0  0  0  0  0  2  0  0  0  0  0  0
  189.4460  172.7790  135.8800 C   0  0  1  0  0  3  0  0  0  0  0  0
  188.4150  173.6500  135.1480 C   0  0  0  0  0  2  0  0  0  0  0  0
  188.0010  174.8490  135.9960 C   0  0  0  0  0  2  0  0  0  0  0  0
  190.2350  172.1120  134.9430 O   0  0  0  0  0  1  0  0  0  0  0  0
  1 12  1  0  0  0  0
  2  8  1  0  0  0  0
  3 11  1  0  0  0  0
  4 14  2  0  0  0  0
  5 10  2  0  0  0  0
  6  2  2  0  0  0  0
  6  5  1  0  0  0  0
  7 17  1  0  0  0  0
  8  3  1  0  0  0  0
  8  1  2  0  0  0  0
  9  4  1  0  0  0  0
 10  1  1  0  0  0  0
 11 15  2  0  0  0  0
 11 18  1  0  0  0  0
 12 18  2  0  0  0  0
 13  2  1  0  0  0  0
 14 15  1  0  0  0  0
 15 21  1  0  0  0  0
 16 27  1  6  0  0  0
 16  7  1  0  0  0  0
 16  9  1  0  0  0  0
 17  4  1  0  0  0  0
 17  3  2  0  0  0  0
 19 25  1  0  0  0  0
 19 20  1  0  0  0  0
 21 23  1  0  0  0  0
 21 24  2  0  0  0  0
 22 20  2  0  0  0  0
 23 19  2  0  0  0  0
 24 22  1  0  0  0  0
 26 27  2  0  0  0  0
 28 30  1  0  0  0  0
 29 28  1  0  0  0  0
 29 26  1  1  0  0  0
 31 34  1  6  0  0  0
 31 30  1  0  0  0  0
 32 31  1  0  0  0  0
 32 33  1  0  0  0  0
 33 29  1  0  0  0  0
M  END
>  <MODEL>
9

>  <REMARK>
 VINA RESULT:      -9.5      2.252      3.356
  Name = 
  3 active torsions:
  status: ('A' for Active; 'I' for Inactive)
    1  A    between atoms: C_3  and  C_13
    2  A    between atoms: C_12  and  C_28
    3  A    between atoms: C_17  and  C_29
                            x       y       z     vdW  Elec       q    Type
                         _______ _______ _______ _____ _____    ______ ____

>  <TORSDO>
F 3

$$$$
