=
 OpenBabel10262421253D

 32 36  0  0  1  0  0  0  0  0999 V2000
  184.7640  178.4610  141.2650 C   0  0  2  0  0  3  0  0  0  0  0  0
  180.4090  178.8020  143.7610 C   0  0  0  0  0  2  0  0  0  0  0  0
  179.8120  179.5430  142.5690 C   0  0  0  0  0  2  0  0  0  0  0  0
  184.6840  178.6140  138.7680 C   0  0  0  0  0  0  0  0  0  0  0  0
  184.1610  177.3590  138.2320 C   0  0  0  0  0  0  0  0  0  0  0  0
  186.8900  178.2140  142.5300 C   0  0  0  0  0  0  0  0  0  0  0  0
  184.7640  178.1380  143.7350 C   0  0  0  0  0  3  0  0  0  0  0  0
  182.8640  175.6000  138.1650 C   0  0  0  0  0  0  0  0  0  0  0  0
  181.9130  179.0470  143.8230 C   0  0  0  0  0  2  0  0  0  0  0  0
  184.0880  178.8450  142.5870 C   0  0  2  0  0  3  0  0  0  0  0  0
  182.5910  178.5430  142.5460 C   0  0  2  0  0  3  0  0  0  0  0  0
  182.5970  178.8220  140.0630 N   0  0  2  0  0  0  0  0  0  0  0  0
  183.8020  175.4460  137.2490 O   0  0  0  0  0  0  0  0  0  0  0  0
  188.1790  178.0000  142.5040 C   0  0  0  0  0  0  0  0  0  0  0  0
  186.0750  177.8810  143.7270 C   0  0  0  0  0  0  0  0  0  0  0  0
  184.6180  176.4910  137.2580 C   0  0  0  0  0  3  0  0  0  0  0  0
  189.4690  177.7870  142.4790 C   0  0  0  0  0  3  0  0  0  0  0  0
  180.4540  179.0570  141.2740 C   0  0  0  0  0  2  0  0  0  0  0  0
  181.9730  179.2480  141.3240 C   0  0  1  0  0  3  0  0  0  0  0  0
  182.3480  177.4420  139.8400 N   0  0  0  0  0  2  0  0  0  0  0  0
  186.2420  178.8570  141.3380 C   0  0  0  0  0  2  0  0  0  0  0  0
  185.6430  179.2170  138.2200 O   0  0  0  0  0  0  0  0  0  0  0  0
  181.7780  174.6220  138.4440 C   0  0  0  0  0  1  0  0  0  0  0  0
  184.0610  179.1140  140.0590 C   0  0  1  0  0  3  0  0  0  0  0  0
  183.0670  176.7990  138.7900 C   0  0  0  0  0  0  0  0  0  0  0  0
  190.4310  178.4300  143.4370 C   0  0  0  0  0  2  0  0  0  0  0  0
  191.6820  177.6910  143.5490 N   0  0  0  0  0  0  0  0  0  0  0  0
  191.9880  177.2390  142.3110 O   0  0  0  0  0  1  0  0  0  0  0  0
  191.4030  176.5210  144.3600 C   0  0  0  0  0  1  0  0  0  0  0  0
  186.6810  177.2270  144.9260 C   0  0  0  0  0  2  0  0  0  0  0  0
  188.2620  177.6310  146.4090 C   0  0  0  0  0  1  0  0  0  0  0  0
  187.1380  178.2010  145.8130 O   0  0  0  0  0  0  0  0  0  0  0  0
  1 21  1  1  0  0  0
  1 10  1  0  0  0  0
  2  9  1  0  0  0  0
  3  2  1  0  0  0  0
  5  4  1  0  0  0  0
  5 25  1  0  0  0  0
  6 15  1  0  0  0  0
  8 23  1  0  0  0  0
  8 25  2  0  0  0  0
 10  7  1  1  0  0  0
 11 10  1  0  0  0  0
 11  9  1  1  0  0  0
 12 20  1  1  0  0  0
 12 19  1  0  0  0  0
 13 16  1  0  0  0  0
 13  8  1  0  0  0  0
 14  6  2  0  0  0  0
 15  7  2  0  0  0  0
 15 30  1  0  0  0  0
 16  5  2  0  0  0  0
 17 14  2  0  0  0  0
 17 26  1  0  0  0  0
 18  3  1  0  0  0  0
 19 18  1  6  0  0  0
 19 11  1  0  0  0  0
 21  6  1  0  0  0  0
 22  4  2  0  0  0  0
 24  4  1  6  0  0  0
 24 12  1  0  0  0  0
 24  1  1  0  0  0  0
 25 20  1  0  0  0  0
 26 27  1  0  0  0  0
 27 29  1  0  0  0  0
 28 27  1  0  0  0  0
 30 32  1  0  0  0  0
 32 31  1  0  0  0  0
M  END
>  <MODEL>
1

>  <REMARK>
 VINA RESULT:      -8.4      0.000      0.000
  Name = 
  4 active torsions:
  status: ('A' for Active; 'I' for Inactive)
    1  A    between atoms: N_1  and  C_10
    2  A    between atoms: C_10  and  C_23
    3  A    between atoms: C_12  and  C_21
    4  A    between atoms: C_12  and  O_24
                            x       y       z     vdW  Elec       q    Type
                         _______ _______ _______ _____ _____    ______ ____

>  <TORSDO>
F 4

$$$$
=
 OpenBabel10262421253D

 32 36  0  0  1  0  0  0  0  0999 V2000
  190.4700  176.9860  139.8430 C   0  0  2  0  0  3  0  0  0  0  0  0
  186.2140  178.1770  137.4370 C   0  0  0  0  0  2  0  0  0  0  0  0
  187.0480  178.6940  136.2700 C   0  0  0  0  0  2  0  0  0  0  0  0
  192.5200  176.6140  138.4560 C   0  0  0  0  0  0  0  0  0  0  0  0
  192.4130  175.3190  137.7890 C   0  0  0  0  0  0  0  0  0  0  0  0
  190.4820  176.8490  142.3250 C   0  0  0  0  0  0  0  0  0  0  0  0
  188.3620  177.1920  141.1550 C   0  0  0  0  0  3  0  0  0  0  0  0
  191.4070  173.6890  136.7340 C   0  0  0  0  0  0  0  0  0  0  0  0
  187.0020  178.3140  138.7360 C   0  0  0  0  0  2  0  0  0  0  0  0
  189.1110  177.6900  139.9450 C   0  0  2  0  0  3  0  0  0  0  0  0
  188.2980  177.5020  138.6660 C   0  0  2  0  0  3  0  0  0  0  0  0
  190.4090  177.2500  137.3530 N   0  0  2  0  0  0  0  0  0  0  0  0
  192.6180  173.2740  137.0570 O   0  0  0  0  0  0  0  0  0  0  0  0
  191.1290  176.5360  143.4170 C   0  0  0  0  0  0  0  0  0  0  0  0
  188.9970  176.8390  142.2770 C   0  0  0  0  0  0  0  0  0  0  0  0
  193.2660  174.2330  137.7060 C   0  0  0  0  0  3  0  0  0  0  0  0
  191.7760  176.2250  144.5100 C   0  0  0  0  0  3  0  0  0  0  0  0
  188.3440  177.8990  136.1570 C   0  0  0  0  0  2  0  0  0  0  0  0
  189.1370  177.9780  137.4650 C   0  0  1  0  0  3  0  0  0  0  0  0
  190.1600  175.8770  137.0890 N   0  0  0  0  0  2  0  0  0  0  0  0
  191.2680  177.2740  141.1180 C   0  0  0  0  0  2  0  0  0  0  0  0
  193.6040  177.0130  138.9550 O   0  0  0  0  0  0  0  0  0  0  0  0
  190.3960  172.8790  136.0030 C   0  0  0  0  0  1  0  0  0  0  0  0
  191.2400  177.4220  138.5810 C   0  0  1  0  0  3  0  0  0  0  0  0
  191.2600  174.9750  137.1790 C   0  0  0  0  0  0  0  0  0  0  0  0
  191.6290  176.9800  145.8000 C   0  0  0  0  0  2  0  0  0  0  0  0
  191.1450  176.1370  146.8860 N   0  0  0  0  0  0  0  0  0  0  0  0
  190.3950  176.9220  147.6930 O   0  0  0  0  0  1  0  0  0  0  0  0
  192.3090  175.7410  147.6560 C   0  0  0  0  0  1  0  0  0  0  0  0
  188.1820  176.4080  143.4530 C   0  0  0  0  0  2  0  0  0  0  0  0
  187.9930  177.7410  145.1990 C   0  0  0  0  0  1  0  0  0  0  0  0
  187.4490  177.4900  143.9400 O   0  0  0  0  0  0  0  0  0  0  0  0
  1 10  1  0  0  0  0
  1 21  1  1  0  0  0
  2  9  1  0  0  0  0
  3  2  1  0  0  0  0
  4 22  2  0  0  0  0
  5  4  1  0  0  0  0
  6 14  2  0  0  0  0
  7 15  2  0  0  0  0
  8 13  1  0  0  0  0
  8 25  2  0  0  0  0
 10  7  1  1  0  0  0
 11  9  1  1  0  0  0
 11 10  1  0  0  0  0
 12 20  1  1  0  0  0
 12 19  1  0  0  0  0
 12 24  1  0  0  0  0
 13 16  1  0  0  0  0
 14 17  2  0  0  0  0
 15  6  1  0  0  0  0
 15 30  1  0  0  0  0
 16  5  2  0  0  0  0
 17 26  1  0  0  0  0
 18  3  1  0  0  0  0
 19 18  1  6  0  0  0
 19 11  1  0  0  0  0
 20 25  1  0  0  0  0
 21  6  1  0  0  0  0
 23  8  1  0  0  0  0
 24  4  1  6  0  0  0
 24  1  1  0  0  0  0
 25  5  1  0  0  0  0
 26 27  1  0  0  0  0
 27 29  1  0  0  0  0
 27 28  1  0  0  0  0
 30 32  1  0  0  0  0
 32 31  1  0  0  0  0
M  END
>  <MODEL>
2

>  <REMARK>
 VINA RESULT:      -8.2      4.768      6.788
  Name = 
  4 active torsions:
  status: ('A' for Active; 'I' for Inactive)
    1  A    between atoms: N_1  and  C_10
    2  A    between atoms: C_10  and  C_23
    3  A    between atoms: C_12  and  C_21
    4  A    between atoms: C_12  and  O_24
                            x       y       z     vdW  Elec       q    Type
                         _______ _______ _______ _____ _____    ______ ____

>  <TORSDO>
F 4

$$$$
=
 OpenBabel10262421253D

 32 36  0  0  1  0  0  0  0  0999 V2000
  186.5170  178.0920  140.8850 C   0  0  2  0  0  3  0  0  0  0  0  0
  184.3920  178.3100  145.4410 C   0  0  0  0  0  2  0  0  0  0  0  0
  183.4000  179.3340  144.9020 C   0  0  0  0  0  2  0  0  0  0  0  0
  185.1200  178.7670  138.9220 C   0  0  0  0  0  0  0  0  0  0  0  0
  184.1580  177.7050  138.6370 C   0  0  0  0  0  0  0  0  0  0  0  0
  188.8930  177.3910  140.6690 C   0  0  0  0  0  0  0  0  0  0  0  0
  187.8010  177.2640  142.8540 C   0  0  0  0  0  3  0  0  0  0  0  0
  182.7220  176.1260  139.1140 C   0  0  0  0  0  0  0  0  0  0  0  0
  185.7000  178.3960  144.6620 C   0  0  0  0  0  2  0  0  0  0  0  0
  186.7610  178.2530  142.3920 C   0  0  2  0  0  3  0  0  0  0  0  0
  185.4600  178.1080  143.1770 C   0  0  2  0  0  3  0  0  0  0  0  0
  184.1650  178.8940  141.1900 N   0  0  2  0  0  0  0  0  0  0  0  0
  182.9580  176.0790  137.8150 O   0  0  0  0  0  0  0  0  0  0  0  0
  189.8880  177.0680  139.8870 C   0  0  0  0  0  0  0  0  0  0  0  0
  188.8160  176.8930  142.0680 C   0  0  0  0  0  0  0  0  0  0  0  0
  183.8310  177.0200  137.4810 C   0  0  0  0  0  3  0  0  0  0  0  0
  190.8850  176.7460  139.1050 C   0  0  0  0  0  3  0  0  0  0  0  0
  183.1230  179.0710  143.4260 C   0  0  0  0  0  2  0  0  0  0  0  0
  184.4260  179.1050  142.6210 C   0  0  1  0  0  3  0  0  0  0  0  0
  183.5720  177.6200  140.9880 N   0  0  0  0  0  2  0  0  0  0  0  0
  187.8390  178.3250  140.1480 C   0  0  0  0  0  2  0  0  0  0  0  0
  185.7210  179.3790  138.0010 O   0  0  0  0  0  0  0  0  0  0  0  0
  181.7980  175.2180  139.8440 C   0  0  0  0  0  1  0  0  0  0  0  0
  185.4130  179.0440  140.3860 C   0  0  1  0  0  3  0  0  0  0  0  0
  183.4610  177.1460  139.6480 C   0  0  0  0  0  0  0  0  0  0  0  0
  192.3170  177.0830  139.4100 C   0  0  0  0  0  2  0  0  0  0  0  0
  193.2540  176.3140  138.6020 N   0  0  0  0  0  0  0  0  0  0  0  0
  193.6850  177.1280  137.6100 O   0  0  0  0  0  1  0  0  0  0  0  0
  192.4870  175.2570  137.9680 C   0  0  0  0  0  1  0  0  0  0  0  0
  189.8370  175.9510  142.6180 C   0  0  0  0  0  2  0  0  0  0  0  0
  191.6240  177.0890  143.2310 C   0  0  0  0  0  1  0  0  0  0  0  0
  190.4520  176.5210  143.7310 O   0  0  0  0  0  0  0  0  0  0  0  0
  1 21  1  6  0  0  0
  1 10  1  0  0  0  0
  3  2  1  0  0  0  0
  5  4  1  0  0  0  0
  5 25  1  0  0  0  0
  6 15  1  0  0  0  0
  8 25  2  0  0  0  0
  8 23  1  0  0  0  0
  9  2  1  0  0  0  0
 10  7  1  1  0  0  0
 10 11  1  0  0  0  0
 11  9  1  1  0  0  0
 12 20  1  1  0  0  0
 12 19  1  0  0  0  0
 13  8  1  0  0  0  0
 14  6  2  0  0  0  0
 15 30  1  0  0  0  0
 15  7  2  0  0  0  0
 16 13  1  0  0  0  0
 16  5  2  0  0  0  0
 17 26  1  0  0  0  0
 17 14  2  0  0  0  0
 18  3  1  0  0  0  0
 19 11  1  0  0  0  0
 19 18  1  1  0  0  0
 21  6  1  0  0  0  0
 22  4  2  0  0  0  0
 24  4  1  6  0  0  0
 24  1  1  0  0  0  0
 24 12  1  0  0  0  0
 25 20  1  0  0  0  0
 27 26  1  0  0  0  0
 28 27  1  0  0  0  0
 29 27  1  0  0  0  0
 30 32  1  0  0  0  0
 31 32  1  0  0  0  0
M  END
>  <MODEL>
3

>  <REMARK>
 VINA RESULT:      -8.0      2.344      3.275
  Name = 
  4 active torsions:
  status: ('A' for Active; 'I' for Inactive)
    1  A    between atoms: N_1  and  C_10
    2  A    between atoms: C_10  and  C_23
    3  A    between atoms: C_12  and  C_21
    4  A    between atoms: C_12  and  O_24
                            x       y       z     vdW  Elec       q    Type
                         _______ _______ _______ _____ _____    ______ ____

>  <TORSDO>
F 4

$$$$
=
 OpenBabel10262421253D

 32 36  0  0  1  0  0  0  0  0999 V2000
  186.1840  178.2880  140.4430 C   0  0  2  0  0  3  0  0  0  0  0  0
  181.3250  178.7830  141.6520 C   0  0  0  0  0  2  0  0  0  0  0  0
  181.0890  179.4810  140.3170 C   0  0  0  0  0  2  0  0  0  0  0  0
  186.7840  178.3380  138.0140 C   0  0  0  0  0  0  0  0  0  0  0  0
  186.3970  177.0690  137.4030 C   0  0  0  0  0  0  0  0  0  0  0  0
  187.8830  178.0690  142.2450 C   0  0  0  0  0  0  0  0  0  0  0  0
  185.5090  178.0680  142.8310 C   0  0  0  0  0  3  0  0  0  0  0  0
  185.1270  175.3230  137.0520 C   0  0  0  0  0  0  0  0  0  0  0  0
  182.7610  179.0130  142.1100 C   0  0  0  0  0  2  0  0  0  0  0  0
  185.1840  178.7340  141.5180 C   0  0  2  0  0  3  0  0  0  0  0  0
  183.7480  178.4490  141.0850 C   0  0  2  0  0  3  0  0  0  0  0  0
  184.4310  178.6240  138.6870 N   0  0  2  0  0  0  0  0  0  0  0  0
  186.2740  175.1200  136.4310 O   0  0  0  0  0  0  0  0  0  0  0  0
  189.1260  177.8390  142.5770 C   0  0  0  0  0  0  0  0  0  0  0  0
  186.7680  177.7950  143.1880 C   0  0  0  0  0  0  0  0  0  0  0  0
  187.0810  176.1560  136.6210 C   0  0  0  0  0  3  0  0  0  0  0  0
  190.3690  177.6100  142.9100 C   0  0  0  0  0  3  0  0  0  0  0  0
  182.0460  178.9350  139.2630 C   0  0  0  0  0  2  0  0  0  0  0  0
  183.4990  179.1090  139.7150 C   0  0  1  0  0  3  0  0  0  0  0  0
  184.2200  177.2390  138.4560 N   0  0  0  0  0  2  0  0  0  0  0  0
  187.5960  178.6690  140.8990 C   0  0  0  0  0  2  0  0  0  0  0  0
  187.8690  178.9060  137.7250 O   0  0  0  0  0  0  0  0  0  0  0  0
  183.9840  174.3710  137.0620 C   0  0  0  0  0  1  0  0  0  0  0  0
  185.8470  178.8990  139.0690 C   0  0  1  0  0  3  0  0  0  0  0  0
  185.1810  176.5450  137.6640 C   0  0  0  0  0  0  0  0  0  0  0  0
  191.0510  178.2800  144.0690 C   0  0  0  0  0  2  0  0  0  0  0  0
  191.6640  177.3250  144.9830 N   0  0  0  0  0  0  0  0  0  0  0  0
  191.7990  176.1600  144.3070 O   0  0  0  0  0  1  0  0  0  0  0  0
  190.6980  177.0820  146.0390 C   0  0  0  0  0  1  0  0  0  0  0  0
  187.0130  177.1840  144.5300 C   0  0  0  0  0  2  0  0  0  0  0  0
  186.4020  177.9850  146.4910 C   0  0  0  0  0  1  0  0  0  0  0  0
  187.3130  178.1840  145.4540 O   0  0  0  0  0  0  0  0  0  0  0  0
  1 21  1  1  0  0  0
  1 10  1  0  0  0  0
  2  9  1  0  0  0  0
  3  2  1  0  0  0  0
  5 25  1  0  0  0  0
  5  4  1  0  0  0  0
  6 14  2  0  0  0  0
  6 15  1  0  0  0  0
  7 15  2  0  0  0  0
  8 23  1  0  0  0  0
  8 25  2  0  0  0  0
 10  7  1  1  0  0  0
 11 10  1  0  0  0  0
 11  9  1  1  0  0  0
 12 20  1  1  0  0  0
 12 24  1  0  0  0  0
 12 19  1  0  0  0  0
 13 16  1  0  0  0  0
 13  8  1  0  0  0  0
 14 17  2  0  0  0  0
 15 30  1  0  0  0  0
 16  5  2  0  0  0  0
 17 26  1  0  0  0  0
 18  3  1  0  0  0  0
 19 18  1  6  0  0  0
 19 11  1  0  0  0  0
 21  6  1  0  0  0  0
 22  4  2  0  0  0  0
 24  4  1  6  0  0  0
 24  1  1  0  0  0  0
 25 20  1  0  0  0  0
 26 27  1  0  0  0  0
 27 29  1  0  0  0  0
 28 27  1  0  0  0  0
 30 32  1  0  0  0  0
 32 31  1  0  0  0  0
M  END
>  <MODEL>
4

>  <REMARK>
 VINA RESULT:      -7.5      1.590      1.956
  Name = 
  4 active torsions:
  status: ('A' for Active; 'I' for Inactive)
    1  A    between atoms: N_1  and  C_10
    2  A    between atoms: C_10  and  C_23
    3  A    between atoms: C_12  and  C_21
    4  A    between atoms: C_12  and  O_24
                            x       y       z     vdW  Elec       q    Type
                         _______ _______ _______ _____ _____    ______ ____

>  <TORSDO>
F 4

$$$$
=
 OpenBabel10262421253D

 32 36  0  0  1  0  0  0  0  0999 V2000
  188.1820  177.7360  140.7650 C   0  0  2  0  0  3  0  0  0  0  0  0
  183.3450  179.0870  140.4510 C   0  0  0  0  0  2  0  0  0  0  0  0
  183.6400  179.7400  139.1050 C   0  0  0  0  0  2  0  0  0  0  0  0
  189.4740  177.5530  138.6310 C   0  0  0  0  0  0  0  0  0  0  0  0
  189.0720  176.3330  137.9350 C   0  0  0  0  0  0  0  0  0  0  0  0
  189.2050  177.3400  142.9960 C   0  0  0  0  0  0  0  0  0  0  0  0
  186.8010  177.7610  142.8400 C   0  0  0  0  0  3  0  0  0  0  0  0
  187.6820  174.8030  137.2220 C   0  0  0  0  0  0  0  0  0  0  0  0
  184.5980  179.1030  141.3210 C   0  0  0  0  0  2  0  0  0  0  0  0
  187.0010  178.3980  141.4880 C   0  0  2  0  0  3  0  0  0  0  0  0
  185.7310  178.3290  140.6420 C   0  0  2  0  0  3  0  0  0  0  0  0
  187.1130  178.2580  138.5610 N   0  0  2  0  0  0  0  0  0  0  0  0
  188.9080  174.3810  136.9760 O   0  0  0  0  0  0  0  0  0  0  0  0
  190.2330  176.9280  143.6880 C   0  0  0  0  0  0  0  0  0  0  0  0
  187.8300  177.3050  143.5600 C   0  0  0  0  0  0  0  0  0  0  0  0
  189.7890  175.2790  137.3980 C   0  0  0  0  0  3  0  0  0  0  0  0
  191.2630  176.5170  144.3820 C   0  0  0  0  0  3  0  0  0  0  0  0
  184.7570  178.9870  138.3900 C   0  0  0  0  0  2  0  0  0  0  0  0
  186.0170  178.9450  139.2590 C   0  0  1  0  0  3  0  0  0  0  0  0
  186.7440  176.9160  138.2820 N   0  0  0  0  0  2  0  0  0  0  0  0
  189.4380  177.9050  141.6250 C   0  0  0  0  0  2  0  0  0  0  0  0
  190.6770  177.9190  138.6800 O   0  0  0  0  0  0  0  0  0  0  0  0
  186.4410  174.0530  136.8890 C   0  0  0  0  0  1  0  0  0  0  0  0
  188.3780  178.3170  139.3520 C   0  0  1  0  0  3  0  0  0  0  0  0
  187.7620  176.0310  137.8190 C   0  0  0  0  0  0  0  0  0  0  0  0
  191.6760  177.1290  145.6900 C   0  0  0  0  0  2  0  0  0  0  0  0
  191.1720  176.3830  146.8370 N   0  0  0  0  0  0  0  0  0  0  0  0
  190.6680  177.2880  147.7080 O   0  0  0  0  0  1  0  0  0  0  0  0
  192.3250  175.7830  147.4820 C   0  0  0  0  0  1  0  0  0  0  0  0
  187.5570  176.7370  144.9150 C   0  0  0  0  0  2  0  0  0  0  0  0
  187.4180  177.8480  146.8140 C   0  0  0  0  0  1  0  0  0  0  0  0
  186.7270  177.6010  145.6290 O   0  0  0  0  0  0  0  0  0  0  0  0
  1 10  1  0  0  0  0
  1 21  1  1  0  0  0
  2  9  1  0  0  0  0
  3  2  1  0  0  0  0
  4 22  2  0  0  0  0
  5  4  1  0  0  0  0
  6 15  1  0  0  0  0
  6 14  2  0  0  0  0
  7 15  2  0  0  0  0
  8 25  2  0  0  0  0
 10  7  1  1  0  0  0
 11  9  1  1  0  0  0
 11 10  1  0  0  0  0
 12 20  1  1  0  0  0
 12 19  1  0  0  0  0
 12 24  1  0  0  0  0
 13  8  1  0  0  0  0
 13 16  1  0  0  0  0
 14 17  2  0  0  0  0
 15 30  1  0  0  0  0
 16  5  2  0  0  0  0
 17 26  1  0  0  0  0
 18  3  1  0  0  0  0
 19 18  1  6  0  0  0
 19 11  1  0  0  0  0
 21  6  1  0  0  0  0
 23  8  1  0  0  0  0
 24  4  1  6  0  0  0
 24  1  1  0  0  0  0
 25  5  1  0  0  0  0
 25 20  1  0  0  0  0
 26 27  1  0  0  0  0
 27 29  1  0  0  0  0
 27 28  1  0  0  0  0
 30 32  1  0  0  0  0
 32 31  1  0  0  0  0
M  END
>  <MODEL>
5

>  <REMARK>
 VINA RESULT:      -7.2      2.909      4.030
  Name = 
  4 active torsions:
  status: ('A' for Active; 'I' for Inactive)
    1  A    between atoms: N_1  and  C_10
    2  A    between atoms: C_10  and  C_23
    3  A    between atoms: C_12  and  C_21
    4  A    between atoms: C_12  and  O_24
                            x       y       z     vdW  Elec       q    Type
                         _______ _______ _______ _____ _____    ______ ____

>  <TORSDO>
F 4

$$$$
=
 OpenBabel10262421253D

 32 36  0  0  1  0  0  0  0  0999 V2000
  188.8130  175.7410  137.7970 C   0  0  2  0  0  3  0  0  0  0  0  0
  193.5400  174.2140  136.9970 C   0  0  0  0  0  2  0  0  0  0  0  0
  193.9930  175.6690  137.0520 C   0  0  0  0  0  2  0  0  0  0  0  0
  188.4840  177.9570  138.9130 C   0  0  0  0  0  0  0  0  0  0  0  0
  188.7900  177.8220  140.3350 C   0  0  0  0  0  0  0  0  0  0  0  0
  186.9180  174.3270  137.0290 C   0  0  0  0  0  0  0  0  0  0  0  0
  189.2010  173.4690  136.8520 C   0  0  0  0  0  3  0  0  0  0  0  0
  189.8870  177.1050  142.0860 C   0  0  0  0  0  0  0  0  0  0  0  0
  192.0980  174.1390  136.5070 C   0  0  0  0  0  2  0  0  0  0  0  0
  189.7360  174.8760  136.9280 C   0  0  2  0  0  3  0  0  0  0  0  0
  191.1690  174.9040  137.4550 C   0  0  2  0  0  3  0  0  0  0  0  0
  190.7700  177.1640  138.4420 N   0  0  2  0  0  0  0  0  0  0  0  0
  188.7970  177.7150  142.5130 O   0  0  0  0  0  0  0  0  0  0  0  0
  185.6290  174.1130  137.0110 C   0  0  0  0  0  0  0  0  0  0  0  0
  187.8890  173.2150  136.8580 C   0  0  0  0  0  0  0  0  0  0  0  0
  188.0960  178.1640  141.4810 C   0  0  0  0  0  3  0  0  0  0  0  0
  184.3390  173.8980  136.9900 C   0  0  0  0  0  3  0  0  0  0  0  0
  193.0990  176.4620  137.9990 C   0  0  0  0  0  2  0  0  0  0  0  0
  191.6350  176.3680  137.5600 C   0  0  1  0  0  3  0  0  0  0  0  0
  190.8480  176.6710  139.7720 N   0  0  0  0  0  2  0  0  0  0  0  0
  187.4120  175.7370  137.1770 C   0  0  0  0  0  2  0  0  0  0  0  0
  187.5070  178.6390  138.5090 O   0  0  0  0  0  0  0  0  0  0  0  0
  190.9090  176.4730  142.9630 C   0  0  0  0  0  1  0  0  0  0  0  0
  189.3610  177.1740  137.9520 C   0  0  1  0  0  3  0  0  0  0  0  0
  189.9050  177.1670  140.7190 C   0  0  0  0  0  0  0  0  0  0  0  0
  183.6170  173.3160  135.8090 C   0  0  0  0  0  2  0  0  0  0  0  0
  182.5390  172.4170  136.2030 N   0  0  0  0  0  0  0  0  0  0  0  0
  181.8110  173.0600  137.1450 O   0  0  0  0  0  1  0  0  0  0  0  0
  183.1630  171.2840  136.8610 C   0  0  0  0  0  1  0  0  0  0  0  0
  187.4350  171.7970  136.7230 C   0  0  0  0  0  2  0  0  0  0  0  0
  186.4180  170.9780  134.9460 C   0  0  0  0  0  1  0  0  0  0  0  0
  187.6750  171.3480  135.4250 O   0  0  0  0  0  0  0  0  0  0  0  0
  1 21  1  6  0  0  0
  1 24  1  0  0  0  0
  2  3  1  0  0  0  0
  3 18  1  0  0  0  0
  4  5  1  0  0  0  0
  5 25  1  0  0  0  0
  5 16  2  0  0  0  0
  6 21  1  0  0  0  0
  7 15  2  0  0  0  0
  8 13  1  0  0  0  0
  8 23  1  0  0  0  0
  9  2  1  0  0  0  0
 10  7  1  1  0  0  0
 10 11  1  0  0  0  0
 10  1  1  0  0  0  0
 11  9  1  6  0  0  0
 11 19  1  0  0  0  0
 12 20  1  1  0  0  0
 14  6  2  0  0  0  0
 15  6  1  0  0  0  0
 16 13  1  0  0  0  0
 17 14  2  0  0  0  0
 19 18  1  1  0  0  0
 19 12  1  0  0  0  0
 20 25  1  0  0  0  0
 22  4  2  0  0  0  0
 24 12  1  0  0  0  0
 24  4  1  1  0  0  0
 25  8  2  0  0  0  0
 26 27  1  0  0  0  0
 26 17  1  0  0  0  0
 27 29  1  0  0  0  0
 27 28  1  0  0  0  0
 30 15  1  0  0  0  0
 31 32  1  0  0  0  0
 32 30  1  0  0  0  0
M  END
>  <MODEL>
6

>  <REMARK>
 VINA RESULT:      -6.8      4.628      9.867
  Name = 
  4 active torsions:
  status: ('A' for Active; 'I' for Inactive)
    1  A    between atoms: N_1  and  C_10
    2  A    between atoms: C_10  and  C_23
    3  A    between atoms: C_12  and  C_21
    4  A    between atoms: C_12  and  O_24
                            x       y       z     vdW  Elec       q    Type
                         _______ _______ _______ _____ _____    ______ ____

>  <TORSDO>
F 4

$$$$
=
 OpenBabel10262421253D

 32 36  0  0  1  0  0  0  0  0999 V2000
  185.4750  178.1960  139.9730 C   0  0  2  0  0  3  0  0  0  0  0  0
  180.5420  178.6310  140.8650 C   0  0  0  0  0  2  0  0  0  0  0  0
  180.3510  179.1140  139.4310 C   0  0  0  0  0  2  0  0  0  0  0  0
  186.2020  177.9190  137.5940 C   0  0  0  0  0  0  0  0  0  0  0  0
  185.8990  176.5570  137.1610 C   0  0  0  0  0  0  0  0  0  0  0  0
  187.0820  178.3220  141.8650 C   0  0  0  0  0  0  0  0  0  0  0  0
  184.6820  178.2950  142.3330 C   0  0  0  0  0  3  0  0  0  0  0  0
  184.7210  174.7210  137.0120 C   0  0  0  0  0  0  0  0  0  0  0  0
  181.9410  178.9930  141.3510 C   0  0  0  0  0  2  0  0  0  0  0  0
  184.4020  178.7460  140.9220 C   0  0  2  0  0  3  0  0  0  0  0  0
  183.0030  178.3330  140.4680 C   0  0  2  0  0  3  0  0  0  0  0  0
  183.8060  178.1880  138.1060 N   0  0  2  0  0  0  0  0  0  0  0  0
  185.9070  174.4840  136.4830 O   0  0  0  0  0  0  0  0  0  0  0  0
  188.3130  178.2020  142.2860 C   0  0  0  0  0  0  0  0  0  0  0  0
  185.9300  178.1360  142.7850 C   0  0  0  0  0  0  0  0  0  0  0  0
  186.6600  175.5730  136.5560 C   0  0  0  0  0  3  0  0  0  0  0  0
  189.5460  178.0840  142.7080 C   0  0  0  0  0  3  0  0  0  0  0  0
  181.3840  178.4660  138.5160 C   0  0  0  0  0  2  0  0  0  0  0  0
  182.8020  178.7730  139.0050 C   0  0  1  0  0  3  0  0  0  0  0  0
  183.6640  176.7760  138.0730 N   0  0  0  0  0  2  0  0  0  0  0  0
  186.8440  178.7050  140.4330 C   0  0  0  0  0  2  0  0  0  0  0  0
  187.2770  178.4900  137.2750 O   0  0  0  0  0  0  0  0  0  0  0  0
  183.6180  173.7270  137.1090 C   0  0  0  0  0  1  0  0  0  0  0  0
  185.1880  178.5820  138.5090 C   0  0  1  0  0  3  0  0  0  0  0  0
  184.6930  176.0200  137.4390 C   0  0  0  0  0  0  0  0  0  0  0  0
  190.1370  178.9480  143.7850 C   0  0  0  0  0  2  0  0  0  0  0  0
  190.9140  178.1800  144.7500 N   0  0  0  0  0  0  0  0  0  0  0  0
  192.2080  178.2470  144.3610 O   0  0  0  0  0  1  0  0  0  0  0  0
  190.5070  176.7950  144.6030 C   0  0  0  0  0  1  0  0  0  0  0  0
  186.1260  177.7400  144.2120 C   0  0  0  0  0  2  0  0  0  0  0  0
  185.7450  178.6120  146.2020 C   0  0  0  0  0  1  0  0  0  0  0  0
  185.1160  178.2940  144.9980 O   0  0  0  0  0  0  0  0  0  0  0  0
  1 21  1  1  0  0  0
  1 10  1  0  0  0  0
  2  9  1  0  0  0  0
  3  2  1  0  0  0  0
  5 25  1  0  0  0  0
  5  4  1  0  0  0  0
  6 14  2  0  0  0  0
  6 15  1  0  0  0  0
  7 15  2  0  0  0  0
  8 23  1  0  0  0  0
  8 25  2  0  0  0  0
 10  7  1  1  0  0  0
 11 10  1  0  0  0  0
 11  9  1  1  0  0  0
 12 20  1  1  0  0  0
 12 24  1  0  0  0  0
 12 19  1  0  0  0  0
 13 16  1  0  0  0  0
 13  8  1  0  0  0  0
 14 17  2  0  0  0  0
 15 30  1  0  0  0  0
 16  5  2  0  0  0  0
 17 26  1  0  0  0  0
 18  3  1  0  0  0  0
 19 18  1  6  0  0  0
 19 11  1  0  0  0  0
 21  6  1  0  0  0  0
 22  4  2  0  0  0  0
 24  4  1  6  0  0  0
 24  1  1  0  0  0  0
 25 20  1  0  0  0  0
 26 27  1  0  0  0  0
 28 27  1  0  0  0  0
 29 27  1  0  0  0  0
 30 32  1  0  0  0  0
 32 31  1  0  0  0  0
M  END
>  <MODEL>
7

>  <REMARK>
 VINA RESULT:      -6.6      1.656      2.037
  Name = 
  4 active torsions:
  status: ('A' for Active; 'I' for Inactive)
    1  A    between atoms: N_1  and  C_10
    2  A    between atoms: C_10  and  C_23
    3  A    between atoms: C_12  and  C_21
    4  A    between atoms: C_12  and  O_24
                            x       y       z     vdW  Elec       q    Type
                         _______ _______ _______ _____ _____    ______ ____

>  <TORSDO>
F 4

$$$$
=
 OpenBabel10262421253D

 32 36  0  0  1  0  0  0  0  0999 V2000
  186.2180  177.9150  139.5030 C   0  0  2  0  0  3  0  0  0  0  0  0
  181.2830  178.8960  139.5440 C   0  0  0  0  0  2  0  0  0  0  0  0
  181.3450  179.1460  138.0410 C   0  0  0  0  0  2  0  0  0  0  0  0
  187.2360  177.1850  137.3360 C   0  0  0  0  0  0  0  0  0  0  0  0
  186.8540  175.7990  137.0750 C   0  0  0  0  0  0  0  0  0  0  0  0
  187.5500  178.2250  141.5790 C   0  0  0  0  0  0  0  0  0  0  0  0
  185.1180  178.4730  141.6680 C   0  0  0  0  0  3  0  0  0  0  0  0
  185.5200  174.0670  137.0300 C   0  0  0  0  0  0  0  0  0  0  0  0
  182.6310  179.2180  140.1790 C   0  0  0  0  0  2  0  0  0  0  0  0
  185.0870  178.7020  140.1780 C   0  0  2  0  0  3  0  0  0  0  0  0
  183.7300  178.3350  139.5830 C   0  0  2  0  0  3  0  0  0  0  0  0
  184.8340  177.7320  137.4230 N   0  0  2  0  0  0  0  0  0  0  0  0
  186.7360  173.6480  136.7330 O   0  0  0  0  0  0  0  0  0  0  0  0
  188.6910  178.0760  142.1980 C   0  0  0  0  0  0  0  0  0  0  0  0
  186.2670  178.2900  142.3270 C   0  0  0  0  0  0  0  0  0  0  0  0
  187.5830  174.6690  136.7530 C   0  0  0  0  0  3  0  0  0  0  0  0
  189.8330  177.9300  142.8180 C   0  0  0  0  0  3  0  0  0  0  0  0
  182.4210  178.2720  137.4060 C   0  0  0  0  0  2  0  0  0  0  0  0
  183.7820  178.5390  138.0570 C   0  0  1  0  0  3  0  0  0  0  0  0
  184.5490  176.3500  137.5860 N   0  0  0  0  0  2  0  0  0  0  0  0
  187.5550  178.3810  140.0860 C   0  0  0  0  0  2  0  0  0  0  0  0
  188.3990  177.6050  137.1030 O   0  0  0  0  0  0  0  0  0  0  0  0
  184.3160  173.1970  137.1070 C   0  0  0  0  0  1  0  0  0  0  0  0
  186.1800  178.0730  137.9700 C   0  0  1  0  0  3  0  0  0  0  0  0
  185.5700  175.4170  137.2420 C   0  0  0  0  0  0  0  0  0  0  0  0
  190.3560  178.9110  143.8280 C   0  0  0  0  0  2  0  0  0  0  0  0
  190.6380  178.2870  145.1150 N   0  0  0  0  0  0  0  0  0  0  0  0
  191.8920  177.7820  145.0450 O   0  0  0  0  0  1  0  0  0  0  0  0
  189.7400  177.1540  145.2340 C   0  0  0  0  0  1  0  0  0  0  0  0
  186.2200  178.1240  143.8110 C   0  0  0  0  0  2  0  0  0  0  0  0
  185.0540  179.0040  145.4630 C   0  0  0  0  0  1  0  0  0  0  0  0
  184.9140  178.3050  144.2640 O   0  0  0  0  0  0  0  0  0  0  0  0
  1 21  1  1  0  0  0
  1 10  1  0  0  0  0
  2  9  1  0  0  0  0
  3  2  1  0  0  0  0
  5 25  1  0  0  0  0
  5  4  1  0  0  0  0
  6 14  2  0  0  0  0
  6 15  1  0  0  0  0
  7 15  2  0  0  0  0
  8 23  1  0  0  0  0
  8 25  2  0  0  0  0
 10  7  1  1  0  0  0
 11 10  1  0  0  0  0
 11  9  1  1  0  0  0
 12 20  1  1  0  0  0
 12 24  1  0  0  0  0
 12 19  1  0  0  0  0
 13 16  1  0  0  0  0
 13  8  1  0  0  0  0
 14 17  2  0  0  0  0
 15 30  1  0  0  0  0
 16  5  2  0  0  0  0
 17 26  1  0  0  0  0
 18  3  1  0  0  0  0
 19 18  1  6  0  0  0
 19 11  1  0  0  0  0
 21  6  1  0  0  0  0
 22  4  2  0  0  0  0
 24  4  1  6  0  0  0
 24  1  1  0  0  0  0
 25 20  1  0  0  0  0
 26 27  1  0  0  0  0
 27 29  1  0  0  0  0
 28 27  1  0  0  0  0
 30 32  1  0  0  0  0
 32 31  1  0  0  0  0
M  END
>  <MODEL>
8

>  <REMARK>
 VINA RESULT:      -6.4      2.273      2.989
  Name = 
  4 active torsions:
  status: ('A' for Active; 'I' for Inactive)
    1  A    between atoms: N_1  and  C_10
    2  A    between atoms: C_10  and  C_23
    3  A    between atoms: C_12  and  C_21
    4  A    between atoms: C_12  and  O_24
                            x       y       z     vdW  Elec       q    Type
                         _______ _______ _______ _____ _____    ______ ____

>  <TORSDO>
F 4

$$$$
=
 OpenBabel10262421253D

 32 36  0  0  1  0  0  0  0  0999 V2000
  188.7670  176.1960  137.4990 C   0  0  2  0  0  3  0  0  0  0  0  0
  192.6470  173.0730  136.7860 C   0  0  0  0  0  2  0  0  0  0  0  0
  193.5980  174.2440  137.0090 C   0  0  0  0  0  2  0  0  0  0  0  0
  189.1860  178.2830  138.8140 C   0  0  0  0  0  0  0  0  0  0  0  0
  189.3020  177.9380  140.2290 C   0  0  0  0  0  0  0  0  0  0  0  0
  186.5540  175.6560  136.5020 C   0  0  0  0  0  0  0  0  0  0  0  0
  188.3670  174.0200  136.3530 C   0  0  0  0  0  3  0  0  0  0  0  0
  189.9070  176.7340  141.9510 C   0  0  0  0  0  0  0  0  0  0  0  0
  191.3250  173.5800  136.2200 C   0  0  0  0  0  2  0  0  0  0  0  0
  189.3740  175.1150  136.5960 C   0  0  2  0  0  3  0  0  0  0  0  0
  190.6680  174.5640  137.1920 C   0  0  2  0  0  3  0  0  0  0  0  0
  191.0490  176.7290  138.3800 N   0  0  2  0  0  0  0  0  0  0  0  0
  189.0880  177.6750  142.3840 O   0  0  0  0  0  0  0  0  0  0  0  0
  185.2840  175.9420  136.3980 C   0  0  0  0  0  0  0  0  0  0  0  0
  187.0580  174.2770  136.2690 C   0  0  0  0  0  0  0  0  0  0  0  0
  188.6890  178.4290  141.3680 C   0  0  0  0  0  3  0  0  0  0  0  0
  184.0120  176.2280  136.2930 C   0  0  0  0  0  3  0  0  0  0  0  0
  192.9840  175.2410  137.9850 C   0  0  0  0  0  2  0  0  0  0  0  0
  191.6300  175.7350  137.4670 C   0  0  1  0  0  3  0  0  0  0  0  0
  190.8290  176.1450  139.6560 N   0  0  0  0  0  2  0  0  0  0  0  0
  187.5200  176.7620  136.8140 C   0  0  0  0  0  2  0  0  0  0  0  0
  188.5670  179.3100  138.4330 O   0  0  0  0  0  0  0  0  0  0  0  0
  190.5470  175.7020  142.8100 C   0  0  0  0  0  1  0  0  0  0  0  0
  189.7890  177.3030  137.8240 C   0  0  1  0  0  3  0  0  0  0  0  0
  190.0610  176.8860  140.6000 C   0  0  0  0  0  0  0  0  0  0  0  0
  183.2270  176.0490  135.0250 C   0  0  0  0  0  2  0  0  0  0  0  0
  181.7910  175.9810  135.2640 N   0  0  0  0  0  0  0  0  0  0  0  0
  181.4440  177.1140  135.9170 O   0  0  0  0  0  1  0  0  0  0  0  0
  181.5750  174.8850  136.1900 C   0  0  0  0  0  1  0  0  0  0  0  0
  186.1270  173.1470  135.9700 C   0  0  0  0  0  2  0  0  0  0  0  0
  184.4250  172.4050  137.1600 C   0  0  0  0  0  1  0  0  0  0  0  0
  185.8180  172.4670  137.1480 O   0  0  0  0  0  0  0  0  0  0  0  0
  1 21  1  6  0  0  0
  1 24  1  0  0  0  0
  2  3  1  0  0  0  0
  3 18  1  0  0  0  0
  4  5  1  0  0  0  0
  5 25  1  0  0  0  0
  5 16  2  0  0  0  0
  6 21  1  0  0  0  0
  8 13  1  0  0  0  0
  8 23  1  0  0  0  0
  9  2  1  0  0  0  0
 10  7  1  1  0  0  0
 10 11  1  0  0  0  0
 10  1  1  0  0  0  0
 11  9  1  6  0  0  0
 11 19  1  0  0  0  0
 12 20  1  1  0  0  0
 14  6  2  0  0  0  0
 15  7  2  0  0  0  0
 15  6  1  0  0  0  0
 16 13  1  0  0  0  0
 17 14  2  0  0  0  0
 19 18  1  1  0  0  0
 19 12  1  0  0  0  0
 20 25  1  0  0  0  0
 22  4  2  0  0  0  0
 24 12  1  0  0  0  0
 24  4  1  1  0  0  0
 25  8  2  0  0  0  0
 26 27  1  0  0  0  0
 26 17  1  0  0  0  0
 27 28  1  0  0  0  0
 27 29  1  0  0  0  0
 30 15  1  0  0  0  0
 30 32  1  0  0  0  0
 32 31  1  0  0  0  0
M  END
>  <MODEL>
9

>  <REMARK>
 VINA RESULT:      -6.1      4.418      9.748
  Name = 
  4 active torsions:
  status: ('A' for Active; 'I' for Inactive)
    1  A    between atoms: N_1  and  C_10
    2  A    between atoms: C_10  and  C_23
    3  A    between atoms: C_12  and  C_21
    4  A    between atoms: C_12  and  O_24
                            x       y       z     vdW  Elec       q    Type
                         _______ _______ _______ _____ _____    ______ ____

>  <TORSDO>
F 4

$$$$
