=
 OpenBabel10262423383D

 34 40  0  0  1  0  0  0  0  0999 V2000
  186.3520  177.3860  136.8430 C   0  0  1  0  0  3  0  0  0  0  0  0
  187.3910  177.6820  139.2480 C   0  0  1  0  0  3  0  0  0  0  0  0
  185.0910  173.4860  135.3930 C   0  0  2  0  0  3  0  0  0  0  0  0
  185.1360  178.6230  138.7390 C   0  0  0  0  0  0  0  0  0  0  0  0
  185.4110  173.9530  137.9060 C   0  0  0  0  0  2  0  0  0  0  0  0
  188.6790  173.8470  135.3620 N   0  0  0  0  0  0  0  0  0  0  0  0
  184.7270  175.8550  136.3170 C   0  0  1  0  0  0  0  0  0  0  0  0
  186.0620  176.2470  136.0580 O   0  0  0  0  0  0  0  0  0  0  0  0
  184.2250  176.6490  137.5240 C   0  0  2  0  0  3  0  0  0  0  0  0
  188.2060  172.5630  135.7670 C   0  0  0  0  0  0  0  0  0  0  0  0
  182.1920  178.2190  137.9790 C   0  0  0  0  0  2  0  0  0  0  0  0
  188.6970  175.3400  135.4220 C   0  0  2  0  0  3  0  0  0  0  0  0
  188.7740  171.5280  135.3280 O   0  0  0  0  0  0  0  0  0  0  0  0
  185.7480  172.1730  135.8070 C   0  0  0  0  0  2  0  0  0  0  0  0
  182.6910  176.8280  137.5890 C   0  0  0  0  0  2  0  0  0  0  0  0
  183.8980  176.1830  135.0690 C   0  0  0  0  0  1  0  0  0  0  0  0
  183.9870  179.4760  139.1780 C   0  0  0  0  0  2  0  0  0  0  0  0
  185.0440  177.8950  137.4320 C   0  0  2  0  0  3  0  0  0  0  0  0
  189.6100  174.7220  134.5940 C   0  0  0  0  0  2  0  0  0  0  0  0
  182.7170  178.6520  139.3410 C   0  0  0  0  0  2  0  0  0  0  0  0
  188.9040  178.6290  139.5590 S   0  0  0  0  0  0  0  0  0  0  0  0
  189.8210  177.4910  138.4910 C   0  0  2  0  0  3  0  0  0  0  0  0
  186.8710  173.6030  137.6250 C   0  0  0  0  0  2  0  0  0  0  0  0
  188.9080  177.0920  137.3160 C   0  0  2  0  0  0  0  0  0  0  0  0
  187.0040  172.4220  136.6500 C   0  0  2  0  0  3  0  0  0  0  0  0
  189.3750  175.7500  136.7190 C   0  0  0  0  0  2  0  0  0  0  0  0
  184.6650  174.3380  136.6100 C   0  0  1  0  0  3  0  0  0  0  0  0
  183.9780  173.2110  134.5970 O   0  0  0  0  0  1  0  0  0  0  0  0
  186.1940  178.5270  139.5400 C   0  0  0  0  0  3  0  0  0  0  0  0
  189.0580  178.1920  136.2660 C   0  0  0  0  0  1  0  0  0  0  0  0
  187.4590  177.0140  137.8640 C   0  0  2  0  0  3  0  0  0  0  0  0
  190.3570  176.3490  139.3160 C   0  0  0  0  0  0  0  0  0  0  0  0
  190.2470  176.3520  140.5720 O   0  0  0  0  0  1  0  0  0  0  0  0
  190.9960  175.2910  138.6830 O   0  0  0  0  0  0  0  0  0  0  0  0
  1  8  1  1  0  0  0
  1 18  1  0  0  0  0
  1 31  1  0  0  0  0
  2 29  1  6  0  0  0
  2 21  1  0  0  0  0
  3 28  1  1  0  0  0
  3 14  1  0  0  0  0
  3 27  1  0  0  0  0
  4 17  1  0  0  0  0
  4 29  2  0  0  0  0
  6 12  1  0  0  0  0
  6 10  1  0  0  0  0
  7 16  1  6  0  0  0
  7 27  1  0  0  0  0
  7  9  1  0  0  0  0
  8  7  1  0  0  0  0
  9 15  1  6  0  0  0
 10 25  1  0  0  0  0
 11 20  1  0  0  0  0
 12 19  1  6  0  0  0
 12 26  1  0  0  0  0
 13 10  2  0  0  0  0
 15 11  1  0  0  0  0
 17 20  1  0  0  0  0
 18  9  1  0  0  0  0
 18  4  1  1  0  0  0
 19  6  1  0  0  0  0
 22 32  1  1  0  0  0
 22 21  1  0  0  0  0
 23  5  1  0  0  0  0
 24 30  1  6  0  0  0
 24 31  1  0  0  0  0
 24 22  1  0  0  0  0
 25 14  1  6  0  0  0
 25 23  1  0  0  0  0
 26 24  1  0  0  0  0
 27  5  1  1  0  0  0
 31  2  1  0  0  0  0
 32 33  1  0  0  0  0
 34 32  2  0  0  0  0
M  END
>  <MODEL>
1

>  <REMARK>
 VINA RESULT:      -5.6      0.000      0.000
  Name = 
  1 active torsions:
  status: ('A' for Active; 'I' for Inactive)
    1  A    between atoms: C_3  and  C_25
                            x       y       z     vdW  Elec       q    Type
                         _______ _______ _______ _____ _____    ______ ____

>  <TORSDO>
F 1

$$$$
=
 OpenBabel10262423383D

 34 40  0  0  1  0  0  0  0  0999 V2000
  182.2830  174.9900  136.1350 C   0  0  1  0  0  3  0  0  0  0  0  0
  181.9990  176.2240  138.4470 C   0  0  1  0  0  3  0  0  0  0  0  0
  185.4140  172.0370  135.5200 C   0  0  2  0  0  3  0  0  0  0  0  0
  180.2750  174.5850  137.6880 C   0  0  0  0  0  0  0  0  0  0  0  0
  184.6380  172.7110  137.8820 C   0  0  0  0  0  2  0  0  0  0  0  0
  186.7060  175.4040  135.5100 N   0  0  0  0  0  0  0  0  0  0  0  0
  182.9990  172.8230  135.9050 C   0  0  1  0  0  0  0  0  0  0  0  0
  183.3050  174.1710  135.6040 O   0  0  0  0  0  0  0  0  0  0  0  0
  181.8370  172.8120  136.9000 C   0  0  2  0  0  3  0  0  0  0  0  0
  187.5320  174.4440  136.1670 C   0  0  0  0  0  0  0  0  0  0  0  0
  179.4690  171.7190  136.9520 C   0  0  0  0  0  2  0  0  0  0  0  0
  185.4010  176.0830  135.2490 C   0  0  2  0  0  3  0  0  0  0  0  0
  188.7770  174.4640  135.9760 O   0  0  0  0  0  0  0  0  0  0  0  0
  186.7670  172.0750  136.2240 C   0  0  0  0  0  2  0  0  0  0  0  0
  180.9840  171.5230  136.8830 C   0  0  0  0  0  2  0  0  0  0  0  0
  182.5970  172.1370  134.5940 C   0  0  0  0  0  1  0  0  0  0  0  0
  178.9310  173.9650  137.9020 C   0  0  0  0  0  2  0  0  0  0  0  0
  181.1360  174.0870  136.5650 C   0  0  2  0  0  3  0  0  0  0  0  0
  186.5150  176.5670  134.5970 C   0  0  0  0  0  2  0  0  0  0  0  0
  179.0490  172.4770  138.2040 C   0  0  0  0  0  2  0  0  0  0  0  0
  181.7850  178.0170  138.5890 S   0  0  0  0  0  0  0  0  0  0  0  0
  183.4040  178.2590  137.8150 C   0  0  2  0  0  3  0  0  0  0  0  0
  185.6510  173.8420  137.7230 C   0  0  0  0  0  2  0  0  0  0  0  0
  183.5830  177.1810  136.7280 C   0  0  2  0  0  0  0  0  0  0  0  0
  186.9390  173.3700  137.0270 C   0  0  2  0  0  3  0  0  0  0  0  0
  185.0820  176.9640  136.4460 C   0  0  0  0  0  2  0  0  0  0  0  0
  184.2340  172.1200  136.5140 C   0  0  1  0  0  3  0  0  0  0  0  0
  185.3190  170.8640  134.7720 O   0  0  0  0  0  1  0  0  0  0  0  0
  180.6680  175.5460  138.5190 C   0  0  0  0  0  3  0  0  0  0  0  0
  182.9050  177.7250  135.4710 C   0  0  0  0  0  1  0  0  0  0  0  0
  182.8930  175.8900  137.2410 C   0  0  2  0  0  3  0  0  0  0  0  0
  184.4690  178.2940  138.8790 C   0  0  0  0  0  0  0  0  0  0  0  0
  184.2880  177.7340  139.9950 O   0  0  0  0  0  1  0  0  0  0  0  0
  185.6580  178.9680  138.6330 O   0  0  0  0  0  0  0  0  0  0  0  0
  1  8  1  1  0  0  0
  1 18  1  0  0  0  0
  1 31  1  0  0  0  0
  2 29  1  6  0  0  0
  2 21  1  0  0  0  0
  3 28  1  1  0  0  0
  3 14  1  0  0  0  0
  3 27  1  0  0  0  0
  4 17  1  0  0  0  0
  4 29  2  0  0  0  0
  6 10  1  0  0  0  0
  7 16  1  6  0  0  0
  7 27  1  0  0  0  0
  7  9  1  0  0  0  0
  8  7  1  0  0  0  0
  9 15  1  6  0  0  0
 10 25  1  0  0  0  0
 11 20  1  0  0  0  0
 12 19  1  6  0  0  0
 12  6  1  0  0  0  0
 12 26  1  0  0  0  0
 13 10  2  0  0  0  0
 15 11  1  0  0  0  0
 17 20  1  0  0  0  0
 18  9  1  0  0  0  0
 18  4  1  1  0  0  0
 19  6  1  0  0  0  0
 22 21  1  0  0  0  0
 22 32  1  1  0  0  0
 23  5  1  0  0  0  0
 24 30  1  6  0  0  0
 24 31  1  0  0  0  0
 24 22  1  0  0  0  0
 25 14  1  6  0  0  0
 25 23  1  0  0  0  0
 26 24  1  0  0  0  0
 27  5  1  1  0  0  0
 31  2  1  0  0  0  0
 32 33  1  0  0  0  0
 34 32  2  0  0  0  0
M  END
>  <MODEL>
2

>  <REMARK>
 VINA RESULT:      -5.2      3.008      4.881
  Name = 
  1 active torsions:
  status: ('A' for Active; 'I' for Inactive)
    1  A    between atoms: C_3  and  C_25
                            x       y       z     vdW  Elec       q    Type
                         _______ _______ _______ _____ _____    ______ ____

>  <TORSDO>
F 1

$$$$
=
 OpenBabel10262423383D

 34 40  0  0  1  0  0  0  0  0999 V2000
  188.8970  178.5940  140.6810 C   0  0  1  0  0  3  0  0  0  0  0  0
  188.2570  176.8910  142.5890 C   0  0  1  0  0  3  0  0  0  0  0  0
  190.0880  177.2190  136.7330 C   0  0  2  0  0  3  0  0  0  0  0  0
  186.4990  178.3460  141.5740 C   0  0  0  0  0  0  0  0  0  0  0  0
  188.7840  175.7010  138.3540 C   0  0  0  0  0  2  0  0  0  0  0  0
  192.7040  176.7610  139.1730 N   0  0  0  0  0  0  0  0  0  0  0  0
  188.4830  178.2530  138.4500 C   0  0  1  0  0  0  0  0  0  0  0  0
  189.5030  178.4320  139.4150 O   0  0  0  0  0  0  0  0  0  0  0  0
  187.1610  178.0440  139.1930 C   0  0  2  0  0  3  0  0  0  0  0  0
  192.5650  175.6980  138.2310 C   0  0  0  0  0  0  0  0  0  0  0  0
  184.8250  179.2020  139.1520 C   0  0  0  0  0  2  0  0  0  0  0  0
  192.1680  177.7300  140.1760 C   0  0  2  0  0  3  0  0  0  0  0  0
  193.5970  175.1880  137.7180 O   0  0  0  0  0  0  0  0  0  0  0  0
  190.8120  175.9010  136.4750 C   0  0  0  0  0  2  0  0  0  0  0  0
  185.9000  178.4300  138.3880 C   0  0  0  0  0  2  0  0  0  0  0  0
  188.4290  179.5230  137.5930 C   0  0  0  0  0  1  0  0  0  0  0  0
  185.0910  178.8490  141.6100 C   0  0  0  0  0  2  0  0  0  0  0  0
  187.4030  178.7900  140.4630 C   0  0  2  0  0  3  0  0  0  0  0  0
  193.5310  177.7090  139.9720 C   0  0  0  0  0  2  0  0  0  0  0  0
  184.3220  178.4310  140.3650 C   0  0  0  0  0  2  0  0  0  0  0  0
  188.9060  177.0100  144.2760 S   0  0  0  0  0  0  0  0  0  0  0  0
  190.5840  176.8030  143.6310 C   0  0  2  0  0  3  0  0  0  0  0  0
  190.1670  175.3650  138.9060 C   0  0  0  0  0  2  0  0  0  0  0  0
  190.6770  177.5440  142.2840 C   0  0  2  0  0  0  0  0  0  0  0  0
  191.2150  175.2220  137.7900 C   0  0  2  0  0  3  0  0  0  0  0  0
  191.8250  176.9580  141.4390 C   0  0  0  0  0  2  0  0  0  0  0  0
  188.7990  177.0270  137.5630 C   0  0  1  0  0  3  0  0  0  0  0  0
  189.7780  177.8180  135.5110 O   0  0  0  0  0  1  0  0  0  0  0  0
  186.8940  177.5030  142.5240 C   0  0  0  0  0  3  0  0  0  0  0  0
  190.9900  179.0030  142.6200 C   0  0  0  0  0  1  0  0  0  0  0  0
  189.3020  177.3990  141.5810 C   0  0  2  0  0  3  0  0  0  0  0  0
  190.9310  175.3370  143.5930 C   0  0  0  0  0  0  0  0  0  0  0  0
  190.2040  174.5170  142.9710 O   0  0  0  0  0  0  0  0  0  0  0  0
  192.0560  174.8840  144.2700 O   0  0  0  0  0  1  0  0  0  0  0  0
  1  8  1  6  0  0  0
  1 31  1  0  0  0  0
  2 29  1  1  0  0  0
  2 21  1  0  0  0  0
  3 28  1  6  0  0  0
  3 27  1  0  0  0  0
  4 17  1  0  0  0  0
  4 29  2  0  0  0  0
  5 23  1  0  0  0  0
  6 19  1  0  0  0  0
  6 12  1  0  0  0  0
  7 16  1  6  0  0  0
  7  9  1  0  0  0  0
  7  8  1  0  0  0  0
  9 15  1  6  0  0  0
  9 18  1  0  0  0  0
 10  6  1  0  0  0  0
 11 20  1  0  0  0  0
 12 19  1  1  0  0  0
 12 26  1  0  0  0  0
 13 10  2  0  0  0  0
 14  3  1  0  0  0  0
 15 11  1  0  0  0  0
 18  1  1  0  0  0  0
 18  4  1  1  0  0  0
 20 17  1  0  0  0  0
 22 32  1  6  0  0  0
 22 21  1  0  0  0  0
 24 30  1  1  0  0  0
 24 22  1  0  0  0  0
 25 14  1  6  0  0  0
 25 10  1  0  0  0  0
 25 23  1  0  0  0  0
 26 24  1  0  0  0  0
 27  5  1  1  0  0  0
 27  7  1  0  0  0  0
 31 24  1  0  0  0  0
 31  2  1  0  0  0  0
 32 34  1  0  0  0  0
 33 32  2  0  0  0  0
M  END
>  <MODEL>
3

>  <REMARK>
 VINA RESULT:      -4.8      3.514      5.062
  Name = 
  1 active torsions:
  status: ('A' for Active; 'I' for Inactive)
    1  A    between atoms: C_3  and  C_25
                            x       y       z     vdW  Elec       q    Type
                         _______ _______ _______ _____ _____    ______ ____

>  <TORSDO>
F 1

$$$$
=
 OpenBabel10262423383D

 34 40  0  0  1  0  0  0  0  0999 V2000
  185.2540  177.9550  137.4400 C   0  0  1  0  0  3  0  0  0  0  0  0
  186.7380  175.7840  137.2580 C   0  0  1  0  0  3  0  0  0  0  0  0
  181.3050  177.8430  139.2560 C   0  0  2  0  0  3  0  0  0  0  0  0
  187.4150  177.6330  138.7930 C   0  0  0  0  0  0  0  0  0  0  0  0
  183.0460  175.9960  139.6960 C   0  0  0  0  0  2  0  0  0  0  0  0
  181.3180  176.3970  135.9530 N   0  0  0  0  0  0  0  0  0  0  0  0
  183.8120  178.3930  139.1710 C   0  0  1  0  0  0  0  0  0  0  0  0
  183.8970  178.1620  137.7770 O   0  0  0  0  0  0  0  0  0  0  0  0
  185.1740  178.0670  139.7880 C   0  0  2  0  0  3  0  0  0  0  0  0
  180.5050  175.7140  136.9070 C   0  0  0  0  0  0  0  0  0  0  0  0
  186.8850  179.3680  141.2650 C   0  0  0  0  0  2  0  0  0  0  0  0
  182.5940  177.0290  135.4990 C   0  0  2  0  0  3  0  0  0  0  0  0
  179.3600  175.3130  136.5690 O   0  0  0  0  0  0  0  0  0  0  0  0
  180.3880  176.6240  139.2200 C   0  0  0  0  0  2  0  0  0  0  0  0
  185.4740  178.7990  141.1160 C   0  0  0  0  0  2  0  0  0  0  0  0
  183.4650  179.8730  139.3740 C   0  0  0  0  0  1  0  0  0  0  0  0
  188.4520  178.2140  139.7020 C   0  0  0  0  0  2  0  0  0  0  0  0
  186.0990  178.3370  138.6480 C   0  0  2  0  0  3  0  0  0  0  0  0
  181.5560  176.9600  134.5940 C   0  0  0  0  0  2  0  0  0  0  0  0
  187.9510  178.2900  141.1370 C   0  0  0  0  0  2  0  0  0  0  0  0
  187.5840  175.2930  135.7330 S   0  0  0  0  0  0  0  0  0  0  0  0
  185.9810  175.1660  134.9000 C   0  0  2  0  0  3  0  0  0  0  0  0
  182.4910  175.3830  138.4120 C   0  0  0  0  0  2  0  0  0  0  0  0
  185.0750  176.2940  135.4270 C   0  0  2  0  0  0  0  0  0  0  0  0
  180.9620  175.5230  138.3200 C   0  0  2  0  0  3  0  0  0  0  0  0
  183.5950  175.9200  135.2190 C   0  0  0  0  0  2  0  0  0  0  0  0
  182.7140  177.5010  139.7920 C   0  0  1  0  0  3  0  0  0  0  0  0
  180.7240  178.8310  140.0530 O   0  0  0  0  0  1  0  0  0  0  0  0
  187.6940  176.4960  138.1610 C   0  0  0  0  0  3  0  0  0  0  0  0
  185.4050  177.5320  134.5940 C   0  0  0  0  0  1  0  0  0  0  0  0
  185.4190  176.5010  136.9250 C   0  0  2  0  0  3  0  0  0  0  0  0
  185.4410  173.7680  135.0600 C   0  0  0  0  0  0  0  0  0  0  0  0
  184.3140  173.4530  134.5940 O   0  0  0  0  0  0  0  0  0  0  0  0
  186.1900  172.8220  135.7480 O   0  0  0  0  0  1  0  0  0  0  0  0
  1  8  1  1  0  0  0
  1 18  1  0  0  0  0
  2 29  1  6  0  0  0
  3 27  1  0  0  0  0
  3 28  1  1  0  0  0
  4 17  1  0  0  0  0
  6 10  1  0  0  0  0
  7 16  1  1  0  0  0
  7  9  1  0  0  0  0
  7 27  1  0  0  0  0
  8  7  1  0  0  0  0
  9 15  1  1  0  0  0
 10 25  1  0  0  0  0
 12 19  1  6  0  0  0
 12  6  1  0  0  0  0
 13 10  2  0  0  0  0
 14  3  1  0  0  0  0
 15 11  1  0  0  0  0
 17 20  1  0  0  0  0
 18  4  1  1  0  0  0
 18  9  1  0  0  0  0
 19  6  1  0  0  0  0
 20 11  1  0  0  0  0
 21  2  1  0  0  0  0
 22 32  1  1  0  0  0
 22 24  1  0  0  0  0
 22 21  1  0  0  0  0
 23  5  1  0  0  0  0
 24 30  1  6  0  0  0
 24 31  1  0  0  0  0
 25 23  1  6  0  0  0
 25 14  1  0  0  0  0
 26 24  1  0  0  0  0
 26 12  1  0  0  0  0
 27  5  1  6  0  0  0
 29  4  2  0  0  0  0
 31  2  1  0  0  0  0
 31  1  1  0  0  0  0
 32 34  1  0  0  0  0
 33 32  2  0  0  0  0
M  END
>  <MODEL>
4

>  <REMARK>
 VINA RESULT:      -4.5      2.941      5.799
  Name = 
  1 active torsions:
  status: ('A' for Active; 'I' for Inactive)
    1  A    between atoms: C_3  and  C_25
                            x       y       z     vdW  Elec       q    Type
                         _______ _______ _______ _____ _____    ______ ____

>  <TORSDO>
F 1

$$$$
=
 OpenBabel10262423383D

 34 40  0  0  1  0  0  0  0  0999 V2000
  183.8800  175.6070  136.1860 C   0  0  1  0  0  3  0  0  0  0  0  0
  184.0350  176.8220  138.5210 C   0  0  1  0  0  3  0  0  0  0  0  0
  185.8800  171.8120  135.4790 C   0  0  2  0  0  3  0  0  0  0  0  0
  181.8660  175.8430  137.7660 C   0  0  0  0  0  0  0  0  0  0  0  0
  185.3890  172.6560  137.8630 C   0  0  0  0  0  2  0  0  0  0  0  0
  188.1920  174.5790  135.4960 N   0  0  0  0  0  0  0  0  0  0  0  0
  183.8530  173.3290  135.9140 C   0  0  1  0  0  0  0  0  0  0  0  0
  184.5770  174.5110  135.6280 O   0  0  0  0  0  0  0  0  0  0  0  0
  182.7610  173.6750  136.9280 C   0  0  2  0  0  3  0  0  0  0  0  0
  188.6700  173.3910  136.1260 C   0  0  0  0  0  0  0  0  0  0  0  0
  180.1680  173.4060  137.0030 C   0  0  0  0  0  2  0  0  0  0  0  0
  187.1740  175.6490  135.2660 C   0  0  2  0  0  3  0  0  0  0  0  0
  189.8520  173.0110  135.9150 O   0  0  0  0  0  0  0  0  0  0  0  0
  187.1800  171.3970  136.1610 C   0  0  0  0  0  2  0  0  0  0  0  0
  181.5370  172.7330  136.9060 C   0  0  0  0  0  2  0  0  0  0  0  0
  183.2370  172.8340  134.6000 C   0  0  0  0  0  1  0  0  0  0  0  0
  180.3950  175.6870  137.9940 C   0  0  0  0  0  2  0  0  0  0  0  0
  182.5070  175.1150  136.6220 C   0  0  2  0  0  3  0  0  0  0  0  0
  188.3780  175.7580  134.6030 C   0  0  0  0  0  2  0  0  0  0  0  0
  180.0290  174.2360  138.2720 C   0  0  0  0  0  2  0  0  0  0  0  0
  184.4150  178.5850  138.6910 S   0  0  0  0  0  0  0  0  0  0  0  0
  186.0160  178.3050  137.8950 C   0  0  2  0  0  3  0  0  0  0  0  0
  186.7120  173.4010  137.7030 C   0  0  0  0  0  2  0  0  0  0  0  0
  185.8250  177.2480  136.7900 C   0  0  2  0  0  0  0  0  0  0  0  0
  187.7700  172.5510  136.9800 C   0  0  2  0  0  3  0  0  0  0  0  0
  187.1700  176.5630  136.4800 C   0  0  0  0  0  2  0  0  0  0  0  0
  184.8010  172.2530  136.4930 C   0  0  1  0  0  3  0  0  0  0  0  0
  185.4020  170.7460  134.7160 O   0  0  0  0  0  1  0  0  0  0  0  0
  182.5580  176.6100  138.6040 C   0  0  0  0  0  3  0  0  0  0  0  0
  185.3460  178.0050  135.5520 C   0  0  0  0  0  1  0  0  0  0  0  0
  184.7600  176.2400  137.2950 C   0  0  2  0  0  3  0  0  0  0  0  0
  187.0470  177.9730  138.9420 C   0  0  0  0  0  0  0  0  0  0  0  0
  187.0680  178.5830  140.0450 O   0  0  0  0  0  1  0  0  0  0  0  0
  187.9980  176.9960  138.6790 O   0  0  0  0  0  0  0  0  0  0  0  0
  1  8  1  1  0  0  0
  1 18  1  0  0  0  0
  1 31  1  0  0  0  0
  2 29  1  6  0  0  0
  2 21  1  0  0  0  0
  3 28  1  1  0  0  0
  3 14  1  0  0  0  0
  3 27  1  0  0  0  0
  4 17  1  0  0  0  0
  4 29  2  0  0  0  0
  6 10  1  0  0  0  0
  7 16  1  6  0  0  0
  7 27  1  0  0  0  0
  7  9  1  0  0  0  0
  8  7  1  0  0  0  0
  9 15  1  6  0  0  0
 10 25  1  0  0  0  0
 11 20  1  0  0  0  0
 12 19  1  6  0  0  0
 12  6  1  0  0  0  0
 12 26  1  0  0  0  0
 13 10  2  0  0  0  0
 15 11  1  0  0  0  0
 17 20  1  0  0  0  0
 18  9  1  0  0  0  0
 18  4  1  1  0  0  0
 19  6  1  0  0  0  0
 22 21  1  0  0  0  0
 22 32  1  1  0  0  0
 23  5  1  0  0  0  0
 24 30  1  6  0  0  0
 24 31  1  0  0  0  0
 24 22  1  0  0  0  0
 25 14  1  6  0  0  0
 25 23  1  0  0  0  0
 26 24  1  0  0  0  0
 27  5  1  1  0  0  0
 31  2  1  0  0  0  0
 32 33  1  0  0  0  0
 34 32  2  0  0  0  0
M  END
>  <MODEL>
5

>  <REMARK>
 VINA RESULT:      -4.4      2.092      3.256
  Name = 
  1 active torsions:
  status: ('A' for Active; 'I' for Inactive)
    1  A    between atoms: C_3  and  C_25
                            x       y       z     vdW  Elec       q    Type
                         _______ _______ _______ _____ _____    ______ ____

>  <TORSDO>
F 1

$$$$
=
 OpenBabel10262423383D

 34 40  0  0  1  0  0  0  0  0999 V2000
  183.9800  175.4420  138.0520 C   0  0  1  0  0  3  0  0  0  0  0  0
  183.3750  177.8770  137.2420 C   0  0  1  0  0  3  0  0  0  0  0  0
  183.0970  171.9610  135.6020 C   0  0  2  0  0  3  0  0  0  0  0  0
  185.7660  177.1760  137.4110 C   0  0  0  0  0  0  0  0  0  0  0  0
  183.2090  174.3290  134.5940 C   0  0  0  0  0  2  0  0  0  0  0  0
  180.1390  173.2960  137.1750 N   0  0  0  0  0  0  0  0  0  0  0  0
  184.6220  173.7370  136.6580 C   0  0  1  0  0  0  0  0  0  0  0  0
  183.6300  174.1580  137.5760 O   0  0  0  0  0  0  0  0  0  0  0  0
  185.5240  174.9350  136.3530 C   0  0  2  0  0  3  0  0  0  0  0  0
  179.9560  172.8460  135.8340 C   0  0  0  0  0  0  0  0  0  0  0  0
  188.0880  175.3930  136.4990 C   0  0  0  0  0  2  0  0  0  0  0  0
  180.8500  174.0740  138.2350 C   0  0  2  0  0  3  0  0  0  0  0  0
  178.9310  172.1760  135.5400 O   0  0  0  0  0  0  0  0  0  0  0  0
  181.9150  171.8780  134.6400 C   0  0  0  0  0  2  0  0  0  0  0  0
  186.9530  174.5670  135.8930 C   0  0  0  0  0  2  0  0  0  0  0  0
  185.4210  172.6120  137.3260 C   0  0  0  0  0  1  0  0  0  0  0  0
  187.2090  177.5650  137.3630 C   0  0  0  0  0  2  0  0  0  0  0  0
  185.4070  175.7340  137.6090 C   0  0  2  0  0  3  0  0  0  0  0  0
  179.7000  173.4050  138.5960 C   0  0  0  0  0  2  0  0  0  0  0  0
  187.9290  176.8790  136.2100 C   0  0  0  0  0  2  0  0  0  0  0  0
  182.5340  179.0870  138.2960 S   0  0  0  0  0  0  0  0  0  0  0  0
  181.1130  177.9730  138.4190 C   0  0  2  0  0  3  0  0  0  0  0  0
  181.7470  174.4150  135.0280 C   0  0  0  0  0  2  0  0  0  0  0  0
  181.6390  176.5270  138.4840 C   0  0  2  0  0  0  0  0  0  0  0  0
  180.9950  173.0960  134.7840 C   0  0  2  0  0  3  0  0  0  0  0  0
  180.5430  175.5470  138.0220 C   0  0  0  0  0  2  0  0  0  0  0  0
  183.9610  173.2200  135.3600 C   0  0  1  0  0  3  0  0  0  0  0  0
  183.8820  170.8160  135.4640 O   0  0  0  0  0  1  0  0  0  0  0  0
  184.8490  178.1280  137.2560 C   0  0  0  0  0  3  0  0  0  0  0  0
  181.9720  176.2580  139.9520 C   0  0  0  0  0  1  0  0  0  0  0  0
  182.9020  176.4540  137.5860 C   0  0  2  0  0  3  0  0  0  0  0  0
  180.1470  178.2650  137.3000 C   0  0  0  0  0  0  0  0  0  0  0  0
  178.9370  178.5230  137.5410 O   0  0  0  0  0  1  0  0  0  0  0  0
  180.5940  178.2310  135.9860 O   0  0  0  0  0  0  0  0  0  0  0  0
  1  8  1  6  0  0  0
  2 29  1  1  0  0  0
  2 31  1  0  0  0  0
  2 21  1  0  0  0  0
  3 28  1  6  0  0  0
  5 23  1  0  0  0  0
  6 12  1  0  0  0  0
  6 19  1  0  0  0  0
  7 16  1  1  0  0  0
  7  8  1  0  0  0  0
  9 15  1  1  0  0  0
  9  7  1  0  0  0  0
  9 18  1  0  0  0  0
 10  6  1  0  0  0  0
 12 26  1  6  0  0  0
 12 19  1  0  0  0  0
 13 10  2  0  0  0  0
 14  3  1  0  0  0  0
 15 11  1  0  0  0  0
 17  4  1  0  0  0  0
 18  4  1  6  0  0  0
 18  1  1  0  0  0  0
 20 11  1  0  0  0  0
 20 17  1  0  0  0  0
 21 22  1  0  0  0  0
 22 32  1  6  0  0  0
 22 24  1  0  0  0  0
 24 30  1  1  0  0  0
 25 14  1  1  0  0  0
 25 23  1  0  0  0  0
 25 10  1  0  0  0  0
 26 24  1  0  0  0  0
 27  5  1  1  0  0  0
 27  3  1  0  0  0  0
 27  7  1  0  0  0  0
 29  4  2  0  0  0  0
 31  1  1  0  0  0  0
 31 24  1  0  0  0  0
 32 33  1  0  0  0  0
 34 32  2  0  0  0  0
M  END
>  <MODEL>
6

>  <REMARK>
 VINA RESULT:      -4.3      3.440      6.619
  Name = 
  1 active torsions:
  status: ('A' for Active; 'I' for Inactive)
    1  A    between atoms: C_3  and  C_25
                            x       y       z     vdW  Elec       q    Type
                         _______ _______ _______ _____ _____    ______ ____

>  <TORSDO>
F 1

$$$$
=
 OpenBabel10262423383D

 34 40  0  0  1  0  0  0  0  0999 V2000
  184.2650  176.9850  136.1010 C   0  0  1  0  0  3  0  0  0  0  0  0
  185.0400  178.0250  138.3950 C   0  0  1  0  0  3  0  0  0  0  0  0
  183.9250  172.6830  135.5720 C   0  0  2  0  0  3  0  0  0  0  0  0
  182.6850  178.3270  137.6210 C   0  0  0  0  0  0  0  0  0  0  0  0
  183.9560  173.7570  137.9140 C   0  0  0  0  0  2  0  0  0  0  0  0
  187.3590  173.7830  135.5530 N   0  0  0  0  0  0  0  0  0  0  0  0
  183.0240  175.0640  135.9050 C   0  0  1  0  0  0  0  0  0  0  0  0
  184.2680  175.6640  135.5970 O   0  0  0  0  0  0  0  0  0  0  0  0
  182.2840  175.9840  136.8790 C   0  0  2  0  0  3  0  0  0  0  0  0
  187.1250  172.5520  136.2350 C   0  0  0  0  0  0  0  0  0  0  0  0
  179.9490  177.1460  136.8990 C   0  0  0  0  0  2  0  0  0  0  0  0
  187.0720  175.2200  135.2610 C   0  0  2  0  0  3  0  0  0  0  0  0
  187.9210  171.5900  136.0660 O   0  0  0  0  0  0  0  0  0  0  0  0
  184.8000  171.6660  136.3010 C   0  0  0  0  0  2  0  0  0  0  0  0
  180.7450  175.8420  136.8590 C   0  0  0  0  0  2  0  0  0  0  0  0
  182.2430  174.9210  134.5940 C   0  0  0  0  0  1  0  0  0  0  0  0
  181.3590  178.9910  137.8170 C   0  0  0  0  0  2  0  0  0  0  0  0
  182.8400  177.3220  136.5190 C   0  0  2  0  0  3  0  0  0  0  0  0
  188.1500  174.6420  134.6250 C   0  0  0  0  0  2  0  0  0  0  0  0
  180.2720  177.9740  138.1350 C   0  0  0  0  0  2  0  0  0  0  0  0
  186.3030  179.3180  138.5150 S   0  0  0  0  0  0  0  0  0  0  0  0
  187.5080  178.1920  137.7690 C   0  0  2  0  0  3  0  0  0  0  0  0
  185.4730  173.6730  137.7620 C   0  0  0  0  0  2  0  0  0  0  0  0
  186.7840  177.3560  136.6960 C   0  0  2  0  0  0  0  0  0  0  0  0
  185.9140  172.3590  137.0940 C   0  0  2  0  0  3  0  0  0  0  0  0
  187.5550  176.0450  136.4430 C   0  0  0  0  0  2  0  0  0  0  0  0
  183.2470  173.6740  136.5440 C   0  0  1  0  0  3  0  0  0  0  0  0
  182.9540  172.0060  134.8340 O   0  0  0  0  0  1  0  0  0  0  0  0
  183.6780  178.6400  138.4490 C   0  0  0  0  0  3  0  0  0  0  0  0
  186.7880  178.1990  135.4210 C   0  0  0  0  0  1  0  0  0  0  0  0
  185.3440  177.0950  137.2090 C   0  0  2  0  0  3  0  0  0  0  0  0
  188.1990  177.4050  138.8520 C   0  0  0  0  0  0  0  0  0  0  0  0
  187.9910  177.6590  140.0690 O   0  0  0  0  0  1  0  0  0  0  0  0
  189.0910  176.4000  138.5020 O   0  0  0  0  0  0  0  0  0  0  0  0
  1  8  1  1  0  0  0
  1 18  1  0  0  0  0
  1 31  1  0  0  0  0
  2 29  1  6  0  0  0
  2 21  1  0  0  0  0
  3 28  1  1  0  0  0
  3 14  1  0  0  0  0
  3 27  1  0  0  0  0
  4 17  1  0  0  0  0
  4 29  2  0  0  0  0
  6 10  1  0  0  0  0
  7 16  1  6  0  0  0
  7 27  1  0  0  0  0
  7  9  1  0  0  0  0
  8  7  1  0  0  0  0
  9 15  1  6  0  0  0
 10 25  1  0  0  0  0
 11 20  1  0  0  0  0
 12 19  1  6  0  0  0
 12  6  1  0  0  0  0
 12 26  1  0  0  0  0
 13 10  2  0  0  0  0
 15 11  1  0  0  0  0
 17 20  1  0  0  0  0
 18  9  1  0  0  0  0
 18  4  1  1  0  0  0
 19  6  1  0  0  0  0
 22 21  1  0  0  0  0
 22 32  1  1  0  0  0
 23  5  1  0  0  0  0
 24 30  1  6  0  0  0
 24 31  1  0  0  0  0
 24 22  1  0  0  0  0
 25 14  1  6  0  0  0
 25 23  1  0  0  0  0
 26 24  1  0  0  0  0
 27  5  1  1  0  0  0
 31  2  1  0  0  0  0
 32 33  1  0  0  0  0
 34 32  2  0  0  0  0
M  END
>  <MODEL>
7

>  <REMARK>
 VINA RESULT:      -3.6      1.572      2.125
  Name = 
  1 active torsions:
  status: ('A' for Active; 'I' for Inactive)
    1  A    between atoms: C_3  and  C_25
                            x       y       z     vdW  Elec       q    Type
                         _______ _______ _______ _____ _____    ______ ____

>  <TORSDO>
F 1

$$$$
=
 OpenBabel10262423383D

 34 40  0  0  1  0  0  0  0  0999 V2000
  182.0040  176.5140  138.9050 C   0  0  1  0  0  3  0  0  0  0  0  0
  180.0820  176.2010  137.1270 C   0  0  1  0  0  3  0  0  0  0  0  0
  186.0660  177.4770  137.6930 C   0  0  2  0  0  3  0  0  0  0  0  0
  180.0520  178.1690  138.6630 C   0  0  0  0  0  0  0  0  0  0  0  0
  184.0590  177.8750  136.1260 C   0  0  0  0  0  2  0  0  0  0  0  0
  185.2500  174.0210  137.0690 N   0  0  0  0  0  0  0  0  0  0  0  0
  183.7490  177.9860  138.6760 C   0  0  1  0  0  0  0  0  0  0  0  0
  183.4090  176.6170  138.7900 O   0  0  0  0  0  0  0  0  0  0  0  0
  182.4580  178.7780  138.4590 C   0  0  2  0  0  3  0  0  0  0  0  0
  186.0330  174.6470  136.0540 C   0  0  0  0  0  0  0  0  0  0  0  0
  181.3040  180.7830  139.6640 C   0  0  0  0  0  2  0  0  0  0  0  0
  184.0830  173.9540  138.0000 C   0  0  2  0  0  3  0  0  0  0  0  0
  187.0040  174.0240  135.5480 O   0  0  0  0  0  0  0  0  0  0  0  0
  186.6880  177.0280  136.3740 C   0  0  0  0  0  2  0  0  0  0  0  0
  182.5230  180.2560  138.9080 C   0  0  0  0  0  2  0  0  0  0  0  0
  184.4280  178.4040  139.9860 C   0  0  0  0  0  1  0  0  0  0  0  0
  179.3100  179.3560  139.1910 C   0  0  0  0  0  2  0  0  0  0  0  0
  181.4500  177.9130  139.1410 C   0  0  2  0  0  3  0  0  0  0  0  0
  184.9350  172.8700  137.9620 C   0  0  0  0  0  2  0  0  0  0  0  0
  180.0260  180.6550  138.8470 C   0  0  0  0  0  2  0  0  0  0  0  0
  178.9320  174.8010  137.1550 S   0  0  0  0  0  0  0  0  0  0  0  0
  180.3270  173.6670  136.9440 C   0  0  2  0  0  3  0  0  0  0  0  0
  184.2730  176.4140  135.7380 C   0  0  0  0  0  2  0  0  0  0  0  0
  181.5210  174.2190  137.7460 C   0  0  2  0  0  0  0  0  0  0  0  0
  185.7650  176.0580  135.6270 C   0  0  2  0  0  3  0  0  0  0  0  0
  182.8400  173.6610  137.1770 C   0  0  0  0  0  2  0  0  0  0  0  0
  184.7140  178.1970  137.4870 C   0  0  1  0  0  3  0  0  0  0  0  0
  186.9560  178.3240  138.3540 O   0  0  0  0  0  1  0  0  0  0  0  0
  179.4470  177.3930  137.7680 C   0  0  0  0  0  3  0  0  0  0  0  0
  181.3390  173.7240  139.1810 C   0  0  0  0  0  1  0  0  0  0  0  0
  181.4580  175.7670  137.6600 C   0  0  2  0  0  3  0  0  0  0  0  0
  180.5770  173.4440  135.4750 C   0  0  0  0  0  0  0  0  0  0  0  0
  180.4980  174.3970  134.6540 O   0  0  0  0  0  0  0  0  0  0  0  0
  180.8780  172.1670  135.0210 O   0  0  0  0  0  1  0  0  0  0  0  0
  1  8  1  6  0  0  0
  1 18  1  0  0  0  0
  2 21  1  0  0  0  0
  2 31  1  0  0  0  0
  2 29  1  1  0  0  0
  3 28  1  6  0  0  0
  4 17  1  0  0  0  0
  6 19  1  0  0  0  0
  6 12  1  0  0  0  0
  7  8  1  0  0  0  0
  7 16  1  1  0  0  0
  9  7  1  0  0  0  0
  9 15  1  1  0  0  0
  9 18  1  0  0  0  0
 10  6  1  0  0  0  0
 12 26  1  6  0  0  0
 13 10  2  0  0  0  0
 14  3  1  0  0  0  0
 15 11  1  0  0  0  0
 18  4  1  6  0  0  0
 19 12  1  0  0  0  0
 20 17  1  0  0  0  0
 20 11  1  0  0  0  0
 22 32  1  6  0  0  0
 22 21  1  0  0  0  0
 22 24  1  0  0  0  0
 23  5  1  0  0  0  0
 24 30  1  1  0  0  0
 25 23  1  1  0  0  0
 25 10  1  0  0  0  0
 25 14  1  0  0  0  0
 26 24  1  0  0  0  0
 27  5  1  6  0  0  0
 27  3  1  0  0  0  0
 27  7  1  0  0  0  0
 29  4  2  0  0  0  0
 31 24  1  0  0  0  0
 31  1  1  0  0  0  0
 33 32  2  0  0  0  0
 34 32  1  0  0  0  0
M  END
>  <MODEL>
8

>  <REMARK>
 VINA RESULT:      -3.2      3.169      6.425
  Name = 
  1 active torsions:
  status: ('A' for Active; 'I' for Inactive)
    1  A    between atoms: C_3  and  C_25
                            x       y       z     vdW  Elec       q    Type
                         _______ _______ _______ _____ _____    ______ ____

>  <TORSDO>
F 1

$$$$
=
 OpenBabel10262423383D

 34 40  0  0  1  0  0  0  0  0999 V2000
  183.8190  175.4900  137.9570 C   0  0  1  0  0  3  0  0  0  0  0  0
  186.1740  175.8360  136.8260 C   0  0  1  0  0  3  0  0  0  0  0  0
  180.1390  176.4570  135.8540 C   0  0  2  0  0  3  0  0  0  0  0  0
  185.3340  173.5290  137.2770 C   0  0  0  0  0  0  0  0  0  0  0  0
  182.3550  176.0800  134.5950 C   0  0  0  0  0  2  0  0  0  0  0  0
  181.8560  179.4110  137.0070 N   0  0  0  0  0  0  0  0  0  0  0  0
  181.9180  174.8800  136.8260 C   0  0  1  0  0  0  0  0  0  0  0  0
  182.5140  175.9030  137.6020 O   0  0  0  0  0  0  0  0  0  0  0  0
  183.0040  173.8660  136.4650 C   0  0  2  0  0  3  0  0  0  0  0  0
  181.2610  179.5260  135.7140 C   0  0  0  0  0  0  0  0  0  0  0  0
  183.2970  171.2920  136.7760 C   0  0  0  0  0  2  0  0  0  0  0  0
  182.7040  178.7230  138.0270 C   0  0  2  0  0  3  0  0  0  0  0  0
  180.6350  180.5760  135.4130 O   0  0  0  0  0  0  0  0  0  0  0  0
  180.0230  177.5640  134.8110 C   0  0  0  0  0  2  0  0  0  0  0  0
  182.4850  172.4390  136.1730 C   0  0  0  0  0  2  0  0  0  0  0  0
  180.8280  174.2260  137.6840 C   0  0  0  0  0  1  0  0  0  0  0  0
  185.6130  172.0590  137.3080 C   0  0  0  0  0  2  0  0  0  0  0  0
  183.9540  174.0150  137.6070 C   0  0  2  0  0  3  0  0  0  0  0  0
  182.1650  179.9470  138.3630 C   0  0  0  0  0  2  0  0  0  0  0  0
  184.7450  171.3100  136.3070 C   0  0  0  0  0  2  0  0  0  0  0  0
  187.5580  176.6560  137.6590 S   0  0  0  0  0  0  0  0  0  0  0  0
  186.5690  178.1670  137.7870 C   0  0  2  0  0  3  0  0  0  0  0  0
  182.5930  177.5590  134.8900 C   0  0  0  0  0  2  0  0  0  0  0  0
  185.1080  177.7640  138.0610 C   0  0  2  0  0  0  0  0  0  0  0  0
  181.3110  178.3930  134.7350 C   0  0  2  0  0  3  0  0  0  0  0  0
  184.1590  178.8960  137.6230 C   0  0  0  0  0  2  0  0  0  0  0  0
  181.2950  175.4800  135.5440 C   0  0  1  0  0  3  0  0  0  0  0  0
  178.9330  175.7570  135.9150 O   0  0  0  0  0  1  0  0  0  0  0  0
  186.3220  174.3530  136.9370 C   0  0  0  0  0  3  0  0  0  0  0  0
  184.9950  177.5670  139.5730 C   0  0  0  0  0  1  0  0  0  0  0  0
  184.8400  176.4460  137.2880 C   0  0  2  0  0  3  0  0  0  0  0  0
  186.7910  179.0180  136.5640 C   0  0  0  0  0  0  0  0  0  0  0  0
  187.0700  180.2430  136.6700 O   0  0  0  0  0  1  0  0  0  0  0  0
  186.6690  178.4470  135.3040 O   0  0  0  0  0  0  0  0  0  0  0  0
  1  8  1  6  0  0  0
  2 29  1  1  0  0  0
  2 31  1  0  0  0  0
  2 21  1  0  0  0  0
  3 28  1  6  0  0  0
  4 17  1  0  0  0  0
  5 23  1  0  0  0  0
  6 12  1  0  0  0  0
  6 19  1  0  0  0  0
  7  8  1  0  0  0  0
  7 16  1  1  0  0  0
  9 15  1  1  0  0  0
  9  7  1  0  0  0  0
  9 18  1  0  0  0  0
 10  6  1  0  0  0  0
 12 26  1  6  0  0  0
 12 19  1  0  0  0  0
 13 10  2  0  0  0  0
 14  3  1  0  0  0  0
 15 11  1  0  0  0  0
 18  4  1  6  0  0  0
 18  1  1  0  0  0  0
 20 11  1  0  0  0  0
 20 17  1  0  0  0  0
 21 22  1  0  0  0  0
 22 32  1  6  0  0  0
 22 24  1  0  0  0  0
 24 30  1  1  0  0  0
 25 14  1  1  0  0  0
 25 23  1  0  0  0  0
 25 10  1  0  0  0  0
 26 24  1  0  0  0  0
 27  5  1  1  0  0  0
 27  3  1  0  0  0  0
 27  7  1  0  0  0  0
 29  4  2  0  0  0  0
 31  1  1  0  0  0  0
 31 24  1  0  0  0  0
 32 33  1  0  0  0  0
 34 32  2  0  0  0  0
M  END
>  <MODEL>
9

>  <REMARK>
 VINA RESULT:      -3.1      3.295      6.233
  Name = 
  1 active torsions:
  status: ('A' for Active; 'I' for Inactive)
    1  A    between atoms: C_3  and  C_25
                            x       y       z     vdW  Elec       q    Type
                         _______ _______ _______ _____ _____    ______ ____

>  <TORSDO>
F 1

$$$$
