=
 OpenBabel10262421133D

 32 37  0  0  1  0  0  0  0  0999 V2000
  189.6120  177.0860  142.8330 C   0  0  1  0  0  3  0  0  0  0  0  0
  187.7590  177.6920  144.5610 C   0  0  0  0  0  0  0  0  0  0  0  0
  191.0950  177.4580  142.6880 C   0  0  0  0  0  2  0  0  0  0  0  0
  189.1280  177.0940  144.3180 C   0  0  2  0  0  3  0  0  0  0  0  0
  187.3510  177.9230  145.8780 C   0  0  0  0  0  0  0  0  0  0  0  0
  183.2480  178.7080  143.0540 C   0  0  0  0  0  3  0  0  0  0  0  0
  186.8510  177.9100  143.5100 C   0  0  0  0  0  0  0  0  0  0  0  0
  183.8080  179.0620  145.4760 C   0  0  0  0  0  2  0  0  0  0  0  0
  185.1730  178.5260  145.1480 C   0  0  0  0  0  0  0  0  0  0  0  0
  188.2990  177.7650  146.9360 N   0  0  0  0  0  0  0  0  0  0  0  0
  190.2110  177.5230  145.3450 C   0  0  2  0  0  3  0  0  0  0  0  0
  186.0810  178.3360  146.1410 N   0  0  0  0  0  0  0  0  0  0  0  0
  191.2750  176.4470  145.5900 C   0  0  0  0  0  2  0  0  0  0  0  0
  191.5720  175.5670  144.3720 C   0  0  0  0  0  2  0  0  0  0  0  0
  187.2650  177.6300  142.0980 C   0  0  0  0  0  2  0  0  0  0  0  0
  189.7040  178.0690  146.6890 C   0  0  0  0  0  2  0  0  0  0  0  0
  188.7430  177.9470  141.9020 C   0  0  2  0  0  3  0  0  0  0  0  0
  185.5410  178.3240  143.8060 C   0  0  0  0  0  0  0  0  0  0  0  0
  187.8580  177.5940  148.3100 C   0  0  0  0  0  1  0  0  0  0  0  0
  192.0480  176.3480  143.1460 C   0  0  0  0  0  2  0  0  0  0  0  0
  182.7680  178.5540  144.4720 C   0  0  0  0  0  2  0  0  0  0  0  0
  184.5380  178.5530  142.7450 C   0  0  0  0  0  3  0  0  0  0  0  0
  188.5960  178.0500  138.0990 C   0  0  0  0  0  0  0  0  0  0  0  0
  187.7640  178.4760  137.1190 F   0  0  0  0  0  0  0  0  0  0  0  0
  189.1150  177.7690  140.4560 C   0  0  0  0  0  0  0  0  0  0  0  0
  189.8110  177.4490  137.7590 C   0  0  0  0  0  3  0  0  0  0  0  0
  190.3330  177.1650  140.1040 C   0  0  0  0  0  3  0  0  0  0  0  0
  188.2450  178.2100  139.4450 C   0  0  0  0  0  0  0  0  0  0  0  0
  187.0330  178.8100  139.7740 O   0  0  0  0  0  1  0  0  0  0  0  0
  190.6780  177.0020  138.7600 C   0  0  0  0  0  0  0  0  0  0  0  0
  193.0910  176.9460  139.2590 C   0  0  0  0  0  1  0  0  0  0  0  0
  191.9810  176.3790  138.3950 C   0  0  0  0  0  2  0  0  0  0  0  0
  1  3  1  1  0  0  0
  1  4  1  0  0  0  0
  2  5  1  0  0  0  0
  3 20  1  0  0  0  0
  4  2  1  6  0  0  0
  4 11  1  0  0  0  0
  5 12  2  0  0  0  0
  5 10  1  0  0  0  0
  6 21  1  0  0  0  0
  7 18  1  0  0  0  0
  7  2  2  0  0  0  0
  9  8  1  0  0  0  0
  9 12  1  0  0  0  0
 10 19  1  0  0  0  0
 11 13  1  1  0  0  0
 11 16  1  0  0  0  0
 14 13  1  0  0  0  0
 15  7  1  0  0  0  0
 16 10  1  0  0  0  0
 17 25  1  6  0  0  0
 17 15  1  0  0  0  0
 17  1  1  0  0  0  0
 18  9  2  0  0  0  0
 20 14  1  0  0  0  0
 21  8  1  0  0  0  0
 22  6  2  0  0  0  0
 22 18  1  0  0  0  0
 23 28  1  0  0  0  0
 24 23  1  0  0  0  0
 26 23  2  0  0  0  0
 26 30  1  0  0  0  0
 27 25  1  0  0  0  0
 28 29  1  0  0  0  0
 28 25  2  0  0  0  0
 30 27  2  0  0  0  0
 32 30  1  0  0  0  0
 32 31  1  0  0  0  0
M  END
>  <MODEL>
1

>  <REMARK>
 VINA RESULT:     -11.5      0.000      0.000
  Name = 
  2 active torsions:
  status: ('A' for Active; 'I' for Inactive)
    1  A    between atoms: C_15  and  C_26
    2  A    between atoms: C_16  and  C_27
                            x       y       z     vdW  Elec       q    Type
                         _______ _______ _______ _____ _____    ______ ____

>  <TORSDO>
F 2

$$$$
=
 OpenBabel10262421133D

 32 37  0  0  1  0  0  0  0  0999 V2000
  189.0200  177.8830  142.9720 C   0  0  1  0  0  3  0  0  0  0  0  0
  187.9540  178.0410  140.6000 C   0  0  0  0  0  0  0  0  0  0  0  0
  189.9620  176.8760  143.6500 C   0  0  0  0  0  2  0  0  0  0  0  0
  189.2200  177.9510  141.4240 C   0  0  2  0  0  3  0  0  0  0  0  0
  188.0430  177.8970  139.2120 C   0  0  0  0  0  0  0  0  0  0  0  0
  183.3150  179.4120  140.0920 C   0  0  0  0  0  3  0  0  0  0  0  0
  186.7180  178.3820  141.1790 C   0  0  0  0  0  0  0  0  0  0  0  0
  184.5500  178.5940  138.0640 C   0  0  0  0  0  2  0  0  0  0  0  0
  185.7500  178.4590  138.9580 C   0  0  0  0  0  0  0  0  0  0  0  0
  189.2860  177.4850  138.6370 N   0  0  0  0  0  0  0  0  0  0  0  0
  190.2820  176.9630  140.8680 C   0  0  2  0  0  3  0  0  0  0  0  0
  186.9490  178.1010  138.4290 N   0  0  0  0  0  0  0  0  0  0  0  0
  191.7230  177.3870  141.1770 C   0  0  0  0  0  2  0  0  0  0  0  0
  191.8880  178.1440  142.4970 C   0  0  0  0  0  2  0  0  0  0  0  0
  186.6190  178.5770  142.6610 C   0  0  0  0  0  2  0  0  0  0  0  0
  190.1570  176.5850  139.3850 C   0  0  0  0  0  2  0  0  0  0  0  0
  187.5630  177.6270  143.3900 C   0  0  2  0  0  3  0  0  0  0  0  0
  185.6060  178.6010  140.3500 C   0  0  0  0  0  0  0  0  0  0  0  0
  189.5590  177.7020  137.2270 C   0  0  0  0  0  1  0  0  0  0  0  0
  191.4150  177.3590  143.7240 C   0  0  0  0  0  2  0  0  0  0  0  0
  183.5680  179.6280  138.6240 C   0  0  0  0  0  2  0  0  0  0  0  0
  184.2860  178.9760  140.8990 C   0  0  0  0  0  3  0  0  0  0  0  0
  185.9050  178.0840  146.7860 C   0  0  0  0  0  0  0  0  0  0  0  0
  184.6690  178.2870  147.3010 F   0  0  0  0  0  0  0  0  0  0  0  0
  187.3690  177.7560  144.8750 C   0  0  0  0  0  0  0  0  0  0  0  0
  187.0030  177.9850  147.6450 C   0  0  0  0  0  3  0  0  0  0  0  0
  188.4650  177.6590  145.7460 C   0  0  0  0  0  3  0  0  0  0  0  0
  186.0840  177.9710  145.4020 C   0  0  0  0  0  0  0  0  0  0  0  0
  184.9850  178.0710  144.5540 O   0  0  0  0  0  1  0  0  0  0  0  0
  188.2840  177.7770  147.1260 C   0  0  0  0  0  0  0  0  0  0  0  0
  190.5710  176.8900  147.3660 C   0  0  0  0  0  1  0  0  0  0  0  0
  189.4500  177.6530  148.0450 C   0  0  0  0  0  2  0  0  0  0  0  0
  1 17  1  0  0  0  0
  1  3  1  6  0  0  0
  2  7  1  0  0  0  0
  3 20  1  0  0  0  0
  4  2  1  6  0  0  0
  4  1  1  0  0  0  0
  5  2  2  0  0  0  0
  6 22  2  0  0  0  0
  7 15  1  0  0  0  0
  8 21  1  0  0  0  0
  8  9  1  0  0  0  0
  9 18  1  0  0  0  0
 10  5  1  0  0  0  0
 10 16  1  0  0  0  0
 11 16  1  6  0  0  0
 11 13  1  0  0  0  0
 11  4  1  0  0  0  0
 12  9  2  0  0  0  0
 12  5  1  0  0  0  0
 13 14  1  0  0  0  0
 14 20  1  0  0  0  0
 15 17  1  0  0  0  0
 17 25  1  1  0  0  0
 18 22  1  0  0  0  0
 18  7  2  0  0  0  0
 19 10  1  0  0  0  0
 21  6  1  0  0  0  0
 23 24  1  0  0  0  0
 23 26  1  0  0  0  0
 25 28  1  0  0  0  0
 25 27  2  0  0  0  0
 27 30  1  0  0  0  0
 28 23  2  0  0  0  0
 29 28  1  0  0  0  0
 30 26  2  0  0  0  0
 30 32  1  0  0  0  0
 31 32  1  0  0  0  0
M  END
>  <MODEL>
2

>  <REMARK>
 VINA RESULT:     -10.9      3.341      6.329
  Name = 
  2 active torsions:
  status: ('A' for Active; 'I' for Inactive)
    1  A    between atoms: C_15  and  C_26
    2  A    between atoms: C_16  and  C_27
                            x       y       z     vdW  Elec       q    Type
                         _______ _______ _______ _____ _____    ______ ____

>  <TORSDO>
F 2

$$$$
=
 OpenBabel10262421133D

 32 37  0  0  1  0  0  0  0  0999 V2000
  188.4800  178.2240  143.0680 C   0  0  1  0  0  3  0  0  0  0  0  0
  189.2960  177.8230  140.6270 C   0  0  0  0  0  0  0  0  0  0  0  0
  188.7260  177.5070  144.4040 C   0  0  0  0  0  2  0  0  0  0  0  0
  189.6730  178.0730  142.0710 C   0  0  2  0  0  3  0  0  0  0  0  0
  190.3020  177.4720  139.7210 C   0  0  0  0  0  0  0  0  0  0  0  0
  186.2080  178.3220  136.9020 C   0  0  0  0  0  3  0  0  0  0  0  0
  187.9910  178.0470  140.1540 C   0  0  0  0  0  0  0  0  0  0  0  0
  188.4980  177.3990  136.4430 C   0  0  0  0  0  2  0  0  0  0  0  0
  188.7790  177.6070  137.9030 C   0  0  0  0  0  0  0  0  0  0  0  0
  191.6110  177.1800  140.2170 N   0  0  0  0  0  0  0  0  0  0  0  0
  190.8420  177.1950  142.5950 C   0  0  2  0  0  3  0  0  0  0  0  0
  190.0240  177.3680  138.3930 N   0  0  0  0  0  0  0  0  0  0  0  0
  191.6900  177.8910  143.6660 C   0  0  0  0  0  2  0  0  0  0  0  0
  190.9100  178.8670  144.5500 C   0  0  0  0  0  2  0  0  0  0  0  0
  186.9140  178.4600  141.1090 C   0  0  0  0  0  2  0  0  0  0  0  0
  191.7570  176.5670  141.5330 C   0  0  0  0  0  2  0  0  0  0  0  0
  187.1270  177.8060  142.4700 C   0  0  2  0  0  3  0  0  0  0  0  0
  187.7300  177.9460  138.7770 C   0  0  0  0  0  0  0  0  0  0  0  0
  192.7630  177.2090  139.3330 C   0  0  0  0  0  1  0  0  0  0  0  0
  189.7410  178.2250  145.3010 C   0  0  0  0  0  2  0  0  0  0  0  0
  187.3850  178.3360  135.9630 C   0  0  0  0  0  2  0  0  0  0  0  0
  186.3830  178.1850  138.2190 C   0  0  0  0  0  3  0  0  0  0  0  0
  183.6130  178.5950  143.7070 C   0  0  0  0  0  0  0  0  0  0  0  0
  182.3620  178.7380  143.2080 F   0  0  0  0  0  0  0  0  0  0  0  0
  185.9780  178.1400  143.3810 C   0  0  0  0  0  0  0  0  0  0  0  0
  183.8320  178.7510  145.0780 C   0  0  0  0  0  3  0  0  0  0  0  0
  186.1870  178.3000  144.7590 C   0  0  0  0  0  3  0  0  0  0  0  0
  184.6830  178.2910  142.8560 C   0  0  0  0  0  0  0  0  0  0  0  0
  184.4560  178.1370  141.4920 O   0  0  0  0  0  1  0  0  0  0  0  0
  185.1190  178.6080  145.6050 C   0  0  0  0  0  0  0  0  0  0  0  0
  186.7510  178.3130  147.4280 C   0  0  0  0  0  1  0  0  0  0  0  0
  185.3460  178.7560  147.0700 C   0  0  0  0  0  2  0  0  0  0  0  0
  1  3  1  1  0  0  0
  3 20  1  0  0  0  0
  4  2  1  6  0  0  0
  4 11  1  0  0  0  0
  4  1  1  0  0  0  0
  5 10  1  0  0  0  0
  5  2  2  0  0  0  0
  6 22  2  0  0  0  0
  7  2  1  0  0  0  0
  7 15  1  0  0  0  0
  8  9  1  0  0  0  0
  9 12  2  0  0  0  0
  9 18  1  0  0  0  0
 10 16  1  0  0  0  0
 11 16  1  6  0  0  0
 11 13  1  0  0  0  0
 12  5  1  0  0  0  0
 13 14  1  0  0  0  0
 14 20  1  0  0  0  0
 15 17  1  0  0  0  0
 17  1  1  0  0  0  0
 17 25  1  1  0  0  0
 18  7  2  0  0  0  0
 19 10  1  0  0  0  0
 21  8  1  0  0  0  0
 21  6  1  0  0  0  0
 22 18  1  0  0  0  0
 23 26  1  0  0  0  0
 24 23  1  0  0  0  0
 25 27  2  0  0  0  0
 26 30  2  0  0  0  0
 27 30  1  0  0  0  0
 28 25  1  0  0  0  0
 28 23  2  0  0  0  0
 29 28  1  0  0  0  0
 30 32  1  0  0  0  0
 32 31  1  0  0  0  0
M  END
>  <MODEL>
3

>  <REMARK>
 VINA RESULT:     -10.6      2.818      6.609
  Name = 
  2 active torsions:
  status: ('A' for Active; 'I' for Inactive)
    1  A    between atoms: C_15  and  C_26
    2  A    between atoms: C_16  and  C_27
                            x       y       z     vdW  Elec       q    Type
                         _______ _______ _______ _____ _____    ______ ____

>  <TORSDO>
F 2

$$$$
=
 OpenBabel10262421133D

 32 37  0  0  1  0  0  0  0  0999 V2000
  184.5790  178.8410  141.9310 C   0  0  1  0  0  3  0  0  0  0  0  0
  187.0860  178.1380  141.8840 C   0  0  0  0  0  0  0  0  0  0  0  0
  183.3580  178.3760  142.7390 C   0  0  0  0  0  2  0  0  0  0  0  0
  185.9230  178.6540  142.7030 C   0  0  2  0  0  3  0  0  0  0  0  0
  188.2550  177.7510  142.5470 C   0  0  0  0  0  0  0  0  0  0  0  0
  189.4300  177.7160  137.6430 C   0  0  0  0  0  3  0  0  0  0  0  0
  187.0640  178.1490  140.4790 C   0  0  0  0  0  0  0  0  0  0  0  0
  190.6000  176.9680  139.7360 C   0  0  0  0  0  2  0  0  0  0  0  0
  189.3810  177.4360  140.4790 C   0  0  0  0  0  0  0  0  0  0  0  0
  188.2510  177.6760  143.9750 N   0  0  0  0  0  0  0  0  0  0  0  0
  185.7760  177.9940  144.1010 C   0  0  2  0  0  3  0  0  0  0  0  0
  189.3650  177.4060  141.8370 N   0  0  0  0  0  0  0  0  0  0  0  0
  185.1810  178.9360  145.1560 C   0  0  0  0  0  2  0  0  0  0  0  0
  184.1860  179.9570  144.5980 C   0  0  0  0  0  2  0  0  0  0  0  0
  185.8290  178.5990  139.7580 C   0  0  0  0  0  2  0  0  0  0  0  0
  187.0230  177.3000  144.6680 C   0  0  0  0  0  2  0  0  0  0  0  0
  184.5810  178.1970  140.5350 C   0  0  2  0  0  3  0  0  0  0  0  0
  188.2250  177.8030  139.7670 C   0  0  0  0  0  0  0  0  0  0  0  0
  189.4960  177.6790  144.7220 C   0  0  0  0  0  1  0  0  0  0  0  0
  182.9880  179.3280  143.8830 C   0  0  0  0  0  2  0  0  0  0  0  0
  190.7340  177.6990  138.3960 C   0  0  0  0  0  2  0  0  0  0  0  0
  188.2650  177.8110  138.2900 C   0  0  0  0  0  3  0  0  0  0  0  0
  181.3000  177.8880  138.6280 C   0  0  0  0  0  0  0  0  0  0  0  0
  180.4210  176.9270  138.2550 F   0  0  0  0  0  0  0  0  0  0  0  0
  183.3520  178.5540  139.7440 C   0  0  0  0  0  0  0  0  0  0  0  0
  181.0550  179.2190  138.2810 C   0  0  0  0  0  3  0  0  0  0  0  0
  183.0980  179.8890  139.3900 C   0  0  0  0  0  3  0  0  0  0  0  0
  182.4470  177.5520  139.3580 C   0  0  0  0  0  0  0  0  0  0  0  0
  182.6820  176.2230  139.6980 O   0  0  0  0  0  1  0  0  0  0  0  0
  181.9550  180.2200  138.6580 C   0  0  0  0  0  0  0  0  0  0  0  0
  180.7790  181.7120  137.0880 C   0  0  0  0  0  1  0  0  0  0  0  0
  181.6820  181.6410  138.3040 C   0  0  0  0  0  2  0  0  0  0  0  0
  1  4  1  0  0  0  0
  1  3  1  1  0  0  0
  2  5  1  0  0  0  0
  3 20  1  0  0  0  0
  4  2  1  6  0  0  0
  4 11  1  0  0  0  0
  5 10  1  0  0  0  0
  6 22  2  0  0  0  0
  6 21  1  0  0  0  0
  7  2  2  0  0  0  0
  8  9  1  0  0  0  0
  9 12  1  0  0  0  0
 10 16  1  0  0  0  0
 10 19  1  0  0  0  0
 11 16  1  1  0  0  0
 11 13  1  0  0  0  0
 12  5  2  0  0  0  0
 14 13  1  0  0  0  0
 15  7  1  0  0  0  0
 15 17  1  0  0  0  0
 17 25  1  6  0  0  0
 17  1  1  0  0  0  0
 18  9  2  0  0  0  0
 18  7  1  0  0  0  0
 20 14  1  0  0  0  0
 21  8  1  0  0  0  0
 22 18  1  0  0  0  0
 23 28  1  0  0  0  0
 24 23  1  0  0  0  0
 26 23  2  0  0  0  0
 26 30  1  0  0  0  0
 27 25  1  0  0  0  0
 28 29  1  0  0  0  0
 28 25  2  0  0  0  0
 30 27  2  0  0  0  0
 31 32  1  0  0  0  0
 32 30  1  0  0  0  0
M  END
>  <MODEL>
4

>  <REMARK>
 VINA RESULT:     -10.0      3.273      6.972
  Name = 
  2 active torsions:
  status: ('A' for Active; 'I' for Inactive)
    1  A    between atoms: C_15  and  C_26
    2  A    between atoms: C_16  and  C_27
                            x       y       z     vdW  Elec       q    Type
                         _______ _______ _______ _____ _____    ______ ____

>  <TORSDO>
F 2

$$$$
=
 OpenBabel10262421133D

 32 37  0  0  1  0  0  0  0  0999 V2000
  185.7440  178.4410  144.2450 C   0  0  1  0  0  3  0  0  0  0  0  0
  188.1520  177.8460  143.4500 C   0  0  0  0  0  0  0  0  0  0  0  0
  184.7980  177.8550  145.3040 C   0  0  0  0  0  2  0  0  0  0  0  0
  187.2510  178.2370  144.6010 C   0  0  2  0  0  3  0  0  0  0  0  0
  189.4630  177.4460  143.7280 C   0  0  0  0  0  0  0  0  0  0  0  0
  189.2500  177.9120  138.7110 C   0  0  0  0  0  3  0  0  0  0  0  0
  187.7450  177.9860  142.1110 C   0  0  0  0  0  0  0  0  0  0  0  0
  190.9570  177.0210  140.3230 C   0  0  0  0  0  2  0  0  0  0  0  0
  189.9830  177.3690  141.4120 C   0  0  0  0  0  0  0  0  0  0  0  0
  189.8510  177.2400  145.0890 N   0  0  0  0  0  0  0  0  0  0  0  0
  187.5010  177.4460  145.9130 C   0  0  2  0  0  3  0  0  0  0  0  0
  190.3400  177.2130  142.7130 N   0  0  0  0  0  0  0  0  0  0  0  0
  187.2060  178.2610  147.1780 C   0  0  0  0  0  2  0  0  0  0  0  0
  186.0830  179.2890  147.0160 C   0  0  0  0  0  2  0  0  0  0  0  0
  186.3550  178.4500  141.8010 C   0  0  0  0  0  2  0  0  0  0  0  0
  188.8650  176.7530  146.0480 C   0  0  0  0  0  2  0  0  0  0  0  0
  185.3720  177.9290  142.8430 C   0  0  2  0  0  3  0  0  0  0  0  0
  188.6710  177.7530  141.0800 C   0  0  0  0  0  0  0  0  0  0  0  0
  191.2530  177.2240  145.4670 C   0  0  0  0  0  1  0  0  0  0  0  0
  184.7430  178.6810  146.5930 C   0  0  0  0  0  2  0  0  0  0  0  0
  190.7100  177.8770  139.0770 C   0  0  0  0  0  2  0  0  0  0  0  0
  188.3050  177.9000  139.6560 C   0  0  0  0  0  3  0  0  0  0  0  0
  182.2810  178.6610  140.7450 C   0  0  0  0  0  0  0  0  0  0  0  0
  181.9070  178.6660  139.4430 F   0  0  0  0  0  0  0  0  0  0  0  0
  183.9690  178.3080  142.4560 C   0  0  0  0  0  0  0  0  0  0  0  0
  181.3520  179.0030  141.7310 C   0  0  0  0  0  3  0  0  0  0  0  0
  183.0290  178.6550  143.4390 C   0  0  0  0  0  3  0  0  0  0  0  0
  183.5900  178.3150  141.1030 C   0  0  0  0  0  0  0  0  0  0  0  0
  184.5070  177.9750  140.1140 O   0  0  0  0  0  1  0  0  0  0  0  0
  181.7260  179.0050  143.0780 C   0  0  0  0  0  0  0  0  0  0  0  0
  179.6890  178.2530  144.2460 C   0  0  0  0  0  1  0  0  0  0  0  0
  180.7290  179.3510  144.1290 C   0  0  0  0  0  2  0  0  0  0  0  0
  1  4  1  0  0  0  0
  1  3  1  1  0  0  0
  2  5  1  0  0  0  0
  3 20  1  0  0  0  0
  4  2  1  6  0  0  0
  4 11  1  0  0  0  0
  5 10  1  0  0  0  0
  6 21  1  0  0  0  0
  6 22  2  0  0  0  0
  7  2  2  0  0  0  0
  8  9  1  0  0  0  0
  9 12  1  0  0  0  0
 10 19  1  0  0  0  0
 10 16  1  0  0  0  0
 11 16  1  1  0  0  0
 11 13  1  0  0  0  0
 12  5  2  0  0  0  0
 14 13  1  0  0  0  0
 15  7  1  0  0  0  0
 15 17  1  0  0  0  0
 17 25  1  6  0  0  0
 17  1  1  0  0  0  0
 18  9  2  0  0  0  0
 18  7  1  0  0  0  0
 20 14  1  0  0  0  0
 21  8  1  0  0  0  0
 22 18  1  0  0  0  0
 23 28  2  0  0  0  0
 23 26  1  0  0  0  0
 24 23  1  0  0  0  0
 25 27  2  0  0  0  0
 26 30  2  0  0  0  0
 28 25  1  0  0  0  0
 29 28  1  0  0  0  0
 30 27  1  0  0  0  0
 30 32  1  0  0  0  0
 32 31  1  0  0  0  0
M  END
>  <MODEL>
5

>  <REMARK>
 VINA RESULT:      -9.9      2.031      6.620
  Name = 
  2 active torsions:
  status: ('A' for Active; 'I' for Inactive)
    1  A    between atoms: C_15  and  C_26
    2  A    between atoms: C_16  and  C_27
                            x       y       z     vdW  Elec       q    Type
                         _______ _______ _______ _____ _____    ______ ____

>  <TORSDO>
F 2

$$$$
=
 OpenBabel10262421133D

 32 37  0  0  1  0  0  0  0  0999 V2000
  187.2440  177.7870  144.0610 C   0  0  1  0  0  3  0  0  0  0  0  0
  187.2360  177.9880  141.4640 C   0  0  0  0  0  0  0  0  0  0  0  0
  186.7870  178.7100  145.2010 C   0  0  0  0  0  2  0  0  0  0  0  0
  186.4310  178.0020  142.7450 C   0  0  2  0  0  3  0  0  0  0  0  0
  186.6130  178.3780  140.2750 C   0  0  0  0  0  0  0  0  0  0  0  0
  191.0700  176.4730  138.8820 C   0  0  0  0  0  3  0  0  0  0  0  0
  188.5480  177.4840  141.4210 C   0  0  0  0  0  0  0  0  0  0  0  0
  189.2330  177.7010  137.6880 C   0  0  0  0  0  2  0  0  0  0  0  0
  188.5210  177.7430  139.0110 C   0  0  0  0  0  0  0  0  0  0  0  0
  185.3050  178.9520  140.3330 N   0  0  0  0  0  0  0  0  0  0  0  0
  185.3650  179.1290  142.8250 C   0  0  2  0  0  3  0  0  0  0  0  0
  187.2640  178.2530  139.0860 N   0  0  0  0  0  0  0  0  0  0  0  0
  184.1300  178.7380  143.6460 C   0  0  0  0  0  2  0  0  0  0  0  0
  184.4210  177.7720  144.7980 C   0  0  0  0  0  2  0  0  0  0  0  0
  189.2120  177.0270  142.6840 C   0  0  0  0  0  2  0  0  0  0  0  0
  184.9260  179.7530  141.4920 C   0  0  0  0  0  2  0  0  0  0  0  0
  188.7660  177.8850  143.8630 C   0  0  2  0  0  3  0  0  0  0  0  0
  189.1960  177.3520  140.1810 C   0  0  0  0  0  0  0  0  0  0  0  0
  184.4620  179.0000  139.1510 C   0  0  0  0  0  1  0  0  0  0  0  0
  185.4400  178.3020  145.8090 C   0  0  0  0  0  2  0  0  0  0  0  0
  190.2220  176.5320  137.6390 C   0  0  0  0  0  2  0  0  0  0  0  0
  190.5680  176.8140  140.0720 C   0  0  0  0  0  3  0  0  0  0  0  0
  191.4190  176.3780  146.1390 C   0  0  0  0  0  0  0  0  0  0  0  0
  192.5640  175.6610  146.0400 F   0  0  0  0  0  0  0  0  0  0  0  0
  189.5250  177.4880  145.0980 C   0  0  0  0  0  0  0  0  0  0  0  0
  190.9480  176.7550  147.4000 C   0  0  0  0  0  3  0  0  0  0  0  0
  189.0600  177.8610  146.3690 C   0  0  0  0  0  3  0  0  0  0  0  0
  190.7100  176.7410  144.9870 C   0  0  0  0  0  0  0  0  0  0  0  0
  191.1860  176.3610  143.7370 O   0  0  0  0  0  1  0  0  0  0  0  0
  189.7670  177.4930  147.5170 C   0  0  0  0  0  0  0  0  0  0  0  0
  187.8010  178.2530  148.7950 C   0  0  0  0  0  1  0  0  0  0  0  0
  189.2770  177.9100  148.8600 C   0  0  0  0  0  2  0  0  0  0  0  0
  1  3  1  1  0  0  0
  3 20  1  0  0  0  0
  4  2  1  6  0  0  0
  4 11  1  0  0  0  0
  4  1  1  0  0  0  0
  5 10  1  0  0  0  0
  5  2  2  0  0  0  0
  6 22  2  0  0  0  0
  7  2  1  0  0  0  0
  7 15  1  0  0  0  0
  8  9  1  0  0  0  0
  9 12  2  0  0  0  0
  9 18  1  0  0  0  0
 10 16  1  0  0  0  0
 11 16  1  6  0  0  0
 11 13  1  0  0  0  0
 12  5  1  0  0  0  0
 13 14  1  0  0  0  0
 14 20  1  0  0  0  0
 15 17  1  0  0  0  0
 17  1  1  0  0  0  0
 17 25  1  1  0  0  0
 18  7  2  0  0  0  0
 19 10  1  0  0  0  0
 21  8  1  0  0  0  0
 21  6  1  0  0  0  0
 22 18  1  0  0  0  0
 23 26  1  0  0  0  0
 24 23  1  0  0  0  0
 25 27  2  0  0  0  0
 26 30  2  0  0  0  0
 27 30  1  0  0  0  0
 28 25  1  0  0  0  0
 28 23  2  0  0  0  0
 29 28  1  0  0  0  0
 30 32  1  0  0  0  0
 31 32  1  0  0  0  0
M  END
>  <MODEL>
6

>  <REMARK>
 VINA RESULT:      -9.6      2.938      7.301
  Name = 
  2 active torsions:
  status: ('A' for Active; 'I' for Inactive)
    1  A    between atoms: C_15  and  C_26
    2  A    between atoms: C_16  and  C_27
                            x       y       z     vdW  Elec       q    Type
                         _______ _______ _______ _____ _____    ______ ____

>  <TORSDO>
F 2

$$$$
=
 OpenBabel10262421133D

 32 37  0  0  1  0  0  0  0  0999 V2000
  189.6280  177.1290  143.0820 C   0  0  1  0  0  3  0  0  0  0  0  0
  187.6690  177.7590  144.6790 C   0  0  0  0  0  0  0  0  0  0  0  0
  191.1100  177.5260  143.0070 C   0  0  0  0  0  2  0  0  0  0  0  0
  189.0600  177.1810  144.5360 C   0  0  2  0  0  3  0  0  0  0  0  0
  187.1820  178.0290  145.9620 C   0  0  0  0  0  0  0  0  0  0  0  0
  183.2330  178.6280  142.8830 C   0  0  0  0  0  3  0  0  0  0  0  0
  186.8180  177.9200  143.5720 C   0  0  0  0  0  0  0  0  0  0  0  0
  183.6480  179.0810  145.3180 C   0  0  0  0  0  2  0  0  0  0  0  0
  185.0380  178.5610  145.0880 C   0  0  0  0  0  0  0  0  0  0  0  0
  188.0720  177.9290  147.0770 N   0  0  0  0  0  0  0  0  0  0  0  0
  190.0750  177.6690  145.6060 C   0  0  2  0  0  3  0  0  0  0  0  0
  185.8920  178.4260  146.1370 N   0  0  0  0  0  0  0  0  0  0  0  0
  191.1430  176.6240  145.9500 C   0  0  0  0  0  2  0  0  0  0  0  0
  191.5240  175.7070  144.7850 C   0  0  0  0  0  2  0  0  0  0  0  0
  187.3170  177.5980  142.1960 C   0  0  0  0  0  2  0  0  0  0  0  0
  189.4830  178.2530  146.8980 C   0  0  0  0  0  2  0  0  0  0  0  0
  188.7980  177.9380  142.0720 C   0  0  2  0  0  3  0  0  0  0  0  0
  185.4860  178.3180  143.7770 C   0  0  0  0  0  0  0  0  0  0  0  0
  187.5560  177.7990  148.4280 C   0  0  0  0  0  1  0  0  0  0  0  0
  192.0560  176.4530  143.5580 C   0  0  0  0  0  2  0  0  0  0  0  0
  182.6760  178.5150  144.2780 C   0  0  0  0  0  2  0  0  0  0  0  0
  184.5410  178.4880  142.6540 C   0  0  0  0  0  3  0  0  0  0  0  0
  190.4460  176.3780  139.0150 C   0  0  0  0  0  0  0  0  0  0  0  0
  191.1890  175.2900  138.6970 F   0  0  0  0  0  0  0  0  0  0  0  0
  189.2550  177.7150  140.6560 C   0  0  0  0  0  0  0  0  0  0  0  0
  190.0980  177.2910  138.0160 C   0  0  0  0  0  3  0  0  0  0  0  0
  188.9120  178.6280  139.6470 C   0  0  0  0  0  3  0  0  0  0  0  0
  190.0280  176.5870  140.3350 C   0  0  0  0  0  0  0  0  0  0  0  0
  190.3800  175.6710  141.3220 O   0  0  0  0  0  1  0  0  0  0  0  0
  189.3340  178.4190  138.3320 C   0  0  0  0  0  0  0  0  0  0  0  0
  187.6660  178.9290  136.5900 C   0  0  0  0  0  1  0  0  0  0  0  0
  188.9480  179.3820  137.2630 C   0  0  0  0  0  2  0  0  0  0  0  0
  1  3  1  1  0  0  0
  1  4  1  0  0  0  0
  2  5  1  0  0  0  0
  3 20  1  0  0  0  0
  4  2  1  6  0  0  0
  4 11  1  0  0  0  0
  5 12  2  0  0  0  0
  5 10  1  0  0  0  0
  6 21  1  0  0  0  0
  7 18  1  0  0  0  0
  7  2  2  0  0  0  0
  9  8  1  0  0  0  0
  9 12  1  0  0  0  0
 10 19  1  0  0  0  0
 11 13  1  1  0  0  0
 11 16  1  0  0  0  0
 14 13  1  0  0  0  0
 15  7  1  0  0  0  0
 16 10  1  0  0  0  0
 17 25  1  6  0  0  0
 17 15  1  0  0  0  0
 17  1  1  0  0  0  0
 18  9  2  0  0  0  0
 20 14  1  0  0  0  0
 21  8  1  0  0  0  0
 22  6  2  0  0  0  0
 22 18  1  0  0  0  0
 23 28  1  0  0  0  0
 24 23  1  0  0  0  0
 26 30  1  0  0  0  0
 26 23  2  0  0  0  0
 27 25  1  0  0  0  0
 28 25  2  0  0  0  0
 28 29  1  0  0  0  0
 30 27  2  0  0  0  0
 31 32  1  0  0  0  0
 32 30  1  0  0  0  0
M  END
>  <MODEL>
7

>  <REMARK>
 VINA RESULT:      -9.6      1.394      2.029
  Name = 
  2 active torsions:
  status: ('A' for Active; 'I' for Inactive)
    1  A    between atoms: C_15  and  C_26
    2  A    between atoms: C_16  and  C_27
                            x       y       z     vdW  Elec       q    Type
                         _______ _______ _______ _____ _____    ______ ____

>  <TORSDO>
F 2

$$$$
=
 OpenBabel10262421133D

 32 37  0  0  1  0  0  0  0  0999 V2000
  187.5010  178.2520  141.0710 C   0  0  1  0  0  3  0  0  0  0  0  0
  184.9710  178.4020  140.4670 C   0  0  0  0  0  0  0  0  0  0  0  0
  188.6530  177.3470  140.6090 C   0  0  0  0  0  2  0  0  0  0  0  0
  186.4020  178.4390  139.9760 C   0  0  2  0  0  3  0  0  0  0  0  0
  183.9390  178.3540  139.5250 C   0  0  0  0  0  0  0  0  0  0  0  0
  181.6640  179.1460  143.9560 C   0  0  0  0  0  3  0  0  0  0  0  0
  184.6540  178.5340  141.8300 C   0  0  0  0  0  0  0  0  0  0  0  0
  180.8590  178.6280  141.6340 C   0  0  0  0  0  2  0  0  0  0  0  0
  182.3060  178.6080  141.2310 C   0  0  0  0  0  0  0  0  0  0  0  0
  184.2660  178.1530  138.1480 N   0  0  0  0  0  0  0  0  0  0  0  0
  186.6560  177.6430  138.6670 C   0  0  2  0  0  3  0  0  0  0  0  0
  182.6410  178.4520  139.9240 N   0  0  0  0  0  0  0  0  0  0  0  0
  187.7690  178.2430  137.8000 C   0  0  0  0  0  2  0  0  0  0  0  0
  188.8810  178.9350  138.5920 C   0  0  0  0  0  2  0  0  0  0  0  0
  185.7520  178.6250  142.8450 C   0  0  0  0  0  2  0  0  0  0  0  0
  185.4260  177.3400  137.7990 C   0  0  0  0  0  2  0  0  0  0  0  0
  186.9430  177.7730  142.4210 C   0  0  2  0  0  3  0  0  0  0  0  0
  183.3070  178.6460  142.2180 C   0  0  0  0  0  0  0  0  0  0  0  0
  183.3150  178.4900  137.1020 C   0  0  0  0  0  1  0  0  0  0  0  0
  189.5870  178.0210  139.5970 C   0  0  0  0  0  2  0  0  0  0  0  0
  180.6550  179.4820  142.8900 C   0  0  0  0  0  2  0  0  0  0  0  0
  182.9140  178.8010  143.6330 C   0  0  0  0  0  3  0  0  0  0  0  0
  188.6240  177.4310  145.8200 C   0  0  0  0  0  0  0  0  0  0  0  0
  188.3030  177.0810  147.0890 F   0  0  0  0  0  0  0  0  0  0  0  0
  187.9890  177.7850  143.5020 C   0  0  0  0  0  0  0  0  0  0  0  0
  189.9390  177.7960  145.5160 C   0  0  0  0  0  3  0  0  0  0  0  0
  189.3110  178.1520  143.2070 C   0  0  0  0  0  3  0  0  0  0  0  0
  187.6470  177.4250  144.8170 C   0  0  0  0  0  0  0  0  0  0  0  0
  186.3410  177.0600  145.1280 O   0  0  0  0  0  1  0  0  0  0  0  0
  190.2830  178.1610  144.2120 C   0  0  0  0  0  0  0  0  0  0  0  0
  192.1060  177.8960  142.5730 C   0  0  0  0  0  1  0  0  0  0  0  0
  191.6880  178.5310  143.8860 C   0  0  0  0  0  2  0  0  0  0  0  0
  1  3  1  6  0  0  0
  1 17  1  0  0  0  0
  2  7  1  0  0  0  0
  4  2  1  1  0  0  0
  4  1  1  0  0  0  0
  5 12  1  0  0  0  0
  5  2  2  0  0  0  0
  7 18  2  0  0  0  0
  7 15  1  0  0  0  0
  8 21  1  0  0  0  0
  9  8  1  0  0  0  0
  9 18  1  0  0  0  0
 10  5  1  0  0  0  0
 11 16  1  6  0  0  0
 11  4  1  0  0  0  0
 12  9  2  0  0  0  0
 13 14  1  0  0  0  0
 13 11  1  0  0  0  0
 14 20  1  0  0  0  0
 16 10  1  0  0  0  0
 17 15  1  0  0  0  0
 17 25  1  1  0  0  0
 18 22  1  0  0  0  0
 19 10  1  0  0  0  0
 20  3  1  0  0  0  0
 21  6  1  0  0  0  0
 22  6  2  0  0  0  0
 23 24  1  0  0  0  0
 25 28  1  0  0  0  0
 26 23  1  0  0  0  0
 27 25  2  0  0  0  0
 27 30  1  0  0  0  0
 28 29  1  0  0  0  0
 28 23  2  0  0  0  0
 30 26  2  0  0  0  0
 31 32  1  0  0  0  0
 32 30  1  0  0  0  0
M  END
>  <MODEL>
8

>  <REMARK>
 VINA RESULT:      -9.4      3.328      6.100
  Name = 
  2 active torsions:
  status: ('A' for Active; 'I' for Inactive)
    1  A    between atoms: C_15  and  C_26
    2  A    between atoms: C_16  and  C_27
                            x       y       z     vdW  Elec       q    Type
                         _______ _______ _______ _____ _____    ______ ____

>  <TORSDO>
F 2

$$$$
=
 OpenBabel10262421133D

 32 37  0  0  1  0  0  0  0  0999 V2000
  184.6460  178.8460  142.1430 C   0  0  1  0  0  3  0  0  0  0  0  0
  187.1220  178.1140  141.8010 C   0  0  0  0  0  0  0  0  0  0  0  0
  183.5150  178.3760  143.0710 C   0  0  0  0  0  2  0  0  0  0  0  0
  186.0640  178.6230  142.7560 C   0  0  2  0  0  3  0  0  0  0  0  0
  188.3510  177.6960  142.3200 C   0  0  0  0  0  0  0  0  0  0  0  0
  188.9740  177.7730  137.3160 C   0  0  0  0  0  3  0  0  0  0  0  0
  186.9440  178.1620  140.4070 C   0  0  0  0  0  0  0  0  0  0  0  0
  190.3570  176.9570  139.2470 C   0  0  0  0  0  2  0  0  0  0  0  0
  189.2360  177.4200  140.1330 C   0  0  0  0  0  0  0  0  0  0  0  0
  188.5040  177.5850  143.7370 N   0  0  0  0  0  0  0  0  0  0  0  0
  186.0630  177.9300  144.1460 C   0  0  2  0  0  3  0  0  0  0  0  0
  189.3700  177.3560  141.4830 N   0  0  0  0  0  0  0  0  0  0  0  0
  185.6030  178.8510  145.2820 C   0  0  0  0  0  2  0  0  0  0  0  0
  184.5680  179.8990  144.8630 C   0  0  0  0  0  2  0  0  0  0  0  0
  185.6440  178.6450  139.8390 C   0  0  0  0  0  2  0  0  0  0  0  0
  187.3550  177.2060  144.5530 C   0  0  0  0  0  2  0  0  0  0  0  0
  184.4830  178.2390  140.7400 C   0  0  2  0  0  3  0  0  0  0  0  0
  188.0130  177.8190  139.5630 C   0  0  0  0  0  0  0  0  0  0  0  0
  189.8240  177.5540  144.3410 C   0  0  0  0  0  1  0  0  0  0  0  0
  183.2890  179.3030  144.2710 C   0  0  0  0  0  2  0  0  0  0  0  0
  190.3530  177.7200  137.9190 C   0  0  0  0  0  2  0  0  0  0  0  0
  187.8900  177.8650  138.0910 C   0  0  0  0  0  3  0  0  0  0  0  0
  181.9020  180.1240  138.6710 C   0  0  0  0  0  0  0  0  0  0  0  0
  181.8320  181.2130  137.8690 F   0  0  0  0  0  0  0  0  0  0  0  0
  183.1800  178.6310  140.1000 C   0  0  0  0  0  0  0  0  0  0  0  0
  180.7550  179.3580  138.8960 C   0  0  0  0  0  3  0  0  0  0  0  0
  182.0220  177.8690  140.3210 C   0  0  0  0  0  3  0  0  0  0  0  0
  183.1150  179.7640  139.2720 C   0  0  0  0  0  0  0  0  0  0  0  0
  184.2520  180.5320  139.0420 O   0  0  0  0  0  1  0  0  0  0  0  0
  180.8120  178.2330  139.7250 C   0  0  0  0  0  0  0  0  0  0  0  0
  179.9750  175.9540  140.1510 C   0  0  0  0  0  1  0  0  0  0  0  0
  179.5930  177.4080  139.9470 C   0  0  0  0  0  2  0  0  0  0  0  0
  1  4  1  0  0  0  0
  1  3  1  1  0  0  0
  2  5  1  0  0  0  0
  3 20  1  0  0  0  0
  4  2  1  6  0  0  0
  4 11  1  0  0  0  0
  5 10  1  0  0  0  0
  6 21  1  0  0  0  0
  6 22  2  0  0  0  0
  7  2  2  0  0  0  0
  8  9  1  0  0  0  0
  9 12  1  0  0  0  0
 10 19  1  0  0  0  0
 10 16  1  0  0  0  0
 11 16  1  1  0  0  0
 11 13  1  0  0  0  0
 12  5  2  0  0  0  0
 14 13  1  0  0  0  0
 15  7  1  0  0  0  0
 15 17  1  0  0  0  0
 17 25  1  6  0  0  0
 17  1  1  0  0  0  0
 18  9  2  0  0  0  0
 18  7  1  0  0  0  0
 20 14  1  0  0  0  0
 21  8  1  0  0  0  0
 22 18  1  0  0  0  0
 23 26  2  0  0  0  0
 23 28  1  0  0  0  0
 24 23  1  0  0  0  0
 25 27  1  0  0  0  0
 26 30  1  0  0  0  0
 28 25  2  0  0  0  0
 29 28  1  0  0  0  0
 30 32  1  0  0  0  0
 30 27  2  0  0  0  0
 32 31  1  0  0  0  0
M  END
>  <MODEL>
9

>  <REMARK>
 VINA RESULT:      -9.4      2.899      6.975
  Name = 
  2 active torsions:
  status: ('A' for Active; 'I' for Inactive)
    1  A    between atoms: C_15  and  C_26
    2  A    between atoms: C_16  and  C_27
                            x       y       z     vdW  Elec       q    Type
                         _______ _______ _______ _____ _____    ______ ____

>  <TORSDO>
F 2

$$$$
