=
 OpenBabel10262419503D

 25 28  0  0  1  0  0  0  0  0999 V2000
  187.1520  177.8680  145.3490 C   0  0  0  0  0  0  0  0  0  0  0  0
  188.4290  177.4550  144.9290 C   0  0  0  0  0  0  0  0  0  0  0  0
  187.8680  177.7510  147.6650 C   0  0  0  0  0  3  0  0  0  0  0  0
  186.0230  178.1800  144.5670 C   0  0  0  0  0  0  0  0  0  0  0  0
  183.5970  178.8730  143.3630 C   0  0  0  0  0  3  0  0  0  0  0  0
  189.1010  177.3510  147.2480 N   0  0  0  0  0  0  0  0  0  0  0  0
  184.9220  178.5550  145.3350 C   0  0  0  0  0  0  0  0  0  0  0  0
  183.7020  178.9040  144.7610 C   0  0  0  0  0  3  0  0  0  0  0  0
  190.6890  176.7800  145.5280 C   0  0  0  0  0  0  0  0  0  0  0  0
  191.7510  176.4920  146.5320 C   0  0  0  0  0  1  0  0  0  0  0  0
  188.7630  177.2900  143.5820 C   0  0  0  0  0  3  0  0  0  0  0  0
  184.6990  178.4970  142.5720 C   0  0  0  0  0  3  0  0  0  0  0  0
  186.8930  178.0100  146.7090 C   0  0  0  0  0  0  0  0  0  0  0  0
  185.3050  178.5110  146.9750 S   0  0  0  0  0  0  0  0  0  0  0  0
  190.9730  176.6310  144.2060 N   0  0  0  0  0  0  0  0  0  0  0  0
  185.9190  178.1480  143.1720 C   0  0  0  0  0  3  0  0  0  0  0  0
  190.0510  176.8800  143.2360 C   0  0  0  0  0  0  0  0  0  0  0  0
  189.4070  177.1970  145.9250 C   0  0  0  0  0  0  0  0  0  0  0  0
  190.4080  176.6800  141.8060 C   0  0  0  0  0  2  0  0  0  0  0  0
  189.4220  177.4200  140.9170 C   0  0  0  0  0  2  0  0  0  0  0  0
  189.5040  176.9040  139.4890 C   0  0  2  0  0  3  0  0  0  0  0  0
  190.5180  175.9500  139.3920 O   0  0  0  0  0  1  0  0  0  0  0  0
  189.7600  178.0370  138.5010 C   0  0  0  0  0  2  0  0  0  0  0  0
  188.7730  179.0200  138.6110 O   0  0  0  0  0  0  0  0  0  0  0  0
  188.9210  179.7580  137.5320 O   0  0  0  0  0  1  0  0  0  0  0  0
  1 13  1  0  0  0  0
  2  1  2  0  0  0  0
  2 18  1  0  0  0  0
  4  7  1  0  0  0  0
  4  1  1  0  0  0  0
  5  8  1  0  0  0  0
  6  3  1  0  0  0  0
  7 14  1  0  0  0  0
  8  7  2  0  0  0  0
  9 18  1  0  0  0  0
  9 10  1  0  0  0  0
 11  2  1  0  0  0  0
 12 16  1  0  0  0  0
 12  5  2  0  0  0  0
 13 14  1  0  0  0  0
 13  3  2  0  0  0  0
 15  9  2  0  0  0  0
 16  4  2  0  0  0  0
 17 11  2  0  0  0  0
 17 15  1  0  0  0  0
 18  6  2  0  0  0  0
 19 17  1  0  0  0  0
 20 19  1  0  0  0  0
 21 22  1  1  0  0  0
 21 20  1  0  0  0  0
 23 24  1  0  0  0  0
 23 21  1  0  0  0  0
 25 24  1  0  0  0  0
M  END
>  <MODEL>
1

>  <REMARK>
 VINA RESULT:      -9.7      0.000      0.000
  Name = 
  5 active torsions:
  status: ('A' for Active; 'I' for Inactive)
    1  A    between atoms: C_2  and  O_7
    2  A    between atoms: C_2  and  C_21
    3  A    between atoms: C_6  and  C_15
    4  A    between atoms: C_6  and  C_23
    5  A    between atoms: C_15  and  C_21
                            x       y       z     vdW  Elec       q    Type
                         _______ _______ _______ _____ _____    ______ ____

>  <TORSDO>
F 5

$$$$
=
 OpenBabel10262419503D

 25 28  0  0  1  0  0  0  0  0999 V2000
  187.4020  177.8060  145.6850 C   0  0  0  0  0  0  0  0  0  0  0  0
  188.7180  177.3610  145.4650 C   0  0  0  0  0  0  0  0  0  0  0  0
  187.8090  177.8460  148.0770 C   0  0  0  0  0  3  0  0  0  0  0  0
  186.3890  178.0680  144.7420 C   0  0  0  0  0  0  0  0  0  0  0  0
  184.1490  178.6850  143.1870 C   0  0  0  0  0  3  0  0  0  0  0  0
  189.0810  177.4140  147.8540 N   0  0  0  0  0  0  0  0  0  0  0  0
  185.2020  178.4980  145.3330 C   0  0  0  0  0  0  0  0  0  0  0  0
  184.0720  178.8110  144.5820 C   0  0  0  0  0  3  0  0  0  0  0  0
  190.8720  176.7210  146.3980 C   0  0  0  0  0  0  0  0  0  0  0  0
  191.7910  176.4990  147.5500 C   0  0  0  0  0  1  0  0  0  0  0  0
  189.2230  177.1040  144.1870 C   0  0  0  0  0  3  0  0  0  0  0  0
  185.3400  178.2520  142.5750 C   0  0  0  0  0  3  0  0  0  0  0  0
  186.9700  178.0420  146.9870 C   0  0  0  0  0  0  0  0  0  0  0  0
  185.3680  178.5660  147.0090 S   0  0  0  0  0  0  0  0  0  0  0  0
  191.3240  176.4810  145.1380 N   0  0  0  0  0  0  0  0  0  0  0  0
  186.4670  177.9400  143.3510 C   0  0  0  0  0  3  0  0  0  0  0  0
  190.5400  176.6660  144.0410 C   0  0  0  0  0  0  0  0  0  0  0  0
  189.5550  177.1690  146.5950 C   0  0  0  0  0  0  0  0  0  0  0  0
  191.0770  176.3670  142.6860 C   0  0  0  0  0  2  0  0  0  0  0  0
  190.0300  176.6830  141.6320 C   0  0  0  0  0  2  0  0  0  0  0  0
  190.6970  177.0660  140.3200 C   0  0  2  0  0  3  0  0  0  0  0  0
  190.6760  175.9770  139.4480 O   0  0  0  0  0  1  0  0  0  0  0  0
  192.1330  177.5300  140.5390 C   0  0  0  0  0  2  0  0  0  0  0  0
  192.9400  177.1640  139.4590 O   0  0  0  0  0  0  0  0  0  0  0  0
  194.1260  176.9570  139.9890 O   0  0  0  0  0  1  0  0  0  0  0  0
  1 13  1  0  0  0  0
  2  1  2  0  0  0  0
  2 18  1  0  0  0  0
  4  7  1  0  0  0  0
  4  1  1  0  0  0  0
  5  8  1  0  0  0  0
  6  3  1  0  0  0  0
  7 14  1  0  0  0  0
  8  7  2  0  0  0  0
  9 18  1  0  0  0  0
  9 10  1  0  0  0  0
 11  2  1  0  0  0  0
 12  5  2  0  0  0  0
 12 16  1  0  0  0  0
 13 14  1  0  0  0  0
 13  3  2  0  0  0  0
 15  9  2  0  0  0  0
 16  4  2  0  0  0  0
 17 11  2  0  0  0  0
 17 15  1  0  0  0  0
 18  6  2  0  0  0  0
 19 17  1  0  0  0  0
 20 19  1  0  0  0  0
 21 22  1  6  0  0  0
 21 23  1  0  0  0  0
 21 20  1  0  0  0  0
 24 25  1  0  0  0  0
 24 23  1  0  0  0  0
M  END
>  <MODEL>
2

>  <REMARK>
 VINA RESULT:      -9.6      1.429      1.846
  Name = 
  5 active torsions:
  status: ('A' for Active; 'I' for Inactive)
    1  A    between atoms: C_2  and  O_7
    2  A    between atoms: C_2  and  C_21
    3  A    between atoms: C_6  and  C_15
    4  A    between atoms: C_6  and  C_23
    5  A    between atoms: C_15  and  C_21
                            x       y       z     vdW  Elec       q    Type
                         _______ _______ _______ _____ _____    ______ ____

>  <TORSDO>
F 5

$$$$
=
 OpenBabel10262419503D

 25 28  0  0  1  0  0  0  0  0999 V2000
  189.5350  177.4830  144.0050 C   0  0  0  0  0  0  0  0  0  0  0  0
  188.8870  177.7860  142.7940 C   0  0  0  0  0  0  0  0  0  0  0  0
  191.5730  176.9680  142.7910 C   0  0  0  0  0  3  0  0  0  0  0  0
  189.0240  177.5250  145.3160 C   0  0  0  0  0  0  0  0  0  0  0  0
  188.3730  177.4870  148.0340 C   0  0  0  0  0  3  0  0  0  0  0  0
  190.9350  177.2620  141.6230 N   0  0  0  0  0  0  0  0  0  0  0  0
  189.9670  177.1560  146.2740 C   0  0  0  0  0  0  0  0  0  0  0  0
  189.6680  177.1280  147.6340 C   0  0  0  0  0  3  0  0  0  0  0  0
  188.9980  177.9570  140.3700 C   0  0  0  0  0  0  0  0  0  0  0  0
  189.7300  177.8400  139.0770 C   0  0  0  0  0  1  0  0  0  0  0  0
  187.5510  178.1970  142.7370 C   0  0  0  0  0  3  0  0  0  0  0  0
  187.4100  177.8630  147.0800 C   0  0  0  0  0  3  0  0  0  0  0  0
  190.8680  177.0800  143.9830 C   0  0  0  0  0  0  0  0  0  0  0  0
  191.4340  176.7730  145.5400 S   0  0  0  0  0  0  0  0  0  0  0  0
  187.6970  178.3530  140.3570 N   0  0  0  0  0  0  0  0  0  0  0  0
  187.7310  177.8830  145.7140 C   0  0  0  0  0  3  0  0  0  0  0  0
  186.9710  178.4840  141.5010 C   0  0  0  0  0  0  0  0  0  0  0  0
  189.6280  177.6640  141.5900 C   0  0  0  0  0  0  0  0  0  0  0  0
  185.5440  178.8990  141.4300 C   0  0  0  0  0  2  0  0  0  0  0  0
  185.0300  179.2290  142.8200 C   0  0  0  0  0  2  0  0  0  0  0  0
  183.7290  178.4910  143.0950 C   0  0  2  0  0  3  0  0  0  0  0  0
  182.8350  178.7100  142.0470 O   0  0  0  0  0  1  0  0  0  0  0  0
  183.1040  178.9340  144.4140 C   0  0  0  0  0  2  0  0  0  0  0  0
  184.0700  179.4920  145.2550 O   0  0  0  0  0  0  0  0  0  0  0  0
  184.0840  178.7050  146.3090 O   0  0  0  0  0  1  0  0  0  0  0  0
  1  4  1  0  0  0  0
  2  1  1  0  0  0  0
  3 13  1  0  0  0  0
  4 16  2  0  0  0  0
  4  7  1  0  0  0  0
  6  3  2  0  0  0  0
  7  8  2  0  0  0  0
  8  5  1  0  0  0  0
  9 18  1  0  0  0  0
 10  9  1  0  0  0  0
 11  2  1  0  0  0  0
 12  5  2  0  0  0  0
 13  1  2  0  0  0  0
 13 14  1  0  0  0  0
 14  7  1  0  0  0  0
 15  9  2  0  0  0  0
 15 17  1  0  0  0  0
 16 12  1  0  0  0  0
 17 11  2  0  0  0  0
 18  6  1  0  0  0  0
 18  2  2  0  0  0  0
 19 17  1  0  0  0  0
 19 20  1  0  0  0  0
 20 21  1  0  0  0  0
 21 22  1  6  0  0  0
 21 23  1  0  0  0  0
 23 24  1  0  0  0  0
 24 25  1  0  0  0  0
M  END
>  <MODEL>
3

>  <REMARK>
 VINA RESULT:      -9.4      3.441      6.019
  Name = 
  5 active torsions:
  status: ('A' for Active; 'I' for Inactive)
    1  A    between atoms: C_2  and  O_7
    2  A    between atoms: C_2  and  C_21
    3  A    between atoms: C_6  and  C_15
    4  A    between atoms: C_6  and  C_23
    5  A    between atoms: C_15  and  C_21
                            x       y       z     vdW  Elec       q    Type
                         _______ _______ _______ _____ _____    ______ ____

>  <TORSDO>
F 5

$$$$
=
 OpenBabel10262419503D

 25 28  0  0  1  0  0  0  0  0999 V2000
  187.5210  177.8970  145.7740 C   0  0  0  0  0  0  0  0  0  0  0  0
  186.6950  178.1780  144.6710 C   0  0  0  0  0  0  0  0  0  0  0  0
  185.6980  178.4390  147.2820 C   0  0  0  0  0  3  0  0  0  0  0  0
  188.8640  177.4760  145.7890 C   0  0  0  0  0  0  0  0  0  0  0  0
  191.4980  176.6430  146.2170 C   0  0  0  0  0  3  0  0  0  0  0  0
  184.9070  178.7100  146.2070 N   0  0  0  0  0  0  0  0  0  0  0  0
  189.3580  177.2950  147.0790 C   0  0  0  0  0  0  0  0  0  0  0  0
  190.6660  176.8810  147.3210 C   0  0  0  0  0  3  0  0  0  0  0  0
  184.5210  178.8810  143.8340 C   0  0  0  0  0  0  0  0  0  0  0  0
  183.1140  179.3240  144.0440 C   0  0  0  0  0  1  0  0  0  0  0  0
  187.1390  178.0650  143.3500 C   0  0  0  0  0  3  0  0  0  0  0  0
  191.0150  176.8200  144.9070 C   0  0  0  0  0  3  0  0  0  0  0  0
  187.0080  178.0320  147.0620 C   0  0  0  0  0  0  0  0  0  0  0  0
  188.1690  177.6450  148.2210 S   0  0  0  0  0  0  0  0  0  0  0  0
  184.9930  178.7600  142.5640 N   0  0  0  0  0  0  0  0  0  0  0  0
  189.6930  177.2390  144.6870 C   0  0  0  0  0  3  0  0  0  0  0  0
  186.2660  178.3570  142.3020 C   0  0  0  0  0  0  0  0  0  0  0  0
  185.3620  178.5920  144.9230 C   0  0  0  0  0  0  0  0  0  0  0  0
  186.7380  178.2630  140.8940 C   0  0  0  0  0  2  0  0  0  0  0  0
  188.2320  178.5290  140.8290 C   0  0  0  0  0  2  0  0  0  0  0  0
  188.9300  177.4440  140.0250 C   0  0  2  0  0  3  0  0  0  0  0  0
  190.1480  177.1250  140.6250 O   0  0  0  0  0  1  0  0  0  0  0  0
  189.1600  177.8800  138.5810 C   0  0  0  0  0  2  0  0  0  0  0  0
  189.1180  179.2720  138.4740 O   0  0  0  0  0  0  0  0  0  0  0  0
  188.4500  179.4960  137.3630 O   0  0  0  0  0  1  0  0  0  0  0  0
  1  4  1  0  0  0  0
  1 13  2  0  0  0  0
  2 18  1  0  0  0  0
  2  1  1  0  0  0  0
  4  7  1  0  0  0  0
  5  8  1  0  0  0  0
  6  3  2  0  0  0  0
  7  8  2  0  0  0  0
  7 14  1  0  0  0  0
  9 10  1  0  0  0  0
  9 18  2  0  0  0  0
 11  2  2  0  0  0  0
 12  5  2  0  0  0  0
 13  3  1  0  0  0  0
 13 14  1  0  0  0  0
 15  9  1  0  0  0  0
 16 12  1  0  0  0  0
 16  4  2  0  0  0  0
 17 15  2  0  0  0  0
 17 11  1  0  0  0  0
 18  6  1  0  0  0  0
 19 17  1  0  0  0  0
 20 19  1  0  0  0  0
 21 22  1  1  0  0  0
 21 20  1  0  0  0  0
 23 21  1  0  0  0  0
 24 23  1  0  0  0  0
 25 24  1  0  0  0  0
M  END
>  <MODEL>
4

>  <REMARK>
 VINA RESULT:      -9.4      1.994      4.545
  Name = 
  5 active torsions:
  status: ('A' for Active; 'I' for Inactive)
    1  A    between atoms: C_2  and  O_7
    2  A    between atoms: C_2  and  C_21
    3  A    between atoms: C_6  and  C_15
    4  A    between atoms: C_6  and  C_23
    5  A    between atoms: C_15  and  C_21
                            x       y       z     vdW  Elec       q    Type
                         _______ _______ _______ _____ _____    ______ ____

>  <TORSDO>
F 5

$$$$
=
 OpenBabel10262419503D

 25 28  0  0  1  0  0  0  0  0999 V2000
  186.8930  178.0800  142.8500 C   0  0  0  0  0  0  0  0  0  0  0  0
  188.1930  177.6440  142.5350 C   0  0  0  0  0  0  0  0  0  0  0  0
  186.4760  178.5520  140.5070 C   0  0  0  0  0  3  0  0  0  0  0  0
  186.2630  178.1410  144.1080 C   0  0  0  0  0  0  0  0  0  0  0  0
  184.6930  178.4070  146.4060 C   0  0  0  0  0  3  0  0  0  0  0  0
  187.7370  178.1300  140.2120 N   0  0  0  0  0  0  0  0  0  0  0  0
  184.9600  178.6300  144.0340 C   0  0  0  0  0  0  0  0  0  0  0  0
  184.1570  178.7730  145.1630 C   0  0  0  0  0  3  0  0  0  0  0  0
  189.8930  177.2540  140.8390 C   0  0  0  0  0  0  0  0  0  0  0  0
  190.3690  177.2770  139.4270 C   0  0  0  0  0  1  0  0  0  0  0  0
  189.0890  177.1830  143.5040 C   0  0  0  0  0  3  0  0  0  0  0  0
  186.0070  177.9110  146.4990 C   0  0  0  0  0  3  0  0  0  0  0  0
  186.0570  178.5260  141.8310 C   0  0  0  0  0  0  0  0  0  0  0  0
  184.5560  178.9950  142.4400 S   0  0  0  0  0  0  0  0  0  0  0  0
  190.7350  176.8140  141.8120 N   0  0  0  0  0  0  0  0  0  0  0  0
  186.7990  177.7760  145.3480 C   0  0  0  0  0  3  0  0  0  0  0  0
  190.3630  176.7640  143.1200 C   0  0  0  0  0  0  0  0  0  0  0  0
  188.5970  177.6810  141.1750 C   0  0  0  0  0  0  0  0  0  0  0  0
  191.3310  176.2940  144.1480 C   0  0  0  0  0  2  0  0  0  0  0  0
  191.5100  177.3580  145.2170 C   0  0  0  0  0  2  0  0  0  0  0  0
  191.6070  176.7180  146.5920 C   0  0  2  0  0  3  0  0  0  0  0  0
  192.1690  175.4460  146.4800 O   0  0  0  0  0  1  0  0  0  0  0  0
  190.2400  176.6260  147.2620 C   0  0  0  0  0  2  0  0  0  0  0  0
  189.6060  177.8710  147.2620 O   0  0  0  0  0  0  0  0  0  0  0  0
  189.0220  177.9440  148.4380 O   0  0  0  0  0  1  0  0  0  0  0  0
  1  4  1  0  0  0  0
  2  1  1  0  0  0  0
  2 11  1  0  0  0  0
  3 13  1  0  0  0  0
  4 16  1  0  0  0  0
  5 12  1  0  0  0  0
  6  3  2  0  0  0  0
  6 18  1  0  0  0  0
  7  4  2  0  0  0  0
  7  8  1  0  0  0  0
  8  5  2  0  0  0  0
  9 18  1  0  0  0  0
  9 15  2  0  0  0  0
 10  9  1  0  0  0  0
 13 14  1  0  0  0  0
 13  1  2  0  0  0  0
 14  7  1  0  0  0  0
 15 17  1  0  0  0  0
 16 12  2  0  0  0  0
 17 11  2  0  0  0  0
 17 19  1  0  0  0  0
 18  2  2  0  0  0  0
 19 20  1  0  0  0  0
 20 21  1  0  0  0  0
 21 22  1  6  0  0  0
 21 23  1  0  0  0  0
 23 24  1  0  0  0  0
 24 25  1  0  0  0  0
M  END
>  <MODEL>
5

>  <REMARK>
 VINA RESULT:      -9.1      3.535      5.371
  Name = 
  5 active torsions:
  status: ('A' for Active; 'I' for Inactive)
    1  A    between atoms: C_2  and  O_7
    2  A    between atoms: C_2  and  C_21
    3  A    between atoms: C_6  and  C_15
    4  A    between atoms: C_6  and  C_23
    5  A    between atoms: C_15  and  C_21
                            x       y       z     vdW  Elec       q    Type
                         _______ _______ _______ _____ _____    ______ ____

>  <TORSDO>
F 5

$$$$
=
 OpenBabel10262419503D

 25 28  0  0  1  0  0  0  0  0999 V2000
  189.2260  177.5670  143.9040 C   0  0  0  0  0  0  0  0  0  0  0  0
  188.4420  177.9150  142.7900 C   0  0  0  0  0  0  0  0  0  0  0  0
  191.1300  177.1790  142.4500 C   0  0  0  0  0  3  0  0  0  0  0  0
  188.8600  177.5220  145.2640 C   0  0  0  0  0  0  0  0  0  0  0  0
  188.5110  177.3180  148.0300 C   0  0  0  0  0  3  0  0  0  0  0  0
  190.3620  177.5160  141.3770 N   0  0  0  0  0  0  0  0  0  0  0  0
  189.9100  177.1300  146.0920 C   0  0  0  0  0  0  0  0  0  0  0  0
  189.7630  177.0200  147.4720 C   0  0  0  0  0  3  0  0  0  0  0  0
  188.2830  178.2200  140.3810 C   0  0  0  0  0  0  0  0  0  0  0  0
  188.8720  178.1950  139.0130 C   0  0  0  0  0  1  0  0  0  0  0  0
  187.0990  178.2890  142.9010 C   0  0  0  0  0  3  0  0  0  0  0  0
  187.4410  177.7170  147.2080 C   0  0  0  0  0  3  0  0  0  0  0  0
  190.5570  177.2050  143.7160 C   0  0  0  0  0  0  0  0  0  0  0  0
  191.2970  176.8310  145.1840 S   0  0  0  0  0  0  0  0  0  0  0  0
  186.9800  178.5770  140.5320 N   0  0  0  0  0  0  0  0  0  0  0  0
  187.6100  177.8200  145.8180 C   0  0  0  0  0  3  0  0  0  0  0  0
  186.3800  178.6250  141.7530 C   0  0  0  0  0  0  0  0  0  0  0  0
  189.0500  177.8800  141.5080 C   0  0  0  0  0  0  0  0  0  0  0  0
  184.9450  179.0010  141.8600 C   0  0  0  0  0  2  0  0  0  0  0  0
  184.3060  178.2820  143.0360 C   0  0  0  0  0  2  0  0  0  0  0  0
  183.5660  179.2710  143.9230 C   0  0  2  0  0  3  0  0  0  0  0  0
  184.0660  179.1980  145.2240 O   0  0  0  0  0  1  0  0  0  0  0  0
  182.0650  179.0020  143.9270 C   0  0  0  0  0  2  0  0  0  0  0  0
  181.5230  179.2150  142.6570 O   0  0  0  0  0  0  0  0  0  0  0  0
  180.6010  180.1340  142.8420 O   0  0  0  0  0  1  0  0  0  0  0  0
  1  4  1  0  0  0  0
  2 11  1  0  0  0  0
  2  1  1  0  0  0  0
  3 13  1  0  0  0  0
  4 16  2  0  0  0  0
  4  7  1  0  0  0  0
  6 18  1  0  0  0  0
  6  3  2  0  0  0  0
  7  8  2  0  0  0  0
  8  5  1  0  0  0  0
  9 15  2  0  0  0  0
  9 18  1  0  0  0  0
 10  9  1  0  0  0  0
 12  5  2  0  0  0  0
 13  1  2  0  0  0  0
 13 14  1  0  0  0  0
 14  7  1  0  0  0  0
 15 17  1  0  0  0  0
 16 12  1  0  0  0  0
 17 19  1  0  0  0  0
 17 11  2  0  0  0  0
 18  2  2  0  0  0  0
 19 20  1  0  0  0  0
 20 21  1  0  0  0  0
 21 23  1  0  0  0  0
 21 22  1  1  0  0  0
 24 25  1  0  0  0  0
 24 23  1  0  0  0  0
M  END
>  <MODEL>
6

>  <REMARK>
 VINA RESULT:      -9.0      3.717      6.230
  Name = 
  5 active torsions:
  status: ('A' for Active; 'I' for Inactive)
    1  A    between atoms: C_2  and  O_7
    2  A    between atoms: C_2  and  C_21
    3  A    between atoms: C_6  and  C_15
    4  A    between atoms: C_6  and  C_23
    5  A    between atoms: C_15  and  C_21
                            x       y       z     vdW  Elec       q    Type
                         _______ _______ _______ _____ _____    ______ ____

>  <TORSDO>
F 5

$$$$
=
 OpenBabel10262419503D

 25 28  0  0  1  0  0  0  0  0999 V2000
  189.2700  177.4230  144.2000 C   0  0  0  0  0  0  0  0  0  0  0  0
  188.3020  177.7780  145.1570 C   0  0  0  0  0  0  0  0  0  0  0  0
  190.7800  176.7400  145.9730 C   0  0  0  0  0  3  0  0  0  0  0  0
  189.1990  177.5090  142.7960 C   0  0  0  0  0  0  0  0  0  0  0  0
  189.4280  177.5270  140.0100 C   0  0  0  0  0  3  0  0  0  0  0  0
  189.8360  177.0880  146.8920 N   0  0  0  0  0  0  0  0  0  0  0  0
  190.3600  177.0610  142.1690 C   0  0  0  0  0  0  0  0  0  0  0  0
  190.5010  177.0600  140.7840 C   0  0  0  0  0  3  0  0  0  0  0  0
  187.6680  177.9470  147.4990 C   0  0  0  0  0  0  0  0  0  0  0  0
  187.9530  177.7800  148.9520 C   0  0  0  0  0  1  0  0  0  0  0  0
  187.0530  178.2990  144.8060 C   0  0  0  0  0  3  0  0  0  0  0  0
  188.2480  177.9810  140.6270 C   0  0  0  0  0  3  0  0  0  0  0  0
  190.4930  176.9090  144.6240 C   0  0  0  0  0  0  0  0  0  0  0  0
  191.4910  176.5560  143.3130 S   0  0  0  0  0  0  0  0  0  0  0  0
  186.4650  178.4520  147.1170 N   0  0  0  0  0  0  0  0  0  0  0  0
  188.1280  177.9750  142.0260 C   0  0  0  0  0  3  0  0  0  0  0  0
  186.1380  178.6280  145.8070 C   0  0  0  0  0  0  0  0  0  0  0  0
  188.6200  177.5950  146.5270 C   0  0  0  0  0  0  0  0  0  0  0  0
  184.8160  179.2050  145.4440 C   0  0  0  0  0  2  0  0  0  0  0  0
  184.0790  178.2650  144.5070 C   0  0  0  0  0  2  0  0  0  0  0  0
  183.6870  178.9880  143.2280 C   0  0  2  0  0  3  0  0  0  0  0  0
  182.3340  178.7760  142.9650 O   0  0  0  0  0  1  0  0  0  0  0  0
  184.5270  178.5210  142.0440 C   0  0  0  0  0  2  0  0  0  0  0  0
  184.0110  179.0210  140.8460 O   0  0  0  0  0  0  0  0  0  0  0  0
  185.0080  179.6950  140.3140 O   0  0  0  0  0  1  0  0  0  0  0  0
  1 13  1  0  0  0  0
  1  2  2  0  0  0  0
  2 18  1  0  0  0  0
  3  6  1  0  0  0  0
  4  1  1  0  0  0  0
  5 12  2  0  0  0  0
  5  8  1  0  0  0  0
  7  4  1  0  0  0  0
  7 14  1  0  0  0  0
  8  7  2  0  0  0  0
  9 10  1  0  0  0  0
 11  2  1  0  0  0  0
 11 17  2  0  0  0  0
 12 16  1  0  0  0  0
 13  3  2  0  0  0  0
 14 13  1  0  0  0  0
 15  9  2  0  0  0  0
 16  4  2  0  0  0  0
 17 15  1  0  0  0  0
 18  6  2  0  0  0  0
 18  9  1  0  0  0  0
 19 17  1  0  0  0  0
 20 19  1  0  0  0  0
 21 22  1  6  0  0  0
 21 20  1  0  0  0  0
 23 21  1  0  0  0  0
 24 23  1  0  0  0  0
 25 24  1  0  0  0  0
M  END
>  <MODEL>
7

>  <REMARK>
 VINA RESULT:      -8.6      2.731      5.321
  Name = 
  5 active torsions:
  status: ('A' for Active; 'I' for Inactive)
    1  A    between atoms: C_2  and  O_7
    2  A    between atoms: C_2  and  C_21
    3  A    between atoms: C_6  and  C_15
    4  A    between atoms: C_6  and  C_23
    5  A    between atoms: C_15  and  C_21
                            x       y       z     vdW  Elec       q    Type
                         _______ _______ _______ _____ _____    ______ ____

>  <TORSDO>
F 5

$$$$
=
 OpenBabel10262419503D

 25 28  0  0  1  0  0  0  0  0999 V2000
  186.1370  178.3930  142.0820 C   0  0  0  0  0  0  0  0  0  0  0  0
  187.5070  178.1130  142.2310 C   0  0  0  0  0  0  0  0  0  0  0  0
  186.4170  178.5040  139.6730 C   0  0  0  0  0  3  0  0  0  0  0  0
  185.1470  178.5190  143.0750 C   0  0  0  0  0  0  0  0  0  0  0  0
  182.9280  178.8390  144.7450 C   0  0  0  0  0  3  0  0  0  0  0  0
  187.7430  178.2340  139.8290 N   0  0  0  0  0  0  0  0  0  0  0  0
  183.8880  178.8010  142.5480 C   0  0  0  0  0  0  0  0  0  0  0  0
  182.7660  178.9660  143.3570 C   0  0  0  0  0  3  0  0  0  0  0  0
  189.6770  177.7650  141.1880 C   0  0  0  0  0  0  0  0  0  0  0  0
  190.5600  177.6810  139.9910 C   0  0  0  0  0  1  0  0  0  0  0  0
  188.1030  177.9110  143.4800 C   0  0  0  0  0  3  0  0  0  0  0  0
  184.1920  178.5540  145.2930 C   0  0  0  0  0  3  0  0  0  0  0  0
  185.6150  178.5820  140.8050 C   0  0  0  0  0  0  0  0  0  0  0  0
  183.9610  178.9020  140.8680 S   0  0  0  0  0  0  0  0  0  0  0  0
  190.2180  177.5760  142.4210 N   0  0  0  0  0  0  0  0  0  0  0  0
  185.3100  178.3920  144.4590 C   0  0  0  0  0  3  0  0  0  0  0  0
  189.4680  177.6360  143.5560 C   0  0  0  0  0  0  0  0  0  0  0  0
  188.3050  178.0390  141.0600 C   0  0  0  0  0  0  0  0  0  0  0  0
  190.1140  177.4420  144.8820 C   0  0  0  0  0  2  0  0  0  0  0  0
  189.0920  177.6320  145.9890 C   0  0  0  0  0  2  0  0  0  0  0  0
  189.6000  177.0280  147.2890 C   0  0  2  0  0  3  0  0  0  0  0  0
  189.6280  178.0080  148.2820 O   0  0  0  0  0  1  0  0  0  0  0  0
  190.9880  176.4210  147.1170 C   0  0  0  0  0  2  0  0  0  0  0  0
  191.8830  176.9670  148.0410 O   0  0  0  0  0  0  0  0  0  0  0  0
  192.8470  176.0770  148.1320 O   0  0  0  0  0  1  0  0  0  0  0  0
  1  2  1  0  0  0  0
  1  4  1  0  0  0  0
  2 11  1  0  0  0  0
  3  6  2  0  0  0  0
  3 13  1  0  0  0  0
  4 16  1  0  0  0  0
  5 12  1  0  0  0  0
  6 18  1  0  0  0  0
  7  4  2  0  0  0  0
  7  8  1  0  0  0  0
  8  5  2  0  0  0  0
  9 15  2  0  0  0  0
 10  9  1  0  0  0  0
 11 17  2  0  0  0  0
 13 14  1  0  0  0  0
 13  1  2  0  0  0  0
 14  7  1  0  0  0  0
 15 17  1  0  0  0  0
 16 12  2  0  0  0  0
 17 19  1  0  0  0  0
 18  9  1  0  0  0  0
 18  2  2  0  0  0  0
 19 20  1  0  0  0  0
 20 21  1  0  0  0  0
 21 22  1  1  0  0  0
 23 21  1  0  0  0  0
 23 24  1  0  0  0  0
 24 25  1  0  0  0  0
M  END
>  <MODEL>
8

>  <REMARK>
 VINA RESULT:      -8.6      3.952      5.830
  Name = 
  5 active torsions:
  status: ('A' for Active; 'I' for Inactive)
    1  A    between atoms: C_2  and  O_7
    2  A    between atoms: C_2  and  C_21
    3  A    between atoms: C_6  and  C_15
    4  A    between atoms: C_6  and  C_23
    5  A    between atoms: C_15  and  C_21
                            x       y       z     vdW  Elec       q    Type
                         _______ _______ _______ _____ _____    ______ ____

>  <TORSDO>
F 5

$$$$
=
 OpenBabel10262419503D

 25 28  0  0  1  0  0  0  0  0999 V2000
  189.4780  177.3670  144.6430 C   0  0  0  0  0  0  0  0  0  0  0  0
  189.2340  177.5380  143.2680 C   0  0  0  0  0  0  0  0  0  0  0  0
  191.7220  176.5820  144.1540 C   0  0  0  0  0  3  0  0  0  0  0  0
  188.6180  177.6140  145.7310 C   0  0  0  0  0  0  0  0  0  0  0  0
  187.2140  177.9800  148.1200 C   0  0  0  0  0  3  0  0  0  0  0  0
  191.4750  176.7490  142.8240 N   0  0  0  0  0  0  0  0  0  0  0  0
  189.2080  177.3270  146.9600 C   0  0  0  0  0  0  0  0  0  0  0  0
  188.5310  177.5000  148.1650 C   0  0  0  0  0  3  0  0  0  0  0  0
  190.0510  177.3720  140.9830 C   0  0  0  0  0  0  0  0  0  0  0  0
  191.1090  177.0410  139.9870 C   0  0  0  0  0  1  0  0  0  0  0  0
  188.0150  178.0090  142.7720 C   0  0  0  0  0  3  0  0  0  0  0  0
  186.6040  178.2750  146.8870 C   0  0  0  0  0  3  0  0  0  0  0  0
  190.7180  176.8930  145.0630 C   0  0  0  0  0  0  0  0  0  0  0  0
  190.7830  176.7690  146.7430 S   0  0  0  0  0  0  0  0  0  0  0  0
  188.8500  177.8320  140.5410 N   0  0  0  0  0  0  0  0  0  0  0  0
  187.3040  178.0920  145.6840 C   0  0  0  0  0  3  0  0  0  0  0  0
  187.8420  178.1560  141.3960 C   0  0  0  0  0  0  0  0  0  0  0  0
  190.2750  177.2130  142.3610 C   0  0  0  0  0  0  0  0  0  0  0  0
  186.5400  178.6350  140.8580 C   0  0  0  0  0  2  0  0  0  0  0  0
  185.4860  178.6080  141.9520 C   0  0  0  0  0  2  0  0  0  0  0  0
  184.1220  178.9680  141.3840 C   0  0  2  0  0  3  0  0  0  0  0  0
  183.1270  178.2960  142.0940 O   0  0  0  0  0  1  0  0  0  0  0  0
  184.0270  178.6220  139.9020 C   0  0  0  0  0  2  0  0  0  0  0  0
  183.2920  179.5920  139.2150 O   0  0  0  0  0  0  0  0  0  0  0  0
  184.1800  180.5010  138.8780 O   0  0  0  0  0  1  0  0  0  0  0  0
  1 13  2  0  0  0  0
  1  4  1  0  0  0  0
  2  1  1  0  0  0  0
  3 13  1  0  0  0  0
  4  7  1  0  0  0  0
  5  8  1  0  0  0  0
  6  3  2  0  0  0  0
  7  8  2  0  0  0  0
  9 18  1  0  0  0  0
 10  9  1  0  0  0  0
 11  2  1  0  0  0  0
 12  5  2  0  0  0  0
 13 14  1  0  0  0  0
 14  7  1  0  0  0  0
 15  9  2  0  0  0  0
 15 17  1  0  0  0  0
 16  4  2  0  0  0  0
 16 12  1  0  0  0  0
 17 11  2  0  0  0  0
 18  6  1  0  0  0  0
 18  2  2  0  0  0  0
 19 17  1  0  0  0  0
 19 20  1  0  0  0  0
 21 20  1  0  0  0  0
 21 22  1  1  0  0  0
 23 21  1  0  0  0  0
 24 23  1  0  0  0  0
 25 24  1  0  0  0  0
M  END
>  <MODEL>
9

>  <REMARK>
 VINA RESULT:      -8.5      2.919      4.868
  Name = 
  5 active torsions:
  status: ('A' for Active; 'I' for Inactive)
    1  A    between atoms: C_2  and  O_7
    2  A    between atoms: C_2  and  C_21
    3  A    between atoms: C_6  and  C_15
    4  A    between atoms: C_6  and  C_23
    5  A    between atoms: C_15  and  C_21
                            x       y       z     vdW  Elec       q    Type
                         _______ _______ _______ _____ _____    ______ ____

>  <TORSDO>
F 5

$$$$
