=
 OpenBabel10262422163D

 43 49  0  0  1  0  0  0  0  0999 V2000
  182.3990  178.8340  142.8090 C   0  0  0  0  0  2  0  0  0  0  0  0
  187.4020  177.1030  143.1570 C   0  0  2  0  0  3  0  0  0  0  0  0
  188.7180  178.1330  140.7590 C   0  0  1  0  0  3  0  0  0  0  0  0
  185.0980  178.3920  144.3420 C   0  0  0  0  0  0  0  0  0  0  0  0
  183.3740  178.8610  141.6340 C   0  0  0  0  0  2  0  0  0  0  0  0
  182.9240  179.6750  143.9700 C   0  0  0  0  0  2  0  0  0  0  0  0
  185.5240  178.7740  142.9310 C   0  0  2  0  0  3  0  0  0  0  0  0
  183.7680  178.8250  144.9150 C   0  0  0  0  0  2  0  0  0  0  0  0
  184.6280  178.0490  141.9240 C   0  0  0  0  0  2  0  0  0  0  0  0
  187.3730  178.7320  141.2050 C   0  0  0  0  0  2  0  0  0  0  0  0
  187.0190  178.5030  142.6770 C   0  0  2  0  0  3  0  0  0  0  0  0
  187.1700  177.0250  144.6680 C   0  0  0  0  0  2  0  0  0  0  0  0
  188.8470  176.8400  142.8500 C   0  0  0  0  0  0  0  0  0  0  0  0
  189.3990  177.3290  141.7760 N   0  0  0  0  0  0  0  0  0  0  0  0
  185.8230  177.5410  145.0840 C   0  0  0  0  0  3  0  0  0  0  0  0
  188.5890  177.3380  139.4600 C   0  0  2  0  0  3  0  0  0  0  0  0
  187.2650  176.9560  137.3640 C   0  0  0  0  0  0  0  0  0  0  0  0
  189.6890  177.2790  137.2570 C   0  0  0  0  0  3  0  0  0  0  0  0
  189.7780  177.5560  138.5610 C   0  0  0  0  0  3  0  0  0  0  0  0
  188.4090  176.8330  136.6770 C   0  0  0  0  0  3  0  0  0  0  0  0
  187.2710  177.6150  138.7230 C   0  0  0  0  0  2  0  0  0  0  0  0
  185.0120  177.4290  136.4130 C   0  0  2  0  0  3  0  0  0  0  0  0
  185.8360  176.7220  135.3550 C   0  0  0  0  0  2  0  0  0  0  0  0
  186.0100  176.3490  136.8180 C   0  0  1  0  0  3  0  0  0  0  0  0
  183.0840  176.4910  135.3910 O   0  0  0  0  0  0  0  0  0  0  0  0
  183.6330  176.8600  136.4650 C   0  0  0  0  0  0  0  0  0  0  0  0
  182.9850  176.7190  137.7080 O   0  0  0  0  0  0  0  0  0  0  0  0
  181.1060  177.1880  139.1440 C   0  0  0  0  0  3  0  0  0  0  0  0
  182.1260  177.6550  138.3040 C   0  0  0  0  0  0  0  0  0  0  0  0
  181.5000  181.3930  138.4580 C   0  0  0  0  0  1  0  0  0  0  0  0
  180.3450  179.4550  139.5300 C   0  0  0  0  0  3  0  0  0  0  0  0
  181.3650  179.9330  138.7010 C   0  0  0  0  0  0  0  0  0  0  0  0
  180.2180  178.0820  139.7540 C   0  0  0  0  0  3  0  0  0  0  0  0
  182.2550  179.0400  138.0940 C   0  0  0  0  0  3  0  0  0  0  0  0
  189.6040  176.0420  143.7200 O   0  0  0  0  0  0  0  0  0  0  0  0
  192.0350  175.5620  143.9830 C   0  0  0  0  0  2  0  0  0  0  0  0
  190.8720  176.4360  144.2360 C   0  0  1  0  0  0  0  0  0  0  0  0
  191.7760  176.6970  143.1870 O   0  0  0  0  0  0  0  0  0  0  0  0
  190.9430  177.5010  145.3160 C   0  0  0  0  0  2  0  0  0  0  0  0
  190.7380  176.9210  146.6780 C   0  0  0  0  0  0  0  0  0  0  0  0
  191.7300  176.2440  147.2580 C   0  0  0  0  0  2  0  0  0  0  0  0
  189.3460  176.8040  147.2200 C   0  0  0  0  0  2  0  0  0  0  0  0
  188.9880  178.0450  148.0120 C   0  0  0  0  0  1  0  0  0  0  0  0
  1  6  1  0  0  0  0
  2 12  1  1  0  0  0
  3 10  1  1  0  0  0
  3 14  1  0  0  0  0
  4  8  1  0  0  0  0
  4 15  2  0  0  0  0
  5  9  1  0  0  0  0
  5  1  1  0  0  0  0
  6  8  1  0  0  0  0
  7  9  1  6  0  0  0
  7  4  1  0  0  0  0
 11 10  1  6  0  0  0
 11  7  1  0  0  0  0
 11  2  1  0  0  0  0
 12 15  1  0  0  0  0
 13  2  1  0  0  0  0
 13 35  1  0  0  0  0
 14 13  2  0  0  0  0
 16 19  1  6  0  0  0
 16  3  1  0  0  0  0
 17 21  1  0  0  0  0
 18 19  2  0  0  0  0
 20 18  1  0  0  0  0
 20 17  2  0  0  0  0
 21 16  1  0  0  0  0
 22 26  1  6  0  0  0
 22 24  1  0  0  0  0
 23 22  1  0  0  0  0
 23 24  1  0  0  0  0
 24 17  1  1  0  0  0
 25 26  2  0  0  0  0
 26 27  1  0  0  0  0
 27 29  1  0  0  0  0
 28 33  1  0  0  0  0
 29 28  2  0  0  0  0
 30 32  1  0  0  0  0
 31 33  2  0  0  0  0
 32 31  1  0  0  0  0
 34 29  1  0  0  0  0
 34 32  2  0  0  0  0
 35 37  1  0  0  0  0
 36 37  1  0  0  0  0
 37 39  1  1  0  0  0
 38 36  1  0  0  0  0
 38 37  1  0  0  0  0
 39 40  1  0  0  0  0
 40 42  1  0  0  0  0
 40 41  2  0  0  0  0
 42 43  1  0  0  0  0
M  END
>  <MODEL>
1

>  <REMARK>
 VINA RESULT:      -9.3      0.000      0.000
  Name = 
  10 active torsions:
  status: ('A' for Active; 'I' for Inactive)
    1  A    between atoms: O_1  and  C_34
    2  A    between atoms: O_1  and  C_35
    3  A    between atoms: C_2  and  C_13
    4  A    between atoms: C_3  and  C_42
    5  A    between atoms: O_4  and  C_14
    6  A    between atoms: O_4  and  C_41
    7  A    between atoms: C_9  and  C_19
    8  A    between atoms: C_10  and  C_41
    9  A    between atoms: C_19  and  C_32
   10  A    between atoms: C_32  and  C_35
                            x       y       z     vdW  Elec       q    Type
                         _______ _______ _______ _____ _____    ______ ____

>  <TORSDO>
F 10

$$$$
=
 OpenBabel10262422163D

 43 49  0  0  1  0  0  0  0  0999 V2000
  191.2450  176.9840  141.5460 C   0  0  0  0  0  2  0  0  0  0  0  0
  187.5170  176.5570  137.7960 C   0  0  2  0  0  3  0  0  0  0  0  0
  185.5560  178.6230  138.4510 C   0  0  1  0  0  3  0  0  0  0  0  0
  190.3000  176.7530  138.5660 C   0  0  0  0  0  0  0  0  0  0  0  0
  189.8730  177.6460  141.6550 C   0  0  0  0  0  2  0  0  0  0  0  0
  191.9980  177.4940  140.3210 C   0  0  0  0  0  2  0  0  0  0  0  0
  189.2780  177.6770  139.2140 C   0  0  2  0  0  3  0  0  0  0  0  0
  191.7060  176.6200  139.1040 C   0  0  0  0  0  2  0  0  0  0  0  0
  188.9120  177.1280  140.5950 C   0  0  0  0  0  2  0  0  0  0  0  0
  186.9600  178.6790  139.0800 C   0  0  0  0  0  2  0  0  0  0  0  0
  188.0370  177.8920  138.3280 C   0  0  2  0  0  3  0  0  0  0  0  0
  188.6020  175.9240  136.9220 C   0  0  0  0  0  2  0  0  0  0  0  0
  186.2770  176.7840  136.9810 C   0  0  0  0  0  0  0  0  0  0  0  0
  185.4350  177.7250  137.3010 N   0  0  0  0  0  0  0  0  0  0  0  0
  189.9540  175.9150  137.5760 C   0  0  0  0  0  3  0  0  0  0  0  0
  184.4780  178.3010  139.4850 C   0  0  2  0  0  3  0  0  0  0  0  0
  183.6680  178.6340  141.8360 C   0  0  0  0  0  0  0  0  0  0  0  0
  182.1520  178.9690  139.9430 C   0  0  0  0  0  3  0  0  0  0  0  0
  183.1270  178.8000  139.0450 C   0  0  0  0  0  3  0  0  0  0  0  0
  182.4140  178.7410  141.3760 C   0  0  0  0  0  3  0  0  0  0  0  0
  184.8320  178.8080  140.8900 C   0  0  0  0  0  2  0  0  0  0  0  0
  184.5380  179.3860  144.0450 C   0  0  2  0  0  3  0  0  0  0  0  0
  183.0550  179.1060  144.1880 C   0  0  0  0  0  2  0  0  0  0  0  0
  183.8980  178.2440  143.2630 C   0  0  1  0  0  3  0  0  0  0  0  0
  184.9560  179.1590  146.3720 O   0  0  0  0  0  0  0  0  0  0  0  0
  185.2890  178.8190  145.2040 C   0  0  0  0  0  0  0  0  0  0  0  0
  186.3300  177.8980  144.9760 O   0  0  0  0  0  0  0  0  0  0  0  0
  187.3110  177.7050  147.1690 C   0  0  0  0  0  3  0  0  0  0  0  0
  187.4690  177.7220  145.7770 C   0  0  0  0  0  0  0  0  0  0  0  0
  191.2210  177.2420  145.4940 C   0  0  0  0  0  1  0  0  0  0  0  0
  189.6940  177.3920  147.4650 C   0  0  0  0  0  3  0  0  0  0  0  0
  189.8630  177.3980  146.0770 C   0  0  0  0  0  0  0  0  0  0  0  0
  188.4180  177.5420  148.0120 C   0  0  0  0  0  3  0  0  0  0  0  0
  188.7560  177.5580  145.2350 C   0  0  0  0  0  3  0  0  0  0  0  0
  186.0150  175.9600  135.8770 O   0  0  0  0  0  0  0  0  0  0  0  0
  183.9500  175.4010  134.5990 C   0  0  0  0  0  2  0  0  0  0  0  0
  184.8370  175.1690  135.7570 C   0  0  1  0  0  0  0  0  0  0  0  0
  184.8990  174.3570  134.6060 O   0  0  0  0  0  0  0  0  0  0  0  0
  184.3270  174.3960  136.9610 C   0  0  0  0  0  2  0  0  0  0  0  0
  184.9850  173.0590  137.0790 C   0  0  0  0  0  0  0  0  0  0  0  0
  184.2420  171.9540  137.0110 C   0  0  0  0  0  2  0  0  0  0  0  0
  186.3840  172.9790  137.6100 C   0  0  0  0  0  2  0  0  0  0  0  0
  187.2370  172.1120  136.7070 C   0  0  0  0  0  1  0  0  0  0  0  0
  1  5  1  0  0  0  0
  2 12  1  6  0  0  0
  2 11  1  0  0  0  0
  3 10  1  1  0  0  0
  3 16  1  0  0  0  0
  4  8  1  0  0  0  0
  4  7  1  0  0  0  0
  6  1  1  0  0  0  0
  7  9  1  1  0  0  0
  8  6  1  0  0  0  0
  9  5  1  0  0  0  0
 11 10  1  1  0  0  0
 11  7  1  0  0  0  0
 12 15  1  0  0  0  0
 13 14  2  0  0  0  0
 13  2  1  0  0  0  0
 14  3  1  0  0  0  0
 15  4  2  0  0  0  0
 16 19  1  6  0  0  0
 16 21  1  0  0  0  0
 18 20  1  0  0  0  0
 19 18  2  0  0  0  0
 20 17  2  0  0  0  0
 21 17  1  0  0  0  0
 22 23  1  0  0  0  0
 22 26  1  1  0  0  0
 24 17  1  6  0  0  0
 24 22  1  0  0  0  0
 24 23  1  0  0  0  0
 26 25  2  0  0  0  0
 27 26  1  0  0  0  0
 27 29  1  0  0  0  0
 28 33  1  0  0  0  0
 29 28  2  0  0  0  0
 30 32  1  0  0  0  0
 31 33  2  0  0  0  0
 32 31  1  0  0  0  0
 34 29  1  0  0  0  0
 34 32  2  0  0  0  0
 35 13  1  0  0  0  0
 36 38  1  0  0  0  0
 36 37  1  0  0  0  0
 37 35  1  0  0  0  0
 37 39  1  1  0  0  0
 38 37  1  0  0  0  0
 39 40  1  0  0  0  0
 40 42  1  0  0  0  0
 41 40  2  0  0  0  0
 43 42  1  0  0  0  0
M  END
>  <MODEL>
2

>  <REMARK>
 VINA RESULT:      -9.1      2.434      9.032
  Name = 
  10 active torsions:
  status: ('A' for Active; 'I' for Inactive)
    1  A    between atoms: O_1  and  C_34
    2  A    between atoms: O_1  and  C_35
    3  A    between atoms: C_2  and  C_13
    4  A    between atoms: C_3  and  C_42
    5  A    between atoms: O_4  and  C_14
    6  A    between atoms: O_4  and  C_41
    7  A    between atoms: C_9  and  C_19
    8  A    between atoms: C_10  and  C_41
    9  A    between atoms: C_19  and  C_32
   10  A    between atoms: C_32  and  C_35
                            x       y       z     vdW  Elec       q    Type
                         _______ _______ _______ _____ _____    ______ ____

>  <TORSDO>
F 10

$$$$
=
 OpenBabel10262422163D

 43 49  0  0  1  0  0  0  0  0999 V2000
  189.8200  178.0090  137.7050 C   0  0  0  0  0  2  0  0  0  0  0  0
  189.8180  177.8370  143.0070 C   0  0  2  0  0  3  0  0  0  0  0  0
  187.1060  177.0200  143.7280 C   0  0  1  0  0  3  0  0  0  0  0  0
  191.0260  177.1520  140.4690 C   0  0  0  0  0  0  0  0  0  0  0  0
  188.5410  177.9340  138.5360 C   0  0  0  0  0  2  0  0  0  0  0  0
  190.7070  176.7940  137.9620 C   0  0  0  0  0  2  0  0  0  0  0  0
  189.5230  176.9920  140.6480 C   0  0  2  0  0  3  0  0  0  0  0  0
  191.6780  177.0660  139.1070 C   0  0  0  0  0  2  0  0  0  0  0  0
  188.8130  178.1890  140.0120 C   0  0  0  0  0  2  0  0  0  0  0  0
  187.6030  176.8180  142.2850 C   0  0  0  0  0  2  0  0  0  0  0  0
  189.1260  176.7990  142.1230 C   0  0  2  0  0  3  0  0  0  0  0  0
  191.3310  177.6320  142.9070 C   0  0  0  0  0  2  0  0  0  0  0  0
  189.3740  177.6670  144.4310 C   0  0  0  0  0  0  0  0  0  0  0  0
  188.1600  177.2880  144.7080 N   0  0  0  0  0  0  0  0  0  0  0  0
  191.8170  177.5130  141.4910 C   0  0  0  0  0  3  0  0  0  0  0  0
  186.0220  178.0930  143.8150 C   0  0  2  0  0  3  0  0  0  0  0  0
  183.7520  178.8410  143.0510 C   0  0  0  0  0  0  0  0  0  0  0  0
  184.3090  178.8100  145.4340 C   0  0  0  0  0  3  0  0  0  0  0  0
  185.4930  178.2300  145.2190 C   0  0  0  0  0  3  0  0  0  0  0  0
  183.4790  179.2490  144.2970 C   0  0  0  0  0  3  0  0  0  0  0  0
  184.8830  177.8710  142.8080 C   0  0  0  0  0  2  0  0  0  0  0  0
  183.4190  178.7920  140.5820 C   0  0  2  0  0  3  0  0  0  0  0  0
  182.1240  178.3690  141.2460 C   0  0  0  0  0  2  0  0  0  0  0  0
  182.9930  179.4280  141.9010 C   0  0  1  0  0  3  0  0  0  0  0  0
  184.1110  180.3700  138.9490 O   0  0  0  0  0  0  0  0  0  0  0  0
  183.1460  179.7490  139.4710 C   0  0  0  0  0  0  0  0  0  0  0  0
  181.8260  179.9210  139.0080 O   0  0  0  0  0  0  0  0  0  0  0  0
  180.8630  180.2920  136.8290 C   0  0  0  0  0  3  0  0  0  0  0  0
  181.4090  180.8140  138.0090 C   0  0  0  0  0  0  0  0  0  0  0  0
  181.2310  184.5310  137.2740 C   0  0  0  0  0  1  0  0  0  0  0  0
  180.5620  182.5250  135.9440 C   0  0  0  0  0  3  0  0  0  0  0  0
  181.0980  183.0590  137.1200 C   0  0  0  0  0  0  0  0  0  0  0  0
  180.4420  181.1420  135.7990 C   0  0  0  0  0  3  0  0  0  0  0  0
  181.5160  182.2090  138.1510 C   0  0  0  0  0  3  0  0  0  0  0  0
  190.2740  177.9390  145.4720 O   0  0  0  0  0  0  0  0  0  0  0  0
  191.8820  176.1100  146.0020 C   0  0  0  0  0  2  0  0  0  0  0  0
  190.7290  176.9480  146.3880 C   0  0  1  0  0  0  0  0  0  0  0  0
  192.0340  177.2410  146.8300 O   0  0  0  0  0  0  0  0  0  0  0  0
  189.8300  176.5200  147.5360 C   0  0  0  0  0  2  0  0  0  0  0  0
  189.0360  177.6670  148.0720 C   0  0  0  0  0  0  0  0  0  0  0  0
  189.6420  178.5970  148.8120 C   0  0  0  0  0  2  0  0  0  0  0  0
  187.5400  177.5820  148.0720 C   0  0  0  0  0  2  0  0  0  0  0  0
  186.9370  178.9690  148.1670 C   0  0  0  0  0  1  0  0  0  0  0  0
  1  6  1  0  0  0  0
  1  5  1  0  0  0  0
  2 12  1  1  0  0  0
  2 13  1  0  0  0  0
  3 10  1  6  0  0  0
  3 16  1  0  0  0  0
  3 14  1  0  0  0  0
  4  7  1  0  0  0  0
  4 15  2  0  0  0  0
  5  9  1  0  0  0  0
  6  8  1  0  0  0  0
  7  9  1  1  0  0  0
  7 11  1  0  0  0  0
  8  4  1  0  0  0  0
 11 10  1  6  0  0  0
 11  2  1  0  0  0  0
 13 14  2  0  0  0  0
 13 35  1  0  0  0  0
 15 12  1  0  0  0  0
 16 21  1  6  0  0  0
 16 19  1  0  0  0  0
 17 20  2  0  0  0  0
 19 18  2  0  0  0  0
 20 18  1  0  0  0  0
 21 17  1  0  0  0  0
 22 26  1  6  0  0  0
 22 23  1  0  0  0  0
 22 24  1  0  0  0  0
 23 24  1  0  0  0  0
 24 17  1  1  0  0  0
 25 26  2  0  0  0  0
 27 26  1  0  0  0  0
 28 29  1  0  0  0  0
 29 34  2  0  0  0  0
 29 27  1  0  0  0  0
 31 32  2  0  0  0  0
 32 30  1  0  0  0  0
 32 34  1  0  0  0  0
 33 31  1  0  0  0  0
 33 28  2  0  0  0  0
 35 37  1  0  0  0  0
 36 37  1  0  0  0  0
 36 38  1  0  0  0  0
 37 38  1  0  0  0  0
 37 39  1  1  0  0  0
 39 40  1  0  0  0  0
 40 42  1  0  0  0  0
 40 41  2  0  0  0  0
 42 43  1  0  0  0  0
M  END
>  <MODEL>
3

>  <REMARK>
 VINA RESULT:      -8.9      2.165      5.350
  Name = 
  10 active torsions:
  status: ('A' for Active; 'I' for Inactive)
    1  A    between atoms: O_1  and  C_34
    2  A    between atoms: O_1  and  C_35
    3  A    between atoms: C_2  and  C_13
    4  A    between atoms: C_3  and  C_42
    5  A    between atoms: O_4  and  C_14
    6  A    between atoms: O_4  and  C_41
    7  A    between atoms: C_9  and  C_19
    8  A    between atoms: C_10  and  C_41
    9  A    between atoms: C_19  and  C_32
   10  A    between atoms: C_32  and  C_35
                            x       y       z     vdW  Elec       q    Type
                         _______ _______ _______ _____ _____    ______ ____

>  <TORSDO>
F 10

$$$$
=
 OpenBabel10262422163D

 43 49  0  0  1  0  0  0  0  0999 V2000
  189.5260  178.1860  137.7830 C   0  0  0  0  0  2  0  0  0  0  0  0
  189.8600  177.7900  143.0630 C   0  0  2  0  0  3  0  0  0  0  0  0
  187.1980  176.9430  143.9190 C   0  0  1  0  0  3  0  0  0  0  0  0
  190.9030  177.2130  140.4260 C   0  0  0  0  0  0  0  0  0  0  0  0
  188.3020  178.0760  138.6900 C   0  0  0  0  0  2  0  0  0  0  0  0
  190.4240  176.9610  137.9320 C   0  0  0  0  0  2  0  0  0  0  0  0
  189.4140  177.0450  140.6940 C   0  0  2  0  0  3  0  0  0  0  0  0
  191.4670  177.1850  139.0230 C   0  0  0  0  0  2  0  0  0  0  0  0
  188.6670  178.2680  140.1550 C   0  0  0  0  0  2  0  0  0  0  0  0
  187.6020  176.8020  142.4410 C   0  0  0  0  0  2  0  0  0  0  0  0
  189.1110  176.7910  142.1820 C   0  0  2  0  0  3  0  0  0  0  0  0
  191.3640  177.5900  142.8580 C   0  0  0  0  0  2  0  0  0  0  0  0
  189.5080  177.5610  144.5040 C   0  0  0  0  0  0  0  0  0  0  0  0
  188.3120  177.1700  144.8410 N   0  0  0  0  0  0  0  0  0  0  0  0
  191.7580  177.5310  141.4100 C   0  0  0  0  0  3  0  0  0  0  0  0
  186.1240  178.0120  144.1200 C   0  0  2  0  0  3  0  0  0  0  0  0
  183.8060  178.7810  143.5480 C   0  0  0  0  0  0  0  0  0  0  0  0
  184.5340  178.6720  145.8830 C   0  0  0  0  0  3  0  0  0  0  0  0
  185.6990  178.1010  145.5630 C   0  0  0  0  0  3  0  0  0  0  0  0
  183.6240  179.1480  144.8240 C   0  0  0  0  0  3  0  0  0  0  0  0
  184.9150  177.8210  143.1920 C   0  0  0  0  0  2  0  0  0  0  0  0
  182.0470  178.3740  141.8310 C   0  0  2  0  0  3  0  0  0  0  0  0
  181.4970  179.3460  142.8560 C   0  0  0  0  0  2  0  0  0  0  0  0
  182.9660  179.4060  142.4770 C   0  0  1  0  0  3  0  0  0  0  0  0
  180.5250  179.1890  140.2010 O   0  0  0  0  0  0  0  0  0  0  0  0
  181.7060  178.8250  140.4500 C   0  0  0  0  0  0  0  0  0  0  0  0
  182.7110  178.8640  139.4620 O   0  0  0  0  0  0  0  0  0  0  0  0
  182.6910  176.4940  139.0230 C   0  0  0  0  0  3  0  0  0  0  0  0
  183.2390  177.7600  138.7750 C   0  0  0  0  0  0  0  0  0  0  0  0
  185.9140  176.8780  136.2350 C   0  0  0  0  0  1  0  0  0  0  0  0
  184.2420  175.4850  137.4610 C   0  0  0  0  0  3  0  0  0  0  0  0
  184.7910  176.7440  137.2000 C   0  0  0  0  0  0  0  0  0  0  0  0
  183.1900  175.3600  138.3700 C   0  0  0  0  0  3  0  0  0  0  0  0
  184.2900  177.8780  137.8490 C   0  0  0  0  0  3  0  0  0  0  0  0
  190.4730  177.7880  145.4950 O   0  0  0  0  0  0  0  0  0  0  0  0
  191.9990  175.9250  146.1350 C   0  0  0  0  0  2  0  0  0  0  0  0
  190.8550  176.8050  146.4520 C   0  0  1  0  0  0  0  0  0  0  0  0
  192.1480  177.0690  146.9470 O   0  0  0  0  0  0  0  0  0  0  0  0
  189.8940  176.4290  147.5660 C   0  0  0  0  0  2  0  0  0  0  0  0
  189.2450  177.6350  148.1650 C   0  0  0  0  0  0  0  0  0  0  0  0
  190.0000  178.5600  148.7580 C   0  0  0  0  0  2  0  0  0  0  0  0
  187.7650  177.6260  148.4010 C   0  0  0  0  0  2  0  0  0  0  0  0
  187.2120  179.0330  148.3060 C   0  0  0  0  0  1  0  0  0  0  0  0
  1  6  1  0  0  0  0
  1  5  1  0  0  0  0
  2 12  1  1  0  0  0
  2 13  1  0  0  0  0
  3 10  1  6  0  0  0
  3 16  1  0  0  0  0
  3 14  1  0  0  0  0
  4  7  1  0  0  0  0
  4 15  2  0  0  0  0
  5  9  1  0  0  0  0
  6  8  1  0  0  0  0
  7  9  1  1  0  0  0
  7 11  1  0  0  0  0
  8  4  1  0  0  0  0
 11 10  1  6  0  0  0
 11  2  1  0  0  0  0
 13 14  2  0  0  0  0
 13 35  1  0  0  0  0
 15 12  1  0  0  0  0
 16 21  1  6  0  0  0
 16 19  1  0  0  0  0
 17 20  2  0  0  0  0
 19 18  2  0  0  0  0
 20 18  1  0  0  0  0
 21 17  1  0  0  0  0
 22 26  1  6  0  0  0
 22 24  1  0  0  0  0
 22 23  1  0  0  0  0
 24 23  1  0  0  0  0
 24 17  1  1  0  0  0
 25 26  2  0  0  0  0
 27 26  1  0  0  0  0
 29 28  1  0  0  0  0
 29 27  1  0  0  0  0
 30 32  1  0  0  0  0
 31 33  1  0  0  0  0
 32 31  2  0  0  0  0
 32 34  1  0  0  0  0
 33 28  2  0  0  0  0
 34 29  2  0  0  0  0
 35 37  1  0  0  0  0
 36 37  1  0  0  0  0
 36 38  1  0  0  0  0
 37 38  1  0  0  0  0
 37 39  1  1  0  0  0
 39 40  1  0  0  0  0
 40 42  1  0  0  0  0
 40 41  2  0  0  0  0
 43 42  1  0  0  0  0
M  END
>  <MODEL>
4

>  <REMARK>
 VINA RESULT:      -8.7      1.752      5.547
  Name = 
  10 active torsions:
  status: ('A' for Active; 'I' for Inactive)
    1  A    between atoms: O_1  and  C_34
    2  A    between atoms: O_1  and  C_35
    3  A    between atoms: C_2  and  C_13
    4  A    between atoms: C_3  and  C_42
    5  A    between atoms: O_4  and  C_14
    6  A    between atoms: O_4  and  C_41
    7  A    between atoms: C_9  and  C_19
    8  A    between atoms: C_10  and  C_41
    9  A    between atoms: C_19  and  C_32
   10  A    between atoms: C_32  and  C_35
                            x       y       z     vdW  Elec       q    Type
                         _______ _______ _______ _____ _____    ______ ____

>  <TORSDO>
F 10

$$$$
=
 OpenBabel10262422163D

 43 49  0  0  1  0  0  0  0  0999 V2000
  190.1030  177.9500  138.4350 C   0  0  0  0  0  2  0  0  0  0  0  0
  189.5870  178.0400  143.7150 C   0  0  2  0  0  3  0  0  0  0  0  0
  186.8470  177.1540  144.2140 C   0  0  1  0  0  3  0  0  0  0  0  0
  191.0610  177.2780  141.3440 C   0  0  0  0  0  0  0  0  0  0  0  0
  188.7520  177.8660  139.1420 C   0  0  0  0  0  2  0  0  0  0  0  0
  191.0010  176.7850  138.8400 C   0  0  0  0  0  2  0  0  0  0  0  0
  189.5540  177.0680  141.3860 C   0  0  2  0  0  3  0  0  0  0  0  0
  191.8460  177.1510  140.0580 C   0  0  0  0  0  2  0  0  0  0  0  0
  188.8690  178.2040  140.6220 C   0  0  0  0  0  2  0  0  0  0  0  0
  187.4900  176.9010  142.8390 C   0  0  0  0  0  2  0  0  0  0  0  0
  189.0210  176.9340  142.8250 C   0  0  2  0  0  3  0  0  0  0  0  0
  191.1090  177.8890  143.7720 C   0  0  0  0  0  2  0  0  0  0  0  0
  189.0130  177.9230  145.0960 C   0  0  0  0  0  0  0  0  0  0  0  0
  187.7900  177.5110  145.2750 N   0  0  0  0  0  0  0  0  0  0  0  0
  191.7350  177.7190  142.4170 C   0  0  0  0  0  3  0  0  0  0  0  0
  185.7240  178.1870  144.1390 C   0  0  2  0  0  3  0  0  0  0  0  0
  183.5350  178.8260  143.0930 C   0  0  0  0  0  0  0  0  0  0  0  0
  183.8090  178.8830  145.5240 C   0  0  0  0  0  3  0  0  0  0  0  0
  185.0300  178.3430  145.4670 C   0  0  0  0  0  3  0  0  0  0  0  0
  183.1040  179.2580  144.2850 C   0  0  0  0  0  3  0  0  0  0  0  0
  184.7200  177.8940  143.0150 C   0  0  0  0  0  2  0  0  0  0  0  0
  183.4900  178.6890  140.6060 C   0  0  2  0  0  3  0  0  0  0  0  0
  182.1390  178.2450  141.1320 C   0  0  0  0  0  2  0  0  0  0  0  0
  182.8970  179.3520  141.8440 C   0  0  1  0  0  3  0  0  0  0  0  0
  184.3060  180.2800  139.0430 O   0  0  0  0  0  0  0  0  0  0  0  0
  183.3190  179.6020  139.4370 C   0  0  0  0  0  0  0  0  0  0  0  0
  182.0730  179.6680  138.7820 O   0  0  0  0  0  0  0  0  0  0  0  0
  180.1360  180.8990  139.5180 C   0  0  0  0  0  3  0  0  0  0  0  0
  181.2530  180.8020  138.6770 C   0  0  0  0  0  0  0  0  0  0  0  0
  180.9310  184.0300  136.7120 C   0  0  0  0  0  1  0  0  0  0  0  0
  179.5400  183.0270  138.5280 C   0  0  0  0  0  3  0  0  0  0  0  0
  180.6570  182.9450  137.6910 C   0  0  0  0  0  0  0  0  0  0  0  0
  179.2810  182.0060  139.4450 C   0  0  0  0  0  3  0  0  0  0  0  0
  181.5120  181.8410  137.7660 C   0  0  0  0  0  3  0  0  0  0  0  0
  189.7970  178.2810  146.2030 O   0  0  0  0  0  0  0  0  0  0  0  0
  189.5920  178.3830  148.6840 C   0  0  0  0  0  2  0  0  0  0  0  0
  189.7500  177.5910  147.4480 C   0  0  1  0  0  0  0  0  0  0  0  0
  188.4920  177.7580  148.0610 O   0  0  0  0  0  0  0  0  0  0  0  0
  190.2240  176.1500  147.5240 C   0  0  0  0  0  2  0  0  0  0  0  0
  191.6740  176.0270  147.1820 C   0  0  0  0  0  0  0  0  0  0  0  0
  192.0420  175.9440  145.9030 C   0  0  0  0  0  2  0  0  0  0  0  0
  192.6480  175.6540  148.2580 C   0  0  0  0  0  2  0  0  0  0  0  0
  192.9580  176.8580  149.1230 C   0  0  0  0  0  1  0  0  0  0  0  0
  1  6  1  0  0  0  0
  1  5  1  0  0  0  0
  2 12  1  1  0  0  0
  2 13  1  0  0  0  0
  3 10  1  6  0  0  0
  3 14  1  0  0  0  0
  4  7  1  0  0  0  0
  4 15  2  0  0  0  0
  5  9  1  0  0  0  0
  6  8  1  0  0  0  0
  7  9  1  1  0  0  0
  7 11  1  0  0  0  0
  8  4  1  0  0  0  0
 11 10  1  6  0  0  0
 11  2  1  0  0  0  0
 13 14  2  0  0  0  0
 13 35  1  0  0  0  0
 15 12  1  0  0  0  0
 16 21  1  6  0  0  0
 16  3  1  0  0  0  0
 16 19  1  0  0  0  0
 17 20  2  0  0  0  0
 19 18  2  0  0  0  0
 20 18  1  0  0  0  0
 21 17  1  0  0  0  0
 22 26  1  6  0  0  0
 22 23  1  0  0  0  0
 22 24  1  0  0  0  0
 23 24  1  0  0  0  0
 24 17  1  1  0  0  0
 25 26  2  0  0  0  0
 27 26  1  0  0  0  0
 29 27  1  0  0  0  0
 29 28  2  0  0  0  0
 30 32  1  0  0  0  0
 31 33  2  0  0  0  0
 32 34  2  0  0  0  0
 32 31  1  0  0  0  0
 33 28  1  0  0  0  0
 34 29  1  0  0  0  0
 35 37  1  0  0  0  0
 37 39  1  1  0  0  0
 37 38  1  0  0  0  0
 37 36  1  0  0  0  0
 38 36  1  0  0  0  0
 40 39  1  0  0  0  0
 40 42  1  0  0  0  0
 41 40  2  0  0  0  0
 42 43  1  0  0  0  0
M  END
>  <MODEL>
5

>  <REMARK>
 VINA RESULT:      -8.7      2.243      5.454
  Name = 
  10 active torsions:
  status: ('A' for Active; 'I' for Inactive)
    1  A    between atoms: O_1  and  C_34
    2  A    between atoms: O_1  and  C_35
    3  A    between atoms: C_2  and  C_13
    4  A    between atoms: C_3  and  C_42
    5  A    between atoms: O_4  and  C_14
    6  A    between atoms: O_4  and  C_41
    7  A    between atoms: C_9  and  C_19
    8  A    between atoms: C_10  and  C_41
    9  A    between atoms: C_19  and  C_32
   10  A    between atoms: C_32  and  C_35
                            x       y       z     vdW  Elec       q    Type
                         _______ _______ _______ _____ _____    ______ ____

>  <TORSDO>
F 10

$$$$
=
 OpenBabel10262422163D

 43 49  0  0  1  0  0  0  0  0999 V2000
  192.7470  174.3120  136.8280 C   0  0  0  0  0  2  0  0  0  0  0  0
  188.0860  176.8270  137.1430 C   0  0  2  0  0  3  0  0  0  0  0  0
  188.4840  178.8860  139.1790 C   0  0  1  0  0  3  0  0  0  0  0  0
  190.2650  175.7560  135.5680 C   0  0  0  0  0  0  0  0  0  0  0  0
  192.3840  175.2550  137.9730 C   0  0  0  0  0  2  0  0  0  0  0  0
  192.7150  175.0460  135.4900 C   0  0  0  0  0  2  0  0  0  0  0  0
  190.5750  176.5640  136.8210 C   0  0  2  0  0  3  0  0  0  0  0  0
  191.3300  174.9530  134.8560 C   0  0  0  0  0  2  0  0  0  0  0  0
  190.9030  175.6040  137.9670 C   0  0  0  0  0  2  0  0  0  0  0  0
  189.7050  178.2030  138.5400 C   0  0  0  0  0  2  0  0  0  0  0  0
  189.4390  177.5370  137.1860 C   0  0  2  0  0  3  0  0  0  0  0  0
  187.8350  176.3430  135.7130 C   0  0  0  0  0  2  0  0  0  0  0  0
  187.0010  177.7780  137.5560 C   0  0  0  0  0  0  0  0  0  0  0  0
  187.2240  178.6900  138.4580 N   0  0  0  0  0  0  0  0  0  0  0  0
  189.0060  175.6090  135.1250 C   0  0  0  0  0  3  0  0  0  0  0  0
  188.3140  178.4990  140.6470 C   0  0  2  0  0  3  0  0  0  0  0  0
  186.7780  177.5810  142.4050 C   0  0  0  0  0  0  0  0  0  0  0  0
  189.0330  176.6700  142.1330 C   0  0  0  0  0  3  0  0  0  0  0  0
  189.2710  177.4050  141.0430 C   0  0  0  0  0  3  0  0  0  0  0  0
  187.7960  176.8720  142.9090 C   0  0  0  0  0  3  0  0  0  0  0  0
  186.8660  178.1300  141.0010 C   0  0  0  0  0  2  0  0  0  0  0  0
  185.9470  179.0070  144.2710 C   0  0  2  0  0  3  0  0  0  0  0  0
  185.1390  179.3290  143.0290 C   0  0  0  0  0  2  0  0  0  0  0  0
  185.6030  177.9030  143.2760 C   0  0  1  0  0  3  0  0  0  0  0  0
  183.8920  179.3790  145.4010 O   0  0  0  0  0  0  0  0  0  0  0  0
  185.0510  178.8870  145.4580 C   0  0  0  0  0  0  0  0  0  0  0  0
  185.5030  178.2030  146.6050 O   0  0  0  0  0  0  0  0  0  0  0  0
  187.1640  178.3590  148.3450 C   0  0  0  0  0  3  0  0  0  0  0  0
  186.8380  178.0670  147.0140 C   0  0  0  0  0  0  0  0  0  0  0  0
  190.2480  177.1070  145.6570 C   0  0  0  0  0  1  0  0  0  0  0  0
  189.4910  177.8400  147.9220 C   0  0  0  0  0  3  0  0  0  0  0  0
  189.1770  177.5370  146.5930 C   0  0  0  0  0  0  0  0  0  0  0  0
  188.4840  178.2480  148.7990 C   0  0  0  0  0  3  0  0  0  0  0  0
  187.8570  177.6450  146.1410 C   0  0  0  0  0  3  0  0  0  0  0  0
  185.7290  177.6680  136.9760 O   0  0  0  0  0  0  0  0  0  0  0  0
  184.0160  175.8820  136.6820 C   0  0  0  0  0  2  0  0  0  0  0  0
  184.6800  176.8850  137.5380 C   0  0  1  0  0  0  0  0  0  0  0  0
  185.0430  175.5240  137.5790 O   0  0  0  0  0  0  0  0  0  0  0  0
  184.0260  177.3300  138.8350 C   0  0  0  0  0  2  0  0  0  0  0  0
  183.3140  178.6340  138.6740 C   0  0  0  0  0  0  0  0  0  0  0  0
  183.8930  179.7550  139.1050 C   0  0  0  0  0  2  0  0  0  0  0  0
  181.8480  178.6320  138.3620 C   0  0  0  0  0  2  0  0  0  0  0  0
  181.3970  180.0220  137.9630 C   0  0  0  0  0  1  0  0  0  0  0  0
  1  5  1  0  0  0  0
  2 12  1  6  0  0  0
  2 11  1  0  0  0  0
  2 13  1  0  0  0  0
  3 10  1  6  0  0  0
  3 16  1  0  0  0  0
  4  7  1  0  0  0  0
  6  1  1  0  0  0  0
  7 11  1  0  0  0  0
  7  9  1  1  0  0  0
  8  6  1  0  0  0  0
  8  4  1  0  0  0  0
  9  5  1  0  0  0  0
 11 10  1  1  0  0  0
 13 14  2  0  0  0  0
 14  3  1  0  0  0  0
 15  4  2  0  0  0  0
 15 12  1  0  0  0  0
 16 21  1  6  0  0  0
 16 19  1  0  0  0  0
 17 20  2  0  0  0  0
 18 20  1  0  0  0  0
 19 18  2  0  0  0  0
 21 17  1  0  0  0  0
 22 26  1  1  0  0  0
 23 24  1  0  0  0  0
 23 22  1  0  0  0  0
 24 17  1  6  0  0  0
 24 22  1  0  0  0  0
 25 26  2  0  0  0  0
 26 27  1  0  0  0  0
 27 29  1  0  0  0  0
 28 33  1  0  0  0  0
 29 28  2  0  0  0  0
 30 32  1  0  0  0  0
 31 33  2  0  0  0  0
 32 31  1  0  0  0  0
 34 32  2  0  0  0  0
 34 29  1  0  0  0  0
 35 37  1  0  0  0  0
 35 13  1  0  0  0  0
 36 37  1  0  0  0  0
 36 38  1  0  0  0  0
 37 38  1  0  0  0  0
 37 39  1  1  0  0  0
 40 39  1  0  0  0  0
 40 41  2  0  0  0  0
 42 40  1  0  0  0  0
 43 42  1  0  0  0  0
M  END
>  <MODEL>
6

>  <REMARK>
 VINA RESULT:      -8.5      2.300      9.235
  Name = 
  10 active torsions:
  status: ('A' for Active; 'I' for Inactive)
    1  A    between atoms: O_1  and  C_34
    2  A    between atoms: O_1  and  C_35
    3  A    between atoms: C_2  and  C_13
    4  A    between atoms: C_3  and  C_42
    5  A    between atoms: O_4  and  C_14
    6  A    between atoms: O_4  and  C_41
    7  A    between atoms: C_9  and  C_19
    8  A    between atoms: C_10  and  C_41
    9  A    between atoms: C_19  and  C_32
   10  A    between atoms: C_32  and  C_35
                            x       y       z     vdW  Elec       q    Type
                         _______ _______ _______ _____ _____    ______ ____

>  <TORSDO>
F 10

$$$$
=
 OpenBabel10262422163D

 43 49  0  0  1  0  0  0  0  0999 V2000
  190.3070  177.9110  138.5610 C   0  0  0  0  0  2  0  0  0  0  0  0
  189.3990  178.0610  143.7860 C   0  0  2  0  0  3  0  0  0  0  0  0
  186.6270  177.1880  144.0890 C   0  0  1  0  0  3  0  0  0  0  0  0
  191.0430  177.2680  141.5400 C   0  0  0  0  0  0  0  0  0  0  0  0
  188.9070  177.8390  139.1660 C   0  0  0  0  0  2  0  0  0  0  0  0
  191.1690  176.7480  139.0450 C   0  0  0  0  0  2  0  0  0  0  0  0
  189.5370  177.0640  141.4720 C   0  0  2  0  0  3  0  0  0  0  0  0
  191.9210  177.1250  140.3170 C   0  0  0  0  0  2  0  0  0  0  0  0
  188.9140  178.1930  140.6470 C   0  0  0  0  0  2  0  0  0  0  0  0
  187.3690  176.9180  142.7680 C   0  0  0  0  0  2  0  0  0  0  0  0
  188.8970  176.9460  142.8680 C   0  0  2  0  0  3  0  0  0  0  0  0
  190.9130  177.9070  143.9580 C   0  0  0  0  0  2  0  0  0  0  0  0
  188.7230  177.9610  145.1220 C   0  0  0  0  0  0  0  0  0  0  0  0
  187.4890  177.5540  145.2140 N   0  0  0  0  0  0  0  0  0  0  0  0
  191.6370  177.7200  142.6560 C   0  0  0  0  0  3  0  0  0  0  0  0
  185.5160  178.2230  143.9200 C   0  0  2  0  0  3  0  0  0  0  0  0
  183.3730  178.8220  142.7610 C   0  0  0  0  0  0  0  0  0  0  0  0
  183.5570  179.0020  145.1950 C   0  0  0  0  0  3  0  0  0  0  0  0
  184.7750  178.4520  145.2110 C   0  0  0  0  0  3  0  0  0  0  0  0
  182.9010  179.3180  143.9120 C   0  0  0  0  0  3  0  0  0  0  0  0
  184.5520  177.8790  142.7750 C   0  0  0  0  0  2  0  0  0  0  0  0
  182.3180  178.1050  140.6210 C   0  0  2  0  0  3  0  0  0  0  0  0
  181.3100  178.9310  141.3950 C   0  0  0  0  0  2  0  0  0  0  0  0
  182.7850  179.2870  141.4640 C   0  0  1  0  0  3  0  0  0  0  0  0
  181.2340  178.8280  138.6350 O   0  0  0  0  0  0  0  0  0  0  0  0
  182.3220  178.5040  139.1820 C   0  0  0  0  0  0  0  0  0  0  0  0
  183.5400  178.5390  138.4730 O   0  0  0  0  0  0  0  0  0  0  0  0
  183.5270  176.2050  137.8690 C   0  0  0  0  0  3  0  0  0  0  0  0
  184.1890  177.4410  137.8890 C   0  0  0  0  0  0  0  0  0  0  0  0
  187.4470  176.5140  136.1820 C   0  0  0  0  0  1  0  0  0  0  0  0
  185.4170  175.1770  136.7570 C   0  0  0  0  0  3  0  0  0  0  0  0
  186.0830  176.4070  136.7630 C   0  0  0  0  0  0  0  0  0  0  0  0
  184.1370  175.0770  137.3070 C   0  0  0  0  0  3  0  0  0  0  0  0
  185.4720  177.5350  137.3220 C   0  0  0  0  0  3  0  0  0  0  0  0
  189.4240  178.3290  146.2800 O   0  0  0  0  0  0  0  0  0  0  0  0
  189.0960  178.2520  148.7490 C   0  0  0  0  0  2  0  0  0  0  0  0
  189.4040  177.5620  147.4800 C   0  0  1  0  0  0  0  0  0  0  0  0
  188.1090  177.5420  148.0350 O   0  0  0  0  0  0  0  0  0  0  0  0
  190.0440  176.1850  147.5000 C   0  0  0  0  0  2  0  0  0  0  0  0
  191.5180  176.2580  147.2690 C   0  0  0  0  0  0  0  0  0  0  0  0
  192.0550  175.5960  146.2430 C   0  0  0  0  0  2  0  0  0  0  0  0
  192.4040  176.7700  148.3640 C   0  0  0  0  0  2  0  0  0  0  0  0
  193.1910  175.6300  148.9760 C   0  0  0  0  0  1  0  0  0  0  0  0
  1  6  1  0  0  0  0
  1  5  1  0  0  0  0
  2 12  1  1  0  0  0
  2 13  1  0  0  0  0
  3 10  1  6  0  0  0
  3 14  1  0  0  0  0
  4 15  2  0  0  0  0
  5  9  1  0  0  0  0
  6  8  1  0  0  0  0
  7  9  1  1  0  0  0
  7  4  1  0  0  0  0
  7 11  1  0  0  0  0
  8  4  1  0  0  0  0
 11 10  1  6  0  0  0
 11  2  1  0  0  0  0
 13 14  2  0  0  0  0
 13 35  1  0  0  0  0
 15 12  1  0  0  0  0
 16 21  1  6  0  0  0
 16  3  1  0  0  0  0
 16 19  1  0  0  0  0
 17 21  1  0  0  0  0
 17 20  2  0  0  0  0
 18 19  2  0  0  0  0
 20 18  1  0  0  0  0
 22 26  1  6  0  0  0
 22 23  1  0  0  0  0
 22 24  1  0  0  0  0
 23 24  1  0  0  0  0
 24 17  1  1  0  0  0
 25 26  2  0  0  0  0
 27 26  1  0  0  0  0
 28 29  1  0  0  0  0
 29 27  1  0  0  0  0
 30 32  1  0  0  0  0
 31 32  2  0  0  0  0
 31 33  1  0  0  0  0
 32 34  1  0  0  0  0
 33 28  2  0  0  0  0
 34 29  2  0  0  0  0
 35 37  1  0  0  0  0
 37 39  1  1  0  0  0
 37 38  1  0  0  0  0
 37 36  1  0  0  0  0
 38 36  1  0  0  0  0
 40 39  1  0  0  0  0
 40 42  1  0  0  0  0
 41 40  2  0  0  0  0
 42 43  1  0  0  0  0
M  END
>  <MODEL>
7

>  <REMARK>
 VINA RESULT:      -8.5      1.759      5.691
  Name = 
  10 active torsions:
  status: ('A' for Active; 'I' for Inactive)
    1  A    between atoms: O_1  and  C_34
    2  A    between atoms: O_1  and  C_35
    3  A    between atoms: C_2  and  C_13
    4  A    between atoms: C_3  and  C_42
    5  A    between atoms: O_4  and  C_14
    6  A    between atoms: O_4  and  C_41
    7  A    between atoms: C_9  and  C_19
    8  A    between atoms: C_10  and  C_41
    9  A    between atoms: C_19  and  C_32
   10  A    between atoms: C_32  and  C_35
                            x       y       z     vdW  Elec       q    Type
                         _______ _______ _______ _____ _____    ______ ____

>  <TORSDO>
F 10

$$$$
=
 OpenBabel10262422163D

 43 49  0  0  1  0  0  0  0  0999 V2000
  186.5730  177.2380  145.7360 C   0  0  0  0  0  2  0  0  0  0  0  0
  189.8570  176.7520  141.5980 C   0  0  2  0  0  3  0  0  0  0  0  0
  188.6380  178.3580  139.4830 C   0  0  1  0  0  3  0  0  0  0  0  0
  189.4120  177.2840  144.4080 C   0  0  0  0  0  0  0  0  0  0  0  0
  186.1900  177.6460  144.3150 C   0  0  0  0  0  2  0  0  0  0  0  0
  187.7810  178.0330  146.2230 C   0  0  0  0  0  2  0  0  0  0  0  0
  188.5010  177.9280  143.3720 C   0  0  2  0  0  3  0  0  0  0  0  0
  189.0790  177.3050  145.8830 C   0  0  0  0  0  2  0  0  0  0  0  0
  187.1940  177.1360  143.2920 C   0  0  0  0  0  2  0  0  0  0  0  0
  188.1850  178.5510  140.9410 C   0  0  0  0  0  2  0  0  0  0  0  0
  189.1820  178.0640  141.9970 C   0  0  2  0  0  3  0  0  0  0  0  0
  190.9490  176.4340  142.6230 C   0  0  0  0  0  2  0  0  0  0  0  0
  190.4650  176.8890  140.2330 C   0  0  0  0  0  0  0  0  0  0  0  0
  189.8960  177.6260  139.3230 N   0  0  0  0  0  0  0  0  0  0  0  0
  190.4760  176.5510  144.0430 C   0  0  0  0  0  3  0  0  0  0  0  0
  187.5470  177.7210  138.6240 C   0  0  2  0  0  3  0  0  0  0  0  0
  185.1250  177.7360  137.9690 C   0  0  0  0  0  0  0  0  0  0  0  0
  186.8720  177.7290  136.2540 C   0  0  0  0  0  3  0  0  0  0  0  0
  187.8500  177.8610  137.1550 C   0  0  0  0  0  3  0  0  0  0  0  0
  185.4800  177.5240  136.6940 C   0  0  0  0  0  3  0  0  0  0  0  0
  186.1440  178.2500  138.9570 C   0  0  0  0  0  2  0  0  0  0  0  0
  182.7150  178.3620  137.8980 C   0  0  2  0  0  3  0  0  0  0  0  0
  182.8770  177.0140  137.2240 C   0  0  0  0  0  2  0  0  0  0  0  0
  183.7460  177.3660  138.4200 C   0  0  1  0  0  3  0  0  0  0  0  0
  180.6590  177.4520  138.6610 O   0  0  0  0  0  0  0  0  0  0  0  0
  181.5290  178.3530  138.8040 C   0  0  0  0  0  0  0  0  0  0  0  0
  181.4180  179.3270  139.8160 O   0  0  0  0  0  0  0  0  0  0  0  0
  182.8200  178.8680  141.7230 C   0  0  0  0  0  3  0  0  0  0  0  0
  181.5430  179.1050  141.1960 C   0  0  0  0  0  0  0  0  0  0  0  0
  179.4350  178.8690  144.3410 C   0  0  0  0  0  1  0  0  0  0  0  0
  181.8900  178.6300  143.9470 C   0  0  0  0  0  3  0  0  0  0  0  0
  180.6120  178.8730  143.4330 C   0  0  0  0  0  0  0  0  0  0  0  0
  182.9950  178.6310  143.0920 C   0  0  0  0  0  3  0  0  0  0  0  0
  180.4380  179.1140  142.0660 C   0  0  0  0  0  3  0  0  0  0  0  0
  191.6490  176.1990  139.9320 O   0  0  0  0  0  0  0  0  0  0  0  0
  193.5520  177.7960  139.7450 C   0  0  0  0  0  2  0  0  0  0  0  0
  192.6960  176.7550  139.1420 C   0  0  1  0  0  0  0  0  0  0  0  0
  193.9540  176.4450  139.6960 O   0  0  0  0  0  0  0  0  0  0  0  0
  192.6830  176.5600  137.6360 C   0  0  0  0  0  2  0  0  0  0  0  0
  191.9630  175.3090  137.2470 C   0  0  0  0  0  0  0  0  0  0  0  0
  192.6270  174.1530  137.2180 C   0  0  0  0  0  2  0  0  0  0  0  0
  190.6300  175.4150  136.5710 C   0  0  0  0  0  2  0  0  0  0  0  0
  189.6350  174.4820  137.2310 C   0  0  0  0  0  1  0  0  0  0  0  0
  1  6  1  0  0  0  0
  2 11  1  0  0  0  0
  2 12  1  1  0  0  0
  3 10  1  1  0  0  0
  4  8  1  0  0  0  0
  5  1  1  0  0  0  0
  7  9  1  6  0  0  0
  7  4  1  0  0  0  0
  8  6  1  0  0  0  0
  9  5  1  0  0  0  0
 11 10  1  6  0  0  0
 11  7  1  0  0  0  0
 12 15  1  0  0  0  0
 13  2  1  0  0  0  0
 14  3  1  0  0  0  0
 14 13  2  0  0  0  0
 15  4  2  0  0  0  0
 16 19  1  6  0  0  0
 16 21  1  0  0  0  0
 16  3  1  0  0  0  0
 17 21  1  0  0  0  0
 18 20  1  0  0  0  0
 18 19  2  0  0  0  0
 20 17  2  0  0  0  0
 22 24  1  0  0  0  0
 22 26  1  1  0  0  0
 23 22  1  0  0  0  0
 23 24  1  0  0  0  0
 24 17  1  6  0  0  0
 25 26  2  0  0  0  0
 26 27  1  0  0  0  0
 27 29  1  0  0  0  0
 28 33  1  0  0  0  0
 29 28  2  0  0  0  0
 29 34  1  0  0  0  0
 32 31  1  0  0  0  0
 32 30  1  0  0  0  0
 33 31  2  0  0  0  0
 34 32  2  0  0  0  0
 35 13  1  0  0  0  0
 37 39  1  6  0  0  0
 37 38  1  0  0  0  0
 37 36  1  0  0  0  0
 37 35  1  0  0  0  0
 38 36  1  0  0  0  0
 40 39  1  0  0  0  0
 41 40  2  0  0  0  0
 42 43  1  0  0  0  0
 42 40  1  0  0  0  0
M  END
>  <MODEL>
8

>  <REMARK>
 VINA RESULT:      -8.4      2.115      5.010
  Name = 
  10 active torsions:
  status: ('A' for Active; 'I' for Inactive)
    1  A    between atoms: O_1  and  C_34
    2  A    between atoms: O_1  and  C_35
    3  A    between atoms: C_2  and  C_13
    4  A    between atoms: C_3  and  C_42
    5  A    between atoms: O_4  and  C_14
    6  A    between atoms: O_4  and  C_41
    7  A    between atoms: C_9  and  C_19
    8  A    between atoms: C_10  and  C_41
    9  A    between atoms: C_19  and  C_32
   10  A    between atoms: C_32  and  C_35
                            x       y       z     vdW  Elec       q    Type
                         _______ _______ _______ _____ _____    ______ ____

>  <TORSDO>
F 10

$$$$
=
 OpenBabel10262422163D

 43 49  0  0  1  0  0  0  0  0999 V2000
  187.7450  171.1890  136.1020 C   0  0  0  0  0  2  0  0  0  0  0  0
  184.3250  175.0940  137.2030 C   0  0  2  0  0  3  0  0  0  0  0  0
  185.6860  177.5390  136.3600 C   0  0  1  0  0  3  0  0  0  0  0  0
  184.9030  172.5100  136.0320 C   0  0  0  0  0  0  0  0  0  0  0  0
  188.1420  172.6640  136.1220 C   0  0  0  0  0  2  0  0  0  0  0  0
  186.6580  170.9330  135.0610 C   0  0  0  0  0  2  0  0  0  0  0  0
  185.8620  173.6680  135.7960 C   0  0  2  0  0  3  0  0  0  0  0  0
  185.2710  171.0870  135.6780 C   0  0  0  0  0  2  0  0  0  0  0  0
  187.0560  173.5310  136.7440 C   0  0  0  0  0  2  0  0  0  0  0  0
  186.1950  176.1750  135.8610 C   0  0  0  0  0  2  0  0  0  0  0  0
  185.1710  175.0380  135.9300 C   0  0  2  0  0  3  0  0  0  0  0  0
  183.2270  174.0320  137.1050 C   0  0  0  0  0  2  0  0  0  0  0  0
  183.7060  176.4540  137.3420 C   0  0  0  0  0  0  0  0  0  0  0  0
  184.3420  177.5170  136.9410 N   0  0  0  0  0  0  0  0  0  0  0  0
  183.7460  172.6840  136.6910 C   0  0  0  0  0  3  0  0  0  0  0  0
  186.6670  178.1960  137.3300 C   0  0  2  0  0  3  0  0  0  0  0  0
  188.0640  177.9270  139.3960 C   0  0  0  0  0  0  0  0  0  0  0  0
  189.0480  178.8300  137.3450 C   0  0  0  0  0  3  0  0  0  0  0  0
  187.9390  178.6050  136.6340 C   0  0  0  0  0  3  0  0  0  0  0  0
  189.0540  178.6070  138.8020 C   0  0  0  0  0  3  0  0  0  0  0  0
  186.9580  177.3270  138.5610 C   0  0  0  0  0  2  0  0  0  0  0  0
  189.3550  177.4020  141.4610 C   0  0  2  0  0  3  0  0  0  0  0  0
  188.9690  178.8670  141.5000 C   0  0  0  0  0  2  0  0  0  0  0  0
  188.0150  177.8540  140.8910 C   0  0  1  0  0  3  0  0  0  0  0  0
  188.5880  175.6290  142.8420 O   0  0  0  0  0  0  0  0  0  0  0  0
  189.1270  176.7680  142.7930 C   0  0  0  0  0  0  0  0  0  0  0  0
  189.5400  177.4360  143.9620 O   0  0  0  0  0  0  0  0  0  0  0  0
  189.4950  177.2210  146.3630 C   0  0  0  0  0  3  0  0  0  0  0  0
  188.8250  177.5140  145.1670 C   0  0  0  0  0  0  0  0  0  0  0  0
  185.3550  178.2960  146.4850 C   0  0  0  0  0  1  0  0  0  0  0  0
  187.4710  177.6240  147.6300 C   0  0  0  0  0  3  0  0  0  0  0  0
  186.7950  177.9270  146.4450 C   0  0  0  0  0  0  0  0  0  0  0  0
  188.8230  177.2740  147.5900 C   0  0  0  0  0  3  0  0  0  0  0  0
  187.4680  177.8770  145.2190 C   0  0  0  0  0  3  0  0  0  0  0  0
  182.4380  176.5790  137.9280 O   0  0  0  0  0  0  0  0  0  0  0  0
  180.8750  177.0360  139.8130 C   0  0  0  0  0  2  0  0  0  0  0  0
  182.2400  176.7490  139.3280 C   0  0  1  0  0  0  0  0  0  0  0  0
  181.4100  175.7310  139.8390 O   0  0  0  0  0  0  0  0  0  0  0  0
  183.4360  177.0040  140.2290 C   0  0  0  0  0  2  0  0  0  0  0  0
  183.5230  178.4380  140.6380 C   0  0  0  0  0  0  0  0  0  0  0  0
  183.9210  179.3510  139.7500 C   0  0  0  0  0  2  0  0  0  0  0  0
  183.5040  178.7840  142.0960 C   0  0  0  0  0  2  0  0  0  0  0  0
  184.7430  178.2400  142.7780 C   0  0  0  0  0  1  0  0  0  0  0  0
  1  5  1  0  0  0  0
  2 12  1  6  0  0  0
  2 13  1  0  0  0  0
  3 10  1  1  0  0  0
  3 14  1  0  0  0  0
  3 16  1  0  0  0  0
  4 15  2  0  0  0  0
  5  9  1  0  0  0  0
  6  8  1  0  0  0  0
  6  1  1  0  0  0  0
  7 11  1  0  0  0  0
  7  4  1  0  0  0  0
  7  9  1  1  0  0  0
  8  4  1  0  0  0  0
 11 10  1  1  0  0  0
 11  2  1  0  0  0  0
 13 35  1  0  0  0  0
 14 13  2  0  0  0  0
 15 12  1  0  0  0  0
 16 19  1  6  0  0  0
 16 21  1  0  0  0  0
 18 20  1  0  0  0  0
 19 18  2  0  0  0  0
 20 17  2  0  0  0  0
 21 17  1  0  0  0  0
 22 23  1  0  0  0  0
 22 26  1  1  0  0  0
 24 17  1  6  0  0  0
 24 22  1  0  0  0  0
 24 23  1  0  0  0  0
 26 25  2  0  0  0  0
 26 27  1  0  0  0  0
 27 29  1  0  0  0  0
 28 33  1  0  0  0  0
 29 34  1  0  0  0  0
 29 28  2  0  0  0  0
 32 30  1  0  0  0  0
 32 31  1  0  0  0  0
 33 31  2  0  0  0  0
 34 32  2  0  0  0  0
 35 37  1  0  0  0  0
 36 38  1  0  0  0  0
 37 36  1  0  0  0  0
 37 38  1  0  0  0  0
 37 39  1  1  0  0  0
 39 40  1  0  0  0  0
 40 42  1  0  0  0  0
 41 40  2  0  0  0  0
 42 43  1  0  0  0  0
M  END
>  <MODEL>
9

>  <REMARK>
 VINA RESULT:      -8.3      2.565      8.651
  Name = 
  10 active torsions:
  status: ('A' for Active; 'I' for Inactive)
    1  A    between atoms: O_1  and  C_34
    2  A    between atoms: O_1  and  C_35
    3  A    between atoms: C_2  and  C_13
    4  A    between atoms: C_3  and  C_42
    5  A    between atoms: O_4  and  C_14
    6  A    between atoms: O_4  and  C_41
    7  A    between atoms: C_9  and  C_19
    8  A    between atoms: C_10  and  C_41
    9  A    between atoms: C_19  and  C_32
   10  A    between atoms: C_32  and  C_35
                            x       y       z     vdW  Elec       q    Type
                         _______ _______ _______ _____ _____    ______ ____

>  <TORSDO>
F 10

$$$$
