=
 OpenBabel10252415003D

 34 39  0  0  1  0  0  0  0  0999 V2000
  184.9590  178.8210  142.6660 C   0  0  0  0  0  0  0  0  0  0  0  0
  186.6090  177.5560  144.0040 C   0  0  0  0  0  0  0  0  0  0  0  0
  186.9700  178.0740  141.5200 C   0  0  0  0  0  0  0  0  0  0  0  0
  188.8410  177.0270  140.2480 C   0  0  2  0  0  3  0  0  0  0  0  0
  184.9720  179.0580  145.1520 C   0  0  0  0  0  2  0  0  0  0  0  0
  185.9320  177.9620  145.1960 N   0  0  0  0  0  2  0  0  0  0  0  0
  189.3060  178.0150  142.4650 C   0  0  0  0  0  2  0  0  0  0  0  0
  186.2060  178.1630  142.7110 C   0  0  0  0  0  0  0  0  0  0  0  0
  190.6240  176.7590  140.4340 S   0  0  0  0  0  0  0  0  0  0  0  0
  184.1050  178.9410  143.8990 C   0  0  0  0  0  2  0  0  0  0  0  0
  186.4130  178.5240  140.3060 C   0  0  0  0  0  0  0  0  0  0  0  0
  184.4670  179.2730  141.4830 N   0  0  0  0  0  0  0  0  0  0  0  0
  187.4570  176.6270  144.0600 O   0  0  0  0  0  0  0  0  0  0  0  0
  188.5770  178.0250  139.1270 C   0  0  0  0  0  2  0  0  0  0  0  0
  187.1540  178.3540  139.0760 N   0  0  0  0  0  0  0  0  0  0  0  0
  190.6820  177.9180  141.8330 C   0  0  2  0  0  3  0  0  0  0  0  0
  188.3180  177.5710  141.4940 N   0  0  0  0  0  0  0  0  0  0  0  0
  185.1530  179.1320  140.3210 C   0  0  0  0  0  3  0  0  0  0  0  0
  187.8070  177.3240  135.9660 C   0  0  2  0  0  3  0  0  0  0  0  0
  186.5510  176.8440  135.2330 C   0  0  0  0  0  2  0  0  0  0  0  0
  186.5380  178.3920  137.7500 C   0  0  1  0  0  3  0  0  0  0  0  0
  185.2690  177.0830  136.0380 C   0  0  0  0  0  2  0  0  0  0  0  0
  187.5510  178.5700  136.6920 N   0  0  0  0  0  2  0  0  0  0  0  0
  185.5650  177.2240  137.5250 C   0  0  0  0  0  2  0  0  0  0  0  0
  188.9310  177.5310  134.9740 C   0  0  0  0  0  1  0  0  0  0  0  0
  191.7430  177.5320  142.8590 C   0  0  0  0  0  2  0  0  0  0  0  0
  191.4720  178.1360  144.1600 N   0  0  0  0  0  2  0  0  0  0  0  0
  189.1780  178.6180  145.6820 F   0  0  0  0  0  0  0  0  0  0  0  0
  191.1950  177.3770  145.3410 C   0  0  0  0  0  0  0  0  0  0  0  0
  190.0370  177.6480  146.0820 C   0  0  0  0  0  0  0  0  0  0  0  0
  190.6310  175.9110  147.6640 C   0  0  0  0  0  3  0  0  0  0  0  0
  191.7890  175.6390  146.9320 C   0  0  0  0  0  3  0  0  0  0  0  0
  192.0720  176.3700  145.7740 C   0  0  0  0  0  3  0  0  0  0  0  0
  189.7570  176.9150  147.2400 C   0  0  0  0  0  3  0  0  0  0  0  0
  1  8  1  0  0  0  0
  1 10  1  0  0  0  0
  2 13  2  0  0  0  0
  2  6  1  0  0  0  0
  3  8  2  0  0  0  0
  4 14  1  6  0  0  0
  4  9  1  0  0  0  0
  4 17  1  0  0  0  0
  5  6  1  0  0  0  0
  8  2  1  0  0  0  0
  9 16  1  0  0  0  0
 10  5  1  0  0  0  0
 11 18  2  0  0  0  0
 11  3  1  0  0  0  0
 12  1  2  0  0  0  0
 15 14  1  0  0  0  0
 15 11  1  0  0  0  0
 16  7  1  0  0  0  0
 16 26  1  1  0  0  0
 17  3  1  0  0  0  0
 17  7  1  0  0  0  0
 18 12  1  0  0  0  0
 19 25  1  6  0  0  0
 19 23  1  0  0  0  0
 20 19  1  0  0  0  0
 20 22  1  0  0  0  0
 21 24  1  6  0  0  0
 21 15  1  0  0  0  0
 22 24  1  0  0  0  0
 23 21  1  0  0  0  0
 26 27  1  0  0  0  0
 27 29  1  0  0  0  0
 28 30  1  0  0  0  0
 29 33  2  0  0  0  0
 29 30  1  0  0  0  0
 30 34  2  0  0  0  0
 32 31  2  0  0  0  0
 33 32  1  0  0  0  0
 34 31  1  0  0  0  0
M  END
>  <MODEL>
1

>  <REMARK>
 VINA RESULT:      -8.9      0.000      0.000
  Name = 
  4 active torsions:
  status: ('A' for Active; 'I' for Inactive)
    1  A    between atoms: N_3  and  C_13
    2  A    between atoms: N_3  and  C_17
    3  A    between atoms: C_12  and  N_28
    4  A    between atoms: C_17  and  C_29
                            x       y       z     vdW  Elec       q    Type
                         _______ _______ _______ _____ _____    ______ ____

>  <TORSDO>
F 4

$$$$
=
 OpenBabel10252415003D

 34 39  0  0  1  0  0  0  0  0999 V2000
  188.5270  177.5710  138.5430 C   0  0  0  0  0  0  0  0  0  0  0  0
  189.4100  178.0760  140.7970 C   0  0  0  0  0  0  0  0  0  0  0  0
  186.9170  178.2550  140.2320 C   0  0  0  0  0  0  0  0  0  0  0  0
  185.3070  179.2810  141.8350 C   0  0  2  0  0  3  0  0  0  0  0  0
  190.7240  176.6160  139.2480 C   0  0  0  0  0  2  0  0  0  0  0  0
  190.6490  177.4630  140.4320 N   0  0  0  0  0  2  0  0  0  0  0  0
  186.9330  177.6200  142.6710 C   0  0  0  0  0  2  0  0  0  0  0  0
  188.2550  177.9560  139.8730 C   0  0  0  0  0  0  0  0  0  0  0  0
  184.8830  179.1650  143.5930 S   0  0  0  0  0  0  0  0  0  0  0  0
  189.9300  177.2470  138.1060 C   0  0  0  0  0  2  0  0  0  0  0  0
  185.9230  178.2860  139.2330 C   0  0  0  0  0  0  0  0  0  0  0  0
  187.5380  177.5810  137.6130 N   0  0  0  0  0  0  0  0  0  0  0  0
  189.3520  178.7820  141.8370 O   0  0  0  0  0  0  0  0  0  0  0  0
  184.1730  178.7190  140.9860 C   0  0  0  0  0  2  0  0  0  0  0  0
  184.5740  178.6770  139.5810 N   0  0  0  0  0  0  0  0  0  0  0  0
  185.8800  177.6540  143.7620 C   0  0  2  0  0  3  0  0  0  0  0  0
  186.5090  178.4970  141.5910 N   0  0  0  0  0  0  0  0  0  0  0  0
  186.2650  177.9340  137.9230 C   0  0  0  0  0  3  0  0  0  0  0  0
  181.3310  178.2730  138.8910 C   0  0  2  0  0  3  0  0  0  0  0  0
  180.6720  179.5650  138.3980 C   0  0  0  0  0  2  0  0  0  0  0  0
  183.5890  179.1390  138.6030 C   0  0  1  0  0  3  0  0  0  0  0  0
  181.6800  180.7020  138.1960 C   0  0  0  0  0  2  0  0  0  0  0  0
  182.6340  178.0700  138.2560 N   0  0  0  0  0  2  0  0  0  0  0  0
  182.9460  180.4750  139.0100 C   0  0  0  0  0  2  0  0  0  0  0  0
  180.4290  177.0950  138.5990 C   0  0  0  0  0  1  0  0  0  0  0  0
  186.5050  177.5280  145.1480 C   0  0  0  0  0  2  0  0  0  0  0  0
  187.7630  178.2650  145.2340 N   0  0  0  0  0  2  0  0  0  0  0  0
  188.1730  177.7460  147.9500 F   0  0  0  0  0  0  0  0  0  0  0  0
  188.9860  177.6880  145.7000 C   0  0  0  0  0  0  0  0  0  0  0  0
  189.1600  177.4440  147.0700 C   0  0  0  0  0  0  0  0  0  0  0  0
  191.3770  176.5650  146.6430 C   0  0  0  0  0  3  0  0  0  0  0  0
  191.2120  176.8090  145.2780 C   0  0  0  0  0  3  0  0  0  0  0  0
  190.0210  177.3700  144.8070 C   0  0  0  0  0  3  0  0  0  0  0  0
  190.3520  176.8830  147.5380 C   0  0  0  0  0  3  0  0  0  0  0  0
  1  8  1  0  0  0  0
  2 13  2  0  0  0  0
  3 17  1  0  0  0  0
  4 14  1  6  0  0  0
  4  9  1  0  0  0  0
  5  6  1  0  0  0  0
  6  2  1  0  0  0  0
  7 16  1  0  0  0  0
  8  3  2  0  0  0  0
  8  2  1  0  0  0  0
  9 16  1  0  0  0  0
 10  1  1  0  0  0  0
 10  5  1  0  0  0  0
 11 15  1  0  0  0  0
 11  3  1  0  0  0  0
 12 18  1  0  0  0  0
 12  1  2  0  0  0  0
 15 14  1  0  0  0  0
 16 26  1  1  0  0  0
 17  4  1  0  0  0  0
 17  7  1  0  0  0  0
 18 11  2  0  0  0  0
 19 25  1  6  0  0  0
 20 19  1  0  0  0  0
 21 24  1  1  0  0  0
 21 15  1  0  0  0  0
 22 20  1  0  0  0  0
 22 24  1  0  0  0  0
 23 21  1  0  0  0  0
 23 19  1  0  0  0  0
 26 27  1  0  0  0  0
 27 29  1  0  0  0  0
 29 30  1  0  0  0  0
 30 34  2  0  0  0  0
 30 28  1  0  0  0  0
 31 34  1  0  0  0  0
 32 31  2  0  0  0  0
 33 32  1  0  0  0  0
 33 29  2  0  0  0  0
M  END
>  <MODEL>
2

>  <REMARK>
 VINA RESULT:      -8.7      2.600      4.820
  Name = 
  4 active torsions:
  status: ('A' for Active; 'I' for Inactive)
    1  A    between atoms: N_3  and  C_13
    2  A    between atoms: N_3  and  C_17
    3  A    between atoms: C_12  and  N_28
    4  A    between atoms: C_17  and  C_29
                            x       y       z     vdW  Elec       q    Type
                         _______ _______ _______ _____ _____    ______ ____

>  <TORSDO>
F 4

$$$$
=
 OpenBabel10252415003D

 34 39  0  0  1  0  0  0  0  0999 V2000
  185.0760  178.2890  143.5880 C   0  0  0  0  0  0  0  0  0  0  0  0
  186.1720  179.0020  141.4890 C   0  0  0  0  0  0  0  0  0  0  0  0
  187.4740  177.9210  143.4140 C   0  0  0  0  0  0  0  0  0  0  0  0
  189.9660  177.8530  143.4000 C   0  0  2  0  0  3  0  0  0  0  0  0
  183.7130  178.5440  141.5110 C   0  0  0  0  0  2  0  0  0  0  0  0
  184.8850  179.1400  140.8820 N   0  0  0  0  0  2  0  0  0  0  0  0
  188.7400  177.2010  141.3560 C   0  0  0  0  0  2  0  0  0  0  0  0
  186.2640  178.3780  142.8320 C   0  0  0  0  0  0  0  0  0  0  0  0
  191.3040  177.4020  142.2640 S   0  0  0  0  0  0  0  0  0  0  0  0
  183.7650  178.7640  143.0220 C   0  0  0  0  0  2  0  0  0  0  0  0
  187.4820  177.5150  144.7630 C   0  0  0  0  0  0  0  0  0  0  0  0
  185.1160  177.8620  144.8760 N   0  0  0  0  0  0  0  0  0  0  0  0
  187.1800  179.4970  140.9210 O   0  0  0  0  0  0  0  0  0  0  0  0
  189.9000  176.8560  144.5510 C   0  0  0  0  0  2  0  0  0  0  0  0
  188.7320  177.1320  145.3840 N   0  0  0  0  0  0  0  0  0  0  0  0
  190.1190  176.6070  141.1380 C   0  0  2  0  0  3  0  0  0  0  0  0
  188.7040  177.8160  142.6740 N   0  0  0  0  0  0  0  0  0  0  0  0
  186.2760  177.4880  145.4720 C   0  0  0  0  0  3  0  0  0  0  0  0
  191.2540  176.9580  147.5660 C   0  0  2  0  0  3  0  0  0  0  0  0
  191.0080  177.8100  148.8150 C   0  0  0  0  0  2  0  0  0  0  0  0
  188.9360  177.0970  146.8320 C   0  0  1  0  0  3  0  0  0  0  0  0
  189.6050  178.4260  148.8420 C   0  0  0  0  0  2  0  0  0  0  0  0
  190.0550  176.2060  147.1960 N   0  0  0  0  0  2  0  0  0  0  0  0
  189.0060  178.5050  147.4460 C   0  0  0  0  0  2  0  0  0  0  0  0
  192.4010  176.0030  147.8170 C   0  0  0  0  0  1  0  0  0  0  0  0
  190.5500  176.7150  139.6780 C   0  0  0  0  0  2  0  0  0  0  0  0
  189.8380  177.7880  138.9900 N   0  0  0  0  0  2  0  0  0  0  0  0
  189.0570  179.8470  137.2690 F   0  0  0  0  0  0  0  0  0  0  0  0
  188.8740  177.5620  137.9580 C   0  0  0  0  0  0  0  0  0  0  0  0
  188.5020  178.6190  137.1140 C   0  0  0  0  0  0  0  0  0  0  0  0
  186.9800  177.1520  135.9300 C   0  0  0  0  0  3  0  0  0  0  0  0
  187.3430  176.0960  136.7700 C   0  0  0  0  0  3  0  0  0  0  0  0
  188.2860  176.3000  137.7820 C   0  0  0  0  0  3  0  0  0  0  0  0
  187.5590  178.4120  136.1030 C   0  0  0  0  0  3  0  0  0  0  0  0
  1 12  1  0  0  0  0
  2  8  1  0  0  0  0
  3 11  2  0  0  0  0
  4 14  1  1  0  0  0
  5 10  1  0  0  0  0
  6  2  1  0  0  0  0
  6  5  1  0  0  0  0
  7 17  1  0  0  0  0
  8  3  1  0  0  0  0
  8  1  2  0  0  0  0
  9  4  1  0  0  0  0
 10  1  1  0  0  0  0
 11 15  1  0  0  0  0
 11 18  1  0  0  0  0
 12 18  2  0  0  0  0
 13  2  2  0  0  0  0
 14 15  1  0  0  0  0
 16 26  1  6  0  0  0
 16  7  1  0  0  0  0
 16  9  1  0  0  0  0
 17  4  1  0  0  0  0
 17  3  1  0  0  0  0
 19 25  1  1  0  0  0
 19 20  1  0  0  0  0
 20 22  1  0  0  0  0
 21 15  1  6  0  0  0
 21 23  1  0  0  0  0
 21 24  1  0  0  0  0
 23 19  1  0  0  0  0
 24 22  1  0  0  0  0
 27 26  1  0  0  0  0
 29 27  1  0  0  0  0
 30 28  1  0  0  0  0
 30 29  2  0  0  0  0
 31 34  2  0  0  0  0
 31 32  1  0  0  0  0
 32 33  2  0  0  0  0
 33 29  1  0  0  0  0
 34 30  1  0  0  0  0
M  END
>  <MODEL>
3

>  <REMARK>
 VINA RESULT:      -8.6      2.312      7.702
  Name = 
  4 active torsions:
  status: ('A' for Active; 'I' for Inactive)
    1  A    between atoms: N_3  and  C_13
    2  A    between atoms: N_3  and  C_17
    3  A    between atoms: C_12  and  N_28
    4  A    between atoms: C_17  and  C_29
                            x       y       z     vdW  Elec       q    Type
                         _______ _______ _______ _____ _____    ______ ____

>  <TORSDO>
F 4

$$$$
=
 OpenBabel10252415003D

 34 39  0  0  1  0  0  0  0  0999 V2000
  192.6830  175.0130  136.8260 C   0  0  0  0  0  0  0  0  0  0  0  0
  193.3970  176.3590  138.7730 C   0  0  0  0  0  0  0  0  0  0  0  0
  190.9730  176.3360  137.9390 C   0  0  0  0  0  0  0  0  0  0  0  0
  189.2900  177.9390  138.8400 C   0  0  2  0  0  3  0  0  0  0  0  0
  194.7580  174.3850  138.0640 C   0  0  0  0  0  2  0  0  0  0  0  0
  194.6280  175.6330  138.8040 N   0  0  0  0  0  2  0  0  0  0  0  0
  190.7500  176.7240  140.4200 C   0  0  0  0  0  2  0  0  0  0  0  0
  192.3200  175.8990  137.8620 C   0  0  0  0  0  0  0  0  0  0  0  0
  188.7140  178.5380  140.4510 S   0  0  0  0  0  0  0  0  0  0  0  0
  194.0990  174.5200  136.6920 C   0  0  0  0  0  2  0  0  0  0  0  0
  190.0710  175.9830  136.9160 C   0  0  0  0  0  0  0  0  0  0  0  0
  191.7780  174.6670  135.8740 N   0  0  0  0  0  0  0  0  0  0  0  0
  193.2880  177.4220  139.4390 O   0  0  0  0  0  0  0  0  0  0  0  0
  188.2040  177.1030  138.1740 C   0  0  0  0  0  2  0  0  0  0  0  0
  188.7200  176.5000  136.9470 N   0  0  0  0  0  0  0  0  0  0  0  0
  189.6110  177.2040  141.3000 C   0  0  2  0  0  3  0  0  0  0  0  0
  190.4660  177.1050  139.0460 N   0  0  0  0  0  0  0  0  0  0  0  0
  190.5040  175.1330  135.8930 C   0  0  0  0  0  3  0  0  0  0  0  0
  185.5290  175.9130  136.1580 C   0  0  2  0  0  3  0  0  0  0  0  0
  184.9860  176.9110  135.1300 C   0  0  0  0  0  2  0  0  0  0  0  0
  187.8480  176.5500  135.7740 C   0  0  1  0  0  3  0  0  0  0  0  0
  186.0700  177.8530  134.5940 C   0  0  0  0  0  2  0  0  0  0  0  0
  186.8660  175.4480  135.7880 N   0  0  0  0  0  2  0  0  0  0  0  0
  187.2480  177.9480  135.5530 C   0  0  0  0  0  2  0  0  0  0  0  0
  184.5890  174.7320  136.2690 C   0  0  0  0  0  1  0  0  0  0  0  0
  190.1090  177.6310  142.6780 C   0  0  0  0  0  2  0  0  0  0  0  0
  189.6210  176.7360  143.7220 N   0  0  0  0  0  2  0  0  0  0  0  0
  190.3400  176.9750  146.4120 F   0  0  0  0  0  0  0  0  0  0  0  0
  188.6630  177.1240  144.7110 C   0  0  0  0  0  0  0  0  0  0  0  0
  189.0580  177.2310  146.0520 C   0  0  0  0  0  0  0  0  0  0  0  0
  186.8060  177.8760  146.6740 C   0  0  0  0  0  3  0  0  0  0  0  0
  186.4060  177.7670  145.3400 C   0  0  0  0  0  3  0  0  0  0  0  0
  187.3300  177.3910  144.3610 C   0  0  0  0  0  3  0  0  0  0  0  0
  188.1310  177.6070  147.0290 C   0  0  0  0  0  3  0  0  0  0  0  0
  1  8  1  0  0  0  0
  2  6  1  0  0  0  0
  2 13  2  0  0  0  0
  3 17  1  0  0  0  0
  4 14  1  1  0  0  0
  4 17  1  0  0  0  0
  4  9  1  0  0  0  0
  5  6  1  0  0  0  0
  7 16  1  0  0  0  0
  8  3  2  0  0  0  0
  8  2  1  0  0  0  0
  9 16  1  0  0  0  0
 10  1  1  0  0  0  0
 10  5  1  0  0  0  0
 11 15  1  0  0  0  0
 11  3  1  0  0  0  0
 12 18  1  0  0  0  0
 12  1  2  0  0  0  0
 15 14  1  0  0  0  0
 16 26  1  1  0  0  0
 17  7  1  0  0  0  0
 18 11  2  0  0  0  0
 19 25  1  6  0  0  0
 20 19  1  0  0  0  0
 21 24  1  1  0  0  0
 21 23  1  0  0  0  0
 21 15  1  0  0  0  0
 22 20  1  0  0  0  0
 22 24  1  0  0  0  0
 23 19  1  0  0  0  0
 26 27  1  0  0  0  0
 27 29  1  0  0  0  0
 29 30  1  0  0  0  0
 30 28  1  0  0  0  0
 30 34  2  0  0  0  0
 31 34  1  0  0  0  0
 32 31  2  0  0  0  0
 33 29  2  0  0  0  0
 33 32  1  0  0  0  0
M  END
>  <MODEL>
4

>  <REMARK>
 VINA RESULT:      -8.5      3.372      5.981
  Name = 
  4 active torsions:
  status: ('A' for Active; 'I' for Inactive)
    1  A    between atoms: N_3  and  C_13
    2  A    between atoms: N_3  and  C_17
    3  A    between atoms: C_12  and  N_28
    4  A    between atoms: C_17  and  C_29
                            x       y       z     vdW  Elec       q    Type
                         _______ _______ _______ _____ _____    ______ ____

>  <TORSDO>
F 4

$$$$
=
 OpenBabel10252415003D

 34 39  0  0  1  0  0  0  0  0999 V2000
  185.8230  178.5450  140.5270 C   0  0  0  0  0  0  0  0  0  0  0  0
  186.4070  177.8680  142.8330 C   0  0  0  0  0  0  0  0  0  0  0  0
  188.1080  177.8090  140.9160 C   0  0  0  0  0  0  0  0  0  0  0  0
  190.3390  176.7370  141.2120 C   0  0  2  0  0  3  0  0  0  0  0  0
  184.4520  179.3790  142.4410 C   0  0  0  0  0  2  0  0  0  0  0  0
  185.1920  178.4610  143.2980 N   0  0  0  0  0  2  0  0  0  0  0  0
  189.5160  178.2860  142.9520 C   0  0  0  0  0  2  0  0  0  0  0  0
  186.8120  178.0860  141.4220 C   0  0  0  0  0  0  0  0  0  0  0  0
  191.7050  176.7560  142.4030 S   0  0  0  0  0  0  0  0  0  0  0  0
  184.4300  178.8490  141.0080 C   0  0  0  0  0  2  0  0  0  0  0  0
  188.3370  177.8740  139.5270 C   0  0  0  0  0  0  0  0  0  0  0  0
  186.0890  178.6280  139.1980 N   0  0  0  0  0  0  0  0  0  0  0  0
  187.0510  177.0990  143.5930 O   0  0  0  0  0  0  0  0  0  0  0  0
  190.7750  177.3900  139.9060 C   0  0  0  0  0  2  0  0  0  0  0  0
  189.6340  177.5080  139.0010 N   0  0  0  0  0  0  0  0  0  0  0  0
  191.0060  178.2180  143.2260 C   0  0  2  0  0  3  0  0  0  0  0  0
  189.2260  177.4950  141.7670 N   0  0  0  0  0  0  0  0  0  0  0  0
  187.3020  178.2980  138.6870 C   0  0  0  0  0  3  0  0  0  0  0  0
  191.4180  175.3030  137.2380 C   0  0  2  0  0  3  0  0  0  0  0  0
  190.6610  174.7830  136.0120 C   0  0  0  0  0  2  0  0  0  0  0  0
  189.8640  177.1420  137.6040 C   0  0  1  0  0  3  0  0  0  0  0  0
  189.3230  175.5010  135.7970 C   0  0  0  0  0  2  0  0  0  0  0  0
  191.2690  176.7530  137.3750 N   0  0  0  0  0  2  0  0  0  0  0  0
  188.8220  176.1390  137.0840 C   0  0  0  0  0  2  0  0  0  0  0  0
  192.8850  174.9480  137.1210 C   0  0  0  0  0  1  0  0  0  0  0  0
  191.3020  178.2340  144.7220 C   0  0  0  0  0  2  0  0  0  0  0  0
  190.5370  177.2110  145.4280 N   0  0  0  0  0  2  0  0  0  0  0  0
  191.3040  177.4120  148.1080 F   0  0  0  0  0  0  0  0  0  0  0  0
  189.5800  177.5040  146.4510 C   0  0  0  0  0  0  0  0  0  0  0  0
  190.0000  177.5940  147.7850 C   0  0  0  0  0  0  0  0  0  0  0  0
  187.7270  178.0700  148.4780 C   0  0  0  0  0  3  0  0  0  0  0  0
  187.3020  177.9780  147.1500 C   0  0  0  0  0  3  0  0  0  0  0  0
  188.2250  177.6940  146.1390 C   0  0  0  0  0  3  0  0  0  0  0  0
  189.0740  177.8780  148.7940 C   0  0  0  0  0  3  0  0  0  0  0  0
  1 10  1  0  0  0  0
  1  8  1  0  0  0  0
  2  6  1  0  0  0  0
  2 13  2  0  0  0  0
  3  8  2  0  0  0  0
  3 17  1  0  0  0  0
  4 14  1  6  0  0  0
  4 17  1  0  0  0  0
  4  9  1  0  0  0  0
  5  6  1  0  0  0  0
  7 16  1  0  0  0  0
  8  2  1  0  0  0  0
  9 16  1  0  0  0  0
 10  5  1  0  0  0  0
 11  3  1  0  0  0  0
 12  1  2  0  0  0  0
 15 11  1  0  0  0  0
 15 14  1  0  0  0  0
 16 26  1  1  0  0  0
 17  7  1  0  0  0  0
 18 12  1  0  0  0  0
 18 11  2  0  0  0  0
 19 25  1  6  0  0  0
 19 23  1  0  0  0  0
 20 19  1  0  0  0  0
 21 24  1  1  0  0  0
 21 15  1  0  0  0  0
 22 20  1  0  0  0  0
 22 24  1  0  0  0  0
 23 21  1  0  0  0  0
 26 27  1  0  0  0  0
 27 29  1  0  0  0  0
 29 30  1  0  0  0  0
 30 28  1  0  0  0  0
 30 34  2  0  0  0  0
 31 34  1  0  0  0  0
 32 31  2  0  0  0  0
 33 29  2  0  0  0  0
 33 32  1  0  0  0  0
M  END
>  <MODEL>
5

>  <REMARK>
 VINA RESULT:      -8.4      2.146      2.930
  Name = 
  4 active torsions:
  status: ('A' for Active; 'I' for Inactive)
    1  A    between atoms: N_3  and  C_13
    2  A    between atoms: N_3  and  C_17
    3  A    between atoms: C_12  and  N_28
    4  A    between atoms: C_17  and  C_29
                            x       y       z     vdW  Elec       q    Type
                         _______ _______ _______ _____ _____    ______ ____

>  <TORSDO>
F 4

$$$$
=
 OpenBabel10252415003D

 34 39  0  0  1  0  0  0  0  0999 V2000
  186.9970  177.5900  136.2900 C   0  0  0  0  0  0  0  0  0  0  0  0
  188.7020  178.5410  137.8070 C   0  0  0  0  0  0  0  0  0  0  0  0
  186.2720  178.1770  138.5360 C   0  0  0  0  0  0  0  0  0  0  0  0
  185.4300  179.0860  140.6990 C   0  0  2  0  0  3  0  0  0  0  0  0
  189.4170  177.1630  135.8460 C   0  0  0  0  0  2  0  0  0  0  0  0
  189.7220  178.1290  136.8940 N   0  0  0  0  0  2  0  0  0  0  0  0
  187.5870  177.8810  140.6660 C   0  0  0  0  0  2  0  0  0  0  0  0
  187.3080  178.0880  137.5730 C   0  0  0  0  0  0  0  0  0  0  0  0
  185.9300  179.1230  142.4410 S   0  0  0  0  0  0  0  0  0  0  0  0
  188.0560  177.4790  135.2270 C   0  0  0  0  0  2  0  0  0  0  0  0
  184.9460  177.8910  138.1530 C   0  0  0  0  0  0  0  0  0  0  0  0
  185.7120  177.2930  135.9660 N   0  0  0  0  0  0  0  0  0  0  0  0
  188.9850  179.3550  138.7250 O   0  0  0  0  0  0  0  0  0  0  0  0
  184.1900  178.2160  140.5300 C   0  0  0  0  0  2  0  0  0  0  0  0
  183.8750  178.0650  139.1110 N   0  0  0  0  0  0  0  0  0  0  0  0
  187.2010  177.8610  142.1330 C   0  0  2  0  0  3  0  0  0  0  0  0
  186.5160  178.5150  139.9140 N   0  0  0  0  0  0  0  0  0  0  0  0
  184.6960  177.4400  136.8530 C   0  0  0  0  0  3  0  0  0  0  0  0
  180.9200  176.7060  139.8690 C   0  0  2  0  0  3  0  0  0  0  0  0
  179.7880  177.7380  139.8860 C   0  0  0  0  0  2  0  0  0  0  0  0
  182.4690  178.2040  138.7330 C   0  0  1  0  0  3  0  0  0  0  0  0
  180.2430  179.1220  139.4090 C   0  0  0  0  0  2  0  0  0  0  0  0
  181.7890  176.8950  138.7060 N   0  0  0  0  0  2  0  0  0  0  0  0
  181.7500  179.2900  139.5490 C   0  0  0  0  0  2  0  0  0  0  0  0
  180.3390  175.3090  139.8530 C   0  0  0  0  0  1  0  0  0  0  0  0
  188.4190  178.0370  143.0350 C   0  0  0  0  0  2  0  0  0  0  0  0
  188.4210  177.0640  144.1240 N   0  0  0  0  0  2  0  0  0  0  0  0
  190.5040  176.7740  145.9650 F   0  0  0  0  0  0  0  0  0  0  0  0
  188.2460  177.4170  145.4990 C   0  0  0  0  0  0  0  0  0  0  0  0
  189.3110  177.2550  146.3960 C   0  0  0  0  0  0  0  0  0  0  0  0
  187.9300  178.0920  148.2020 C   0  0  0  0  0  3  0  0  0  0  0  0
  186.8630  178.2510  147.3140 C   0  0  0  0  0  3  0  0  0  0  0  0
  187.0190  177.9130  145.9670 C   0  0  0  0  0  3  0  0  0  0  0  0
  189.1520  177.5930  147.7430 C   0  0  0  0  0  3  0  0  0  0  0  0
  1  8  1  0  0  0  0
  2 13  2  0  0  0  0
  3 17  1  0  0  0  0
  4 14  1  1  0  0  0
  4  9  1  0  0  0  0
  5  6  1  0  0  0  0
  6  2  1  0  0  0  0
  7 16  1  0  0  0  0
  8  2  1  0  0  0  0
  8  3  2  0  0  0  0
 10  5  1  0  0  0  0
 10  1  1  0  0  0  0
 11  3  1  0  0  0  0
 11 15  1  0  0  0  0
 12  1  2  0  0  0  0
 12 18  1  0  0  0  0
 15 14  1  0  0  0  0
 16  9  1  0  0  0  0
 16 26  1  1  0  0  0
 17  7  1  0  0  0  0
 17  4  1  0  0  0  0
 18 11  2  0  0  0  0
 19 25  1  6  0  0  0
 19 20  1  0  0  0  0
 21 15  1  1  0  0  0
 21 24  1  0  0  0  0
 22 24  1  0  0  0  0
 22 20  1  0  0  0  0
 23 21  1  0  0  0  0
 23 19  1  0  0  0  0
 26 27  1  0  0  0  0
 27 29  1  0  0  0  0
 28 30  1  0  0  0  0
 29 33  2  0  0  0  0
 29 30  1  0  0  0  0
 30 34  2  0  0  0  0
 32 31  2  0  0  0  0
 33 32  1  0  0  0  0
 34 31  1  0  0  0  0
M  END
>  <MODEL>
6

>  <REMARK>
 VINA RESULT:      -8.2      2.962      5.633
  Name = 
  4 active torsions:
  status: ('A' for Active; 'I' for Inactive)
    1  A    between atoms: N_3  and  C_13
    2  A    between atoms: N_3  and  C_17
    3  A    between atoms: C_12  and  N_28
    4  A    between atoms: C_17  and  C_29
                            x       y       z     vdW  Elec       q    Type
                         _______ _______ _______ _____ _____    ______ ____

>  <TORSDO>
F 4

$$$$
=
 OpenBabel10252415003D

 34 39  0  0  1  0  0  0  0  0999 V2000
  185.0440  178.2610  143.6250 C   0  0  0  0  0  0  0  0  0  0  0  0
  186.0860  179.0670  141.5320 C   0  0  0  0  0  0  0  0  0  0  0  0
  187.4430  177.9380  143.3900 C   0  0  0  0  0  0  0  0  0  0  0  0
  189.9350  177.9090  143.3240 C   0  0  2  0  0  3  0  0  0  0  0  0
  183.6360  178.5700  141.5860 C   0  0  0  0  0  2  0  0  0  0  0  0
  184.7850  179.2080  140.9570 N   0  0  0  0  0  2  0  0  0  0  0  0
  188.6780  177.3140  141.2820 C   0  0  0  0  0  2  0  0  0  0  0  0
  186.2150  178.3960  142.8500 C   0  0  0  0  0  0  0  0  0  0  0  0
  191.2560  177.5220  142.1460 S   0  0  0  0  0  0  0  0  0  0  0  0
  183.7150  178.7350  143.1030 C   0  0  0  0  0  2  0  0  0  0  0  0
  187.4850  177.4820  144.7230 C   0  0  0  0  0  0  0  0  0  0  0  0
  185.1170  177.7870  144.8950 N   0  0  0  0  0  0  0  0  0  0  0  0
  187.0750  179.6000  140.9640 O   0  0  0  0  0  0  0  0  0  0  0  0
  189.9070  176.8700  144.4380 C   0  0  0  0  0  2  0  0  0  0  0  0
  188.7520  177.0960  145.3040 N   0  0  0  0  0  0  0  0  0  0  0  0
  190.0610  176.7510  141.0140 C   0  0  2  0  0  3  0  0  0  0  0  0
  188.6590  177.8800  142.6220 N   0  0  0  0  0  0  0  0  0  0  0  0
  186.2940  177.4100  145.4540 C   0  0  0  0  0  3  0  0  0  0  0  0
  191.3130  176.7610  147.4220 C   0  0  2  0  0  3  0  0  0  0  0  0
  191.1280  177.5850  148.7000 C   0  0  0  0  0  2  0  0  0  0  0  0
  188.9870  177.0110  146.7460 C   0  0  1  0  0  3  0  0  0  0  0  0
  189.7510  178.2540  148.7770 C   0  0  0  0  0  2  0  0  0  0  0  0
  190.0770  176.0670  147.0580 N   0  0  0  0  0  2  0  0  0  0  0  0
  189.1250  178.3970  147.3970 C   0  0  0  0  0  2  0  0  0  0  0  0
  192.4260  175.7550  147.6190 C   0  0  0  0  0  1  0  0  0  0  0  0
  190.4600  176.9190  139.5520 C   0  0  0  0  0  2  0  0  0  0  0  0
  190.7030  175.6290  138.9140 N   0  0  0  0  0  2  0  0  0  0  0  0
  190.5900  173.4090  137.2190 F   0  0  0  0  0  0  0  0  0  0  0  0
  191.6910  175.4220  137.9000 C   0  0  0  0  0  0  0  0  0  0  0  0
  191.6060  174.2960  137.0690 C   0  0  0  0  0  0  0  0  0  0  0  0
  193.6170  174.9860  135.9090 C   0  0  0  0  0  3  0  0  0  0  0  0
  193.7100  176.1090  136.7360 C   0  0  0  0  0  3  0  0  0  0  0  0
  192.7510  176.3260  137.7290 C   0  0  0  0  0  3  0  0  0  0  0  0
  192.5670  174.0810  136.0770 C   0  0  0  0  0  3  0  0  0  0  0  0
  1 12  1  0  0  0  0
  2  8  1  0  0  0  0
  3 11  2  0  0  0  0
  4 14  1  1  0  0  0
  5 10  1  0  0  0  0
  6  2  1  0  0  0  0
  6  5  1  0  0  0  0
  7 17  1  0  0  0  0
  8  3  1  0  0  0  0
  8  1  2  0  0  0  0
  9  4  1  0  0  0  0
 10  1  1  0  0  0  0
 11 15  1  0  0  0  0
 11 18  1  0  0  0  0
 12 18  2  0  0  0  0
 13  2  2  0  0  0  0
 14 15  1  0  0  0  0
 16 26  1  6  0  0  0
 16  7  1  0  0  0  0
 16  9  1  0  0  0  0
 17  4  1  0  0  0  0
 17  3  1  0  0  0  0
 19 25  1  1  0  0  0
 19 20  1  0  0  0  0
 20 22  1  0  0  0  0
 21 15  1  6  0  0  0
 21 23  1  0  0  0  0
 21 24  1  0  0  0  0
 23 19  1  0  0  0  0
 24 22  1  0  0  0  0
 27 26  1  0  0  0  0
 29 27  1  0  0  0  0
 30 28  1  0  0  0  0
 30 29  2  0  0  0  0
 31 34  2  0  0  0  0
 31 32  1  0  0  0  0
 32 33  2  0  0  0  0
 33 29  1  0  0  0  0
 34 30  1  0  0  0  0
M  END
>  <MODEL>
7

>  <REMARK>
 VINA RESULT:      -8.2      3.208      7.710
  Name = 
  4 active torsions:
  status: ('A' for Active; 'I' for Inactive)
    1  A    between atoms: N_3  and  C_13
    2  A    between atoms: N_3  and  C_17
    3  A    between atoms: C_12  and  N_28
    4  A    between atoms: C_17  and  C_29
                            x       y       z     vdW  Elec       q    Type
                         _______ _______ _______ _____ _____    ______ ____

>  <TORSDO>
F 4

$$$$
=
 OpenBabel10252415003D

 34 39  0  0  1  0  0  0  0  0999 V2000
  186.3950  178.1500  145.8660 C   0  0  0  0  0  0  0  0  0  0  0  0
  187.5950  176.9780  144.0500 C   0  0  0  0  0  0  0  0  0  0  0  0
  185.3610  178.1730  143.6650 C   0  0  0  0  0  0  0  0  0  0  0  0
  184.1200  177.9160  141.5180 C   0  0  2  0  0  3  0  0  0  0  0  0
  188.8500  177.7470  146.0710 C   0  0  0  0  0  2  0  0  0  0  0  0
  188.7570  176.9120  144.8800 N   0  0  0  0  0  2  0  0  0  0  0  0
  186.5440  178.3880  141.4490 C   0  0  0  0  0  2  0  0  0  0  0  0
  186.4390  177.7900  144.5020 C   0  0  0  0  0  0  0  0  0  0  0  0
  184.4550  178.0040  139.7390 S   0  0  0  0  0  0  0  0  0  0  0  0
  187.5090  177.7650  146.8020 C   0  0  0  0  0  2  0  0  0  0  0  0
  184.2260  178.7840  144.2340 C   0  0  0  0  0  0  0  0  0  0  0  0
  185.2970  178.7680  146.3740 N   0  0  0  0  0  0  0  0  0  0  0  0
  187.5380  176.2720  143.0080 O   0  0  0  0  0  0  0  0  0  0  0  0
  183.2360  179.0830  141.9410 C   0  0  0  0  0  2  0  0  0  0  0  0
  183.0890  179.0960  143.3950 N   0  0  0  0  0  0  0  0  0  0  0  0
  186.0800  178.7560  140.0530 C   0  0  2  0  0  3  0  0  0  0  0  0
  185.3840  177.9990  142.2360 N   0  0  0  0  0  0  0  0  0  0  0  0
  184.2270  179.0780  145.6020 C   0  0  0  0  0  3  0  0  0  0  0  0
  180.0310  179.7870  142.2440 C   0  0  2  0  0  3  0  0  0  0  0  0
  178.9310  179.0800  143.0420 C   0  0  0  0  0  2  0  0  0  0  0  0
  181.7420  179.3330  143.9160 C   0  0  1  0  0  3  0  0  0  0  0  0
  179.4750  178.3400  144.2700 C   0  0  0  0  0  2  0  0  0  0  0  0
  181.0380  180.3670  143.1330 N   0  0  0  0  0  2  0  0  0  0  0  0
  180.9570  178.0280  144.1180 C   0  0  0  0  0  2  0  0  0  0  0  0
  179.4210  180.8720  141.3830 C   0  0  0  0  0  1  0  0  0  0  0  0
  187.1100  178.3630  138.9980 C   0  0  0  0  0  2  0  0  0  0  0  0
  188.4690  178.6450  139.4500 N   0  0  0  0  0  2  0  0  0  0  0  0
  190.3560  177.7910  141.3260 F   0  0  0  0  0  0  0  0  0  0  0  0
  189.6090  177.8750  139.0550 C   0  0  0  0  0  0  0  0  0  0  0  0
  190.5370  177.4660  140.0220 C   0  0  0  0  0  0  0  0  0  0  0  0
  191.8560  176.3730  138.3080 C   0  0  0  0  0  3  0  0  0  0  0  0
  190.9370  176.7810  137.3390 C   0  0  0  0  0  3  0  0  0  0  0  0
  189.8170  177.5310  137.7100 C   0  0  0  0  0  3  0  0  0  0  0  0
  191.6570  176.7170  139.6480 C   0  0  0  0  0  3  0  0  0  0  0  0
  1 12  1  0  0  0  0
  1 10  1  0  0  0  0
  2  8  1  0  0  0  0
  2  6  1  0  0  0  0
  3 11  2  0  0  0  0
  3  8  1  0  0  0  0
  4 14  1  1  0  0  0
  4 17  1  0  0  0  0
  5 10  1  0  0  0  0
  6  5  1  0  0  0  0
  7 17  1  0  0  0  0
  8  1  2  0  0  0  0
  9 16  1  0  0  0  0
  9  4  1  0  0  0  0
 11 18  1  0  0  0  0
 13  2  2  0  0  0  0
 14 15  1  0  0  0  0
 15 11  1  0  0  0  0
 16 26  1  6  0  0  0
 16  7  1  0  0  0  0
 17  3  1  0  0  0  0
 18 12  2  0  0  0  0
 19 25  1  1  0  0  0
 19 20  1  0  0  0  0
 19 23  1  0  0  0  0
 20 22  1  0  0  0  0
 21 15  1  6  0  0  0
 21 24  1  0  0  0  0
 23 21  1  0  0  0  0
 24 22  1  0  0  0  0
 26 27  1  0  0  0  0
 29 27  1  0  0  0  0
 29 30  1  0  0  0  0
 30 28  1  0  0  0  0
 31 34  1  0  0  0  0
 32 33  1  0  0  0  0
 32 31  2  0  0  0  0
 33 29  2  0  0  0  0
 34 30  2  0  0  0  0
M  END
>  <MODEL>
8

>  <REMARK>
 VINA RESULT:      -8.2      2.873      6.651
  Name = 
  4 active torsions:
  status: ('A' for Active; 'I' for Inactive)
    1  A    between atoms: N_3  and  C_13
    2  A    between atoms: N_3  and  C_17
    3  A    between atoms: C_12  and  N_28
    4  A    between atoms: C_17  and  C_29
                            x       y       z     vdW  Elec       q    Type
                         _______ _______ _______ _____ _____    ______ ____

>  <TORSDO>
F 4

$$$$
=
 OpenBabel10252415003D

 34 39  0  0  1  0  0  0  0  0999 V2000
  191.5160  176.9800  139.4680 C   0  0  0  0  0  0  0  0  0  0  0  0
  189.2280  176.5620  138.6300 C   0  0  0  0  0  0  0  0  0  0  0  0
  189.6860  177.3480  141.0260 C   0  0  0  0  0  0  0  0  0  0  0  0
  187.8680  177.3970  142.7310 C   0  0  2  0  0  3  0  0  0  0  0  0
  191.0750  177.0320  137.0110 C   0  0  0  0  0  2  0  0  0  0  0  0
  189.7400  176.5210  137.2960 N   0  0  0  0  0  2  0  0  0  0  0  0
  187.4320  178.3420  140.4900 C   0  0  0  0  0  2  0  0  0  0  0  0
  190.1300  176.9890  139.7280 C   0  0  0  0  0  0  0  0  0  0  0  0
  186.1620  177.9930  142.8790 S   0  0  0  0  0  0  0  0  0  0  0  0
  192.0440  176.6010  138.1110 C   0  0  0  0  0  2  0  0  0  0  0  0
  190.6330  177.5590  142.0470 C   0  0  0  0  0  0  0  0  0  0  0  0
  192.4010  177.2200  140.4700 N   0  0  0  0  0  0  0  0  0  0  0  0
  188.0630  176.1440  138.8580 O   0  0  0  0  0  0  0  0  0  0  0  0
  188.7880  178.2220  143.6230 C   0  0  0  0  0  2  0  0  0  0  0  0
  190.1800  177.8400  143.3930 N   0  0  0  0  0  0  0  0  0  0  0  0
  186.3330  178.9490  141.3420 C   0  0  2  0  0  3  0  0  0  0  0  0
  188.2960  177.5470  141.3470 N   0  0  0  0  0  0  0  0  0  0  0  0
  191.9950  177.4960  141.7340 C   0  0  0  0  0  3  0  0  0  0  0  0
  189.8240  177.2530  146.6610 C   0  0  2  0  0  3  0  0  0  0  0  0
  190.9160  176.3310  147.2130 C   0  0  0  0  0  2  0  0  0  0  0  0
  191.0180  177.6680  144.5790 C   0  0  1  0  0  3  0  0  0  0  0  0
  191.9980  176.0120  146.1760 C   0  0  0  0  0  2  0  0  0  0  0  0
  190.3890  178.2680  145.7720 N   0  0  0  0  0  2  0  0  0  0  0  0
  191.4860  176.2150  144.7570 C   0  0  0  0  0  2  0  0  0  0  0  0
  189.0930  177.9230  147.8050 C   0  0  0  0  0  1  0  0  0  0  0  0
  185.0180  179.0460  140.5740 C   0  0  0  0  0  2  0  0  0  0  0  0
  183.9780  178.2290  141.1930 N   0  0  0  0  0  2  0  0  0  0  0  0
  183.0550  178.6000  143.8050 F   0  0  0  0  0  0  0  0  0  0  0  0
  182.6510  178.6990  141.4480 C   0  0  0  0  0  0  0  0  0  0  0  0
  182.2200  178.8700  142.7700 C   0  0  0  0  0  0  0  0  0  0  0  0
  180.0530  179.6110  141.9790 C   0  0  0  0  0  3  0  0  0  0  0  0
  180.4750  179.4380  140.6580 C   0  0  0  0  0  3  0  0  0  0  0  0
  181.7700  178.9820  140.3930 C   0  0  0  0  0  3  0  0  0  0  0  0
  180.9240  179.3260  143.0330 C   0  0  0  0  0  3  0  0  0  0  0  0
  1  8  2  0  0  0  0
  1 12  1  0  0  0  0
  2 13  2  0  0  0  0
  2  8  1  0  0  0  0
  3 17  1  0  0  0  0
  3 11  2  0  0  0  0
  4  9  1  0  0  0  0
  4 14  1  1  0  0  0
  5  6  1  0  0  0  0
  5 10  1  0  0  0  0
  6  2  1  0  0  0  0
  7 16  1  0  0  0  0
  7 17  1  0  0  0  0
  8  3  1  0  0  0  0
 10  1  1  0  0  0  0
 11 15  1  0  0  0  0
 12 18  2  0  0  0  0
 15 14  1  0  0  0  0
 16 26  1  6  0  0  0
 16  9  1  0  0  0  0
 17  4  1  0  0  0  0
 18 11  1  0  0  0  0
 19 20  1  0  0  0  0
 19 25  1  1  0  0  0
 21 15  1  6  0  0  0
 21 24  1  0  0  0  0
 21 23  1  0  0  0  0
 22 20  1  0  0  0  0
 23 19  1  0  0  0  0
 24 22  1  0  0  0  0
 26 27  1  0  0  0  0
 27 29  1  0  0  0  0
 29 30  1  0  0  0  0
 30 34  2  0  0  0  0
 30 28  1  0  0  0  0
 31 34  1  0  0  0  0
 32 31  2  0  0  0  0
 33 32  1  0  0  0  0
 33 29  2  0  0  0  0
M  END
>  <MODEL>
9

>  <REMARK>
 VINA RESULT:      -8.0      2.755      8.476
  Name = 
  4 active torsions:
  status: ('A' for Active; 'I' for Inactive)
    1  A    between atoms: N_3  and  C_13
    2  A    between atoms: N_3  and  C_17
    3  A    between atoms: C_12  and  N_28
    4  A    between atoms: C_17  and  C_29
                            x       y       z     vdW  Elec       q    Type
                         _______ _______ _______ _____ _____    ______ ____

>  <TORSDO>
F 4

$$$$
