=
 OpenBabel10262422443D

 43 47  0  0  1  0  0  0  0  0999 V2000
  190.1410  177.3540  141.7070 N   0  0  0  0  0  0  0  0  0  0  0  0
  191.8880  175.8230  146.3000 C   0  0  0  0  0  0  0  0  0  0  0  0
  191.2860  177.7060  144.9410 C   0  0  0  0  0  0  0  0  0  0  0  0
  192.0860  175.0610  145.1320 C   0  0  0  0  0  3  0  0  0  0  0  0
  192.1090  175.2060  147.6330 C   0  0  0  0  0  1  0  0  0  0  0  0
  191.4510  176.9620  143.8080 C   0  0  0  0  0  0  0  0  0  0  0  0
  191.4880  177.1660  146.2100 C   0  0  0  0  0  3  0  0  0  0  0  0
  191.8730  175.6330  143.8670 C   0  0  0  0  0  3  0  0  0  0  0  0
  191.2140  177.8240  142.6100 C   0  0  2  0  0  3  0  0  0  0  0  0
  190.8620  179.1940  143.2350 C   0  0  0  0  0  2  0  0  0  0  0  0
  190.9380  179.0060  144.6480 O   0  0  0  0  0  0  0  0  0  0  0  0
  188.8190  177.8430  142.1320 C   0  0  1  0  0  3  0  0  0  0  0  0
  188.0660  178.2320  141.0170 O   0  0  0  0  0  1  0  0  0  0  0  0
  188.0510  176.7600  142.8860 C   0  0  0  0  0  2  0  0  0  0  0  0
  187.1290  177.9220  146.3710 C   0  0  0  0  0  0  0  0  0  0  0  0
  185.8770  178.5080  146.1440 C   0  0  0  0  0  0  0  0  0  0  0  0
  185.1700  179.0810  147.1930 O   0  0  0  0  0  1  0  0  0  0  0  0
  186.0410  177.9440  143.7930 C   0  0  0  0  0  3  0  0  0  0  0  0
  187.8350  177.3480  145.3090 C   0  0  0  0  0  3  0  0  0  0  0  0
  187.2890  177.3540  144.0200 C   0  0  0  0  0  0  0  0  0  0  0  0
  187.6640  177.9110  147.6160 F   0  0  0  0  0  0  0  0  0  0  0  0
  185.3350  178.5180  144.8540 C   0  0  0  0  0  3  0  0  0  0  0  0
  190.4300  177.6090  140.2790 C   0  0  0  0  0  2  0  0  0  0  0  0
  190.6440  176.3360  139.4490 C   0  0  0  0  0  2  0  0  0  0  0  0
  190.1460  176.4810  138.0110 C   0  0  2  0  0  3  0  0  0  0  0  0
  189.3860  177.7810  137.8150 C   0  0  0  0  0  1  0  0  0  0  0  0
  189.2850  175.2960  137.5910 C   0  0  0  0  0  2  0  0  0  0  0  0
  187.5570  175.2170  135.7080 N   0  0  0  0  0  2  0  0  0  0  0  0
  188.9200  175.3280  136.1350 C   0  0  0  0  0  0  0  0  0  0  0  0
  189.8170  175.4710  135.2610 O   0  0  0  0  0  0  0  0  0  0  0  0
  186.4400  174.7730  136.4910 C   0  0  0  0  0  0  0  0  0  0  0  0
  184.3430  175.1200  137.7970 N   0  0  0  0  0  2  0  0  0  0  0  0
  186.4180  173.4890  136.8630 C   0  0  0  0  0  3  0  0  0  0  0  0
  185.2870  172.9010  137.6510 C   0  0  0  0  0  2  0  0  0  0  0  0
  185.2590  175.6880  136.7970 C   0  0  1  0  0  3  0  0  0  0  0  0
  184.0330  173.7380  137.4560 C   0  0  0  0  0  2  0  0  0  0  0  0
  185.7540  177.0400  137.2960 C   0  0  0  0  0  2  0  0  0  0  0  0
  184.6350  177.8370  137.8780 C   0  0  0  0  0  0  0  0  0  0  0  0
  182.5530  179.3380  138.9290 C   0  0  0  0  0  3  0  0  0  0  0  0
  182.3790  178.5730  137.7740 C   0  0  0  0  0  3  0  0  0  0  0  0
  183.7980  179.3450  139.5610 C   0  0  0  0  0  3  0  0  0  0  0  0
  183.4140  177.8460  137.2750 N   0  0  0  0  0  0  0  0  0  0  0  0
  184.8490  178.5900  139.0350 C   0  0  0  0  0  3  0  0  0  0  0  0
  1 12  1  0  0  0  0
  2  5  1  0  0  0  0
  3  7  2  0  0  0  0
  4  2  2  0  0  0  0
  6  8  2  0  0  0  0
  6  3  1  0  0  0  0
  7  2  1  0  0  0  0
  8  4  1  0  0  0  0
  9  1  1  1  0  0  0
  9 10  1  0  0  0  0
  9  6  1  0  0  0  0
 10 11  1  0  0  0  0
 11  3  1  0  0  0  0
 12 13  1  6  0  0  0
 12 14  1  0  0  0  0
 14 20  1  0  0  0  0
 15 21  1  0  0  0  0
 16 15  1  0  0  0  0
 16 17  1  0  0  0  0
 18 20  2  0  0  0  0
 18 22  1  0  0  0  0
 19 15  2  0  0  0  0
 20 19  1  0  0  0  0
 22 16  2  0  0  0  0
 23  1  1  0  0  0  0
 24 23  1  0  0  0  0
 25 26  1  1  0  0  0
 25 24  1  0  0  0  0
 27 25  1  0  0  0  0
 28 29  1  0  0  0  0
 28 31  1  0  0  0  0
 29 27  1  0  0  0  0
 30 29  2  0  0  0  0
 31 35  1  0  0  0  0
 31 33  2  0  0  0  0
 33 34  1  0  0  0  0
 35 37  1  1  0  0  0
 35 32  1  0  0  0  0
 36 34  1  0  0  0  0
 36 32  1  0  0  0  0
 37 38  1  0  0  0  0
 38 43  1  0  0  0  0
 39 41  1  0  0  0  0
 40 39  2  0  0  0  0
 42 40  1  0  0  0  0
 42 38  2  0  0  0  0
 43 41  2  0  0  0  0
M  END
>  <MODEL>
1

>  <REMARK>
 VINA RESULT:      -8.7      0.000      0.000
  Name = 
  12 active torsions:
  status: ('A' for Active; 'I' for Inactive)
    1  A    between atoms: C_1  and  C_34
    2  A    between atoms: C_1  and  C_35
    3  A    between atoms: C_2  and  C_6
    4  A    between atoms: C_2  and  C_13
    5  A    between atoms: N_3  and  C_4
    6  A    between atoms: C_6  and  C_12
    7  A    between atoms: N_8  and  C_27
    8  A    between atoms: N_8  and  C_30
    9  A    between atoms: N_8  and  C_34
   10  A    between atoms: C_11  and  C_14
   11  A    between atoms: C_13  and  C_27
   12  A    between atoms: C_14  and  C_41
                            x       y       z     vdW  Elec       q    Type
                         _______ _______ _______ _____ _____    ______ ____

>  <TORSDO>
F 12

$$$$
=
 OpenBabel10262422443D

 43 47  0  0  1  0  0  0  0  0999 V2000
  190.2260  177.6440  141.5340 N   0  0  0  0  0  0  0  0  0  0  0  0
  185.4740  178.6910  143.2100 C   0  0  0  0  0  0  0  0  0  0  0  0
  187.2870  177.1220  143.2620 C   0  0  0  0  0  0  0  0  0  0  0  0
  185.9670  179.2000  141.9930 C   0  0  0  0  0  3  0  0  0  0  0  0
  184.2440  179.2700  143.8100 C   0  0  0  0  0  1  0  0  0  0  0  0
  187.7830  177.6320  142.0960 C   0  0  0  0  0  0  0  0  0  0  0  0
  186.1350  177.6340  143.8550 C   0  0  0  0  0  3  0  0  0  0  0  0
  187.1310  178.6640  141.4190 C   0  0  0  0  0  3  0  0  0  0  0  0
  188.9890  176.8490  141.6860 C   0  0  2  0  0  3  0  0  0  0  0  0
  189.1260  175.8080  142.8210 C   0  0  0  0  0  2  0  0  0  0  0  0
  188.0450  176.0660  143.7160 O   0  0  0  0  0  0  0  0  0  0  0  0
  191.2970  177.1590  142.4200 C   0  0  1  0  0  3  0  0  0  0  0  0
  192.4600  176.9130  141.6820 O   0  0  0  0  0  1  0  0  0  0  0  0
  191.6160  178.1850  143.5050 C   0  0  0  0  0  2  0  0  0  0  0  0
  190.7560  176.5870  146.8300 C   0  0  0  0  0  0  0  0  0  0  0  0
  189.5680  177.2530  147.1570 C   0  0  0  0  0  0  0  0  0  0  0  0
  188.9020  176.9600  148.3400 O   0  0  0  0  0  1  0  0  0  0  0  0
  189.7120  178.5200  145.0960 C   0  0  0  0  0  3  0  0  0  0  0  0
  191.4200  176.8880  145.6370 C   0  0  0  0  0  3  0  0  0  0  0  0
  190.8960  177.8510  144.7670 C   0  0  0  0  0  0  0  0  0  0  0  0
  191.2690  175.6520  147.6660 F   0  0  0  0  0  0  0  0  0  0  0  0
  189.0480  178.2200  146.2890 C   0  0  0  0  0  3  0  0  0  0  0  0
  190.6520  177.7940  140.1260 C   0  0  0  0  0  2  0  0  0  0  0  0
  190.0560  176.7430  139.1790 C   0  0  0  0  0  2  0  0  0  0  0  0
  189.1780  177.3620  138.0920 C   0  0  2  0  0  3  0  0  0  0  0  0
  189.1020  178.8720  138.2320 C   0  0  0  0  0  1  0  0  0  0  0  0
  187.7780  176.7600  138.0890 C   0  0  0  0  0  2  0  0  0  0  0  0
  185.8000  177.2600  136.5480 N   0  0  0  0  0  2  0  0  0  0  0  0
  187.1380  176.7820  136.7300 C   0  0  0  0  0  0  0  0  0  0  0  0
  187.7830  176.3930  135.7210 O   0  0  0  0  0  0  0  0  0  0  0  0
  184.8120  177.4750  137.5670 C   0  0  0  0  0  0  0  0  0  0  0  0
  182.7630  176.8810  138.8580 N   0  0  0  0  0  2  0  0  0  0  0  0
  184.8480  178.6380  138.2250 C   0  0  0  0  0  3  0  0  0  0  0  0
  183.8930  178.9620  139.3330 C   0  0  0  0  0  2  0  0  0  0  0  0
  183.8270  176.3850  137.9740 C   0  0  1  0  0  3  0  0  0  0  0  0
  183.3420  177.6790  139.9310 C   0  0  0  0  0  2  0  0  0  0  0  0
  183.1880  175.7620  136.7380 C   0  0  0  0  0  2  0  0  0  0  0  0
  183.2450  174.2720  136.8000 C   0  0  0  0  0  0  0  0  0  0  0  0
  183.3250  171.5030  136.9380 C   0  0  0  0  0  3  0  0  0  0  0  0
  182.1800  172.1710  136.4970 C   0  0  0  0  0  3  0  0  0  0  0  0
  184.4440  172.2470  137.3160 C   0  0  0  0  0  3  0  0  0  0  0  0
  182.1630  173.5290  136.4380 N   0  0  0  0  0  0  0  0  0  0  0  0
  184.4080  173.6410  137.2480 C   0  0  0  0  0  3  0  0  0  0  0  0
  1 12  1  0  0  0  0
  2  5  1  0  0  0  0
  2  7  1  0  0  0  0
  3 11  1  0  0  0  0
  3  7  2  0  0  0  0
  4  2  2  0  0  0  0
  6  3  1  0  0  0  0
  8  4  1  0  0  0  0
  8  6  2  0  0  0  0
  9  1  1  1  0  0  0
  9  6  1  0  0  0  0
  9 10  1  0  0  0  0
 10 11  1  0  0  0  0
 12 13  1  6  0  0  0
 12 14  1  0  0  0  0
 14 20  1  0  0  0  0
 15 16  1  0  0  0  0
 15 21  1  0  0  0  0
 16 17  1  0  0  0  0
 18 22  1  0  0  0  0
 19 15  2  0  0  0  0
 20 18  2  0  0  0  0
 20 19  1  0  0  0  0
 22 16  2  0  0  0  0
 23  1  1  0  0  0  0
 24 23  1  0  0  0  0
 25 26  1  1  0  0  0
 25 24  1  0  0  0  0
 27 25  1  0  0  0  0
 28 29  1  0  0  0  0
 28 31  1  0  0  0  0
 29 27  1  0  0  0  0
 30 29  2  0  0  0  0
 31 35  1  0  0  0  0
 31 33  2  0  0  0  0
 32 36  1  0  0  0  0
 33 34  1  0  0  0  0
 34 36  1  0  0  0  0
 35 37  1  6  0  0  0
 35 32  1  0  0  0  0
 37 38  1  0  0  0  0
 38 43  1  0  0  0  0
 39 41  1  0  0  0  0
 40 39  2  0  0  0  0
 42 40  1  0  0  0  0
 42 38  2  0  0  0  0
 43 41  2  0  0  0  0
M  END
>  <MODEL>
2

>  <REMARK>
 VINA RESULT:      -8.6      1.945      4.615
  Name = 
  12 active torsions:
  status: ('A' for Active; 'I' for Inactive)
    1  A    between atoms: C_1  and  C_34
    2  A    between atoms: C_1  and  C_35
    3  A    between atoms: C_2  and  C_6
    4  A    between atoms: C_2  and  C_13
    5  A    between atoms: N_3  and  C_4
    6  A    between atoms: C_6  and  C_12
    7  A    between atoms: N_8  and  C_27
    8  A    between atoms: N_8  and  C_30
    9  A    between atoms: N_8  and  C_34
   10  A    between atoms: C_11  and  C_14
   11  A    between atoms: C_13  and  C_27
   12  A    between atoms: C_14  and  C_41
                            x       y       z     vdW  Elec       q    Type
                         _______ _______ _______ _____ _____    ______ ____

>  <TORSDO>
F 12

$$$$
=
 OpenBabel10262422443D

 43 47  0  0  1  0  0  0  0  0999 V2000
  188.5580  177.5860  141.1800 N   0  0  0  0  0  0  0  0  0  0  0  0
  187.0080  176.4580  136.4030 C   0  0  0  0  0  0  0  0  0  0  0  0
  188.8540  176.4570  137.9340 C   0  0  0  0  0  0  0  0  0  0  0  0
  186.3860  177.4600  137.1750 C   0  0  0  0  0  3  0  0  0  0  0  0
  186.3380  175.9430  135.1820 C   0  0  0  0  0  1  0  0  0  0  0  0
  188.2410  177.4080  138.7000 C   0  0  0  0  0  0  0  0  0  0  0  0
  188.2610  175.9500  136.7800 C   0  0  0  0  0  3  0  0  0  0  0  0
  187.0080  177.9510  138.3340 C   0  0  0  0  0  3  0  0  0  0  0  0
  189.1390  177.7840  139.8340 C   0  0  2  0  0  3  0  0  0  0  0  0
  190.3710  176.8770  139.6150 C   0  0  0  0  0  2  0  0  0  0  0  0
  190.0900  176.1190  138.4390 O   0  0  0  0  0  0  0  0  0  0  0  0
  189.6010  177.3800  142.1980 C   0  0  1  0  0  3  0  0  0  0  0  0
  189.8090  178.5590  142.9220 O   0  0  0  0  0  1  0  0  0  0  0  0
  189.2040  176.2730  143.1710 C   0  0  0  0  0  2  0  0  0  0  0  0
  187.9010  177.7240  146.4190 C   0  0  0  0  0  0  0  0  0  0  0  0
  189.0640  177.7400  147.2000 C   0  0  0  0  0  0  0  0  0  0  0  0
  189.0250  178.2090  148.5060 O   0  0  0  0  0  1  0  0  0  0  0  0
  190.3190  176.8070  145.3480 C   0  0  0  0  0  3  0  0  0  0  0  0
  187.9490  177.2510  145.1040 C   0  0  0  0  0  3  0  0  0  0  0  0
  189.1590  176.7960  144.5660 C   0  0  0  0  0  0  0  0  0  0  0  0
  186.7260  178.1640  146.9310 F   0  0  0  0  0  0  0  0  0  0  0  0
  190.2720  177.2810  146.6620 C   0  0  0  0  0  3  0  0  0  0  0  0
  187.5760  178.6290  141.5480 C   0  0  0  0  0  2  0  0  0  0  0  0
  186.3320  178.0880  142.2660 C   0  0  0  0  0  2  0  0  0  0  0  0
  185.0960  178.9560  142.0340 C   0  0  2  0  0  3  0  0  0  0  0  0
  184.4470  179.3630  143.3450 C   0  0  0  0  0  1  0  0  0  0  0  0
  184.0800  178.2610  141.1350 C   0  0  0  0  0  2  0  0  0  0  0  0
  182.5080  178.8570  139.2080 N   0  0  0  0  0  2  0  0  0  0  0  0
  183.7390  179.0630  139.9120 C   0  0  0  0  0  0  0  0  0  0  0  0
  184.5320  179.9490  139.4960 O   0  0  0  0  0  0  0  0  0  0  0  0
  181.6170  177.7400  139.3350 C   0  0  0  0  0  0  0  0  0  0  0  0
  180.8590  175.4150  138.8430 N   0  0  0  0  0  2  0  0  0  0  0  0
  180.4780  177.9320  140.0080 C   0  0  0  0  0  3  0  0  0  0  0  0
  179.4860  176.8320  140.2380 C   0  0  0  0  0  2  0  0  0  0  0  0
  181.9910  176.3520  138.8280 C   0  0  1  0  0  3  0  0  0  0  0  0
  180.1780  175.4830  140.1300 C   0  0  0  0  0  2  0  0  0  0  0  0
  182.5370  176.4390  137.4060 C   0  0  0  0  0  2  0  0  0  0  0  0
  183.2170  175.1700  137.0160 C   0  0  0  0  0  0  0  0  0  0  0  0
  184.4520  172.7940  136.2890 C   0  0  0  0  0  3  0  0  0  0  0  0
  183.5440  173.4270  135.4360 C   0  0  0  0  0  3  0  0  0  0  0  0
  184.7370  173.3710  137.5270 C   0  0  0  0  0  3  0  0  0  0  0  0
  182.9500  174.5900  135.8130 N   0  0  0  0  0  0  0  0  0  0  0  0
  184.1180  174.5670  137.8970 C   0  0  0  0  0  3  0  0  0  0  0  0
  1 23  1  0  0  0  0
  1 12  1  0  0  0  0
  2  7  2  0  0  0  0
  2  4  1  0  0  0  0
  3 11  1  0  0  0  0
  3  6  2  0  0  0  0
  4  8  2  0  0  0  0
  5  2  1  0  0  0  0
  6  9  1  0  0  0  0
  7  3  1  0  0  0  0
  8  6  1  0  0  0  0
  9  1  1  1  0  0  0
 10  9  1  0  0  0  0
 11 10  1  0  0  0  0
 12 13  1  1  0  0  0
 12 14  1  0  0  0  0
 14 20  1  0  0  0  0
 15 21  1  0  0  0  0
 15 16  1  0  0  0  0
 16 17  1  0  0  0  0
 18 22  1  0  0  0  0
 19 15  2  0  0  0  0
 20 19  1  0  0  0  0
 20 18  2  0  0  0  0
 22 16  2  0  0  0  0
 23 24  1  0  0  0  0
 25 24  1  0  0  0  0
 25 26  1  1  0  0  0
 27 25  1  0  0  0  0
 28 31  1  0  0  0  0
 28 29  1  0  0  0  0
 29 27  1  0  0  0  0
 30 29  2  0  0  0  0
 31 33  2  0  0  0  0
 32 36  1  0  0  0  0
 33 34  1  0  0  0  0
 35 37  1  6  0  0  0
 35 32  1  0  0  0  0
 35 31  1  0  0  0  0
 36 34  1  0  0  0  0
 38 37  1  0  0  0  0
 38 43  1  0  0  0  0
 39 41  1  0  0  0  0
 40 42  1  0  0  0  0
 40 39  2  0  0  0  0
 41 43  2  0  0  0  0
 42 38  2  0  0  0  0
M  END
>  <MODEL>
3

>  <REMARK>
 VINA RESULT:      -8.6      2.150      6.105
  Name = 
  12 active torsions:
  status: ('A' for Active; 'I' for Inactive)
    1  A    between atoms: C_1  and  C_34
    2  A    between atoms: C_1  and  C_35
    3  A    between atoms: C_2  and  C_6
    4  A    between atoms: C_2  and  C_13
    5  A    between atoms: N_3  and  C_4
    6  A    between atoms: C_6  and  C_12
    7  A    between atoms: N_8  and  C_27
    8  A    between atoms: N_8  and  C_30
    9  A    between atoms: N_8  and  C_34
   10  A    between atoms: C_11  and  C_14
   11  A    between atoms: C_13  and  C_27
   12  A    between atoms: C_14  and  C_41
                            x       y       z     vdW  Elec       q    Type
                         _______ _______ _______ _____ _____    ______ ____

>  <TORSDO>
F 12

$$$$
=
 OpenBabel10262422443D

 43 47  0  0  1  0  0  0  0  0999 V2000
  190.2610  177.6640  141.5940 N   0  0  0  0  0  0  0  0  0  0  0  0
  185.4750  178.5890  143.2460 C   0  0  0  0  0  0  0  0  0  0  0  0
  187.3170  177.0540  143.2850 C   0  0  0  0  0  0  0  0  0  0  0  0
  185.9690  179.1310  142.0430 C   0  0  0  0  0  3  0  0  0  0  0  0
  184.2300  179.1340  143.8460 C   0  0  0  0  0  1  0  0  0  0  0  0
  187.8140  177.5950  142.1330 C   0  0  0  0  0  0  0  0  0  0  0  0
  186.1510  177.5330  143.8780 C   0  0  0  0  0  3  0  0  0  0  0  0
  187.1480  178.6280  141.4700 C   0  0  0  0  0  3  0  0  0  0  0  0
  189.0370  176.8430  141.7190 C   0  0  2  0  0  3  0  0  0  0  0  0
  189.1850  175.7830  142.8360 C   0  0  0  0  0  2  0  0  0  0  0  0
  188.0910  176.0040  143.7260 O   0  0  0  0  0  0  0  0  0  0  0  0
  191.3220  177.2020  142.5030 C   0  0  1  0  0  3  0  0  0  0  0  0
  192.5050  176.9740  141.7890 O   0  0  0  0  0  1  0  0  0  0  0  0
  191.6000  178.2370  143.5900 C   0  0  0  0  0  2  0  0  0  0  0  0
  190.6920  176.6060  146.8860 C   0  0  0  0  0  0  0  0  0  0  0  0
  189.5030  177.2740  147.2060 C   0  0  0  0  0  0  0  0  0  0  0  0
  188.8220  176.9710  148.3780 O   0  0  0  0  0  1  0  0  0  0  0  0
  189.6790  178.5630  145.1610 C   0  0  0  0  0  3  0  0  0  0  0  0
  191.3720  176.9170  145.7040 C   0  0  0  0  0  3  0  0  0  0  0  0
  190.8640  177.8920  144.8390 C   0  0  0  0  0  0  0  0  0  0  0  0
  191.1920  175.6600  147.7180 F   0  0  0  0  0  0  0  0  0  0  0  0
  188.9980  178.2520  146.3420 C   0  0  0  0  0  3  0  0  0  0  0  0
  190.7130  177.8220  140.1950 C   0  0  0  0  0  2  0  0  0  0  0  0
  190.1260  176.7850  139.2280 C   0  0  0  0  0  2  0  0  0  0  0  0
  189.3460  177.4270  138.0810 C   0  0  2  0  0  3  0  0  0  0  0  0
  189.0560  178.8910  138.3560 C   0  0  0  0  0  1  0  0  0  0  0  0
  188.0510  176.6760  137.7920 C   0  0  0  0  0  2  0  0  0  0  0  0
  186.2340  176.5110  136.0000 N   0  0  0  0  0  2  0  0  0  0  0  0
  187.5660  176.8730  136.3840 C   0  0  0  0  0  0  0  0  0  0  0  0
  188.3280  177.3790  135.5170 O   0  0  0  0  0  0  0  0  0  0  0  0
  185.3200  175.6810  136.7300 C   0  0  0  0  0  0  0  0  0  0  0  0
  183.4060  175.2830  138.2790 N   0  0  0  0  0  2  0  0  0  0  0  0
  185.5430  174.3620  136.7220 C   0  0  0  0  0  3  0  0  0  0  0  0
  184.6370  173.3910  137.4170 C   0  0  0  0  0  2  0  0  0  0  0  0
  184.0730  176.2510  137.3970 C   0  0  1  0  0  3  0  0  0  0  0  0
  183.2590  174.0060  137.5910 C   0  0  0  0  0  2  0  0  0  0  0  0
  184.4300  177.4900  138.2100 C   0  0  0  0  0  2  0  0  0  0  0  0
  183.2330  178.0250  138.9220 C   0  0  0  0  0  0  0  0  0  0  0  0
  181.0140  179.0500  140.2340 C   0  0  0  0  0  3  0  0  0  0  0  0
  181.1360  179.1400  138.8450 C   0  0  0  0  0  3  0  0  0  0  0  0
  182.0290  178.4340  140.9680 C   0  0  0  0  0  3  0  0  0  0  0  0
  182.2330  178.6310  138.2230 N   0  0  0  0  0  0  0  0  0  0  0  0
  183.1470  177.9160  140.3110 C   0  0  0  0  0  3  0  0  0  0  0  0
  1 12  1  0  0  0  0
  2  5  1  0  0  0  0
  2  7  1  0  0  0  0
  3 11  1  0  0  0  0
  3  7  2  0  0  0  0
  4  2  2  0  0  0  0
  6  3  1  0  0  0  0
  8  4  1  0  0  0  0
  8  6  2  0  0  0  0
  9  1  1  1  0  0  0
  9  6  1  0  0  0  0
  9 10  1  0  0  0  0
 10 11  1  0  0  0  0
 12 13  1  6  0  0  0
 12 14  1  0  0  0  0
 14 20  1  0  0  0  0
 15 16  1  0  0  0  0
 15 21  1  0  0  0  0
 16 17  1  0  0  0  0
 18 22  1  0  0  0  0
 19 15  2  0  0  0  0
 20 18  2  0  0  0  0
 20 19  1  0  0  0  0
 22 16  2  0  0  0  0
 23  1  1  0  0  0  0
 24 23  1  0  0  0  0
 25 26  1  1  0  0  0
 25 24  1  0  0  0  0
 27 25  1  0  0  0  0
 28 29  1  0  0  0  0
 28 31  1  0  0  0  0
 29 27  1  0  0  0  0
 30 29  2  0  0  0  0
 31 35  1  0  0  0  0
 33 31  2  0  0  0  0
 33 34  1  0  0  0  0
 34 36  1  0  0  0  0
 35 37  1  1  0  0  0
 35 32  1  0  0  0  0
 36 32  1  0  0  0  0
 37 38  1  0  0  0  0
 38 43  1  0  0  0  0
 39 41  1  0  0  0  0
 40 39  2  0  0  0  0
 42 40  1  0  0  0  0
 42 38  2  0  0  0  0
 43 41  2  0  0  0  0
M  END
>  <MODEL>
4

>  <REMARK>
 VINA RESULT:      -8.6      1.809      3.686
  Name = 
  12 active torsions:
  status: ('A' for Active; 'I' for Inactive)
    1  A    between atoms: C_1  and  C_34
    2  A    between atoms: C_1  and  C_35
    3  A    between atoms: C_2  and  C_6
    4  A    between atoms: C_2  and  C_13
    5  A    between atoms: N_3  and  C_4
    6  A    between atoms: C_6  and  C_12
    7  A    between atoms: N_8  and  C_27
    8  A    between atoms: N_8  and  C_30
    9  A    between atoms: N_8  and  C_34
   10  A    between atoms: C_11  and  C_14
   11  A    between atoms: C_13  and  C_27
   12  A    between atoms: C_14  and  C_41
                            x       y       z     vdW  Elec       q    Type
                         _______ _______ _______ _____ _____    ______ ____

>  <TORSDO>
F 12

$$$$
=
 OpenBabel10262422443D

 43 47  0  0  1  0  0  0  0  0999 V2000
  188.3240  177.0650  141.6310 N   0  0  0  0  0  0  0  0  0  0  0  0
  188.1380  177.7310  146.7310 C   0  0  0  0  0  0  0  0  0  0  0  0
  189.4980  177.0580  144.8740 C   0  0  0  0  0  0  0  0  0  0  0  0
  186.9850  177.4530  145.9700 C   0  0  0  0  0  3  0  0  0  0  0  0
  188.0020  178.2350  148.1220 C   0  0  0  0  0  1  0  0  0  0  0  0
  188.3830  176.8130  144.1240 C   0  0  0  0  0  0  0  0  0  0  0  0
  189.4140  177.5270  146.1830 C   0  0  0  0  0  3  0  0  0  0  0  0
  187.1020  176.9810  144.6520 C   0  0  0  0  0  3  0  0  0  0  0  0
  188.7910  176.2750  142.7910 C   0  0  2  0  0  3  0  0  0  0  0  0
  190.3340  176.2650  142.8790 C   0  0  0  0  0  2  0  0  0  0  0  0
  190.6500  176.7570  144.1820 O   0  0  0  0  0  0  0  0  0  0  0  0
  187.6850  178.3230  142.0510 C   0  0  1  0  0  3  0  0  0  0  0  0
  188.6280  179.3560  142.0830 O   0  0  0  0  0  1  0  0  0  0  0  0
  186.5640  178.7140  141.0920 C   0  0  0  0  0  2  0  0  0  0  0  0
  183.9800  179.1210  143.8320 C   0  0  0  0  0  0  0  0  0  0  0  0
  182.7950  178.8530  143.1350 C   0  0  0  0  0  0  0  0  0  0  0  0
  181.5710  178.9020  143.7890 O   0  0  0  0  0  1  0  0  0  0  0  0
  184.0710  178.4850  141.1080 C   0  0  0  0  0  3  0  0  0  0  0  0
  185.2090  179.0700  143.1660 C   0  0  0  0  0  3  0  0  0  0  0  0
  185.2560  178.7480  141.8050 C   0  0  0  0  0  0  0  0  0  0  0  0
  183.9440  179.4340  145.1500 F   0  0  0  0  0  0  0  0  0  0  0  0
  182.8420  178.5350  141.7730 C   0  0  0  0  0  3  0  0  0  0  0  0
  189.3660  177.2520  140.5980 C   0  0  0  0  0  2  0  0  0  0  0  0
  189.0820  176.5120  139.2840 C   0  0  0  0  0  2  0  0  0  0  0  0
  188.7250  177.4600  138.1400 C   0  0  2  0  0  3  0  0  0  0  0  0
  189.1610  178.8830  138.4410 C   0  0  0  0  0  1  0  0  0  0  0  0
  187.2350  177.4200  137.8200 C   0  0  0  0  0  2  0  0  0  0  0  0
  186.1840  176.4030  135.7230 N   0  0  0  0  0  2  0  0  0  0  0  0
  186.9560  177.4370  136.3450 C   0  0  0  0  0  0  0  0  0  0  0  0
  187.3870  178.3810  135.6300 O   0  0  0  0  0  0  0  0  0  0  0  0
  185.8490  175.1230  136.2780 C   0  0  0  0  0  0  0  0  0  0  0  0
  186.3590  172.7830  136.9770 N   0  0  0  0  0  2  0  0  0  0  0  0
  184.5620  174.8880  136.5560 C   0  0  0  0  0  3  0  0  0  0  0  0
  184.0950  173.6040  137.1710 C   0  0  0  0  0  2  0  0  0  0  0  0
  186.9190  174.1020  136.6490 C   0  0  1  0  0  3  0  0  0  0  0  0
  185.2460  172.9360  137.9050 C   0  0  0  0  0  2  0  0  0  0  0  0
  187.9140  173.9410  135.5050 C   0  0  0  0  0  2  0  0  0  0  0  0
  189.2620  174.4470  135.8940 C   0  0  0  0  0  0  0  0  0  0  0  0
  191.7800  175.3820  136.5870 C   0  0  0  0  0  3  0  0  0  0  0  0
  191.0270  176.0080  135.5910 C   0  0  0  0  0  3  0  0  0  0  0  0
  191.2520  174.2680  137.2410 C   0  0  0  0  0  3  0  0  0  0  0  0
  189.7960  175.5320  135.2670 N   0  0  0  0  0  0  0  0  0  0  0  0
  189.9850  173.7940  136.8960 C   0  0  0  0  0  3  0  0  0  0  0  0
  1 12  1  0  0  0  0
  2  5  1  0  0  0  0
  3  7  2  0  0  0  0
  4  2  2  0  0  0  0
  6  8  2  0  0  0  0
  6  3  1  0  0  0  0
  7  2  1  0  0  0  0
  8  4  1  0  0  0  0
  9  1  1  6  0  0  0
  9 10  1  0  0  0  0
  9  6  1  0  0  0  0
 10 11  1  0  0  0  0
 11  3  1  0  0  0  0
 12 13  1  6  0  0  0
 14 20  1  0  0  0  0
 14 12  1  0  0  0  0
 15 21  1  0  0  0  0
 16 17  1  0  0  0  0
 16 15  2  0  0  0  0
 18 22  2  0  0  0  0
 18 20  1  0  0  0  0
 19 15  1  0  0  0  0
 20 19  2  0  0  0  0
 22 16  1  0  0  0  0
 23  1  1  0  0  0  0
 24 23  1  0  0  0  0
 25 26  1  1  0  0  0
 25 24  1  0  0  0  0
 27 25  1  0  0  0  0
 28 31  1  0  0  0  0
 28 29  1  0  0  0  0
 29 27  1  0  0  0  0
 30 29  2  0  0  0  0
 31 33  2  0  0  0  0
 31 35  1  0  0  0  0
 32 36  1  0  0  0  0
 33 34  1  0  0  0  0
 34 36  1  0  0  0  0
 35 37  1  6  0  0  0
 35 32  1  0  0  0  0
 37 38  1  0  0  0  0
 38 43  1  0  0  0  0
 39 41  1  0  0  0  0
 40 39  2  0  0  0  0
 42 40  1  0  0  0  0
 42 38  2  0  0  0  0
 43 41  2  0  0  0  0
M  END
>  <MODEL>
5

>  <REMARK>
 VINA RESULT:      -8.5      2.277      4.318
  Name = 
  12 active torsions:
  status: ('A' for Active; 'I' for Inactive)
    1  A    between atoms: C_1  and  C_34
    2  A    between atoms: C_1  and  C_35
    3  A    between atoms: C_2  and  C_6
    4  A    between atoms: C_2  and  C_13
    5  A    between atoms: N_3  and  C_4
    6  A    between atoms: C_6  and  C_12
    7  A    between atoms: N_8  and  C_27
    8  A    between atoms: N_8  and  C_30
    9  A    between atoms: N_8  and  C_34
   10  A    between atoms: C_11  and  C_14
   11  A    between atoms: C_13  and  C_27
   12  A    between atoms: C_14  and  C_41
                            x       y       z     vdW  Elec       q    Type
                         _______ _______ _______ _____ _____    ______ ____

>  <TORSDO>
F 12

$$$$
=
 OpenBabel10262422443D

 43 47  0  0  1  0  0  0  0  0999 V2000
  183.6960  179.3080  140.5290 N   0  0  0  0  0  0  0  0  0  0  0  0
  181.0350  175.6130  138.1300 C   0  0  0  0  0  0  0  0  0  0  0  0
  180.9390  177.8020  139.1060 C   0  0  0  0  0  0  0  0  0  0  0  0
  182.1730  175.3290  138.9120 C   0  0  0  0  0  3  0  0  0  0  0  0
  180.4990  174.5840  137.2020 C   0  0  0  0  0  1  0  0  0  0  0  0
  182.0570  177.5390  139.8460 C   0  0  0  0  0  0  0  0  0  0  0  0
  180.4020  176.8630  138.2280 C   0  0  0  0  0  3  0  0  0  0  0  0
  182.6910  176.2970  139.7880 C   0  0  0  0  0  3  0  0  0  0  0  0
  182.3570  178.7110  140.7230 C   0  0  2  0  0  3  0  0  0  0  0  0
  181.2370  179.7130  140.3570 C   0  0  0  0  0  2  0  0  0  0  0  0
  180.4390  179.0570  139.3720 O   0  0  0  0  0  0  0  0  0  0  0  0
  184.6620  178.8140  141.5240 C   0  0  1  0  0  3  0  0  0  0  0  0
  185.6820  179.7530  141.7150 O   0  0  0  0  0  1  0  0  0  0  0  0
  183.9810  178.5550  142.8650 C   0  0  0  0  0  2  0  0  0  0  0  0
  185.8120  178.7760  146.1740 C   0  0  0  0  0  0  0  0  0  0  0  0
  186.8810  177.8980  145.9560 C   0  0  0  0  0  0  0  0  0  0  0  0
  187.8210  177.6770  146.9540 O   0  0  0  0  0  1  0  0  0  0  0  0
  186.0620  177.4570  143.7180 C   0  0  0  0  0  3  0  0  0  0  0  0
  184.8700  178.9940  145.1630 C   0  0  0  0  0  3  0  0  0  0  0  0
  184.9970  178.3380  143.9330 C   0  0  0  0  0  0  0  0  0  0  0  0
  185.6820  179.4170  147.3610 F   0  0  0  0  0  0  0  0  0  0  0  0
  187.0050  177.2390  144.7280 C   0  0  0  0  0  3  0  0  0  0  0  0
  184.1830  179.2030  139.1360 C   0  0  0  0  0  2  0  0  0  0  0  0
  185.5430  178.5040  139.0010 C   0  0  0  0  0  2  0  0  0  0  0  0
  185.8760  178.1420  137.5550 C   0  0  2  0  0  3  0  0  0  0  0  0
  184.7790  177.3020  136.9250 C   0  0  0  0  0  1  0  0  0  0  0  0
  187.2180  177.4260  137.4490 C   0  0  0  0  0  2  0  0  0  0  0  0
  189.6220  177.8580  136.6930 N   0  0  0  0  0  2  0  0  0  0  0  0
  188.3510  178.3570  137.1260 C   0  0  0  0  0  0  0  0  0  0  0  0
  188.1910  179.6030  137.2170 O   0  0  0  0  0  0  0  0  0  0  0  0
  190.1000  176.5080  136.7920 C   0  0  0  0  0  0  0  0  0  0  0  0
  191.2000  174.6040  137.9680 N   0  0  0  0  0  2  0  0  0  0  0  0
  190.0600  175.7570  135.6860 C   0  0  0  0  0  3  0  0  0  0  0  0
  190.4960  174.3240  135.6740 C   0  0  0  0  0  2  0  0  0  0  0  0
  190.5310  175.9040  138.1230 C   0  0  1  0  0  3  0  0  0  0  0  0
  190.4220  173.7500  137.0790 C   0  0  0  0  0  2  0  0  0  0  0  0
  191.4710  176.8550  138.8550 C   0  0  0  0  0  2  0  0  0  0  0  0
  190.9240  177.2230  140.1930 C   0  0  0  0  0  0  0  0  0  0  0  0
  189.9190  177.8790  142.6940 C   0  0  0  0  0  3  0  0  0  0  0  0
  191.2900  177.7060  142.4900 C   0  0  0  0  0  3  0  0  0  0  0  0
  189.0450  177.7160  141.6180 C   0  0  0  0  0  3  0  0  0  0  0  0
  191.7600  177.3840  141.2550 N   0  0  0  0  0  0  0  0  0  0  0  0
  189.5460  177.3870  140.3570 C   0  0  0  0  0  3  0  0  0  0  0  0
  1 12  1  0  0  0  0
  2  7  2  0  0  0  0
  2  4  1  0  0  0  0
  3 11  1  0  0  0  0
  3  6  2  0  0  0  0
  4  8  2  0  0  0  0
  5  2  1  0  0  0  0
  6  9  1  0  0  0  0
  7  3  1  0  0  0  0
  8  6  1  0  0  0  0
  9  1  1  6  0  0  0
 10  9  1  0  0  0  0
 11 10  1  0  0  0  0
 12 13  1  1  0  0  0
 12 14  1  0  0  0  0
 14 20  1  0  0  0  0
 15 21  1  0  0  0  0
 16 15  1  0  0  0  0
 16 17  1  0  0  0  0
 18 20  2  0  0  0  0
 18 22  1  0  0  0  0
 19 15  2  0  0  0  0
 20 19  1  0  0  0  0
 22 16  2  0  0  0  0
 23  1  1  0  0  0  0
 24 23  1  0  0  0  0
 25 26  1  1  0  0  0
 25 24  1  0  0  0  0
 27 25  1  0  0  0  0
 28 31  1  0  0  0  0
 28 29  1  0  0  0  0
 29 30  2  0  0  0  0
 29 27  1  0  0  0  0
 31 35  1  0  0  0  0
 32 35  1  0  0  0  0
 33 31  2  0  0  0  0
 34 33  1  0  0  0  0
 34 36  1  0  0  0  0
 35 37  1  6  0  0  0
 36 32  1  0  0  0  0
 37 38  1  0  0  0  0
 38 43  2  0  0  0  0
 38 42  1  0  0  0  0
 40 39  1  0  0  0  0
 41 39  2  0  0  0  0
 42 40  2  0  0  0  0
 43 41  1  0  0  0  0
M  END
>  <MODEL>
6

>  <REMARK>
 VINA RESULT:      -8.4      2.613      7.337
  Name = 
  12 active torsions:
  status: ('A' for Active; 'I' for Inactive)
    1  A    between atoms: C_1  and  C_34
    2  A    between atoms: C_1  and  C_35
    3  A    between atoms: C_2  and  C_6
    4  A    between atoms: C_2  and  C_13
    5  A    between atoms: N_3  and  C_4
    6  A    between atoms: C_6  and  C_12
    7  A    between atoms: N_8  and  C_27
    8  A    between atoms: N_8  and  C_30
    9  A    between atoms: N_8  and  C_34
   10  A    between atoms: C_11  and  C_14
   11  A    between atoms: C_13  and  C_27
   12  A    between atoms: C_14  and  C_41
                            x       y       z     vdW  Elec       q    Type
                         _______ _______ _______ _____ _____    ______ ____

>  <TORSDO>
F 12

$$$$
=
 OpenBabel10262422443D

 43 47  0  0  1  0  0  0  0  0999 V2000
  186.6830  178.6770  142.4770 N   0  0  0  0  0  0  0  0  0  0  0  0
  187.8430  177.9260  147.4350 C   0  0  0  0  0  0  0  0  0  0  0  0
  188.1400  177.1280  145.1930 C   0  0  0  0  0  0  0  0  0  0  0  0
  186.6570  178.5720  147.0330 C   0  0  0  0  0  3  0  0  0  0  0  0
  188.2950  178.0200  148.8470 C   0  0  0  0  0  1  0  0  0  0  0  0
  187.0050  177.7770  144.7940 C   0  0  0  0  0  0  0  0  0  0  0  0
  188.5960  177.1880  146.5080 C   0  0  0  0  0  3  0  0  0  0  0  0
  186.2230  178.4950  145.7000 C   0  0  0  0  0  3  0  0  0  0  0  0
  186.7500  177.4850  143.3500 C   0  0  2  0  0  3  0  0  0  0  0  0
  187.9390  176.5740  142.9660 C   0  0  0  0  0  2  0  0  0  0  0  0
  188.7120  176.4250  144.1560 O   0  0  0  0  0  0  0  0  0  0  0  0
  187.1250  178.3730  141.1060 C   0  0  1  0  0  3  0  0  0  0  0  0
  186.2320  178.9200  140.1780 O   0  0  0  0  0  1  0  0  0  0  0  0
  188.5150  178.9440  140.8410 C   0  0  0  0  0  2  0  0  0  0  0  0
  189.6220  177.8830  137.3770 C   0  0  0  0  0  0  0  0  0  0  0  0
  190.4780  176.8150  137.6760 C   0  0  0  0  0  0  0  0  0  0  0  0
  191.1200  176.1250  136.6560 O   0  0  0  0  0  1  0  0  0  0  0  0
  190.0440  177.1310  140.0390 C   0  0  0  0  0  3  0  0  0  0  0  0
  188.9790  178.5730  138.4090 C   0  0  0  0  0  3  0  0  0  0  0  0
  189.1860  178.1950  139.7410 C   0  0  0  0  0  0  0  0  0  0  0  0
  189.4150  178.2560  136.0900 F   0  0  0  0  0  0  0  0  0  0  0  0
  190.6870  176.4410  139.0070 C   0  0  0  0  0  3  0  0  0  0  0  0
  185.3750  179.3650  142.5330 C   0  0  0  0  0  2  0  0  0  0  0  0
  184.1730  178.4150  142.6330 C   0  0  0  0  0  2  0  0  0  0  0  0
  182.9380  179.0910  143.2260 C   0  0  2  0  0  3  0  0  0  0  0  0
  182.8950  178.9450  144.7370 C   0  0  0  0  0  1  0  0  0  0  0  0
  181.6520  178.5570  142.6060 C   0  0  0  0  0  2  0  0  0  0  0  0
  180.4850  179.7250  140.6540 N   0  0  0  0  0  2  0  0  0  0  0  0
  180.7750  179.6440  142.0540 C   0  0  0  0  0  0  0  0  0  0  0  0
  180.2660  180.4990  142.8270 O   0  0  0  0  0  0  0  0  0  0  0  0
  181.1690  179.0490  139.5890 C   0  0  0  0  0  0  0  0  0  0  0  0
  181.9570  178.8040  137.2350 N   0  0  0  0  0  2  0  0  0  0  0  0
  181.6330  177.8190  139.8350 C   0  0  0  0  0  3  0  0  0  0  0  0
  182.3940  177.0290  138.8150 C   0  0  0  0  0  2  0  0  0  0  0  0
  181.4650  179.7350  138.2600 C   0  0  1  0  0  3  0  0  0  0  0  0
  183.0130  177.9680  137.7930 C   0  0  0  0  0  2  0  0  0  0  0  0
  180.2120  180.4260  137.7330 C   0  0  0  0  0  2  0  0  0  0  0  0
  180.5450  181.7510  137.1340 C   0  0  0  0  0  0  0  0  0  0  0  0
  181.1380  184.2290  136.0370 C   0  0  0  0  0  3  0  0  0  0  0  0
  181.1680  184.0260  137.4190 C   0  0  0  0  0  3  0  0  0  0  0  0
  180.8030  183.1650  135.2000 C   0  0  0  0  0  3  0  0  0  0  0  0
  180.8730  182.8030  137.9350 N   0  0  0  0  0  0  0  0  0  0  0  0
  180.5040  181.9150  135.7470 C   0  0  0  0  0  3  0  0  0  0  0  0
  1 23  1  0  0  0  0
  2  5  1  0  0  0  0
  3  7  1  0  0  0  0
  4  2  1  0  0  0  0
  6  3  2  0  0  0  0
  6  8  1  0  0  0  0
  7  2  2  0  0  0  0
  8  4  2  0  0  0  0
  9  1  1  6  0  0  0
  9  6  1  0  0  0  0
 10  9  1  0  0  0  0
 10 11  1  0  0  0  0
 11  3  1  0  0  0  0
 12 13  1  6  0  0  0
 12  1  1  0  0  0  0
 14 12  1  0  0  0  0
 15 16  2  0  0  0  0
 15 19  1  0  0  0  0
 16 22  1  0  0  0  0
 17 16  1  0  0  0  0
 19 20  2  0  0  0  0
 20 18  1  0  0  0  0
 20 14  1  0  0  0  0
 21 15  1  0  0  0  0
 22 18  2  0  0  0  0
 23 24  1  0  0  0  0
 24 25  1  0  0  0  0
 25 26  1  1  0  0  0
 27 25  1  0  0  0  0
 28 29  1  0  0  0  0
 29 27  1  0  0  0  0
 29 30  2  0  0  0  0
 31 33  2  0  0  0  0
 31 28  1  0  0  0  0
 32 36  1  0  0  0  0
 32 35  1  0  0  0  0
 34 33  1  0  0  0  0
 35 37  1  6  0  0  0
 35 31  1  0  0  0  0
 36 34  1  0  0  0  0
 38 37  1  0  0  0  0
 38 42  1  0  0  0  0
 39 40  1  0  0  0  0
 40 42  2  0  0  0  0
 41 43  1  0  0  0  0
 41 39  2  0  0  0  0
 43 38  2  0  0  0  0
M  END
>  <MODEL>
7

>  <REMARK>
 VINA RESULT:      -8.4      3.519      7.005
  Name = 
  12 active torsions:
  status: ('A' for Active; 'I' for Inactive)
    1  A    between atoms: C_1  and  C_34
    2  A    between atoms: C_1  and  C_35
    3  A    between atoms: C_2  and  C_6
    4  A    between atoms: C_2  and  C_13
    5  A    between atoms: N_3  and  C_4
    6  A    between atoms: C_6  and  C_12
    7  A    between atoms: N_8  and  C_27
    8  A    between atoms: N_8  and  C_30
    9  A    between atoms: N_8  and  C_34
   10  A    between atoms: C_11  and  C_14
   11  A    between atoms: C_13  and  C_27
   12  A    between atoms: C_14  and  C_41
                            x       y       z     vdW  Elec       q    Type
                         _______ _______ _______ _____ _____    ______ ____

>  <TORSDO>
F 12

$$$$
=
 OpenBabel10262422443D

 43 47  0  0  1  0  0  0  0  0999 V2000
  188.3640  177.1360  141.4430 N   0  0  0  0  0  0  0  0  0  0  0  0
  188.2540  177.6850  146.5590 C   0  0  0  0  0  0  0  0  0  0  0  0
  189.6200  177.1720  144.6550 C   0  0  0  0  0  0  0  0  0  0  0  0
  187.1110  177.3180  145.8210 C   0  0  0  0  0  3  0  0  0  0  0  0
  188.1110  178.1480  147.9640 C   0  0  0  0  0  1  0  0  0  0  0  0
  188.5110  176.8430  143.9280 C   0  0  0  0  0  0  0  0  0  0  0  0
  189.5290  177.6070  145.9760 C   0  0  0  0  0  3  0  0  0  0  0  0
  187.2350  176.8840  144.4910 C   0  0  0  0  0  3  0  0  0  0  0  0
  188.9300  176.3690  142.5740 C   0  0  2  0  0  3  0  0  0  0  0  0
  190.4710  176.4970  142.6240 C   0  0  0  0  0  2  0  0  0  0  0  0
  190.7750  176.9900  143.9290 O   0  0  0  0  0  0  0  0  0  0  0  0
  187.7240  178.3810  141.8970 C   0  0  1  0  0  3  0  0  0  0  0  0
  188.6530  179.4280  141.9010 O   0  0  0  0  0  1  0  0  0  0  0  0
  186.5620  178.7630  140.9840 C   0  0  0  0  0  2  0  0  0  0  0  0
  184.0750  179.1740  143.8110 C   0  0  0  0  0  0  0  0  0  0  0  0
  182.8730  178.8480  143.1700 C   0  0  0  0  0  0  0  0  0  0  0  0
  181.6740  178.8790  143.8710 O   0  0  0  0  0  1  0  0  0  0  0  0
  184.0800  178.4580  141.1060 C   0  0  0  0  0  3  0  0  0  0  0  0
  185.2780  179.1410  143.0980 C   0  0  0  0  0  3  0  0  0  0  0  0
  185.2820  178.7780  141.7470 C   0  0  0  0  0  0  0  0  0  0  0  0
  184.0800  179.5260  145.1200 F   0  0  0  0  0  0  0  0  0  0  0  0
  182.8780  178.4910  141.8170 C   0  0  0  0  0  3  0  0  0  0  0  0
  189.3270  177.3390  140.3390 C   0  0  0  0  0  2  0  0  0  0  0  0
  188.9340  176.6380  139.0310 C   0  0  0  0  0  2  0  0  0  0  0  0
  188.6020  177.6250  137.9130 C   0  0  2  0  0  3  0  0  0  0  0  0
  189.1520  179.0080  138.2100 C   0  0  0  0  0  1  0  0  0  0  0  0
  187.1010  177.6960  137.6540 C   0  0  0  0  0  2  0  0  0  0  0  0
  185.9740  176.4080  135.7540 N   0  0  0  0  0  2  0  0  0  0  0  0
  186.7520  177.5240  136.2030 C   0  0  0  0  0  0  0  0  0  0  0  0
  187.1290  178.3770  135.3560 O   0  0  0  0  0  0  0  0  0  0  0  0
  185.6930  175.2030  136.4800 C   0  0  0  0  0  0  0  0  0  0  0  0
  184.2770  173.7340  137.9150 N   0  0  0  0  0  2  0  0  0  0  0  0
  186.6780  174.3060  136.5930 C   0  0  0  0  0  3  0  0  0  0  0  0
  186.4930  172.9950  137.2960 C   0  0  0  0  0  2  0  0  0  0  0  0
  184.2970  174.8900  137.0090 C   0  0  1  0  0  3  0  0  0  0  0  0
  185.0190  172.6280  137.3220 C   0  0  0  0  0  2  0  0  0  0  0  0
  183.7290  176.0990  137.7440 C   0  0  0  0  0  2  0  0  0  0  0  0
  182.3080  175.8680  138.1340 C   0  0  0  0  0  0  0  0  0  0  0  0
  179.6560  175.4650  138.8440 C   0  0  0  0  0  3  0  0  0  0  0  0
  180.0440  175.5240  137.5030 C   0  0  0  0  0  3  0  0  0  0  0  0
  180.6240  175.6140  139.8390 C   0  0  0  0  0  3  0  0  0  0  0  0
  181.3490  175.7220  137.1780 N   0  0  0  0  0  0  0  0  0  0  0  0
  181.9600  175.8160  139.4860 C   0  0  0  0  0  3  0  0  0  0  0  0
  1 12  1  0  0  0  0
  2  5  1  0  0  0  0
  3  7  2  0  0  0  0
  4  2  2  0  0  0  0
  6  8  2  0  0  0  0
  6  3  1  0  0  0  0
  7  2  1  0  0  0  0
  8  4  1  0  0  0  0
  9  1  1  6  0  0  0
  9 10  1  0  0  0  0
  9  6  1  0  0  0  0
 10 11  1  0  0  0  0
 11  3  1  0  0  0  0
 12 13  1  6  0  0  0
 14 20  1  0  0  0  0
 14 12  1  0  0  0  0
 15 21  1  0  0  0  0
 16 15  1  0  0  0  0
 16 17  1  0  0  0  0
 18 20  2  0  0  0  0
 18 22  1  0  0  0  0
 19 15  2  0  0  0  0
 20 19  1  0  0  0  0
 22 16  2  0  0  0  0
 23  1  1  0  0  0  0
 24 23  1  0  0  0  0
 25 26  1  1  0  0  0
 25 24  1  0  0  0  0
 27 25  1  0  0  0  0
 28 29  1  0  0  0  0
 28 31  1  0  0  0  0
 29 27  1  0  0  0  0
 30 29  2  0  0  0  0
 31 33  2  0  0  0  0
 31 35  1  0  0  0  0
 33 34  1  0  0  0  0
 34 36  1  0  0  0  0
 35 37  1  1  0  0  0
 35 32  1  0  0  0  0
 36 32  1  0  0  0  0
 37 38  1  0  0  0  0
 38 43  1  0  0  0  0
 39 41  1  0  0  0  0
 40 39  2  0  0  0  0
 42 40  1  0  0  0  0
 42 38  2  0  0  0  0
 43 41  2  0  0  0  0
M  END
>  <MODEL>
8

>  <REMARK>
 VINA RESULT:      -8.4      2.293      3.204
  Name = 
  12 active torsions:
  status: ('A' for Active; 'I' for Inactive)
    1  A    between atoms: C_1  and  C_34
    2  A    between atoms: C_1  and  C_35
    3  A    between atoms: C_2  and  C_6
    4  A    between atoms: C_2  and  C_13
    5  A    between atoms: N_3  and  C_4
    6  A    between atoms: C_6  and  C_12
    7  A    between atoms: N_8  and  C_27
    8  A    between atoms: N_8  and  C_30
    9  A    between atoms: N_8  and  C_34
   10  A    between atoms: C_11  and  C_14
   11  A    between atoms: C_13  and  C_27
   12  A    between atoms: C_14  and  C_41
                            x       y       z     vdW  Elec       q    Type
                         _______ _______ _______ _____ _____    ______ ____

>  <TORSDO>
F 12

$$$$
=
 OpenBabel10262422443D

 43 47  0  0  1  0  0  0  0  0999 V2000
  188.6800  177.6370  141.3800 N   0  0  0  0  0  0  0  0  0  0  0  0
  188.3050  175.9040  136.5480 C   0  0  0  0  0  0  0  0  0  0  0  0
  189.7870  176.3350  138.3840 C   0  0  0  0  0  0  0  0  0  0  0  0
  187.3950  176.8400  137.0800 C   0  0  0  0  0  3  0  0  0  0  0  0
  187.9790  175.1910  135.2860 C   0  0  0  0  0  1  0  0  0  0  0  0
  188.8950  177.2220  138.9170 C   0  0  0  0  0  0  0  0  0  0  0  0
  189.5210  175.6480  137.2010 C   0  0  0  0  0  3  0  0  0  0  0  0
  187.6910  177.5160  138.2750 C   0  0  0  0  0  3  0  0  0  0  0  0
  189.4800  177.8300  140.1510 C   0  0  2  0  0  3  0  0  0  0  0  0
  190.8560  177.1330  140.2610 C   0  0  0  0  0  2  0  0  0  0  0  0
  190.9340  176.2520  139.1410 O   0  0  0  0  0  0  0  0  0  0  0  0
  189.5360  177.4690  142.5660 C   0  0  1  0  0  3  0  0  0  0  0  0
  189.6140  178.6710  143.2790 O   0  0  0  0  0  1  0  0  0  0  0  0
  188.9830  176.3880  143.4910 C   0  0  0  0  0  2  0  0  0  0  0  0
  187.5630  177.8590  146.6790 C   0  0  0  0  0  0  0  0  0  0  0  0
  188.6800  177.8150  147.5240 C   0  0  0  0  0  0  0  0  0  0  0  0
  188.5870  178.2710  148.8330 O   0  0  0  0  0  1  0  0  0  0  0  0
  189.9960  176.8490  145.7330 C   0  0  0  0  0  3  0  0  0  0  0  0
  187.6650  177.3990  145.3630 C   0  0  0  0  0  3  0  0  0  0  0  0
  188.8820  176.8970  144.8870 C   0  0  0  0  0  0  0  0  0  0  0  0
  186.3810  178.3440  147.1310 F   0  0  0  0  0  0  0  0  0  0  0  0
  189.8950  177.3090  147.0490 C   0  0  0  0  0  3  0  0  0  0  0  0
  187.6280  178.6620  141.5560 C   0  0  0  0  0  2  0  0  0  0  0  0
  186.3000  178.1080  142.0900 C   0  0  0  0  0  2  0  0  0  0  0  0
  185.1840  179.1520  142.0890 C   0  0  2  0  0  3  0  0  0  0  0  0
  184.7510  179.5040  143.5010 C   0  0  0  0  0  1  0  0  0  0  0  0
  183.9860  178.6950  141.2660 C   0  0  0  0  0  2  0  0  0  0  0  0
  182.8550  179.1560  139.0190 N   0  0  0  0  0  2  0  0  0  0  0  0
  184.0160  179.2120  139.8560 C   0  0  0  0  0  0  0  0  0  0  0  0
  185.0710  179.7220  139.3930 O   0  0  0  0  0  0  0  0  0  0  0  0
  181.6680  178.3800  139.2400 C   0  0  0  0  0  0  0  0  0  0  0  0
  179.2570  178.0910  139.8120 N   0  0  0  0  0  2  0  0  0  0  0  0
  181.7910  177.0490  139.2360 C   0  0  0  0  0  3  0  0  0  0  0  0
  180.6180  176.1340  139.4180 C   0  0  0  0  0  2  0  0  0  0  0  0
  180.2940  179.0300  139.3590 C   0  0  1  0  0  3  0  0  0  0  0  0
  179.3370  176.8570  139.0400 C   0  0  0  0  0  2  0  0  0  0  0  0
  180.3490  180.2050  140.3290 C   0  0  0  0  0  2  0  0  0  0  0  0
  180.0850  179.7560  141.7280 C   0  0  0  0  0  0  0  0  0  0  0  0
  179.6050  178.9510  144.3390 C   0  0  0  0  0  3  0  0  0  0  0  0
  178.9400  180.0490  143.7880 C   0  0  0  0  0  3  0  0  0  0  0  0
  180.5260  178.2510  143.5580 C   0  0  0  0  0  3  0  0  0  0  0  0
  179.1910  180.4260  142.5060 N   0  0  0  0  0  0  0  0  0  0  0  0
  180.7700  178.6530  142.2420 C   0  0  0  0  0  3  0  0  0  0  0  0
  1 23  1  0  0  0  0
  1 12  1  0  0  0  0
  2  4  2  0  0  0  0
  2  7  1  0  0  0  0
  3  6  1  0  0  0  0
  3 11  1  0  0  0  0
  4  8  1  0  0  0  0
  5  2  1  0  0  0  0
  6  9  1  0  0  0  0
  7  3  2  0  0  0  0
  8  6  2  0  0  0  0
  9 10  1  0  0  0  0
  9  1  1  1  0  0  0
 11 10  1  0  0  0  0
 12 13  1  1  0  0  0
 12 14  1  0  0  0  0
 14 20  1  0  0  0  0
 15 21  1  0  0  0  0
 15 16  1  0  0  0  0
 16 17  1  0  0  0  0
 18 22  1  0  0  0  0
 19 15  2  0  0  0  0
 20 19  1  0  0  0  0
 20 18  2  0  0  0  0
 22 16  2  0  0  0  0
 23 24  1  0  0  0  0
 25 24  1  0  0  0  0
 25 26  1  1  0  0  0
 27 25  1  0  0  0  0
 28 31  1  0  0  0  0
 28 29  1  0  0  0  0
 29 27  1  0  0  0  0
 30 29  2  0  0  0  0
 31 35  1  0  0  0  0
 33 31  2  0  0  0  0
 33 34  1  0  0  0  0
 35 32  1  0  0  0  0
 35 37  1  1  0  0  0
 36 34  1  0  0  0  0
 36 32  1  0  0  0  0
 37 38  1  0  0  0  0
 38 43  2  0  0  0  0
 38 42  1  0  0  0  0
 40 39  1  0  0  0  0
 41 39  2  0  0  0  0
 42 40  2  0  0  0  0
 43 41  1  0  0  0  0
M  END
>  <MODEL>
9

>  <REMARK>
 VINA RESULT:      -7.9      2.834      6.118
  Name = 
  12 active torsions:
  status: ('A' for Active; 'I' for Inactive)
    1  A    between atoms: C_1  and  C_34
    2  A    between atoms: C_1  and  C_35
    3  A    between atoms: C_2  and  C_6
    4  A    between atoms: C_2  and  C_13
    5  A    between atoms: N_3  and  C_4
    6  A    between atoms: C_6  and  C_12
    7  A    between atoms: N_8  and  C_27
    8  A    between atoms: N_8  and  C_30
    9  A    between atoms: N_8  and  C_34
   10  A    between atoms: C_11  and  C_14
   11  A    between atoms: C_13  and  C_27
   12  A    between atoms: C_14  and  C_41
                            x       y       z     vdW  Elec       q    Type
                         _______ _______ _______ _____ _____    ______ ____

>  <TORSDO>
F 12

$$$$
