=
 OpenBabel10262420053D

 27 31  0  0  0  0  0  0  0  0999 V2000
  186.3140  178.9190  141.4220 C   0  0  0  0  0  3  0  0  0  0  0  0
  185.6180  178.3490  143.7230 C   0  0  0  0  0  0  0  0  0  0  0  0
  187.6180  176.9880  143.3440 N   0  0  0  0  0  0  0  0  0  0  0  0
  186.7580  179.3100  147.4830 C   0  0  0  0  0  3  0  0  0  0  0  0
  187.7130  178.9460  148.3390 C   0  0  0  0  0  2  0  0  0  0  0  0
  184.6930  179.0350  144.6500 C   0  0  0  0  0  3  0  0  0  0  0  0
  187.8910  176.8070  146.1280 C   0  0  0  0  0  3  0  0  0  0  0  0
  190.0280  177.1710  140.6900 C   0  0  0  0  0  0  0  0  0  0  0  0
  188.2970  176.6430  147.5380 C   0  0  0  0  0  3  0  0  0  0  0  0
  191.1750  176.7060  140.4690 O   0  0  0  0  0  0  0  0  0  0  0  0
  186.9230  177.6110  145.6680 C   0  0  0  0  0  0  0  0  0  0  0  0
  185.3250  178.4010  142.3160 N   0  0  0  0  0  0  0  0  0  0  0  0
  188.2250  177.5730  148.4980 C   0  0  0  0  0  3  0  0  0  0  0  0
  186.0130  178.3350  146.6330 C   0  0  0  0  0  0  0  0  0  0  0  0
  187.5530  178.4460  141.3640 C   0  0  0  0  0  0  0  0  0  0  0  0
  186.6990  177.6950  144.2000 C   0  0  0  0  0  0  0  0  0  0  0  0
  189.0580  176.3830  141.5230 C   0  0  0  0  0  2  0  0  0  0  0  0
  184.8670  179.0330  145.9680 C   0  0  0  0  0  3  0  0  0  0  0  0
  189.6290  178.4460  140.0700 C   0  0  0  0  0  3  0  0  0  0  0  0
  188.4650  179.0240  140.3660 C   0  0  0  0  0  3  0  0  0  0  0  0
  188.0050  177.2610  142.1330 C   0  0  0  0  0  0  0  0  0  0  0  0
  181.3560  177.8970  140.8560 C   0  0  0  0  0  3  0  0  0  0  0  0
  183.9750  178.2150  141.8330 C   0  0  0  0  0  0  0  0  0  0  0  0
  183.7340  177.4940  140.6510 C   0  0  0  0  0  3  0  0  0  0  0  0
  182.4320  177.3330  140.1670 C   0  0  0  0  0  3  0  0  0  0  0  0
  181.5810  178.6240  142.0260 C   0  0  0  0  0  3  0  0  0  0  0  0
  182.8820  178.7860  142.5100 C   0  0  0  0  0  3  0  0  0  0  0  0
  1 12  1  0  0  0  0
  2 16  2  0  0  0  0
  2  6  1  0  0  0  0
  3 16  1  0  0  0  0
  4  5  1  0  0  0  0
  5 13  1  0  0  0  0
  6 18  2  0  0  0  0
  7  9  1  0  0  0  0
  8 17  1  0  0  0  0
  9 13  2  0  0  0  0
 10  8  2  0  0  0  0
 11  7  2  0  0  0  0
 11 14  1  0  0  0  0
 12  2  1  0  0  0  0
 14  4  2  0  0  0  0
 15  1  2  0  0  0  0
 15 21  1  0  0  0  0
 16 11  1  0  0  0  0
 17 21  1  0  0  0  0
 18 14  1  0  0  0  0
 19 20  2  0  0  0  0
 19  8  1  0  0  0  0
 20 15  1  0  0  0  0
 21  3  2  0  0  0  0
 22 26  1  0  0  0  0
 23 12  1  0  0  0  0
 23 27  1  0  0  0  0
 24 23  2  0  0  0  0
 25 24  1  0  0  0  0
 25 22  2  0  0  0  0
 26 27  2  0  0  0  0
M  END
>  <MODEL>
1

>  <REMARK>
 VINA RESULT:      -8.2      0.000      0.000
  Name = 
  1 active torsions:
  status: ('A' for Active; 'I' for Inactive)
    1  A    between atoms: C_9  and  N_15
                            x       y       z     vdW  Elec       q    Type
                         _______ _______ _______ _____ _____    ______ ____

>  <TORSDO>
F 1

$$$$
=
 OpenBabel10262420053D

 27 31  0  0  1  0  0  0  0  0999 V2000
  189.4320  176.6800  140.7760 C   0  0  0  0  0  3  0  0  0  0  0  0
  187.4520  177.8760  141.6420 C   0  0  0  0  0  0  0  0  0  0  0  0
  187.6620  178.6560  139.3310 N   0  0  0  0  0  0  0  0  0  0  0  0
  183.4300  177.5370  141.3570 C   0  0  0  0  0  3  0  0  0  0  0  0
  182.4810  177.8630  140.4800 C   0  0  0  0  0  3  0  0  0  0  0  0
  186.6190  177.6260  142.8380 C   0  0  0  0  0  3  0  0  0  0  0  0
  184.9560  179.3780  139.4410 C   0  0  0  0  0  3  0  0  0  0  0  0
  189.7130  177.3810  136.6750 C   0  0  0  0  0  0  0  0  0  0  0  0
  183.5450  179.7540  139.2220 C   0  0  0  0  0  3  0  0  0  0  0  0
  189.7820  177.5270  135.4280 O   0  0  0  0  0  0  0  0  0  0  0  0
  185.4480  178.7220  140.5000 C   0  0  0  0  0  0  0  0  0  0  0  0
  188.8570  177.5830  141.7250 N   0  0  0  0  0  0  0  0  0  0  0  0
  182.4690  179.0940  139.6690 C   0  0  0  0  0  3  0  0  0  0  0  0
  184.5700  178.4400  141.6960 C   0  0  2  0  0  3  0  0  0  0  0  0
  189.3270  176.8500  139.4630 C   0  0  0  0  0  0  0  0  0  0  0  0
  186.8940  178.3680  140.5160 C   0  0  0  0  0  0  0  0  0  0  0  0
  189.2410  178.5230  137.5290 C   0  0  0  0  0  2  0  0  0  0  0  0
  185.3130  177.8780  142.8690 C   0  0  0  0  0  3  0  0  0  0  0  0
  190.1650  176.1180  137.2840 C   0  0  0  0  0  3  0  0  0  0  0  0
  190.0070  175.8840  138.5880 C   0  0  0  0  0  3  0  0  0  0  0  0
  188.7050  178.0480  138.8480 C   0  0  0  0  0  0  0  0  0  0  0  0
  191.1550  178.6230  145.1570 C   0  0  0  0  0  3  0  0  0  0  0  0
  189.6220  177.9460  142.8970 C   0  0  0  0  0  0  0  0  0  0  0  0
  190.5460  179.0030  142.8450 C   0  0  0  0  0  3  0  0  0  0  0  0
  191.3060  179.3420  143.9680 C   0  0  0  0  0  3  0  0  0  0  0  0
  190.2480  177.5630  145.2200 C   0  0  0  0  0  3  0  0  0  0  0  0
  189.4890  177.2240  144.0970 C   0  0  0  0  0  3  0  0  0  0  0  0
  1 12  1  0  0  0  0
  2 12  1  0  0  0  0
  2  6  1  0  0  0  0
  3 16  1  0  0  0  0
  5  4  2  0  0  0  0
  6 18  2  0  0  0  0
  7 11  2  0  0  0  0
  8 19  1  0  0  0  0
  8 17  1  0  0  0  0
  9  7  1  0  0  0  0
  9 13  2  0  0  0  0
 10  8  2  0  0  0  0
 11 16  1  0  0  0  0
 11 14  1  0  0  0  0
 12 23  1  0  0  0  0
 13  5  1  0  0  0  0
 14  4  1  6  0  0  0
 14 18  1  0  0  0  0
 15  1  2  0  0  0  0
 16  2  2  0  0  0  0
 17 21  1  0  0  0  0
 19 20  2  0  0  0  0
 20 15  1  0  0  0  0
 21  3  2  0  0  0  0
 21 15  1  0  0  0  0
 22 26  1  0  0  0  0
 23 27  1  0  0  0  0
 24 23  2  0  0  0  0
 24 25  1  0  0  0  0
 25 22  2  0  0  0  0
 27 26  2  0  0  0  0
M  END
>  <MODEL>
2

>  <REMARK>
 VINA RESULT:      -7.6      2.564      6.417
  Name = 
  1 active torsions:
  status: ('A' for Active; 'I' for Inactive)
    1  A    between atoms: C_9  and  N_15
                            x       y       z     vdW  Elec       q    Type
                         _______ _______ _______ _____ _____    ______ ____

>  <TORSDO>
F 1

$$$$
=
 OpenBabel10262420053D

 27 31  0  0  1  0  0  0  0  0999 V2000
  188.3140  177.8090  139.1660 C   0  0  0  0  0  3  0  0  0  0  0  0
  190.5060  176.6720  139.1600 C   0  0  0  0  0  0  0  0  0  0  0  0
  189.1570  175.3850  137.5730 N   0  0  0  0  0  0  0  0  0  0  0  0
  193.7690  176.5470  136.7710 C   0  0  0  0  0  3  0  0  0  0  0  0
  194.1350  175.9320  135.6470 C   0  0  0  0  0  3  0  0  0  0  0  0
  191.8290  177.1190  139.6470 C   0  0  0  0  0  3  0  0  0  0  0  0
  191.5520  174.4560  136.4530 C   0  0  0  0  0  3  0  0  0  0  0  0
  185.9670  176.1790  136.1300 C   0  0  0  0  0  0  0  0  0  0  0  0
  192.6570  173.9060  135.6430 C   0  0  0  0  0  3  0  0  0  0  0  0
  185.2640  175.7460  135.1810 O   0  0  0  0  0  0  0  0  0  0  0  0
  191.6550  175.3900  137.4080 C   0  0  0  0  0  0  0  0  0  0  0  0
  189.3390  177.1090  139.8770 N   0  0  0  0  0  0  0  0  0  0  0  0
  193.7770  174.5470  135.2880 C   0  0  0  0  0  3  0  0  0  0  0  0
  193.0160  175.8650  137.8640 C   0  0  2  0  0  3  0  0  0  0  0  0
  187.7260  177.3210  138.0800 C   0  0  0  0  0  0  0  0  0  0  0  0
  190.4160  175.8730  138.0750 C   0  0  0  0  0  0  0  0  0  0  0  0
  186.8660  175.2350  136.8760 C   0  0  0  0  0  2  0  0  0  0  0  0
  192.9680  176.7580  139.0650 C   0  0  0  0  0  3  0  0  0  0  0  0
  185.8430  177.5880  136.5420 C   0  0  0  0  0  3  0  0  0  0  0  0
  186.6460  178.1100  137.4690 C   0  0  0  0  0  3  0  0  0  0  0  0
  187.9890  175.9570  137.5600 C   0  0  0  0  0  0  0  0  0  0  0  0
  189.2380  177.0650  144.1340 C   0  0  0  0  0  3  0  0  0  0  0  0
  189.3150  177.1110  141.3220 C   0  0  0  0  0  0  0  0  0  0  0  0
  190.2280  176.3300  142.0520 C   0  0  0  0  0  3  0  0  0  0  0  0
  190.1920  176.3100  143.4490 C   0  0  0  0  0  3  0  0  0  0  0  0
  188.3180  177.8380  143.4220 C   0  0  0  0  0  3  0  0  0  0  0  0
  188.3530  177.8580  142.0260 C   0  0  0  0  0  3  0  0  0  0  0  0
  1 12  1  0  0  0  0
  2  6  1  0  0  0  0
  2 12  1  0  0  0  0
  3 16  1  0  0  0  0
  5  4  2  0  0  0  0
  7 11  2  0  0  0  0
  8 19  1  0  0  0  0
  8 17  1  0  0  0  0
  9  7  1  0  0  0  0
 10  8  2  0  0  0  0
 11 14  1  0  0  0  0
 11 16  1  0  0  0  0
 12 23  1  0  0  0  0
 13  9  2  0  0  0  0
 13  5  1  0  0  0  0
 14  4  1  6  0  0  0
 14 18  1  0  0  0  0
 15  1  2  0  0  0  0
 16  2  2  0  0  0  0
 17 21  1  0  0  0  0
 18  6  2  0  0  0  0
 19 20  2  0  0  0  0
 20 15  1  0  0  0  0
 21  3  2  0  0  0  0
 21 15  1  0  0  0  0
 23 27  2  0  0  0  0
 23 24  1  0  0  0  0
 24 25  2  0  0  0  0
 25 22  1  0  0  0  0
 26 22  2  0  0  0  0
 27 26  1  0  0  0  0
M  END
>  <MODEL>
3

>  <REMARK>
 VINA RESULT:      -7.5      4.325      8.570
  Name = 
  1 active torsions:
  status: ('A' for Active; 'I' for Inactive)
    1  A    between atoms: C_9  and  N_15
                            x       y       z     vdW  Elec       q    Type
                         _______ _______ _______ _____ _____    ______ ____

>  <TORSDO>
F 1

$$$$
=
 OpenBabel10262420053D

 27 31  0  0  1  0  0  0  0  0999 V2000
  183.6330  177.5200  140.0830 C   0  0  0  0  0  3  0  0  0  0  0  0
  181.8010  178.5010  138.7480 C   0  0  0  0  0  0  0  0  0  0  0  0
  181.2960  179.1740  141.0480 N   0  0  0  0  0  0  0  0  0  0  0  0
  180.8340  182.1420  137.2740 C   0  0  0  0  0  3  0  0  0  0  0  0
  180.2800  183.2660  137.7290 C   0  0  0  0  0  3  0  0  0  0  0  0
  181.6810  178.7290  137.2920 C   0  0  0  0  0  3  0  0  0  0  0  0
  179.7290  181.2410  139.9860 C   0  0  0  0  0  3  0  0  0  0  0  0
  183.3530  178.9700  143.9830 C   0  0  0  0  0  0  0  0  0  0  0  0
  178.9310  182.4440  139.6770 C   0  0  0  0  0  3  0  0  0  0  0  0
  183.3250  179.4420  145.1480 O   0  0  0  0  0  0  0  0  0  0  0  0
  180.4330  180.5080  139.1120 C   0  0  0  0  0  0  0  0  0  0  0  0
  182.5280  177.3430  139.1920 N   0  0  0  0  0  0  0  0  0  0  0  0
  179.1720  183.3270  138.7000 C   0  0  0  0  0  3  0  0  0  0  0  0
  180.3290  180.7840  137.6300 C   0  0  0  0  0  0  0  0  0  0  0  0
  183.5310  178.1650  141.2400 C   0  0  0  0  0  0  0  0  0  0  0  0
  181.2340  179.3620  139.6200 C   0  0  2  0  0  3  0  0  0  0  0  0
  182.0620  178.6860  143.2680 C   0  0  0  0  0  2  0  0  0  0  0  0
  181.0170  179.7610  136.7800 C   0  0  0  0  0  3  0  0  0  0  0  0
  184.6480  178.6340  143.3650 C   0  0  0  0  0  3  0  0  0  0  0  0
  184.7250  178.2350  142.0960 C   0  0  0  0  0  3  0  0  0  0  0  0
  182.2430  178.6640  141.7790 C   0  0  0  0  0  0  0  0  0  0  0  0
  181.9990  173.5990  137.2310 C   0  0  0  0  0  3  0  0  0  0  0  0
  182.3510  176.0630  138.5440 C   0  0  0  0  0  0  0  0  0  0  0  0
  183.4100  175.4710  137.8340 C   0  0  0  0  0  3  0  0  0  0  0  0
  183.2360  174.2460  137.1850 C   0  0  0  0  0  3  0  0  0  0  0  0
  180.9350  174.1810  137.9240 C   0  0  0  0  0  3  0  0  0  0  0  0
  181.1080  175.4060  138.5720 C   0  0  0  0  0  3  0  0  0  0  0  0
  1 15  2  0  0  0  0
  2 12  1  0  0  0  0
  3 21  2  0  0  0  0
  4 14  1  0  0  0  0
  4  5  2  0  0  0  0
  5 13  1  0  0  0  0
  6  2  2  0  0  0  0
  8 10  2  0  0  0  0
  9  7  1  0  0  0  0
 11 16  1  0  0  0  0
 11  7  2  0  0  0  0
 12  1  1  0  0  0  0
 13  9  2  0  0  0  0
 14 11  1  0  0  0  0
 15 21  1  0  0  0  0
 15 20  1  0  0  0  0
 16  2  1  6  0  0  0
 16  3  1  0  0  0  0
 17  8  1  0  0  0  0
 18  6  1  0  0  0  0
 18 14  2  0  0  0  0
 19  8  1  0  0  0  0
 20 19  2  0  0  0  0
 21 17  1  0  0  0  0
 22 26  1  0  0  0  0
 23 27  1  0  0  0  0
 23 12  1  0  0  0  0
 24 23  2  0  0  0  0
 25 22  2  0  0  0  0
 25 24  1  0  0  0  0
 26 27  2  0  0  0  0
M  END
>  <MODEL>
4

>  <REMARK>
 VINA RESULT:      -7.4      4.189      8.302
  Name = 
  1 active torsions:
  status: ('A' for Active; 'I' for Inactive)
    1  A    between atoms: C_9  and  N_15
                            x       y       z     vdW  Elec       q    Type
                         _______ _______ _______ _____ _____    ______ ____

>  <TORSDO>
F 1

$$$$
=
 OpenBabel10262420053D

 27 31  0  0  1  0  0  0  0  0999 V2000
  190.0760  178.3920  141.7840 C   0  0  0  0  0  3  0  0  0  0  0  0
  187.6230  178.0950  141.7900 C   0  0  0  0  0  0  0  0  0  0  0  0
  188.3560  177.0900  143.8990 N   0  0  0  0  0  0  0  0  0  0  0  0
  184.4310  179.8690  143.5310 C   0  0  0  0  0  3  0  0  0  0  0  0
  183.8220  179.8410  144.7150 C   0  0  0  0  0  3  0  0  0  0  0  0
  186.5700  178.7400  140.9770 C   0  0  0  0  0  3  0  0  0  0  0  0
  185.7410  177.4330  144.8480 C   0  0  0  0  0  3  0  0  0  0  0  0
  191.5540  177.2770  145.5190 C   0  0  0  0  0  0  0  0  0  0  0  0
  184.4780  177.5870  145.5980 C   0  0  0  0  0  3  0  0  0  0  0  0
  192.0150  177.0060  146.6580 O   0  0  0  0  0  0  0  0  0  0  0  0
  186.0190  177.9520  143.6440 C   0  0  0  0  0  0  0  0  0  0  0  0
  188.8990  177.8540  141.1730 N   0  0  0  0  0  0  0  0  0  0  0  0
  183.6470  178.6350  145.5450 C   0  0  0  0  0  3  0  0  0  0  0  0
  184.9380  178.6430  142.8460 C   0  0  0  0  0  0  0  0  0  0  0  0
  190.4030  178.1570  143.0490 C   0  0  0  0  0  0  0  0  0  0  0  0
  187.3760  177.7460  143.0710 C   0  0  2  0  0  3  0  0  0  0  0  0
  190.4110  176.4710  144.9730 C   0  0  0  0  0  2  0  0  0  0  0  0
  185.3530  178.9920  141.4500 C   0  0  0  0  0  3  0  0  0  0  0  0
  192.1900  178.3320  144.7110 C   0  0  0  0  0  3  0  0  0  0  0  0
  191.6660  178.7220  143.5490 C   0  0  0  0  0  3  0  0  0  0  0  0
  189.6500  177.2250  143.9220 C   0  0  0  0  0  0  0  0  0  0  0  0
  189.1950  176.3740  137.1900 C   0  0  0  0  0  3  0  0  0  0  0  0
  188.9850  177.3390  139.8240 C   0  0  0  0  0  0  0  0  0  0  0  0
  189.9680  176.3940  139.4840 C   0  0  0  0  0  3  0  0  0  0  0  0
  190.0710  175.9130  138.1760 C   0  0  0  0  0  3  0  0  0  0  0  0
  188.2200  177.3200  137.5120 C   0  0  0  0  0  3  0  0  0  0  0  0
  188.1170  177.8030  138.8190 C   0  0  0  0  0  3  0  0  0  0  0  0
  1 15  2  0  0  0  0
  3 21  2  0  0  0  0
  4  5  2  0  0  0  0
  5 13  1  0  0  0  0
  6 18  1  0  0  0  0
  6  2  2  0  0  0  0
  7  9  1  0  0  0  0
  8 10  2  0  0  0  0
 11  7  2  0  0  0  0
 12  1  1  0  0  0  0
 12  2  1  0  0  0  0
 13  9  2  0  0  0  0
 14  4  1  0  0  0  0
 14 11  1  0  0  0  0
 15 20  1  0  0  0  0
 15 21  1  0  0  0  0
 16  2  1  6  0  0  0
 16 11  1  0  0  0  0
 16  3  1  0  0  0  0
 17  8  1  0  0  0  0
 18 14  2  0  0  0  0
 19  8  1  0  0  0  0
 20 19  2  0  0  0  0
 21 17  1  0  0  0  0
 22 26  2  0  0  0  0
 22 25  1  0  0  0  0
 23 12  1  0  0  0  0
 24 23  1  0  0  0  0
 25 24  2  0  0  0  0
 26 27  1  0  0  0  0
 27 23  2  0  0  0  0
M  END
>  <MODEL>
5

>  <REMARK>
 VINA RESULT:      -7.0      2.697      4.981
  Name = 
  1 active torsions:
  status: ('A' for Active; 'I' for Inactive)
    1  A    between atoms: C_9  and  N_15
                            x       y       z     vdW  Elec       q    Type
                         _______ _______ _______ _____ _____    ______ ____

>  <TORSDO>
F 1

$$$$
=
 OpenBabel10262420053D

 27 31  0  0  1  0  0  0  0  0999 V2000
  182.2370  178.9680  140.8120 C   0  0  0  0  0  3  0  0  0  0  0  0
  183.0220  178.6690  138.4890 C   0  0  0  0  0  0  0  0  0  0  0  0
  185.0810  178.8140  139.8060 N   0  0  0  0  0  0  0  0  0  0  0  0
  184.4670  175.6470  136.2210 C   0  0  0  0  0  3  0  0  0  0  0  0
  185.6340  175.0270  136.0450 C   0  0  0  0  0  3  0  0  0  0  0  0
  182.3060  178.2120  137.2790 C   0  0  0  0  0  3  0  0  0  0  0  0
  186.3940  177.5140  137.6980 C   0  0  0  0  0  3  0  0  0  0  0  0
  185.5200  178.6860  143.3660 C   0  0  0  0  0  0  0  0  0  0  0  0
  187.2790  176.7720  136.7780 C   0  0  0  0  0  3  0  0  0  0  0  0
  186.4860  178.5430  144.1600 O   0  0  0  0  0  0  0  0  0  0  0  0
  185.0640  177.6370  137.5950 C   0  0  0  0  0  0  0  0  0  0  0  0
  182.2870  179.4330  139.4600 N   0  0  0  0  0  0  0  0  0  0  0  0
  186.9510  175.6890  136.0630 C   0  0  0  0  0  3  0  0  0  0  0  0
  184.3450  177.1270  136.3680 C   0  0  0  0  0  0  0  0  0  0  0  0
  183.3260  178.7080  141.5260 C   0  0  0  0  0  0  0  0  0  0  0  0
  184.3280  178.3710  138.6600 C   0  0  2  0  0  3  0  0  0  0  0  0
  185.7430  179.3650  142.0450 C   0  0  0  0  0  2  0  0  0  0  0  0
  182.8990  177.5130  136.3160 C   0  0  0  0  0  3  0  0  0  0  0  0
  184.1730  178.2530  143.7750 C   0  0  0  0  0  3  0  0  0  0  0  0
  183.1480  178.2880  142.9240 C   0  0  0  0  0  3  0  0  0  0  0  0
  184.7000  178.9810  141.0380 C   0  0  0  0  0  0  0  0  0  0  0  0
  179.6270  182.5450  138.2860 C   0  0  0  0  0  3  0  0  0  0  0  0
  181.3780  180.4790  139.0460 C   0  0  0  0  0  0  0  0  0  0  0  0
  181.8540  181.5990  138.3420 C   0  0  0  0  0  3  0  0  0  0  0  0
  180.9830  182.6240  137.9620 C   0  0  0  0  0  3  0  0  0  0  0  0
  179.1420  181.4430  138.9940 C   0  0  0  0  0  3  0  0  0  0  0  0
  180.0120  180.4190  139.3740 C   0  0  0  0  0  3  0  0  0  0  0  0
  1 15  2  0  0  0  0
  2 16  1  0  0  0  0
  2 12  1  0  0  0  0
  3 21  2  0  0  0  0
  4 14  1  0  0  0  0
  5 13  1  0  0  0  0
  5  4  2  0  0  0  0
  6  2  2  0  0  0  0
  8 19  1  0  0  0  0
  8 10  2  0  0  0  0
  9  7  1  0  0  0  0
 11  7  2  0  0  0  0
 12  1  1  0  0  0  0
 13  9  2  0  0  0  0
 14 11  1  0  0  0  0
 15 20  1  0  0  0  0
 16 11  1  6  0  0  0
 16  3  1  0  0  0  0
 17  8  1  0  0  0  0
 18 14  2  0  0  0  0
 18  6  1  0  0  0  0
 20 19  2  0  0  0  0
 21 15  1  0  0  0  0
 21 17  1  0  0  0  0
 22 26  1  0  0  0  0
 23 27  1  0  0  0  0
 23 12  1  0  0  0  0
 24 23  2  0  0  0  0
 25 22  2  0  0  0  0
 25 24  1  0  0  0  0
 26 27  2  0  0  0  0
M  END
>  <MODEL>
6

>  <REMARK>
 VINA RESULT:      -6.9      3.731      7.429
  Name = 
  1 active torsions:
  status: ('A' for Active; 'I' for Inactive)
    1  A    between atoms: C_9  and  N_15
                            x       y       z     vdW  Elec       q    Type
                         _______ _______ _______ _____ _____    ______ ____

>  <TORSDO>
F 1

$$$$
=
 OpenBabel10262420053D

 27 31  0  0  0  0  0  0  0  0999 V2000
  188.9870  175.9430  138.4670 C   0  0  0  0  0  3  0  0  0  0  0  0
  189.0050  177.1760  140.6070 C   0  0  0  0  0  0  0  0  0  0  0  0
  187.2440  178.2650  139.3010 N   0  0  0  0  0  0  0  0  0  0  0  0
  186.7950  177.2540  143.9950 C   0  0  0  0  0  3  0  0  0  0  0  0
  185.6450  177.7910  144.4000 C   0  0  0  0  0  2  0  0  0  0  0  0
  189.5990  176.8310  141.9160 C   0  0  0  0  0  3  0  0  0  0  0  0
  186.1810  179.2080  141.7170 C   0  0  0  0  0  3  0  0  0  0  0  0
  185.7010  177.2100  136.2360 C   0  0  0  0  0  0  0  0  0  0  0  0
  185.3900  179.7400  142.8440 C   0  0  0  0  0  3  0  0  0  0  0  0
  184.6820  177.5310  135.5720 O   0  0  0  0  0  0  0  0  0  0  0  0
  187.2160  178.3610  141.8030 C   0  0  0  0  0  0  0  0  0  0  0  0
  189.6910  176.7460  139.4200 N   0  0  0  0  0  0  0  0  0  0  0  0
  185.1520  179.1240  144.0080 C   0  0  0  0  0  3  0  0  0  0  0  0
  187.7840  177.9880  143.1530 C   0  0  0  0  0  0  0  0  0  0  0  0
  187.8330  176.3130  137.9240 C   0  0  0  0  0  0  0  0  0  0  0  0
  187.8530  177.8780  140.5480 C   0  0  0  0  0  0  0  0  0  0  0  0
  186.4120  178.2530  137.0500 C   0  0  0  0  0  2  0  0  0  0  0  0
  189.0510  177.1950  143.0720 C   0  0  0  0  0  3  0  0  0  0  0  0
  186.2230  175.8360  136.1460 C   0  0  0  0  0  3  0  0  0  0  0  0
  187.2330  175.4280  136.9150 C   0  0  0  0  0  3  0  0  0  0  0  0
  187.2150  177.6410  138.1600 C   0  0  0  0  0  0  0  0  0  0  0  0
  193.9300  177.0310  139.1210 C   0  0  0  0  0  3  0  0  0  0  0  0
  191.1280  176.8610  139.3110 C   0  0  0  0  0  0  0  0  0  0  0  0
  191.8080  176.2960  138.2180 C   0  0  0  0  0  3  0  0  0  0  0  0
  193.1990  176.3840  138.1220 C   0  0  0  0  0  3  0  0  0  0  0  0
  193.2690  177.5870  140.2180 C   0  0  0  0  0  3  0  0  0  0  0  0
  191.8780  177.5000  140.3150 C   0  0  0  0  0  3  0  0  0  0  0  0
  1 12  1  0  0  0  0
  2  6  1  0  0  0  0
  3 16  1  0  0  0  0
  4  5  1  0  0  0  0
  6 18  2  0  0  0  0
  7 11  2  0  0  0  0
  7  9  1  0  0  0  0
  8 17  1  0  0  0  0
  9 13  2  0  0  0  0
 10  8  2  0  0  0  0
 11 14  1  0  0  0  0
 12  2  1  0  0  0  0
 13  5  1  0  0  0  0
 14  4  2  0  0  0  0
 15 21  1  0  0  0  0
 15  1  2  0  0  0  0
 16  2  2  0  0  0  0
 16 11  1  0  0  0  0
 17 21  1  0  0  0  0
 18 14  1  0  0  0  0
 19  8  1  0  0  0  0
 19 20  2  0  0  0  0
 20 15  1  0  0  0  0
 21  3  2  0  0  0  0
 22 26  1  0  0  0  0
 23 12  1  0  0  0  0
 23 27  1  0  0  0  0
 24 23  2  0  0  0  0
 25 24  1  0  0  0  0
 25 22  2  0  0  0  0
 26 27  2  0  0  0  0
M  END
>  <MODEL>
7

>  <REMARK>
 VINA RESULT:      -6.9      3.306      6.714
  Name = 
  1 active torsions:
  status: ('A' for Active; 'I' for Inactive)
    1  A    between atoms: C_9  and  N_15
                            x       y       z     vdW  Elec       q    Type
                         _______ _______ _______ _____ _____    ______ ____

>  <TORSDO>
F 1

$$$$
=
 OpenBabel10262420053D

 27 31  0  0  1  0  0  0  0  0999 V2000
  184.1930  179.7300  140.1700 C   0  0  0  0  0  3  0  0  0  0  0  0
  186.2320  178.3960  139.7630 C   0  0  0  0  0  0  0  0  0  0  0  0
  184.6080  177.5170  138.1550 N   0  0  0  0  0  0  0  0  0  0  0  0
  189.2330  178.3290  137.0500 C   0  0  0  0  0  3  0  0  0  0  0  0
  189.4240  177.8670  135.8150 C   0  0  0  0  0  3  0  0  0  0  0  0
  187.6350  178.6270  140.1690 C   0  0  0  0  0  3  0  0  0  0  0  0
  186.7730  176.5450  136.6620 C   0  0  0  0  0  3  0  0  0  0  0  0
  181.4140  178.8420  137.1910 C   0  0  0  0  0  0  0  0  0  0  0  0
  187.7310  176.0230  135.6680 C   0  0  0  0  0  3  0  0  0  0  0  0
  180.5840  178.6370  136.2680 O   0  0  0  0  0  0  0  0  0  0  0  0
  187.0660  177.3010  137.7290 C   0  0  0  0  0  0  0  0  0  0  0  0
  185.1910  178.8280  140.6560 N   0  0  0  0  0  0  0  0  0  0  0  0
  188.8800  176.5990  135.2960 C   0  0  0  0  0  3  0  0  0  0  0  0
  188.5070  177.5600  138.1040 C   0  0  2  0  0  3  0  0  0  0  0  0
  183.4590  179.4810  139.0910 C   0  0  0  0  0  0  0  0  0  0  0  0
  185.9550  177.7930  138.5870 C   0  0  0  0  0  0  0  0  0  0  0  0
  182.2620  177.7070  137.6900 C   0  0  0  0  0  2  0  0  0  0  0  0
  188.6690  178.2520  139.4220 C   0  0  0  0  0  3  0  0  0  0  0  0
  181.4890  180.1730  137.8170 C   0  0  0  0  0  3  0  0  0  0  0  0
  182.4260  180.4600  138.7210 C   0  0  0  0  0  3  0  0  0  0  0  0
  183.5170  178.1970  138.3500 C   0  0  0  0  0  0  0  0  0  0  0  0
  185.5210  178.2200  144.8590 C   0  0  0  0  0  3  0  0  0  0  0  0
  185.2970  178.6030  142.0800 C   0  0  0  0  0  0  0  0  0  0  0  0
  184.2950  179.0670  142.9510 C   0  0  0  0  0  3  0  0  0  0  0  0
  184.4050  178.8740  144.3310 C   0  0  0  0  0  3  0  0  0  0  0  0
  186.5280  177.7630  144.0060 C   0  0  0  0  0  3  0  0  0  0  0  0
  186.4190  177.9560  142.6270 C   0  0  0  0  0  3  0  0  0  0  0  0
  1 12  1  0  0  0  0
  2  6  1  0  0  0  0
  2 12  1  0  0  0  0
  3 21  2  0  0  0  0
  3 16  1  0  0  0  0
  5  4  2  0  0  0  0
  7 11  2  0  0  0  0
  8 17  1  0  0  0  0
  8 19  1  0  0  0  0
  9  7  1  0  0  0  0
 10  8  2  0  0  0  0
 11 14  1  0  0  0  0
 11 16  1  0  0  0  0
 12 23  1  0  0  0  0
 13  9  2  0  0  0  0
 13  5  1  0  0  0  0
 14  4  1  6  0  0  0
 14 18  1  0  0  0  0
 15  1  2  0  0  0  0
 16  2  2  0  0  0  0
 17 21  1  0  0  0  0
 18  6  2  0  0  0  0
 19 20  2  0  0  0  0
 20 15  1  0  0  0  0
 21 15  1  0  0  0  0
 23 27  2  0  0  0  0
 23 24  1  0  0  0  0
 24 25  2  0  0  0  0
 25 22  1  0  0  0  0
 26 22  2  0  0  0  0
 27 26  1  0  0  0  0
M  END
>  <MODEL>
8

>  <REMARK>
 VINA RESULT:      -6.9      3.664      7.644
  Name = 
  1 active torsions:
  status: ('A' for Active; 'I' for Inactive)
    1  A    between atoms: C_9  and  N_15
                            x       y       z     vdW  Elec       q    Type
                         _______ _______ _______ _____ _____    ______ ____

>  <TORSDO>
F 1

$$$$
=
 OpenBabel10262420053D

 27 31  0  0  1  0  0  0  0  0999 V2000
  180.9590  179.5850  141.1160 C   0  0  0  0  0  3  0  0  0  0  0  0
  181.0380  178.4560  138.9200 C   0  0  0  0  0  0  0  0  0  0  0  0
  183.1920  177.9170  139.9510 N   0  0  0  0  0  0  0  0  0  0  0  0
  180.5630  174.6950  137.5070 C   0  0  0  0  0  3  0  0  0  0  0  0
  181.2940  173.5850  137.4170 C   0  0  0  0  0  3  0  0  0  0  0  0
  179.9600  178.1290  137.9620 C   0  0  0  0  0  3  0  0  0  0  0  0
  183.3600  175.7310  138.2040 C   0  0  0  0  0  3  0  0  0  0  0  0
  184.2720  178.3830  143.3420 C   0  0  0  0  0  0  0  0  0  0  0  0
  183.6350  174.4830  137.4640 C   0  0  0  0  0  3  0  0  0  0  0  0
  185.2300  177.9870  144.0550 O   0  0  0  0  0  0  0  0  0  0  0  0
  182.2170  176.4300  138.1870 C   0  0  0  0  0  0  0  0  0  0  0  0
  180.9150  179.6650  139.6880 N   0  0  0  0  0  0  0  0  0  0  0  0
  182.7390  173.5480  137.1260 C   0  0  0  0  0  3  0  0  0  0  0  0
  181.1100  176.0550  137.2290 C   0  0  0  0  0  0  0  0  0  0  0  0
  181.9600  179.0140  141.7760 C   0  0  0  0  0  0  0  0  0  0  0  0
  182.1000  177.6340  139.0540 C   0  0  2  0  0  3  0  0  0  0  0  0
  184.4780  178.5740  141.8670 C   0  0  0  0  0  2  0  0  0  0  0  0
  179.9860  177.0440  137.1950 C   0  0  0  0  0  3  0  0  0  0  0  0
  182.9870  178.7230  143.9760 C   0  0  0  0  0  3  0  0  0  0  0  0
  181.9190  179.0420  143.2450 C   0  0  0  0  0  3  0  0  0  0  0  0
  183.1840  178.5060  141.1110 C   0  0  0  0  0  0  0  0  0  0  0  0
  179.6370  183.3120  137.8970 C   0  0  0  0  0  3  0  0  0  0  0  0
  180.4670  180.8930  139.0700 C   0  0  0  0  0  0  0  0  0  0  0  0
  181.1570  181.4300  137.9690 C   0  0  0  0  0  3  0  0  0  0  0  0
  180.7430  182.6300  137.3850 C   0  0  0  0  0  3  0  0  0  0  0  0
  178.9470  182.7950  138.9960 C   0  0  0  0  0  3  0  0  0  0  0  0
  179.3620  181.5960  139.5810 C   0  0  0  0  0  3  0  0  0  0  0  0
  1 15  2  0  0  0  0
  2 16  1  0  0  0  0
  2 12  1  0  0  0  0
  3 21  2  0  0  0  0
  5  4  2  0  0  0  0
  6  2  2  0  0  0  0
  8 19  1  0  0  0  0
  8 10  2  0  0  0  0
  9  7  1  0  0  0  0
 11  7  2  0  0  0  0
 12  1  1  0  0  0  0
 13  5  1  0  0  0  0
 13  9  2  0  0  0  0
 14  4  1  0  0  0  0
 14 11  1  0  0  0  0
 15 20  1  0  0  0  0
 16 11  1  6  0  0  0
 16  3  1  0  0  0  0
 17  8  1  0  0  0  0
 18 14  2  0  0  0  0
 18  6  1  0  0  0  0
 20 19  2  0  0  0  0
 21 15  1  0  0  0  0
 21 17  1  0  0  0  0
 22 26  1  0  0  0  0
 23 27  1  0  0  0  0
 23 12  1  0  0  0  0
 24 23  2  0  0  0  0
 25 22  2  0  0  0  0
 25 24  1  0  0  0  0
 26 27  2  0  0  0  0
M  END
>  <MODEL>
9

>  <REMARK>
 VINA RESULT:      -6.8      4.063      8.099
  Name = 
  1 active torsions:
  status: ('A' for Active; 'I' for Inactive)
    1  A    between atoms: C_9  and  N_15
                            x       y       z     vdW  Elec       q    Type
                         _______ _______ _______ _____ _____    ______ ____

>  <TORSDO>
F 1

$$$$
