=
 OpenBabel10262423073D

 37 37  0  0  1  0  0  0  0  0999 V2000
  189.6420  175.6210  142.4550 O   0  0  0  0  0  1  0  0  0  0  0  0
  189.6080  177.0240  142.5090 C   0  0  1  0  0  0  0  0  0  0  0  0
  191.8970  176.9480  143.3460 O   0  0  0  0  0  0  0  0  0  0  0  0
  191.1420  176.5200  144.4560 C   0  0  2  0  0  3  0  0  0  0  0  0
  190.6400  177.5590  143.5230 C   0  0  2  0  0  3  0  0  0  0  0  0
  191.6710  177.1920  145.7090 C   0  0  0  0  0  2  0  0  0  0  0  0
  191.8970  176.9930  148.0560 F   0  0  0  0  0  0  0  0  0  0  0  0
  191.4460  176.3220  146.9370 C   0  0  0  0  0  0  0  0  0  0  0  0
  192.1450  175.1350  146.8110 F   0  0  0  0  0  0  0  0  0  0  0  0
  190.0980  176.0510  147.0870 F   0  0  0  0  0  0  0  0  0  0  0  0
  189.9750  177.5830  141.1160 C   0  0  2  0  0  3  0  0  0  0  0  0
  188.1900  177.6760  139.2500 C   0  0  0  0  0  0  0  0  0  0  0  0
  188.8350  178.1920  140.4190 N   0  0  0  0  0  2  0  0  0  0  0  0
  188.6330  176.6530  138.6650 O   0  0  0  0  0  0  0  0  0  0  0  0
  187.0460  178.3390  138.7310 N   0  0  0  0  0  1  0  0  0  0  0  0
  190.7560  176.6110  140.2320 C   0  0  0  0  0  2  0  0  0  0  0  0
  192.1020  177.1950  139.8510 C   0  0  0  0  0  2  0  0  0  0  0  0
  192.4710  176.7250  138.4610 C   0  0  0  0  0  2  0  0  0  0  0  0
  193.7470  176.1580  138.4800 O   0  0  0  0  0  0  0  0  0  0  0  0
  194.1820  173.9150  137.8120 C   0  0  0  0  0  1  0  0  0  0  0  0
  193.7750  175.3100  137.3710 C   0  0  1  0  0  3  0  0  0  0  0  0
  192.3990  175.2760  136.7250 C   0  0  0  0  0  2  0  0  0  0  0  0
  190.3700  173.8630  137.0650 C   0  0  0  0  0  1  0  0  0  0  0  0
  191.8390  173.8610  136.6900 C   0  0  0  0  0  2  0  0  0  0  0  0
  188.2230  177.4860  142.9850 C   0  0  0  0  0  2  0  0  0  0  0  0
  187.9050  177.0750  144.4180 C   0  0  0  0  0  2  0  0  0  0  0  0
  187.8940  178.2960  145.3270 C   0  0  0  0  0  2  0  0  0  0  0  0
  186.7940  178.2240  146.2820 N   0  0  0  0  0  0  0  0  0  0  0  0
  184.5510  178.6280  146.8050 O   0  0  0  0  0  0  0  0  0  0  0  0
  185.4760  178.6970  145.9520 C   0  0  0  0  0  0  0  0  0  0  0  0
  187.0250  177.5210  147.5340 C   0  0  0  0  0  1  0  0  0  0  0  0
  185.1780  179.2840  144.6100 C   0  0  0  0  0  2  0  0  0  0  0  0
  184.2630  178.3710  143.8020 C   0  0  1  0  0  3  0  0  0  0  0  0
  182.8350  178.8860  143.8470 C   0  0  0  0  0  1  0  0  0  0  0  0
  184.7430  178.1880  142.3610 C   0  0  0  0  0  2  0  0  0  0  0  0
  183.7750  178.7800  141.3460 C   0  0  0  0  0  2  0  0  0  0  0  0
  184.4860  179.5310  140.4120 O   0  0  0  0  0  1  0  0  0  0  0  0
  2  1  1  6  0  0  0
  2 25  1  0  0  0  0
  3  5  1  0  0  0  0
  3  4  1  0  0  0  0
  4  6  1  1  0  0  0
  5  2  1  6  0  0  0
  5  4  1  0  0  0  0
  6  8  1  0  0  0  0
  8 10  1  0  0  0  0
  8  7  1  0  0  0  0
  9  8  1  0  0  0  0
 11 16  1  6  0  0  0
 11  2  1  0  0  0  0
 12 13  1  0  0  0  0
 13 11  1  0  0  0  0
 14 12  2  0  0  0  0
 15 12  1  0  0  0  0
 17 16  1  0  0  0  0
 18 19  1  0  0  0  0
 18 17  1  0  0  0  0
 21 20  1  1  0  0  0
 21 19  1  0  0  0  0
 22 21  1  0  0  0  0
 24 22  1  0  0  0  0
 24 23  1  0  0  0  0
 25 26  1  0  0  0  0
 26 27  1  0  0  0  0
 27 28  1  0  0  0  0
 28 31  1  0  0  0  0
 30 28  1  0  0  0  0
 30 29  2  0  0  0  0
 32 30  1  0  0  0  0
 33 34  1  6  0  0  0
 33 32  1  0  0  0  0
 35 33  1  0  0  0  0
 36 35  1  0  0  0  0
 37 36  1  0  0  0  0
M  END
>  <MODEL>
1

>  <REMARK>
 VINA RESULT:      -6.8      0.000      0.000
  Name = 
  20 active torsions:
  status: ('A' for Active; 'I' for Inactive)
    1  A    between atoms: C_1  and  N_5
    2  A    between atoms: C_1  and  C_36
    3  A    between atoms: C_6  and  O_8
    4  A    between atoms: C_6  and  C_31
    5  A    between atoms: C_7  and  C_33
    6  A    between atoms: O_8  and  C_19
    7  A    between atoms: C_10  and  C_14
    8  A    between atoms: C_10  and  C_20
    9  A    between atoms: C_10  and  N_22
   10  A    between atoms: C_11  and  C_26
   11  A    between atoms: C_11  and  C_33
   12  A    between atoms: C_14  and  C_31
   13  A    between atoms: C_16  and  C_30
   14  A    between atoms: C_17  and  C_26
   15  A    between atoms: C_18  and  C_19
   16  A    between atoms: C_18  and  C_35
   17  A    between atoms: C_20  and  C_24
   18  A    between atoms: C_20  and  C_29
   19  A    between atoms: C_21  and  C_30
   20  A    between atoms: C_29  and  C_36
                            x       y       z     vdW  Elec       q    Type
                         _______ _______ _______ _____ _____    ______ ____

>  <TORSDO>
F 20

$$$$
=
 OpenBabel10262423073D

 37 37  0  0  1  0  0  0  0  0999 V2000
  190.1120  175.8300  141.1350 O   0  0  0  0  0  1  0  0  0  0  0  0
  190.3190  177.1350  140.6570 C   0  0  1  0  0  0  0  0  0  0  0  0
  190.7680  175.8670  138.6230 O   0  0  0  0  0  0  0  0  0  0  0  0
  192.0590  176.1170  139.1290 C   0  0  2  0  0  3  0  0  0  0  0  0
  190.9630  177.1100  139.2560 C   0  0  2  0  0  3  0  0  0  0  0  0
  192.9710  176.5280  137.9890 C   0  0  0  0  0  2  0  0  0  0  0  0
  194.6660  175.5640  136.6470 F   0  0  0  0  0  0  0  0  0  0  0  0
  193.4130  175.3200  137.1760 C   0  0  0  0  0  0  0  0  0  0  0  0
  192.5240  175.0960  136.1410 F   0  0  0  0  0  0  0  0  0  0  0  0
  193.4750  174.1990  137.9840 F   0  0  0  0  0  0  0  0  0  0  0  0
  188.9500  177.8430  140.5390 C   0  0  2  0  0  3  0  0  0  0  0  0
  188.0340  178.2520  138.1590 C   0  0  0  0  0  0  0  0  0  0  0  0
  188.8070  178.6230  139.3040 N   0  0  0  0  0  2  0  0  0  0  0  0
  187.4600  177.1330  138.1000 O   0  0  0  0  0  0  0  0  0  0  0  0
  187.9300  179.1500  137.0630 N   0  0  0  0  0  1  0  0  0  0  0  0
  188.5360  178.6270  141.7840 C   0  0  0  0  0  2  0  0  0  0  0  0
  187.3830  177.9440  142.4910 C   0  0  0  0  0  2  0  0  0  0  0  0
  186.0980  178.2460  141.7520 C   0  0  0  0  0  2  0  0  0  0  0  0
  185.5040  179.3900  142.2900 O   0  0  0  0  0  0  0  0  0  0  0  0
  183.8290  178.1770  141.1130 C   0  0  0  0  0  1  0  0  0  0  0  0
  184.1340  179.1270  142.2570 C   0  0  1  0  0  3  0  0  0  0  0  0
  183.7040  178.5110  143.5800 C   0  0  0  0  0  2  0  0  0  0  0  0
  181.2300  178.5880  143.9000 C   0  0  0  0  0  1  0  0  0  0  0  0
  182.5460  179.2800  144.1990 C   0  0  0  0  0  2  0  0  0  0  0  0
  191.2880  177.8750  141.5900 C   0  0  0  0  0  2  0  0  0  0  0  0
  191.6960  177.0600  142.8120 C   0  0  0  0  0  2  0  0  0  0  0  0
  191.3080  177.7940  144.0880 C   0  0  0  0  0  2  0  0  0  0  0  0
  191.2150  176.8690  145.2110 N   0  0  0  0  0  0  0  0  0  0  0  0
  190.1530  176.1990  147.1850 O   0  0  0  0  0  0  0  0  0  0  0  0
  190.2000  177.0100  146.2220 C   0  0  0  0  0  0  0  0  0  0  0  0
  192.0830  175.7030  145.2080 C   0  0  0  0  0  1  0  0  0  0  0  0
  189.1960  178.1160  146.1610 C   0  0  0  0  0  2  0  0  0  0  0  0
  187.9090  177.7290  146.8810 C   0  0  1  0  0  3  0  0  0  0  0  0
  187.8810  178.3410  148.2710 C   0  0  0  0  0  1  0  0  0  0  0  0
  186.6580  178.1030  146.0830 C   0  0  0  0  0  2  0  0  0  0  0  0
  185.7060  178.9890  146.8740 C   0  0  0  0  0  2  0  0  0  0  0  0
  184.4760  178.3470  147.0040 O   0  0  0  0  0  1  0  0  0  0  0  0
  2  1  1  1  0  0  0
  2 25  1  0  0  0  0
  3  4  1  0  0  0  0
  3  5  1  0  0  0  0
  4  6  1  6  0  0  0
  4  5  1  0  0  0  0
  5  2  1  1  0  0  0
  7  8  1  0  0  0  0
  8 10  1  0  0  0  0
  8  6  1  0  0  0  0
  9  8  1  0  0  0  0
 11  2  1  0  0  0  0
 11 16  1  1  0  0  0
 12 13  1  0  0  0  0
 13 11  1  0  0  0  0
 14 12  2  0  0  0  0
 15 12  1  0  0  0  0
 16 17  1  0  0  0  0
 18 19  1  0  0  0  0
 18 17  1  0  0  0  0
 21 20  1  6  0  0  0
 21 19  1  0  0  0  0
 21 22  1  0  0  0  0
 22 24  1  0  0  0  0
 23 24  1  0  0  0  0
 25 26  1  0  0  0  0
 26 27  1  0  0  0  0
 27 28  1  0  0  0  0
 28 30  1  0  0  0  0
 30 29  2  0  0  0  0
 31 28  1  0  0  0  0
 32 30  1  0  0  0  0
 32 33  1  0  0  0  0
 33 34  1  1  0  0  0
 35 36  1  0  0  0  0
 35 33  1  0  0  0  0
 36 37  1  0  0  0  0
M  END
>  <MODEL>
2

>  <REMARK>
 VINA RESULT:      -6.7      3.288      7.095
  Name = 
  20 active torsions:
  status: ('A' for Active; 'I' for Inactive)
    1  A    between atoms: C_1  and  N_5
    2  A    between atoms: C_1  and  C_36
    3  A    between atoms: C_6  and  O_8
    4  A    between atoms: C_6  and  C_31
    5  A    between atoms: C_7  and  C_33
    6  A    between atoms: O_8  and  C_19
    7  A    between atoms: C_10  and  C_14
    8  A    between atoms: C_10  and  C_20
    9  A    between atoms: C_10  and  N_22
   10  A    between atoms: C_11  and  C_26
   11  A    between atoms: C_11  and  C_33
   12  A    between atoms: C_14  and  C_31
   13  A    between atoms: C_16  and  C_30
   14  A    between atoms: C_17  and  C_26
   15  A    between atoms: C_18  and  C_19
   16  A    between atoms: C_18  and  C_35
   17  A    between atoms: C_20  and  C_24
   18  A    between atoms: C_20  and  C_29
   19  A    between atoms: C_21  and  C_30
   20  A    between atoms: C_29  and  C_36
                            x       y       z     vdW  Elec       q    Type
                         _______ _______ _______ _____ _____    ______ ____

>  <TORSDO>
F 20

$$$$
=
 OpenBabel10262423073D

 37 37  0  0  1  0  0  0  0  0999 V2000
  185.2010  180.2260  142.9420 O   0  0  0  0  0  1  0  0  0  0  0  0
  184.7200  178.9090  143.0120 C   0  0  1  0  0  0  0  0  0  0  0  0
  184.1530  179.5420  145.2970 O   0  0  0  0  0  0  0  0  0  0  0  0
  185.4950  179.1260  145.4100 C   0  0  2  0  0  3  0  0  0  0  0  0
  184.5470  178.4650  144.4790 C   0  0  2  0  0  3  0  0  0  0  0  0
  185.6510  178.2690  146.6510 C   0  0  0  0  0  2  0  0  0  0  0  0
  187.3710  176.7680  147.2740 F   0  0  0  0  0  0  0  0  0  0  0  0
  187.1160  178.1030  147.0250 C   0  0  0  0  0  0  0  0  0  0  0  0
  187.4010  178.8350  148.1620 F   0  0  0  0  0  0  0  0  0  0  0  0
  187.9230  178.5290  145.9860 F   0  0  0  0  0  0  0  0  0  0  0  0
  183.3340  178.8510  142.3310 C   0  0  2  0  0  3  0  0  0  0  0  0
  180.9770  179.1620  143.3420 C   0  0  0  0  0  0  0  0  0  0  0  0
  182.2470  178.5090  143.2570 N   0  0  0  0  0  2  0  0  0  0  0  0
  180.7250  180.1800  142.6460 O   0  0  0  0  0  0  0  0  0  0  0  0
  179.9940  178.6670  144.2410 N   0  0  0  0  0  1  0  0  0  0  0  0
  183.2960  178.0240  141.0460 C   0  0  0  0  0  2  0  0  0  0  0  0
  182.5560  178.7640  139.9510 C   0  0  0  0  0  2  0  0  0  0  0  0
  182.8980  178.1450  138.6130 C   0  0  0  0  0  2  0  0  0  0  0  0
  184.0760  177.4040  138.7260 O   0  0  0  0  0  0  0  0  0  0  0  0
  186.2040  177.8290  137.7490 C   0  0  0  0  0  1  0  0  0  0  0  0
  184.7260  177.5820  137.5040 C   0  0  1  0  0  3  0  0  0  0  0  0
  184.5370  176.3410  136.6440 C   0  0  0  0  0  2  0  0  0  0  0  0
  184.4170  174.0110  137.5280 C   0  0  0  0  0  1  0  0  0  0  0  0
  185.3380  175.1660  137.1850 C   0  0  0  0  0  2  0  0  0  0  0  0
  185.7350  177.9560  142.3660 C   0  0  0  0  0  2  0  0  0  0  0  0
  186.8260  178.6730  141.5790 C   0  0  0  0  0  2  0  0  0  0  0  0
  188.1500  178.5990  142.3260 C   0  0  0  0  0  2  0  0  0  0  0  0
  189.0040  177.5560  141.7700 N   0  0  0  0  0  0  0  0  0  0  0  0
  190.4460  175.7450  142.1020 O   0  0  0  0  0  0  0  0  0  0  0  0
  189.7090  176.6290  142.6150 C   0  0  0  0  0  0  0  0  0  0  0  0
  189.0090  177.3770  140.3270 C   0  0  0  0  0  1  0  0  0  0  0  0
  189.5950  176.6980  144.1040 C   0  0  0  0  0  2  0  0  0  0  0  0
  190.9290  177.0740  144.7390 C   0  0  1  0  0  3  0  0  0  0  0  0
  191.3670  178.4490  144.2660 C   0  0  0  0  0  1  0  0  0  0  0  0
  190.8920  176.9980  146.2670 C   0  0  0  0  0  2  0  0  0  0  0  0
  191.8560  175.9590  146.8220 C   0  0  0  0  0  2  0  0  0  0  0  0
  192.5530  176.5030  147.8990 O   0  0  0  0  0  1  0  0  0  0  0  0
  2  1  1  6  0  0  0
  3  4  1  0  0  0  0
  4  6  1  1  0  0  0
  5  2  1  6  0  0  0
  5  3  1  0  0  0  0
  5  4  1  0  0  0  0
  6  8  1  0  0  0  0
  8  7  1  0  0  0  0
  8  9  1  0  0  0  0
 10  8  1  0  0  0  0
 11 16  1  6  0  0  0
 11  2  1  0  0  0  0
 11 13  1  0  0  0  0
 12 15  1  0  0  0  0
 13 12  1  0  0  0  0
 14 12  2  0  0  0  0
 17 16  1  0  0  0  0
 18 19  1  0  0  0  0
 18 17  1  0  0  0  0
 21 20  1  1  0  0  0
 21 19  1  0  0  0  0
 22 24  1  0  0  0  0
 22 21  1  0  0  0  0
 24 23  1  0  0  0  0
 25  2  1  0  0  0  0
 26 27  1  0  0  0  0
 26 25  1  0  0  0  0
 28 27  1  0  0  0  0
 28 30  1  0  0  0  0
 29 30  2  0  0  0  0
 30 32  1  0  0  0  0
 31 28  1  0  0  0  0
 32 33  1  0  0  0  0
 33 34  1  1  0  0  0
 33 35  1  0  0  0  0
 35 36  1  0  0  0  0
 36 37  1  0  0  0  0
M  END
>  <MODEL>
3

>  <REMARK>
 VINA RESULT:      -6.6      3.175      7.319
  Name = 
  20 active torsions:
  status: ('A' for Active; 'I' for Inactive)
    1  A    between atoms: C_1  and  N_5
    2  A    between atoms: C_1  and  C_36
    3  A    between atoms: C_6  and  O_8
    4  A    between atoms: C_6  and  C_31
    5  A    between atoms: C_7  and  C_33
    6  A    between atoms: O_8  and  C_19
    7  A    between atoms: C_10  and  C_14
    8  A    between atoms: C_10  and  C_20
    9  A    between atoms: C_10  and  N_22
   10  A    between atoms: C_11  and  C_26
   11  A    between atoms: C_11  and  C_33
   12  A    between atoms: C_14  and  C_31
   13  A    between atoms: C_16  and  C_30
   14  A    between atoms: C_17  and  C_26
   15  A    between atoms: C_18  and  C_19
   16  A    between atoms: C_18  and  C_35
   17  A    between atoms: C_20  and  C_24
   18  A    between atoms: C_20  and  C_29
   19  A    between atoms: C_21  and  C_30
   20  A    between atoms: C_29  and  C_36
                            x       y       z     vdW  Elec       q    Type
                         _______ _______ _______ _____ _____    ______ ____

>  <TORSDO>
F 20

$$$$
=
 OpenBabel10262423073D

 37 37  0  0  1  0  0  0  0  0999 V2000
  187.9980  176.5340  142.0170 O   0  0  0  0  0  1  0  0  0  0  0  0
  188.2350  177.8330  142.4960 C   0  0  1  0  0  0  0  0  0  0  0  0
  188.1410  176.6200  144.6090 O   0  0  0  0  0  0  0  0  0  0  0  0
  186.8430  177.1590  144.4970 C   0  0  2  0  0  3  0  0  0  0  0  0
  188.0400  177.8980  144.0240 C   0  0  2  0  0  3  0  0  0  0  0  0
  186.4160  177.7150  145.8420 C   0  0  0  0  0  2  0  0  0  0  0  0
  184.5290  178.2710  144.5270 F   0  0  0  0  0  0  0  0  0  0  0  0
  185.1730  178.5810  145.7090 C   0  0  0  0  0  0  0  0  0  0  0  0
  185.5260  179.9180  145.6910 F   0  0  0  0  0  0  0  0  0  0  0  0
  184.3120  178.3450  146.7660 F   0  0  0  0  0  0  0  0  0  0  0  0
  189.7000  178.2160  142.1860 C   0  0  2  0  0  3  0  0  0  0  0  0
  190.3180  177.3790  139.8210 C   0  0  0  0  0  0  0  0  0  0  0  0
  190.3530  177.2930  141.2490 N   0  0  0  0  0  2  0  0  0  0  0  0
  189.6190  178.2520  139.2420 O   0  0  0  0  0  0  0  0  0  0  0  0
  191.0640  176.4520  139.0450 N   0  0  0  0  0  1  0  0  0  0  0  0
  190.5530  178.5030  143.4210 C   0  0  0  0  0  2  0  0  0  0  0  0
  191.7440  177.5680  143.4810 C   0  0  0  0  0  2  0  0  0  0  0  0
  191.5830  176.6330  144.6590 C   0  0  0  0  0  2  0  0  0  0  0  0
  191.7220  177.3490  145.8500 O   0  0  0  0  0  0  0  0  0  0  0  0
  192.4010  175.6340  147.3550 C   0  0  0  0  0  1  0  0  0  0  0  0
  191.2520  176.4840  146.8410 C   0  0  1  0  0  3  0  0  0  0  0  0
  190.6500  177.2950  147.9780 C   0  0  0  0  0  2  0  0  0  0  0  0
  188.4710  178.1600  148.8320 C   0  0  0  0  0  1  0  0  0  0  0  0
  189.2930  177.8670  147.5920 C   0  0  0  0  0  2  0  0  0  0  0  0
  187.2250  178.8040  141.8680 C   0  0  0  0  0  2  0  0  0  0  0  0
  185.8680  178.1710  141.5850 C   0  0  0  0  0  2  0  0  0  0  0  0
  185.0700  179.0400  140.6230 C   0  0  0  0  0  2  0  0  0  0  0  0
  184.7780  178.3180  139.3910 N   0  0  0  0  0  0  0  0  0  0  0  0
  183.3770  176.8920  138.1760 O   0  0  0  0  0  0  0  0  0  0  0  0
  183.5950  177.5100  139.2520 C   0  0  0  0  0  0  0  0  0  0  0  0
  185.6380  178.5550  138.2420 C   0  0  0  0  0  1  0  0  0  0  0  0
  182.6140  177.3770  140.3720 C   0  0  0  0  0  2  0  0  0  0  0  0
  181.6220  178.5340  140.3730 C   0  0  1  0  0  3  0  0  0  0  0  0
  180.5030  178.2670  139.3800 C   0  0  0  0  0  1  0  0  0  0  0  0
  181.0670  178.8280  141.7690 C   0  0  0  0  0  2  0  0  0  0  0  0
  179.7360  178.1350  142.0240 C   0  0  0  0  0  2  0  0  0  0  0  0
  179.4660  178.1390  143.3910 O   0  0  0  0  0  1  0  0  0  0  0  0
  2  1  1  6  0  0  0
  4  3  1  0  0  0  0
  4  6  1  1  0  0  0
  5  2  1  6  0  0  0
  5  4  1  0  0  0  0
  5  3  1  0  0  0  0
  7  8  1  0  0  0  0
  8  6  1  0  0  0  0
  8 10  1  0  0  0  0
  9  8  1  0  0  0  0
 11  2  1  0  0  0  0
 11 16  1  1  0  0  0
 12 13  1  0  0  0  0
 13 11  1  0  0  0  0
 14 12  2  0  0  0  0
 15 12  1  0  0  0  0
 16 17  1  0  0  0  0
 17 18  1  0  0  0  0
 18 19  1  0  0  0  0
 19 21  1  0  0  0  0
 21 20  1  1  0  0  0
 21 22  1  0  0  0  0
 24 22  1  0  0  0  0
 24 23  1  0  0  0  0
 25  2  1  0  0  0  0
 26 25  1  0  0  0  0
 27 26  1  0  0  0  0
 28 27  1  0  0  0  0
 29 30  2  0  0  0  0
 30 28  1  0  0  0  0
 30 32  1  0  0  0  0
 31 28  1  0  0  0  0
 32 33  1  0  0  0  0
 33 34  1  6  0  0  0
 33 35  1  0  0  0  0
 35 36  1  0  0  0  0
 36 37  1  0  0  0  0
M  END
>  <MODEL>
4

>  <REMARK>
 VINA RESULT:      -6.6      3.456      6.463
  Name = 
  20 active torsions:
  status: ('A' for Active; 'I' for Inactive)
    1  A    between atoms: C_1  and  N_5
    2  A    between atoms: C_1  and  C_36
    3  A    between atoms: C_6  and  O_8
    4  A    between atoms: C_6  and  C_31
    5  A    between atoms: C_7  and  C_33
    6  A    between atoms: O_8  and  C_19
    7  A    between atoms: C_10  and  C_14
    8  A    between atoms: C_10  and  C_20
    9  A    between atoms: C_10  and  N_22
   10  A    between atoms: C_11  and  C_26
   11  A    between atoms: C_11  and  C_33
   12  A    between atoms: C_14  and  C_31
   13  A    between atoms: C_16  and  C_30
   14  A    between atoms: C_17  and  C_26
   15  A    between atoms: C_18  and  C_19
   16  A    between atoms: C_18  and  C_35
   17  A    between atoms: C_20  and  C_24
   18  A    between atoms: C_20  and  C_29
   19  A    between atoms: C_21  and  C_30
   20  A    between atoms: C_29  and  C_36
                            x       y       z     vdW  Elec       q    Type
                         _______ _______ _______ _____ _____    ______ ____

>  <TORSDO>
F 20

$$$$
=
 OpenBabel10262423073D

 37 37  0  0  1  0  0  0  0  0999 V2000
  188.5930  179.4470  141.3230 O   0  0  0  0  0  1  0  0  0  0  0  0
  187.9290  178.3440  140.7620 C   0  0  1  0  0  0  0  0  0  0  0  0
  186.0480  179.8010  141.2980 O   0  0  0  0  0  0  0  0  0  0  0  0
  185.9590  178.7970  142.2830 C   0  0  2  0  0  3  0  0  0  0  0  0
  186.4000  178.4960  140.8990 C   0  0  2  0  0  3  0  0  0  0  0  0
  184.5090  178.3810  142.4440 C   0  0  0  0  0  2  0  0  0  0  0  0
  184.5990  180.2060  143.9490 F   0  0  0  0  0  0  0  0  0  0  0  0
  183.8660  179.0780  143.6340 C   0  0  0  0  0  0  0  0  0  0  0  0
  183.8530  178.2310  144.7270 F   0  0  0  0  0  0  0  0  0  0  0  0
  182.5720  179.4530  143.3240 F   0  0  0  0  0  0  0  0  0  0  0  0
  188.2680  178.2740  139.2560 C   0  0  2  0  0  3  0  0  0  0  0  0
  186.7620  178.2390  137.1570 C   0  0  0  0  0  0  0  0  0  0  0  0
  187.1670  177.7480  138.4390 N   0  0  0  0  0  2  0  0  0  0  0  0
  187.3010  179.2600  136.6550 O   0  0  0  0  0  0  0  0  0  0  0  0
  185.7230  177.5760  136.4500 N   0  0  0  0  0  1  0  0  0  0  0  0
  189.6070  177.6070  138.9410 C   0  0  0  0  0  2  0  0  0  0  0  0
  189.4010  176.3460  138.1280 C   0  0  0  0  0  2  0  0  0  0  0  0
  189.9670  176.5520  136.7400 C   0  0  0  0  0  2  0  0  0  0  0  0
  190.2130  175.3130  136.1440 O   0  0  0  0  0  0  0  0  0  0  0  0
  191.6510  173.4290  136.3660 C   0  0  0  0  0  1  0  0  0  0  0  0
  191.4360  174.9000  136.6750 C   0  0  1  0  0  3  0  0  0  0  0  0
  192.5570  175.7330  136.0710 C   0  0  0  0  0  2  0  0  0  0  0  0
  193.1470  176.5840  138.3410 C   0  0  0  0  0  1  0  0  0  0  0  0
  193.6830  175.9520  137.0710 C   0  0  0  0  0  2  0  0  0  0  0  0
  188.3270  177.0670  141.5170 C   0  0  0  0  0  2  0  0  0  0  0  0
  189.5560  177.2430  142.4010 C   0  0  0  0  0  2  0  0  0  0  0  0
  189.7760  176.0000  143.2520 C   0  0  0  0  0  2  0  0  0  0  0  0
  190.8770  176.1970  144.1860 N   0  0  0  0  0  0  0  0  0  0  0  0
  191.7890  177.3410  146.0120 O   0  0  0  0  0  0  0  0  0  0  0  0
  190.8160  177.1900  145.2270 C   0  0  0  0  0  0  0  0  0  0  0  0
  191.9880  175.2590  144.1380 C   0  0  0  0  0  1  0  0  0  0  0  0
  189.6140  178.0640  145.3920 C   0  0  0  0  0  2  0  0  0  0  0  0
  188.5330  177.3620  146.2070 C   0  0  1  0  0  3  0  0  0  0  0  0
  188.8530  177.4510  147.6890 C   0  0  0  0  0  1  0  0  0  0  0  0
  187.1320  177.9000  145.9070 C   0  0  0  0  0  2  0  0  0  0  0  0
  186.3700  178.2740  147.1700 C   0  0  0  0  0  2  0  0  0  0  0  0
  185.6340  179.4340  146.9400 O   0  0  0  0  0  1  0  0  0  0  0  0
  2  1  1  1  0  0  0
  2 25  1  0  0  0  0
  3  4  1  0  0  0  0
  4  6  1  6  0  0  0
  5  2  1  1  0  0  0
  5  3  1  0  0  0  0
  5  4  1  0  0  0  0
  6  8  1  0  0  0  0
  8  7  1  0  0  0  0
  8  9  1  0  0  0  0
 10  8  1  0  0  0  0
 11 16  1  1  0  0  0
 11  2  1  0  0  0  0
 12 13  1  0  0  0  0
 13 11  1  0  0  0  0
 14 12  2  0  0  0  0
 15 12  1  0  0  0  0
 17 16  1  0  0  0  0
 18 17  1  0  0  0  0
 19 21  1  0  0  0  0
 19 18  1  0  0  0  0
 21 20  1  6  0  0  0
 22 21  1  0  0  0  0
 22 24  1  0  0  0  0
 24 23  1  0  0  0  0
 25 26  1  0  0  0  0
 26 27  1  0  0  0  0
 27 28  1  0  0  0  0
 28 30  1  0  0  0  0
 30 32  1  0  0  0  0
 30 29  2  0  0  0  0
 31 28  1  0  0  0  0
 32 33  1  0  0  0  0
 33 34  1  1  0  0  0
 35 33  1  0  0  0  0
 35 36  1  0  0  0  0
 37 36  1  0  0  0  0
M  END
>  <MODEL>
5

>  <REMARK>
 VINA RESULT:      -6.6      3.056      5.251
  Name = 
  20 active torsions:
  status: ('A' for Active; 'I' for Inactive)
    1  A    between atoms: C_1  and  N_5
    2  A    between atoms: C_1  and  C_36
    3  A    between atoms: C_6  and  O_8
    4  A    between atoms: C_6  and  C_31
    5  A    between atoms: C_7  and  C_33
    6  A    between atoms: O_8  and  C_19
    7  A    between atoms: C_10  and  C_14
    8  A    between atoms: C_10  and  C_20
    9  A    between atoms: C_10  and  N_22
   10  A    between atoms: C_11  and  C_26
   11  A    between atoms: C_11  and  C_33
   12  A    between atoms: C_14  and  C_31
   13  A    between atoms: C_16  and  C_30
   14  A    between atoms: C_17  and  C_26
   15  A    between atoms: C_18  and  C_19
   16  A    between atoms: C_18  and  C_35
   17  A    between atoms: C_20  and  C_24
   18  A    between atoms: C_20  and  C_29
   19  A    between atoms: C_21  and  C_30
   20  A    between atoms: C_29  and  C_36
                            x       y       z     vdW  Elec       q    Type
                         _______ _______ _______ _____ _____    ______ ____

>  <TORSDO>
F 20

$$$$
=
 OpenBabel10262423073D

 37 37  0  0  1  0  0  0  0  0999 V2000
  188.7390  176.4810  141.6970 O   0  0  0  0  0  1  0  0  0  0  0  0
  189.3070  177.7540  141.5250 C   0  0  1  0  0  0  0  0  0  0  0  0
  191.3030  176.9210  142.6510 O   0  0  0  0  0  0  0  0  0  0  0  0
  190.3780  177.0520  143.7060 C   0  0  2  0  0  3  0  0  0  0  0  0
  190.4100  178.0080  142.5720 C   0  0  2  0  0  3  0  0  0  0  0  0
  191.0700  177.6780  144.9020 C   0  0  0  0  0  2  0  0  0  0  0  0
  190.0210  176.2430  146.4650 F   0  0  0  0  0  0  0  0  0  0  0  0
  191.2600  176.6640  146.0200 C   0  0  0  0  0  0  0  0  0  0  0  0
  191.9430  177.2430  147.0740 F   0  0  0  0  0  0  0  0  0  0  0  0
  191.9670  175.5690  145.5560 F   0  0  0  0  0  0  0  0  0  0  0  0
  189.9540  177.8220  140.1240 C   0  0  2  0  0  3  0  0  0  0  0  0
  188.1630  177.9870  138.2690 C   0  0  0  0  0  0  0  0  0  0  0  0
  189.1410  178.5550  139.1460 N   0  0  0  0  0  2  0  0  0  0  0  0
  187.9830  176.7420  138.2200 O   0  0  0  0  0  0  0  0  0  0  0  0
  187.3980  178.8390  137.4270 N   0  0  0  0  0  1  0  0  0  0  0  0
  190.4470  176.4770  139.5900 C   0  0  0  0  0  2  0  0  0  0  0  0
  191.7050  176.6550  138.7640 C   0  0  0  0  0  2  0  0  0  0  0  0
  191.5390  175.9350  137.4440 C   0  0  0  0  0  2  0  0  0  0  0  0
  192.7800  175.4710  137.0020 O   0  0  0  0  0  0  0  0  0  0  0  0
  192.2650  173.4930  135.7820 C   0  0  0  0  0  1  0  0  0  0  0  0
  192.6980  174.0810  137.1130 C   0  0  1  0  0  3  0  0  0  0  0  0
  194.0550  173.5240  137.5160 C   0  0  0  0  0  2  0  0  0  0  0  0
  195.9070  174.1420  139.0700 C   0  0  0  0  0  1  0  0  0  0  0  0
  194.9990  174.6330  137.9590 C   0  0  0  0  0  2  0  0  0  0  0  0
  188.2290  178.8280  141.7310 C   0  0  0  0  0  2  0  0  0  0  0  0
  186.8070  178.2820  141.6720 C   0  0  0  0  0  2  0  0  0  0  0  0
  185.8030  179.4010  141.9090 C   0  0  0  0  0  2  0  0  0  0  0  0
  184.5450  178.8710  142.4230 N   0  0  0  0  0  0  0  0  0  0  0  0
  183.1790  178.3380  144.2460 O   0  0  0  0  0  0  0  0  0  0  0  0
  184.2730  178.8110  143.8350 C   0  0  0  0  0  0  0  0  0  0  0  0
  183.5040  178.5380  141.4640 C   0  0  0  0  0  1  0  0  0  0  0  0
  185.2720  179.2930  144.8370 C   0  0  0  0  0  2  0  0  0  0  0  0
  185.7460  178.1530  145.7310 C   0  0  1  0  0  3  0  0  0  0  0  0
  186.7950  177.3230  145.0110 C   0  0  0  0  0  1  0  0  0  0  0  0
  186.2600  178.6460  147.0850 C   0  0  0  0  0  2  0  0  0  0  0  0
  187.5560  177.9640  147.4990 C   0  0  0  0  0  2  0  0  0  0  0  0
  187.8950  178.3580  148.7920 O   0  0  0  0  0  1  0  0  0  0  0  0
  2  1  1  1  0  0  0
  2 25  1  0  0  0  0
  3  4  1  0  0  0  0
  4  6  1  1  0  0  0
  5  2  1  6  0  0  0
  5  3  1  0  0  0  0
  5  4  1  0  0  0  0
  6  8  1  0  0  0  0
  8  7  1  0  0  0  0
  8  9  1  0  0  0  0
 10  8  1  0  0  0  0
 11 16  1  6  0  0  0
 11  2  1  0  0  0  0
 12 13  1  0  0  0  0
 13 11  1  0  0  0  0
 14 12  2  0  0  0  0
 15 12  1  0  0  0  0
 17 16  1  0  0  0  0
 18 17  1  0  0  0  0
 19 21  1  0  0  0  0
 19 18  1  0  0  0  0
 21 20  1  6  0  0  0
 21 22  1  0  0  0  0
 22 24  1  0  0  0  0
 24 23  1  0  0  0  0
 26 25  1  0  0  0  0
 26 27  1  0  0  0  0
 27 28  1  0  0  0  0
 28 30  1  0  0  0  0
 30 29  2  0  0  0  0
 30 32  1  0  0  0  0
 31 28  1  0  0  0  0
 32 33  1  0  0  0  0
 33 34  1  6  0  0  0
 33 35  1  0  0  0  0
 35 36  1  0  0  0  0
 36 37  1  0  0  0  0
M  END
>  <MODEL>
6

>  <REMARK>
 VINA RESULT:      -6.5      1.596      3.321
  Name = 
  20 active torsions:
  status: ('A' for Active; 'I' for Inactive)
    1  A    between atoms: C_1  and  N_5
    2  A    between atoms: C_1  and  C_36
    3  A    between atoms: C_6  and  O_8
    4  A    between atoms: C_6  and  C_31
    5  A    between atoms: C_7  and  C_33
    6  A    between atoms: O_8  and  C_19
    7  A    between atoms: C_10  and  C_14
    8  A    between atoms: C_10  and  C_20
    9  A    between atoms: C_10  and  N_22
   10  A    between atoms: C_11  and  C_26
   11  A    between atoms: C_11  and  C_33
   12  A    between atoms: C_14  and  C_31
   13  A    between atoms: C_16  and  C_30
   14  A    between atoms: C_17  and  C_26
   15  A    between atoms: C_18  and  C_19
   16  A    between atoms: C_18  and  C_35
   17  A    between atoms: C_20  and  C_24
   18  A    between atoms: C_20  and  C_29
   19  A    between atoms: C_21  and  C_30
   20  A    between atoms: C_29  and  C_36
                            x       y       z     vdW  Elec       q    Type
                         _______ _______ _______ _____ _____    ______ ____

>  <TORSDO>
F 20

$$$$
=
 OpenBabel10262423073D

 37 37  0  0  1  0  0  0  0  0999 V2000
  185.3320  180.2600  143.0960 O   0  0  0  0  0  1  0  0  0  0  0  0
  184.8850  178.9290  143.1020 C   0  0  1  0  0  0  0  0  0  0  0  0
  184.5560  179.4460  145.4620 O   0  0  0  0  0  0  0  0  0  0  0  0
  185.8440  178.8740  145.4410 C   0  0  2  0  0  3  0  0  0  0  0  0
  184.7630  178.3970  144.5440 C   0  0  2  0  0  3  0  0  0  0  0  0
  185.9820  177.9130  146.6060 C   0  0  0  0  0  2  0  0  0  0  0  0
  187.4880  178.8300  148.1850 F   0  0  0  0  0  0  0  0  0  0  0  0
  187.4020  177.9130  147.1550 C   0  0  0  0  0  0  0  0  0  0  0  0
  188.2940  178.2690  146.1600 F   0  0  0  0  0  0  0  0  0  0  0  0
  187.7250  176.6590  147.6400 F   0  0  0  0  0  0  0  0  0  0  0  0
  183.4830  178.8740  142.4530 C   0  0  2  0  0  3  0  0  0  0  0  0
  181.0710  179.1180  143.3450 C   0  0  0  0  0  0  0  0  0  0  0  0
  182.4090  178.6160  143.4190 N   0  0  0  0  0  2  0  0  0  0  0  0
  180.7320  179.9250  142.4390 O   0  0  0  0  0  0  0  0  0  0  0  0
  180.1170  178.7180  144.3190 N   0  0  0  0  0  1  0  0  0  0  0  0
  183.3940  177.9790  141.2180 C   0  0  0  0  0  2  0  0  0  0  0  0
  183.0980  178.8000  139.9790 C   0  0  0  0  0  2  0  0  0  0  0  0
  181.8070  178.3140  139.3570 C   0  0  0  0  0  2  0  0  0  0  0  0
  181.8510  178.5040  137.9740 O   0  0  0  0  0  0  0  0  0  0  0  0
  179.6730  179.0490  138.7650 C   0  0  0  0  0  1  0  0  0  0  0  0
  180.7190  179.2680  137.6860 C   0  0  1  0  0  3  0  0  0  0  0  0
  181.1030  180.7390  137.6180 C   0  0  0  0  0  2  0  0  0  0  0  0
  179.6400  182.4500  136.5410 C   0  0  0  0  0  1  0  0  0  0  0  0
  180.6710  181.3630  136.3000 C   0  0  0  0  0  2  0  0  0  0  0  0
  185.9060  178.0420  142.3760 C   0  0  0  0  0  2  0  0  0  0  0  0
  186.7320  178.7910  141.3370 C   0  0  0  0  0  2  0  0  0  0  0  0
  188.1900  178.8600  141.7720 C   0  0  0  0  0  2  0  0  0  0  0  0
  188.9760  177.8180  141.1220 N   0  0  0  0  0  0  0  0  0  0  0  0
  190.4200  175.9860  141.2890 O   0  0  0  0  0  0  0  0  0  0  0  0
  189.7440  176.8680  141.8820 C   0  0  0  0  0  0  0  0  0  0  0  0
  188.8490  177.6670  139.6810 C   0  0  0  0  0  1  0  0  0  0  0  0
  189.7660  176.9090  143.3770 C   0  0  0  0  0  2  0  0  0  0  0  0
  191.1450  177.2990  143.8940 C   0  0  1  0  0  3  0  0  0  0  0  0
  191.1570  178.7610  144.3080 C   0  0  0  0  0  1  0  0  0  0  0  0
  191.6200  176.3950  145.0340 C   0  0  0  0  0  2  0  0  0  0  0  0
  191.2190  176.9260  146.4030 C   0  0  0  0  0  2  0  0  0  0  0  0
  192.1630  176.5300  147.3480 O   0  0  0  0  0  1  0  0  0  0  0  0
  2  1  1  1  0  0  0
  4  3  1  0  0  0  0
  4  6  1  1  0  0  0
  5  2  1  6  0  0  0
  5  4  1  0  0  0  0
  5  3  1  0  0  0  0
  6  8  1  0  0  0  0
  8 10  1  0  0  0  0
  8  7  1  0  0  0  0
  9  8  1  0  0  0  0
 11 16  1  6  0  0  0
 11  2  1  0  0  0  0
 11 13  1  0  0  0  0
 12 13  1  0  0  0  0
 12 15  1  0  0  0  0
 14 12  2  0  0  0  0
 17 16  1  0  0  0  0
 18 17  1  0  0  0  0
 19 18  1  0  0  0  0
 21 19  1  0  0  0  0
 21 20  1  1  0  0  0
 22 21  1  0  0  0  0
 24 23  1  0  0  0  0
 24 22  1  0  0  0  0
 25  2  1  0  0  0  0
 26 27  1  0  0  0  0
 26 25  1  0  0  0  0
 28 27  1  0  0  0  0
 28 30  1  0  0  0  0
 29 30  2  0  0  0  0
 30 32  1  0  0  0  0
 31 28  1  0  0  0  0
 32 33  1  0  0  0  0
 33 34  1  1  0  0  0
 33 35  1  0  0  0  0
 35 36  1  0  0  0  0
 36 37  1  0  0  0  0
M  END
>  <MODEL>
7

>  <REMARK>
 VINA RESULT:      -6.4      3.173      8.452
  Name = 
  20 active torsions:
  status: ('A' for Active; 'I' for Inactive)
    1  A    between atoms: C_1  and  N_5
    2  A    between atoms: C_1  and  C_36
    3  A    between atoms: C_6  and  O_8
    4  A    between atoms: C_6  and  C_31
    5  A    between atoms: C_7  and  C_33
    6  A    between atoms: O_8  and  C_19
    7  A    between atoms: C_10  and  C_14
    8  A    between atoms: C_10  and  C_20
    9  A    between atoms: C_10  and  N_22
   10  A    between atoms: C_11  and  C_26
   11  A    between atoms: C_11  and  C_33
   12  A    between atoms: C_14  and  C_31
   13  A    between atoms: C_16  and  C_30
   14  A    between atoms: C_17  and  C_26
   15  A    between atoms: C_18  and  C_19
   16  A    between atoms: C_18  and  C_35
   17  A    between atoms: C_20  and  C_24
   18  A    between atoms: C_20  and  C_29
   19  A    between atoms: C_21  and  C_30
   20  A    between atoms: C_29  and  C_36
                            x       y       z     vdW  Elec       q    Type
                         _______ _______ _______ _____ _____    ______ ____

>  <TORSDO>
F 20

$$$$
=
 OpenBabel10262423073D

 37 37  0  0  1  0  0  0  0  0999 V2000
  189.3260  179.2040  138.3730 O   0  0  0  0  0  1  0  0  0  0  0  0
  189.3390  177.8080  138.5260 C   0  0  1  0  0  0  0  0  0  0  0  0
  188.2950  177.1600  136.4200 O   0  0  0  0  0  0  0  0  0  0  0  0
  188.6170  175.9190  137.0050 C   0  0  2  0  0  3  0  0  0  0  0  0
  189.4920  177.1080  137.1600 C   0  0  2  0  0  3  0  0  0  0  0  0
  189.2040  175.0050  135.9470 C   0  0  0  0  0  2  0  0  0  0  0  0
  188.4710  172.9550  136.8760 F   0  0  0  0  0  0  0  0  0  0  0  0
  189.6090  173.6640  136.5420 C   0  0  0  0  0  0  0  0  0  0  0  0
  190.3660  173.8620  137.6830 F   0  0  0  0  0  0  0  0  0  0  0  0
  190.3400  172.9360  135.6210 F   0  0  0  0  0  0  0  0  0  0  0  0
  190.5510  177.4160  139.4000 C   0  0  2  0  0  3  0  0  0  0  0  0
  193.0030  176.7530  138.9290 C   0  0  0  0  0  0  0  0  0  0  0  0
  191.6000  176.7110  138.6530 N   0  0  0  0  0  2  0  0  0  0  0  0
  193.4630  177.5030  139.8300 O   0  0  0  0  0  0  0  0  0  0  0  0
  193.8930  175.9530  138.1620 N   0  0  0  0  0  1  0  0  0  0  0  0
  190.1850  176.7150  140.7080 C   0  0  0  0  0  2  0  0  0  0  0  0
  190.6920  177.5010  141.9000 C   0  0  0  0  0  2  0  0  0  0  0  0
  189.5210  178.1540  142.6000 C   0  0  0  0  0  2  0  0  0  0  0  0
  189.9060  178.5650  143.8780 O   0  0  0  0  0  0  0  0  0  0  0  0
  188.1210  176.9920  143.9610 C   0  0  0  0  0  1  0  0  0  0  0  0
  189.1730  177.7550  144.7470 C   0  0  1  0  0  3  0  0  0  0  0  0
  190.1110  176.7830  145.4480 C   0  0  0  0  0  2  0  0  0  0  0  0
  188.9130  177.8910  147.3360 C   0  0  0  0  0  1  0  0  0  0  0  0
  189.9940  176.8950  146.9610 C   0  0  0  0  0  2  0  0  0  0  0  0
  188.0030  177.3440  139.1260 C   0  0  0  0  0  2  0  0  0  0  0  0
  186.9180  178.4140  139.0900 C   0  0  0  0  0  2  0  0  0  0  0  0
  186.3330  178.6180  140.4800 C   0  0  0  0  0  2  0  0  0  0  0  0
  184.8880  178.8010  140.4150 N   0  0  0  0  0  0  0  0  0  0  0  0
  182.8050  178.7840  141.4800 O   0  0  0  0  0  0  0  0  0  0  0  0
  184.0520  178.6280  141.5730 C   0  0  0  0  0  0  0  0  0  0  0  0
  184.3210  179.3140  139.1770 C   0  0  0  0  0  1  0  0  0  0  0  0
  184.6340  178.2500  142.8970 C   0  0  0  0  0  2  0  0  0  0  0  0
  184.2540  179.2620  143.9720 C   0  0  1  0  0  3  0  0  0  0  0  0
  182.9150  178.8960  144.5880 C   0  0  0  0  0  1  0  0  0  0  0  0
  185.3360  179.4120  145.0440 C   0  0  0  0  0  2  0  0  0  0  0  0
  185.3080  178.2800  146.0620 C   0  0  0  0  0  2  0  0  0  0  0  0
  185.3220  178.8140  147.3480 O   0  0  0  0  0  1  0  0  0  0  0  0
  2  1  1  6  0  0  0
  2 25  1  0  0  0  0
  2 11  1  0  0  0  0
  3  4  1  0  0  0  0
  3  5  1  0  0  0  0
  4  6  1  6  0  0  0
  4  5  1  0  0  0  0
  5  2  1  1  0  0  0
  6  8  1  0  0  0  0
  8  7  1  0  0  0  0
  8  9  1  0  0  0  0
 10  8  1  0  0  0  0
 11 16  1  1  0  0  0
 12 14  2  0  0  0  0
 13 12  1  0  0  0  0
 13 11  1  0  0  0  0
 15 12  1  0  0  0  0
 16 17  1  0  0  0  0
 17 18  1  0  0  0  0
 18 19  1  0  0  0  0
 19 21  1  0  0  0  0
 21 20  1  6  0  0  0
 21 22  1  0  0  0  0
 22 24  1  0  0  0  0
 24 23  1  0  0  0  0
 26 25  1  0  0  0  0
 26 27  1  0  0  0  0
 28 27  1  0  0  0  0
 28 30  1  0  0  0  0
 29 30  2  0  0  0  0
 30 32  1  0  0  0  0
 31 28  1  0  0  0  0
 32 33  1  0  0  0  0
 33 34  1  1  0  0  0
 33 35  1  0  0  0  0
 35 36  1  0  0  0  0
 36 37  1  0  0  0  0
M  END
>  <MODEL>
8

>  <REMARK>
 VINA RESULT:      -6.3      3.581      7.062
  Name = 
  20 active torsions:
  status: ('A' for Active; 'I' for Inactive)
    1  A    between atoms: C_1  and  N_5
    2  A    between atoms: C_1  and  C_36
    3  A    between atoms: C_6  and  O_8
    4  A    between atoms: C_6  and  C_31
    5  A    between atoms: C_7  and  C_33
    6  A    between atoms: O_8  and  C_19
    7  A    between atoms: C_10  and  C_14
    8  A    between atoms: C_10  and  C_20
    9  A    between atoms: C_10  and  N_22
   10  A    between atoms: C_11  and  C_26
   11  A    between atoms: C_11  and  C_33
   12  A    between atoms: C_14  and  C_31
   13  A    between atoms: C_16  and  C_30
   14  A    between atoms: C_17  and  C_26
   15  A    between atoms: C_18  and  C_19
   16  A    between atoms: C_18  and  C_35
   17  A    between atoms: C_20  and  C_24
   18  A    between atoms: C_20  and  C_29
   19  A    between atoms: C_21  and  C_30
   20  A    between atoms: C_29  and  C_36
                            x       y       z     vdW  Elec       q    Type
                         _______ _______ _______ _____ _____    ______ ____

>  <TORSDO>
F 20

$$$$
=
 OpenBabel10262423073D

 37 37  0  0  1  0  0  0  0  0999 V2000
  184.5540  179.8360  139.5100 O   0  0  0  0  0  1  0  0  0  0  0  0
  183.7140  178.7280  139.3150 C   0  0  1  0  0  0  0  0  0  0  0  0
  182.0580  179.6260  137.7680 O   0  0  0  0  0  0  0  0  0  0  0  0
  182.1290  180.6200  138.7650 C   0  0  2  0  0  3  0  0  0  0  0  0
  182.2560  179.1770  139.0880 C   0  0  2  0  0  3  0  0  0  0  0  0
  180.7260  181.0830  139.1090 C   0  0  0  0  0  2  0  0  0  0  0  0
  181.3800  182.8300  137.6520 F   0  0  0  0  0  0  0  0  0  0  0  0
  180.2700  182.1950  138.1750 C   0  0  0  0  0  0  0  0  0  0  0  0
  179.5110  183.1170  138.8730 F   0  0  0  0  0  0  0  0  0  0  0  0
  179.5210  181.6690  137.1380 F   0  0  0  0  0  0  0  0  0  0  0  0
  184.1800  177.9680  138.0530 C   0  0  2  0  0  3  0  0  0  0  0  0
  182.8970  175.7890  137.5240 C   0  0  0  0  0  0  0  0  0  0  0  0
  183.9640  176.5180  138.1380 N   0  0  0  0  0  2  0  0  0  0  0  0
  181.9770  176.3860  136.9050 O   0  0  0  0  0  0  0  0  0  0  0  0
  182.8620  174.3730  137.6330 N   0  0  0  0  0  1  0  0  0  0  0  0
  185.5900  178.3280  137.5850 C   0  0  0  0  0  2  0  0  0  0  0  0
  186.4490  177.0850  137.4610 C   0  0  0  0  0  2  0  0  0  0  0  0
  187.9080  177.4820  137.5140 C   0  0  0  0  0  2  0  0  0  0  0  0
  188.0490  178.6520  138.2650 O   0  0  0  0  0  0  0  0  0  0  0  0
  188.0810  178.2280  140.6070 C   0  0  0  0  0  1  0  0  0  0  0  0
  188.8880  178.2950  139.3230 C   0  0  1  0  0  3  0  0  0  0  0  0
  189.5230  176.9430  139.0320 C   0  0  0  0  0  2  0  0  0  0  0  0
  191.6540  175.8300  138.3640 C   0  0  0  0  0  1  0  0  0  0  0  0
  191.0420  177.0280  139.0650 C   0  0  0  0  0  2  0  0  0  0  0  0
  183.7270  177.8470  140.5730 C   0  0  0  0  0  2  0  0  0  0  0  0
  183.9550  178.6300  141.8610 C   0  0  0  0  0  2  0  0  0  0  0  0
  185.1130  178.0280  142.6450 C   0  0  0  0  0  2  0  0  0  0  0  0
  185.0060  178.3540  144.0620 N   0  0  0  0  0  0  0  0  0  0  0  0
  185.8800  178.2310  146.2290 O   0  0  0  0  0  0  0  0  0  0  0  0
  186.0080  177.9410  145.0090 C   0  0  0  0  0  0  0  0  0  0  0  0
  183.9330  179.2430  144.4780 C   0  0  0  0  0  1  0  0  0  0  0  0
  187.2040  177.1550  144.5760 C   0  0  0  0  0  2  0  0  0  0  0  0
  188.4960  177.8450  145.0000 C   0  0  1  0  0  3  0  0  0  0  0  0
  189.0120  177.2440  146.2950 C   0  0  0  0  0  1  0  0  0  0  0  0
  189.5650  177.8090  143.9050 C   0  0  0  0  0  2  0  0  0  0  0  0
  190.2230  176.4420  143.7800 C   0  0  0  0  0  2  0  0  0  0  0  0
  190.3130  176.0930  142.4340 O   0  0  0  0  0  1  0  0  0  0  0  0
  2  1  1  1  0  0  0
  2 25  1  0  0  0  0
  3  4  1  0  0  0  0
  3  5  1  0  0  0  0
  4  5  1  0  0  0  0
  4  6  1  1  0  0  0
  5  2  1  6  0  0  0
  7  8  1  0  0  0  0
  8  9  1  0  0  0  0
  8  6  1  0  0  0  0
 10  8  1  0  0  0  0
 11 16  1  1  0  0  0
 11 13  1  0  0  0  0
 11  2  1  0  0  0  0
 12 15  1  0  0  0  0
 12 13  1  0  0  0  0
 14 12  2  0  0  0  0
 17 18  1  0  0  0  0
 17 16  1  0  0  0  0
 18 19  1  0  0  0  0
 19 21  1  0  0  0  0
 21 20  1  1  0  0  0
 22 24  1  0  0  0  0
 22 21  1  0  0  0  0
 23 24  1  0  0  0  0
 25 26  1  0  0  0  0
 26 27  1  0  0  0  0
 27 28  1  0  0  0  0
 28 31  1  0  0  0  0
 28 30  1  0  0  0  0
 30 29  2  0  0  0  0
 32 33  1  0  0  0  0
 32 30  1  0  0  0  0
 33 34  1  1  0  0  0
 35 33  1  0  0  0  0
 36 35  1  0  0  0  0
 37 36  1  0  0  0  0
M  END
>  <MODEL>
9

>  <REMARK>
 VINA RESULT:      -6.2      5.048      8.096
  Name = 
  20 active torsions:
  status: ('A' for Active; 'I' for Inactive)
    1  A    between atoms: C_1  and  N_5
    2  A    between atoms: C_1  and  C_36
    3  A    between atoms: C_6  and  O_8
    4  A    between atoms: C_6  and  C_31
    5  A    between atoms: C_7  and  C_33
    6  A    between atoms: O_8  and  C_19
    7  A    between atoms: C_10  and  C_14
    8  A    between atoms: C_10  and  C_20
    9  A    between atoms: C_10  and  N_22
   10  A    between atoms: C_11  and  C_26
   11  A    between atoms: C_11  and  C_33
   12  A    between atoms: C_14  and  C_31
   13  A    between atoms: C_16  and  C_30
   14  A    between atoms: C_17  and  C_26
   15  A    between atoms: C_18  and  C_19
   16  A    between atoms: C_18  and  C_35
   17  A    between atoms: C_20  and  C_24
   18  A    between atoms: C_20  and  C_29
   19  A    between atoms: C_21  and  C_30
   20  A    between atoms: C_29  and  C_36
                            x       y       z     vdW  Elec       q    Type
                         _______ _______ _______ _____ _____    ______ ____

>  <TORSDO>
F 20

$$$$
