=
 OpenBabel10262422213D

 43 48  0  0  1  0  0  0  0  0999 V2000
  187.8670  177.2320  146.9630 C   0  0  1  0  0  3  0  0  0  0  0  0
  185.6540  178.5890  142.5340 C   0  0  0  0  0  0  0  0  0  0  0  0
  187.6440  178.2700  140.6200 C   0  0  0  0  0  0  0  0  0  0  0  0
  186.2840  178.1560  145.2390 C   0  0  0  0  0  0  0  0  0  0  0  0
  188.9920  177.7940  146.1090 C   0  0  0  0  0  2  0  0  0  0  0  0
  188.2370  177.3390  148.4250 C   0  0  0  0  0  1  0  0  0  0  0  0
  187.2930  178.0180  144.2570 C   0  0  0  0  0  0  0  0  0  0  0  0
  186.5880  178.0220  146.7030 C   0  0  0  0  0  2  0  0  0  0  0  0
  188.6790  177.5570  144.6340 C   0  0  0  0  0  2  0  0  0  0  0  0
  187.9180  178.0690  141.9370 N   0  0  0  0  0  0  0  0  0  0  0  0
  186.9700  178.2220  142.9020 C   0  0  0  0  0  0  0  0  0  0  0  0
  184.6750  178.7380  143.5220 C   0  0  0  0  0  3  0  0  0  0  0  0
  185.3420  178.7860  141.1780 C   0  0  0  0  0  0  0  0  0  0  0  0
  186.3550  178.6290  140.2240 C   0  0  0  0  0  3  0  0  0  0  0  0
  184.9910  178.5290  144.8640 C   0  0  0  0  0  3  0  0  0  0  0  0
  188.7030  178.0750  139.5870 C   0  0  1  0  0  3  0  0  0  0  0  0
  191.5370  175.9050  138.3360 C   0  0  0  0  0  3  0  0  0  0  0  0
  190.1620  177.2210  140.2830 S   0  0  0  0  0  0  0  0  0  0  0  0
  188.1650  177.2700  138.4080 C   0  0  0  0  0  2  0  0  0  0  0  0
  190.3890  176.4680  138.6950 C   0  0  0  0  0  0  0  0  0  0  0  0
  189.2870  176.5730  137.8120 N   0  0  0  0  0  2  0  0  0  0  0  0
  191.7150  175.3670  137.0230 N   0  0  0  0  0  2  0  0  0  0  0  0
  193.0280  175.1800  136.4130 C   0  0  2  0  0  0  0  0  0  0  0  0
  193.3980  176.3700  135.7790 O   0  0  0  0  0  1  0  0  0  0  0  0
  192.9710  174.0420  135.3820 C   0  0  0  0  0  2  0  0  0  0  0  0
  192.8080  171.5690  135.7040 C   0  0  0  0  0  1  0  0  0  0  0  0
  192.0700  172.8890  135.8180 C   0  0  0  0  0  2  0  0  0  0  0  0
  194.0550  174.8520  137.5060 C   0  0  0  0  0  2  0  0  0  0  0  0
  195.2030  173.9750  137.0160 C   0  0  1  0  0  3  0  0  0  0  0  0
  196.8310  172.1880  137.5980 C   0  0  0  0  0  2  0  0  0  0  0  0
  197.6500  174.4490  136.8370 C   0  0  0  0  0  3  0  0  0  0  0  0
  198.0040  173.1680  137.5500 C   0  0  0  0  0  2  0  0  0  0  0  0
  196.3790  174.8390  136.6390 C   0  0  0  0  0  3  0  0  0  0  0  0
  195.5790  172.9210  138.0610 C   0  0  0  0  0  2  0  0  0  0  0  0
  184.0330  179.1590  140.8220 O   0  0  0  0  0  0  0  0  0  0  0  0
  181.9410  176.3000  139.6510 C   0  0  0  0  0  3  0  0  0  0  0  0
  180.5830  176.9270  139.8050 C   0  0  2  0  0  3  0  0  0  0  0  0
  181.7390  178.7180  141.1070 C   0  0  0  0  0  3  0  0  0  0  0  0
  183.0360  176.9720  140.0150 C   0  0  0  0  0  3  0  0  0  0  0  0
  182.9290  178.3080  140.6500 C   0  0  0  0  0  0  0  0  0  0  0  0
  180.5370  177.8130  141.0540 C   0  0  0  0  0  2  0  0  0  0  0  0
  180.1100  174.5500  139.5650 N   0  0  0  0  0  1  0  0  0  0  0  0
  179.5220  175.8430  139.8710 C   0  0  0  0  0  2  0  0  0  0  0  0
  1  6  1  1  0  0  0
  2 11  1  0  0  0  0
  2 12  1  0  0  0  0
  3 10  1  0  0  0  0
  4  8  1  0  0  0  0
  5  1  1  0  0  0  0
  7  9  1  0  0  0  0
  7  4  2  0  0  0  0
  8  1  1  0  0  0  0
  9  5  1  0  0  0  0
 10 11  2  0  0  0  0
 11  7  1  0  0  0  0
 12 15  2  0  0  0  0
 13  2  2  0  0  0  0
 14  3  2  0  0  0  0
 14 13  1  0  0  0  0
 15  4  1  0  0  0  0
 16 18  1  0  0  0  0
 16  3  1  1  0  0  0
 17 20  2  0  0  0  0
 19 16  1  0  0  0  0
 20 18  1  0  0  0  0
 21 19  1  0  0  0  0
 21 20  1  0  0  0  0
 22 17  1  0  0  0  0
 23 24  1  6  0  0  0
 23 22  1  0  0  0  0
 23 28  1  0  0  0  0
 25 27  1  0  0  0  0
 25 23  1  0  0  0  0
 26 27  1  0  0  0  0
 29 28  1  1  0  0  0
 29 34  1  0  0  0  0
 30 34  1  0  0  0  0
 31 32  1  0  0  0  0
 32 30  1  0  0  0  0
 33 31  2  0  0  0  0
 33 29  1  0  0  0  0
 35 13  1  0  0  0  0
 36 37  1  0  0  0  0
 36 39  2  0  0  0  0
 37 43  1  1  0  0  0
 37 41  1  0  0  0  0
 39 40  1  0  0  0  0
 40 35  1  0  0  0  0
 40 38  2  0  0  0  0
 41 38  1  0  0  0  0
 42 43  1  0  0  0  0
M  END
>  <MODEL>
1

>  <REMARK>
 VINA RESULT:      -8.8      0.000      0.000
  Name = 
  10 active torsions:
  status: ('A' for Active; 'I' for Inactive)
    1  A    between atoms: O_1  and  C_34
    2  A    between atoms: O_1  and  C_35
    3  A    between atoms: C_2  and  C_13
    4  A    between atoms: C_3  and  N_4
    5  A    between atoms: N_4  and  C_22
    6  A    between atoms: C_10  and  C_22
    7  A    between atoms: C_10  and  C_42
    8  A    between atoms: C_11  and  C_14
    9  A    between atoms: C_14  and  C_22
   10  A    between atoms: C_19  and  C_37
                            x       y       z     vdW  Elec       q    Type
                         _______ _______ _______ _____ _____    ______ ____

>  <TORSDO>
F 10

$$$$
=
 OpenBabel10262422213D

 43 48  0  0  1  0  0  0  0  0999 V2000
  180.8150  179.5560  141.2790 C   0  0  1  0  0  3  0  0  0  0  0  0
  185.3260  178.4360  143.4600 C   0  0  0  0  0  0  0  0  0  0  0  0
  187.1490  178.4450  141.3630 C   0  0  0  0  0  0  0  0  0  0  0  0
  182.5990  178.8270  142.8960 C   0  0  0  0  0  0  0  0  0  0  0  0
  181.6090  178.8300  140.2050 C   0  0  0  0  0  2  0  0  0  0  0  0
  179.3360  179.4260  140.9920 C   0  0  0  0  0  1  0  0  0  0  0  0
  183.5360  178.8080  141.8360 C   0  0  0  0  0  0  0  0  0  0  0  0
  181.1250  178.9440  142.6420 C   0  0  0  0  0  2  0  0  0  0  0  0
  183.1000  179.0820  140.4170 C   0  0  0  0  0  2  0  0  0  0  0  0
  185.8230  178.6300  141.1220 N   0  0  0  0  0  0  0  0  0  0  0  0
  184.9010  178.6250  142.1230 C   0  0  0  0  0  0  0  0  0  0  0  0
  184.3820  178.4400  144.4930 C   0  0  0  0  0  3  0  0  0  0  0  0
  186.6920  178.2580  143.7360 C   0  0  0  0  0  0  0  0  0  0  0  0
  187.6000  178.2580  142.6700 C   0  0  0  0  0  3  0  0  0  0  0  0
  183.0290  178.6270  144.2110 C   0  0  0  0  0  3  0  0  0  0  0  0
  188.1340  178.4740  140.2420 C   0  0  1  0  0  3  0  0  0  0  0  0
  190.8550  176.6230  138.3770 C   0  0  0  0  0  3  0  0  0  0  0  0
  189.6280  177.4990  140.6440 S   0  0  0  0  0  0  0  0  0  0  0  0
  187.5110  177.9310  138.9600 C   0  0  0  0  0  2  0  0  0  0  0  0
  189.7400  177.0940  138.9220 C   0  0  0  0  0  0  0  0  0  0  0  0
  188.5820  177.3780  138.1580 N   0  0  0  0  0  2  0  0  0  0  0  0
  190.9390  176.3720  136.9720 N   0  0  0  0  0  2  0  0  0  0  0  0
  191.8080  175.3490  136.3990 C   0  0  2  0  0  0  0  0  0  0  0  0
  192.7680  175.9780  135.5990 O   0  0  0  0  0  1  0  0  0  0  0  0
  190.9820  174.3760  135.5440 C   0  0  0  0  0  2  0  0  0  0  0  0
  189.0700  173.4010  136.8250 C   0  0  0  0  0  1  0  0  0  0  0  0
  189.4840  174.4630  135.8240 C   0  0  0  0  0  2  0  0  0  0  0  0
  192.5170  174.5900  137.5300 C   0  0  0  0  0  2  0  0  0  0  0  0
  193.9370  174.1610  137.1750 C   0  0  1  0  0  3  0  0  0  0  0  0
  195.4470  172.2610  136.6350 C   0  0  0  0  0  2  0  0  0  0  0  0
  195.9150  173.7200  138.6380 C   0  0  0  0  0  3  0  0  0  0  0  0
  196.1790  172.3940  137.9700 C   0  0  0  0  0  2  0  0  0  0  0  0
  194.8680  174.4980  138.3110 C   0  0  0  0  0  3  0  0  0  0  0  0
  193.9920  172.6750  136.8130 C   0  0  0  0  0  2  0  0  0  0  0  0
  187.1040  178.0620  145.0670 O   0  0  0  0  0  0  0  0  0  0  0  0
  189.8350  176.9010  147.3290 C   0  0  0  0  0  3  0  0  0  0  0  0
  190.9630  176.8730  146.3360 C   0  0  2  0  0  3  0  0  0  0  0  0
  189.2040  177.1210  144.5790 C   0  0  0  0  0  3  0  0  0  0  0  0
  188.6010  177.2240  146.9340 C   0  0  0  0  0  3  0  0  0  0  0  0
  188.3050  177.4810  145.5030 C   0  0  0  0  0  0  0  0  0  0  0  0
  190.4640  176.3950  144.9680 C   0  0  0  0  0  2  0  0  0  0  0  0
  192.4690  176.3870  148.1870 N   0  0  0  0  0  1  0  0  0  0  0  0
  192.0770  175.9770  146.8490 C   0  0  0  0  0  2  0  0  0  0  0  0
  1  6  1  6  0  0  0
  1  8  1  0  0  0  0
  2 13  1  0  0  0  0
  2 12  1  0  0  0  0
  3 14  1  0  0  0  0
  4 15  1  0  0  0  0
  5  9  1  0  0  0  0
  5  1  1  0  0  0  0
  7 11  1  0  0  0  0
  7  4  2  0  0  0  0
  8  4  1  0  0  0  0
  9  7  1  0  0  0  0
 10  3  2  0  0  0  0
 10 11  1  0  0  0  0
 11  2  2  0  0  0  0
 13 35  1  0  0  0  0
 14 13  2  0  0  0  0
 15 12  2  0  0  0  0
 16 18  1  0  0  0  0
 16  3  1  1  0  0  0
 17 20  2  0  0  0  0
 19 16  1  0  0  0  0
 20 18  1  0  0  0  0
 21 20  1  0  0  0  0
 21 19  1  0  0  0  0
 22 17  1  0  0  0  0
 23 24  1  6  0  0  0
 23 22  1  0  0  0  0
 23 28  1  0  0  0  0
 25 27  1  0  0  0  0
 25 23  1  0  0  0  0
 27 26  1  0  0  0  0
 29 28  1  1  0  0  0
 29 33  1  0  0  0  0
 30 34  1  0  0  0  0
 30 32  1  0  0  0  0
 32 31  1  0  0  0  0
 33 31  2  0  0  0  0
 34 29  1  0  0  0  0
 35 40  1  0  0  0  0
 37 43  1  1  0  0  0
 37 36  1  0  0  0  0
 38 41  1  0  0  0  0
 38 40  2  0  0  0  0
 39 36  2  0  0  0  0
 40 39  1  0  0  0  0
 41 37  1  0  0  0  0
 43 42  1  0  0  0  0
M  END
>  <MODEL>
2

>  <REMARK>
 VINA RESULT:      -8.5      2.100      6.125
  Name = 
  10 active torsions:
  status: ('A' for Active; 'I' for Inactive)
    1  A    between atoms: O_1  and  C_34
    2  A    between atoms: O_1  and  C_35
    3  A    between atoms: C_2  and  C_13
    4  A    between atoms: C_3  and  N_4
    5  A    between atoms: N_4  and  C_22
    6  A    between atoms: C_10  and  C_22
    7  A    between atoms: C_10  and  C_42
    8  A    between atoms: C_11  and  C_14
    9  A    between atoms: C_14  and  C_22
   10  A    between atoms: C_19  and  C_37
                            x       y       z     vdW  Elec       q    Type
                         _______ _______ _______ _____ _____    ______ ____

>  <TORSDO>
F 10

$$$$
=
 OpenBabel10262422213D

 43 48  0  0  1  0  0  0  0  0999 V2000
  191.3090  176.1390  146.9600 C   0  0  1  0  0  3  0  0  0  0  0  0
  187.1500  177.8990  144.5170 C   0  0  0  0  0  0  0  0  0  0  0  0
  187.9730  178.2580  141.8870 C   0  0  0  0  0  0  0  0  0  0  0  0
  189.0390  177.0910  146.4360 C   0  0  0  0  0  0  0  0  0  0  0  0
  191.8440  177.0210  145.8440 C   0  0  0  0  0  2  0  0  0  0  0  0
  192.3360  176.0380  148.0650 C   0  0  0  0  0  1  0  0  0  0  0  0
  189.4490  177.2980  145.0980 C   0  0  0  0  0  0  0  0  0  0  0  0
  190.0230  176.7450  147.5160 C   0  0  0  0  0  2  0  0  0  0  0  0
  190.8660  177.0070  144.6710 C   0  0  0  0  0  2  0  0  0  0  0  0
  188.8630  177.8690  142.8390 N   0  0  0  0  0  0  0  0  0  0  0  0
  188.4980  177.6900  144.1370 C   0  0  0  0  0  0  0  0  0  0  0  0
  186.7690  177.7060  145.8490 C   0  0  0  0  0  3  0  0  0  0  0  0
  186.2080  178.2860  143.5490 C   0  0  0  0  0  0  0  0  0  0  0  0
  186.6360  178.4700  142.2280 C   0  0  0  0  0  3  0  0  0  0  0  0
  187.7090  177.3120  146.8010 C   0  0  0  0  0  3  0  0  0  0  0  0
  188.4040  178.4280  140.4680 C   0  0  1  0  0  3  0  0  0  0  0  0
  190.0120  176.8290  137.4410 C   0  0  0  0  0  3  0  0  0  0  0  0
  189.8810  177.4150  140.0970 S   0  0  0  0  0  0  0  0  0  0  0  0
  187.2800  178.0450  139.5120 C   0  0  0  0  0  2  0  0  0  0  0  0
  189.2490  177.2260  138.4520 C   0  0  0  0  0  0  0  0  0  0  0  0
  187.8930  177.5980  138.2780 N   0  0  0  0  0  2  0  0  0  0  0  0
  189.4930  176.7530  136.1110 N   0  0  0  0  0  2  0  0  0  0  0  0
  188.9250  175.5320  135.5490 C   0  0  2  0  0  0  0  0  0  0  0  0
  188.6290  174.6550  136.5980 O   0  0  0  0  0  1  0  0  0  0  0  0
  189.9320  174.8740  134.5940 C   0  0  0  0  0  2  0  0  0  0  0  0
  192.0010  173.6920  135.3490 C   0  0  0  0  0  1  0  0  0  0  0  0
  190.5040  173.5680  135.1410 C   0  0  0  0  0  2  0  0  0  0  0  0
  187.6290  175.8720  134.7990 C   0  0  0  0  0  2  0  0  0  0  0  0
  186.3690  175.4090  135.5230 C   0  0  1  0  0  3  0  0  0  0  0  0
  184.3410  173.9720  135.4290 C   0  0  0  0  0  2  0  0  0  0  0  0
  184.1140  176.4700  135.7030 C   0  0  0  0  0  3  0  0  0  0  0  0
  183.4210  175.1880  135.3110 C   0  0  0  0  0  2  0  0  0  0  0  0
  185.4520  176.5830  135.7500 C   0  0  0  0  0  3  0  0  0  0  0  0
  185.6730  174.2800  134.7580 C   0  0  0  0  0  2  0  0  0  0  0  0
  184.8730  178.5000  143.9370 O   0  0  0  0  0  0  0  0  0  0  0  0
  182.7510  178.2720  140.8760 C   0  0  0  0  0  3  0  0  0  0  0  0
  181.6330  179.1830  141.3000 C   0  0  2  0  0  3  0  0  0  0  0  0
  182.6090  179.0420  143.5950 C   0  0  0  0  0  3  0  0  0  0  0  0
  183.7550  178.0060  141.7160 C   0  0  0  0  0  3  0  0  0  0  0  0
  183.7450  178.5340  143.1020 C   0  0  0  0  0  0  0  0  0  0  0  0
  181.3350  179.0110  142.7930 C   0  0  0  0  0  2  0  0  0  0  0  0
  179.9790  177.5190  140.6460 N   0  0  0  0  0  1  0  0  0  0  0  0
  180.3960  178.9000  140.4650 C   0  0  0  0  0  2  0  0  0  0  0  0
  1  8  1  0  0  0  0
  1  6  1  1  0  0  0
  2 12  1  0  0  0  0
  3 14  2  0  0  0  0
  3 10  1  0  0  0  0
  4 15  1  0  0  0  0
  4  8  1  0  0  0  0
  5  1  1  0  0  0  0
  7  4  2  0  0  0  0
  9  7  1  0  0  0  0
  9  5  1  0  0  0  0
 10 11  2  0  0  0  0
 11  2  1  0  0  0  0
 11  7  1  0  0  0  0
 12 15  2  0  0  0  0
 13 35  1  0  0  0  0
 13  2  2  0  0  0  0
 14 13  1  0  0  0  0
 16  3  1  1  0  0  0
 17 20  2  0  0  0  0
 18 16  1  0  0  0  0
 19 16  1  0  0  0  0
 20 18  1  0  0  0  0
 21 20  1  0  0  0  0
 21 19  1  0  0  0  0
 22 17  1  0  0  0  0
 23 22  1  0  0  0  0
 23 24  1  1  0  0  0
 25 27  1  0  0  0  0
 25 23  1  0  0  0  0
 27 26  1  0  0  0  0
 28 23  1  0  0  0  0
 29 28  1  6  0  0  0
 29 33  1  0  0  0  0
 31 33  2  0  0  0  0
 32 30  1  0  0  0  0
 32 31  1  0  0  0  0
 34 30  1  0  0  0  0
 34 29  1  0  0  0  0
 36 37  1  0  0  0  0
 36 39  2  0  0  0  0
 37 43  1  6  0  0  0
 37 41  1  0  0  0  0
 39 40  1  0  0  0  0
 40 38  2  0  0  0  0
 40 35  1  0  0  0  0
 41 38  1  0  0  0  0
 43 42  1  0  0  0  0
M  END
>  <MODEL>
3

>  <REMARK>
 VINA RESULT:      -8.5      2.618      5.321
  Name = 
  10 active torsions:
  status: ('A' for Active; 'I' for Inactive)
    1  A    between atoms: O_1  and  C_34
    2  A    between atoms: O_1  and  C_35
    3  A    between atoms: C_2  and  C_13
    4  A    between atoms: C_3  and  N_4
    5  A    between atoms: N_4  and  C_22
    6  A    between atoms: C_10  and  C_22
    7  A    between atoms: C_10  and  C_42
    8  A    between atoms: C_11  and  C_14
    9  A    between atoms: C_14  and  C_22
   10  A    between atoms: C_19  and  C_37
                            x       y       z     vdW  Elec       q    Type
                         _______ _______ _______ _____ _____    ______ ____

>  <TORSDO>
F 10

$$$$
=
 OpenBabel10262422213D

 43 48  0  0  1  0  0  0  0  0999 V2000
  191.1030  176.1110  146.8150 C   0  0  1  0  0  3  0  0  0  0  0  0
  187.1240  178.0190  144.1910 C   0  0  0  0  0  0  0  0  0  0  0  0
  188.0260  178.1990  141.5690 C   0  0  0  0  0  0  0  0  0  0  0  0
  188.9140  177.1820  146.1920 C   0  0  0  0  0  0  0  0  0  0  0  0
  191.7200  176.9020  145.6730 C   0  0  0  0  0  2  0  0  0  0  0  0
  192.0980  175.9950  147.9480 C   0  0  0  0  0  1  0  0  0  0  0  0
  189.3650  177.2990  144.8560 C   0  0  0  0  0  0  0  0  0  0  0  0
  189.8490  176.8250  147.3100 C   0  0  0  0  0  2  0  0  0  0  0  0
  190.7690  176.8960  144.4780 C   0  0  0  0  0  2  0  0  0  0  0  0
  188.8670  177.7980  142.5590 N   0  0  0  0  0  0  0  0  0  0  0  0
  188.4630  177.7050  143.8550 C   0  0  0  0  0  0  0  0  0  0  0  0
  186.7020  177.9160  145.5210 C   0  0  0  0  0  3  0  0  0  0  0  0
  186.2310  178.4200  143.1830 C   0  0  0  0  0  0  0  0  0  0  0  0
  186.6990  178.5140  141.8660 C   0  0  0  0  0  3  0  0  0  0  0  0
  187.5930  177.5070  146.5130 C   0  0  0  0  0  3  0  0  0  0  0  0
  188.4980  178.2730  140.1550 C   0  0  1  0  0  3  0  0  0  0  0  0
  190.6990  176.7610  137.4750 C   0  0  0  0  0  3  0  0  0  0  0  0
  190.2180  177.6700  139.9960 S   0  0  0  0  0  0  0  0  0  0  0  0
  187.5940  177.4540  139.2400 C   0  0  0  0  0  2  0  0  0  0  0  0
  189.7830  177.0720  138.3850 C   0  0  0  0  0  0  0  0  0  0  0  0
  188.3950  177.0200  138.1130 N   0  0  0  0  0  2  0  0  0  0  0  0
  190.3190  176.3480  136.1600 N   0  0  0  0  0  2  0  0  0  0  0  0
  190.8410  175.1420  135.5250 C   0  0  2  0  0  0  0  0  0  0  0  0
  191.8200  175.5160  134.5990 O   0  0  0  0  0  1  0  0  0  0  0  0
  189.7090  174.3940  134.8050 C   0  0  0  0  0  2  0  0  0  0  0  0
  187.6690  173.7090  136.0780 C   0  0  0  0  0  1  0  0  0  0  0  0
  188.3210  174.8210  135.2770 C   0  0  0  0  0  2  0  0  0  0  0  0
  191.4780  174.2390  136.5910 C   0  0  0  0  0  2  0  0  0  0  0  0
  192.9650  173.9890  136.3650 C   0  0  1  0  0  3  0  0  0  0  0  0
  194.6990  172.3630  135.6360 C   0  0  0  0  0  2  0  0  0  0  0  0
  194.7650  173.3250  137.9670 C   0  0  0  0  0  3  0  0  0  0  0  0
  195.2340  172.2140  137.0600 C   0  0  0  0  0  2  0  0  0  0  0  0
  193.7040  174.0970  137.6730 C   0  0  0  0  0  3  0  0  0  0  0  0
  193.2020  172.6380  135.6850 C   0  0  0  0  0  2  0  0  0  0  0  0
  184.9050  178.7390  143.5280 O   0  0  0  0  0  0  0  0  0  0  0  0
  182.7610  178.0810  140.5460 C   0  0  0  0  0  3  0  0  0  0  0  0
  181.5490  178.8720  140.9530 C   0  0  2  0  0  3  0  0  0  0  0  0
  182.5840  178.9820  143.2230 C   0  0  0  0  0  3  0  0  0  0  0  0
  183.8080  177.9870  141.3700 C   0  0  0  0  0  3  0  0  0  0  0  0
  183.7630  178.5880  142.7250 C   0  0  0  0  0  0  0  0  0  0  0  0
  181.3070  178.7500  142.4610 C   0  0  0  0  0  2  0  0  0  0  0  0
  180.6520  178.3350  138.7530 N   0  0  0  0  0  1  0  0  0  0  0  0
  180.3380  178.3930  140.1710 C   0  0  0  0  0  2  0  0  0  0  0  0
  1  8  1  0  0  0  0
  1  6  1  1  0  0  0
  2 12  1  0  0  0  0
  3 14  2  0  0  0  0
  3 10  1  0  0  0  0
  4 15  1  0  0  0  0
  4  8  1  0  0  0  0
  5  1  1  0  0  0  0
  7  4  2  0  0  0  0
  9  7  1  0  0  0  0
  9  5  1  0  0  0  0
 10 11  2  0  0  0  0
 11  2  1  0  0  0  0
 11  7  1  0  0  0  0
 12 15  2  0  0  0  0
 13 35  1  0  0  0  0
 13  2  2  0  0  0  0
 14 13  1  0  0  0  0
 16  3  1  1  0  0  0
 17 20  2  0  0  0  0
 18 16  1  0  0  0  0
 19 16  1  0  0  0  0
 20 18  1  0  0  0  0
 21 20  1  0  0  0  0
 21 19  1  0  0  0  0
 22 17  1  0  0  0  0
 23 24  1  6  0  0  0
 23 22  1  0  0  0  0
 23 28  1  0  0  0  0
 25 27  1  0  0  0  0
 25 23  1  0  0  0  0
 27 26  1  0  0  0  0
 29 28  1  1  0  0  0
 29 33  1  0  0  0  0
 30 34  1  0  0  0  0
 30 32  1  0  0  0  0
 32 31  1  0  0  0  0
 33 31  2  0  0  0  0
 34 29  1  0  0  0  0
 36 37  1  0  0  0  0
 36 39  2  0  0  0  0
 37 43  1  6  0  0  0
 37 41  1  0  0  0  0
 39 40  1  0  0  0  0
 40 38  2  0  0  0  0
 40 35  1  0  0  0  0
 41 38  1  0  0  0  0
 42 43  1  0  0  0  0
M  END
>  <MODEL>
4

>  <REMARK>
 VINA RESULT:      -8.5      1.905      2.671
  Name = 
  10 active torsions:
  status: ('A' for Active; 'I' for Inactive)
    1  A    between atoms: O_1  and  C_34
    2  A    between atoms: O_1  and  C_35
    3  A    between atoms: C_2  and  C_13
    4  A    between atoms: C_3  and  N_4
    5  A    between atoms: N_4  and  C_22
    6  A    between atoms: C_10  and  C_22
    7  A    between atoms: C_10  and  C_42
    8  A    between atoms: C_11  and  C_14
    9  A    between atoms: C_14  and  C_22
   10  A    between atoms: C_19  and  C_37
                            x       y       z     vdW  Elec       q    Type
                         _______ _______ _______ _____ _____    ______ ____

>  <TORSDO>
F 10

$$$$
=
 OpenBabel10262422213D

 43 48  0  0  1  0  0  0  0  0999 V2000
  188.1880  177.1020  146.7750 C   0  0  1  0  0  3  0  0  0  0  0  0
  186.0140  178.4420  142.3210 C   0  0  0  0  0  0  0  0  0  0  0  0
  188.0480  178.2080  140.4420 C   0  0  0  0  0  0  0  0  0  0  0  0
  186.6080  177.9970  145.0330 C   0  0  0  0  0  0  0  0  0  0  0  0
  189.3100  177.7090  145.9490 C   0  0  0  0  0  2  0  0  0  0  0  0
  188.5270  177.2030  148.2460 C   0  0  0  0  0  1  0  0  0  0  0  0
  187.6380  177.9010  144.0680 C   0  0  0  0  0  0  0  0  0  0  0  0
  186.8890  177.8550  146.5000 C   0  0  0  0  0  2  0  0  0  0  0  0
  189.0320  177.4790  144.4660 C   0  0  0  0  0  2  0  0  0  0  0  0
  188.3040  178.0000  141.7610 N   0  0  0  0  0  0  0  0  0  0  0  0
  187.3350  178.1120  142.7100 C   0  0  0  0  0  0  0  0  0  0  0  0
  185.0130  178.5490  143.2930 C   0  0  0  0  0  3  0  0  0  0  0  0
  185.7210  178.6460  140.9620 C   0  0  0  0  0  0  0  0  0  0  0  0
  186.7560  178.5320  140.0250 C   0  0  0  0  0  3  0  0  0  0  0  0
  185.3110  178.3340  144.6380 C   0  0  0  0  0  3  0  0  0  0  0  0
  189.1310  178.0590  139.4260 C   0  0  1  0  0  3  0  0  0  0  0  0
  192.1970  176.1300  138.3350 C   0  0  0  0  0  3  0  0  0  0  0  0
  190.6690  177.4210  140.1830 S   0  0  0  0  0  0  0  0  0  0  0  0
  188.6960  177.1190  138.3060 C   0  0  0  0  0  2  0  0  0  0  0  0
  190.9910  176.5870  138.6520 C   0  0  0  0  0  0  0  0  0  0  0  0
  189.8920  176.5090  137.7620 N   0  0  0  0  0  2  0  0  0  0  0  0
  192.4440  175.5250  137.0640 N   0  0  0  0  0  2  0  0  0  0  0  0
  193.7820  175.1710  136.5990 C   0  0  2  0  0  0  0  0  0  0  0  0
  194.7070  175.5470  137.5790 O   0  0  0  0  0  1  0  0  0  0  0  0
  194.0940  175.9040  135.2860 C   0  0  0  0  0  2  0  0  0  0  0  0
  195.6500  177.8350  134.9760 C   0  0  0  0  0  1  0  0  0  0  0  0
  195.5550  176.3350  135.1780 C   0  0  0  0  0  2  0  0  0  0  0  0
  193.8640  173.6520  136.3900 C   0  0  0  0  0  2  0  0  0  0  0  0
  195.2470  173.0750  136.6690 C   0  0  1  0  0  3  0  0  0  0  0  0
  197.2150  171.8770  135.7310 C   0  0  0  0  0  2  0  0  0  0  0  0
  195.9250  170.8810  137.6570 C   0  0  0  0  0  3  0  0  0  0  0  0
  196.8940  170.6150  136.5320 C   0  0  0  0  0  2  0  0  0  0  0  0
  195.1420  171.9730  137.6920 C   0  0  0  0  0  3  0  0  0  0  0  0
  195.9180  172.5940  135.3800 C   0  0  0  0  0  2  0  0  0  0  0  0
  184.4070  178.9820  140.5860 O   0  0  0  0  0  0  0  0  0  0  0  0
  182.4590  176.1710  139.0960 C   0  0  0  0  0  3  0  0  0  0  0  0
  182.3910  176.6610  137.6760 C   0  0  2  0  0  3  0  0  0  0  0  0
  183.2060  178.8480  138.5670 C   0  0  0  0  0  3  0  0  0  0  0  0
  183.0460  176.9150  140.0360 C   0  0  0  0  0  3  0  0  0  0  0  0
  183.5680  178.2660  139.7170 C   0  0  0  0  0  0  0  0  0  0  0  0
  182.2230  178.1840  137.6410 C   0  0  0  0  0  2  0  0  0  0  0  0
  181.6920  174.6940  136.4230 N   0  0  0  0  0  1  0  0  0  0  0  0
  181.2480  175.9740  136.9500 C   0  0  0  0  0  2  0  0  0  0  0  0
  1  6  1  1  0  0  0
  2 11  1  0  0  0  0
  2 12  1  0  0  0  0
  3 10  1  0  0  0  0
  4  8  1  0  0  0  0
  5  1  1  0  0  0  0
  7  9  1  0  0  0  0
  7  4  2  0  0  0  0
  8  1  1  0  0  0  0
  9  5  1  0  0  0  0
 10 11  2  0  0  0  0
 11  7  1  0  0  0  0
 12 15  2  0  0  0  0
 13  2  2  0  0  0  0
 14  3  2  0  0  0  0
 14 13  1  0  0  0  0
 15  4  1  0  0  0  0
 16 18  1  0  0  0  0
 16  3  1  1  0  0  0
 17 20  2  0  0  0  0
 19 16  1  0  0  0  0
 20 18  1  0  0  0  0
 21 19  1  0  0  0  0
 21 20  1  0  0  0  0
 22 17  1  0  0  0  0
 23 22  1  0  0  0  0
 23 24  1  1  0  0  0
 25 23  1  0  0  0  0
 26 27  1  0  0  0  0
 27 25  1  0  0  0  0
 28 23  1  0  0  0  0
 29 28  1  6  0  0  0
 29 33  1  0  0  0  0
 30 32  1  0  0  0  0
 31 33  2  0  0  0  0
 32 31  1  0  0  0  0
 34 30  1  0  0  0  0
 34 29  1  0  0  0  0
 35 13  1  0  0  0  0
 36 39  2  0  0  0  0
 37 43  1  1  0  0  0
 37 36  1  0  0  0  0
 38 40  2  0  0  0  0
 40 39  1  0  0  0  0
 40 35  1  0  0  0  0
 41 37  1  0  0  0  0
 41 38  1  0  0  0  0
 42 43  1  0  0  0  0
M  END
>  <MODEL>
5

>  <REMARK>
 VINA RESULT:      -8.5      1.446      2.138
  Name = 
  10 active torsions:
  status: ('A' for Active; 'I' for Inactive)
    1  A    between atoms: O_1  and  C_34
    2  A    between atoms: O_1  and  C_35
    3  A    between atoms: C_2  and  C_13
    4  A    between atoms: C_3  and  N_4
    5  A    between atoms: N_4  and  C_22
    6  A    between atoms: C_10  and  C_22
    7  A    between atoms: C_10  and  C_42
    8  A    between atoms: C_11  and  C_14
    9  A    between atoms: C_14  and  C_22
   10  A    between atoms: C_19  and  C_37
                            x       y       z     vdW  Elec       q    Type
                         _______ _______ _______ _____ _____    ______ ____

>  <TORSDO>
F 10

$$$$
=
 OpenBabel10262422213D

 43 48  0  0  1  0  0  0  0  0999 V2000
  188.0250  177.8680  147.1220 C   0  0  1  0  0  3  0  0  0  0  0  0
  188.9960  177.7380  142.0830 C   0  0  0  0  0  0  0  0  0  0  0  0
  186.6230  178.5440  140.8820 C   0  0  0  0  0  0  0  0  0  0  0  0
  189.0760  177.4390  144.8770 C   0  0  0  0  0  0  0  0  0  0  0  0
  186.6920  177.5480  146.4660 C   0  0  0  0  0  2  0  0  0  0  0  0
  188.0180  177.3780  148.5530 C   0  0  0  0  0  1  0  0  0  0  0  0
  187.8680  177.8280  144.2510 C   0  0  0  0  0  0  0  0  0  0  0  0
  189.1490  177.1800  146.3540 C   0  0  0  0  0  2  0  0  0  0  0  0
  186.6480  178.1680  145.0710 C   0  0  0  0  0  2  0  0  0  0  0  0
  186.6930  178.3890  142.2320 N   0  0  0  0  0  0  0  0  0  0  0  0
  187.8360  177.9890  142.8530 C   0  0  0  0  0  0  0  0  0  0  0  0
  190.1760  177.3360  142.7190 C   0  0  0  0  0  3  0  0  0  0  0  0
  188.9530  177.9070  140.6880 C   0  0  0  0  0  0  0  0  0  0  0  0
  187.7490  178.3070  140.0940 C   0  0  0  0  0  3  0  0  0  0  0  0
  190.2110  177.1820  144.1050 C   0  0  0  0  0  3  0  0  0  0  0  0
  185.3580  179.0010  140.2360 C   0  0  1  0  0  3  0  0  0  0  0  0
  182.5450  178.1620  137.8510 C   0  0  0  0  0  3  0  0  0  0  0  0
  185.1700  178.2880  138.5630 S   0  0  0  0  0  0  0  0  0  0  0  0
  184.1490  178.6170  141.0840 C   0  0  0  0  0  2  0  0  0  0  0  0
  183.4190  178.2760  138.8430 C   0  0  0  0  0  0  0  0  0  0  0  0
  183.0200  178.4690  140.1880 N   0  0  0  0  0  2  0  0  0  0  0  0
  181.1380  178.2270  138.0980 N   0  0  0  0  0  2  0  0  0  0  0  0
  180.2690  179.2270  137.4840 C   0  0  2  0  0  0  0  0  0  0  0  0
  179.4640  179.7880  138.4810 O   0  0  0  0  0  1  0  0  0  0  0  0
  179.3840  178.5700  136.4140 C   0  0  0  0  0  2  0  0  0  0  0  0
  179.8270  176.9070  134.6020 C   0  0  0  0  0  1  0  0  0  0  0  0
  180.1270  178.3050  135.1080 C   0  0  0  0  0  2  0  0  0  0  0  0
  181.1290  180.3310  136.8530 C   0  0  0  0  0  2  0  0  0  0  0  0
  180.4110  181.6720  136.7460 C   0  0  1  0  0  3  0  0  0  0  0  0
  179.7010  183.5220  135.2420 C   0  0  0  0  0  2  0  0  0  0  0  0
  181.2240  183.9920  137.1980 C   0  0  0  0  0  3  0  0  0  0  0  0
  180.7040  184.4890  135.8710 C   0  0  0  0  0  2  0  0  0  0  0  0
  181.1350  182.7040  137.5720 C   0  0  0  0  0  3  0  0  0  0  0  0
  180.2670  182.1090  135.2860 C   0  0  0  0  0  2  0  0  0  0  0  0
  190.1090  177.6460  139.9290 O   0  0  0  0  0  0  0  0  0  0  0  0
  189.3700  176.9940  136.3310 C   0  0  0  0  0  3  0  0  0  0  0  0
  189.8320  175.5660  136.2530 C   0  0  2  0  0  3  0  0  0  0  0  0
  190.8850  175.9580  138.4840 C   0  0  0  0  0  3  0  0  0  0  0  0
  189.4970  177.6810  137.4690 C   0  0  0  0  0  3  0  0  0  0  0  0
  190.1680  177.0770  138.6470 C   0  0  0  0  0  0  0  0  0  0  0  0
  191.0790  175.3560  137.1180 C   0  0  0  0  0  2  0  0  0  0  0  0
  190.7990  173.9170  134.7440 N   0  0  0  0  0  1  0  0  0  0  0  0
  190.1090  175.1940  134.8070 C   0  0  0  0  0  2  0  0  0  0  0  0
  1  6  1  1  0  0  0
  2 12  1  0  0  0  0
  2 11  1  0  0  0  0
  3 10  1  0  0  0  0
  4  8  1  0  0  0  0
  5  1  1  0  0  0  0
  7  4  2  0  0  0  0
  7  9  1  0  0  0  0
  8  1  1  0  0  0  0
  9  5  1  0  0  0  0
 10 11  2  0  0  0  0
 11  7  1  0  0  0  0
 12 15  2  0  0  0  0
 13  2  2  0  0  0  0
 14 13  1  0  0  0  0
 14  3  2  0  0  0  0
 15  4  1  0  0  0  0
 16  3  1  1  0  0  0
 16 19  1  0  0  0  0
 17 22  1  0  0  0  0
 17 20  2  0  0  0  0
 18 20  1  0  0  0  0
 18 16  1  0  0  0  0
 20 21  1  0  0  0  0
 21 19  1  0  0  0  0
 23 22  1  0  0  0  0
 23 24  1  1  0  0  0
 25 23  1  0  0  0  0
 26 27  1  0  0  0  0
 27 25  1  0  0  0  0
 28 23  1  0  0  0  0
 29 28  1  6  0  0  0
 29 33  1  0  0  0  0
 30 34  1  0  0  0  0
 30 32  1  0  0  0  0
 31 33  2  0  0  0  0
 32 31  1  0  0  0  0
 34 29  1  0  0  0  0
 35 13  1  0  0  0  0
 36 39  2  0  0  0  0
 37 43  1  6  0  0  0
 37 36  1  0  0  0  0
 37 41  1  0  0  0  0
 38 40  2  0  0  0  0
 39 40  1  0  0  0  0
 40 35  1  0  0  0  0
 41 38  1  0  0  0  0
 42 43  1  0  0  0  0
M  END
>  <MODEL>
6

>  <REMARK>
 VINA RESULT:      -8.4      3.627     10.346
  Name = 
  10 active torsions:
  status: ('A' for Active; 'I' for Inactive)
    1  A    between atoms: O_1  and  C_34
    2  A    between atoms: O_1  and  C_35
    3  A    between atoms: C_2  and  C_13
    4  A    between atoms: C_3  and  N_4
    5  A    between atoms: N_4  and  C_22
    6  A    between atoms: C_10  and  C_22
    7  A    between atoms: C_10  and  C_42
    8  A    between atoms: C_11  and  C_14
    9  A    between atoms: C_14  and  C_22
   10  A    between atoms: C_19  and  C_37
                            x       y       z     vdW  Elec       q    Type
                         _______ _______ _______ _____ _____    ______ ____

>  <TORSDO>
F 10

$$$$
=
 OpenBabel10262422213D

 43 48  0  0  1  0  0  0  0  0999 V2000
  196.4640  173.9540  137.4090 C   0  0  1  0  0  3  0  0  0  0  0  0
  191.4170  174.3700  136.5670 C   0  0  0  0  0  0  0  0  0  0  0  0
  190.5280  176.1870  138.4730 C   0  0  0  0  0  0  0  0  0  0  0  0
  194.1130  173.5740  136.5980 C   0  0  0  0  0  0  0  0  0  0  0  0
  195.8560  174.2650  138.7670 C   0  0  0  0  0  2  0  0  0  0  0  0
  197.7920  173.2560  137.5950 C   0  0  0  0  0  1  0  0  0  0  0  0
  193.6420  174.4820  137.5760 C   0  0  0  0  0  0  0  0  0  0  0  0
  195.5190  173.0500  136.6230 C   0  0  0  0  0  2  0  0  0  0  0  0
  194.5880  175.0940  138.5800 C   0  0  0  0  0  2  0  0  0  0  0  0
  191.8260  175.7810  138.4630 N   0  0  0  0  0  0  0  0  0  0  0  0
  192.2950  174.8880  137.5490 C   0  0  0  0  0  0  0  0  0  0  0  0
  191.8970  173.4600  135.6200 C   0  0  0  0  0  3  0  0  0  0  0  0
  190.0750  174.7860  136.5470 C   0  0  0  0  0  0  0  0  0  0  0  0
  189.6370  175.6970  137.5170 C   0  0  0  0  0  3  0  0  0  0  0  0
  193.2340  173.0610  135.6410 C   0  0  0  0  0  3  0  0  0  0  0  0
  190.0520  177.1810  139.4790 C   0  0  1  0  0  3  0  0  0  0  0  0
  187.0880  178.6520  141.3110 C   0  0  0  0  0  3  0  0  0  0  0  0
  188.3750  177.7870  139.0730 S   0  0  0  0  0  0  0  0  0  0  0  0
  190.0400  176.5710  140.8770 C   0  0  0  0  0  2  0  0  0  0  0  0
  188.0800  177.9230  140.8160 C   0  0  0  0  0  0  0  0  0  0  0  0
  189.0200  177.2600  141.6420 N   0  0  0  0  0  2  0  0  0  0  0  0
  186.9170  178.8010  142.7230 N   0  0  0  0  0  2  0  0  0  0  0  0
  185.7570  178.2810  143.4420 C   0  0  2  0  0  0  0  0  0  0  0  0
  184.9700  177.5490  142.5460 O   0  0  0  0  0  1  0  0  0  0  0  0
  184.9340  179.4420  144.0220 C   0  0  0  0  0  2  0  0  0  0  0  0
  182.4890  178.9910  144.2750 C   0  0  0  0  0  1  0  0  0  0  0  0
  183.8350  178.9750  144.9730 C   0  0  0  0  0  2  0  0  0  0  0  0
  186.2300  177.3530  144.5690 C   0  0  0  0  0  2  0  0  0  0  0  0
  187.3600  177.9430  145.4060 C   0  0  1  0  0  3  0  0  0  0  0  0
  189.6780  177.6400  146.2560 C   0  0  0  0  0  2  0  0  0  0  0  0
  187.7570  177.8860  147.8730 C   0  0  0  0  0  3  0  0  0  0  0  0
  189.1810  177.4250  147.6860 C   0  0  0  0  0  2  0  0  0  0  0  0
  186.9170  178.0730  146.8410 C   0  0  0  0  0  3  0  0  0  0  0  0
  188.6380  177.1110  145.2760 C   0  0  0  0  0  2  0  0  0  0  0  0
  189.2070  174.2600  135.5720 O   0  0  0  0  0  0  0  0  0  0  0  0
  185.5300  174.1360  136.1950 C   0  0  0  0  0  3  0  0  0  0  0  0
  185.4410  172.7580  136.7900 C   0  0  2  0  0  3  0  0  0  0  0  0
  187.7790  172.4330  135.9710 C   0  0  0  0  0  3  0  0  0  0  0  0
  186.7020  174.6050  135.7590 C   0  0  0  0  0  3  0  0  0  0  0  0
  187.9150  173.7500  135.7780 C   0  0  0  0  0  0  0  0  0  0  0  0
  186.4150  171.8060  136.0890 C   0  0  0  0  0  2  0  0  0  0  0  0
  183.0860  173.3630  136.6600 N   0  0  0  0  0  1  0  0  0  0  0  0
  184.0150  172.2470  136.6870 C   0  0  0  0  0  2  0  0  0  0  0  0
  1  6  1  1  0  0  0
  1  5  1  0  0  0  0
  2 11  1  0  0  0  0
  4  8  1  0  0  0  0
  4  7  2  0  0  0  0
  7  9  1  0  0  0  0
  8  1  1  0  0  0  0
  9  5  1  0  0  0  0
 10  3  1  0  0  0  0
 11  7  1  0  0  0  0
 11 10  2  0  0  0  0
 12 15  2  0  0  0  0
 12  2  1  0  0  0  0
 13  2  2  0  0  0  0
 13 14  1  0  0  0  0
 14  3  2  0  0  0  0
 15  4  1  0  0  0  0
 16  3  1  6  0  0  0
 16 19  1  0  0  0  0
 17 22  1  0  0  0  0
 18 16  1  0  0  0  0
 18 20  1  0  0  0  0
 19 21  1  0  0  0  0
 20 17  2  0  0  0  0
 20 21  1  0  0  0  0
 22 23  1  0  0  0  0
 23 24  1  6  0  0  0
 23 25  1  0  0  0  0
 23 28  1  0  0  0  0
 25 27  1  0  0  0  0
 26 27  1  0  0  0  0
 29 28  1  6  0  0  0
 29 33  1  0  0  0  0
 30 32  1  0  0  0  0
 32 31  1  0  0  0  0
 33 31  2  0  0  0  0
 34 29  1  0  0  0  0
 34 30  1  0  0  0  0
 35 40  1  0  0  0  0
 35 13  1  0  0  0  0
 36 37  1  0  0  0  0
 37 43  1  6  0  0  0
 38 41  1  0  0  0  0
 39 40  1  0  0  0  0
 39 36  2  0  0  0  0
 40 38  2  0  0  0  0
 41 37  1  0  0  0  0
 42 43  1  0  0  0  0
M  END
>  <MODEL>
7

>  <REMARK>
 VINA RESULT:      -8.3      2.517     10.043
  Name = 
  10 active torsions:
  status: ('A' for Active; 'I' for Inactive)
    1  A    between atoms: O_1  and  C_34
    2  A    between atoms: O_1  and  C_35
    3  A    between atoms: C_2  and  C_13
    4  A    between atoms: C_3  and  N_4
    5  A    between atoms: N_4  and  C_22
    6  A    between atoms: C_10  and  C_22
    7  A    between atoms: C_10  and  C_42
    8  A    between atoms: C_11  and  C_14
    9  A    between atoms: C_14  and  C_22
   10  A    between atoms: C_19  and  C_37
                            x       y       z     vdW  Elec       q    Type
                         _______ _______ _______ _____ _____    ______ ____

>  <TORSDO>
F 10

$$$$
=
 OpenBabel10262422213D

 43 48  0  0  1  0  0  0  0  0999 V2000
  190.8780  177.3820  146.4420 C   0  0  1  0  0  3  0  0  0  0  0  0
  189.6590  177.7370  141.4670 C   0  0  0  0  0  0  0  0  0  0  0  0
  186.9970  178.5360  141.4450 C   0  0  0  0  0  0  0  0  0  0  0  0
  190.8980  177.1980  143.9320 C   0  0  0  0  0  0  0  0  0  0  0  0
  189.3940  177.0600  146.3700 C   0  0  0  0  0  2  0  0  0  0  0  0
  191.4710  176.7680  147.6900 C   0  0  0  0  0  1  0  0  0  0  0  0
  189.5380  177.5860  143.9050 C   0  0  0  0  0  0  0  0  0  0  0  0
  191.5820  176.8150  145.2120 C   0  0  0  0  0  2  0  0  0  0  0  0
  188.7700  177.7970  145.1870 C   0  0  0  0  0  2  0  0  0  0  0  0
  187.6240  178.2670  142.6220 N   0  0  0  0  0  0  0  0  0  0  0  0
  188.9240  177.8670  142.6700 C   0  0  0  0  0  0  0  0  0  0  0  0
  190.9980  177.3350  141.5140 C   0  0  0  0  0  3  0  0  0  0  0  0
  189.0370  178.0250  140.2400 C   0  0  0  0  0  0  0  0  0  0  0  0
  187.6930  178.4200  140.2420 C   0  0  0  0  0  3  0  0  0  0  0  0
  191.6090  177.0620  142.7370 C   0  0  0  0  0  3  0  0  0  0  0  0
  185.5750  178.9900  141.4310 C   0  0  1  0  0  3  0  0  0  0  0  0
  182.1530  178.6120  139.8650 C   0  0  0  0  0  3  0  0  0  0  0  0
  184.8590  178.8820  139.7510 S   0  0  0  0  0  0  0  0  0  0  0  0
  184.7320  178.1560  142.3900 C   0  0  0  0  0  2  0  0  0  0  0  0
  183.3050  178.5060  140.5160 C   0  0  0  0  0  0  0  0  0  0  0  0
  183.3730  178.1580  141.8870 N   0  0  0  0  0  2  0  0  0  0  0  0
  180.9090  178.3710  140.5270 N   0  0  0  0  0  2  0  0  0  0  0  0
  179.9670  179.4360  140.8600 C   0  0  2  0  0  0  0  0  0  0  0  0
  180.6820  180.5090  141.4010 O   0  0  0  0  0  1  0  0  0  0  0  0
  178.9410  178.9290  141.8860 C   0  0  0  0  0  2  0  0  0  0  0  0
  179.6640  178.6240  144.2590 C   0  0  0  0  0  1  0  0  0  0  0  0
  179.0850  179.5980  143.2500 C   0  0  0  0  0  2  0  0  0  0  0  0
  179.2520  179.9020  139.5830 C   0  0  0  0  0  2  0  0  0  0  0  0
  180.0010  181.0010  138.8370 C   0  0  1  0  0  3  0  0  0  0  0  0
  179.9230  183.3290  137.9660 C   0  0  0  0  0  2  0  0  0  0  0  0
  180.2870  181.3960  136.3860 C   0  0  0  0  0  3  0  0  0  0  0  0
  179.8740  182.8410  136.5170 C   0  0  0  0  0  2  0  0  0  0  0  0
  180.2960  180.5490  137.4290 C   0  0  0  0  0  3  0  0  0  0  0  0
  179.2210  182.3180  138.8620 C   0  0  0  0  0  2  0  0  0  0  0  0
  189.7720  177.8840  139.0490 O   0  0  0  0  0  0  0  0  0  0  0  0
  188.5730  175.2990  136.6410 C   0  0  0  0  0  3  0  0  0  0  0  0
  189.5920  174.2290  136.9210 C   0  0  2  0  0  3  0  0  0  0  0  0
  190.8530  175.9890  138.1680 C   0  0  0  0  0  3  0  0  0  0  0  0
  188.6460  176.4770  137.2660 C   0  0  0  0  0  3  0  0  0  0  0  0
  189.7730  176.7800  138.1810 C   0  0  0  0  0  0  0  0  0  0  0  0
  190.9660  174.8520  137.1870 C   0  0  0  0  0  2  0  0  0  0  0  0
  191.0160  172.7900  135.5670 N   0  0  0  0  0  1  0  0  0  0  0  0
  189.6540  173.2610  135.7530 C   0  0  0  0  0  2  0  0  0  0  0  0
  1  6  1  1  0  0  0
  2 12  1  0  0  0  0
  2 11  1  0  0  0  0
  3 10  1  0  0  0  0
  4  8  1  0  0  0  0
  5  1  1  0  0  0  0
  7  4  2  0  0  0  0
  7  9  1  0  0  0  0
  8  1  1  0  0  0  0
  9  5  1  0  0  0  0
 10 11  2  0  0  0  0
 11  7  1  0  0  0  0
 12 15  2  0  0  0  0
 13 14  1  0  0  0  0
 13  2  2  0  0  0  0
 14  3  2  0  0  0  0
 15  4  1  0  0  0  0
 16  3  1  6  0  0  0
 16 19  1  0  0  0  0
 17 20  2  0  0  0  0
 17 22  1  0  0  0  0
 18 20  1  0  0  0  0
 18 16  1  0  0  0  0
 20 21  1  0  0  0  0
 21 19  1  0  0  0  0
 22 23  1  0  0  0  0
 23 24  1  1  0  0  0
 23 25  1  0  0  0  0
 25 27  1  0  0  0  0
 27 26  1  0  0  0  0
 28 23  1  0  0  0  0
 29 34  1  0  0  0  0
 29 28  1  6  0  0  0
 30 34  1  0  0  0  0
 31 32  1  0  0  0  0
 31 33  2  0  0  0  0
 32 30  1  0  0  0  0
 33 29  1  0  0  0  0
 35 13  1  0  0  0  0
 36 37  1  0  0  0  0
 36 39  2  0  0  0  0
 37 43  1  6  0  0  0
 37 41  1  0  0  0  0
 38 40  2  0  0  0  0
 39 40  1  0  0  0  0
 40 35  1  0  0  0  0
 41 38  1  0  0  0  0
 42 43  1  0  0  0  0
M  END
>  <MODEL>
8

>  <REMARK>
 VINA RESULT:      -8.3      3.232     10.813
  Name = 
  10 active torsions:
  status: ('A' for Active; 'I' for Inactive)
    1  A    between atoms: O_1  and  C_34
    2  A    between atoms: O_1  and  C_35
    3  A    between atoms: C_2  and  C_13
    4  A    between atoms: C_3  and  N_4
    5  A    between atoms: N_4  and  C_22
    6  A    between atoms: C_10  and  C_22
    7  A    between atoms: C_10  and  C_42
    8  A    between atoms: C_11  and  C_14
    9  A    between atoms: C_14  and  C_22
   10  A    between atoms: C_19  and  C_37
                            x       y       z     vdW  Elec       q    Type
                         _______ _______ _______ _____ _____    ______ ____

>  <TORSDO>
F 10

$$$$
=
 OpenBabel10262422213D

 43 48  0  0  1  0  0  0  0  0999 V2000
  187.8230  171.2360  135.7280 C   0  0  1  0  0  3  0  0  0  0  0  0
  191.6670  174.5560  136.4770 C   0  0  0  0  0  0  0  0  0  0  0  0
  190.6710  176.3910  138.3110 C   0  0  0  0  0  0  0  0  0  0  0  0
  189.9660  172.5360  135.5110 C   0  0  0  0  0  0  0  0  0  0  0  0
  187.1500  172.5590  136.0520 C   0  0  0  0  0  2  0  0  0  0  0  0
  186.8720  170.3600  134.9440 C   0  0  0  0  0  1  0  0  0  0  0  0
  189.4660  173.4890  136.4300 C   0  0  0  0  0  0  0  0  0  0  0  0
  189.0790  171.4920  134.8990 C   0  0  0  0  0  2  0  0  0  0  0  0
  188.0590  173.3830  136.9630 C   0  0  0  0  0  2  0  0  0  0  0  0
  189.8730  175.4030  137.8250 N   0  0  0  0  0  0  0  0  0  0  0  0
  190.3240  174.4910  136.9210 C   0  0  0  0  0  0  0  0  0  0  0  0
  192.1370  173.6160  135.5540 C   0  0  0  0  0  3  0  0  0  0  0  0
  192.5150  175.5590  136.9770 C   0  0  0  0  0  0  0  0  0  0  0  0
  191.9990  176.4810  137.8960 C   0  0  0  0  0  3  0  0  0  0  0  0
  191.2900  172.6180  135.0720 C   0  0  0  0  0  3  0  0  0  0  0  0
  190.1470  177.3630  139.3160 C   0  0  1  0  0  3  0  0  0  0  0  0
  187.1250  178.6530  141.1900 C   0  0  0  0  0  3  0  0  0  0  0  0
  188.4260  177.8500  138.9370 S   0  0  0  0  0  0  0  0  0  0  0  0
  190.2030  176.7700  140.7210 C   0  0  0  0  0  2  0  0  0  0  0  0
  188.1550  177.9860  140.6830 C   0  0  0  0  0  0  0  0  0  0  0  0
  189.1530  177.3980  141.4980 N   0  0  0  0  0  2  0  0  0  0  0  0
  186.9710  178.8060  142.6020 N   0  0  0  0  0  2  0  0  0  0  0  0
  185.8490  178.2390  143.3450 C   0  0  2  0  0  0  0  0  0  0  0  0
  185.0350  177.5340  142.4520 O   0  0  0  0  0  1  0  0  0  0  0  0
  185.0360  179.3610  144.0080 C   0  0  0  0  0  2  0  0  0  0  0  0
  182.5720  179.0060  144.2350 C   0  0  0  0  0  1  0  0  0  0  0  0
  183.9210  178.8350  144.9080 C   0  0  0  0  0  2  0  0  0  0  0  0
  186.3810  177.2700  144.4110 C   0  0  0  0  0  2  0  0  0  0  0  0
  187.4700  177.8760  145.2910 C   0  0  1  0  0  3  0  0  0  0  0  0
  189.8010  177.6660  146.1310 C   0  0  0  0  0  2  0  0  0  0  0  0
  187.8660  177.6840  147.7510 C   0  0  0  0  0  3  0  0  0  0  0  0
  189.3170  177.3280  147.5420 C   0  0  0  0  0  2  0  0  0  0  0  0
  187.0170  177.8830  146.7280 C   0  0  0  0  0  3  0  0  0  0  0  0
  188.7990  177.1370  145.1140 C   0  0  0  0  0  2  0  0  0  0  0  0
  193.8460  175.6210  136.5230 O   0  0  0  0  0  0  0  0  0  0  0  0
  196.0290  173.0270  138.0810 C   0  0  0  0  0  3  0  0  0  0  0  0
  197.1950  173.1060  137.1340 C   0  0  2  0  0  3  0  0  0  0  0  0
  195.6940  174.4500  135.6580 C   0  0  0  0  0  3  0  0  0  0  0  0
  194.9440  173.7770  137.8730 C   0  0  0  0  0  3  0  0  0  0  0  0
  194.8350  174.6350  136.6670 C   0  0  0  0  0  0  0  0  0  0  0  0
  196.7090  173.3390  135.7000 C   0  0  0  0  0  2  0  0  0  0  0  0
  197.1580  170.7070  137.5500 N   0  0  0  0  0  1  0  0  0  0  0  0
  198.0180  171.8330  137.2270 C   0  0  0  0  0  2  0  0  0  0  0  0
  1  6  1  6  0  0  0
  1  5  1  0  0  0  0
  2 11  1  0  0  0  0
  2 13  1  0  0  0  0
  4  7  1  0  0  0  0
  5  9  1  0  0  0  0
  7 11  2  0  0  0  0
  7  9  1  0  0  0  0
  8  4  1  0  0  0  0
  8  1  1  0  0  0  0
 10  3  2  0  0  0  0
 11 10  1  0  0  0  0
 12  2  2  0  0  0  0
 13 14  2  0  0  0  0
 14  3  1  0  0  0  0
 15  4  2  0  0  0  0
 15 12  1  0  0  0  0
 16  3  1  6  0  0  0
 16 19  1  0  0  0  0
 17 22  1  0  0  0  0
 18 16  1  0  0  0  0
 18 20  1  0  0  0  0
 19 21  1  0  0  0  0
 20 17  2  0  0  0  0
 20 21  1  0  0  0  0
 22 23  1  0  0  0  0
 23 24  1  6  0  0  0
 23 25  1  0  0  0  0
 23 28  1  0  0  0  0
 25 27  1  0  0  0  0
 26 27  1  0  0  0  0
 29 28  1  6  0  0  0
 29 33  1  0  0  0  0
 30 32  1  0  0  0  0
 32 31  1  0  0  0  0
 33 31  2  0  0  0  0
 34 29  1  0  0  0  0
 34 30  1  0  0  0  0
 35 40  1  0  0  0  0
 35 13  1  0  0  0  0
 37 43  1  6  0  0  0
 37 36  1  0  0  0  0
 38 41  1  0  0  0  0
 38 40  2  0  0  0  0
 39 36  2  0  0  0  0
 40 39  1  0  0  0  0
 41 37  1  0  0  0  0
 43 42  1  0  0  0  0
M  END
>  <MODEL>
9

>  <REMARK>
 VINA RESULT:      -8.2      2.580     11.746
  Name = 
  10 active torsions:
  status: ('A' for Active; 'I' for Inactive)
    1  A    between atoms: O_1  and  C_34
    2  A    between atoms: O_1  and  C_35
    3  A    between atoms: C_2  and  C_13
    4  A    between atoms: C_3  and  N_4
    5  A    between atoms: N_4  and  C_22
    6  A    between atoms: C_10  and  C_22
    7  A    between atoms: C_10  and  C_42
    8  A    between atoms: C_11  and  C_14
    9  A    between atoms: C_14  and  C_22
   10  A    between atoms: C_19  and  C_37
                            x       y       z     vdW  Elec       q    Type
                         _______ _______ _______ _____ _____    ______ ____

>  <TORSDO>
F 10

$$$$
