=
 OpenBabel10252415063D

 34 39  0  0  1  0  0  0  0  0999 V2000
  184.9660  178.9430  139.5750 C   0  0  0  0  0  0  0  0  0  0  0  0
  185.3170  178.0170  141.8100 C   0  0  0  0  0  0  0  0  0  0  0  0
  187.2410  178.2400  140.2880 N   0  0  0  0  0  0  0  0  0  0  0  0
  190.7160  177.0350  140.5450 C   0  0  0  0  0  3  0  0  0  0  0  0
  183.0640  178.7830  141.1840 C   0  0  0  0  0  3  0  0  0  0  0  0
  183.8750  178.1890  142.0650 C   0  0  0  0  0  3  0  0  0  0  0  0
  188.7230  178.2790  142.3340 C   0  0  0  0  0  2  0  0  0  0  0  0
  185.8510  178.3980  140.6330 C   0  0  0  0  0  0  0  0  0  0  0  0
  190.3410  177.6480  144.1250 C   0  0  0  0  0  3  0  0  0  0  0  0
  190.9520  176.9950  141.8660 C   0  0  0  0  0  3  0  0  0  0  0  0
  183.5590  179.3610  139.8860 C   0  0  0  0  0  2  0  0  0  0  0  0
  187.6250  178.3170  138.9160 C   0  0  0  0  0  0  0  0  0  0  0  0
  185.4460  179.0930  138.3320 C   0  0  0  0  0  3  0  0  0  0  0  0
  186.0850  177.4170  142.7980 O   0  0  0  0  0  1  0  0  0  0  0  0
  189.5250  177.8170  140.0930 C   0  0  1  0  0  3  0  0  0  0  0  0
  189.0150  177.8410  138.6550 C   0  0  1  0  0  3  0  0  0  0  0  0
  190.0140  177.6380  142.8320 C   0  0  0  0  0  0  0  0  0  0  0  0
  188.3340  177.6170  141.0150 C   0  0  2  0  0  3  0  0  0  0  0  0
  186.7960  178.7180  137.9990 N   0  0  0  0  0  0  0  0  0  0  0  0
  188.9560  173.9570  136.7930 C   0  0  0  0  0  3  0  0  0  0  0  0
  190.1670  174.4770  137.2550 C   0  0  0  0  0  0  0  0  0  0  0  0
  189.0200  176.4800  138.0120 C   0  0  0  0  0  0  0  0  0  0  0  0
  187.7780  174.6940  136.9380 C   0  0  0  0  0  3  0  0  0  0  0  0
  190.2010  175.7350  137.8630 C   0  0  0  0  0  3  0  0  0  0  0  0
  187.8110  175.9530  137.5450 C   0  0  0  0  0  3  0  0  0  0  0  0
  191.3100  173.7620  137.1150 F   0  0  0  0  0  0  0  0  0  0  0  0
  189.4920  178.2730  145.1900 C   0  0  0  0  0  2  0  0  0  0  0  0
  186.4280  177.3300  145.8270 O   0  0  0  0  0  0  0  0  0  0  0  0
  188.7820  177.2130  146.0280 C   0  0  2  0  0  3  0  0  0  0  0  0
  187.4150  177.6820  146.4510 C   0  0  0  0  0  0  0  0  0  0  0  0
  188.1370  178.1770  148.7710 C   0  0  0  0  0  2  0  0  0  0  0  0
  189.5780  177.9460  148.3230 C   0  0  0  0  0  2  0  0  0  0  0  0
  189.6250  176.8510  147.2550 C   0  0  0  0  0  2  0  0  0  0  0  0
  187.2780  178.6390  147.5970 C   0  0  0  0  0  2  0  0  0  0  0  0
  1 11  1  0  0  0  0
  1  8  1  0  0  0  0
  2  6  1  0  0  0  0
  2 14  1  0  0  0  0
  3  8  1  0  0  0  0
  3 18  1  0  0  0  0
  4 10  2  0  0  0  0
  5  6  2  0  0  0  0
  7 17  1  0  0  0  0
  8  2  2  0  0  0  0
  9 27  1  0  0  0  0
 10 17  1  0  0  0  0
 11  5  1  0  0  0  0
 12  3  1  0  0  0  0
 13  1  2  0  0  0  0
 15  4  1  6  0  0  0
 15 18  1  0  0  0  0
 16 22  1  1  0  0  0
 16 12  1  0  0  0  0
 16 15  1  0  0  0  0
 17  9  2  0  0  0  0
 18  7  1  1  0  0  0
 19 13  1  0  0  0  0
 19 12  2  0  0  0  0
 20 23  2  0  0  0  0
 20 21  1  0  0  0  0
 21 24  2  0  0  0  0
 23 25  1  0  0  0  0
 24 22  1  0  0  0  0
 25 22  2  0  0  0  0
 26 21  1  0  0  0  0
 28 30  2  0  0  0  0
 29 27  1  1  0  0  0
 29 30  1  0  0  0  0
 29 33  1  0  0  0  0
 30 34  1  0  0  0  0
 32 31  1  0  0  0  0
 33 32  1  0  0  0  0
 34 31  1  0  0  0  0
M  END
>  <MODEL>
1

>  <REMARK>
 VINA RESULT:      -9.7      0.000      0.000
  Name = 
  3 active torsions:
  status: ('A' for Active; 'I' for Inactive)
    1  A    between atoms: C_3  and  C_13
    2  A    between atoms: C_3  and  C_17
    3  A    between atoms: C_12  and  C_28
                            x       y       z     vdW  Elec       q    Type
                         _______ _______ _______ _____ _____    ______ ____

>  <TORSDO>
F 3

$$$$
=
 OpenBabel10252415063D

 34 39  0  0  1  0  0  0  0  0999 V2000
  183.7130  177.2180  137.0590 C   0  0  0  0  0  0  0  0  0  0  0  0
  185.5950  178.2420  138.2350 C   0  0  0  0  0  0  0  0  0  0  0  0
  183.4710  177.9020  139.4350 N   0  0  0  0  0  0  0  0  0  0  0  0
  182.3270  179.0400  142.7500 C   0  0  0  0  0  3  0  0  0  0  0  0
  185.9120  177.4980  135.9110 C   0  0  0  0  0  3  0  0  0  0  0  0
  186.3870  178.1150  136.9970 C   0  0  0  0  0  3  0  0  0  0  0  0
  184.8010  177.9290  141.5840 C   0  0  0  0  0  2  0  0  0  0  0  0
  184.3260  177.7930  138.2800 C   0  0  0  0  0  0  0  0  0  0  0  0
  185.8080  178.6080  143.7620 C   0  0  0  0  0  3  0  0  0  0  0  0
  183.4550  179.1380  143.4710 C   0  0  0  0  0  3  0  0  0  0  0  0
  184.5560  176.8480  135.8750 C   0  0  0  0  0  2  0  0  0  0  0  0
  182.0630  177.7520  139.2690 C   0  0  0  0  0  0  0  0  0  0  0  0
  182.3910  176.9980  137.0300 C   0  0  0  0  0  3  0  0  0  0  0  0
  186.1850  178.8720  139.3220 O   0  0  0  0  0  1  0  0  0  0  0  0
  182.4020  178.2650  141.4750 C   0  0  1  0  0  3  0  0  0  0  0  0
  181.2690  178.1830  140.4570 C   0  0  1  0  0  3  0  0  0  0  0  0
  184.7380  178.5640  142.9690 C   0  0  0  0  0  0  0  0  0  0  0  0
  183.6950  178.5350  140.7240 C   0  0  2  0  0  3  0  0  0  0  0  0
  181.5510  177.3260  138.1520 N   0  0  0  0  0  0  0  0  0  0  0  0
  179.3210  181.9760  139.8470 C   0  0  0  0  0  3  0  0  0  0  0  0
  180.3500  181.5880  138.9860 C   0  0  0  0  0  0  0  0  0  0  0  0
  180.6010  179.5110  140.2200 C   0  0  0  0  0  0  0  0  0  0  0  0
  178.9310  181.1370  140.8940 C   0  0  0  0  0  3  0  0  0  0  0  0
  180.9890  180.3600  139.1710 C   0  0  0  0  0  3  0  0  0  0  0  0
  179.5700  179.9070  141.0800 C   0  0  0  0  0  3  0  0  0  0  0  0
  180.7280  182.4030  137.9710 F   0  0  0  0  0  0  0  0  0  0  0  0
  187.1470  178.0550  143.3800 C   0  0  0  0  0  2  0  0  0  0  0  0
  187.3910  177.4790  146.5890 O   0  0  0  0  0  0  0  0  0  0  0  0
  187.5580  176.9080  144.3000 C   0  0  2  0  0  3  0  0  0  0  0  0
  188.1060  177.4260  145.6030 C   0  0  0  0  0  0  0  0  0  0  0  0
  190.4590  176.9700  144.9680 C   0  0  0  0  0  2  0  0  0  0  0  0
  189.9720  176.6680  143.5540 C   0  0  0  0  0  2  0  0  0  0  0  0
  188.5890  176.0120  143.6060 C   0  0  0  0  0  2  0  0  0  0  0  0
  189.5130  177.9430  145.6670 C   0  0  0  0  0  2  0  0  0  0  0  0
  1  8  1  0  0  0  0
  2  8  2  0  0  0  0
  2 14  1  0  0  0  0
  3 18  1  0  0  0  0
  4 10  2  0  0  0  0
  5  6  2  0  0  0  0
  6  2  1  0  0  0  0
  7 17  1  0  0  0  0
  8  3  1  0  0  0  0
 11  5  1  0  0  0  0
 11  1  1  0  0  0  0
 12  3  1  0  0  0  0
 12 16  1  0  0  0  0
 13  1  2  0  0  0  0
 13 19  1  0  0  0  0
 15  4  1  1  0  0  0
 16 22  1  6  0  0  0
 16 15  1  0  0  0  0
 17 10  1  0  0  0  0
 17  9  2  0  0  0  0
 18 15  1  0  0  0  0
 18  7  1  1  0  0  0
 19 12  2  0  0  0  0
 20 23  1  0  0  0  0
 21 24  1  0  0  0  0
 21 20  2  0  0  0  0
 22 25  1  0  0  0  0
 23 25  2  0  0  0  0
 24 22  2  0  0  0  0
 26 21  1  0  0  0  0
 27  9  1  0  0  0  0
 29 27  1  6  0  0  0
 29 30  1  0  0  0  0
 30 34  1  0  0  0  0
 30 28  2  0  0  0  0
 31 34  1  0  0  0  0
 32 33  1  0  0  0  0
 32 31  1  0  0  0  0
 33 29  1  0  0  0  0
M  END
>  <MODEL>
2

>  <REMARK>
 VINA RESULT:      -9.5      3.559      6.844
  Name = 
  3 active torsions:
  status: ('A' for Active; 'I' for Inactive)
    1  A    between atoms: C_3  and  C_13
    2  A    between atoms: C_3  and  C_17
    3  A    between atoms: C_12  and  C_28
                            x       y       z     vdW  Elec       q    Type
                         _______ _______ _______ _____ _____    ______ ____

>  <TORSDO>
F 3

$$$$
=
 OpenBabel10252415063D

 34 39  0  0  1  0  0  0  0  0999 V2000
  184.7640  178.7590  144.6320 C   0  0  0  0  0  0  0  0  0  0  0  0
  186.7270  177.5850  143.7700 C   0  0  0  0  0  0  0  0  0  0  0  0
  185.1250  178.5720  142.1800 N   0  0  0  0  0  0  0  0  0  0  0  0
  184.8380  178.3050  138.5140 C   0  0  0  0  0  3  0  0  0  0  0  0
  186.4620  177.8220  146.2050 C   0  0  0  0  0  3  0  0  0  0  0  0
  187.1320  177.3210  145.1630 C   0  0  0  0  0  3  0  0  0  0  0  0
  187.0040  178.6440  140.4920 C   0  0  0  0  0  2  0  0  0  0  0  0
  185.6110  178.2920  143.5070 C   0  0  1  0  0  3  0  0  0  0  0  0
  188.4870  178.1630  138.5450 C   0  0  0  0  0  3  0  0  0  0  0  0
  186.0990  178.0990  138.1010 C   0  0  0  0  0  3  0  0  0  0  0  0
  185.2710  178.7280  146.0430 C   0  0  0  0  0  3  0  0  0  0  0  0
  183.7700  178.9850  142.0140 C   0  0  0  0  0  0  0  0  0  0  0  0
  183.5420  179.2450  144.3740 C   0  0  0  0  0  3  0  0  0  0  0  0
  187.5050  177.0460  142.7540 O   0  0  0  0  0  1  0  0  0  0  0  0
  184.6560  178.8090  139.9090 C   0  0  1  0  0  3  0  0  0  0  0  0
  183.3010  178.9480  140.5970 C   0  0  1  0  0  3  0  0  0  0  0  0
  187.2510  178.2920  139.0290 C   0  0  0  0  0  0  0  0  0  0  0  0
  185.6160  178.1440  140.8810 C   0  0  2  0  0  3  0  0  0  0  0  0
  183.0260  179.3050  143.0300 N   0  0  0  0  0  0  0  0  0  0  0  0
  180.7760  175.5370  139.8590 C   0  0  0  0  0  3  0  0  0  0  0  0
  180.2370  176.6680  140.4770 C   0  0  0  0  0  0  0  0  0  0  0  0
  182.3970  177.7710  140.3460 C   0  0  0  0  0  0  0  0  0  0  0  0
  182.1220  175.5190  139.4860 C   0  0  0  0  0  3  0  0  0  0  0  0
  181.0440  177.7820  140.7210 C   0  0  0  0  0  3  0  0  0  0  0  0
  182.9310  176.6330  139.7300 C   0  0  0  0  0  3  0  0  0  0  0  0
  178.9310  176.6850  140.8390 F   0  0  0  0  0  0  0  0  0  0  0  0
  189.7240  178.3450  139.3700 C   0  0  0  0  0  2  0  0  0  0  0  0
  191.6220  177.1780  141.7620 O   0  0  0  0  0  0  0  0  0  0  0  0
  190.3060  177.0020  139.8050 C   0  0  2  0  0  3  0  0  0  0  0  0
  191.6050  177.1860  140.5430 C   0  0  0  0  0  0  0  0  0  0  0  0
  192.9790  176.4770  138.6040 C   0  0  0  0  0  2  0  0  0  0  0  0
  191.7140  176.5140  137.7510 C   0  0  0  0  0  2  0  0  0  0  0  0
  190.5050  176.0890  138.5910 C   0  0  0  0  0  2  0  0  0  0  0  0
  192.8660  177.4510  139.7750 C   0  0  0  0  0  2  0  0  0  0  0  0
  1 11  1  0  0  0  0
  2  6  2  0  0  0  0
  3  8  1  0  0  0  0
  6  5  1  0  0  0  0
  8  2  1  6  0  0  0
  8  1  1  0  0  0  0
  9 17  2  0  0  0  0
  9 27  1  0  0  0  0
 10  4  2  0  0  0  0
 10 17  1  0  0  0  0
 11  5  2  0  0  0  0
 12  3  1  0  0  0  0
 12 19  2  0  0  0  0
 13  1  2  0  0  0  0
 14  2  1  0  0  0  0
 15  4  1  6  0  0  0
 15 16  1  0  0  0  0
 15 18  1  0  0  0  0
 16 22  1  1  0  0  0
 16 12  1  0  0  0  0
 17  7  1  0  0  0  0
 18  7  1  6  0  0  0
 18  3  1  0  0  0  0
 19 13  1  0  0  0  0
 20 21  1  0  0  0  0
 21 24  2  0  0  0  0
 21 26  1  0  0  0  0
 22 24  1  0  0  0  0
 23 25  1  0  0  0  0
 23 20  2  0  0  0  0
 25 22  2  0  0  0  0
 29 27  1  6  0  0  0
 29 30  1  0  0  0  0
 30 28  2  0  0  0  0
 31 34  1  0  0  0  0
 32 33  1  0  0  0  0
 32 31  1  0  0  0  0
 33 29  1  0  0  0  0
 34 30  1  0  0  0  0
M  END
>  <MODEL>
3

>  <REMARK>
 VINA RESULT:      -9.3      3.261      6.948
  Name = 
  3 active torsions:
  status: ('A' for Active; 'I' for Inactive)
    1  A    between atoms: C_3  and  C_13
    2  A    between atoms: C_3  and  C_17
    3  A    between atoms: C_12  and  C_28
                            x       y       z     vdW  Elec       q    Type
                         _______ _______ _______ _____ _____    ______ ____

>  <TORSDO>
F 3

$$$$
=
 OpenBabel10252415063D

 34 39  0  0  1  0  0  0  0  0999 V2000
  184.8960  178.9880  140.7670 C   0  0  0  0  0  0  0  0  0  0  0  0
  186.0960  177.8780  142.5850 C   0  0  0  0  0  0  0  0  0  0  0  0
  187.2750  178.3340  140.4700 N   0  0  0  0  0  0  0  0  0  0  0  0
  190.5880  177.2800  139.2410 C   0  0  0  0  0  3  0  0  0  0  0  0
  183.7700  178.5880  142.9600 C   0  0  0  0  0  3  0  0  0  0  0  0
  184.8650  177.9560  143.3930 C   0  0  0  0  0  3  0  0  0  0  0  0
  189.4360  178.2560  141.7780 C   0  0  0  0  0  2  0  0  0  0  0  0
  186.1270  178.3910  141.3400 C   0  0  1  0  0  3  0  0  0  0  0  0
  191.6280  177.5430  142.7310 C   0  0  0  0  0  3  0  0  0  0  0  0
  191.3190  177.1310  140.3560 C   0  0  0  0  0  3  0  0  0  0  0  0
  183.7170  179.3060  141.6390 C   0  0  0  0  0  3  0  0  0  0  0  0
  187.0950  178.5540  139.0730 C   0  0  0  0  0  0  0  0  0  0  0  0
  184.8530  179.2740  139.4580 C   0  0  0  0  0  3  0  0  0  0  0  0
  187.1940  177.2280  143.1330 O   0  0  0  0  0  1  0  0  0  0  0  0
  189.3080  178.0410  139.3660 C   0  0  1  0  0  3  0  0  0  0  0  0
  188.2780  178.1730  138.2470 C   0  0  1  0  0  3  0  0  0  0  0  0
  190.8250  177.6360  141.6710 C   0  0  0  0  0  0  0  0  0  0  0  0
  188.5710  177.7000  140.6510 C   0  0  2  0  0  3  0  0  0  0  0  0
  185.9710  178.9960  138.5930 N   0  0  0  0  0  0  0  0  0  0  0  0
  187.6790  174.4760  136.1180 C   0  0  0  0  0  3  0  0  0  0  0  0
  186.7950  174.8300  137.1400 C   0  0  0  0  0  0  0  0  0  0  0  0
  188.0450  176.8780  137.5150 C   0  0  0  0  0  0  0  0  0  0  0  0
  188.7460  175.3190  135.7940 C   0  0  0  0  0  3  0  0  0  0  0  0
  186.9760  176.0260  137.8380 C   0  0  0  0  0  3  0  0  0  0  0  0
  188.9280  176.5160  136.4920 C   0  0  0  0  0  3  0  0  0  0  0  0
  185.7610  174.0120  137.4540 F   0  0  0  0  0  0  0  0  0  0  0  0
  191.2550  178.0260  144.0990 C   0  0  0  0  0  2  0  0  0  0  0  0
  188.8760  178.0890  146.3400 O   0  0  0  0  0  0  0  0  0  0  0  0
  190.3370  177.0330  144.8080 C   0  0  2  0  0  3  0  0  0  0  0  0
  189.9480  177.5330  146.1740 C   0  0  0  0  0  0  0  0  0  0  0  0
  191.5130  176.0050  147.3420 C   0  0  0  0  0  2  0  0  0  0  0  0
  192.1080  175.6480  145.9830 C   0  0  0  0  0  2  0  0  0  0  0  0
  191.0130  175.6630  144.9130 C   0  0  0  0  0  2  0  0  0  0  0  0
  190.9150  177.4090  147.3140 C   0  0  0  0  0  2  0  0  0  0  0  0
  1 11  1  0  0  0  0
  2 14  1  0  0  0  0
  2  6  2  0  0  0  0
  3 18  1  0  0  0  0
  3  8  1  0  0  0  0
  4 10  2  0  0  0  0
  5  6  1  0  0  0  0
  8  1  1  6  0  0  0
  8  2  1  0  0  0  0
  9 27  1  0  0  0  0
 10 17  1  0  0  0  0
 11  5  2  0  0  0  0
 12  3  1  0  0  0  0
 13  1  2  0  0  0  0
 15  4  1  6  0  0  0
 15 18  1  0  0  0  0
 16 22  1  1  0  0  0
 16 12  1  0  0  0  0
 16 15  1  0  0  0  0
 17  7  1  0  0  0  0
 17  9  2  0  0  0  0
 18  7  1  1  0  0  0
 19 12  2  0  0  0  0
 19 13  1  0  0  0  0
 20 21  1  0  0  0  0
 21 26  1  0  0  0  0
 21 24  2  0  0  0  0
 22 24  1  0  0  0  0
 23 20  2  0  0  0  0
 23 25  1  0  0  0  0
 25 22  2  0  0  0  0
 29 27  1  1  0  0  0
 29 33  1  0  0  0  0
 29 30  1  0  0  0  0
 30 28  2  0  0  0  0
 30 34  1  0  0  0  0
 32 31  1  0  0  0  0
 33 32  1  0  0  0  0
 34 31  1  0  0  0  0
M  END
>  <MODEL>
4

>  <REMARK>
 VINA RESULT:      -8.4      1.742      2.251
  Name = 
  3 active torsions:
  status: ('A' for Active; 'I' for Inactive)
    1  A    between atoms: C_3  and  C_13
    2  A    between atoms: C_3  and  C_17
    3  A    between atoms: C_12  and  C_28
                            x       y       z     vdW  Elec       q    Type
                         _______ _______ _______ _____ _____    ______ ____

>  <TORSDO>
F 3

$$$$
=
 OpenBabel10252415063D

 34 39  0  0  1  0  0  0  0  0999 V2000
  188.1800  178.1310  140.7480 C   0  0  0  0  0  0  0  0  0  0  0  0
  190.0060  176.5870  140.2380 C   0  0  0  0  0  0  0  0  0  0  0  0
  188.5160  177.3270  138.4210 N   0  0  0  0  0  0  0  0  0  0  0  0
  188.1980  176.2240  134.9170 C   0  0  0  0  0  3  0  0  0  0  0  0
  189.7700  177.4250  142.5400 C   0  0  0  0  0  3  0  0  0  0  0  0
  190.3820  176.6230  141.6630 C   0  0  0  0  0  3  0  0  0  0  0  0
  190.3900  176.8000  136.8100 C   0  0  0  0  0  2  0  0  0  0  0  0
  188.9710  177.3230  139.7880 C   0  0  1  0  0  3  0  0  0  0  0  0
  191.8110  175.7170  135.0690 C   0  0  0  0  0  3  0  0  0  0  0  0
  189.4290  175.7970  134.5950 C   0  0  0  0  0  3  0  0  0  0  0  0
  188.6820  178.3840  142.1390 C   0  0  0  0  0  3  0  0  0  0  0  0
  187.2120  177.8270  138.1280 C   0  0  0  0  0  0  0  0  0  0  0  0
  187.0160  178.6650  140.3530 C   0  0  0  0  0  3  0  0  0  0  0  0
  190.7210  175.7450  139.3980 O   0  0  0  0  0  1  0  0  0  0  0  0
  188.0720  177.0630  136.1470 C   0  0  1  0  0  3  0  0  0  0  0  0
  186.7410  177.5020  136.7500 C   0  0  1  0  0  3  0  0  0  0  0  0
  190.5970  176.0850  135.4790 C   0  0  0  0  0  0  0  0  0  0  0  0
  188.9570  176.5530  137.2720 C   0  0  2  0  0  3  0  0  0  0  0  0
  186.5080  178.4550  139.0210 N   0  0  0  0  0  0  0  0  0  0  0  0
  183.7680  174.3840  136.7400 C   0  0  0  0  0  3  0  0  0  0  0  0
  184.9850  174.1680  137.3910 C   0  0  0  0  0  0  0  0  0  0  0  0
  185.7170  176.3980  136.7640 C   0  0  0  0  0  0  0  0  0  0  0  0
  183.5230  175.6020  136.1010 C   0  0  0  0  0  3  0  0  0  0  0  0
  185.9580  175.1710  137.4040 C   0  0  0  0  0  3  0  0  0  0  0  0
  184.4960  176.6060  136.1130 C   0  0  0  0  0  3  0  0  0  0  0  0
  185.2230  172.9870  138.0100 F   0  0  0  0  0  0  0  0  0  0  0  0
  193.0620  175.9610  135.8570 C   0  0  0  0  0  2  0  0  0  0  0  0
  194.7990  175.3640  138.5610 O   0  0  0  0  0  0  0  0  0  0  0  0
  193.3990  174.7690  136.7500 C   0  0  2  0  0  3  0  0  0  0  0  0
  194.7370  174.9510  137.4150 C   0  0  0  0  0  0  0  0  0  0  0  0
  195.8810  173.3690  135.8870 C   0  0  0  0  0  2  0  0  0  0  0  0
  194.6130  173.3440  135.0370 C   0  0  0  0  0  2  0  0  0  0  0  0
  193.3800  173.4720  135.9350 C   0  0  0  0  0  2  0  0  0  0  0  0
  195.9950  174.6910  136.6410 C   0  0  0  0  0  2  0  0  0  0  0  0
  1 11  1  0  0  0  0
  2  6  2  0  0  0  0
  3  8  1  0  0  0  0
  6  5  1  0  0  0  0
  8  2  1  1  0  0  0
  8  1  1  0  0  0  0
  9 17  2  0  0  0  0
  9 27  1  0  0  0  0
 10  4  2  0  0  0  0
 10 17  1  0  0  0  0
 11  5  2  0  0  0  0
 12  3  1  0  0  0  0
 12 19  2  0  0  0  0
 13  1  2  0  0  0  0
 14  2  1  0  0  0  0
 15  4  1  6  0  0  0
 15 16  1  0  0  0  0
 15 18  1  0  0  0  0
 16 22  1  1  0  0  0
 16 12  1  0  0  0  0
 17  7  1  0  0  0  0
 18  7  1  6  0  0  0
 18  3  1  0  0  0  0
 19 13  1  0  0  0  0
 20 21  1  0  0  0  0
 21 24  2  0  0  0  0
 21 26  1  0  0  0  0
 22 24  1  0  0  0  0
 23 25  1  0  0  0  0
 23 20  2  0  0  0  0
 25 22  2  0  0  0  0
 29 27  1  6  0  0  0
 29 30  1  0  0  0  0
 30 28  2  0  0  0  0
 31 34  1  0  0  0  0
 32 31  1  0  0  0  0
 32 33  1  0  0  0  0
 33 29  1  0  0  0  0
 34 30  1  0  0  0  0
M  END
>  <MODEL>
5

>  <REMARK>
 VINA RESULT:      -7.7      3.607      7.722
  Name = 
  3 active torsions:
  status: ('A' for Active; 'I' for Inactive)
    1  A    between atoms: C_3  and  C_13
    2  A    between atoms: C_3  and  C_17
    3  A    between atoms: C_12  and  C_28
                            x       y       z     vdW  Elec       q    Type
                         _______ _______ _______ _____ _____    ______ ____

>  <TORSDO>
F 3

$$$$
=
 OpenBabel10252415063D

 34 39  0  0  1  0  0  0  0  0999 V2000
  183.8280  178.9470  143.9300 C   0  0  0  0  0  0  0  0  0  0  0  0
  185.9580  177.8420  143.4640 C   0  0  0  0  0  0  0  0  0  0  0  0
  184.5490  178.5740  141.5810 N   0  0  0  0  0  0  0  0  0  0  0  0
  184.8090  177.9740  137.9520 C   0  0  0  0  0  3  0  0  0  0  0  0
  185.3320  178.2690  145.8040 C   0  0  0  0  0  3  0  0  0  0  0  0
  186.1730  177.7280  144.9180 C   0  0  0  0  0  3  0  0  0  0  0  0
  186.6440  178.6320  140.1700 C   0  0  0  0  0  2  0  0  0  0  0  0
  184.8540  178.4450  142.9830 C   0  0  1  0  0  3  0  0  0  0  0  0
  188.4170  178.0900  138.5010 C   0  0  0  0  0  3  0  0  0  0  0  0
  186.1260  177.8220  137.7390 C   0  0  0  0  0  3  0  0  0  0  0  0
  184.1270  179.0720  145.3940 C   0  0  0  0  0  3  0  0  0  0  0  0
  183.2110  178.8760  141.1900 C   0  0  0  0  0  0  0  0  0  0  0  0
  182.6300  179.3220  143.4600 C   0  0  0  0  0  3  0  0  0  0  0  0
  186.9040  177.2740  142.6210 O   0  0  0  0  0  1  0  0  0  0  0  0
  184.4000  178.5830  139.2540 C   0  0  1  0  0  3  0  0  0  0  0  0
  182.9540  178.6850  139.7320 C   0  0  1  0  0  3  0  0  0  0  0  0
  187.1200  178.1740  138.7960 C   0  0  0  0  0  0  0  0  0  0  0  0
  185.2460  178.0720  140.4080 C   0  0  2  0  0  3  0  0  0  0  0  0
  182.3110  179.2300  142.0580 N   0  0  0  0  0  0  0  0  0  0  0  0
  180.6380  175.1210  139.0310 C   0  0  0  0  0  3  0  0  0  0  0  0
  181.8050  175.3370  138.2930 C   0  0  0  0  0  0  0  0  0  0  0  0
  182.1640  177.4300  139.4720 C   0  0  0  0  0  0  0  0  0  0  0  0
  180.2320  176.0560  139.9860 C   0  0  0  0  0  3  0  0  0  0  0  0
  182.5670  176.4870  138.5120 C   0  0  0  0  0  3  0  0  0  0  0  0
  180.9940  177.2090  140.2050 C   0  0  0  0  0  3  0  0  0  0  0  0
  182.1980  174.4290  137.3670 F   0  0  0  0  0  0  0  0  0  0  0  0
  189.5100  178.4280  139.4680 C   0  0  0  0  0  2  0  0  0  0  0  0
  191.2400  177.5850  142.1110 O   0  0  0  0  0  0  0  0  0  0  0  0
  190.1400  177.1690  140.0590 C   0  0  2  0  0  3  0  0  0  0  0  0
  191.3430  177.5060  140.8990 C   0  0  0  0  0  0  0  0  0  0  0  0
  192.9510  176.7730  139.1590 C   0  0  0  0  0  2  0  0  0  0  0  0
  191.7770  176.6500  138.1910 C   0  0  0  0  0  2  0  0  0  0  0  0
  190.5250  176.1920  138.9430 C   0  0  0  0  0  2  0  0  0  0  0  0
  192.6520  177.8150  140.2350 C   0  0  0  0  0  2  0  0  0  0  0  0
  1 11  1  0  0  0  0
  2  6  2  0  0  0  0
  3  8  1  0  0  0  0
  6  5  1  0  0  0  0
  8  2  1  1  0  0  0
  8  1  1  0  0  0  0
  9 17  2  0  0  0  0
  9 27  1  0  0  0  0
 10  4  2  0  0  0  0
 10 17  1  0  0  0  0
 11  5  2  0  0  0  0
 12  3  1  0  0  0  0
 12 19  2  0  0  0  0
 13  1  2  0  0  0  0
 14  2  1  0  0  0  0
 15  4  1  6  0  0  0
 15 16  1  0  0  0  0
 15 18  1  0  0  0  0
 16 22  1  1  0  0  0
 16 12  1  0  0  0  0
 17  7  1  0  0  0  0
 18  7  1  6  0  0  0
 18  3  1  0  0  0  0
 19 13  1  0  0  0  0
 20 23  1  0  0  0  0
 21 24  1  0  0  0  0
 21 20  2  0  0  0  0
 22 25  1  0  0  0  0
 23 25  2  0  0  0  0
 24 22  2  0  0  0  0
 26 21  1  0  0  0  0
 29 27  1  6  0  0  0
 29 30  1  0  0  0  0
 30 28  2  0  0  0  0
 31 34  1  0  0  0  0
 32 33  1  0  0  0  0
 32 31  1  0  0  0  0
 33 29  1  0  0  0  0
 34 30  1  0  0  0  0
M  END
>  <MODEL>
6

>  <REMARK>
 VINA RESULT:      -7.7      2.955      6.494
  Name = 
  3 active torsions:
  status: ('A' for Active; 'I' for Inactive)
    1  A    between atoms: C_3  and  C_13
    2  A    between atoms: C_3  and  C_17
    3  A    between atoms: C_12  and  C_28
                            x       y       z     vdW  Elec       q    Type
                         _______ _______ _______ _____ _____    ______ ____

>  <TORSDO>
F 3

$$$$
=
 OpenBabel10252415063D

 34 39  0  0  1  0  0  0  0  0999 V2000
  187.8330  178.1410  137.0230 C   0  0  0  0  0  0  0  0  0  0  0  0
  185.6370  177.1480  137.4350 C   0  0  0  0  0  0  0  0  0  0  0  0
  186.7590  178.3780  139.2510 N   0  0  0  0  0  0  0  0  0  0  0  0
  185.9430  178.7390  142.8280 C   0  0  0  0  0  3  0  0  0  0  0  0
  186.6180  176.9640  135.1860 C   0  0  0  0  0  3  0  0  0  0  0  0
  185.6430  176.6540  136.0460 C   0  0  0  0  0  3  0  0  0  0  0  0
  184.4760  178.7550  140.2660 C   0  0  0  0  0  2  0  0  0  0  0  0
  186.6670  177.8800  137.9020 C   0  0  0  0  0  0  0  0  0  0  0  0
  182.4620  178.6280  141.7320 C   0  0  0  0  0  3  0  0  0  0  0  0
  184.6070  178.6190  142.8730 C   0  0  0  0  0  3  0  0  0  0  0  0
  187.7610  177.8730  135.5490 C   0  0  0  0  0  2  0  0  0  0  0  0
  188.0280  178.8010  139.7470 C   0  0  0  0  0  0  0  0  0  0  0  0
  188.9530  178.6520  137.5530 C   0  0  0  0  0  3  0  0  0  0  0  0
  184.5660  176.7990  138.2450 O   0  0  0  0  0  1  0  0  0  0  0  0
  186.5550  178.9960  141.4900 C   0  0  1  0  0  3  0  0  0  0  0  0
  188.0580  179.0030  141.2250 C   0  0  1  0  0  3  0  0  0  0  0  0
  183.7900  178.6610  141.6250 C   0  0  0  0  0  0  0  0  0  0  0  0
  185.8840  178.1830  140.3950 C   0  0  2  0  0  3  0  0  0  0  0  0
  189.0550  178.9360  138.9610 N   0  0  0  0  0  0  0  0  0  0  0  0
  190.0480  175.7460  143.2240 C   0  0  0  0  0  3  0  0  0  0  0  0
  190.8110  176.7240  142.5810 C   0  0  0  0  0  0  0  0  0  0  0  0
  188.7770  177.8770  141.9200 C   0  0  0  0  0  0  0  0  0  0  0  0
  188.6530  175.8300  143.2160 C   0  0  0  0  0  3  0  0  0  0  0  0
  190.1790  177.7870  141.9300 C   0  0  0  0  0  3  0  0  0  0  0  0
  188.0200  176.8930  142.5640 C   0  0  0  0  0  3  0  0  0  0  0  0
  192.1630  176.6430  142.5880 F   0  0  0  0  0  0  0  0  0  0  0  0
  181.5340  178.6770  140.5570 C   0  0  0  0  0  2  0  0  0  0  0  0
  181.9510  175.5190  139.8230 O   0  0  0  0  0  0  0  0  0  0  0  0
  180.6850  177.4110  140.4640 C   0  0  2  0  0  3  0  0  0  0  0  0
  181.2540  176.4490  139.4560 C   0  0  0  0  0  0  0  0  0  0  0  0
  179.5480  177.0020  137.7430 C   0  0  0  0  0  2  0  0  0  0  0  0
  179.0930  178.1540  138.6340 C   0  0  0  0  0  2  0  0  0  0  0  0
  179.2380  177.7650  140.1070 C   0  0  0  0  0  2  0  0  0  0  0  0
  181.0190  176.6790  137.9920 C   0  0  0  0  0  2  0  0  0  0  0  0
  1 13  2  0  0  0  0
  1  8  1  0  0  0  0
  2  8  2  0  0  0  0
  2 14  1  0  0  0  0
  3 12  1  0  0  0  0
  3 18  1  0  0  0  0
  4 10  2  0  0  0  0
  5 11  1  0  0  0  0
  5  6  2  0  0  0  0
  6  2  1  0  0  0  0
  7 17  1  0  0  0  0
  8  3  1  0  0  0  0
 11  1  1  0  0  0  0
 12 16  1  0  0  0  0
 13 19  1  0  0  0  0
 15  4  1  1  0  0  0
 16 15  1  0  0  0  0
 16 22  1  1  0  0  0
 17  9  2  0  0  0  0
 17 10  1  0  0  0  0
 18  7  1  6  0  0  0
 18 15  1  0  0  0  0
 19 12  2  0  0  0  0
 21 26  1  0  0  0  0
 21 20  2  0  0  0  0
 22 24  2  0  0  0  0
 22 25  1  0  0  0  0
 23 20  1  0  0  0  0
 24 21  1  0  0  0  0
 25 23  2  0  0  0  0
 27  9  1  0  0  0  0
 29 27  1  6  0  0  0
 30 28  2  0  0  0  0
 30 29  1  0  0  0  0
 31 34  1  0  0  0  0
 31 32  1  0  0  0  0
 32 33  1  0  0  0  0
 33 29  1  0  0  0  0
 34 30  1  0  0  0  0
M  END
>  <MODEL>
7

>  <REMARK>
 VINA RESULT:      -7.6      3.253      7.082
  Name = 
  3 active torsions:
  status: ('A' for Active; 'I' for Inactive)
    1  A    between atoms: C_3  and  C_13
    2  A    between atoms: C_3  and  C_17
    3  A    between atoms: C_12  and  C_28
                            x       y       z     vdW  Elec       q    Type
                         _______ _______ _______ _____ _____    ______ ____

>  <TORSDO>
F 3

$$$$
=
 OpenBabel10252415063D

 34 39  0  0  1  0  0  0  0  0999 V2000
  192.2350  174.7860  137.1070 C   0  0  0  0  0  0  0  0  0  0  0  0
  189.9610  174.0090  136.6560 C   0  0  0  0  0  0  0  0  0  0  0  0
  190.2880  176.1110  137.8990 N   0  0  0  0  0  0  0  0  0  0  0  0
  187.9090  178.2920  139.6820 C   0  0  0  0  0  3  0  0  0  0  0  0
  191.8550  172.7100  135.7720 C   0  0  0  0  0  3  0  0  0  0  0  0
  190.5390  172.8420  135.9640 C   0  0  0  0  0  3  0  0  0  0  0  0
  187.9790  176.8000  137.1350 C   0  0  0  0  0  2  0  0  0  0  0  0
  190.7630  174.9550  137.1820 C   0  0  0  0  0  0  0  0  0  0  0  0
  185.5440  177.3330  137.0710 C   0  0  0  0  0  3  0  0  0  0  0  0
  186.7490  178.1120  139.0320 C   0  0  0  0  0  3  0  0  0  0  0  0
  192.8470  173.7560  136.2040 C   0  0  0  0  0  2  0  0  0  0  0  0
  191.1970  176.8320  138.7280 C   0  0  0  0  0  0  0  0  0  0  0  0
  193.0250  175.5880  137.8340 C   0  0  0  0  0  3  0  0  0  0  0  0
  188.5800  174.0740  136.7790 O   0  0  0  0  0  1  0  0  0  0  0  0
  189.1510  177.8270  138.9930 C   0  0  1  0  0  3  0  0  0  0  0  0
  190.5320  177.8060  139.6420 C   0  0  1  0  0  3  0  0  0  0  0  0
  186.7070  177.4050  137.7180 C   0  0  0  0  0  0  0  0  0  0  0  0
  188.9410  176.5010  138.2820 C   0  0  2  0  0  3  0  0  0  0  0  0
  192.4750  176.5980  138.7000 N   0  0  0  0  0  0  0  0  0  0  0  0
  190.5100  176.3870  143.7100 C   0  0  0  0  0  3  0  0  0  0  0  0
  189.3670  176.2290  142.9220 C   0  0  0  0  0  0  0  0  0  0  0  0
  190.5010  177.2980  141.0590 C   0  0  0  0  0  0  0  0  0  0  0  0
  191.6470  177.0000  143.1770 C   0  0  0  0  0  3  0  0  0  0  0  0
  189.3600  176.6820  141.6010 C   0  0  0  0  0  3  0  0  0  0  0  0
  191.6410  177.4550  141.8550 C   0  0  0  0  0  3  0  0  0  0  0  0
  188.2650  175.6340  143.4400 F   0  0  0  0  0  0  0  0  0  0  0  0
  185.3740  176.6640  135.7420 C   0  0  0  0  0  2  0  0  0  0  0  0
  183.4410  175.2530  137.9680 O   0  0  0  0  0  0  0  0  0  0  0  0
  184.2590  175.6220  135.7800 C   0  0  2  0  0  3  0  0  0  0  0  0
  184.2280  174.9070  137.1050 C   0  0  0  0  0  0  0  0  0  0  0  0
  185.2940  172.8610  136.1940 C   0  0  0  0  0  2  0  0  0  0  0  0
  185.5660  173.6320  134.9050 C   0  0  0  0  0  2  0  0  0  0  0  0
  184.4270  174.6190  134.6350 C   0  0  0  0  0  2  0  0  0  0  0  0
  185.2180  173.8150  137.3840 C   0  0  0  0  0  2  0  0  0  0  0  0
  1  8  1  0  0  0  0
  1 13  2  0  0  0  0
  2 14  1  0  0  0  0
  2  8  2  0  0  0  0
  3 18  1  0  0  0  0
  3 12  1  0  0  0  0
  5  6  2  0  0  0  0
  5 11  1  0  0  0  0
  6  2  1  0  0  0  0
  7 17  1  0  0  0  0
  8  3  1  0  0  0  0
  9 17  2  0  0  0  0
 10  4  2  0  0  0  0
 11  1  1  0  0  0  0
 12 16  1  0  0  0  0
 13 19  1  0  0  0  0
 15 16  1  0  0  0  0
 15  4  1  1  0  0  0
 16 22  1  1  0  0  0
 17 10  1  0  0  0  0
 18  7  1  6  0  0  0
 18 15  1  0  0  0  0
 19 12  2  0  0  0  0
 21 26  1  0  0  0  0
 21 20  2  0  0  0  0
 22 24  2  0  0  0  0
 22 25  1  0  0  0  0
 23 20  1  0  0  0  0
 24 21  1  0  0  0  0
 25 23  2  0  0  0  0
 27  9  1  0  0  0  0
 29 27  1  1  0  0  0
 29 30  1  0  0  0  0
 30 34  1  0  0  0  0
 30 28  2  0  0  0  0
 31 34  1  0  0  0  0
 32 31  1  0  0  0  0
 33 32  1  0  0  0  0
 33 29  1  0  0  0  0
M  END
>  <MODEL>
8

>  <REMARK>
 VINA RESULT:      -7.6      3.554      8.359
  Name = 
  3 active torsions:
  status: ('A' for Active; 'I' for Inactive)
    1  A    between atoms: C_3  and  C_13
    2  A    between atoms: C_3  and  C_17
    3  A    between atoms: C_12  and  C_28
                            x       y       z     vdW  Elec       q    Type
                         _______ _______ _______ _____ _____    ______ ____

>  <TORSDO>
F 3

$$$$
=
 OpenBabel10252415063D

 34 39  0  0  1  0  0  0  0  0999 V2000
  183.2930  179.2650  141.3970 C   0  0  0  0  0  0  0  0  0  0  0  0
  184.9670  178.1510  142.7860 C   0  0  0  0  0  0  0  0  0  0  0  0
  185.4660  178.5730  140.4110 N   0  0  0  0  0  0  0  0  0  0  0  0
  188.2480  177.4620  138.2620 C   0  0  0  0  0  3  0  0  0  0  0  0
  182.8680  178.8970  143.8300 C   0  0  0  0  0  3  0  0  0  0  0  0
  184.0340  178.2530  143.9240 C   0  0  0  0  0  3  0  0  0  0  0  0
  187.9180  178.4730  141.0160 C   0  0  0  0  0  2  0  0  0  0  0  0
  184.6310  178.6540  141.5830 C   0  0  1  0  0  3  0  0  0  0  0  0
  190.2860  177.7350  141.2790 C   0  0  0  0  0  3  0  0  0  0  0  0
  189.2770  177.3100  139.1100 C   0  0  0  0  0  3  0  0  0  0  0  0
  182.4310  179.6070  142.5760 C   0  0  0  0  0  3  0  0  0  0  0  0
  184.8800  178.7860  139.1280 C   0  0  0  0  0  0  0  0  0  0  0  0
  182.8650  179.5420  140.1570 C   0  0  0  0  0  3  0  0  0  0  0  0
  186.1700  177.4880  142.9890 O   0  0  0  0  0  1  0  0  0  0  0  0
  187.0730  178.2430  138.7550 C   0  0  1  0  0  3  0  0  0  0  0  0
  185.7590  178.3820  137.9920 C   0  0  1  0  0  3  0  0  0  0  0  0
  189.2040  177.8320  140.5060 C   0  0  0  0  0  0  0  0  0  0  0  0
  186.7490  177.9220  140.2040 C   0  0  2  0  0  3  0  0  0  0  0  0
  183.6690  179.2420  139.0010 N   0  0  0  0  0  0  0  0  0  0  0  0
  184.5170  174.6710  136.1910 C   0  0  0  0  0  3  0  0  0  0  0  0
  183.8030  175.1770  137.2800 C   0  0  0  0  0  0  0  0  0  0  0  0
  185.3020  177.0850  137.3780 C   0  0  0  0  0  0  0  0  0  0  0  0
  185.6220  175.3670  135.6950 C   0  0  0  0  0  3  0  0  0  0  0  0
  184.1930  176.3800  137.8730 C   0  0  0  0  0  3  0  0  0  0  0  0
  186.0140  176.5710  136.2880 C   0  0  0  0  0  3  0  0  0  0  0  0
  182.7310  174.5020  137.7610 F   0  0  0  0  0  0  0  0  0  0  0  0
  190.3440  178.2330  142.6910 C   0  0  0  0  0  2  0  0  0  0  0  0
  189.0170  178.2680  145.6780 O   0  0  0  0  0  0  0  0  0  0  0  0
  189.6950  177.2440  143.6570 C   0  0  2  0  0  3  0  0  0  0  0  0
  189.8990  177.6690  145.0870 C   0  0  0  0  0  0  0  0  0  0  0  0
  191.6720  175.9830  145.4920 C   0  0  0  0  0  2  0  0  0  0  0  0
  191.6720  175.6890  143.9950 C   0  0  0  0  0  2  0  0  0  0  0  0
  190.2550  175.8360  143.4330 C   0  0  0  0  0  2  0  0  0  0  0  0
  191.2160  177.4160  145.7580 C   0  0  0  0  0  2  0  0  0  0  0  0
  1 11  1  0  0  0  0
  2 14  1  0  0  0  0
  2  6  2  0  0  0  0
  3  8  1  0  0  0  0
  4 10  2  0  0  0  0
  5  6  1  0  0  0  0
  8  1  1  6  0  0  0
  8  2  1  0  0  0  0
  9 27  1  0  0  0  0
 10 17  1  0  0  0  0
 11  5  2  0  0  0  0
 12  3  1  0  0  0  0
 13  1  2  0  0  0  0
 15  4  1  6  0  0  0
 15 18  1  0  0  0  0
 16 22  1  1  0  0  0
 16 15  1  0  0  0  0
 16 12  1  0  0  0  0
 17  7  1  0  0  0  0
 17  9  2  0  0  0  0
 18  3  1  0  0  0  0
 18  7  1  1  0  0  0
 19 12  2  0  0  0  0
 19 13  1  0  0  0  0
 20 21  1  0  0  0  0
 21 26  1  0  0  0  0
 21 24  2  0  0  0  0
 22 24  1  0  0  0  0
 23 20  2  0  0  0  0
 23 25  1  0  0  0  0
 25 22  2  0  0  0  0
 29 27  1  6  0  0  0
 29 30  1  0  0  0  0
 30 28  2  0  0  0  0
 30 34  1  0  0  0  0
 31 34  1  0  0  0  0
 32 31  1  0  0  0  0
 33 29  1  0  0  0  0
 33 32  1  0  0  0  0
M  END
>  <MODEL>
9

>  <REMARK>
 VINA RESULT:      -7.5      2.460      3.611
  Name = 
  3 active torsions:
  status: ('A' for Active; 'I' for Inactive)
    1  A    between atoms: C_3  and  C_13
    2  A    between atoms: C_3  and  C_17
    3  A    between atoms: C_12  and  C_28
                            x       y       z     vdW  Elec       q    Type
                         _______ _______ _______ _____ _____    ______ ____

>  <TORSDO>
F 3

$$$$
