=
 OpenBabel10262421163D

 32 36  0  0  1  0  0  0  0  0999 V2000
  188.5100  176.4080  142.5870 C   0  0  0  0  0  2  0  0  0  0  0  0
  186.5230  178.6450  140.6140 C   0  0  1  0  0  3  0  0  0  0  0  0
  189.7100  177.1920  142.0500 C   0  0  0  0  0  2  0  0  0  0  0  0
  187.6450  177.8550  140.4030 O   0  0  0  0  0  0  0  0  0  0  0  0
  185.5250  178.3570  139.4730 C   0  0  2  0  0  0  0  0  0  0  0  0
  186.0550  178.3820  142.0510 C   0  0  1  0  0  3  0  0  0  0  0  0
  186.1530  178.0040  138.1540 C   0  0  1  0  0  0  0  0  0  0  0  0
  188.3480  178.4240  139.3500 C   0  0  2  0  0  3  0  0  0  0  0  0
  187.6960  177.9740  138.0390 C   0  0  0  0  0  2  0  0  0  0  0  0
  189.8340  178.0650  139.4590 C   0  0  0  0  0  2  0  0  0  0  0  0
  187.2050  178.5240  142.9530 N   0  0  0  0  0  2  0  0  0  0  0  0
  185.3310  177.3130  137.0810 C   0  0  0  0  0  1  0  0  0  0  0  0
  187.5710  177.2170  143.5030 C   0  0  2  0  0  3  0  0  0  0  0  0
  185.6550  179.2960  138.4230 O   0  0  0  0  0  0  0  0  0  0  0  0
  190.1770  176.5230  140.4070 S   0  0  0  0  0  0  0  0  0  0  0  0
  189.4970  178.2640  148.6870 F   0  0  0  0  0  0  0  0  0  0  0  0
  189.9870  177.4130  146.5120 C   0  0  0  0  0  2  0  0  0  0  0  0
  188.1160  177.3620  144.8940 C   0  0  0  0  0  0  0  0  0  0  0  0
  187.6710  178.0310  147.2050 C   0  0  0  0  0  3  0  0  0  0  0  0
  189.4380  177.3200  145.1150 C   0  0  0  0  0  3  0  0  0  0  0  0
  187.1890  177.6070  146.0300 C   0  0  0  0  0  0  0  0  0  0  0  0
  189.1310  178.3560  147.3590 C   0  0  1  0  0  3  0  0  0  0  0  0
  185.7230  177.3460  145.9000 C   0  0  0  0  0  2  0  0  0  0  0  0
  184.9600  177.9280  147.0790 C   0  0  0  0  0  2  0  0  0  0  0  0
  185.2810  179.2760  147.2410 O   0  0  0  0  0  1  0  0  0  0  0  0
  183.9060  179.5690  144.5890 C   0  0  0  0  0  2  0  0  0  0  0  0
  183.6160  178.5920  142.6040 C   0  0  0  0  0  2  0  0  0  0  0  0
  184.9270  179.3360  142.4650 C   0  0  1  0  0  3  0  0  0  0  0  0
  183.3240  178.4520  143.9690 O   0  0  0  0  0  0  0  0  0  0  0  0
  185.1530  179.9410  143.8240 C   0  0  0  0  0  2  0  0  0  0  0  0
  183.2080  178.9610  139.3200 O   0  0  0  0  0  1  0  0  0  0  0  0
  184.0760  177.9440  139.7200 C   0  0  0  0  0  2  0  0  0  0  0  0
  1 13  1  0  0  0  0
  2  4  1  6  0  0  0
  2  6  1  0  0  0  0
  3  1  1  0  0  0  0
  5 32  1  1  0  0  0
  5  2  1  0  0  0  0
  6 28  1  0  0  0  0
  6 11  1  1  0  0  0
  7 12  1  6  0  0  0
  7 14  1  0  0  0  0
  7  5  1  0  0  0  0
  8  9  1  6  0  0  0
  8 10  1  0  0  0  0
  8  4  1  0  0  0  0
  9  7  1  0  0  0  0
 10 15  1  0  0  0  0
 11 13  1  0  0  0  0
 13 18  1  1  0  0  0
 14  5  1  0  0  0  0
 15  3  1  0  0  0  0
 17 22  1  0  0  0  0
 18 20  2  0  0  0  0
 18 21  1  0  0  0  0
 19 22  1  0  0  0  0
 20 17  1  0  0  0  0
 21 19  2  0  0  0  0
 22 16  1  1  0  0  0
 23 21  1  0  0  0  0
 23 24  1  0  0  0  0
 24 25  1  0  0  0  0
 27 29  1  0  0  0  0
 28 27  1  1  0  0  0
 28 30  1  0  0  0  0
 29 26  1  0  0  0  0
 30 26  1  0  0  0  0
 31 32  1  0  0  0  0
M  END
>  <MODEL>
1

>  <REMARK>
 VINA RESULT:      -8.2      0.000      0.000
  Name = 
  5 active torsions:
  status: ('A' for Active; 'I' for Inactive)
    1  A    between atoms: C_3  and  C_23
    2  A    between atoms: C_6  and  C_17
    3  A    between atoms: C_10  and  C_28
    4  A    between atoms: C_16  and  C_27
    5  A    between atoms: C_22  and  C_23
                            x       y       z     vdW  Elec       q    Type
                         _______ _______ _______ _____ _____    ______ ____

>  <TORSDO>
F 5

$$$$
=
 OpenBabel10262421163D

 32 36  0  0  1  0  0  0  0  0999 V2000
  188.2250  176.6190  142.8920 C   0  0  0  0  0  2  0  0  0  0  0  0
  186.2520  178.6390  140.6840 C   0  0  1  0  0  3  0  0  0  0  0  0
  189.4010  177.4930  142.4480 C   0  0  0  0  0  2  0  0  0  0  0  0
  187.4520  177.9450  140.6000 O   0  0  0  0  0  0  0  0  0  0  0  0
  185.3950  178.2440  139.4630 C   0  0  2  0  0  0  0  0  0  0  0  0
  185.6740  178.3630  142.0780 C   0  0  1  0  0  3  0  0  0  0  0  0
  186.1730  177.9230  138.2180 C   0  0  1  0  0  0  0  0  0  0  0  0
  188.2020  178.5530  139.6010 C   0  0  2  0  0  3  0  0  0  0  0  0
  187.7170  178.0240  138.2480 C   0  0  0  0  0  2  0  0  0  0  0  0
  189.6950  178.3260  139.8570 C   0  0  0  0  0  2  0  0  0  0  0  0
  186.7170  178.6200  143.0780 N   0  0  0  0  0  2  0  0  0  0  0  0
  185.5180  177.1430  137.0920 C   0  0  0  0  0  1  0  0  0  0  0  0
  187.1380  177.3610  143.6950 C   0  0  2  0  0  3  0  0  0  0  0  0
  185.5450  179.1710  138.4050 O   0  0  0  0  0  0  0  0  0  0  0  0
  190.0750  176.8380  140.8740 S   0  0  0  0  0  0  0  0  0  0  0  0
  188.5620  177.6650  149.1320 F   0  0  0  0  0  0  0  0  0  0  0  0
  187.0970  178.4260  147.4090 C   0  0  0  0  0  2  0  0  0  0  0  0
  187.5350  177.5780  145.1260 C   0  0  0  0  0  0  0  0  0  0  0  0
  189.0960  177.0140  146.9230 C   0  0  0  0  0  3  0  0  0  0  0  0
  186.6860  178.1600  145.9870 C   0  0  0  0  0  3  0  0  0  0  0  0
  188.8560  177.0980  145.6090 C   0  0  0  0  0  0  0  0  0  0  0  0
  188.0080  177.3080  147.9190 C   0  0  1  0  0  3  0  0  0  0  0  0
  189.9460  176.7450  144.6490 C   0  0  0  0  0  2  0  0  0  0  0  0
  191.3070  176.8010  145.3270 C   0  0  0  0  0  2  0  0  0  0  0  0
  191.9620  177.9870  144.9920 O   0  0  0  0  0  1  0  0  0  0  0  0
  183.3800  179.6410  144.4370 C   0  0  0  0  0  2  0  0  0  0  0  0
  183.2240  178.3540  142.6220 C   0  0  0  0  0  2  0  0  0  0  0  0
  184.4360  179.2230  142.3600 C   0  0  1  0  0  3  0  0  0  0  0  0
  182.9430  178.3830  143.9970 O   0  0  0  0  0  0  0  0  0  0  0  0
  184.5770  180.0450  143.6120 C   0  0  0  0  0  2  0  0  0  0  0  0
  183.0560  178.6720  139.1480 O   0  0  0  0  0  1  0  0  0  0  0  0
  183.9700  177.7130  139.5860 C   0  0  0  0  0  2  0  0  0  0  0  0
  1 13  1  0  0  0  0
  2  4  1  6  0  0  0
  2  6  1  0  0  0  0
  3  1  1  0  0  0  0
  5 32  1  1  0  0  0
  5  2  1  0  0  0  0
  6 28  1  0  0  0  0
  6 11  1  1  0  0  0
  7 12  1  6  0  0  0
  7  9  1  0  0  0  0
  7 14  1  0  0  0  0
  7  5  1  0  0  0  0
  8  9  1  6  0  0  0
  8 10  1  0  0  0  0
  8  4  1  0  0  0  0
 10 15  1  0  0  0  0
 11 13  1  0  0  0  0
 13 18  1  1  0  0  0
 14  5  1  0  0  0  0
 15  3  1  0  0  0  0
 17 22  1  0  0  0  0
 18 21  1  0  0  0  0
 18 20  2  0  0  0  0
 19 22  1  0  0  0  0
 20 17  1  0  0  0  0
 21 19  2  0  0  0  0
 22 16  1  1  0  0  0
 23 24  1  0  0  0  0
 23 21  1  0  0  0  0
 25 24  1  0  0  0  0
 27 29  1  0  0  0  0
 28 27  1  1  0  0  0
 28 30  1  0  0  0  0
 29 26  1  0  0  0  0
 30 26  1  0  0  0  0
 31 32  1  0  0  0  0
M  END
>  <MODEL>
2

>  <REMARK>
 VINA RESULT:      -7.7      1.295      2.162
  Name = 
  5 active torsions:
  status: ('A' for Active; 'I' for Inactive)
    1  A    between atoms: C_3  and  C_23
    2  A    between atoms: C_6  and  C_17
    3  A    between atoms: C_10  and  C_28
    4  A    between atoms: C_16  and  C_27
    5  A    between atoms: C_22  and  C_23
                            x       y       z     vdW  Elec       q    Type
                         _______ _______ _______ _____ _____    ______ ____

>  <TORSDO>
F 5

$$$$
=
 OpenBabel10262421163D

 32 36  0  0  1  0  0  0  0  0999 V2000
  187.8060  178.2120  139.2560 C   0  0  0  0  0  2  0  0  0  0  0  0
  190.8380  176.3200  139.5350 C   0  0  1  0  0  3  0  0  0  0  0  0
  187.2060  176.9360  138.6610 C   0  0  0  0  0  2  0  0  0  0  0  0
  189.9010  176.5670  138.5400 O   0  0  0  0  0  0  0  0  0  0  0  0
  192.2370  176.5770  138.9370 C   0  0  2  0  0  0  0  0  0  0  0  0
  190.4230  177.1530  140.7550 C   0  0  1  0  0  3  0  0  0  0  0  0
  192.3670  176.2710  137.4710 C   0  0  1  0  0  0  0  0  0  0  0  0
  189.9600  175.4970  137.6560 C   0  0  2  0  0  3  0  0  0  0  0  0
  191.1380  175.7260  136.7040 C   0  0  0  0  0  2  0  0  0  0  0  0
  188.6120  175.3320  136.9460 C   0  0  0  0  0  2  0  0  0  0  0  0
  189.0030  176.9010  141.0340 N   0  0  0  0  0  2  0  0  0  0  0  0
  193.5250  176.8440  136.6740 C   0  0  0  0  0  1  0  0  0  0  0  0
  188.2160  178.0990  140.7380 C   0  0  2  0  0  3  0  0  0  0  0  0
  192.8250  175.3800  138.4640 O   0  0  0  0  0  0  0  0  0  0  0  0
  187.5980  176.8680  136.8700 S   0  0  0  0  0  0  0  0  0  0  0  0
  183.8990  179.0000  144.2340 F   0  0  0  0  0  0  0  0  0  0  0  0
  185.9430  177.8310  143.8510 C   0  0  0  0  0  2  0  0  0  0  0  0
  187.0410  178.2030  141.6650 C   0  0  0  0  0  0  0  0  0  0  0  0
  184.8450  179.1990  142.0780 C   0  0  0  0  0  3  0  0  0  0  0  0
  187.1330  177.7760  142.9330 C   0  0  0  0  0  3  0  0  0  0  0  0
  185.7790  178.8330  141.1930 C   0  0  0  0  0  0  0  0  0  0  0  0
  185.0980  179.0710  143.5550 C   0  0  1  0  0  3  0  0  0  0  0  0
  185.5130  179.0260  139.7350 C   0  0  0  0  0  2  0  0  0  0  0  0
  184.0610  179.4080  139.4930 C   0  0  0  0  0  2  0  0  0  0  0  0
  183.9890  180.6690  138.9000 O   0  0  0  0  0  1  0  0  0  0  0  0
  190.5960  176.6480  144.2450 C   0  0  0  0  0  2  0  0  0  0  0  0
  191.5390  178.0690  142.8070 C   0  0  0  0  0  2  0  0  0  0  0  0
  191.2790  176.8250  141.9850 C   0  0  1  0  0  3  0  0  0  0  0  0
  190.7460  178.0140  143.9640 O   0  0  0  0  0  0  0  0  0  0  0  0
  190.5850  175.8920  142.9390 C   0  0  0  0  0  2  0  0  0  0  0  0
  194.3170  176.7980  140.1110 O   0  0  0  0  0  1  0  0  0  0  0  0
  193.2530  177.5220  139.5740 C   0  0  0  0  0  2  0  0  0  0  0  0
  1 13  1  0  0  0  0
  2  4  1  6  0  0  0
  2  6  1  0  0  0  0
  3  1  1  0  0  0  0
  5  2  1  0  0  0  0
  5 32  1  1  0  0  0
  6 11  1  1  0  0  0
  6 28  1  0  0  0  0
  7 12  1  6  0  0  0
  7 14  1  0  0  0  0
  7  5  1  0  0  0  0
  8  9  1  6  0  0  0
  8  4  1  0  0  0  0
  9  7  1  0  0  0  0
 10  8  1  0  0  0  0
 13 11  1  0  0  0  0
 13 18  1  1  0  0  0
 14  5  1  0  0  0  0
 15 10  1  0  0  0  0
 15  3  1  0  0  0  0
 18 20  2  0  0  0  0
 19 22  1  0  0  0  0
 20 17  1  0  0  0  0
 21 18  1  0  0  0  0
 21 19  2  0  0  0  0
 22 17  1  0  0  0  0
 22 16  1  1  0  0  0
 23 21  1  0  0  0  0
 24 23  1  0  0  0  0
 25 24  1  0  0  0  0
 27 29  1  0  0  0  0
 28 27  1  1  0  0  0
 28 30  1  0  0  0  0
 29 26  1  0  0  0  0
 30 26  1  0  0  0  0
 32 31  1  0  0  0  0
M  END
>  <MODEL>
3

>  <REMARK>
 VINA RESULT:      -7.4      3.176      6.239
  Name = 
  5 active torsions:
  status: ('A' for Active; 'I' for Inactive)
    1  A    between atoms: C_3  and  C_23
    2  A    between atoms: C_6  and  C_17
    3  A    between atoms: C_10  and  C_28
    4  A    between atoms: C_16  and  C_27
    5  A    between atoms: C_22  and  C_23
                            x       y       z     vdW  Elec       q    Type
                         _______ _______ _______ _____ _____    ______ ____

>  <TORSDO>
F 5

$$$$
=
 OpenBabel10262421163D

 32 36  0  0  1  0  0  0  0  0999 V2000
  189.3560  176.7380  142.0890 C   0  0  0  0  0  2  0  0  0  0  0  0
  190.2250  176.8540  138.6140 C   0  0  1  0  0  3  0  0  0  0  0  0
  190.3770  177.8660  142.2590 C   0  0  0  0  0  2  0  0  0  0  0  0
  190.9170  176.7910  139.8160 O   0  0  0  0  0  0  0  0  0  0  0  0
  190.7940  175.7590  137.6870 C   0  0  2  0  0  0  0  0  0  0  0  0
  188.7300  176.7900  138.9550 C   0  0  1  0  0  3  0  0  0  0  0  0
  192.2530  175.4590  137.8800 C   0  0  1  0  0  0  0  0  0  0  0  0
  192.1760  177.3320  139.5860 C   0  0  2  0  0  3  0  0  0  0  0  0
  193.0510  176.2530  138.9420 C   0  0  0  0  0  2  0  0  0  0  0  0
  192.7470  177.8980  140.8900 C   0  0  0  0  0  2  0  0  0  0  0  0
  188.4440  177.7860  139.9950 N   0  0  0  0  0  2  0  0  0  0  0  0
  192.8400  174.1630  137.3490 C   0  0  0  0  0  1  0  0  0  0  0  0
  188.1160  177.1130  141.2540 C   0  0  2  0  0  3  0  0  0  0  0  0
  191.7910  176.2760  136.8270 O   0  0  0  0  0  0  0  0  0  0  0  0
  192.0530  177.1380  142.4180 S   0  0  0  0  0  0  0  0  0  0  0  0
  184.0680  179.7080  144.1790 F   0  0  0  0  0  0  0  0  0  0  0  0
  185.4730  179.7500  142.2510 C   0  0  0  0  0  2  0  0  0  0  0  0
  187.1200  177.9150  142.0390 C   0  0  0  0  0  0  0  0  0  0  0  0
  185.7700  178.0730  144.0740 C   0  0  0  0  0  3  0  0  0  0  0  0
  186.4340  178.9100  141.4560 C   0  0  0  0  0  3  0  0  0  0  0  0
  186.8500  177.5730  143.4610 C   0  0  0  0  0  0  0  0  0  0  0  0
  184.7720  178.8980  143.3110 C   0  0  1  0  0  3  0  0  0  0  0  0
  187.7920  176.7120  144.2380 C   0  0  0  0  0  2  0  0  0  0  0  0
  188.2300  177.4030  145.5200 C   0  0  0  0  0  2  0  0  0  0  0  0
  189.5840  177.1620  145.7560 O   0  0  0  0  0  1  0  0  0  0  0  0
  187.3340  179.0940  136.6740 C   0  0  0  0  0  2  0  0  0  0  0  0
  186.5100  177.6070  138.1190 C   0  0  0  0  0  2  0  0  0  0  0  0
  187.8540  177.0350  137.7210 C   0  0  1  0  0  3  0  0  0  0  0  0
  186.4900  178.9710  137.7880 O   0  0  0  0  0  0  0  0  0  0  0  0
  188.4360  178.0690  136.7960 C   0  0  0  0  0  2  0  0  0  0  0  0
  189.7790  174.9910  135.6520 O   0  0  0  0  0  1  0  0  0  0  0  0
  189.9190  174.7050  137.0110 C   0  0  0  0  0  2  0  0  0  0  0  0
  1  3  1  0  0  0  0
  2  6  1  0  0  0  0
  2  4  1  1  0  0  0
  3 15  1  0  0  0  0
  5 32  1  6  0  0  0
  5  7  1  0  0  0  0
  5  2  1  0  0  0  0
  6 11  1  1  0  0  0
  7 12  1  6  0  0  0
  7  9  1  0  0  0  0
  8  9  1  1  0  0  0
  8  4  1  0  0  0  0
  8 10  1  0  0  0  0
 10 15  1  0  0  0  0
 11 13  1  0  0  0  0
 13 18  1  1  0  0  0
 13  1  1  0  0  0  0
 14  5  1  0  0  0  0
 14  7  1  0  0  0  0
 17 22  1  0  0  0  0
 18 21  1  0  0  0  0
 20 18  2  0  0  0  0
 20 17  1  0  0  0  0
 21 19  2  0  0  0  0
 21 23  1  0  0  0  0
 22 19  1  0  0  0  0
 22 16  1  1  0  0  0
 23 24  1  0  0  0  0
 24 25  1  0  0  0  0
 26 30  1  0  0  0  0
 26 29  1  0  0  0  0
 28 30  1  6  0  0  0
 28 27  1  0  0  0  0
 28  6  1  0  0  0  0
 29 27  1  0  0  0  0
 31 32  1  0  0  0  0
M  END
>  <MODEL>
4

>  <REMARK>
 VINA RESULT:      -7.4      3.074      5.431
  Name = 
  5 active torsions:
  status: ('A' for Active; 'I' for Inactive)
    1  A    between atoms: C_3  and  C_23
    2  A    between atoms: C_6  and  C_17
    3  A    between atoms: C_10  and  C_28
    4  A    between atoms: C_16  and  C_27
    5  A    between atoms: C_22  and  C_23
                            x       y       z     vdW  Elec       q    Type
                         _______ _______ _______ _____ _____    ______ ____

>  <TORSDO>
F 5

$$$$
=
 OpenBabel10262421163D

 32 36  0  0  1  0  0  0  0  0999 V2000
  185.0120  179.4610  142.7940 C   0  0  0  0  0  2  0  0  0  0  0  0
  182.5750  178.8000  140.2510 C   0  0  1  0  0  3  0  0  0  0  0  0
  184.2310  178.4490  143.6370 C   0  0  0  0  0  2  0  0  0  0  0  0
  182.5480  179.1170  141.6030 O   0  0  0  0  0  0  0  0  0  0  0  0
  181.6000  179.7530  139.5270 C   0  0  2  0  0  0  0  0  0  0  0  0
  184.0460  178.8240  139.8150 C   0  0  1  0  0  3  0  0  0  0  0  0
  180.4080  180.1770  140.3380 C   0  0  1  0  0  0  0  0  0  0  0  0
  181.3510  178.6280  142.1090 C   0  0  2  0  0  3  0  0  0  0  0  0
  180.2450  179.6340  141.7780 C   0  0  0  0  0  2  0  0  0  0  0  0
  181.4960  178.3360  143.6060 C   0  0  0  0  0  2  0  0  0  0  0  0
  184.8260  178.0070  140.7530 N   0  0  0  0  0  2  0  0  0  0  0  0
  179.6030  181.3970  139.9260 C   0  0  0  0  0  1  0  0  0  0  0  0
  185.7030  178.8650  141.5520 C   0  0  2  0  0  3  0  0  0  0  0  0
  180.3250  179.1610  139.3630 O   0  0  0  0  0  0  0  0  0  0  0  0
  182.8220  179.3020  144.4440 S   0  0  0  0  0  0  0  0  0  0  0  0
  190.3370  175.8130  142.4980 F   0  0  0  0  0  0  0  0  0  0  0  0
  188.3910  176.8260  143.4360 C   0  0  0  0  0  2  0  0  0  0  0  0
  186.9760  178.1480  141.8950 C   0  0  0  0  0  0  0  0  0  0  0  0
  189.0930  177.2350  141.0780 C   0  0  0  0  0  3  0  0  0  0  0  0
  187.1000  177.5030  143.0650 C   0  0  0  0  0  3  0  0  0  0  0  0
  188.0910  178.1060  140.9120 C   0  0  0  0  0  0  0  0  0  0  0  0
  189.0560  176.2290  142.1950 C   0  0  1  0  0  3  0  0  0  0  0  0
  188.1360  179.0540  139.7580 C   0  0  0  0  0  2  0  0  0  0  0  0
  189.1820  178.6230  138.7410 C   0  0  0  0  0  2  0  0  0  0  0  0
  189.0560  179.3770  137.5740 O   0  0  0  0  0  1  0  0  0  0  0  0
  184.9510  176.1750  137.6640 C   0  0  0  0  0  2  0  0  0  0  0  0
  185.6880  178.2530  138.0050 C   0  0  0  0  0  2  0  0  0  0  0  0
  184.2220  178.3110  138.3810 C   0  0  1  0  0  3  0  0  0  0  0  0
  186.0960  176.9110  138.0060 O   0  0  0  0  0  0  0  0  0  0  0  0
  183.7430  176.8950  138.2110 C   0  0  0  0  0  2  0  0  0  0  0  0
  181.4930  180.0790  137.1530 O   0  0  0  0  0  1  0  0  0  0  0  0
  182.0100  180.6120  138.3340 C   0  0  0  0  0  2  0  0  0  0  0  0
  1  3  1  0  0  0  0
  2  4  1  1  0  0  0
  3 15  1  0  0  0  0
  4  8  1  0  0  0  0
  5 32  1  6  0  0  0
  5  2  1  0  0  0  0
  5  7  1  0  0  0  0
  6  2  1  0  0  0  0
  6 11  1  1  0  0  0
  7 12  1  6  0  0  0
  7  9  1  0  0  0  0
  8  9  1  1  0  0  0
  8 10  1  0  0  0  0
 10 15  1  0  0  0  0
 11 13  1  0  0  0  0
 13 18  1  1  0  0  0
 13  1  1  0  0  0  0
 14  5  1  0  0  0  0
 14  7  1  0  0  0  0
 18 20  2  0  0  0  0
 19 22  1  0  0  0  0
 20 17  1  0  0  0  0
 21 19  2  0  0  0  0
 21 18  1  0  0  0  0
 22 16  1  1  0  0  0
 22 17  1  0  0  0  0
 23 21  1  0  0  0  0
 24 23  1  0  0  0  0
 25 24  1  0  0  0  0
 26 29  1  0  0  0  0
 26 30  1  0  0  0  0
 27 29  1  0  0  0  0
 28 27  1  1  0  0  0
 28  6  1  0  0  0  0
 30 28  1  0  0  0  0
 31 32  1  0  0  0  0
M  END
>  <MODEL>
5

>  <REMARK>
 VINA RESULT:      -7.3      3.081      6.136
  Name = 
  5 active torsions:
  status: ('A' for Active; 'I' for Inactive)
    1  A    between atoms: C_3  and  C_23
    2  A    between atoms: C_6  and  C_17
    3  A    between atoms: C_10  and  C_28
    4  A    between atoms: C_16  and  C_27
    5  A    between atoms: C_22  and  C_23
                            x       y       z     vdW  Elec       q    Type
                         _______ _______ _______ _____ _____    ______ ____

>  <TORSDO>
F 5

$$$$
=
 OpenBabel10262421163D

 32 36  0  0  1  0  0  0  0  0999 V2000
  186.2490  179.3290  140.8790 C   0  0  0  0  0  2  0  0  0  0  0  0
  188.8340  176.9700  141.6570 C   0  0  1  0  0  3  0  0  0  0  0  0
  185.8400  178.3380  139.7860 C   0  0  0  0  0  2  0  0  0  0  0  0
  188.3560  177.5870  140.5080 O   0  0  0  0  0  0  0  0  0  0  0  0
  190.3680  177.1360  141.6750 C   0  0  2  0  0  0  0  0  0  0  0  0
  188.0430  177.5500  142.8370 C   0  0  1  0  0  3  0  0  0  0  0  0
  191.0190  177.1640  140.3200 C   0  0  1  0  0  0  0  0  0  0  0  0
  188.6770  176.7580  139.4410 C   0  0  2  0  0  3  0  0  0  0  0  0
  190.1370  177.0130  139.0580 C   0  0  0  0  0  2  0  0  0  0  0  0
  187.6860  176.9760  138.2930 C   0  0  0  0  0  2  0  0  0  0  0  0
  186.6100  177.4670  142.5270 N   0  0  0  0  0  2  0  0  0  0  0  0
  192.4240  177.7170  140.1630 C   0  0  0  0  0  1  0  0  0  0  0  0
  186.0660  178.8100  142.3190 C   0  0  2  0  0  3  0  0  0  0  0  0
  191.0160  176.0050  141.1240 O   0  0  0  0  0  0  0  0  0  0  0  0
  186.8700  178.6280  138.2970 S   0  0  0  0  0  0  0  0  0  0  0  0
  180.7720  178.5940  144.2190 F   0  0  0  0  0  0  0  0  0  0  0  0
  182.2030  178.8820  142.3310 C   0  0  0  0  0  2  0  0  0  0  0  0
  184.6370  178.8790  142.7730 C   0  0  0  0  0  0  0  0  0  0  0  0
  183.0850  178.7890  144.6620 C   0  0  0  0  0  3  0  0  0  0  0  0
  183.6350  178.7620  141.8890 C   0  0  0  0  0  3  0  0  0  0  0  0
  184.3260  179.0250  144.2200 C   0  0  0  0  0  0  0  0  0  0  0  0
  182.0230  178.2820  143.7260 C   0  0  1  0  0  3  0  0  0  0  0  0
  185.3690  179.4750  145.1900 C   0  0  0  0  0  2  0  0  0  0  0  0
  185.0420  179.0020  146.5990 C   0  0  0  0  0  2  0  0  0  0  0  0
  185.6830  179.8110  147.5380 O   0  0  0  0  0  1  0  0  0  0  0  0
  187.3710  177.1290  146.2770 C   0  0  0  0  0  2  0  0  0  0  0  0
  189.1660  177.6900  145.0770 C   0  0  0  0  0  2  0  0  0  0  0  0
  188.3540  176.8140  144.1460 C   0  0  1  0  0  3  0  0  0  0  0  0
  188.3290  178.1400  146.1100 O   0  0  0  0  0  0  0  0  0  0  0  0
  187.1140  176.4900  144.9340 C   0  0  0  0  0  2  0  0  0  0  0  0
  191.8520  176.7430  143.5180 O   0  0  0  0  0  1  0  0  0  0  0  0
  191.1260  177.7350  142.8570 C   0  0  0  0  0  2  0  0  0  0  0  0
  1 13  1  0  0  0  0
  2  4  1  6  0  0  0
  2  5  1  0  0  0  0
  2  6  1  0  0  0  0
  3  1  1  0  0  0  0
  5 32  1  1  0  0  0
  6 11  1  6  0  0  0
  6 28  1  0  0  0  0
  7 12  1  6  0  0  0
  7 14  1  0  0  0  0
  7  5  1  0  0  0  0
  8 10  1  6  0  0  0
  8  4  1  0  0  0  0
  9  8  1  0  0  0  0
  9  7  1  0  0  0  0
 10 15  1  0  0  0  0
 13 11  1  0  0  0  0
 13 18  1  6  0  0  0
 14  5  1  0  0  0  0
 15  3  1  0  0  0  0
 17 22  1  0  0  0  0
 18 21  1  0  0  0  0
 20 17  1  0  0  0  0
 20 18  2  0  0  0  0
 21 19  2  0  0  0  0
 21 23  1  0  0  0  0
 22 16  1  1  0  0  0
 22 19  1  0  0  0  0
 23 24  1  0  0  0  0
 24 25  1  0  0  0  0
 27 29  1  0  0  0  0
 28 30  1  1  0  0  0
 28 27  1  0  0  0  0
 29 26  1  0  0  0  0
 30 26  1  0  0  0  0
 32 31  1  0  0  0  0
M  END
>  <MODEL>
6

>  <REMARK>
 VINA RESULT:      -7.3      2.650      5.307
  Name = 
  5 active torsions:
  status: ('A' for Active; 'I' for Inactive)
    1  A    between atoms: C_3  and  C_23
    2  A    between atoms: C_6  and  C_17
    3  A    between atoms: C_10  and  C_28
    4  A    between atoms: C_16  and  C_27
    5  A    between atoms: C_22  and  C_23
                            x       y       z     vdW  Elec       q    Type
                         _______ _______ _______ _____ _____    ______ ____

>  <TORSDO>
F 5

$$$$
=
 OpenBabel10262421163D

 32 36  0  0  1  0  0  0  0  0999 V2000
  187.6010  177.4320  140.8430 C   0  0  0  0  0  2  0  0  0  0  0  0
  186.0020  178.1530  137.7160 C   0  0  1  0  0  3  0  0  0  0  0  0
  188.5220  178.6070  140.5060 C   0  0  0  0  0  2  0  0  0  0  0  0
  187.3080  177.9690  138.1530 O   0  0  0  0  0  0  0  0  0  0  0  0
  185.7960  177.2670  136.4690 C   0  0  2  0  0  0  0  0  0  0  0  0
  185.0890  177.9040  138.9240 C   0  0  1  0  0  3  0  0  0  0  0  0
  187.0200  177.0730  135.6190 C   0  0  1  0  0  0  0  0  0  0  0  0
  188.1300  178.6490  137.2640 C   0  0  2  0  0  3  0  0  0  0  0  0
  188.3410  177.7640  136.0330 C   0  0  0  0  0  2  0  0  0  0  0  0
  189.4300  179.0590  137.9640 C   0  0  0  0  0  2  0  0  0  0  0  0
  185.5800  178.7010  140.0550 N   0  0  0  0  0  2  0  0  0  0  0  0
  187.0780  175.9300  134.6210 C   0  0  0  0  0  1  0  0  0  0  0  0
  186.1280  177.8180  141.0860 C   0  0  2  0  0  3  0  0  0  0  0  0
  186.0100  177.9960  135.2760 O   0  0  0  0  0  0  0  0  0  0  0  0
  189.8740  178.0170  139.4160 S   0  0  0  0  0  0  0  0  0  0  0  0
  185.0070  179.5850  146.3110 F   0  0  0  0  0  0  0  0  0  0  0  0
  184.9320  180.0830  143.9790 C   0  0  0  0  0  2  0  0  0  0  0  0
  185.9090  178.3990  142.4530 C   0  0  0  0  0  0  0  0  0  0  0  0
  186.1130  178.0740  144.8690 C   0  0  0  0  0  3  0  0  0  0  0  0
  185.1140  179.4660  142.6190 C   0  0  0  0  0  3  0  0  0  0  0  0
  186.5340  177.7560  143.6390 C   0  0  0  0  0  0  0  0  0  0  0  0
  184.9460  179.0020  145.0610 C   0  0  1  0  0  3  0  0  0  0  0  0
  187.6620  176.7880  143.4860 C   0  0  0  0  0  2  0  0  0  0  0  0
  188.7990  177.1220  144.4400 C   0  0  0  0  0  2  0  0  0  0  0  0
  189.5620  178.1720  143.9280 O   0  0  0  0  0  1  0  0  0  0  0  0
  182.0630  179.3780  139.9900 C   0  0  0  0  0  2  0  0  0  0  0  0
  182.6830  177.3320  139.3530 C   0  0  0  0  0  2  0  0  0  0  0  0
  183.6280  178.2550  138.6130 C   0  0  1  0  0  3  0  0  0  0  0  0
  182.1070  178.0420  140.4170 O   0  0  0  0  0  0  0  0  0  0  0  0
  183.2510  179.6300  139.0930 C   0  0  0  0  0  2  0  0  0  0  0  0
  183.6500  176.7570  135.5260 O   0  0  0  0  0  1  0  0  0  0  0  0
  184.6590  176.2550  136.3480 C   0  0  0  0  0  2  0  0  0  0  0  0
  1 13  1  0  0  0  0
  2  4  1  1  0  0  0
  2  6  1  0  0  0  0
  3  1  1  0  0  0  0
  5 32  1  1  0  0  0
  5  2  1  0  0  0  0
  6 11  1  1  0  0  0
  7 12  1  6  0  0  0
  7  9  1  0  0  0  0
  7  5  1  0  0  0  0
  8  9  1  6  0  0  0
  8 10  1  0  0  0  0
  8  4  1  0  0  0  0
 10 15  1  0  0  0  0
 11 13  1  0  0  0  0
 13 18  1  1  0  0  0
 14  7  1  0  0  0  0
 14  5  1  0  0  0  0
 15  3  1  0  0  0  0
 17 22  1  0  0  0  0
 18 20  2  0  0  0  0
 18 21  1  0  0  0  0
 19 22  1  0  0  0  0
 20 17  1  0  0  0  0
 21 19  2  0  0  0  0
 22 16  1  1  0  0  0
 23 21  1  0  0  0  0
 23 24  1  0  0  0  0
 25 24  1  0  0  0  0
 26 29  1  0  0  0  0
 27 29  1  0  0  0  0
 28  6  1  0  0  0  0
 28 30  1  1  0  0  0
 28 27  1  0  0  0  0
 30 26  1  0  0  0  0
 31 32  1  0  0  0  0
M  END
>  <MODEL>
7

>  <REMARK>
 VINA RESULT:      -7.1      2.218      3.748
  Name = 
  5 active torsions:
  status: ('A' for Active; 'I' for Inactive)
    1  A    between atoms: C_3  and  C_23
    2  A    between atoms: C_6  and  C_17
    3  A    between atoms: C_10  and  C_28
    4  A    between atoms: C_16  and  C_27
    5  A    between atoms: C_22  and  C_23
                            x       y       z     vdW  Elec       q    Type
                         _______ _______ _______ _____ _____    ______ ____

>  <TORSDO>
F 5

$$$$
=
 OpenBabel10262421163D

 32 36  0  0  1  0  0  0  0  0999 V2000
  189.0390  178.7980  141.7010 C   0  0  0  0  0  2  0  0  0  0  0  0
  187.2670  177.5360  144.5500 C   0  0  1  0  0  3  0  0  0  0  0  0
  189.8340  177.4920  141.7680 C   0  0  0  0  0  2  0  0  0  0  0  0
  188.5990  177.6860  144.1870 O   0  0  0  0  0  0  0  0  0  0  0  0
  187.0970  178.1270  145.9660 C   0  0  2  0  0  0  0  0  0  0  0  0
  186.4250  178.1450  143.4210 C   0  0  1  0  0  3  0  0  0  0  0  0
  188.3010  177.9980  146.8550 C   0  0  1  0  0  0  0  0  0  0  0  0
  189.3220  176.7420  144.9050 C   0  0  2  0  0  3  0  0  0  0  0  0
  189.5680  177.2950  146.3110 C   0  0  0  0  0  2  0  0  0  0  0  0
  190.6030  176.3790  144.1470 C   0  0  0  0  0  2  0  0  0  0  0  0
  186.8820  177.5870  142.1420 N   0  0  0  0  0  2  0  0  0  0  0  0
  188.4290  178.8680  148.0930 C   0  0  0  0  0  1  0  0  0  0  0  0
  187.5470  178.6250  141.3530 C   0  0  2  0  0  3  0  0  0  0  0  0
  187.1990  177.1250  146.9590 O   0  0  0  0  0  0  0  0  0  0  0  0
  191.1940  177.6790  142.9840 S   0  0  0  0  0  0  0  0  0  0  0  0
  186.4470  177.3570  135.9810 F   0  0  0  0  0  0  0  0  0  0  0  0
  188.1220  177.7800  137.6270 C   0  0  0  0  0  2  0  0  0  0  0  0
  187.3260  178.4000  139.8860 C   0  0  0  0  0  0  0  0  0  0  0  0
  185.6960  178.1390  138.0800 C   0  0  0  0  0  3  0  0  0  0  0  0
  188.3240  177.9580  139.1070 C   0  0  0  0  0  3  0  0  0  0  0  0
  185.9770  178.6160  139.2990 C   0  0  0  0  0  0  0  0  0  0  0  0
  186.6990  177.3010  137.3370 C   0  0  1  0  0  3  0  0  0  0  0  0
  184.9340  179.3990  140.0300 C   0  0  0  0  0  2  0  0  0  0  0  0
  183.7560  179.7170  139.1220 C   0  0  0  0  0  2  0  0  0  0  0  0
  183.8080  181.0520  138.7190 O   0  0  0  0  0  1  0  0  0  0  0  0
  183.0940  178.9170  142.5420 C   0  0  0  0  0  2  0  0  0  0  0  0
  184.2850  178.9860  144.4270 C   0  0  0  0  0  2  0  0  0  0  0  0
  184.9280  177.8780  143.6200 C   0  0  1  0  0  3  0  0  0  0  0  0
  183.5200  179.7820  143.5610 O   0  0  0  0  0  0  0  0  0  0  0  0
  184.1650  177.8760  142.3230 C   0  0  0  0  0  2  0  0  0  0  0  0
  185.1460  178.6970  147.2410 O   0  0  0  0  0  1  0  0  0  0  0  0
  186.0550  179.1900  146.3040 C   0  0  0  0  0  2  0  0  0  0  0  0
  1  3  1  0  0  0  0
  2  4  1  6  0  0  0
  2  5  1  0  0  0  0
  3 15  1  0  0  0  0
  4  8  1  0  0  0  0
  5 32  1  1  0  0  0
  5  7  1  0  0  0  0
  5 14  1  0  0  0  0
  6 11  1  6  0  0  0
  6 28  1  0  0  0  0
  6  2  1  0  0  0  0
  7 14  1  0  0  0  0
  7 12  1  1  0  0  0
  8 10  1  6  0  0  0
  8  9  1  0  0  0  0
  9  7  1  0  0  0  0
 13 18  1  6  0  0  0
 13  1  1  0  0  0  0
 13 11  1  0  0  0  0
 15 10  1  0  0  0  0
 17 20  1  0  0  0  0
 19 21  2  0  0  0  0
 20 18  2  0  0  0  0
 21 18  1  0  0  0  0
 21 23  1  0  0  0  0
 22 16  1  6  0  0  0
 22 17  1  0  0  0  0
 22 19  1  0  0  0  0
 24 23  1  0  0  0  0
 25 24  1  0  0  0  0
 26 29  1  0  0  0  0
 28 30  1  6  0  0  0
 28 27  1  0  0  0  0
 29 27  1  0  0  0  0
 30 26  1  0  0  0  0
 32 31  1  0  0  0  0
M  END
>  <MODEL>
8

>  <REMARK>
 VINA RESULT:      -6.9      2.766      6.646
  Name = 
  5 active torsions:
  status: ('A' for Active; 'I' for Inactive)
    1  A    between atoms: C_3  and  C_23
    2  A    between atoms: C_6  and  C_17
    3  A    between atoms: C_10  and  C_28
    4  A    between atoms: C_16  and  C_27
    5  A    between atoms: C_22  and  C_23
                            x       y       z     vdW  Elec       q    Type
                         _______ _______ _______ _____ _____    ______ ____

>  <TORSDO>
F 5

$$$$
=
 OpenBabel10262421163D

 32 36  0  0  1  0  0  0  0  0999 V2000
  189.0450  176.5680  139.9130 C   0  0  0  0  0  2  0  0  0  0  0  0
  186.1020  178.3230  138.8590 C   0  0  1  0  0  3  0  0  0  0  0  0
  189.7850  177.4460  138.9010 C   0  0  0  0  0  2  0  0  0  0  0  0
  187.1550  177.6690  138.2310 O   0  0  0  0  0  0  0  0  0  0  0  0
  184.7890  177.7960  138.2420 C   0  0  2  0  0  0  0  0  0  0  0  0
  186.3010  178.1420  140.3690 C   0  0  1  0  0  3  0  0  0  0  0  0
  184.8810  177.4010  136.7950 C   0  0  1  0  0  0  0  0  0  0  0  0
  187.2740  178.2200  136.9620 C   0  0  2  0  0  3  0  0  0  0  0  0
  186.2300  177.5620  136.0550 C   0  0  0  0  0  2  0  0  0  0  0  0
  188.7140  178.0710  136.4610 C   0  0  0  0  0  2  0  0  0  0  0  0
  187.6780  178.5210  140.7100 N   0  0  0  0  0  2  0  0  0  0  0  0
  183.8180  176.5070  136.1820 C   0  0  0  0  0  1  0  0  0  0  0  0
  188.4380  177.3340  141.1060 C   0  0  2  0  0  3  0  0  0  0  0  0
  184.3340  178.6370  137.2000 O   0  0  0  0  0  0  0  0  0  0  0  0
  189.6510  176.6870  137.2360 S   0  0  0  0  0  0  0  0  0  0  0  0
  192.0590  179.1060  145.0330 F   0  0  0  0  0  0  0  0  0  0  0  0
  191.7740  178.2620  142.8190 C   0  0  0  0  0  2  0  0  0  0  0  0
  189.4660  177.6830  142.1410 C   0  0  0  0  0  0  0  0  0  0  0  0
  189.8910  178.3690  144.4510 C   0  0  0  0  0  3  0  0  0  0  0  0
  190.7280  177.9610  141.7810 C   0  0  0  0  0  3  0  0  0  0  0  0
  189.0740  177.7760  143.5730 C   0  0  0  0  0  0  0  0  0  0  0  0
  191.1590  179.0320  143.9890 C   0  0  1  0  0  3  0  0  0  0  0  0
  187.7950  177.1760  144.0610 C   0  0  0  0  0  2  0  0  0  0  0  0
  187.5820  177.4770  145.5370 C   0  0  0  0  0  2  0  0  0  0  0  0
  186.2920  177.1080  145.9200 O   0  0  0  0  0  1  0  0  0  0  0  0
  185.1970  179.2790  143.5240 C   0  0  0  0  0  2  0  0  0  0  0  0
  184.2920  178.0840  141.8720 C   0  0  0  0  0  2  0  0  0  0  0  0
  185.2990  178.9760  141.1780 C   0  0  1  0  0  3  0  0  0  0  0  0
  184.6010  178.0410  143.2400 O   0  0  0  0  0  0  0  0  0  0  0  0
  185.9540  179.7350  142.3000 C   0  0  0  0  0  2  0  0  0  0  0  0
  182.5400  178.0690  139.0310 O   0  0  0  0  0  1  0  0  0  0  0  0
  183.6490  177.2230  139.0800 C   0  0  0  0  0  2  0  0  0  0  0  0
  1 13  1  0  0  0  0
  2  4  1  6  0  0  0
  2  6  1  0  0  0  0
  3  1  1  0  0  0  0
  5  2  1  0  0  0  0
  5 32  1  1  0  0  0
  6 11  1  1  0  0  0
  6 28  1  0  0  0  0
  7 12  1  6  0  0  0
  7 14  1  0  0  0  0
  7  5  1  0  0  0  0
  8  9  1  6  0  0  0
  8  4  1  0  0  0  0
  9  7  1  0  0  0  0
 10  8  1  0  0  0  0
 10 15  1  0  0  0  0
 11 13  1  0  0  0  0
 13 18  1  1  0  0  0
 14  5  1  0  0  0  0
 15  3  1  0  0  0  0
 17 22  1  0  0  0  0
 18 21  1  0  0  0  0
 20 18  2  0  0  0  0
 20 17  1  0  0  0  0
 21 23  1  0  0  0  0
 21 19  2  0  0  0  0
 22 19  1  0  0  0  0
 22 16  1  1  0  0  0
 23 24  1  0  0  0  0
 24 25  1  0  0  0  0
 27 29  1  0  0  0  0
 28 27  1  1  0  0  0
 28 30  1  0  0  0  0
 29 26  1  0  0  0  0
 30 26  1  0  0  0  0
 31 32  1  0  0  0  0
M  END
>  <MODEL>
9

>  <REMARK>
 VINA RESULT:      -6.8      1.821      2.654
  Name = 
  5 active torsions:
  status: ('A' for Active; 'I' for Inactive)
    1  A    between atoms: C_3  and  C_23
    2  A    between atoms: C_6  and  C_17
    3  A    between atoms: C_10  and  C_28
    4  A    between atoms: C_16  and  C_27
    5  A    between atoms: C_22  and  C_23
                            x       y       z     vdW  Elec       q    Type
                         _______ _______ _______ _____ _____    ______ ____

>  <TORSDO>
F 5

$$$$
