=
 OpenBabel10262423133D

 34 38  0  0  1  0  0  0  0  0999 V2000
  182.8420  177.2210  138.5110 C   0  0  1  0  0  3  0  0  0  0  0  0
  185.0350  174.3440  137.5050 C   0  0  0  0  0  3  0  0  0  0  0  0
  185.5030  176.6340  137.5930 O   0  0  0  0  0  0  0  0  0  0  0  0
  183.2480  178.4050  140.7210 C   0  0  1  0  0  3  0  0  0  0  0  0
  182.9100  177.0780  140.0390 C   0  0  0  0  0  2  0  0  0  0  0  0
  183.3970  179.6830  138.6890 C   0  0  2  0  0  3  0  0  0  0  0  0
  184.4950  180.5310  138.8580 O   0  0  0  0  0  1  0  0  0  0  0  0
  182.6820  179.5200  139.9630 N   0  0  0  0  0  2  0  0  0  0  0  0
  185.2440  177.9400  138.1160 C   0  0  2  0  0  3  0  0  0  0  0  0
  183.7580  178.3420  137.9850 C   0  0  1  0  0  3  0  0  0  0  0  0
  186.0570  178.8560  137.4500 O   0  0  0  0  0  1  0  0  0  0  0  0
  184.1790  173.1310  137.6450 C   0  0  0  0  0  2  0  0  0  0  0  0
  183.1280  173.0710  136.5850 C   0  0  0  0  0  0  0  0  0  0  0  0
  182.1760  174.0100  136.5130 C   0  0  0  0  0  3  0  0  0  0  0  0
  184.5770  175.5890  137.6390 C   0  0  0  0  0  0  0  0  0  0  0  0
  182.1160  175.2490  137.3140 C   0  0  0  0  0  3  0  0  0  0  0  0
  183.1450  175.9220  137.8470 C   0  0  0  0  0  0  0  0  0  0  0  0
  183.0970  171.8920  135.6910 C   0  0  0  0  0  0  0  0  0  0  0  0
  182.2010  171.8570  134.6290 O   0  0  0  0  0  1  0  0  0  0  0  0
  183.9030  170.8500  135.8770 C   0  0  0  0  0  2  0  0  0  0  0  0
  182.7070  178.3980  142.1410 C   0  0  0  0  0  2  0  0  0  0  0  0
  184.3710  178.9380  145.5630 C   0  0  0  0  0  2  0  0  0  0  0  0
  184.9850  177.7580  142.8910 C   0  0  0  0  0  2  0  0  0  0  0  0
  187.9830  177.8620  145.9820 C   0  0  0  0  0  0  0  0  0  0  0  0
  186.6990  178.3520  146.2500 C   0  0  0  0  0  3  0  0  0  0  0  0
  185.7140  178.3350  145.2580 C   0  0  0  0  0  0  0  0  0  0  0  0
  187.3090  177.3540  143.7110 C   0  0  0  0  0  3  0  0  0  0  0  0
  186.0290  177.8520  143.9690 C   0  0  0  0  0  0  0  0  0  0  0  0
  188.2850  177.3630  144.7110 C   0  0  0  0  0  3  0  0  0  0  0  0
  183.8080  178.6940  143.1460 C   0  0  2  0  0  3  0  0  0  0  0  0
  183.3020  178.4920  144.5700 C   0  0  0  0  0  2  0  0  0  0  0  0
  189.0400  177.8680  147.0360 C   0  0  0  0  0  3  0  0  0  0  0  0
  188.4900  178.2270  148.2680 O   0  0  0  0  0  1  0  0  0  0  0  0
  189.6310  176.6080  147.1350 O   0  0  0  0  0  1  0  0  0  0  0  0
  1  5  1  1  0  0  0
  2 15  2  0  0  0  0
  2 12  1  0  0  0  0
  3 15  1  0  0  0  0
  3  9  1  0  0  0  0
  4 21  1  1  0  0  0
  5  4  1  0  0  0  0
  6  7  1  1  0  0  0
  6  8  1  0  0  0  0
  8  4  1  0  0  0  0
  9 11  1  6  0  0  0
 10  9  1  0  0  0  0
 10  1  1  0  0  0  0
 10  6  1  0  0  0  0
 13 12  1  0  0  0  0
 14 13  2  0  0  0  0
 14 16  1  0  0  0  0
 15 17  1  0  0  0  0
 16 17  2  0  0  0  0
 17  1  1  0  0  0  0
 18 20  2  0  0  0  0
 18 13  1  0  0  0  0
 19 18  1  0  0  0  0
 21 30  1  0  0  0  0
 23 30  1  0  0  0  0
 23 28  1  0  0  0  0
 24 25  1  0  0  0  0
 24 32  1  0  0  0  0
 26 22  1  0  0  0  0
 26 25  2  0  0  0  0
 27 28  2  0  0  0  0
 27 29  1  0  0  0  0
 28 26  1  0  0  0  0
 29 24  2  0  0  0  0
 30 31  1  0  0  0  0
 31 22  1  0  0  0  0
 32 34  1  0  0  0  0
 32 33  1  0  0  0  0
M  END
>  <MODEL>
1

>  <REMARK>
 VINA RESULT:      -9.3      0.000      0.000
  Name = 
  4 active torsions:
  status: ('A' for Active; 'I' for Inactive)
    1  A    between atoms: C_3  and  C_25
    2  A    between atoms: C_7  and  C_11
    3  A    between atoms: C_8  and  C_18
    4  A    between atoms: C_18  and  C_30
                            x       y       z     vdW  Elec       q    Type
                         _______ _______ _______ _____ _____    ______ ____

>  <TORSDO>
F 4

$$$$
=
 OpenBabel10262423133D

 34 38  0  0  1  0  0  0  0  0999 V2000
  180.6840  177.8080  139.9780 C   0  0  1  0  0  3  0  0  0  0  0  0
  183.2980  176.4370  137.6550 C   0  0  0  0  0  3  0  0  0  0  0  0
  182.4630  178.6130  137.8670 O   0  0  0  0  0  0  0  0  0  0  0  0
  181.3740  179.3060  141.9090 C   0  0  1  0  0  3  0  0  0  0  0  0
  181.5170  177.9270  141.2640 C   0  0  0  0  0  2  0  0  0  0  0  0
  179.8640  180.1850  140.2560 C   0  0  2  0  0  3  0  0  0  0  0  0
  180.2770  181.5010  140.0310 O   0  0  0  0  0  1  0  0  0  0  0  0
  180.0310  179.8370  141.6740 N   0  0  0  0  0  2  0  0  0  0  0  0
  181.8330  179.6350  138.6430 C   0  0  2  0  0  3  0  0  0  0  0  0
  180.5020  179.1620  139.2700 C   0  0  1  0  0  3  0  0  0  0  0  0
  181.6200  180.7460  137.8270 O   0  0  0  0  0  1  0  0  0  0  0  0
  183.3920  174.9860  137.9840 C   0  0  0  0  0  2  0  0  0  0  0  0
  182.1840  174.2350  137.5270 C   0  0  0  0  0  0  0  0  0  0  0  0
  180.9770  174.5040  138.0430 C   0  0  0  0  0  3  0  0  0  0  0  0
  182.3770  177.2510  138.1710 C   0  0  0  0  0  0  0  0  0  0  0  0
  180.6520  175.6130  138.9610 C   0  0  0  0  0  3  0  0  0  0  0  0
  181.2780  176.7950  139.0600 C   0  0  0  0  0  0  0  0  0  0  0  0
  182.3700  173.1150  136.5790 C   0  0  0  0  0  0  0  0  0  0  0  0
  181.6480  173.0930  135.3910 O   0  0  0  0  0  1  0  0  0  0  0  0
  183.2090  172.1140  136.8310 C   0  0  0  0  0  2  0  0  0  0  0  0
  181.6500  179.2010  143.3990 C   0  0  0  0  0  2  0  0  0  0  0  0
  185.3230  178.2310  142.8140 C   0  0  0  0  0  2  0  0  0  0  0  0
  183.4820  178.9400  145.0540 C   0  0  0  0  0  2  0  0  0  0  0  0
  187.5690  177.8350  145.8440 C   0  0  0  0  0  0  0  0  0  0  0  0
  187.1160  177.8980  144.5200 C   0  0  0  0  0  3  0  0  0  0  0  0
  185.7900  178.2460  144.2430 C   0  0  0  0  0  0  0  0  0  0  0  0
  185.3600  178.4490  146.6250 C   0  0  0  0  0  3  0  0  0  0  0  0
  184.8980  178.5020  145.3080 C   0  0  0  0  0  0  0  0  0  0  0  0
  186.6890  178.1110  146.8940 C   0  0  0  0  0  3  0  0  0  0  0  0
  182.9990  178.5510  143.6610 C   0  0  2  0  0  3  0  0  0  0  0  0
  184.0220  179.0070  142.6260 C   0  0  0  0  0  2  0  0  0  0  0  0
  188.9840  177.4710  146.1510 C   0  0  0  0  0  3  0  0  0  0  0  0
  189.0390  176.6800  147.3010 O   0  0  0  0  0  1  0  0  0  0  0  0
  189.5490  176.7800  145.0790 O   0  0  0  0  0  1  0  0  0  0  0  0
  1  5  1  1  0  0  0
  2 12  1  0  0  0  0
  2 15  2  0  0  0  0
  3 15  1  0  0  0  0
  3  9  1  0  0  0  0
  4 21  1  1  0  0  0
  5  4  1  0  0  0  0
  6  7  1  1  0  0  0
  6  8  1  0  0  0  0
  8  4  1  0  0  0  0
  9 11  1  6  0  0  0
  9 10  1  0  0  0  0
 10  1  1  0  0  0  0
 10  6  1  0  0  0  0
 13 12  1  0  0  0  0
 13 14  2  0  0  0  0
 14 16  1  0  0  0  0
 15 17  1  0  0  0  0
 16 17  2  0  0  0  0
 17  1  1  0  0  0  0
 18 20  2  0  0  0  0
 18 13  1  0  0  0  0
 19 18  1  0  0  0  0
 21 30  1  0  0  0  0
 22 26  1  0  0  0  0
 23 28  1  0  0  0  0
 24 32  1  0  0  0  0
 24 29  1  0  0  0  0
 25 24  2  0  0  0  0
 26 25  1  0  0  0  0
 26 28  2  0  0  0  0
 27 29  2  0  0  0  0
 28 27  1  0  0  0  0
 30 23  1  0  0  0  0
 31 22  1  0  0  0  0
 31 30  1  0  0  0  0
 32 33  1  0  0  0  0
 34 32  1  0  0  0  0
M  END
>  <MODEL>
2

>  <REMARK>
 VINA RESULT:      -9.1      1.860      2.639
  Name = 
  4 active torsions:
  status: ('A' for Active; 'I' for Inactive)
    1  A    between atoms: C_3  and  C_25
    2  A    between atoms: C_7  and  C_11
    3  A    between atoms: C_8  and  C_18
    4  A    between atoms: C_18  and  C_30
                            x       y       z     vdW  Elec       q    Type
                         _______ _______ _______ _____ _____    ______ ____

>  <TORSDO>
F 4

$$$$
=
 OpenBabel10262423133D

 34 38  0  0  1  0  0  0  0  0999 V2000
  182.0980  177.5530  140.5670 C   0  0  1  0  0  3  0  0  0  0  0  0
  184.2070  177.7390  137.4660 C   0  0  0  0  0  3  0  0  0  0  0  0
  182.6480  179.2600  138.3190 O   0  0  0  0  0  0  0  0  0  0  0  0
  182.6470  179.0340  142.5560 C   0  0  1  0  0  3  0  0  0  0  0  0
  183.1510  177.9340  141.6200 C   0  0  0  0  0  2  0  0  0  0  0  0
  180.4870  179.2530  141.5230 C   0  0  2  0  0  3  0  0  0  0  0  0
  180.2230  180.6250  141.4910 O   0  0  0  0  0  1  0  0  0  0  0  0
  181.2050  178.9040  142.7580 N   0  0  0  0  0  2  0  0  0  0  0  0
  181.9160  179.8090  139.4180 C   0  0  2  0  0  3  0  0  0  0  0  0
  181.1620  178.7260  140.2230 C   0  0  1  0  0  3  0  0  0  0  0  0
  181.0220  180.7610  138.9270 O   0  0  0  0  0  1  0  0  0  0  0  0
  184.9940  176.4720  137.4500 C   0  0  0  0  0  2  0  0  0  0  0  0
  184.1340  175.2910  137.1390 C   0  0  0  0  0  0  0  0  0  0  0  0
  183.1440  174.9300  137.9650 C   0  0  0  0  0  3  0  0  0  0  0  0
  183.2340  177.9920  138.3410 C   0  0  0  0  0  0  0  0  0  0  0  0
  182.6800  175.6840  139.1460 C   0  0  0  0  0  3  0  0  0  0  0  0
  182.7530  177.0080  139.3440 C   0  0  0  0  0  0  0  0  0  0  0  0
  184.4740  174.4650  135.9590 C   0  0  0  0  0  0  0  0  0  0  0  0
  184.8830  175.0830  134.7820 O   0  0  0  0  0  1  0  0  0  0  0  0
  184.3950  173.1380  135.9850 C   0  0  0  0  0  2  0  0  0  0  0  0
  183.3790  178.9430  143.8850 C   0  0  0  0  0  2  0  0  0  0  0  0
  186.8430  178.2350  142.3770 C   0  0  0  0  0  2  0  0  0  0  0  0
  185.4960  178.3540  145.0390 C   0  0  0  0  0  2  0  0  0  0  0  0
  189.6360  177.2060  144.7280 C   0  0  0  0  0  0  0  0  0  0  0  0
  188.9300  177.5620  143.5710 C   0  0  0  0  0  3  0  0  0  0  0  0
  187.5830  177.9300  143.6500 C   0  0  0  0  0  0  0  0  0  0  0  0
  187.6380  177.5620  146.0500 C   0  0  0  0  0  3  0  0  0  0  0  0
  186.9250  177.9080  144.8990 C   0  0  0  0  0  0  0  0  0  0  0  0
  188.9870  177.2070  145.9650 C   0  0  0  0  0  3  0  0  0  0  0  0
  184.7400  178.2870  143.7160 C   0  0  2  0  0  3  0  0  0  0  0  0
  185.5470  178.9980  142.6360 C   0  0  0  0  0  2  0  0  0  0  0  0
  191.0760  176.8180  144.6560 C   0  0  0  0  0  3  0  0  0  0  0  0
  191.7070  177.5000  143.6140 O   0  0  0  0  0  1  0  0  0  0  0  0
  191.7140  177.1090  145.8620 O   0  0  0  0  0  1  0  0  0  0  0  0
  1  5  1  1  0  0  0
  2 15  2  0  0  0  0
  3 15  1  0  0  0  0
  3  9  1  0  0  0  0
  4  8  1  0  0  0  0
  4 21  1  1  0  0  0
  5  4  1  0  0  0  0
  6  7  1  6  0  0  0
  6  8  1  0  0  0  0
  9 11  1  6  0  0  0
  9 10  1  0  0  0  0
 10  1  1  0  0  0  0
 10  6  1  0  0  0  0
 12  2  1  0  0  0  0
 13 12  1  0  0  0  0
 13 14  2  0  0  0  0
 14 16  1  0  0  0  0
 15 17  1  0  0  0  0
 16 17  2  0  0  0  0
 17  1  1  0  0  0  0
 18 20  2  0  0  0  0
 18 13  1  0  0  0  0
 19 18  1  0  0  0  0
 22 31  1  0  0  0  0
 22 26  1  0  0  0  0
 24 29  1  0  0  0  0
 25 26  1  0  0  0  0
 25 24  2  0  0  0  0
 26 28  2  0  0  0  0
 28 23  1  0  0  0  0
 28 27  1  0  0  0  0
 29 27  2  0  0  0  0
 30 21  1  0  0  0  0
 30 23  1  0  0  0  0
 31 30  1  0  0  0  0
 32 24  1  0  0  0  0
 32 34  1  0  0  0  0
 33 32  1  0  0  0  0
M  END
>  <MODEL>
3

>  <REMARK>
 VINA RESULT:      -8.9      2.002      3.162
  Name = 
  4 active torsions:
  status: ('A' for Active; 'I' for Inactive)
    1  A    between atoms: C_3  and  C_25
    2  A    between atoms: C_7  and  C_11
    3  A    between atoms: C_8  and  C_18
    4  A    between atoms: C_18  and  C_30
                            x       y       z     vdW  Elec       q    Type
                         _______ _______ _______ _____ _____    ______ ____

>  <TORSDO>
F 4

$$$$
=
 OpenBabel10262423133D

 34 38  0  0  1  0  0  0  0  0999 V2000
  185.3850  176.6530  136.7270 C   0  0  1  0  0  3  0  0  0  0  0  0
  185.7690  172.9850  137.4350 C   0  0  0  0  0  3  0  0  0  0  0  0
  187.3660  174.6940  137.4360 O   0  0  0  0  0  0  0  0  0  0  0  0
  185.5300  178.3280  138.6300 C   0  0  1  0  0  3  0  0  0  0  0  0
  184.7880  177.1150  138.0650 C   0  0  0  0  0  2  0  0  0  0  0  0
  187.1100  178.5010  136.8250 C   0  0  2  0  0  3  0  0  0  0  0  0
  188.3350  178.8010  137.4260 O   0  0  0  0  0  1  0  0  0  0  0  0
  186.0170  179.1740  137.5420 N   0  0  0  0  0  2  0  0  0  0  0  0
  187.7120  176.0760  137.5580 C   0  0  2  0  0  3  0  0  0  0  0  0
  186.8860  176.9750  136.6110 C   0  0  1  0  0  3  0  0  0  0  0  0
  189.0760  176.2190  137.2980 O   0  0  0  0  0  1  0  0  0  0  0  0
  184.4030  172.4100  137.2710 C   0  0  0  0  0  2  0  0  0  0  0  0
  183.9840  172.3800  135.8380 C   0  0  0  0  0  0  0  0  0  0  0  0
  183.8320  173.5170  135.1470 C   0  0  0  0  0  3  0  0  0  0  0  0
  186.0780  174.2460  137.1330 C   0  0  0  0  0  0  0  0  0  0  0  0
  184.1850  174.8710  135.6150 C   0  0  0  0  0  3  0  0  0  0  0  0
  185.1270  175.2010  136.5100 C   0  0  0  0  0  0  0  0  0  0  0  0
  183.6310  171.0750  135.2360 C   0  0  0  0  0  0  0  0  0  0  0  0
  182.3510  170.8730  134.7320 O   0  0  0  0  0  1  0  0  0  0  0  0
  184.5060  170.0760  135.1650 C   0  0  0  0  0  2  0  0  0  0  0  0
  184.6000  179.1130  139.5390 C   0  0  0  0  0  2  0  0  0  0  0  0
  184.5450  178.3390  143.3040 C   0  0  0  0  0  2  0  0  0  0  0  0
  186.4730  178.4540  141.0280 C   0  0  0  0  0  2  0  0  0  0  0  0
  187.8390  177.5590  145.0130 C   0  0  0  0  0  0  0  0  0  0  0  0
  186.4720  177.7590  144.7820 C   0  0  0  0  0  3  0  0  0  0  0  0
  186.0090  178.0590  143.4970 C   0  0  0  0  0  0  0  0  0  0  0  0
  188.2930  177.9820  142.6720 C   0  0  0  0  0  3  0  0  0  0  0  0
  186.9320  178.1930  142.4360 C   0  0  0  0  0  0  0  0  0  0  0  0
  188.7460  177.6710  143.9570 C   0  0  0  0  0  3  0  0  0  0  0  0
  185.0800  179.0720  140.9810 C   0  0  2  0  0  3  0  0  0  0  0  0
  184.1300  178.2430  141.8380 C   0  0  0  0  0  2  0  0  0  0  0  0
  188.3430  177.2320  146.3800 C   0  0  0  0  0  3  0  0  0  0  0  0
  189.7060  177.5230  146.4730 O   0  0  0  0  0  1  0  0  0  0  0  0
  187.6410  177.9590  147.3410 O   0  0  0  0  0  1  0  0  0  0  0  0
  1  5  1  1  0  0  0
  3  9  1  0  0  0  0
  4 21  1  1  0  0  0
  5  4  1  0  0  0  0
  6  7  1  1  0  0  0
  6  8  1  0  0  0  0
  8  4  1  0  0  0  0
  9 11  1  6  0  0  0
 10  1  1  0  0  0  0
 10  6  1  0  0  0  0
 10  9  1  0  0  0  0
 12  2  1  0  0  0  0
 13 12  1  0  0  0  0
 14 16  1  0  0  0  0
 14 13  2  0  0  0  0
 15  2  2  0  0  0  0
 15  3  1  0  0  0  0
 16 17  2  0  0  0  0
 17  1  1  0  0  0  0
 17 15  1  0  0  0  0
 18 13  1  0  0  0  0
 19 18  1  0  0  0  0
 20 18  2  0  0  0  0
 21 30  1  0  0  0  0
 22 26  1  0  0  0  0
 23 28  1  0  0  0  0
 24 32  1  0  0  0  0
 25 24  1  0  0  0  0
 26 25  2  0  0  0  0
 27 29  1  0  0  0  0
 28 27  2  0  0  0  0
 28 26  1  0  0  0  0
 29 24  2  0  0  0  0
 30 23  1  0  0  0  0
 30 31  1  0  0  0  0
 31 22  1  0  0  0  0
 32 33  1  0  0  0  0
 32 34  1  0  0  0  0
M  END
>  <MODEL>
4

>  <REMARK>
 VINA RESULT:      -8.9      1.838      2.564
  Name = 
  4 active torsions:
  status: ('A' for Active; 'I' for Inactive)
    1  A    between atoms: C_3  and  C_25
    2  A    between atoms: C_7  and  C_11
    3  A    between atoms: C_8  and  C_18
    4  A    between atoms: C_18  and  C_30
                            x       y       z     vdW  Elec       q    Type
                         _______ _______ _______ _____ _____    ______ ____

>  <TORSDO>
F 4

$$$$
=
 OpenBabel10262423133D

 34 38  0  0  1  0  0  0  0  0999 V2000
  190.1120  177.7720  139.6810 C   0  0  1  0  0  3  0  0  0  0  0  0
  188.5320  176.5920  142.8770 C   0  0  0  0  0  3  0  0  0  0  0  0
  187.5790  177.6810  141.0390 O   0  0  0  0  0  0  0  0  0  0  0  0
  189.6420  176.5390  137.5110 C   0  0  1  0  0  3  0  0  0  0  0  0
  190.2070  176.4360  138.9290 C   0  0  0  0  0  2  0  0  0  0  0  0
  189.0440  178.8630  137.6640 C   0  0  2  0  0  3  0  0  0  0  0  0
  187.8040  178.9750  137.0290 O   0  0  0  0  0  1  0  0  0  0  0  0
  189.8820  177.8750  136.9680 N   0  0  0  0  0  2  0  0  0  0  0  0
  187.5860  178.0170  139.6490 C   0  0  2  0  0  3  0  0  0  0  0  0
  188.9300  178.6340  139.2000 C   0  0  1  0  0  3  0  0  0  0  0  0
  186.5370  178.9030  139.4000 O   0  0  0  0  0  1  0  0  0  0  0  0
  189.6450  175.9830  143.6620 C   0  0  0  0  0  2  0  0  0  0  0  0
  190.5890  177.0190  144.1780 C   0  0  0  0  0  0  0  0  0  0  0  0
  191.3010  177.7760  143.3330 C   0  0  0  0  0  3  0  0  0  0  0  0
  188.7130  177.2530  141.7330 C   0  0  0  0  0  0  0  0  0  0  0  0
  191.1530  177.8120  141.8640 C   0  0  0  0  0  3  0  0  0  0  0  0
  190.0490  177.5440  141.1520 C   0  0  0  0  0  0  0  0  0  0  0  0
  190.8050  177.1090  145.6390 C   0  0  0  0  0  0  0  0  0  0  0  0
  192.0560  176.8140  146.1690 O   0  0  0  0  0  1  0  0  0  0  0  0
  189.8280  177.4600  146.4710 C   0  0  0  0  0  2  0  0  0  0  0  0
  190.2890  175.4840  136.6290 C   0  0  0  0  0  2  0  0  0  0  0  0
  193.5680  173.7260  137.5940 C   0  0  0  0  0  2  0  0  0  0  0  0
  192.5970  175.9310  135.8310 C   0  0  0  0  0  2  0  0  0  0  0  0
  196.8020  175.0460  136.1150 C   0  0  0  0  0  0  0  0  0  0  0  0
  195.8840  174.2650  136.8280 C   0  0  0  0  0  3  0  0  0  0  0  0
  194.5150  174.5410  136.7560 C   0  0  0  0  0  0  0  0  0  0  0  0
  194.9830  176.4040  135.2690 C   0  0  0  0  0  3  0  0  0  0  0  0
  194.0620  175.6360  135.9860 C   0  0  0  0  0  0  0  0  0  0  0  0
  196.3490  176.1140  135.3360 C   0  0  0  0  0  3  0  0  0  0  0  0
  191.7650  175.3270  136.9580 C   0  0  2  0  0  3  0  0  0  0  0  0
  192.1240  173.8540  137.1170 C   0  0  0  0  0  2  0  0  0  0  0  0
  198.2650  174.7550  136.1790 C   0  0  0  0  0  3  0  0  0  0  0  0
  198.9660  175.6280  135.3440 O   0  0  0  0  0  1  0  0  0  0  0  0
  198.7270  174.8870  137.4880 O   0  0  0  0  0  1  0  0  0  0  0  0
  1  5  1  6  0  0  0
  1 17  1  0  0  0  0
  2 12  1  0  0  0  0
  3 15  1  0  0  0  0
  4 21  1  6  0  0  0
  4  5  1  0  0  0  0
  6  7  1  6  0  0  0
  6 10  1  0  0  0  0
  8  4  1  0  0  0  0
  8  6  1  0  0  0  0
  9 11  1  1  0  0  0
  9  3  1  0  0  0  0
 10  9  1  0  0  0  0
 10  1  1  0  0  0  0
 12 13  1  0  0  0  0
 13 18  1  0  0  0  0
 14 13  2  0  0  0  0
 15  2  2  0  0  0  0
 16 14  1  0  0  0  0
 17 15  1  0  0  0  0
 17 16  2  0  0  0  0
 18 19  1  0  0  0  0
 18 20  2  0  0  0  0
 21 30  1  0  0  0  0
 23 28  1  0  0  0  0
 23 30  1  0  0  0  0
 24 32  1  0  0  0  0
 24 25  1  0  0  0  0
 26 25  2  0  0  0  0
 26 22  1  0  0  0  0
 27 29  1  0  0  0  0
 27 28  2  0  0  0  0
 28 26  1  0  0  0  0
 29 24  2  0  0  0  0
 30 31  1  0  0  0  0
 31 22  1  0  0  0  0
 32 34  1  0  0  0  0
 33 32  1  0  0  0  0
M  END
>  <MODEL>
5

>  <REMARK>
 VINA RESULT:      -8.7      7.166     10.639
  Name = 
  4 active torsions:
  status: ('A' for Active; 'I' for Inactive)
    1  A    between atoms: C_3  and  C_25
    2  A    between atoms: C_7  and  C_11
    3  A    between atoms: C_8  and  C_18
    4  A    between atoms: C_18  and  C_30
                            x       y       z     vdW  Elec       q    Type
                         _______ _______ _______ _____ _____    ______ ____

>  <TORSDO>
F 4

$$$$
=
 OpenBabel10262423133D

 34 38  0  0  1  0  0  0  0  0999 V2000
  187.7810  175.8560  136.4790 C   0  0  1  0  0  3  0  0  0  0  0  0
  186.1280  172.6230  137.4370 C   0  0  0  0  0  3  0  0  0  0  0  0
  188.3740  173.0860  136.9730 O   0  0  0  0  0  0  0  0  0  0  0  0
  189.2570  177.0640  138.1570 C   0  0  1  0  0  3  0  0  0  0  0  0
  187.8550  176.5290  137.8590 C   0  0  0  0  0  2  0  0  0  0  0  0
  190.2280  176.3550  136.0740 C   0  0  2  0  0  3  0  0  0  0  0  0
  191.4960  175.8650  136.3980 O   0  0  0  0  0  1  0  0  0  0  0  0
  189.9000  177.5110  136.9220 N   0  0  0  0  0  2  0  0  0  0  0  0
  189.4660  174.0050  136.8980 C   0  0  2  0  0  3  0  0  0  0  0  0
  189.1300  175.2520  136.0480 C   0  0  1  0  0  3  0  0  0  0  0  0
  190.5730  173.3400  136.3690 O   0  0  0  0  0  1  0  0  0  0  0  0
  184.6820  172.9540  137.5910 C   0  0  0  0  0  2  0  0  0  0  0  0
  184.0320  173.2260  136.2740 C   0  0  0  0  0  0  0  0  0  0  0  0
  184.4200  174.2650  135.5230 C   0  0  0  0  0  3  0  0  0  0  0  0
  187.0330  173.4810  136.9660 C   0  0  0  0  0  0  0  0  0  0  0  0
  185.5760  175.1440  135.7880 C   0  0  0  0  0  3  0  0  0  0  0  0
  186.6980  174.8330  136.4510 C   0  0  0  0  0  0  0  0  0  0  0  0
  182.8780  172.3910  135.8740 C   0  0  0  0  0  0  0  0  0  0  0  0
  182.3510  172.5150  134.5940 O   0  0  0  0  0  1  0  0  0  0  0  0
  182.3180  171.5220  136.7100 C   0  0  0  0  0  2  0  0  0  0  0  0
  189.1620  178.2090  139.1510 C   0  0  0  0  0  2  0  0  0  0  0  0
  189.1940  177.1750  142.8530 C   0  0  0  0  0  2  0  0  0  0  0  0
  187.4470  178.6070  140.9010 C   0  0  0  0  0  2  0  0  0  0  0  0
  186.1320  177.9550  144.9500 C   0  0  0  0  0  0  0  0  0  0  0  0
  187.4070  177.5230  144.5610 C   0  0  0  0  0  3  0  0  0  0  0  0
  187.8490  177.7180  143.2490 C   0  0  0  0  0  0  0  0  0  0  0  0
  185.7240  178.7610  142.7020 C   0  0  0  0  0  3  0  0  0  0  0  0
  186.9910  178.3230  142.3050 C   0  0  0  0  0  0  0  0  0  0  0  0
  185.2940  178.5730  144.0190 C   0  0  0  0  0  3  0  0  0  0  0  0
  188.6240  177.7290  140.4890 C   0  0  2  0  0  3  0  0  0  0  0  0
  189.7070  177.8010  141.5590 C   0  0  0  0  0  2  0  0  0  0  0  0
  185.6520  177.7590  146.3500 C   0  0  0  0  0  3  0  0  0  0  0  0
  186.6760  178.0470  147.2550 O   0  0  0  0  0  1  0  0  0  0  0  0
  184.5550  178.5820  146.6040 O   0  0  0  0  0  1  0  0  0  0  0  0
  1  5  1  1  0  0  0
  2 12  1  0  0  0  0
  4 21  1  1  0  0  0
  5  4  1  0  0  0  0
  6  7  1  1  0  0  0
  6  8  1  0  0  0  0
  8  4  1  0  0  0  0
  9 11  1  6  0  0  0
  9  3  1  0  0  0  0
 10  6  1  0  0  0  0
 10  1  1  0  0  0  0
 10  9  1  0  0  0  0
 13 12  1  0  0  0  0
 14 16  1  0  0  0  0
 14 13  2  0  0  0  0
 15  3  1  0  0  0  0
 15  2  2  0  0  0  0
 16 17  2  0  0  0  0
 17  1  1  0  0  0  0
 17 15  1  0  0  0  0
 18 13  1  0  0  0  0
 18 20  2  0  0  0  0
 19 18  1  0  0  0  0
 21 30  1  0  0  0  0
 22 26  1  0  0  0  0
 23 28  1  0  0  0  0
 24 32  1  0  0  0  0
 25 24  1  0  0  0  0
 26 25  2  0  0  0  0
 27 29  1  0  0  0  0
 28 27  2  0  0  0  0
 28 26  1  0  0  0  0
 29 24  2  0  0  0  0
 30 23  1  0  0  0  0
 30 31  1  0  0  0  0
 31 22  1  0  0  0  0
 32 34  1  0  0  0  0
 32 33  1  0  0  0  0
M  END
>  <MODEL>
6

>  <REMARK>
 VINA RESULT:      -8.6      3.345      4.787
  Name = 
  4 active torsions:
  status: ('A' for Active; 'I' for Inactive)
    1  A    between atoms: C_3  and  C_25
    2  A    between atoms: C_7  and  C_11
    3  A    between atoms: C_8  and  C_18
    4  A    between atoms: C_18  and  C_30
                            x       y       z     vdW  Elec       q    Type
                         _______ _______ _______ _____ _____    ______ ____

>  <TORSDO>
F 4

$$$$
=
 OpenBabel10262423133D

 34 38  0  0  1  0  0  0  0  0999 V2000
  188.0050  175.8580  136.7110 C   0  0  1  0  0  3  0  0  0  0  0  0
  186.2400  172.6490  137.5420 C   0  0  0  0  0  3  0  0  0  0  0  0
  188.4880  173.0410  137.0270 O   0  0  0  0  0  0  0  0  0  0  0  0
  189.5860  176.9020  138.4020 C   0  0  1  0  0  3  0  0  0  0  0  0
  188.1530  176.4450  138.1230 C   0  0  0  0  0  2  0  0  0  0  0  0
  190.4570  176.2730  136.2500 C   0  0  2  0  0  3  0  0  0  0  0  0
  191.7120  175.7110  136.5020 O   0  0  0  0  0  1  0  0  0  0  0  0
  190.2090  177.3910  137.1720 N   0  0  0  0  0  2  0  0  0  0  0  0
  189.6180  173.9150  136.9660 C   0  0  2  0  0  3  0  0  0  0  0  0
  189.3100  175.2210  136.2000 C   0  0  1  0  0  3  0  0  0  0  0  0
  190.6760  173.2340  136.3630 O   0  0  0  0  0  1  0  0  0  0  0  0
  184.8150  173.0320  137.7650 C   0  0  0  0  0  2  0  0  0  0  0  0
  184.1370  173.4070  136.4880 C   0  0  0  0  0  0  0  0  0  0  0  0
  184.5460  174.4700  135.7840 C   0  0  0  0  0  3  0  0  0  0  0  0
  187.1670  173.4930  137.0890 C   0  0  0  0  0  0  0  0  0  0  0  0
  185.7480  175.2820  136.0570 C   0  0  0  0  0  3  0  0  0  0  0  0
  186.8760  174.8850  136.6630 C   0  0  0  0  0  0  0  0  0  0  0  0
  182.9340  172.6470  136.0820 C   0  0  0  0  0  0  0  0  0  0  0  0
  181.8960  173.3010  135.4270 O   0  0  0  0  0  1  0  0  0  0  0  0
  182.8080  171.3470  136.3310 C   0  0  0  0  0  2  0  0  0  0  0  0
  189.5750  177.9910  139.4610 C   0  0  0  0  0  2  0  0  0  0  0  0
  191.4830  177.0180  142.6530 C   0  0  0  0  0  2  0  0  0  0  0  0
  188.7890  177.9960  141.8160 C   0  0  0  0  0  2  0  0  0  0  0  0
  189.6030  177.0870  145.9460 C   0  0  0  0  0  0  0  0  0  0  0  0
  190.6260  176.9580  144.9980 C   0  0  0  0  0  3  0  0  0  0  0  0
  190.3800  177.2400  143.6500 C   0  0  0  0  0  0  0  0  0  0  0  0
  188.0700  177.7610  144.1960 C   0  0  0  0  0  3  0  0  0  0  0  0
  189.0830  177.6240  143.2420 C   0  0  0  0  0  0  0  0  0  0  0  0
  188.3270  177.4890  145.5420 C   0  0  0  0  0  3  0  0  0  0  0  0
  189.8090  177.4090  140.8460 C   0  0  2  0  0  3  0  0  0  0  0  0
  191.2160  177.7370  141.3330 C   0  0  0  0  0  2  0  0  0  0  0  0
  189.8570  176.7950  147.3890 C   0  0  0  0  0  3  0  0  0  0  0  0
  191.2300  176.7020  147.6270 O   0  0  0  0  0  1  0  0  0  0  0  0
  189.3090  177.7990  148.1880 O   0  0  0  0  0  1  0  0  0  0  0  0
  1  5  1  1  0  0  0
  2 12  1  0  0  0  0
  3 15  1  0  0  0  0
  4 21  1  1  0  0  0
  5  4  1  0  0  0  0
  6  7  1  1  0  0  0
  6  8  1  0  0  0  0
  8  4  1  0  0  0  0
  9 11  1  6  0  0  0
  9  3  1  0  0  0  0
 10  6  1  0  0  0  0
 10  1  1  0  0  0  0
 10  9  1  0  0  0  0
 13 12  1  0  0  0  0
 14 16  1  0  0  0  0
 14 13  2  0  0  0  0
 15  2  2  0  0  0  0
 16 17  2  0  0  0  0
 17  1  1  0  0  0  0
 17 15  1  0  0  0  0
 18 20  2  0  0  0  0
 18 13  1  0  0  0  0
 19 18  1  0  0  0  0
 21 30  1  0  0  0  0
 22 26  1  0  0  0  0
 23 28  1  0  0  0  0
 24 32  1  0  0  0  0
 25 24  2  0  0  0  0
 26 25  1  0  0  0  0
 27 29  2  0  0  0  0
 28 26  2  0  0  0  0
 28 27  1  0  0  0  0
 29 24  1  0  0  0  0
 30 31  1  0  0  0  0
 30 23  1  0  0  0  0
 31 22  1  0  0  0  0
 32 33  1  0  0  0  0
 32 34  1  0  0  0  0
M  END
>  <MODEL>
7

>  <REMARK>
 VINA RESULT:      -8.6      3.816      5.055
  Name = 
  4 active torsions:
  status: ('A' for Active; 'I' for Inactive)
    1  A    between atoms: C_3  and  C_25
    2  A    between atoms: C_7  and  C_11
    3  A    between atoms: C_8  and  C_18
    4  A    between atoms: C_18  and  C_30
                            x       y       z     vdW  Elec       q    Type
                         _______ _______ _______ _____ _____    ______ ____

>  <TORSDO>
F 4

$$$$
=
 OpenBabel10262423133D

 34 38  0  0  1  0  0  0  0  0999 V2000
  187.6820  176.0280  136.7080 C   0  0  1  0  0  3  0  0  0  0  0  0
  185.5100  173.0620  137.4780 C   0  0  0  0  0  3  0  0  0  0  0  0
  187.7780  173.1610  136.9110 O   0  0  0  0  0  0  0  0  0  0  0  0
  189.4340  176.7780  138.3860 C   0  0  1  0  0  3  0  0  0  0  0  0
  187.9450  176.5340  138.1340 C   0  0  0  0  0  2  0  0  0  0  0  0
  190.1560  176.1190  136.1880 C   0  0  2  0  0  3  0  0  0  0  0  0
  191.3260  175.3810  136.3830 O   0  0  0  0  0  1  0  0  0  0  0  0
  190.0880  177.2240  137.1560 N   0  0  0  0  0  2  0  0  0  0  0  0
  189.0160  173.8730  136.8460 C   0  0  2  0  0  3  0  0  0  0  0  0
  188.8730  175.2380  136.1360 C   0  0  1  0  0  3  0  0  0  0  0  0
  189.9540  173.0770  136.1880 O   0  0  0  0  0  1  0  0  0  0  0  0
  184.1590  173.6280  137.7570 C   0  0  0  0  0  2  0  0  0  0  0  0
  183.5070  174.1420  136.5150 C   0  0  0  0  0  0  0  0  0  0  0  0
  184.0430  175.1650  135.8370 C   0  0  0  0  0  3  0  0  0  0  0  0
  186.5340  173.7870  137.0280 C   0  0  0  0  0  0  0  0  0  0  0  0
  185.3520  175.7930  136.1020 C   0  0  0  0  0  3  0  0  0  0  0  0
  186.4290  175.2220  136.6600 C   0  0  0  0  0  0  0  0  0  0  0  0
  182.2010  173.5710  136.1190 C   0  0  0  0  0  0  0  0  0  0  0  0
  181.1320  173.6220  137.0060 O   0  0  0  0  0  1  0  0  0  0  0  0
  182.0160  173.0000  134.9330 C   0  0  0  0  0  2  0  0  0  0  0  0
  189.6000  177.8160  139.4830 C   0  0  0  0  0  2  0  0  0  0  0  0
  188.6260  176.9290  143.0930 C   0  0  0  0  0  2  0  0  0  0  0  0
  187.6790  178.6280  140.8290 C   0  0  0  0  0  2  0  0  0  0  0  0
  185.4280  178.4100  144.4940 C   0  0  0  0  0  0  0  0  0  0  0  0
  186.6340  177.7060  144.3830 C   0  0  0  0  0  3  0  0  0  0  0  0
  187.3750  177.7570  143.1980 C   0  0  0  0  0  0  0  0  0  0  0  0
  185.6870  179.2050  142.2210 C   0  0  0  0  0  3  0  0  0  0  0  0
  186.8850  178.4960  142.0990 C   0  0  0  0  0  0  0  0  0  0  0  0
  184.9580  179.1590  143.4120 C   0  0  0  0  0  3  0  0  0  0  0  0
  188.7010  177.5080  140.6690 C   0  0  2  0  0  3  0  0  0  0  0  0
  189.5230  177.3870  141.9470 C   0  0  0  0  0  2  0  0  0  0  0  0
  184.6320  178.3690  145.7570 C   0  0  0  0  0  3  0  0  0  0  0  0
  185.3330  178.9960  146.7890 O   0  0  0  0  0  1  0  0  0  0  0  0
  183.4020  179.0010  145.5730 O   0  0  0  0  0  1  0  0  0  0  0  0
  1  5  1  1  0  0  0
  2 12  1  0  0  0  0
  3 15  1  0  0  0  0
  4 21  1  1  0  0  0
  5  4  1  0  0  0  0
  6  7  1  1  0  0  0
  6  8  1  0  0  0  0
  8  4  1  0  0  0  0
  9 11  1  6  0  0  0
  9  3  1  0  0  0  0
 10  6  1  0  0  0  0
 10  1  1  0  0  0  0
 10  9  1  0  0  0  0
 13 12  1  0  0  0  0
 14 16  1  0  0  0  0
 14 13  2  0  0  0  0
 15  2  2  0  0  0  0
 16 17  2  0  0  0  0
 17  1  1  0  0  0  0
 17 15  1  0  0  0  0
 18 13  1  0  0  0  0
 18 19  1  0  0  0  0
 20 18  2  0  0  0  0
 21 30  1  0  0  0  0
 22 26  1  0  0  0  0
 23 28  1  0  0  0  0
 24 32  1  0  0  0  0
 25 24  1  0  0  0  0
 26 25  2  0  0  0  0
 27 29  1  0  0  0  0
 28 27  2  0  0  0  0
 28 26  1  0  0  0  0
 29 24  2  0  0  0  0
 30 23  1  0  0  0  0
 30 31  1  0  0  0  0
 31 22  1  0  0  0  0
 32 33  1  0  0  0  0
 34 32  1  0  0  0  0
M  END
>  <MODEL>
8

>  <REMARK>
 VINA RESULT:      -8.5      3.430      4.920
  Name = 
  4 active torsions:
  status: ('A' for Active; 'I' for Inactive)
    1  A    between atoms: C_3  and  C_25
    2  A    between atoms: C_7  and  C_11
    3  A    between atoms: C_8  and  C_18
    4  A    between atoms: C_18  and  C_30
                            x       y       z     vdW  Elec       q    Type
                         _______ _______ _______ _____ _____    ______ ____

>  <TORSDO>
F 4

$$$$
=
 OpenBabel10262423133D

 34 38  0  0  1  0  0  0  0  0999 V2000
  188.9970  176.7540  137.4460 C   0  0  1  0  0  3  0  0  0  0  0  0
  186.1310  174.3780  136.9540 C   0  0  0  0  0  3  0  0  0  0  0  0
  188.4350  174.0120  136.7890 O   0  0  0  0  0  0  0  0  0  0  0  0
  190.4560  176.5580  139.5150 C   0  0  1  0  0  3  0  0  0  0  0  0
  189.0420  176.7920  138.9810 C   0  0  0  0  0  2  0  0  0  0  0  0
  191.4860  176.3140  137.3560 C   0  0  2  0  0  3  0  0  0  0  0  0
  192.4020  175.2670  137.4920 O   0  0  0  0  0  1  0  0  0  0  0  0
  191.4430  177.1130  138.5890 N   0  0  0  0  0  2  0  0  0  0  0  0
  189.7800  174.3610  137.1280 C   0  0  2  0  0  3  0  0  0  0  0  0
  190.0890  175.8490  136.8490 C   0  0  1  0  0  3  0  0  0  0  0  0
  190.6480  173.5390  136.4090 O   0  0  0  0  0  1  0  0  0  0  0  0
  184.9030  175.1930  137.1840 C   0  0  0  0  0  2  0  0  0  0  0  0
  184.6640  176.1600  136.0710 C   0  0  0  0  0  0  0  0  0  0  0  0
  185.5390  177.1420  135.8200 C   0  0  0  0  0  3  0  0  0  0  0  0
  187.3580  174.8950  136.9010 C   0  0  0  0  0  0  0  0  0  0  0  0
  186.8610  177.3100  136.4560 C   0  0  0  0  0  3  0  0  0  0  0  0
  187.6430  176.3510  136.9700 C   0  0  0  0  0  0  0  0  0  0  0  0
  183.3850  176.0780  135.3310 C   0  0  0  0  0  0  0  0  0  0  0  0
  182.6280  174.9140  135.3940 O   0  0  0  0  0  1  0  0  0  0  0  0
  182.9360  177.0890  134.5940 C   0  0  0  0  0  2  0  0  0  0  0  0
  190.5940  177.2000  140.8850 C   0  0  0  0  0  2  0  0  0  0  0  0
  188.3270  176.7620  143.9580 C   0  0  0  0  0  2  0  0  0  0  0  0
  188.3880  178.2350  141.3620 C   0  0  0  0  0  2  0  0  0  0  0  0
  184.9660  178.5190  143.9600 C   0  0  0  0  0  0  0  0  0  0  0  0
  186.0720  177.7590  144.3590 C   0  0  0  0  0  3  0  0  0  0  0  0
  187.1900  177.6460  143.5260 C   0  0  0  0  0  0  0  0  0  0  0  0
  186.0830  179.0440  141.8760 C   0  0  0  0  0  3  0  0  0  0  0  0
  187.1860  178.2770  142.2620 C   0  0  0  0  0  0  0  0  0  0  0  0
  184.9740  179.1600  142.7190 C   0  0  0  0  0  3  0  0  0  0  0  0
  189.3090  177.0620  141.6850 C   0  0  2  0  0  3  0  0  0  0  0  0
  189.6080  177.0520  143.1800 C   0  0  0  0  0  2  0  0  0  0  0  0
  183.7700  178.6510  144.8450 C   0  0  0  0  0  3  0  0  0  0  0  0
  184.1600  179.0430  146.1270 O   0  0  0  0  0  1  0  0  0  0  0  0
  182.8810  179.5890  144.3180 O   0  0  0  0  0  1  0  0  0  0  0  0
  1  5  1  1  0  0  0
  2 12  1  0  0  0  0
  3 15  1  0  0  0  0
  3  9  1  0  0  0  0
  4 21  1  1  0  0  0
  5  4  1  0  0  0  0
  6  7  1  1  0  0  0
  6  8  1  0  0  0  0
  8  4  1  0  0  0  0
  9 11  1  6  0  0  0
 10  9  1  0  0  0  0
 10  6  1  0  0  0  0
 10  1  1  0  0  0  0
 13 12  1  0  0  0  0
 14 13  2  0  0  0  0
 14 16  1  0  0  0  0
 15  2  2  0  0  0  0
 15 17  1  0  0  0  0
 16 17  2  0  0  0  0
 17  1  1  0  0  0  0
 18 19  1  0  0  0  0
 18 13  1  0  0  0  0
 20 18  2  0  0  0  0
 21 30  1  0  0  0  0
 23 30  1  0  0  0  0
 23 28  1  0  0  0  0
 24 25  1  0  0  0  0
 24 32  1  0  0  0  0
 26 22  1  0  0  0  0
 26 25  2  0  0  0  0
 27 28  2  0  0  0  0
 27 29  1  0  0  0  0
 28 26  1  0  0  0  0
 29 24  2  0  0  0  0
 30 31  1  0  0  0  0
 31 22  1  0  0  0  0
 32 33  1  0  0  0  0
 34 32  1  0  0  0  0
M  END
>  <MODEL>
9

>  <REMARK>
 VINA RESULT:      -8.4      3.868      5.584
  Name = 
  4 active torsions:
  status: ('A' for Active; 'I' for Inactive)
    1  A    between atoms: C_3  and  C_25
    2  A    between atoms: C_7  and  C_11
    3  A    between atoms: C_8  and  C_18
    4  A    between atoms: C_18  and  C_30
                            x       y       z     vdW  Elec       q    Type
                         _______ _______ _______ _____ _____    ______ ____

>  <TORSDO>
F 4

$$$$
