=
 OpenBabel10262420283D

 55 59  0  0  1  0  0  0  0  0999 V2000
  185.4140  179.0550  143.7880 C   0  0  0  0  0  2  0  0  0  0  0  0
  182.6570  179.1790  143.9020 C   0  0  2  0  0  3  0  0  0  0  0  0
  183.2560  179.2060  142.6070 O   0  0  0  0  0  0  0  0  0  0  0  0
  184.5690  179.0480  145.0570 C   0  0  0  0  0  2  0  0  0  0  0  0
  184.5490  178.6230  142.5980 C   0  0  1  0  0  3  0  0  0  0  0  0
  183.3550  178.3800  144.8310 O   0  0  0  0  0  0  0  0  0  0  0  0
  181.2140  178.7140  143.8020 C   0  0  0  0  0  2  0  0  0  0  0  0
  180.7870  178.6570  142.3450 C   0  0  0  0  0  2  0  0  0  0  0  0
  179.9650  179.8820  141.9880 C   0  0  0  0  0  2  0  0  0  0  0  0
  179.9070  180.0460  140.4790 C   0  0  0  0  0  2  0  0  0  0  0  0
  180.8460  179.0700  139.7870 C   0  0  0  0  0  2  0  0  0  0  0  0
  181.1870  179.5450  138.3840 C   0  0  0  0  0  2  0  0  0  0  0  0
  181.8100  178.4640  137.6330 N   0  0  0  0  0  2  0  0  0  0  0  0
  183.2070  178.1780  137.7320 C   0  0  0  0  0  0  0  0  0  0  0  0
  183.9420  178.8780  138.4810 O   0  0  0  0  0  0  0  0  0  0  0  0
  182.0730  175.3300  136.6850 O   0  0  0  0  0  1  0  0  0  0  0  0
  183.7850  177.0110  136.9650 C   0  0  1  0  0  0  0  0  0  0  0  0
  182.9690  175.5580  138.8910 C   0  0  0  0  0  1  0  0  0  0  0  0
  183.2390  175.6530  137.3840 C   0  0  1  0  0  0  0  0  0  0  0  0
  185.6040  175.4550  137.0250 O   0  0  0  0  0  0  0  0  0  0  0  0
  184.3880  174.7430  136.9530 C   0  0  1  0  0  3  0  0  0  0  0  0
  183.5660  177.2090  135.5920 O   0  0  0  0  0  1  0  0  0  0  0  0
  185.2770  176.8110  137.2290 C   0  0  1  0  0  3  0  0  0  0  0  0
  186.1570  177.7040  136.4110 C   0  0  0  0  0  3  0  0  0  0  0  0
  186.8850  178.5140  136.9590 O   0  0  0  0  0  0  0  0  0  0  0  0
  184.4760  173.4180  137.7020 C   0  0  0  0  0  2  0  0  0  0  0  0
  184.0850  172.2920  136.8170 C   0  0  0  0  0  0  0  0  0  0  0  0
  183.3220  171.3940  137.2510 O   0  0  0  0  0  1  0  0  0  0  0  0
  184.5780  172.2160  135.5240 O   0  0  0  0  0  0  0  0  0  0  0  0
  185.2520  178.9100  141.2800 C   0  0  0  0  0  2  0  0  0  0  0  0
  186.7620  178.8060  141.4330 C   0  0  0  0  0  2  0  0  0  0  0  0
  187.2430  177.7280  140.6880 O   0  0  0  0  0  0  0  0  0  0  0  0
  188.6160  177.6860  140.9680 C   0  0  1  0  0  3  0  0  0  0  0  0
  189.3980  178.4820  143.7080 C   0  0  0  0  0  2  0  0  0  0  0  0
  190.3670  177.0320  145.4120 N   0  0  0  0  0  0  0  0  0  0  0  0
  189.3730  177.0560  143.2620 C   0  0  1  0  0  0  0  0  0  0  0  0
  188.9050  176.5480  141.9470 C   0  0  1  0  0  3  0  0  0  0  0  0
  190.0480  176.1750  144.2680 C   0  0  0  0  0  2  0  0  0  0  0  0
  190.3080  178.4200  144.9240 C   0  0  0  0  0  2  0  0  0  0  0  0
  188.0460  176.6380  143.0600 O   0  0  0  0  0  0  0  0  0  0  0  0
  191.7430  176.7510  145.8240 C   0  0  0  0  0  3  0  0  0  0  0  0
  191.8530  176.8250  147.2160 O   0  0  0  0  0  1  0  0  0  0  0  0
  192.1180  175.4690  145.4110 O   0  0  0  0  0  1  0  0  0  0  0  0
  189.4980  178.7800  139.0190 O   0  0  0  0  0  1  0  0  0  0  0  0
  189.4380  177.5480  139.6770 C   0  0  0  0  0  0  0  0  0  0  0  0
  188.8410  176.6060  138.8400 O   0  0  0  0  0  1  0  0  0  0  0  0
  190.8470  177.0740  140.0320 C   0  0  0  0  0  2  0  0  0  0  0  0
  191.8700  177.3590  138.9390 C   0  0  0  0  0  2  0  0  0  0  0  0
  193.8730  176.1550  138.4820 O   0  0  0  0  0  0  0  0  0  0  0  0
  193.2820  176.3310  137.2130 C   0  0  2  0  0  3  0  0  0  0  0  0
  192.4680  176.0640  138.4260 C   0  0  2  0  0  3  0  0  0  0  0  0
  192.7450  173.8400  136.8090 C   0  0  0  0  0  1  0  0  0  0  0  0
  194.9500  174.7770  136.2550 C   0  0  0  0  0  1  0  0  0  0  0  0
  192.9930  175.4050  134.9170 C   0  0  0  0  0  1  0  0  0  0  0  0
  193.4710  175.0890  136.3200 C   0  0  0  0  0  0  0  0  0  0  0  0
  1  4  1  0  0  0  0
  2  7  1  6  0  0  0
  2  6  1  0  0  0  0
  3  2  1  0  0  0  0
  5 30  1  6  0  0  0
  5  3  1  0  0  0  0
  5  1  1  0  0  0  0
  6  4  1  0  0  0  0
  8  7  1  0  0  0  0
  9  8  1  0  0  0  0
 10  9  1  0  0  0  0
 11 10  1  0  0  0  0
 12 11  1  0  0  0  0
 13 14  1  0  0  0  0
 13 12  1  0  0  0  0
 14 15  2  0  0  0  0
 16 19  1  0  0  0  0
 17 22  1  6  0  0  0
 17 23  1  0  0  0  0
 17 19  1  0  0  0  0
 17 14  1  0  0  0  0
 19 18  1  1  0  0  0
 20 23  1  0  0  0  0
 21 20  1  0  0  0  0
 21 19  1  0  0  0  0
 21 26  1  1  0  0  0
 23 24  1  6  0  0  0
 24 25  2  0  0  0  0
 27 28  1  0  0  0  0
 27 26  1  0  0  0  0
 29 27  2  0  0  0  0
 30 31  1  0  0  0  0
 32 31  1  0  0  0  0
 33 32  1  6  0  0  0
 34 39  1  0  0  0  0
 35 41  1  0  0  0  0
 36 34  1  1  0  0  0
 36 38  1  0  0  0  0
 37 33  1  6  0  0  0
 37 40  1  0  0  0  0
 37 36  1  0  0  0  0
 38 35  1  0  0  0  0
 39 35  1  0  0  0  0
 40 36  1  0  0  0  0
 41 42  1  0  0  0  0
 43 41  1  0  0  0  0
 44 45  1  0  0  0  0
 45 47  1  0  0  0  0
 45 33  1  0  0  0  0
 46 45  1  0  0  0  0
 48 47  1  0  0  0  0
 50 55  1  6  0  0  0
 50 51  1  0  0  0  0
 50 49  1  0  0  0  0
 51 49  1  0  0  0  0
 51 48  1  1  0  0  0
 53 55  1  0  0  0  0
 54 55  1  0  0  0  0
 55 52  1  0  0  0  0
M  END
>  <MODEL>
1

>  <REMARK>
 VINA RESULT:      -6.3      0.000      0.000
  Name = 
  22 active torsions:
  status: ('A' for Active; 'I' for Inactive)
    1  A    between atoms: C_1  and  C_53
    2  A    between atoms: C_2  and  C_28
    3  A    between atoms: C_2  and  C_44
    4  A    between atoms: C_6  and  C_20
    5  A    between atoms: N_7  and  C_22
    6  A    between atoms: C_8  and  C_22
    7  A    between atoms: C_8  and  C_35
    8  A    between atoms: C_10  and  N_32
    9  A    between atoms: C_11  and  C_29
   10  A    between atoms: C_16  and  C_17
   11  A    between atoms: C_16  and  C_26
   12  A    between atoms: C_17  and  C_33
   13  A    between atoms: C_19  and  C_40
   14  A    between atoms: C_26  and  C_45
   15  A    between atoms: C_27  and  C_54
   16  A    between atoms: C_28  and  O_49
   17  A    between atoms: C_29  and  C_38
   18  A    between atoms: C_33  and  C_36
   19  A    between atoms: C_33  and  O_49
   20  A    between atoms: C_35  and  C_43
   21  A    between atoms: C_43  and  C_51
   22  A    between atoms: C_51  and  C_54
                            x       y       z     vdW  Elec       q    Type
                         _______ _______ _______ _____ _____    ______ ____

>  <TORSDO>
F 22

$$$$
=
 OpenBabel10262420283D

 55 59  0  0  1  0  0  0  0  0999 V2000
  188.4660  178.2290  140.2010 C   0  0  0  0  0  2  0  0  0  0  0  0
  187.9060  177.2580  142.7260 C   0  0  2  0  0  3  0  0  0  0  0  0
  189.2060  176.9930  142.2010 O   0  0  0  0  0  0  0  0  0  0  0  0
  187.1470  178.3880  140.9490 C   0  0  0  0  0  2  0  0  0  0  0  0
  189.5860  177.9260  141.2030 C   0  0  1  0  0  3  0  0  0  0  0  0
  187.3800  178.5050  142.3280 O   0  0  0  0  0  0  0  0  0  0  0  0
  187.9230  177.1650  144.2410 C   0  0  0  0  0  2  0  0  0  0  0  0
  186.5020  177.1550  144.7780 C   0  0  0  0  0  2  0  0  0  0  0  0
  186.3150  178.2630  145.7970 C   0  0  0  0  0  2  0  0  0  0  0  0
  184.9500  178.9060  145.6200 C   0  0  0  0  0  2  0  0  0  0  0  0
  184.7620  179.4040  144.1950 C   0  0  0  0  0  2  0  0  0  0  0  0
  183.3710  179.0710  143.6820 C   0  0  0  0  0  2  0  0  0  0  0  0
  183.4160  178.8330  142.2470 N   0  0  0  0  0  2  0  0  0  0  0  0
  182.2390  178.5420  141.4880 C   0  0  0  0  0  0  0  0  0  0  0  0
  181.1190  178.4770  142.0640 O   0  0  0  0  0  0  0  0  0  0  0  0
  183.1490  180.4040  138.9970 O   0  0  0  0  0  1  0  0  0  0  0  0
  182.3440  178.3540  139.9920 C   0  0  1  0  0  0  0  0  0  0  0  0
  180.8940  180.4400  139.7980 C   0  0  0  0  0  1  0  0  0  0  0  0
  182.0200  179.6000  139.1800 C   0  0  1  0  0  0  0  0  0  0  0  0
  181.0380  177.6960  138.0970 O   0  0  0  0  0  0  0  0  0  0  0  0
  181.5970  178.9680  137.8540 C   0  0  1  0  0  3  0  0  0  0  0  0
  183.6360  177.9020  139.6740 O   0  0  0  0  0  1  0  0  0  0  0  0
  181.3040  177.3790  139.4450 C   0  0  1  0  0  3  0  0  0  0  0  0
  181.6930  175.9410  139.5890 C   0  0  0  0  0  3  0  0  0  0  0  0
  180.8440  175.0680  139.5210 O   0  0  0  0  0  0  0  0  0  0  0  0
  180.6720  179.8260  136.9970 C   0  0  0  0  0  2  0  0  0  0  0  0
  181.0890  179.7790  135.5730 C   0  0  0  0  0  0  0  0  0  0  0  0
  180.9140  180.7830  134.8390 O   0  0  0  0  0  0  0  0  0  0  0  0
  181.6440  178.6240  135.0460 O   0  0  0  0  0  1  0  0  0  0  0  0
  190.8450  177.4580  140.4900 C   0  0  0  0  0  2  0  0  0  0  0  0
  190.5110  176.4620  139.3900 C   0  0  0  0  0  2  0  0  0  0  0  0
  190.6160  177.0770  138.1410 O   0  0  0  0  0  0  0  0  0  0  0  0
  191.4010  176.2020  137.3780 C   0  0  1  0  0  3  0  0  0  0  0  0
  194.1020  176.1210  136.1720 C   0  0  0  0  0  2  0  0  0  0  0  0
  196.0240  174.8810  137.0180 N   0  0  0  0  0  0  0  0  0  0  0  0
  193.8040  175.5420  137.5180 C   0  0  1  0  0  0  0  0  0  0  0  0
  192.5140  175.6180  138.2490 C   0  0  1  0  0  3  0  0  0  0  0  0
  194.9510  174.7070  137.9990 C   0  0  0  0  0  2  0  0  0  0  0  0
  195.3920  175.4080  135.7980 C   0  0  0  0  0  2  0  0  0  0  0  0
  193.5320  176.5730  138.4350 O   0  0  0  0  0  0  0  0  0  0  0  0
  196.5800  173.5630  136.7100 C   0  0  0  0  0  3  0  0  0  0  0  0
  196.7160  172.8130  137.8820 O   0  0  0  0  0  1  0  0  0  0  0  0
  195.7350  172.8760  135.8320 O   0  0  0  0  0  1  0  0  0  0  0  0
  190.6180  173.9340  137.5090 O   0  0  0  0  0  1  0  0  0  0  0  0
  190.5380  175.1000  136.7430 C   0  0  0  0  0  0  0  0  0  0  0  0
  190.9940  174.8350  135.4500 O   0  0  0  0  0  1  0  0  0  0  0  0
  189.0900  175.5820  136.6690 C   0  0  0  0  0  2  0  0  0  0  0  0
  188.2070  174.7000  135.7940 C   0  0  0  0  0  2  0  0  0  0  0  0
  187.2960  172.8300  136.9520 O   0  0  0  0  0  0  0  0  0  0  0  0
  186.4090  173.0300  135.8750 C   0  0  2  0  0  3  0  0  0  0  0  0
  187.0350  174.1670  136.5950 C   0  0  2  0  0  3  0  0  0  0  0  0
  183.9390  173.7500  135.6780 C   0  0  0  0  0  1  0  0  0  0  0  0
  184.8550  172.8930  137.7940 C   0  0  0  0  0  1  0  0  0  0  0  0
  184.5500  171.3680  135.8970 C   0  0  0  0  0  1  0  0  0  0  0  0
  184.9450  172.7780  136.2880 C   0  0  0  0  0  0  0  0  0  0  0  0
  1  4  1  0  0  0  0
  1  5  1  0  0  0  0
  2  7  1  1  0  0  0
  3  2  1  0  0  0  0
  4  6  1  0  0  0  0
  5 30  1  6  0  0  0
  5  3  1  0  0  0  0
  6  2  1  0  0  0  0
  7  8  1  0  0  0  0
  8  9  1  0  0  0  0
 10  9  1  0  0  0  0
 11 10  1  0  0  0  0
 12 11  1  0  0  0  0
 13 12  1  0  0  0  0
 14 15  2  0  0  0  0
 14 13  1  0  0  0  0
 16 19  1  0  0  0  0
 17 22  1  6  0  0  0
 17 14  1  0  0  0  0
 19 18  1  1  0  0  0
 19 17  1  0  0  0  0
 20 23  1  0  0  0  0
 21 26  1  1  0  0  0
 21 20  1  0  0  0  0
 21 19  1  0  0  0  0
 23 24  1  6  0  0  0
 23 17  1  0  0  0  0
 25 24  2  0  0  0  0
 27 26  1  0  0  0  0
 28 27  2  0  0  0  0
 29 27  1  0  0  0  0
 31 30  1  0  0  0  0
 32 31  1  0  0  0  0
 33 32  1  1  0  0  0
 35 38  1  0  0  0  0
 36 34  1  6  0  0  0
 36 38  1  0  0  0  0
 36 37  1  0  0  0  0
 36 40  1  0  0  0  0
 37 33  1  6  0  0  0
 37 40  1  0  0  0  0
 39 34  1  0  0  0  0
 39 35  1  0  0  0  0
 41 35  1  0  0  0  0
 41 42  1  0  0  0  0
 43 41  1  0  0  0  0
 45 33  1  0  0  0  0
 45 44  1  0  0  0  0
 46 45  1  0  0  0  0
 47 45  1  0  0  0  0
 48 47  1  0  0  0  0
 50 55  1  1  0  0  0
 50 51  1  0  0  0  0
 50 49  1  0  0  0  0
 51 48  1  6  0  0  0
 51 49  1  0  0  0  0
 52 55  1  0  0  0  0
 54 55  1  0  0  0  0
 55 53  1  0  0  0  0
M  END
>  <MODEL>
2

>  <REMARK>
 VINA RESULT:      -6.1      2.667      6.905
  Name = 
  22 active torsions:
  status: ('A' for Active; 'I' for Inactive)
    1  A    between atoms: C_1  and  C_53
    2  A    between atoms: C_2  and  C_28
    3  A    between atoms: C_2  and  C_44
    4  A    between atoms: C_6  and  C_20
    5  A    between atoms: N_7  and  C_22
    6  A    between atoms: C_8  and  C_22
    7  A    between atoms: C_8  and  C_35
    8  A    between atoms: C_10  and  N_32
    9  A    between atoms: C_11  and  C_29
   10  A    between atoms: C_16  and  C_17
   11  A    between atoms: C_16  and  C_26
   12  A    between atoms: C_17  and  C_33
   13  A    between atoms: C_19  and  C_40
   14  A    between atoms: C_26  and  C_45
   15  A    between atoms: C_27  and  C_54
   16  A    between atoms: C_28  and  O_49
   17  A    between atoms: C_29  and  C_38
   18  A    between atoms: C_33  and  C_36
   19  A    between atoms: C_33  and  O_49
   20  A    between atoms: C_35  and  C_43
   21  A    between atoms: C_43  and  C_51
   22  A    between atoms: C_51  and  C_54
                            x       y       z     vdW  Elec       q    Type
                         _______ _______ _______ _____ _____    ______ ____

>  <TORSDO>
F 22

$$$$
=
 OpenBabel10262420283D

 55 59  0  0  1  0  0  0  0  0999 V2000
  184.3110  178.3640  142.3870 C   0  0  0  0  0  2  0  0  0  0  0  0
  185.1460  179.2650  144.8620 C   0  0  2  0  0  3  0  0  0  0  0  0
  183.8230  179.6130  144.4560 O   0  0  0  0  0  0  0  0  0  0  0  0
  185.6780  178.1190  143.0150 C   0  0  0  0  0  2  0  0  0  0  0  0
  183.3020  178.7180  143.4870 C   0  0  1  0  0  3  0  0  0  0  0  0
  185.5610  177.9960  144.4080 O   0  0  0  0  0  0  0  0  0  0  0  0
  185.2660  179.3380  146.3740 C   0  0  0  0  0  2  0  0  0  0  0  0
  186.2100  178.2570  146.8730 C   0  0  0  0  0  2  0  0  0  0  0  0
  187.2210  178.8440  147.8400 C   0  0  0  0  0  2  0  0  0  0  0  0
  187.9640  177.7280  148.5540 C   0  0  0  0  0  2  0  0  0  0  0  0
  189.4580  177.8030  148.2790 C   0  0  0  0  0  2  0  0  0  0  0  0
  189.9060  176.6560  147.3890 C   0  0  0  0  0  2  0  0  0  0  0  0
  190.2590  177.1610  146.0700 N   0  0  0  0  0  2  0  0  0  0  0  0
  189.3300  177.1640  144.9840 C   0  0  0  0  0  0  0  0  0  0  0  0
  188.1650  176.7110  145.1510 O   0  0  0  0  0  0  0  0  0  0  0  0
  188.4780  176.6700  141.8970 O   0  0  0  0  0  1  0  0  0  0  0  0
  189.7410  177.7480  143.6520 C   0  0  1  0  0  0  0  0  0  0  0  0
  190.1860  175.3480  142.9250 C   0  0  0  0  0  1  0  0  0  0  0  0
  189.7360  176.7520  142.5010 C   0  0  1  0  0  0  0  0  0  0  0  0
  191.6810  178.1440  142.3060 O   0  0  0  0  0  0  0  0  0  0  0  0
  190.7390  177.4100  141.5550 C   0  0  1  0  0  3  0  0  0  0  0  0
  188.9010  178.8320  143.3460 O   0  0  0  0  0  1  0  0  0  0  0  0
  191.2000  178.2000  143.6310 C   0  0  1  0  0  3  0  0  0  0  0  0
  191.4180  179.5570  144.2220 C   0  0  0  0  0  3  0  0  0  0  0  0
  192.5410  179.9150  144.5350 O   0  0  0  0  0  0  0  0  0  0  0  0
  191.4260  176.4590  140.5810 C   0  0  0  0  0  2  0  0  0  0  0  0
  190.6910  176.4140  139.2920 C   0  0  0  0  0  0  0  0  0  0  0  0
  189.8940  177.3370  138.9970 O   0  0  0  0  0  1  0  0  0  0  0  0
  190.8650  175.3440  138.4270 O   0  0  0  0  0  0  0  0  0  0  0  0
  182.0160  179.2680  142.8920 C   0  0  0  0  0  2  0  0  0  0  0  0
  181.5560  178.4260  141.7120 C   0  0  0  0  0  2  0  0  0  0  0  0
  181.0410  179.2510  140.7100 O   0  0  0  0  0  0  0  0  0  0  0  0
  181.2580  178.5440  139.5190 C   0  0  1  0  0  3  0  0  0  0  0  0
  181.0480  175.6160  139.1480 C   0  0  0  0  0  2  0  0  0  0  0  0
  179.3070  174.4380  137.9120 N   0  0  0  0  0  0  0  0  0  0  0  0
  179.9580  176.5570  138.7490 C   0  0  1  0  0  0  0  0  0  0  0  0
  179.9250  178.0230  138.9810 C   0  0  1  0  0  3  0  0  0  0  0  0
  178.9320  175.8540  137.9140 C   0  0  0  0  0  2  0  0  0  0  0  0
  180.7180  174.3800  138.3270 C   0  0  0  0  0  2  0  0  0  0  0  0
  179.3580  177.1120  139.8930 O   0  0  0  0  0  0  0  0  0  0  0  0
  179.2150  173.9420  136.5380 C   0  0  0  0  0  3  0  0  0  0  0  0
  179.1300  175.0140  135.6450 O   0  0  0  0  0  1  0  0  0  0  0  0
  180.3460  173.1820  136.2230 O   0  0  0  0  0  1  0  0  0  0  0  0
  182.4930  180.5620  139.1040 O   0  0  0  0  0  1  0  0  0  0  0  0
  181.9880  179.4150  138.4850 C   0  0  0  0  0  0  0  0  0  0  0  0
  181.0990  179.7890  137.4770 O   0  0  0  0  0  1  0  0  0  0  0  0
  183.1280  178.6060  137.8670 C   0  0  0  0  0  2  0  0  0  0  0  0
  184.4570  178.7930  138.5900 C   0  0  0  0  0  2  0  0  0  0  0  0
  186.7070  178.3100  137.9770 O   0  0  0  0  0  0  0  0  0  0  0  0
  185.9670  178.0230  136.8130 C   0  0  2  0  0  3  0  0  0  0  0  0
  185.4420  177.7200  138.1680 C   0  0  2  0  0  3  0  0  0  0  0  0
  185.5810  176.2090  135.0190 C   0  0  0  0  0  1  0  0  0  0  0  0
  186.7740  175.7040  137.1090 C   0  0  0  0  0  1  0  0  0  0  0  0
  187.8340  177.1330  135.4210 C   0  0  0  0  0  1  0  0  0  0  0  0
  186.5150  176.7830  136.0800 C   0  0  0  0  0  0  0  0  0  0  0  0
  1  4  1  0  0  0  0
  1  5  1  0  0  0  0
  2  7  1  1  0  0  0
  3  2  1  0  0  0  0
  4  6  1  0  0  0  0
  5 30  1  6  0  0  0
  5  3  1  0  0  0  0
  6  2  1  0  0  0  0
  7  8  1  0  0  0  0
  8  9  1  0  0  0  0
  9 10  1  0  0  0  0
 11 10  1  0  0  0  0
 12 11  1  0  0  0  0
 13 12  1  0  0  0  0
 14 15  2  0  0  0  0
 14 13  1  0  0  0  0
 16 19  1  0  0  0  0
 17 22  1  6  0  0  0
 17 14  1  0  0  0  0
 19 18  1  1  0  0  0
 19 17  1  0  0  0  0
 20 23  1  0  0  0  0
 21 26  1  1  0  0  0
 21 20  1  0  0  0  0
 21 19  1  0  0  0  0
 23 17  1  0  0  0  0
 23 24  1  6  0  0  0
 24 25  2  0  0  0  0
 27 26  1  0  0  0  0
 28 27  1  0  0  0  0
 29 27  2  0  0  0  0
 31 30  1  0  0  0  0
 32 31  1  0  0  0  0
 33 32  1  1  0  0  0
 35 38  1  0  0  0  0
 35 39  1  0  0  0  0
 36 38  1  6  0  0  0
 36 37  1  0  0  0  0
 36 34  1  0  0  0  0
 36 40  1  0  0  0  0
 37 33  1  1  0  0  0
 37 40  1  0  0  0  0
 39 34  1  0  0  0  0
 41 35  1  0  0  0  0
 42 41  1  0  0  0  0
 43 41  1  0  0  0  0
 45 44  1  0  0  0  0
 45 33  1  0  0  0  0
 46 45  1  0  0  0  0
 47 45  1  0  0  0  0
 47 48  1  0  0  0  0
 49 51  1  0  0  0  0
 50 55  1  6  0  0  0
 50 49  1  0  0  0  0
 50 51  1  0  0  0  0
 51 48  1  1  0  0  0
 52 55  1  0  0  0  0
 54 55  1  0  0  0  0
 55 53  1  0  0  0  0
M  END
>  <MODEL>
3

>  <REMARK>
 VINA RESULT:      -5.9      2.562      9.027
  Name = 
  22 active torsions:
  status: ('A' for Active; 'I' for Inactive)
    1  A    between atoms: C_1  and  C_53
    2  A    between atoms: C_2  and  C_28
    3  A    between atoms: C_2  and  C_44
    4  A    between atoms: C_6  and  C_20
    5  A    between atoms: N_7  and  C_22
    6  A    between atoms: C_8  and  C_22
    7  A    between atoms: C_8  and  C_35
    8  A    between atoms: C_10  and  N_32
    9  A    between atoms: C_11  and  C_29
   10  A    between atoms: C_16  and  C_17
   11  A    between atoms: C_16  and  C_26
   12  A    between atoms: C_17  and  C_33
   13  A    between atoms: C_19  and  C_40
   14  A    between atoms: C_26  and  C_45
   15  A    between atoms: C_27  and  C_54
   16  A    between atoms: C_28  and  O_49
   17  A    between atoms: C_29  and  C_38
   18  A    between atoms: C_33  and  C_36
   19  A    between atoms: C_33  and  O_49
   20  A    between atoms: C_35  and  C_43
   21  A    between atoms: C_43  and  C_51
   22  A    between atoms: C_51  and  C_54
                            x       y       z     vdW  Elec       q    Type
                         _______ _______ _______ _____ _____    ______ ____

>  <TORSDO>
F 22

$$$$
=
 OpenBabel10262420283D

 55 59  0  0  1  0  0  0  0  0999 V2000
  184.8150  178.6680  145.8370 C   0  0  0  0  0  2  0  0  0  0  0  0
  186.7590  177.1850  144.5500 C   0  0  2  0  0  3  0  0  0  0  0  0
  185.6250  177.5790  143.7790 O   0  0  0  0  0  0  0  0  0  0  0  0
  186.0990  178.1370  146.4650 C   0  0  0  0  0  2  0  0  0  0  0  0
  184.9790  178.7240  144.3140 C   0  0  1  0  0  3  0  0  0  0  0  0
  187.1380  178.1340  145.5220 O   0  0  0  0  0  0  0  0  0  0  0  0
  187.9340  176.8820  143.6370 C   0  0  0  0  0  2  0  0  0  0  0  0
  188.5410  178.1780  143.1240 C   0  0  0  0  0  2  0  0  0  0  0  0
  188.8040  178.0830  141.6330 C   0  0  0  0  0  2  0  0  0  0  0  0
  189.3020  176.6900  141.2820 C   0  0  0  0  0  2  0  0  0  0  0  0
  190.7140  176.7400  140.7190 C   0  0  0  0  0  2  0  0  0  0  0  0
  190.7970  177.7000  139.5440 C   0  0  0  0  0  2  0  0  0  0  0  0
  190.1910  177.0950  138.3660 N   0  0  0  0  0  2  0  0  0  0  0  0
  189.3300  177.8300  137.4930 C   0  0  0  0  0  0  0  0  0  0  0  0
  189.0690  179.0390  137.7380 O   0  0  0  0  0  0  0  0  0  0  0  0
  186.8410  178.3960  135.4980 O   0  0  0  0  0  1  0  0  0  0  0  0
  188.7730  177.1600  136.2590 C   0  0  1  0  0  0  0  0  0  0  0  0
  186.5460  177.1110  137.4950 C   0  0  0  0  0  1  0  0  0  0  0  0
  187.2560  177.2260  136.1400 C   0  0  1  0  0  0  0  0  0  0  0  0
  187.9870  175.0370  135.4800 O   0  0  0  0  0  0  0  0  0  0  0  0
  186.9910  176.0100  135.2530 C   0  0  1  0  0  3  0  0  0  0  0  0
  189.3640  177.7300  135.1190 O   0  0  0  0  0  1  0  0  0  0  0  0
  188.9930  175.6480  136.2560 C   0  0  1  0  0  3  0  0  0  0  0  0
  190.3540  175.2400  135.7870 C   0  0  0  0  0  3  0  0  0  0  0  0
  190.9860  174.3990  136.4040 O   0  0  0  0  0  0  0  0  0  0  0  0
  185.5930  175.4130  135.3790 C   0  0  0  0  0  2  0  0  0  0  0  0
  185.6700  173.9450  135.5870 C   0  0  0  0  0  0  0  0  0  0  0  0
  185.6740  173.1760  134.5950 O   0  0  0  0  0  0  0  0  0  0  0  0
  185.7110  173.4230  136.8700 O   0  0  0  0  0  1  0  0  0  0  0  0
  183.6400  178.9480  143.6280 C   0  0  0  0  0  2  0  0  0  0  0  0
  183.6890  178.5020  142.1760 C   0  0  0  0  0  2  0  0  0  0  0  0
  183.2120  179.5200  141.3480 O   0  0  0  0  0  0  0  0  0  0  0  0
  182.3270  178.8800  140.4690 C   0  0  1  0  0  3  0  0  0  0  0  0
  182.5560  177.7090  137.7620 C   0  0  0  0  0  2  0  0  0  0  0  0
  182.6170  175.3330  137.2170 N   0  0  0  0  0  0  0  0  0  0  0  0
  182.6630  176.8860  139.0050 C   0  0  1  0  0  0  0  0  0  0  0  0
  182.6590  177.3890  140.4030 C   0  0  1  0  0  3  0  0  0  0  0  0
  182.6100  175.4260  138.6780 C   0  0  0  0  0  2  0  0  0  0  0  0
  182.2260  176.6600  136.7130 C   0  0  0  0  0  2  0  0  0  0  0  0
  183.8550  177.1920  139.6850 O   0  0  0  0  0  0  0  0  0  0  0  0
  181.5900  174.3710  136.8140 C   0  0  0  0  0  3  0  0  0  0  0  0
  180.6670  174.1930  137.8480 O   0  0  0  0  0  1  0  0  0  0  0  0
  180.9140  174.8340  135.6810 O   0  0  0  0  0  1  0  0  0  0  0  0
  180.8280  179.8610  142.0700 O   0  0  0  0  0  1  0  0  0  0  0  0
  180.8680  179.1200  140.8850 C   0  0  0  0  0  0  0  0  0  0  0  0
  180.2310  177.8940  141.0850 O   0  0  0  0  0  1  0  0  0  0  0  0
  180.1490  179.8760  139.7690 C   0  0  0  0  0  2  0  0  0  0  0  0
  181.0930  180.6880  138.8890 C   0  0  0  0  0  2  0  0  0  0  0  0
  180.6300  181.3700  136.6550 O   0  0  0  0  0  0  0  0  0  0  0  0
  181.2370  182.5010  137.2390 C   0  0  2  0  0  3  0  0  0  0  0  0
  180.3050  181.6310  138.0010 C   0  0  2  0  0  3  0  0  0  0  0  0
  179.1500  184.0190  137.2210 C   0  0  0  0  0  1  0  0  0  0  0  0
  180.5890  183.8030  135.2390 C   0  0  0  0  0  1  0  0  0  0  0  0
  181.4210  184.9870  137.2190 C   0  0  0  0  0  1  0  0  0  0  0  0
  180.5870  183.8110  136.7520 C   0  0  0  0  0  0  0  0  0  0  0  0
  1  4  1  0  0  0  0
  2  7  1  6  0  0  0
  2  6  1  0  0  0  0
  3  5  1  0  0  0  0
  3  2  1  0  0  0  0
  5 30  1  6  0  0  0
  5  1  1  0  0  0  0
  6  4  1  0  0  0  0
  8  7  1  0  0  0  0
  9  8  1  0  0  0  0
 10  9  1  0  0  0  0
 11 10  1  0  0  0  0
 12 11  1  0  0  0  0
 13 12  1  0  0  0  0
 14 15  2  0  0  0  0
 14 13  1  0  0  0  0
 16 19  1  0  0  0  0
 17 22  1  6  0  0  0
 17 14  1  0  0  0  0
 19 17  1  0  0  0  0
 19 18  1  1  0  0  0
 20 23  1  0  0  0  0
 21 26  1  1  0  0  0
 21 20  1  0  0  0  0
 21 19  1  0  0  0  0
 23 24  1  6  0  0  0
 23 17  1  0  0  0  0
 24 25  2  0  0  0  0
 26 27  1  0  0  0  0
 27 29  1  0  0  0  0
 28 27  2  0  0  0  0
 31 30  1  0  0  0  0
 32 31  1  0  0  0  0
 33 45  1  0  0  0  0
 33 32  1  1  0  0  0
 35 38  1  0  0  0  0
 36 34  1  6  0  0  0
 36 40  1  0  0  0  0
 36 37  1  0  0  0  0
 37 33  1  6  0  0  0
 38 36  1  0  0  0  0
 39 35  1  0  0  0  0
 39 34  1  0  0  0  0
 40 37  1  0  0  0  0
 41 35  1  0  0  0  0
 41 42  1  0  0  0  0
 43 41  1  0  0  0  0
 45 46  1  0  0  0  0
 45 44  1  0  0  0  0
 47 45  1  0  0  0  0
 48 47  1  0  0  0  0
 49 50  1  0  0  0  0
 49 51  1  0  0  0  0
 50 55  1  6  0  0  0
 50 51  1  0  0  0  0
 51 48  1  1  0  0  0
 53 55  1  0  0  0  0
 55 54  1  0  0  0  0
 55 52  1  0  0  0  0
M  END
>  <MODEL>
4

>  <REMARK>
 VINA RESULT:      -5.7      2.653      8.885
  Name = 
  22 active torsions:
  status: ('A' for Active; 'I' for Inactive)
    1  A    between atoms: C_1  and  C_53
    2  A    between atoms: C_2  and  C_28
    3  A    between atoms: C_2  and  C_44
    4  A    between atoms: C_6  and  C_20
    5  A    between atoms: N_7  and  C_22
    6  A    between atoms: C_8  and  C_22
    7  A    between atoms: C_8  and  C_35
    8  A    between atoms: C_10  and  N_32
    9  A    between atoms: C_11  and  C_29
   10  A    between atoms: C_16  and  C_17
   11  A    between atoms: C_16  and  C_26
   12  A    between atoms: C_17  and  C_33
   13  A    between atoms: C_19  and  C_40
   14  A    between atoms: C_26  and  C_45
   15  A    between atoms: C_27  and  C_54
   16  A    between atoms: C_28  and  O_49
   17  A    between atoms: C_29  and  C_38
   18  A    between atoms: C_33  and  C_36
   19  A    between atoms: C_33  and  O_49
   20  A    between atoms: C_35  and  C_43
   21  A    between atoms: C_43  and  C_51
   22  A    between atoms: C_51  and  C_54
                            x       y       z     vdW  Elec       q    Type
                         _______ _______ _______ _____ _____    ______ ____

>  <TORSDO>
F 22

$$$$
=
 OpenBabel10262420283D

 55 59  0  0  1  0  0  0  0  0999 V2000
  184.6420  179.2480  144.6250 C   0  0  0  0  0  2  0  0  0  0  0  0
  182.2970  179.1850  143.1650 C   0  0  2  0  0  3  0  0  0  0  0  0
  183.4980  179.4840  142.4540 O   0  0  0  0  0  0  0  0  0  0  0  0
  183.2510  178.9590  145.1770 C   0  0  0  0  0  2  0  0  0  0  0  0
  184.6520  178.9910  143.1130 C   0  0  1  0  0  3  0  0  0  0  0  0
  182.4800  178.2730  144.2250 O   0  0  0  0  0  0  0  0  0  0  0  0
  181.2390  178.6610  142.2100 C   0  0  0  0  0  2  0  0  0  0  0  0
  181.8740  178.3030  140.8770 C   0  0  0  0  0  2  0  0  0  0  0  0
  180.8320  178.3250  139.7740 C   0  0  0  0  0  2  0  0  0  0  0  0
  181.1820  179.3940  138.7520 C   0  0  0  0  0  2  0  0  0  0  0  0
  182.3660  178.9670  137.8980 C   0  0  0  0  0  2  0  0  0  0  0  0
  181.9990  177.7920  137.0080 C   0  0  0  0  0  2  0  0  0  0  0  0
  182.8940  176.6730  137.2700 N   0  0  0  0  0  2  0  0  0  0  0  0
  182.9750  175.5460  136.3940 C   0  0  0  0  0  0  0  0  0  0  0  0
  182.2510  175.4960  135.3620 O   0  0  0  0  0  0  0  0  0  0  0  0
  186.1210  175.4160  137.1570 O   0  0  0  0  0  1  0  0  0  0  0  0
  183.9600  174.4400  136.6930 C   0  0  1  0  0  0  0  0  0  0  0  0
  185.4140  175.4700  134.8720 C   0  0  0  0  0  1  0  0  0  0  0  0
  185.3770  174.7130  136.2060 C   0  0  1  0  0  0  0  0  0  0  0  0
  184.8370  172.4170  135.7590 O   0  0  0  0  0  0  0  0  0  0  0  0
  185.9050  173.2860  136.0650 C   0  0  1  0  0  3  0  0  0  0  0  0
  183.9720  174.1950  138.0760 O   0  0  0  0  0  1  0  0  0  0  0  0
  183.6450  173.1480  135.9410 C   0  0  1  0  0  3  0  0  0  0  0  0
  182.5970  172.3080  136.6010 C   0  0  0  0  0  3  0  0  0  0  0  0
  182.0420  171.4200  135.9770 O   0  0  0  0  0  0  0  0  0  0  0  0
  187.0560  173.1190  135.0790 C   0  0  0  0  0  2  0  0  0  0  0  0
  188.1520  172.3230  135.6880 C   0  0  0  0  0  0  0  0  0  0  0  0
  188.0700  171.0700  135.7160 O   0  0  0  0  0  0  0  0  0  0  0  0
  189.2500  172.9580  136.2450 O   0  0  0  0  0  1  0  0  0  0  0  0
  185.9120  179.5540  142.4730 C   0  0  0  0  0  2  0  0  0  0  0  0
  186.1250  178.9730  141.0840 C   0  0  0  0  0  2  0  0  0  0  0  0
  186.7780  177.7420  141.1780 O   0  0  0  0  0  0  0  0  0  0  0  0
  188.1100  178.0190  140.8390 C   0  0  1  0  0  3  0  0  0  0  0  0
  188.6310  178.0500  143.7510 C   0  0  0  0  0  2  0  0  0  0  0  0
  190.3460  176.7720  144.9250 N   0  0  0  0  0  0  0  0  0  0  0  0
  189.2840  177.0710  142.8280 C   0  0  1  0  0  0  0  0  0  0  0  0
  189.0170  176.9110  141.3760 C   0  0  1  0  0  3  0  0  0  0  0  0
  190.3960  176.3490  143.5240 C   0  0  0  0  0  2  0  0  0  0  0  0
  189.5570  178.0150  144.9570 C   0  0  0  0  0  2  0  0  0  0  0  0
  188.3320  176.1550  142.3470 O   0  0  0  0  0  0  0  0  0  0  0  0
  191.7080  177.0860  145.3570 C   0  0  0  0  0  3  0  0  0  0  0  0
  192.0770  178.3540  144.9010 O   0  0  0  0  0  1  0  0  0  0  0  0
  191.7860  177.0690  146.7540 O   0  0  0  0  0  1  0  0  0  0  0  0
  189.0390  179.3320  139.0540 O   0  0  0  0  0  1  0  0  0  0  0  0
  188.2670  178.1970  139.3210 C   0  0  0  0  0  0  0  0  0  0  0  0
  187.0100  178.3450  138.7340 O   0  0  0  0  0  1  0  0  0  0  0  0
  188.9420  176.9540  138.7410 C   0  0  0  0  0  2  0  0  0  0  0  0
  190.0780  177.2820  137.7790 C   0  0  0  0  0  2  0  0  0  0  0  0
  191.3140  175.4310  138.6270 O   0  0  0  0  0  0  0  0  0  0  0  0
  192.2630  176.1660  137.8870 C   0  0  2  0  0  3  0  0  0  0  0  0
  190.8560  176.0260  137.4350 C   0  0  2  0  0  3  0  0  0  0  0  0
  192.6120  173.9570  136.6000 C   0  0  0  0  0  1  0  0  0  0  0  0
  194.3510  174.8560  138.0880 C   0  0  0  0  0  1  0  0  0  0  0  0
  193.8530  175.9970  135.9740 C   0  0  0  0  0  1  0  0  0  0  0  0
  193.2400  175.2400  137.1350 C   0  0  0  0  0  0  0  0  0  0  0  0
  1  4  1  0  0  0  0
  2  7  1  6  0  0  0
  2  6  1  0  0  0  0
  3  5  1  0  0  0  0
  3  2  1  0  0  0  0
  5 30  1  6  0  0  0
  5  1  1  0  0  0  0
  6  4  1  0  0  0  0
  8  7  1  0  0  0  0
  9  8  1  0  0  0  0
 10  9  1  0  0  0  0
 11 10  1  0  0  0  0
 12 13  1  0  0  0  0
 12 11  1  0  0  0  0
 14 17  1  0  0  0  0
 14 13  1  0  0  0  0
 15 14  2  0  0  0  0
 17 22  1  1  0  0  0
 19 18  1  6  0  0  0
 19 17  1  0  0  0  0
 19 16  1  0  0  0  0
 20 23  1  0  0  0  0
 20 21  1  0  0  0  0
 21 26  1  6  0  0  0
 21 19  1  0  0  0  0
 23 24  1  1  0  0  0
 23 17  1  0  0  0  0
 25 24  2  0  0  0  0
 26 27  1  0  0  0  0
 27 28  2  0  0  0  0
 27 29  1  0  0  0  0
 31 32  1  0  0  0  0
 31 30  1  0  0  0  0
 33 32  1  6  0  0  0
 34 39  1  0  0  0  0
 35 39  1  0  0  0  0
 35 41  1  0  0  0  0
 36 38  1  1  0  0  0
 36 34  1  0  0  0  0
 37 33  1  1  0  0  0
 37 40  1  0  0  0  0
 37 36  1  0  0  0  0
 38 35  1  0  0  0  0
 40 36  1  0  0  0  0
 41 43  1  0  0  0  0
 42 41  1  0  0  0  0
 44 45  1  0  0  0  0
 45 33  1  0  0  0  0
 46 45  1  0  0  0  0
 47 45  1  0  0  0  0
 48 47  1  0  0  0  0
 50 55  1  6  0  0  0
 50 49  1  0  0  0  0
 51 48  1  1  0  0  0
 51 50  1  0  0  0  0
 51 49  1  0  0  0  0
 52 55  1  0  0  0  0
 54 55  1  0  0  0  0
 55 53  1  0  0  0  0
M  END
>  <MODEL>
5

>  <REMARK>
 VINA RESULT:      -5.4      1.665      2.794
  Name = 
  22 active torsions:
  status: ('A' for Active; 'I' for Inactive)
    1  A    between atoms: C_1  and  C_53
    2  A    between atoms: C_2  and  C_28
    3  A    between atoms: C_2  and  C_44
    4  A    between atoms: C_6  and  C_20
    5  A    between atoms: N_7  and  C_22
    6  A    between atoms: C_8  and  C_22
    7  A    between atoms: C_8  and  C_35
    8  A    between atoms: C_10  and  N_32
    9  A    between atoms: C_11  and  C_29
   10  A    between atoms: C_16  and  C_17
   11  A    between atoms: C_16  and  C_26
   12  A    between atoms: C_17  and  C_33
   13  A    between atoms: C_19  and  C_40
   14  A    between atoms: C_26  and  C_45
   15  A    between atoms: C_27  and  C_54
   16  A    between atoms: C_28  and  O_49
   17  A    between atoms: C_29  and  C_38
   18  A    between atoms: C_33  and  C_36
   19  A    between atoms: C_33  and  O_49
   20  A    between atoms: C_35  and  C_43
   21  A    between atoms: C_43  and  C_51
   22  A    between atoms: C_51  and  C_54
                            x       y       z     vdW  Elec       q    Type
                         _______ _______ _______ _____ _____    ______ ____

>  <TORSDO>
F 22

$$$$
=
 OpenBabel10262420283D

 55 59  0  0  1  0  0  0  0  0999 V2000
  188.7500  178.0440  140.0790 C   0  0  0  0  0  2  0  0  0  0  0  0
  188.1980  177.2610  142.6700 C   0  0  2  0  0  3  0  0  0  0  0  0
  189.4340  176.8230  142.1080 O   0  0  0  0  0  0  0  0  0  0  0  0
  187.4940  178.3890  140.8690 C   0  0  0  0  0  2  0  0  0  0  0  0
  189.8730  177.6590  141.0500 C   0  0  1  0  0  3  0  0  0  0  0  0
  187.8000  178.5410  142.2310 O   0  0  0  0  0  0  0  0  0  0  0  0
  188.2730  177.2360  144.1870 C   0  0  0  0  0  2  0  0  0  0  0  0
  186.8930  176.9920  144.7720 C   0  0  0  0  0  2  0  0  0  0  0  0
  186.4310  178.2040  145.5600 C   0  0  0  0  0  2  0  0  0  0  0  0
  185.0310  178.6020  145.1260 C   0  0  0  0  0  2  0  0  0  0  0  0
  184.9330  178.6940  143.6110 C   0  0  0  0  0  2  0  0  0  0  0  0
  183.4880  178.8420  143.1670 C   0  0  0  0  0  2  0  0  0  0  0  0
  183.4380  179.2670  141.7750 N   0  0  0  0  0  2  0  0  0  0  0  0
  183.4220  178.3290  140.6960 C   0  0  0  0  0  0  0  0  0  0  0  0
  183.4600  177.0910  140.9360 O   0  0  0  0  0  0  0  0  0  0  0  0
  181.6230  180.5480  139.1670 O   0  0  0  0  0  1  0  0  0  0  0  0
  183.3190  178.8300  139.2740 C   0  0  1  0  0  0  0  0  0  0  0  0
  180.8320  178.3080  139.4470 C   0  0  0  0  0  1  0  0  0  0  0  0
  181.9110  179.2190  138.8460 C   0  0  1  0  0  0  0  0  0  0  0  0
  182.9700  178.0470  137.0390 O   0  0  0  0  0  0  0  0  0  0  0  0
  182.0200  179.0490  137.3320 C   0  0  1  0  0  3  0  0  0  0  0  0
  184.1850  179.9240  139.1080 O   0  0  0  0  0  1  0  0  0  0  0  0
  183.6430  177.7510  138.2420 C   0  0  1  0  0  3  0  0  0  0  0  0
  185.1090  177.5670  138.0040 C   0  0  0  0  0  3  0  0  0  0  0  0
  185.5730  177.7400  136.8900 O   0  0  0  0  0  0  0  0  0  0  0  0
  180.6990  178.7870  136.6150 C   0  0  0  0  0  2  0  0  0  0  0  0
  180.7810  177.5430  135.8100 C   0  0  0  0  0  0  0  0  0  0  0  0
  181.3050  177.5720  134.6700 O   0  0  0  0  0  0  0  0  0  0  0  0
  180.2580  176.3570  136.3020 O   0  0  0  0  0  1  0  0  0  0  0  0
  191.0360  177.0150  140.3120 C   0  0  0  0  0  2  0  0  0  0  0  0
  190.5610  176.3140  139.0490 C   0  0  0  0  0  2  0  0  0  0  0  0
  190.9250  177.0590  137.9250 O   0  0  0  0  0  0  0  0  0  0  0  0
  191.0340  176.1150  136.8930 C   0  0  1  0  0  3  0  0  0  0  0  0
  193.2910  175.0390  135.3110 C   0  0  0  0  0  2  0  0  0  0  0  0
  194.2980  172.8310  135.5510 N   0  0  0  0  0  0  0  0  0  0  0  0
  192.7490  174.3400  136.5170 C   0  0  1  0  0  0  0  0  0  0  0  0
  191.6910  174.8430  137.4290 C   0  0  1  0  0  3  0  0  0  0  0  0
  193.2990  172.9510  136.6150 C   0  0  0  0  0  2  0  0  0  0  0  0
  194.0210  173.9150  134.5940 C   0  0  0  0  0  2  0  0  0  0  0  0
  193.0580  175.0720  137.6760 O   0  0  0  0  0  0  0  0  0  0  0  0
  194.0880  171.5540  134.8670 C   0  0  0  0  0  3  0  0  0  0  0  0
  195.1100  170.6590  135.1960 O   0  0  0  0  0  1  0  0  0  0  0  0
  192.8620  170.9990  135.2500 O   0  0  0  0  0  1  0  0  0  0  0  0
  189.8170  175.5390  134.9040 O   0  0  0  0  0  1  0  0  0  0  0  0
  189.6630  175.8270  136.2630 C   0  0  0  0  0  0  0  0  0  0  0  0
  188.8370  176.9420  136.4090 O   0  0  0  0  0  1  0  0  0  0  0  0
  189.0250  174.6390  136.9830 C   0  0  0  0  0  2  0  0  0  0  0  0
  188.2500  173.7170  136.0490 C   0  0  0  0  0  2  0  0  0  0  0  0
  186.3430  174.1750  137.4000 O   0  0  0  0  0  0  0  0  0  0  0  0
  186.0040  172.9860  136.7220 C   0  0  2  0  0  3  0  0  0  0  0  0
  186.7750  174.0700  136.0630 C   0  0  2  0  0  3  0  0  0  0  0  0
  184.2680  172.8000  134.8220 C   0  0  0  0  0  1  0  0  0  0  0  0
  183.8910  174.2710  136.7570 C   0  0  0  0  0  1  0  0  0  0  0  0
  183.8160  171.8370  137.0500 C   0  0  0  0  0  1  0  0  0  0  0  0
  184.5160  172.9650  136.3190 C   0  0  0  0  0  0  0  0  0  0  0  0
  1  4  1  0  0  0  0
  1  5  1  0  0  0  0
  2  7  1  1  0  0  0
  3  2  1  0  0  0  0
  4  6  1  0  0  0  0
  5 30  1  6  0  0  0
  5  3  1  0  0  0  0
  6  2  1  0  0  0  0
  7  8  1  0  0  0  0
  8  9  1  0  0  0  0
 10  9  1  0  0  0  0
 11 10  1  0  0  0  0
 12 11  1  0  0  0  0
 13 12  1  0  0  0  0
 14 15  2  0  0  0  0
 14 13  1  0  0  0  0
 17 22  1  6  0  0  0
 17 14  1  0  0  0  0
 19 16  1  0  0  0  0
 19 17  1  0  0  0  0
 19 18  1  1  0  0  0
 20 21  1  0  0  0  0
 20 23  1  0  0  0  0
 21 26  1  1  0  0  0
 21 19  1  0  0  0  0
 23 24  1  6  0  0  0
 23 17  1  0  0  0  0
 25 24  2  0  0  0  0
 27 29  1  0  0  0  0
 27 26  1  0  0  0  0
 28 27  2  0  0  0  0
 31 30  1  0  0  0  0
 32 31  1  0  0  0  0
 33 32  1  1  0  0  0
 35 38  1  0  0  0  0
 36 34  1  6  0  0  0
 36 38  1  0  0  0  0
 36 37  1  0  0  0  0
 36 40  1  0  0  0  0
 37 33  1  6  0  0  0
 37 40  1  0  0  0  0
 39 34  1  0  0  0  0
 39 35  1  0  0  0  0
 41 42  1  0  0  0  0
 41 43  1  0  0  0  0
 41 35  1  0  0  0  0
 44 45  1  0  0  0  0
 45 46  1  0  0  0  0
 45 33  1  0  0  0  0
 45 47  1  0  0  0  0
 48 47  1  0  0  0  0
 50 55  1  6  0  0  0
 50 49  1  0  0  0  0
 51 48  1  1  0  0  0
 51 50  1  0  0  0  0
 51 49  1  0  0  0  0
 52 55  1  0  0  0  0
 55 53  1  0  0  0  0
 55 54  1  0  0  0  0
M  END
>  <MODEL>
6

>  <REMARK>
 VINA RESULT:      -5.4      2.820      6.929
  Name = 
  22 active torsions:
  status: ('A' for Active; 'I' for Inactive)
    1  A    between atoms: C_1  and  C_53
    2  A    between atoms: C_2  and  C_28
    3  A    between atoms: C_2  and  C_44
    4  A    between atoms: C_6  and  C_20
    5  A    between atoms: N_7  and  C_22
    6  A    between atoms: C_8  and  C_22
    7  A    between atoms: C_8  and  C_35
    8  A    between atoms: C_10  and  N_32
    9  A    between atoms: C_11  and  C_29
   10  A    between atoms: C_16  and  C_17
   11  A    between atoms: C_16  and  C_26
   12  A    between atoms: C_17  and  C_33
   13  A    between atoms: C_19  and  C_40
   14  A    between atoms: C_26  and  C_45
   15  A    between atoms: C_27  and  C_54
   16  A    between atoms: C_28  and  O_49
   17  A    between atoms: C_29  and  C_38
   18  A    between atoms: C_33  and  C_36
   19  A    between atoms: C_33  and  O_49
   20  A    between atoms: C_35  and  C_43
   21  A    between atoms: C_43  and  C_51
   22  A    between atoms: C_51  and  C_54
                            x       y       z     vdW  Elec       q    Type
                         _______ _______ _______ _____ _____    ______ ____

>  <TORSDO>
F 22

$$$$
=
 OpenBabel10262420283D

 55 59  0  0  1  0  0  0  0  0999 V2000
  184.1060  178.8180  145.0250 C   0  0  0  0  0  2  0  0  0  0  0  0
  186.5410  177.5150  145.0760 C   0  0  2  0  0  3  0  0  0  0  0  0
  185.8000  177.4590  143.8580 O   0  0  0  0  0  0  0  0  0  0  0  0
  185.0560  178.7420  146.2150 C   0  0  0  0  0  2  0  0  0  0  0  0
  184.8840  178.5350  143.7340 C   0  0  1  0  0  3  0  0  0  0  0  0
  186.3890  178.7300  145.7750 O   0  0  0  0  0  0  0  0  0  0  0  0
  188.0130  177.2560  144.8060 C   0  0  0  0  0  2  0  0  0  0  0  0
  188.2350  177.0230  143.3210 C   0  0  0  0  0  2  0  0  0  0  0  0
  189.0990  178.1260  142.7370 C   0  0  0  0  0  2  0  0  0  0  0  0
  188.6950  178.3930  141.2970 C   0  0  0  0  0  2  0  0  0  0  0  0
  189.0260  177.2060  140.4070 C   0  0  0  0  0  2  0  0  0  0  0  0
  190.1890  177.5260  139.4830 C   0  0  0  0  0  2  0  0  0  0  0  0
  189.8500  177.1610  138.1150 N   0  0  0  0  0  2  0  0  0  0  0  0
  190.1220  175.8600  137.5880 C   0  0  0  0  0  0  0  0  0  0  0  0
  190.6790  174.9910  138.3120 O   0  0  0  0  0  0  0  0  0  0  0  0
  187.6260  176.6620  135.6840 O   0  0  0  0  0  1  0  0  0  0  0  0
  189.7010  175.5250  136.1750 C   0  0  1  0  0  0  0  0  0  0  0  0
  187.4760  174.8070  137.1880 C   0  0  0  0  0  1  0  0  0  0  0  0
  188.1950  175.4200  135.9780 C   0  0  1  0  0  0  0  0  0  0  0  0
  189.2590  173.6510  134.7530 O   0  0  0  0  0  0  0  0  0  0  0  0
  188.1350  174.5040  134.7560 C   0  0  1  0  0  3  0  0  0  0  0  0
  190.2280  176.4870  135.2970 O   0  0  0  0  0  1  0  0  0  0  0  0
  190.1430  174.1290  135.7420 C   0  0  1  0  0  3  0  0  0  0  0  0
  191.5610  174.0680  135.2670 C   0  0  0  0  0  3  0  0  0  0  0  0
  192.1030  172.9890  135.0980 O   0  0  0  0  0  0  0  0  0  0  0  0
  186.8390  173.7150  134.6050 C   0  0  0  0  0  2  0  0  0  0  0  0
  187.0190  172.3210  135.0840 C   0  0  0  0  0  0  0  0  0  0  0  0
  187.9300  171.6080  134.5960 O   0  0  0  0  0  0  0  0  0  0  0  0
  186.1690  171.7980  136.0460 O   0  0  0  0  0  1  0  0  0  0  0  0
  183.9370  178.2950  142.5680 C   0  0  0  0  0  2  0  0  0  0  0  0
  184.4050  179.0340  141.3240 C   0  0  0  0  0  2  0  0  0  0  0  0
  184.2050  178.2390  140.1940 O   0  0  0  0  0  0  0  0  0  0  0  0
  182.8720  178.4700  139.8270 C   0  0  1  0  0  3  0  0  0  0  0  0
  180.8340  180.6110  139.9670 C   0  0  0  0  0  2  0  0  0  0  0  0
  180.1300  182.0560  138.1330 N   0  0  0  0  0  0  0  0  0  0  0  0
  181.7150  180.4160  138.7740 C   0  0  1  0  0  0  0  0  0  0  0  0
  182.8270  179.4400  138.6450 C   0  0  1  0  0  3  0  0  0  0  0  0
  181.2290  181.2360  137.6200 C   0  0  0  0  0  2  0  0  0  0  0  0
  179.6870  181.4220  139.3870 C   0  0  0  0  0  2  0  0  0  0  0  0
  183.0400  180.7580  139.0940 O   0  0  0  0  0  0  0  0  0  0  0  0
  179.0250  181.9920  137.1760 C   0  0  0  0  0  3  0  0  0  0  0  0
  178.9760  183.1680  136.4210 O   0  0  0  0  0  1  0  0  0  0  0  0
  179.2000  180.9080  136.3100 O   0  0  0  0  0  1  0  0  0  0  0  0
  180.9300  177.1020  140.1860 O   0  0  0  0  0  1  0  0  0  0  0  0
  182.1520  177.1510  139.5080 C   0  0  0  0  0  0  0  0  0  0  0  0
  182.9450  176.0760  139.9090 O   0  0  0  0  0  1  0  0  0  0  0  0
  181.9200  177.0620  138.0000 C   0  0  0  0  0  2  0  0  0  0  0  0
  182.8200  176.0420  137.3130 C   0  0  0  0  0  2  0  0  0  0  0  0
  181.4970  174.0890  137.6350 O   0  0  0  0  0  0  0  0  0  0  0  0
  182.5990  173.6350  136.8820 C   0  0  2  0  0  3  0  0  0  0  0  0
  181.9850  174.9660  136.6470 C   0  0  2  0  0  3  0  0  0  0  0  0
  180.7540  172.7290  135.3220 C   0  0  0  0  0  1  0  0  0  0  0  0
  182.3060  171.2120  136.4790 C   0  0  0  0  0  1  0  0  0  0  0  0
  183.1300  172.6360  134.6600 C   0  0  0  0  0  1  0  0  0  0  0  0
  182.1810  172.5780  135.8400 C   0  0  0  0  0  0  0  0  0  0  0  0
  1  4  1  0  0  0  0
  2  7  1  6  0  0  0
  2  6  1  0  0  0  0
  3  2  1  0  0  0  0
  5 30  1  6  0  0  0
  5  3  1  0  0  0  0
  5  1  1  0  0  0  0
  6  4  1  0  0  0  0
  8  7  1  0  0  0  0
  9  8  1  0  0  0  0
 10  9  1  0  0  0  0
 11 10  1  0  0  0  0
 12 11  1  0  0  0  0
 13 12  1  0  0  0  0
 14 13  1  0  0  0  0
 14 15  2  0  0  0  0
 16 19  1  0  0  0  0
 17 22  1  6  0  0  0
 17 14  1  0  0  0  0
 19 17  1  0  0  0  0
 19 18  1  1  0  0  0
 20 21  1  0  0  0  0
 20 23  1  0  0  0  0
 21 26  1  1  0  0  0
 21 19  1  0  0  0  0
 23 24  1  6  0  0  0
 23 17  1  0  0  0  0
 25 24  2  0  0  0  0
 26 27  1  0  0  0  0
 27 29  1  0  0  0  0
 28 27  2  0  0  0  0
 31 30  1  0  0  0  0
 32 31  1  0  0  0  0
 33 32  1  6  0  0  0
 35 39  1  0  0  0  0
 36 38  1  6  0  0  0
 36 40  1  0  0  0  0
 36 34  1  0  0  0  0
 37 36  1  0  0  0  0
 37 40  1  0  0  0  0
 37 33  1  1  0  0  0
 38 35  1  0  0  0  0
 39 34  1  0  0  0  0
 41 35  1  0  0  0  0
 42 41  1  0  0  0  0
 43 41  1  0  0  0  0
 45 33  1  0  0  0  0
 45 46  1  0  0  0  0
 45 44  1  0  0  0  0
 47 45  1  0  0  0  0
 48 47  1  0  0  0  0
 50 55  1  6  0  0  0
 50 49  1  0  0  0  0
 51 50  1  0  0  0  0
 51 48  1  1  0  0  0
 51 49  1  0  0  0  0
 52 55  1  0  0  0  0
 54 55  1  0  0  0  0
 55 53  1  0  0  0  0
M  END
>  <MODEL>
7

>  <REMARK>
 VINA RESULT:      -5.2      2.916      8.585
  Name = 
  22 active torsions:
  status: ('A' for Active; 'I' for Inactive)
    1  A    between atoms: C_1  and  C_53
    2  A    between atoms: C_2  and  C_28
    3  A    between atoms: C_2  and  C_44
    4  A    between atoms: C_6  and  C_20
    5  A    between atoms: N_7  and  C_22
    6  A    between atoms: C_8  and  C_22
    7  A    between atoms: C_8  and  C_35
    8  A    between atoms: C_10  and  N_32
    9  A    between atoms: C_11  and  C_29
   10  A    between atoms: C_16  and  C_17
   11  A    between atoms: C_16  and  C_26
   12  A    between atoms: C_17  and  C_33
   13  A    between atoms: C_19  and  C_40
   14  A    between atoms: C_26  and  C_45
   15  A    between atoms: C_27  and  C_54
   16  A    between atoms: C_28  and  O_49
   17  A    between atoms: C_29  and  C_38
   18  A    between atoms: C_33  and  C_36
   19  A    between atoms: C_33  and  O_49
   20  A    between atoms: C_35  and  C_43
   21  A    between atoms: C_43  and  C_51
   22  A    between atoms: C_51  and  C_54
                            x       y       z     vdW  Elec       q    Type
                         _______ _______ _______ _____ _____    ______ ____

>  <TORSDO>
F 22

$$$$
=
 OpenBabel10262420283D

 55 59  0  0  1  0  0  0  0  0999 V2000
  184.2160  178.5930  141.8790 C   0  0  0  0  0  2  0  0  0  0  0  0
  184.9390  179.1620  144.4840 C   0  0  2  0  0  3  0  0  0  0  0  0
  183.6230  179.5350  144.0780 O   0  0  0  0  0  0  0  0  0  0  0  0
  185.5660  178.2910  142.5200 C   0  0  0  0  0  2  0  0  0  0  0  0
  183.1600  178.7710  142.9760 C   0  0  1  0  0  3  0  0  0  0  0  0
  185.4020  177.9760  143.8780 O   0  0  0  0  0  0  0  0  0  0  0  0
  185.0030  179.0290  145.9950 C   0  0  0  0  0  2  0  0  0  0  0  0
  186.4490  179.0700  146.4600 C   0  0  0  0  0  2  0  0  0  0  0  0
  186.5420  178.7030  147.9300 C   0  0  0  0  0  2  0  0  0  0  0  0
  187.5090  177.5460  148.1150 C   0  0  0  0  0  2  0  0  0  0  0  0
  188.9480  178.0020  147.9300 C   0  0  0  0  0  2  0  0  0  0  0  0
  189.7760  176.9240  147.2520 C   0  0  0  0  0  2  0  0  0  0  0  0
  190.1690  177.3650  145.9210 N   0  0  0  0  0  2  0  0  0  0  0  0
  189.3090  177.2200  144.7890 C   0  0  0  0  0  0  0  0  0  0  0  0
  188.1730  176.6890  144.9240 O   0  0  0  0  0  0  0  0  0  0  0  0
  188.3190  176.8260  141.7280 O   0  0  0  0  0  1  0  0  0  0  0  0
  189.7540  177.7440  143.4420 C   0  0  1  0  0  0  0  0  0  0  0  0
  189.8750  175.3040  142.7210 C   0  0  0  0  0  1  0  0  0  0  0  0
  189.5930  176.7510  142.2990 C   0  0  1  0  0  0  0  0  0  0  0  0
  191.6910  177.8890  142.0430 O   0  0  0  0  0  0  0  0  0  0  0  0
  190.6450  177.2750  141.3220 C   0  0  1  0  0  3  0  0  0  0  0  0
  189.0480  178.9230  143.1510 O   0  0  0  0  0  1  0  0  0  0  0  0
  191.2570  178.0090  143.3790 C   0  0  1  0  0  3  0  0  0  0  0  0
  191.6580  179.3310  143.9550 C   0  0  0  0  0  3  0  0  0  0  0  0
  192.6140  179.4040  144.7100 O   0  0  0  0  0  0  0  0  0  0  0  0
  191.1810  176.2420  140.3370 C   0  0  0  0  0  2  0  0  0  0  0  0
  192.0590  176.8900  139.3300 C   0  0  0  0  0  0  0  0  0  0  0  0
  193.2060  177.2780  139.6610 O   0  0  0  0  0  1  0  0  0  0  0  0
  191.6070  177.0880  138.0350 O   0  0  0  0  0  0  0  0  0  0  0  0
  181.8830  179.3720  142.4120 C   0  0  0  0  0  2  0  0  0  0  0  0
  180.6840  178.4850  142.7080 C   0  0  0  0  0  2  0  0  0  0  0  0
  179.5970  178.8720  141.9210 O   0  0  0  0  0  0  0  0  0  0  0  0
  179.8750  178.3530  140.6490 C   0  0  1  0  0  3  0  0  0  0  0  0
  181.2100  175.9840  139.4810 C   0  0  0  0  0  2  0  0  0  0  0  0
  180.1060  174.0420  138.5020 N   0  0  0  0  0  0  0  0  0  0  0  0
  179.7350  176.0400  139.7200 C   0  0  1  0  0  0  0  0  0  0  0  0
  178.9870  177.1360  140.3870 C   0  0  1  0  0  3  0  0  0  0  0  0
  179.0460  174.8950  139.0430 C   0  0  0  0  0  2  0  0  0  0  0  0
  181.3230  174.8690  138.4540 C   0  0  0  0  0  2  0  0  0  0  0  0
  179.4710  176.0220  141.1010 O   0  0  0  0  0  0  0  0  0  0  0  0
  179.7470  173.6800  137.1300 C   0  0  0  0  0  3  0  0  0  0  0  0
  180.8100  173.9560  136.2660 O   0  0  0  0  0  1  0  0  0  0  0  0
  179.4470  172.3160  137.0550 O   0  0  0  0  0  1  0  0  0  0  0  0
  179.0310  180.5330  140.0960 O   0  0  0  0  0  1  0  0  0  0  0  0
  179.7030  179.4280  139.5650 C   0  0  0  0  0  0  0  0  0  0  0  0
  178.9650  178.9060  138.5020 O   0  0  0  0  0  1  0  0  0  0  0  0
  181.0810  179.8460  139.0550 C   0  0  0  0  0  2  0  0  0  0  0  0
  181.0920  180.1950  137.5710 C   0  0  0  0  0  2  0  0  0  0  0  0
  180.1140  181.6390  135.9500 O   0  0  0  0  0  0  0  0  0  0  0  0
  181.1830  182.3910  136.4780 C   0  0  2  0  0  3  0  0  0  0  0  0
  180.3580  181.4990  137.3300 C   0  0  2  0  0  3  0  0  0  0  0  0
  180.8510  184.6700  135.3140 C   0  0  0  0  0  1  0  0  0  0  0  0
  181.7980  184.5190  137.5780 C   0  0  0  0  0  1  0  0  0  0  0  0
  179.4280  184.0010  137.2170 C   0  0  0  0  0  1  0  0  0  0  0  0
  180.8160  183.8820  136.6200 C   0  0  0  0  0  0  0  0  0  0  0  0
  1  4  1  0  0  0  0
  1  5  1  0  0  0  0
  2  7  1  1  0  0  0
  3  2  1  0  0  0  0
  4  6  1  0  0  0  0
  5 30  1  6  0  0  0
  5  3  1  0  0  0  0
  6  2  1  0  0  0  0
  7  8  1  0  0  0  0
  8  9  1  0  0  0  0
  9 10  1  0  0  0  0
 11 10  1  0  0  0  0
 12 11  1  0  0  0  0
 13 12  1  0  0  0  0
 14 15  2  0  0  0  0
 14 13  1  0  0  0  0
 16 19  1  0  0  0  0
 17 22  1  6  0  0  0
 17 14  1  0  0  0  0
 19 18  1  1  0  0  0
 19 17  1  0  0  0  0
 20 23  1  0  0  0  0
 21 26  1  1  0  0  0
 21 20  1  0  0  0  0
 21 19  1  0  0  0  0
 23 17  1  0  0  0  0
 23 24  1  6  0  0  0
 24 25  2  0  0  0  0
 27 28  1  0  0  0  0
 27 26  1  0  0  0  0
 29 27  2  0  0  0  0
 30 31  1  0  0  0  0
 32 31  1  0  0  0  0
 33 32  1  1  0  0  0
 34 36  1  0  0  0  0
 35 38  1  0  0  0  0
 36 38  1  6  0  0  0
 36 37  1  0  0  0  0
 36 40  1  0  0  0  0
 37 33  1  1  0  0  0
 37 40  1  0  0  0  0
 39 35  1  0  0  0  0
 39 34  1  0  0  0  0
 41 35  1  0  0  0  0
 42 41  1  0  0  0  0
 43 41  1  0  0  0  0
 45 44  1  0  0  0  0
 45 33  1  0  0  0  0
 46 45  1  0  0  0  0
 47 45  1  0  0  0  0
 48 47  1  0  0  0  0
 49 50  1  0  0  0  0
 49 51  1  0  0  0  0
 50 55  1  1  0  0  0
 50 51  1  0  0  0  0
 51 48  1  6  0  0  0
 52 55  1  0  0  0  0
 55 54  1  0  0  0  0
 55 53  1  0  0  0  0
M  END
>  <MODEL>
8

>  <REMARK>
 VINA RESULT:      -5.2      2.965     10.360
  Name = 
  22 active torsions:
  status: ('A' for Active; 'I' for Inactive)
    1  A    between atoms: C_1  and  C_53
    2  A    between atoms: C_2  and  C_28
    3  A    between atoms: C_2  and  C_44
    4  A    between atoms: C_6  and  C_20
    5  A    between atoms: N_7  and  C_22
    6  A    between atoms: C_8  and  C_22
    7  A    between atoms: C_8  and  C_35
    8  A    between atoms: C_10  and  N_32
    9  A    between atoms: C_11  and  C_29
   10  A    between atoms: C_16  and  C_17
   11  A    between atoms: C_16  and  C_26
   12  A    between atoms: C_17  and  C_33
   13  A    between atoms: C_19  and  C_40
   14  A    between atoms: C_26  and  C_45
   15  A    between atoms: C_27  and  C_54
   16  A    between atoms: C_28  and  O_49
   17  A    between atoms: C_29  and  C_38
   18  A    between atoms: C_33  and  C_36
   19  A    between atoms: C_33  and  O_49
   20  A    between atoms: C_35  and  C_43
   21  A    between atoms: C_43  and  C_51
   22  A    between atoms: C_51  and  C_54
                            x       y       z     vdW  Elec       q    Type
                         _______ _______ _______ _____ _____    ______ ____

>  <TORSDO>
F 22

$$$$
=
 OpenBabel10262420283D

 55 59  0  0  1  0  0  0  0  0999 V2000
  184.1940  178.7240  138.2350 C   0  0  0  0  0  2  0  0  0  0  0  0
  185.2950  178.7070  140.7690 C   0  0  2  0  0  3  0  0  0  0  0  0
  186.0130  178.0230  139.7440 O   0  0  0  0  0  0  0  0  0  0  0  0
  183.5970  179.3810  139.4750 C   0  0  0  0  0  2  0  0  0  0  0  0
  185.6970  178.5060  138.4480 C   0  0  1  0  0  3  0  0  0  0  0  0
  184.6170  179.8570  140.3130 O   0  0  0  0  0  0  0  0  0  0  0  0
  186.2300  179.0760  141.9080 C   0  0  0  0  0  2  0  0  0  0  0  0
  185.4250  179.4750  143.1330 C   0  0  0  0  0  2  0  0  0  0  0  0
  184.5270  178.3320  143.5700 C   0  0  0  0  0  2  0  0  0  0  0  0
  184.9480  177.8380  144.9440 C   0  0  0  0  0  2  0  0  0  0  0  0
  185.6870  178.9230  145.7110 C   0  0  0  0  0  2  0  0  0  0  0  0
  186.8070  178.3300  146.5480 C   0  0  0  0  0  2  0  0  0  0  0  0
  188.0070  178.1810  145.7360 N   0  0  0  0  0  2  0  0  0  0  0  0
  189.2490  177.7410  146.2910 C   0  0  0  0  0  0  0  0  0  0  0  0
  189.3310  177.4780  147.5220 O   0  0  0  0  0  0  0  0  0  0  0  0
  190.0970  178.8190  143.3550 O   0  0  0  0  0  1  0  0  0  0  0  0
  190.4460  177.5580  145.3870 C   0  0  1  0  0  0  0  0  0  0  0  0
  188.7760  176.8390  143.6020 C   0  0  0  0  0  1  0  0  0  0  0  0
  190.1120  177.5320  143.9020 C   0  0  1  0  0  0  0  0  0  0  0  0
  191.7570  175.8440  144.3510 O   0  0  0  0  0  0  0  0  0  0  0  0
  191.3000  176.7380  143.3600 C   0  0  1  0  0  3  0  0  0  0  0  0
  191.3800  178.5740  145.6470 O   0  0  0  0  0  1  0  0  0  0  0  0
  191.1080  176.1910  145.5530 C   0  0  1  0  0  3  0  0  0  0  0  0
  192.0510  176.1170  146.7120 C   0  0  0  0  0  3  0  0  0  0  0  0
  192.0530  175.1360  147.4370 O   0  0  0  0  0  0  0  0  0  0  0  0
  191.0460  176.0200  142.0390 C   0  0  0  0  0  2  0  0  0  0  0  0
  190.7600  177.0000  140.9600 C   0  0  0  0  0  0  0  0  0  0  0  0
  191.6200  177.8630  140.6590 O   0  0  0  0  0  1  0  0  0  0  0  0
  189.5390  176.9790  140.3050 O   0  0  0  0  0  0  0  0  0  0  0  0
  186.2710  177.5850  137.3830 C   0  0  0  0  0  2  0  0  0  0  0  0
  185.2450  176.5530  136.9420 C   0  0  0  0  0  2  0  0  0  0  0  0
  185.7250  175.8440  135.8400 O   0  0  0  0  0  0  0  0  0  0  0  0
  185.2300  174.5430  136.0100 C   0  0  1  0  0  3  0  0  0  0  0  0
  182.5110  173.9360  137.0050 C   0  0  0  0  0  2  0  0  0  0  0  0
  180.6760  172.9920  135.7060 N   0  0  0  0  0  0  0  0  0  0  0  0
  182.8680  173.8770  135.5550 C   0  0  1  0  0  0  0  0  0  0  0  0
  184.1690  174.2550  134.9470 C   0  0  1  0  0  3  0  0  0  0  0  0
  181.7780  173.2150  134.7690 C   0  0  0  0  0  2  0  0  0  0  0  0
  181.2520  173.0860  137.0580 C   0  0  0  0  0  2  0  0  0  0  0  0
  183.1070  175.1720  135.0640 O   0  0  0  0  0  0  0  0  0  0  0  0
  180.1820  171.6280  135.5150 C   0  0  0  0  0  3  0  0  0  0  0  0
  181.2470  170.7650  135.2440 O   0  0  0  0  0  1  0  0  0  0  0  0
  179.5280  171.1860  136.6700 O   0  0  0  0  0  1  0  0  0  0  0  0
  186.9180  173.4580  134.6890 O   0  0  0  0  0  1  0  0  0  0  0  0
  186.3680  173.5110  135.9730 C   0  0  0  0  0  0  0  0  0  0  0  0
  185.8700  172.2530  136.3150 O   0  0  0  0  0  1  0  0  0  0  0  0
  187.4390  173.9130  136.9860 C   0  0  0  0  0  2  0  0  0  0  0  0
  188.7190  173.0950  136.8640 C   0  0  0  0  0  2  0  0  0  0  0  0
  190.9600  173.1160  136.0580 O   0  0  0  0  0  0  0  0  0  0  0  0
  190.9300  174.1530  137.0140 C   0  0  2  0  0  3  0  0  0  0  0  0
  189.7780  173.8820  136.1170 C   0  0  2  0  0  3  0  0  0  0  0  0
  191.9230  175.5130  135.0590 C   0  0  0  0  0  1  0  0  0  0  0  0
  193.1620  175.2080  137.1610 C   0  0  0  0  0  1  0  0  0  0  0  0
  191.1660  176.6320  137.1250 C   0  0  0  0  0  1  0  0  0  0  0  0
  191.7780  175.3610  136.5710 C   0  0  0  0  0  0  0  0  0  0  0  0
  1  5  1  0  0  0  0
  1  4  1  0  0  0  0
  2  7  1  1  0  0  0
  3  2  1  0  0  0  0
  4  6  1  0  0  0  0
  5 30  1  6  0  0  0
  5  3  1  0  0  0  0
  6  2  1  0  0  0  0
  7  8  1  0  0  0  0
  8  9  1  0  0  0  0
  9 10  1  0  0  0  0
 10 11  1  0  0  0  0
 11 12  1  0  0  0  0
 13 14  1  0  0  0  0
 13 12  1  0  0  0  0
 14 15  2  0  0  0  0
 16 19  1  0  0  0  0
 17 23  1  0  0  0  0
 17 22  1  1  0  0  0
 17 14  1  0  0  0  0
 19 18  1  6  0  0  0
 19 17  1  0  0  0  0
 20 23  1  0  0  0  0
 21 26  1  6  0  0  0
 21 19  1  0  0  0  0
 21 20  1  0  0  0  0
 23 24  1  1  0  0  0
 24 25  2  0  0  0  0
 27 26  1  0  0  0  0
 28 27  1  0  0  0  0
 29 27  2  0  0  0  0
 31 30  1  0  0  0  0
 32 31  1  0  0  0  0
 33 32  1  6  0  0  0
 34 39  1  0  0  0  0
 35 39  1  0  0  0  0
 36 38  1  6  0  0  0
 36 34  1  0  0  0  0
 37 40  1  0  0  0  0
 37 36  1  0  0  0  0
 37 33  1  1  0  0  0
 38 35  1  0  0  0  0
 40 36  1  0  0  0  0
 41 35  1  0  0  0  0
 41 43  1  0  0  0  0
 42 41  1  0  0  0  0
 44 45  1  0  0  0  0
 45 33  1  0  0  0  0
 45 46  1  0  0  0  0
 45 47  1  0  0  0  0
 48 47  1  0  0  0  0
 49 51  1  0  0  0  0
 49 50  1  0  0  0  0
 50 55  1  6  0  0  0
 51 48  1  1  0  0  0
 51 50  1  0  0  0  0
 52 55  1  0  0  0  0
 55 54  1  0  0  0  0
 55 53  1  0  0  0  0
M  END
>  <MODEL>
9

>  <REMARK>
 VINA RESULT:      -5.1      2.318      8.908
  Name = 
  22 active torsions:
  status: ('A' for Active; 'I' for Inactive)
    1  A    between atoms: C_1  and  C_53
    2  A    between atoms: C_2  and  C_28
    3  A    between atoms: C_2  and  C_44
    4  A    between atoms: C_6  and  C_20
    5  A    between atoms: N_7  and  C_22
    6  A    between atoms: C_8  and  C_22
    7  A    between atoms: C_8  and  C_35
    8  A    between atoms: C_10  and  N_32
    9  A    between atoms: C_11  and  C_29
   10  A    between atoms: C_16  and  C_17
   11  A    between atoms: C_16  and  C_26
   12  A    between atoms: C_17  and  C_33
   13  A    between atoms: C_19  and  C_40
   14  A    between atoms: C_26  and  C_45
   15  A    between atoms: C_27  and  C_54
   16  A    between atoms: C_28  and  O_49
   17  A    between atoms: C_29  and  C_38
   18  A    between atoms: C_33  and  C_36
   19  A    between atoms: C_33  and  O_49
   20  A    between atoms: C_35  and  C_43
   21  A    between atoms: C_43  and  C_51
   22  A    between atoms: C_51  and  C_54
                            x       y       z     vdW  Elec       q    Type
                         _______ _______ _______ _____ _____    ______ ____

>  <TORSDO>
F 22

$$$$
