=
 OpenBabel10262423293D

 34 39  0  0  1  0  0  0  0  0999 V2000
  182.4650  178.1830  141.0410 C   0  0  0  0  0  0  0  0  0  0  0  0
  182.2650  179.2000  143.6540 C   0  0  0  0  0  3  0  0  0  0  0  0
  183.5210  178.0390  141.9470 C   0  0  0  0  0  3  0  0  0  0  0  0
  181.1990  179.3580  142.7690 C   0  0  0  0  0  0  0  0  0  0  0  0
  178.9670  180.1820  142.3160 C   0  0  0  0  0  3  0  0  0  0  0  0
  180.0430  180.0180  143.1920 C   0  0  0  0  0  3  0  0  0  0  0  0
  183.4360  178.5410  143.2540 C   0  0  0  0  0  0  0  0  0  0  0  0
  180.1970  179.0230  140.5820 C   0  0  0  0  0  3  0  0  0  0  0  0
  181.2870  178.8490  141.4500 C   0  0  0  0  0  0  0  0  0  0  0  0
  179.0450  179.6860  141.0120 C   0  0  0  0  0  3  0  0  0  0  0  0
  185.4930  178.5750  146.4380 C   0  0  0  0  0  3  0  0  0  0  0  0
  185.7920  177.8490  143.7620 C   0  0  0  0  0  3  0  0  0  0  0  0
  187.8040  177.8670  146.9950 C   0  0  0  0  0  1  0  0  0  0  0  0
  186.7110  178.0500  145.9980 C   0  0  0  0  0  0  0  0  0  0  0  0
  186.8750  177.6990  144.6420 C   0  0  0  0  0  0  0  0  0  0  0  0
  184.5670  178.3750  144.1990 C   0  0  0  0  0  0  0  0  0  0  0  0
  184.4310  178.7400  145.5470 C   0  0  0  0  0  3  0  0  0  0  0  0
  188.9520  178.1060  143.4190 N   0  0  2  0  0  0  0  0  0  0  0  0
  189.5100  177.4880  142.2020 C   0  0  2  0  0  3  0  0  0  0  0  0
  188.1560  177.0910  144.1380 C   0  0  2  0  0  3  0  0  0  0  0  0
  188.1990  177.0620  142.6750 C   0  0  1  0  0  3  0  0  0  0  0  0
  190.5810  176.4710  142.5650 C   0  0  0  0  0  2  0  0  0  0  0  0
  191.8360  176.9730  142.2230 O   0  0  0  0  0  1  0  0  0  0  0  0
  184.0330  177.9390  139.0500 C   0  0  2  0  0  3  0  0  0  0  0  0
  184.1480  177.3670  137.7680 O   0  0  0  0  0  0  0  0  0  0  0  0
  184.1990  175.9720  137.9430 C   0  0  1  0  0  3  0  0  0  0  0  0
  182.8190  175.4600  138.3480 C   0  0  0  0  0  2  0  0  0  0  0  0
  182.4350  176.0850  139.6840 C   0  0  0  0  0  2  0  0  0  0  0  0
  182.6570  177.6010  139.6640 C   0  0  1  0  0  3  0  0  0  0  0  0
  184.3510  180.5360  138.8450 N   0  0  0  0  0  0  0  0  0  0  0  0
  184.2110  179.3910  138.9350 C   0  0  0  0  0  0  0  0  0  0  0  0
  184.5880  175.3670  136.7470 O   0  0  0  0  0  0  0  0  0  0  0  0
  185.8570  174.8480  137.0080 C   0  0  0  0  0  2  0  0  0  0  0  0
  185.7320  173.4000  137.4330 C   0  0  0  0  0  1  0  0  0  0  0  0
  1  9  2  0  0  0  0
  1  3  1  0  0  0  0
  3  7  2  0  0  0  0
  4  6  1  0  0  0  0
  4  2  2  0  0  0  0
  5  6  2  0  0  0  0
  7  2  1  0  0  0  0
  7 16  1  0  0  0  0
  8 10  2  0  0  0  0
  8  9  1  0  0  0  0
  9  4  1  0  0  0  0
 10  5  1  0  0  0  0
 12 16  2  0  0  0  0
 12 15  1  0  0  0  0
 14 11  1  0  0  0  0
 14 13  1  0  0  0  0
 15 14  2  0  0  0  0
 16 17  1  0  0  0  0
 17 11  2  0  0  0  0
 18 20  1  0  0  0  0
 19 22  1  0  0  0  0
 19 21  1  0  0  0  0
 19 18  1  0  0  0  0
 20 15  1  0  0  0  0
 21 18  1  0  0  0  0
 21 20  1  0  0  0  0
 23 22  1  0  0  0  0
 24 29  1  0  0  0  0
 25 26  1  0  0  0  0
 25 24  1  0  0  0  0
 26 27  1  0  0  0  0
 27 28  1  0  0  0  0
 29 28  1  0  0  0  0
 29  1  1  0  0  0  0
 30 31  3  0  0  0  0
 31 24  1  0  0  0  0
 32 33  1  0  0  0  0
 32 26  1  0  0  0  0
 33 34  1  0  0  0  0
M  END
>  <MODEL>
1

>  <REMARK>
 VINA RESULT:      -9.0      0.000      0.000
  Name = 
  7 active torsions:
  status: ('A' for Active; 'I' for Inactive)
    1  A    between atoms: C_1  and  C_34
    2  A    between atoms: C_2  and  C_32
    3  A    between atoms: O_3  and  C_13
    4  A    between atoms: O_3  and  C_25
    5  A    between atoms: C_11  and  C_15
    6  A    between atoms: C_18  and  C_30
    7  A    between atoms: C_26  and  C_28
                            x       y       z     vdW  Elec       q    Type
                         _______ _______ _______ _____ _____    ______ ____

>  <TORSDO>
F 7

$$$$
=
 OpenBabel10262423293D

 34 39  0  0  1  0  0  0  0  0999 V2000
  187.7630  177.4850  144.1130 C   0  0  0  0  0  0  0  0  0  0  0  0
  185.6630  178.3580  145.7650 C   0  0  0  0  0  3  0  0  0  0  0  0
  186.4980  177.7500  143.5800 C   0  0  0  0  0  3  0  0  0  0  0  0
  186.9150  178.1000  146.3200 C   0  0  0  0  0  0  0  0  0  0  0  0
  188.3620  178.0230  148.2610 C   0  0  0  0  0  3  0  0  0  0  0  0
  187.1120  178.2790  147.6920 C   0  0  0  0  0  3  0  0  0  0  0  0
  185.4390  178.1870  144.3910 C   0  0  0  0  0  0  0  0  0  0  0  0
  189.2310  177.4070  146.0880 C   0  0  0  0  0  3  0  0  0  0  0  0
  187.9810  177.6590  145.4990 C   0  0  0  0  0  0  0  0  0  0  0  0
  189.4200  177.5870  147.4600 C   0  0  0  0  0  3  0  0  0  0  0  0
  181.7820  179.1280  144.0660 C   0  0  0  0  0  3  0  0  0  0  0  0
  183.8940  178.3400  142.4230 C   0  0  0  0  0  3  0  0  0  0  0  0
  180.2270  179.3310  142.1430 C   0  0  0  0  0  1  0  0  0  0  0  0
  181.5750  179.0030  142.6900 C   0  0  0  0  0  0  0  0  0  0  0  0
  182.6340  178.5870  141.8560 C   0  0  0  0  0  0  0  0  0  0  0  0
  184.1060  178.4650  143.8040 C   0  0  0  0  0  0  0  0  0  0  0  0
  183.0350  178.8580  144.6190 C   0  0  0  0  0  3  0  0  0  0  0  0
  183.4440  177.5280  139.8060 N   0  0  2  0  0  0  0  0  0  0  0  0
  183.9920  178.0960  138.5600 C   0  0  2  0  0  3  0  0  0  0  0  0
  182.4630  178.4810  140.3640 C   0  0  2  0  0  3  0  0  0  0  0  0
  183.6340  178.9950  139.6500 C   0  0  1  0  0  3  0  0  0  0  0  0
  182.9320  178.1080  137.4690 C   0  0  0  0  0  2  0  0  0  0  0  0
  183.3940  177.3940  136.3640 O   0  0  0  0  0  1  0  0  0  0  0  0
  189.1930  178.0930  142.0960 C   0  0  2  0  0  3  0  0  0  0  0  0
  190.1930  177.6040  141.2340 O   0  0  0  0  0  0  0  0  0  0  0  0
  191.3700  177.4830  141.9960 C   0  0  1  0  0  3  0  0  0  0  0  0
  191.2340  176.3030  142.9550 C   0  0  0  0  0  2  0  0  0  0  0  0
  190.0830  176.5780  143.9140 C   0  0  0  0  0  2  0  0  0  0  0  0
  188.8310  177.0270  143.1530 C   0  0  1  0  0  3  0  0  0  0  0  0
  187.0890  178.7390  140.6640 N   0  0  0  0  0  0  0  0  0  0  0  0
  188.0170  178.4540  141.2950 C   0  0  0  0  0  0  0  0  0  0  0  0
  192.4550  177.2710  141.1450 O   0  0  0  0  0  0  0  0  0  0  0  0
  191.8930  177.1750  139.8710 C   0  0  0  0  0  2  0  0  0  0  0  0
  192.9630  176.7770  138.8760 C   0  0  0  0  0  1  0  0  0  0  0  0
  1  9  1  0  0  0  0
  2  4  1  0  0  0  0
  3  1  2  0  0  0  0
  3  7  1  0  0  0  0
  4  6  1  0  0  0  0
  6  5  2  0  0  0  0
  7  2  2  0  0  0  0
  8 10  2  0  0  0  0
  9  8  1  0  0  0  0
  9  4  2  0  0  0  0
 10  5  1  0  0  0  0
 11 17  1  0  0  0  0
 12 16  1  0  0  0  0
 13 14  1  0  0  0  0
 14 11  2  0  0  0  0
 15 12  2  0  0  0  0
 15 14  1  0  0  0  0
 16  7  1  0  0  0  0
 16 17  2  0  0  0  0
 18 20  1  0  0  0  0
 19 21  1  0  0  0  0
 19 18  1  0  0  0  0
 20 15  1  0  0  0  0
 21 18  1  0  0  0  0
 21 20  1  0  0  0  0
 22 19  1  0  0  0  0
 23 22  1  0  0  0  0
 24 29  1  0  0  0  0
 25 26  1  0  0  0  0
 25 24  1  0  0  0  0
 26 27  1  0  0  0  0
 27 28  1  0  0  0  0
 29 28  1  0  0  0  0
 29  1  1  0  0  0  0
 30 31  3  0  0  0  0
 31 24  1  0  0  0  0
 32 26  1  0  0  0  0
 33 32  1  0  0  0  0
 34 33  1  0  0  0  0
M  END
>  <MODEL>
2

>  <REMARK>
 VINA RESULT:      -9.0      1.858      7.277
  Name = 
  7 active torsions:
  status: ('A' for Active; 'I' for Inactive)
    1  A    between atoms: C_1  and  C_34
    2  A    between atoms: C_2  and  C_32
    3  A    between atoms: O_3  and  C_13
    4  A    between atoms: O_3  and  C_25
    5  A    between atoms: C_11  and  C_15
    6  A    between atoms: C_18  and  C_30
    7  A    between atoms: C_26  and  C_28
                            x       y       z     vdW  Elec       q    Type
                         _______ _______ _______ _____ _____    ______ ____

>  <TORSDO>
F 7

$$$$
=
 OpenBabel10262423293D

 34 39  0  0  1  0  0  0  0  0999 V2000
  185.2810  178.6120  139.3340 C   0  0  0  0  0  0  0  0  0  0  0  0
  187.5330  178.2750  140.9830 C   0  0  0  0  0  3  0  0  0  0  0  0
  185.1540  178.6180  140.7270 C   0  0  0  0  0  3  0  0  0  0  0  0
  187.6850  178.2650  139.5970 C   0  0  0  0  0  0  0  0  0  0  0  0
  189.1220  178.0770  137.6560 C   0  0  0  0  0  3  0  0  0  0  0  0
  188.9560  178.0890  139.0430 C   0  0  0  0  0  3  0  0  0  0  0  0
  186.2680  178.4500  141.5630 C   0  0  0  0  0  0  0  0  0  0  0  0
  186.7430  178.4200  137.3630 C   0  0  0  0  0  3  0  0  0  0  0  0
  186.5580  178.4340  138.7550 C   0  0  0  0  0  0  0  0  0  0  0  0
  188.0170  178.2420  136.8170 C   0  0  0  0  0  3  0  0  0  0  0  0
  184.8050  178.9920  145.0170 C   0  0  0  0  0  3  0  0  0  0  0  0
  187.1180  177.9410  143.8660 C   0  0  0  0  0  3  0  0  0  0  0  0
  185.5870  178.4710  147.3130 C   0  0  0  0  0  1  0  0  0  0  0  0
  185.8090  178.4730  145.8380 C   0  0  0  0  0  0  0  0  0  0  0  0
  186.9890  177.9570  145.2630 C   0  0  0  0  0  0  0  0  0  0  0  0
  186.1120  178.4610  143.0380 C   0  0  0  0  0  0  0  0  0  0  0  0
  184.9550  178.9900  143.6300 C   0  0  0  0  0  3  0  0  0  0  0  0
  189.2790  178.2070  146.0850 N   0  0  2  0  0  0  0  0  0  0  0  0
  190.4660  177.3420  145.9550 C   0  0  2  0  0  3  0  0  0  0  0  0
  188.0750  177.3510  146.1110 C   0  0  2  0  0  3  0  0  0  0  0  0
  189.2250  176.9440  145.3030 C   0  0  1  0  0  3  0  0  0  0  0  0
  190.6900  176.5510  147.2360 C   0  0  0  0  0  2  0  0  0  0  0  0
  191.9580  176.8330  147.7410 O   0  0  0  0  0  1  0  0  0  0  0  0
  183.0890  177.5760  138.5560 C   0  0  2  0  0  3  0  0  0  0  0  0
  181.9350  177.8220  137.7880 O   0  0  0  0  0  0  0  0  0  0  0  0
  181.1950  178.8100  138.4620 C   0  0  1  0  0  3  0  0  0  0  0  0
  181.9050  180.1550  138.3290 C   0  0  0  0  0  2  0  0  0  0  0  0
  183.2720  180.0580  138.9950 C   0  0  0  0  0  2  0  0  0  0  0  0
  184.0210  178.8070  138.5290 C   0  0  1  0  0  3  0  0  0  0  0  0
  184.3090  175.4610  137.5910 N   0  0  0  0  0  0  0  0  0  0  0  0
  183.7710  176.3930  138.0160 C   0  0  0  0  0  0  0  0  0  0  0  0
  179.9190  178.8980  137.9030 O   0  0  0  0  0  0  0  0  0  0  0  0
  179.1480  177.9940  138.6340 C   0  0  0  0  0  2  0  0  0  0  0  0
  179.3690  178.2230  140.1150 C   0  0  0  0  0  1  0  0  0  0  0  0
  1  3  1  0  0  0  0
  2  7  1  0  0  0  0
  3  7  2  0  0  0  0
  4  2  2  0  0  0  0
  5  6  2  0  0  0  0
  6  4  1  0  0  0  0
  7 16  1  0  0  0  0
  8  9  1  0  0  0  0
  9  1  2  0  0  0  0
  9  4  1  0  0  0  0
 10  8  2  0  0  0  0
 10  5  1  0  0  0  0
 11 14  1  0  0  0  0
 12 15  1  0  0  0  0
 14 13  1  0  0  0  0
 15 14  2  0  0  0  0
 15 20  1  0  0  0  0
 16 17  1  0  0  0  0
 16 12  2  0  0  0  0
 17 11  2  0  0  0  0
 18 20  1  0  0  0  0
 19 18  1  0  0  0  0
 19 22  1  0  0  0  0
 21 19  1  0  0  0  0
 21 18  1  0  0  0  0
 21 20  1  0  0  0  0
 22 23  1  0  0  0  0
 25 26  1  0  0  0  0
 25 24  1  0  0  0  0
 27 26  1  0  0  0  0
 27 28  1  0  0  0  0
 29 24  1  0  0  0  0
 29 28  1  0  0  0  0
 29  1  1  0  0  0  0
 30 31  3  0  0  0  0
 31 24  1  0  0  0  0
 32 26  1  0  0  0  0
 32 33  1  0  0  0  0
 33 34  1  0  0  0  0
M  END
>  <MODEL>
3

>  <REMARK>
 VINA RESULT:      -8.4      2.608      5.171
  Name = 
  7 active torsions:
  status: ('A' for Active; 'I' for Inactive)
    1  A    between atoms: C_1  and  C_34
    2  A    between atoms: C_2  and  C_32
    3  A    between atoms: O_3  and  C_13
    4  A    between atoms: O_3  and  C_25
    5  A    between atoms: C_11  and  C_15
    6  A    between atoms: C_18  and  C_30
    7  A    between atoms: C_26  and  C_28
                            x       y       z     vdW  Elec       q    Type
                         _______ _______ _______ _____ _____    ______ ____

>  <TORSDO>
F 7

$$$$
=
 OpenBabel10262423293D

 34 39  0  0  1  0  0  0  0  0999 V2000
  188.2850  177.8790  143.2400 C   0  0  0  0  0  0  0  0  0  0  0  0
  186.3910  178.0450  145.3100 C   0  0  0  0  0  3  0  0  0  0  0  0
  186.9330  178.0950  142.9560 C   0  0  0  0  0  3  0  0  0  0  0  0
  187.7330  177.8280  145.6200 C   0  0  0  0  0  0  0  0  0  0  0  0
  189.4620  177.4790  147.2790 C   0  0  0  0  0  3  0  0  0  0  0  0
  188.1210  177.6960  146.9550 C   0  0  0  0  0  3  0  0  0  0  0  0
  185.9750  178.1800  143.9780 C   0  0  0  0  0  0  0  0  0  0  0  0
  190.0410  177.5230  144.9280 C   0  0  0  0  0  3  0  0  0  0  0  0
  188.6970  177.7420  144.5860 C   0  0  0  0  0  0  0  0  0  0  0  0
  190.4210  177.3920  146.2660 C   0  0  0  0  0  3  0  0  0  0  0  0
  182.2740  178.9000  144.3650 C   0  0  0  0  0  3  0  0  0  0  0  0
  184.1010  178.3770  142.3240 C   0  0  0  0  0  3  0  0  0  0  0  0
  180.3960  179.1420  142.7620 C   0  0  0  0  0  1  0  0  0  0  0  0
  181.8350  178.8640  143.0400 C   0  0  0  0  0  0  0  0  0  0  0  0
  182.7500  178.5820  142.0040 C   0  0  0  0  0  0  0  0  0  0  0  0
  184.5470  178.4130  143.6540 C   0  0  0  0  0  0  0  0  0  0  0  0
  183.6170  178.6730  144.6710 C   0  0  0  0  0  3  0  0  0  0  0  0
  182.9950  177.4760  139.8370 N   0  0  2  0  0  0  0  0  0  0  0  0
  183.4380  177.9810  138.5240 C   0  0  2  0  0  3  0  0  0  0  0  0
  182.3250  178.5760  140.5600 C   0  0  2  0  0  3  0  0  0  0  0  0
  183.4440  178.8840  139.6680 C   0  0  1  0  0  3  0  0  0  0  0  0
  182.2400  178.2450  137.6240 C   0  0  0  0  0  2  0  0  0  0  0  0
  182.5390  177.8440  136.3220 O   0  0  0  0  0  1  0  0  0  0  0  0
  189.5260  176.3640  141.6120 C   0  0  2  0  0  3  0  0  0  0  0  0
  190.4120  176.3710  140.5180 O   0  0  0  0  0  0  0  0  0  0  0  0
  189.7160  176.9250  139.4270 C   0  0  1  0  0  3  0  0  0  0  0  0
  189.5420  178.4250  139.6470 C   0  0  0  0  0  2  0  0  0  0  0  0
  188.7010  178.6450  140.8990 C   0  0  0  0  0  2  0  0  0  0  0  0
  189.2310  177.8100  142.0680 C   0  0  1  0  0  3  0  0  0  0  0  0
  190.6000  174.9710  143.5600 N   0  0  0  0  0  0  0  0  0  0  0  0
  190.1260  175.5850  142.7010 C   0  0  0  0  0  0  0  0  0  0  0  0
  190.4390  176.7050  138.2540 O   0  0  0  0  0  0  0  0  0  0  0  0
  191.7770  176.7430  138.6500 C   0  0  0  0  0  2  0  0  0  0  0  0
  192.6070  175.9010  137.7050 C   0  0  0  0  0  1  0  0  0  0  0  0
  1  9  1  0  0  0  0
  2  4  1  0  0  0  0
  3  1  2  0  0  0  0
  3  7  1  0  0  0  0
  4  6  1  0  0  0  0
  6  5  2  0  0  0  0
  7  2  2  0  0  0  0
  8 10  2  0  0  0  0
  9  8  1  0  0  0  0
  9  4  2  0  0  0  0
 10  5  1  0  0  0  0
 11 17  1  0  0  0  0
 12 16  1  0  0  0  0
 13 14  1  0  0  0  0
 14 11  2  0  0  0  0
 15 12  2  0  0  0  0
 15 14  1  0  0  0  0
 16  7  1  0  0  0  0
 16 17  2  0  0  0  0
 18 20  1  0  0  0  0
 19 21  1  0  0  0  0
 19 18  1  0  0  0  0
 20 15  1  0  0  0  0
 21 18  1  0  0  0  0
 21 20  1  0  0  0  0
 22 19  1  0  0  0  0
 23 22  1  0  0  0  0
 24 29  1  0  0  0  0
 24 31  1  0  0  0  0
 25 24  1  0  0  0  0
 26 27  1  0  0  0  0
 26 25  1  0  0  0  0
 27 28  1  0  0  0  0
 28 29  1  0  0  0  0
 29  1  1  0  0  0  0
 31 30  3  0  0  0  0
 32 33  1  0  0  0  0
 32 26  1  0  0  0  0
 34 33  1  0  0  0  0
M  END
>  <MODEL>
4

>  <REMARK>
 VINA RESULT:      -8.3      2.119      7.325
  Name = 
  7 active torsions:
  status: ('A' for Active; 'I' for Inactive)
    1  A    between atoms: C_1  and  C_34
    2  A    between atoms: C_2  and  C_32
    3  A    between atoms: O_3  and  C_13
    4  A    between atoms: O_3  and  C_25
    5  A    between atoms: C_11  and  C_15
    6  A    between atoms: C_18  and  C_30
    7  A    between atoms: C_26  and  C_28
                            x       y       z     vdW  Elec       q    Type
                         _______ _______ _______ _____ _____    ______ ____

>  <TORSDO>
F 7

$$$$
=
 OpenBabel10262423293D

 34 39  0  0  1  0  0  0  0  0999 V2000
  187.3800  177.5630  143.9080 C   0  0  0  0  0  0  0  0  0  0  0  0
  185.4240  178.5790  142.1640 C   0  0  0  0  0  3  0  0  0  0  0  0
  187.6070  177.6090  142.5290 C   0  0  0  0  0  3  0  0  0  0  0  0
  185.1730  178.5430  143.5350 C   0  0  0  0  0  0  0  0  0  0  0  0
  183.6900  178.9840  145.3980 C   0  0  0  0  0  3  0  0  0  0  0  0
  183.9530  179.0140  144.0260 C   0  0  0  0  0  3  0  0  0  0  0  0
  186.6400  178.1130  141.6450 C   0  0  0  0  0  0  0  0  0  0  0  0
  185.8700  178.0110  145.8000 C   0  0  0  0  0  3  0  0  0  0  0  0
  186.1510  178.0340  144.4240 C   0  0  0  0  0  0  0  0  0  0  0  0
  184.6470  178.4830  146.2840 C   0  0  0  0  0  3  0  0  0  0  0  0
  186.1240  178.5140  137.9120 C   0  0  0  0  0  3  0  0  0  0  0  0
  188.1840  177.8830  139.6830 C   0  0  0  0  0  3  0  0  0  0  0  0
  187.6230  178.3360  135.9430 C   0  0  0  0  0  1  0  0  0  0  0  0
  187.4010  178.2430  137.4150 C   0  0  0  0  0  0  0  0  0  0  0  0
  188.4430  177.9050  138.3040 C   0  0  0  0  0  0  0  0  0  0  0  0
  186.9020  178.1540  140.1860 C   0  0  0  0  0  0  0  0  0  0  0  0
  185.8750  178.4660  139.2840 C   0  0  0  0  0  3  0  0  0  0  0  0
  190.1220  176.1980  137.8080 N   0  0  2  0  0  0  0  0  0  0  0  0
  191.4840  175.9820  138.3300 C   0  0  2  0  0  3  0  0  0  0  0  0
  189.8420  177.6480  137.8120 C   0  0  2  0  0  3  0  0  0  0  0  0
  190.6870  177.0790  138.8640 C   0  0  1  0  0  3  0  0  0  0  0  0
  192.5200  176.4890  137.3390 C   0  0  0  0  0  2  0  0  0  0  0  0
  193.7950  176.3500  137.8860 O   0  0  0  0  0  1  0  0  0  0  0  0
  189.8810  177.1270  144.1130 C   0  0  2  0  0  3  0  0  0  0  0  0
  190.8660  176.5940  144.9660 O   0  0  0  0  0  0  0  0  0  0  0  0
  190.9520  177.4480  146.0810 C   0  0  1  0  0  3  0  0  0  0  0  0
  189.7110  177.2710  146.9520 C   0  0  0  0  0  2  0  0  0  0  0  0
  188.4830  177.6760  146.1470 C   0  0  0  0  0  2  0  0  0  0  0  0
  188.4870  177.0080  144.7680 C   0  0  1  0  0  3  0  0  0  0  0  0
  189.9520  175.8350  141.8290 N   0  0  0  0  0  0  0  0  0  0  0  0
  189.9210  176.4050  142.8360 C   0  0  0  0  0  0  0  0  0  0  0  0
  192.0920  177.1330  146.8210 O   0  0  0  0  0  0  0  0  0  0  0  0
  191.7670  175.9480  147.4840 C   0  0  0  0  0  2  0  0  0  0  0  0
  192.8960  175.5660  148.4180 C   0  0  0  0  0  1  0  0  0  0  0  0
  1  9  1  0  0  0  0
  1 29  1  0  0  0  0
  2  4  1  0  0  0  0
  3  1  2  0  0  0  0
  4  6  2  0  0  0  0
  4  9  1  0  0  0  0
  5 10  2  0  0  0  0
  6  5  1  0  0  0  0
  7  2  2  0  0  0  0
  7  3  1  0  0  0  0
  8 10  1  0  0  0  0
  9  8  2  0  0  0  0
 11 17  1  0  0  0  0
 12 16  1  0  0  0  0
 13 14  1  0  0  0  0
 14 11  2  0  0  0  0
 14 15  1  0  0  0  0
 15 12  2  0  0  0  0
 16  7  1  0  0  0  0
 17 16  2  0  0  0  0
 18 20  1  0  0  0  0
 18 19  1  0  0  0  0
 18 21  1  0  0  0  0
 19 21  1  0  0  0  0
 20 15  1  0  0  0  0
 20 21  1  0  0  0  0
 22 23  1  0  0  0  0
 22 19  1  0  0  0  0
 24 29  1  0  0  0  0
 24 25  1  0  0  0  0
 25 26  1  0  0  0  0
 26 32  1  0  0  0  0
 26 27  1  0  0  0  0
 28 27  1  0  0  0  0
 29 28  1  0  0  0  0
 30 31  3  0  0  0  0
 31 24  1  0  0  0  0
 32 33  1  0  0  0  0
 33 34  1  0  0  0  0
M  END
>  <MODEL>
5

>  <REMARK>
 VINA RESULT:      -8.1      3.887      7.691
  Name = 
  7 active torsions:
  status: ('A' for Active; 'I' for Inactive)
    1  A    between atoms: C_1  and  C_34
    2  A    between atoms: C_2  and  C_32
    3  A    between atoms: O_3  and  C_13
    4  A    between atoms: O_3  and  C_25
    5  A    between atoms: C_11  and  C_15
    6  A    between atoms: C_18  and  C_30
    7  A    between atoms: C_26  and  C_28
                            x       y       z     vdW  Elec       q    Type
                         _______ _______ _______ _____ _____    ______ ____

>  <TORSDO>
F 7

$$$$
=
 OpenBabel10262423293D

 34 39  0  0  1  0  0  0  0  0999 V2000
  187.3460  177.6580  144.0560 C   0  0  0  0  0  0  0  0  0  0  0  0
  185.7950  178.6480  141.9300 C   0  0  0  0  0  3  0  0  0  0  0  0
  187.8470  177.6710  142.7510 C   0  0  0  0  0  3  0  0  0  0  0  0
  185.2720  178.6460  143.2230 C   0  0  0  0  0  0  0  0  0  0  0  0
  183.4470  179.1400  144.7360 C   0  0  0  0  0  3  0  0  0  0  0  0
  183.9830  179.1370  143.4460 C   0  0  0  0  0  3  0  0  0  0  0  0
  187.0860  178.1610  141.6790 C   0  0  0  0  0  0  0  0  0  0  0  0
  185.4880  178.1610  145.5930 C   0  0  0  0  0  3  0  0  0  0  0  0
  186.0430  178.1500  144.3020 C   0  0  0  0  0  0  0  0  0  0  0  0
  184.1990  178.6520  145.8080 C   0  0  0  0  0  3  0  0  0  0  0  0
  189.5410  178.2570  138.7940 C   0  0  0  0  0  3  0  0  0  0  0  0
  186.7870  178.0760  139.1920 C   0  0  0  0  0  3  0  0  0  0  0  0
  189.2960  178.1380  136.3280 C   0  0  0  0  0  1  0  0  0  0  0  0
  188.6900  178.1670  137.6900 C   0  0  0  0  0  0  0  0  0  0  0  0
  187.2950  178.0940  137.8840 C   0  0  0  0  0  0  0  0  0  0  0  0
  187.6390  178.1670  140.3030 C   0  0  0  0  0  0  0  0  0  0  0  0
  189.0210  178.2610  140.0890 C   0  0  0  0  0  3  0  0  0  0  0  0
  184.9960  177.6070  137.2070 N   0  0  2  0  0  0  0  0  0  0  0  0
  184.4330  176.5680  136.3250 C   0  0  2  0  0  3  0  0  0  0  0  0
  186.3470  177.9530  136.7220 C   0  0  2  0  0  3  0  0  0  0  0  0
  185.8680  176.5770  136.5830 C   0  0  1  0  0  3  0  0  0  0  0  0
  184.1190  177.1480  134.9540 C   0  0  0  0  0  2  0  0  0  0  0  0
  182.7380  177.2290  134.7880 O   0  0  0  0  0  1  0  0  0  0  0  0
  189.7410  177.1320  144.7400 C   0  0  2  0  0  3  0  0  0  0  0  0
  190.5270  176.6150  145.7880 O   0  0  0  0  0  0  0  0  0  0  0  0
  190.4570  177.5370  146.8480 C   0  0  1  0  0  3  0  0  0  0  0  0
  189.0720  177.4700  147.4870 C   0  0  0  0  0  2  0  0  0  0  0  0
  188.0320  177.8720  146.4490 C   0  0  0  0  0  2  0  0  0  0  0  0
  188.2480  177.1150  145.1350 C   0  0  1  0  0  3  0  0  0  0  0  0
  190.1530  175.6890  142.5860 N   0  0  0  0  0  0  0  0  0  0  0  0
  189.9720  176.3260  143.5350 C   0  0  0  0  0  0  0  0  0  0  0  0
  191.4260  177.2230  147.8020 O   0  0  0  0  0  0  0  0  0  0  0  0
  191.9410  175.9920  147.3930 C   0  0  0  0  0  2  0  0  0  0  0  0
  193.0070  175.5410  148.3680 C   0  0  0  0  0  1  0  0  0  0  0  0
  1  9  1  0  0  0  0
  1 29  1  0  0  0  0
  2  4  1  0  0  0  0
  3  1  2  0  0  0  0
  4  6  2  0  0  0  0
  4  9  1  0  0  0  0
  5 10  2  0  0  0  0
  6  5  1  0  0  0  0
  7  2  2  0  0  0  0
  7  3  1  0  0  0  0
  8 10  1  0  0  0  0
  9  8  2  0  0  0  0
 11 17  1  0  0  0  0
 12 16  1  0  0  0  0
 13 14  1  0  0  0  0
 14 15  1  0  0  0  0
 14 11  2  0  0  0  0
 15 12  2  0  0  0  0
 16  7  1  0  0  0  0
 17 16  2  0  0  0  0
 19 21  1  0  0  0  0
 19 18  1  0  0  0  0
 20 18  1  0  0  0  0
 20 15  1  0  0  0  0
 21 20  1  0  0  0  0
 21 18  1  0  0  0  0
 22 19  1  0  0  0  0
 23 22  1  0  0  0  0
 24 29  1  0  0  0  0
 24 25  1  0  0  0  0
 25 26  1  0  0  0  0
 26 27  1  0  0  0  0
 26 32  1  0  0  0  0
 28 27  1  0  0  0  0
 29 28  1  0  0  0  0
 30 31  3  0  0  0  0
 31 24  1  0  0  0  0
 33 32  1  0  0  0  0
 33 34  1  0  0  0  0
M  END
>  <MODEL>
6

>  <REMARK>
 VINA RESULT:      -7.9      2.835      8.287
  Name = 
  7 active torsions:
  status: ('A' for Active; 'I' for Inactive)
    1  A    between atoms: C_1  and  C_34
    2  A    between atoms: C_2  and  C_32
    3  A    between atoms: O_3  and  C_13
    4  A    between atoms: O_3  and  C_25
    5  A    between atoms: C_11  and  C_15
    6  A    between atoms: C_18  and  C_30
    7  A    between atoms: C_26  and  C_28
                            x       y       z     vdW  Elec       q    Type
                         _______ _______ _______ _____ _____    ______ ____

>  <TORSDO>
F 7

$$$$
=
 OpenBabel10262423293D

 34 39  0  0  1  0  0  0  0  0999 V2000
  185.6220  178.5370  143.5600 C   0  0  0  0  0  0  0  0  0  0  0  0
  188.2250  177.5990  144.0580 C   0  0  0  0  0  3  0  0  0  0  0  0
  186.4920  178.2490  142.5040 C   0  0  0  0  0  3  0  0  0  0  0  0
  187.3770  177.8790  145.1290 C   0  0  0  0  0  0  0  0  0  0  0  0
  186.9900  177.9660  147.5180 C   0  0  0  0  0  3  0  0  0  0  0  0
  187.8300  177.6900  146.4370 C   0  0  0  0  0  3  0  0  0  0  0  0
  187.7940  177.7810  142.7360 C   0  0  0  0  0  0  0  0  0  0  0  0
  185.2320  178.6250  145.9900 C   0  0  0  0  0  3  0  0  0  0  0  0
  186.0630  178.3520  144.8910 C   0  0  0  0  0  0  0  0  0  0  0  0
  185.6920  178.4340  147.2950 C   0  0  0  0  0  3  0  0  0  0  0  0
  190.8830  176.8190  140.7610 C   0  0  0  0  0  3  0  0  0  0  0  0
  188.2380  177.5600  140.2790 C   0  0  0  0  0  3  0  0  0  0  0  0
  191.3560  176.5500  138.3400 C   0  0  0  0  0  1  0  0  0  0  0  0
  190.4180  176.8990  139.4460 C   0  0  0  0  0  0  0  0  0  0  0  0
  189.0870  177.2920  139.1940 C   0  0  0  0  0  0  0  0  0  0  0  0
  188.7000  177.4810  141.6010 C   0  0  0  0  0  0  0  0  0  0  0  0
  190.0330  177.1110  141.8290 C   0  0  0  0  0  3  0  0  0  0  0  0
  187.7440  178.5810  137.6090 N   0  0  2  0  0  0  0  0  0  0  0  0
  186.5200  178.2430  136.8590 C   0  0  2  0  0  3  0  0  0  0  0  0
  188.5370  177.3490  137.7940 C   0  0  2  0  0  3  0  0  0  0  0  0
  187.0750  177.2650  137.7860 C   0  0  1  0  0  3  0  0  0  0  0  0
  186.8600  177.8870  135.4190 C   0  0  0  0  0  2  0  0  0  0  0  0
  185.6990  177.5090  134.7470 O   0  0  0  0  0  1  0  0  0  0  0  0
  183.7720  178.5470  141.8110 C   0  0  2  0  0  3  0  0  0  0  0  0
  182.4810  179.0380  141.5380 O   0  0  0  0  0  0  0  0  0  0  0  0
  181.5990  178.3950  142.4260 C   0  0  1  0  0  3  0  0  0  0  0  0
  181.8080  178.9440  143.8350 C   0  0  0  0  0  2  0  0  0  0  0  0
  183.2310  178.6290  144.2790 C   0  0  0  0  0  2  0  0  0  0  0  0
  184.2430  179.0280  143.2010 C   0  0  1  0  0  3  0  0  0  0  0  0
  185.4060  179.3780  139.9320 N   0  0  0  0  0  0  0  0  0  0  0  0
  184.6850  179.0110  140.7600 C   0  0  0  0  0  0  0  0  0  0  0  0
  180.2830  178.6280  142.0240 O   0  0  0  0  0  0  0  0  0  0  0  0
  179.9110  179.7970  142.6910 C   0  0  0  0  0  2  0  0  0  0  0  0
  179.3060  180.7710  141.7020 C   0  0  0  0  0  1  0  0  0  0  0  0
  1  9  1  0  0  0  0
  2  4  1  0  0  0  0
  3  7  1  0  0  0  0
  3  1  2  0  0  0  0
  4  6  1  0  0  0  0
  6  5  2  0  0  0  0
  7  2  2  0  0  0  0
  8 10  2  0  0  0  0
  9  4  2  0  0  0  0
  9  8  1  0  0  0  0
 10  5  1  0  0  0  0
 11 17  1  0  0  0  0
 12 16  1  0  0  0  0
 13 14  1  0  0  0  0
 14 11  2  0  0  0  0
 15 14  1  0  0  0  0
 15 12  2  0  0  0  0
 16 17  2  0  0  0  0
 16  7  1  0  0  0  0
 18 21  1  0  0  0  0
 18 20  1  0  0  0  0
 19 18  1  0  0  0  0
 19 21  1  0  0  0  0
 20 15  1  0  0  0  0
 21 20  1  0  0  0  0
 22 19  1  0  0  0  0
 23 22  1  0  0  0  0
 24 29  1  0  0  0  0
 25 24  1  0  0  0  0
 25 26  1  0  0  0  0
 26 27  1  0  0  0  0
 27 28  1  0  0  0  0
 29  1  1  0  0  0  0
 29 28  1  0  0  0  0
 30 31  3  0  0  0  0
 31 24  1  0  0  0  0
 32 26  1  0  0  0  0
 32 33  1  0  0  0  0
 34 33  1  0  0  0  0
M  END
>  <MODEL>
7

>  <REMARK>
 VINA RESULT:      -7.9      2.711      6.717
  Name = 
  7 active torsions:
  status: ('A' for Active; 'I' for Inactive)
    1  A    between atoms: C_1  and  C_34
    2  A    between atoms: C_2  and  C_32
    3  A    between atoms: O_3  and  C_13
    4  A    between atoms: O_3  and  C_25
    5  A    between atoms: C_11  and  C_15
    6  A    between atoms: C_18  and  C_30
    7  A    between atoms: C_26  and  C_28
                            x       y       z     vdW  Elec       q    Type
                         _______ _______ _______ _____ _____    ______ ____

>  <TORSDO>
F 7

$$$$
=
 OpenBabel10262423293D

 34 39  0  0  1  0  0  0  0  0999 V2000
  186.9130  178.3940  140.9970 C   0  0  0  0  0  0  0  0  0  0  0  0
  184.8870  178.3740  142.9460 C   0  0  0  0  0  3  0  0  0  0  0  0
  187.2300  178.3000  142.3560 C   0  0  0  0  0  3  0  0  0  0  0  0
  184.5460  178.4690  141.5970 C   0  0  0  0  0  0  0  0  0  0  0  0
  182.8450  178.6470  139.8830 C   0  0  0  0  0  3  0  0  0  0  0  0
  183.2000  178.5520  141.2300 C   0  0  0  0  0  3  0  0  0  0  0  0
  186.2300  178.2890  143.3410 C   0  0  0  0  0  0  0  0  0  0  0  0
  185.1820  178.5760  139.2560 C   0  0  0  0  0  3  0  0  0  0  0  0
  185.5570  178.4800  140.6060 C   0  0  0  0  0  0  0  0  0  0  0  0
  183.8350  178.6590  138.8970 C   0  0  0  0  0  3  0  0  0  0  0  0
  186.1190  178.6840  147.1080 C   0  0  0  0  0  3  0  0  0  0  0  0
  187.7350  177.4860  145.1770 C   0  0  0  0  0  3  0  0  0  0  0  0
  187.5580  177.8780  148.9610 C   0  0  0  0  0  1  0  0  0  0  0  0
  187.2620  177.9850  147.5040 C   0  0  0  0  0  0  0  0  0  0  0  0
  188.0940  177.3930  146.5310 C   0  0  0  0  0  0  0  0  0  0  0  0
  186.5880  178.1870  144.7760 C   0  0  0  0  0  0  0  0  0  0  0  0
  185.7860  178.7880  145.7570 C   0  0  0  0  0  3  0  0  0  0  0  0
  190.4630  177.4940  147.1250 N   0  0  2  0  0  0  0  0  0  0  0  0
  191.6550  176.8770  146.5140 C   0  0  2  0  0  3  0  0  0  0  0  0
  189.3100  176.5950  146.9190 C   0  0  2  0  0  3  0  0  0  0  0  0
  190.3520  176.6700  145.8930 C   0  0  1  0  0  3  0  0  0  0  0  0
  192.0850  175.6520  147.3070 C   0  0  0  0  0  2  0  0  0  0  0  0
  193.1200  175.9990  148.1740 O   0  0  0  0  0  1  0  0  0  0  0  0
  189.2260  177.4740  140.4590 C   0  0  2  0  0  3  0  0  0  0  0  0
  190.2620  177.5160  139.5070 O   0  0  0  0  0  0  0  0  0  0  0  0
  189.7760  176.8970  138.3410 C   0  0  1  0  0  3  0  0  0  0  0  0
  188.7530  177.8110  137.6710 C   0  0  0  0  0  2  0  0  0  0  0  0
  187.5770  178.0120  138.6190 C   0  0  0  0  0  2  0  0  0  0  0  0
  188.0630  178.3910  140.0210 C   0  0  1  0  0  3  0  0  0  0  0  0
  190.1830  178.2250  142.7840 N   0  0  0  0  0  0  0  0  0  0  0  0
  189.7610  177.8940  141.7590 C   0  0  0  0  0  0  0  0  0  0  0  0
  190.8360  176.6610  137.4640 O   0  0  0  0  0  0  0  0  0  0  0  0
  190.3400  175.7270  136.5530 C   0  0  0  0  0  2  0  0  0  0  0  0
  190.2540  174.3690  137.2180 C   0  0  0  0  0  1  0  0  0  0  0  0
  1  3  1  0  0  0  0
  2  7  1  0  0  0  0
  3  7  2  0  0  0  0
  4  2  2  0  0  0  0
  5  6  2  0  0  0  0
  6  4  1  0  0  0  0
  7 16  1  0  0  0  0
  8  9  1  0  0  0  0
  9  1  2  0  0  0  0
  9  4  1  0  0  0  0
 10  8  2  0  0  0  0
 10  5  1  0  0  0  0
 11 14  1  0  0  0  0
 12 15  1  0  0  0  0
 14 13  1  0  0  0  0
 15 20  1  0  0  0  0
 15 14  2  0  0  0  0
 16 12  2  0  0  0  0
 16 17  1  0  0  0  0
 17 11  2  0  0  0  0
 19 18  1  0  0  0  0
 19 22  1  0  0  0  0
 20 18  1  0  0  0  0
 21 19  1  0  0  0  0
 21 20  1  0  0  0  0
 21 18  1  0  0  0  0
 22 23  1  0  0  0  0
 24 31  1  0  0  0  0
 25 24  1  0  0  0  0
 26 25  1  0  0  0  0
 27 26  1  0  0  0  0
 27 28  1  0  0  0  0
 28 29  1  0  0  0  0
 29 24  1  0  0  0  0
 29  1  1  0  0  0  0
 31 30  3  0  0  0  0
 32 26  1  0  0  0  0
 33 34  1  0  0  0  0
 33 32  1  0  0  0  0
M  END
>  <MODEL>
8

>  <REMARK>
 VINA RESULT:      -7.5      3.036      4.580
  Name = 
  7 active torsions:
  status: ('A' for Active; 'I' for Inactive)
    1  A    between atoms: C_1  and  C_34
    2  A    between atoms: C_2  and  C_32
    3  A    between atoms: O_3  and  C_13
    4  A    between atoms: O_3  and  C_25
    5  A    between atoms: C_11  and  C_15
    6  A    between atoms: C_18  and  C_30
    7  A    between atoms: C_26  and  C_28
                            x       y       z     vdW  Elec       q    Type
                         _______ _______ _______ _____ _____    ______ ____

>  <TORSDO>
F 7

$$$$
=
 OpenBabel10262423293D

 34 39  0  0  1  0  0  0  0  0999 V2000
  183.9690  178.8530  140.3590 C   0  0  0  0  0  0  0  0  0  0  0  0
  185.6430  178.4010  142.5720 C   0  0  0  0  0  3  0  0  0  0  0  0
  185.3370  178.6230  140.1850 C   0  0  0  0  0  3  0  0  0  0  0  0
  184.2820  178.6280  142.7720 C   0  0  0  0  0  0  0  0  0  0  0  0
  182.4040  178.8540  144.2840 C   0  0  0  0  0  3  0  0  0  0  0  0
  183.7650  178.6280  144.0700 C   0  0  0  0  0  3  0  0  0  0  0  0
  186.1860  178.3960  141.2790 C   0  0  0  0  0  0  0  0  0  0  0  0
  182.0610  179.0830  141.8990 C   0  0  0  0  0  3  0  0  0  0  0  0
  183.4280  178.8570  141.6660 C   0  0  0  0  0  0  0  0  0  0  0  0
  181.5530  179.0820  143.2000 C   0  0  0  0  0  3  0  0  0  0  0  0
  189.5670  178.0500  139.6020 C   0  0  0  0  0  3  0  0  0  0  0  0
  188.4600  177.8000  142.1490 C   0  0  0  0  0  3  0  0  0  0  0  0
  191.8430  177.5030  140.4250 C   0  0  0  0  0  1  0  0  0  0  0  0
  190.3870  177.7000  140.6780 C   0  0  0  0  0  0  0  0  0  0  0  0
  189.8290  177.5530  141.9660 C   0  0  0  0  0  0  0  0  0  0  0  0
  187.6340  178.1520  141.0710 C   0  0  0  0  0  0  0  0  0  0  0  0
  188.2030  178.2710  139.7950 C   0  0  0  0  0  3  0  0  0  0  0  0
  189.8460  176.7060  144.2600 N   0  0  2  0  0  0  0  0  0  0  0  0
  190.3120  177.3070  145.5230 C   0  0  2  0  0  3  0  0  0  0  0  0
  190.6850  177.2180  143.1570 C   0  0  2  0  0  3  0  0  0  0  0  0
  190.3880  178.0900  144.2950 C   0  0  1  0  0  3  0  0  0  0  0  0
  191.6760  176.7520  145.9030 C   0  0  0  0  0  2  0  0  0  0  0  0
  191.8160  176.7720  147.2900 O   0  0  0  0  0  1  0  0  0  0  0  0
  182.0340  178.0250  138.9260 C   0  0  2  0  0  3  0  0  0  0  0  0
  181.3050  178.2940  137.7520 O   0  0  0  0  0  0  0  0  0  0  0  0
  180.5930  179.4870  137.9730 C   0  0  1  0  0  3  0  0  0  0  0  0
  181.5640  180.6650  137.9680 C   0  0  0  0  0  2  0  0  0  0  0  0
  182.5540  180.4920  139.1130 C   0  0  0  0  0  2  0  0  0  0  0  0
  183.1460  179.0790  139.1160 C   0  0  1  0  0  3  0  0  0  0  0  0
  183.0540  175.6120  138.7530 N   0  0  0  0  0  0  0  0  0  0  0  0
  182.6050  176.6760  138.8290 C   0  0  0  0  0  0  0  0  0  0  0  0
  179.6460  179.6580  136.9630 O   0  0  0  0  0  0  0  0  0  0  0  0
  180.2730  180.4780  136.0240 C   0  0  0  0  0  2  0  0  0  0  0  0
  179.2290  181.1160  135.1330 C   0  0  0  0  0  1  0  0  0  0  0  0
  1  9  1  0  0  0  0
  2  4  1  0  0  0  0
  3  1  2  0  0  0  0
  3  7  1  0  0  0  0
  4  6  1  0  0  0  0
  6  5  2  0  0  0  0
  7  2  2  0  0  0  0
  8 10  2  0  0  0  0
  9  8  1  0  0  0  0
  9  4  2  0  0  0  0
 10  5  1  0  0  0  0
 11 17  2  0  0  0  0
 11 14  1  0  0  0  0
 13 14  1  0  0  0  0
 14 15  2  0  0  0  0
 15 12  1  0  0  0  0
 15 20  1  0  0  0  0
 16  7  1  0  0  0  0
 16 12  2  0  0  0  0
 17 16  1  0  0  0  0
 18 21  1  0  0  0  0
 18 19  1  0  0  0  0
 19 22  1  0  0  0  0
 20 18  1  0  0  0  0
 20 21  1  0  0  0  0
 21 19  1  0  0  0  0
 22 23  1  0  0  0  0
 24 29  1  0  0  0  0
 25 26  1  0  0  0  0
 25 24  1  0  0  0  0
 27 26  1  0  0  0  0
 27 28  1  0  0  0  0
 28 29  1  0  0  0  0
 29  1  1  0  0  0  0
 30 31  3  0  0  0  0
 31 24  1  0  0  0  0
 32 26  1  0  0  0  0
 33 32  1  0  0  0  0
 34 33  1  0  0  0  0
M  END
>  <MODEL>
9

>  <REMARK>
 VINA RESULT:      -7.4      2.695      4.747
  Name = 
  7 active torsions:
  status: ('A' for Active; 'I' for Inactive)
    1  A    between atoms: C_1  and  C_34
    2  A    between atoms: C_2  and  C_32
    3  A    between atoms: O_3  and  C_13
    4  A    between atoms: O_3  and  C_25
    5  A    between atoms: C_11  and  C_15
    6  A    between atoms: C_18  and  C_30
    7  A    between atoms: C_26  and  C_28
                            x       y       z     vdW  Elec       q    Type
                         _______ _______ _______ _____ _____    ______ ____

>  <TORSDO>
F 7

$$$$
