=
 OpenBabel10262421193D

 32 33  0  0  1  0  0  0  0  0999 V2000
  187.6610  178.8130  140.7680 O   0  0  0  0  0  0  0  0  0  0  0  0
  188.6420  177.9000  140.3300 C   0  0  2  0  0  3  0  0  0  0  0  0
  189.4540  177.3570  141.5080 C   0  0  1  0  0  3  0  0  0  0  0  0
  191.2400  177.3560  141.0910 S   0  0  0  0  0  0  0  0  0  0  0  0
  189.5410  177.5930  146.3410 C   0  0  0  0  0  2  0  0  0  0  0  0
  189.2090  178.1310  142.7680 C   0  0  0  0  0  3  0  0  0  0  0  0
  191.5860  176.5440  145.1870 C   0  0  0  0  0  2  0  0  0  0  0  0
  190.8910  176.6890  143.8360 C   0  0  2  0  0  3  0  0  0  0  0  0
  191.9330  176.9710  142.7570 C   0  0  0  0  0  2  0  0  0  0  0  0
  189.8690  177.7980  143.8790 C   0  0  0  0  0  0  0  0  0  0  0  0
  190.5570  176.4360  146.3160 C   0  0  0  0  0  2  0  0  0  0  0  0
  189.6370  178.5550  145.1500 C   0  0  0  0  0  2  0  0  0  0  0  0
  189.4650  178.4840  139.3540 O   0  0  0  0  0  0  0  0  0  0  0  0
  188.7540  178.3570  138.1580 C   0  0  1  0  0  3  0  0  0  0  0  0
  188.8480  179.5970  137.4070 N   0  0  0  0  0  1  0  0  0  0  0  0
  188.2460  176.2390  136.9520 C   0  0  0  0  0  1  0  0  0  0  0  0
  189.3380  177.2160  137.3410 C   0  0  0  0  0  2  0  0  0  0  0  0
  186.4920  178.3390  140.3600 O   0  0  0  0  0  0  0  0  0  0  0  0
  185.5060  179.2520  140.7790 C   0  0  1  0  0  3  0  0  0  0  0  0
  184.7740  179.7430  139.6910 O   0  0  0  0  0  1  0  0  0  0  0  0
  184.6130  178.6760  141.8480 C   0  0  0  0  0  0  0  0  0  0  0  0
  184.0460  177.6090  141.6680 O   0  0  0  0  0  0  0  0  0  0  0  0
  184.4000  179.4060  143.1440 C   0  0  0  0  0  2  0  0  0  0  0  0
  183.3910  178.7360  144.0810 C   0  0  1  0  0  3  0  0  0  0  0  0
  183.9630  178.5130  145.4790 C   0  0  0  0  0  2  0  0  0  0  0  0
  185.4690  178.7240  145.4910 C   0  0  0  0  0  3  0  0  0  0  0  0
  186.1580  177.4240  145.1300 C   0  0  0  0  0  1  0  0  0  0  0  0
  185.9390  179.1650  146.8640 C   0  0  0  0  0  1  0  0  0  0  0  0
  182.0760  179.5050  144.1340 C   0  0  0  0  0  2  0  0  0  0  0  0
  181.0570  178.5920  142.1810 O   0  0  0  0  0  0  0  0  0  0  0  0
  179.8870  178.2490  144.1580 N   0  0  0  0  0  1  0  0  0  0  0  0
  180.9980  178.7550  143.4280 C   0  0  0  0  0  0  0  0  0  0  0  0
  2 13  1  6  0  0  0
  2  1  1  0  0  0  0
  3  2  1  6  0  0  0
  3  6  1  0  0  0  0
  4  3  1  0  0  0  0
  4  9  1  0  0  0  0
  6 10  2  0  0  0  0
  7 11  1  0  0  0  0
  8  9  1  6  0  0  0
  8 10  1  0  0  0  0
  8  7  1  0  0  0  0
 10 12  1  0  0  0  0
 11  5  1  0  0  0  0
 12  5  1  0  0  0  0
 14 15  1  6  0  0  0
 14 13  1  0  0  0  0
 16 17  1  0  0  0  0
 17 14  1  0  0  0  0
 18  1  1  0  0  0  0
 18 19  1  0  0  0  0
 19 20  1  6  0  0  0
 19 21  1  0  0  0  0
 21 23  1  0  0  0  0
 22 21  2  0  0  0  0
 24 23  1  6  0  0  0
 24 29  1  0  0  0  0
 24 25  1  0  0  0  0
 25 26  1  0  0  0  0
 26 28  1  0  0  0  0
 27 26  1  0  0  0  0
 30 32  2  0  0  0  0
 32 29  1  0  0  0  0
 32 31  1  0  0  0  0
M  END
>  <MODEL>
1

>  <REMARK>
 VINA RESULT:      -7.3      0.000      0.000
  Name = 
  14 active torsions:
  status: ('A' for Active; 'I' for Inactive)
    1  A    between atoms: O_1  and  C_5
    2  A    between atoms: O_1  and  O_30
    3  A    between atoms: C_2  and  C_5
    4  A    between atoms: C_3  and  C_8
    5  A    between atoms: C_3  and  C_20
    6  A    between atoms: C_4  and  C_24
    7  A    between atoms: C_4  and  O_30
    8  A    between atoms: C_5  and  O_14
    9  A    between atoms: C_13  and  O_14
   10  A    between atoms: C_13  and  C_29
   11  A    between atoms: C_15  and  C_20
   12  A    between atoms: C_15  and  C_26
   13  A    between atoms: C_16  and  C_20
   14  A    between atoms: C_16  and  C_24
                            x       y       z     vdW  Elec       q    Type
                         _______ _______ _______ _____ _____    ______ ____

>  <TORSDO>
F 14

$$$$
=
 OpenBabel10262421193D

 32 33  0  0  1  0  0  0  0  0999 V2000
  185.3800  178.2690  140.4060 O   0  0  0  0  0  0  0  0  0  0  0  0
  184.4150  179.1080  141.0020 C   0  0  2  0  0  3  0  0  0  0  0  0
  184.5990  179.1660  142.5200 C   0  0  1  0  0  3  0  0  0  0  0  0
  182.9770  178.9790  143.3550 S   0  0  0  0  0  0  0  0  0  0  0  0
  187.6740  177.6150  145.9210 C   0  0  0  0  0  2  0  0  0  0  0  0
  185.5650  178.1310  143.0140 C   0  0  0  0  0  3  0  0  0  0  0  0
  185.4300  178.5780  146.7280 C   0  0  0  0  0  2  0  0  0  0  0  0
  185.0660  178.9250  145.2870 C   0  0  2  0  0  3  0  0  0  0  0  0
  183.5590  178.7750  145.0940 C   0  0  0  0  0  2  0  0  0  0  0  0
  185.8080  178.0350  144.3210 C   0  0  0  0  0  0  0  0  0  0  0  0
  186.9500  178.5470  146.9100 C   0  0  0  0  0  2  0  0  0  0  0  0
  186.7730  177.0110  144.8350 C   0  0  0  0  0  2  0  0  0  0  0  0
  183.1180  178.7050  140.6490 O   0  0  0  0  0  0  0  0  0  0  0  0
  182.8780  179.3070  139.4110 C   0  0  1  0  0  3  0  0  0  0  0  0
  182.8960  178.2930  138.3700 N   0  0  0  0  0  1  0  0  0  0  0  0
  181.5410  181.2240  138.5540 C   0  0  0  0  0  1  0  0  0  0  0  0
  181.5220  179.9920  139.4370 C   0  0  0  0  0  2  0  0  0  0  0  0
  186.2450  179.0640  139.7910 O   0  0  0  0  0  0  0  0  0  0  0  0
  186.8500  178.3060  138.7710 C   0  0  1  0  0  3  0  0  0  0  0  0
  186.4700  178.7650  137.5050 O   0  0  0  0  0  1  0  0  0  0  0  0
  188.3480  178.2380  138.9220 C   0  0  0  0  0  0  0  0  0  0  0  0
  189.0630  179.0400  138.3420 O   0  0  0  0  0  0  0  0  0  0  0  0
  188.9850  177.1820  139.7810 C   0  0  0  0  0  2  0  0  0  0  0  0
  190.5160  177.1960  139.7570 C   0  0  1  0  0  3  0  0  0  0  0  0
  191.1130  177.2740  141.1600 C   0  0  0  0  0  2  0  0  0  0  0  0
  190.0420  177.0670  142.2200 C   0  0  0  0  0  3  0  0  0  0  0  0
  190.0730  178.2260  143.1950 C   0  0  0  0  0  1  0  0  0  0  0  0
  190.2800  175.7770  142.9820 C   0  0  0  0  0  1  0  0  0  0  0  0
  191.0780  176.0110  138.9790 C   0  0  0  0  0  2  0  0  0  0  0  0
  192.0900  176.4660  136.8690 O   0  0  0  0  0  0  0  0  0  0  0  0
  193.4650  176.7850  138.7140 N   0  0  0  0  0  1  0  0  0  0  0  0
  192.2190  176.4380  138.1210 C   0  0  0  0  0  0  0  0  0  0  0  0
  2  1  1  1  0  0  0
  3  2  1  6  0  0  0
  3  6  1  0  0  0  0
  3  4  1  0  0  0  0
  4  9  1  0  0  0  0
  5 11  1  0  0  0  0
  6 10  2  0  0  0  0
  7 11  1  0  0  0  0
  8  9  1  1  0  0  0
  8  7  1  0  0  0  0
 10 12  1  0  0  0  0
 10  8  1  0  0  0  0
 12  5  1  0  0  0  0
 13  2  1  0  0  0  0
 14 15  1  6  0  0  0
 14 17  1  0  0  0  0
 14 13  1  0  0  0  0
 16 17  1  0  0  0  0
 18  1  1  0  0  0  0
 19 20  1  6  0  0  0
 19 21  1  0  0  0  0
 19 18  1  0  0  0  0
 21 23  1  0  0  0  0
 22 21  2  0  0  0  0
 24 29  1  1  0  0  0
 24 23  1  0  0  0  0
 24 25  1  0  0  0  0
 25 26  1  0  0  0  0
 26 28  1  0  0  0  0
 26 27  1  0  0  0  0
 30 32  2  0  0  0  0
 32 31  1  0  0  0  0
 32 29  1  0  0  0  0
M  END
>  <MODEL>
2

>  <REMARK>
 VINA RESULT:      -7.0      2.916      7.127
  Name = 
  14 active torsions:
  status: ('A' for Active; 'I' for Inactive)
    1  A    between atoms: O_1  and  C_5
    2  A    between atoms: O_1  and  O_30
    3  A    between atoms: C_2  and  C_5
    4  A    between atoms: C_3  and  C_8
    5  A    between atoms: C_3  and  C_20
    6  A    between atoms: C_4  and  C_24
    7  A    between atoms: C_4  and  O_30
    8  A    between atoms: C_5  and  O_14
    9  A    between atoms: C_13  and  O_14
   10  A    between atoms: C_13  and  C_29
   11  A    between atoms: C_15  and  C_20
   12  A    between atoms: C_15  and  C_26
   13  A    between atoms: C_16  and  C_20
   14  A    between atoms: C_16  and  C_24
                            x       y       z     vdW  Elec       q    Type
                         _______ _______ _______ _____ _____    ______ ____

>  <TORSDO>
F 14

$$$$
=
 OpenBabel10262421193D

 32 33  0  0  1  0  0  0  0  0999 V2000
  188.8240  178.9100  139.2130 O   0  0  0  0  0  0  0  0  0  0  0  0
  188.0350  177.9770  138.5090 C   0  0  2  0  0  3  0  0  0  0  0  0
  188.8990  177.0930  137.6070 C   0  0  1  0  0  3  0  0  0  0  0  0
  188.7450  177.6370  135.8630 S   0  0  0  0  0  0  0  0  0  0  0  0
  193.2380  174.9470  137.6200 C   0  0  0  0  0  2  0  0  0  0  0  0
  190.3380  177.0890  138.0310 C   0  0  0  0  0  3  0  0  0  0  0  0
  191.9730  175.0090  135.3820 C   0  0  0  0  0  2  0  0  0  0  0  0
  190.7820  175.6600  136.0790 C   0  0  2  0  0  3  0  0  0  0  0  0
  190.0960  176.6270  135.1160 C   0  0  0  0  0  2  0  0  0  0  0  0
  191.2250  176.3880  137.3230 C   0  0  0  0  0  0  0  0  0  0  0  0
  192.7850  174.1680  136.3710 C   0  0  0  0  0  2  0  0  0  0  0  0
  192.6660  176.3670  137.7310 C   0  0  0  0  0  2  0  0  0  0  0  0
  187.0220  178.6260  137.7870 O   0  0  0  0  0  0  0  0  0  0  0  0
  185.8270  178.1120  138.2970 C   0  0  1  0  0  3  0  0  0  0  0  0
  185.0810  179.1770  138.9460 N   0  0  0  0  0  1  0  0  0  0  0  0
  185.3440  176.0590  136.9740 C   0  0  0  0  0  1  0  0  0  0  0  0
  185.0040  177.5250  137.1640 C   0  0  0  0  0  2  0  0  0  0  0  0
  188.2690  179.0500  140.4090 O   0  0  0  0  0  0  0  0  0  0  0  0
  188.4650  177.8410  141.1010 C   0  0  1  0  0  3  0  0  0  0  0  0
  189.7910  177.7130  141.5330 O   0  0  0  0  0  1  0  0  0  0  0  0
  187.4820  177.6630  142.2300 C   0  0  0  0  0  0  0  0  0  0  0  0
  186.3880  178.2030  142.1840 O   0  0  0  0  0  0  0  0  0  0  0  0
  187.8340  176.8280  143.4290 C   0  0  0  0  0  2  0  0  0  0  0  0
  187.8190  177.5970  144.7530 C   0  0  1  0  0  3  0  0  0  0  0  0
  186.5030  177.4200  145.5060 C   0  0  0  0  0  2  0  0  0  0  0  0
  185.8550  178.7650  145.7960 C   0  0  0  0  0  3  0  0  0  0  0  0
  185.9940  179.0790  147.2720 C   0  0  0  0  0  1  0  0  0  0  0  0
  184.3830  178.7430  145.4340 C   0  0  0  0  0  1  0  0  0  0  0  0
  189.0130  177.2360  145.6280 C   0  0  0  0  0  2  0  0  0  0  0  0
  190.4080  178.8670  144.5900 O   0  0  0  0  0  0  0  0  0  0  0  0
  191.3540  176.7580  144.8120 N   0  0  0  0  0  1  0  0  0  0  0  0
  190.2860  177.6810  144.9920 C   0  0  0  0  0  0  0  0  0  0  0  0
  1 18  1  0  0  0  0
  2 13  1  6  0  0  0
  2  1  1  0  0  0  0
  3  6  1  0  0  0  0
  3  2  1  1  0  0  0
  4  3  1  0  0  0  0
  5 12  1  0  0  0  0
  7  8  1  0  0  0  0
  7 11  1  0  0  0  0
  8  9  1  6  0  0  0
  8 10  1  0  0  0  0
  9  4  1  0  0  0  0
 10 12  1  0  0  0  0
 10  6  2  0  0  0  0
 11  5  1  0  0  0  0
 13 14  1  0  0  0  0
 14 15  1  6  0  0  0
 16 17  1  0  0  0  0
 17 14  1  0  0  0  0
 18 19  1  0  0  0  0
 19 20  1  1  0  0  0
 19 21  1  0  0  0  0
 21 23  1  0  0  0  0
 22 21  2  0  0  0  0
 24 23  1  6  0  0  0
 24 25  1  0  0  0  0
 24 29  1  0  0  0  0
 25 26  1  0  0  0  0
 26 27  1  0  0  0  0
 28 26  1  0  0  0  0
 30 32  2  0  0  0  0
 31 32  1  0  0  0  0
 32 29  1  0  0  0  0
M  END
>  <MODEL>
3

>  <REMARK>
 VINA RESULT:      -7.0      3.010      6.076
  Name = 
  14 active torsions:
  status: ('A' for Active; 'I' for Inactive)
    1  A    between atoms: O_1  and  C_5
    2  A    between atoms: O_1  and  O_30
    3  A    between atoms: C_2  and  C_5
    4  A    between atoms: C_3  and  C_8
    5  A    between atoms: C_3  and  C_20
    6  A    between atoms: C_4  and  C_24
    7  A    between atoms: C_4  and  O_30
    8  A    between atoms: C_5  and  O_14
    9  A    between atoms: C_13  and  O_14
   10  A    between atoms: C_13  and  C_29
   11  A    between atoms: C_15  and  C_20
   12  A    between atoms: C_15  and  C_26
   13  A    between atoms: C_16  and  C_20
   14  A    between atoms: C_16  and  C_24
                            x       y       z     vdW  Elec       q    Type
                         _______ _______ _______ _____ _____    ______ ____

>  <TORSDO>
F 14

$$$$
=
 OpenBabel10262421193D

 32 33  0  0  1  0  0  0  0  0999 V2000
  188.6570  178.7640  139.9130 O   0  0  0  0  0  0  0  0  0  0  0  0
  187.8190  177.9740  139.1000 C   0  0  2  0  0  3  0  0  0  0  0  0
  188.6300  177.2140  138.0480 C   0  0  1  0  0  3  0  0  0  0  0  0
  188.3810  177.9710  136.3970 S   0  0  0  0  0  0  0  0  0  0  0  0
  192.9550  175.1020  137.5520 C   0  0  0  0  0  2  0  0  0  0  0  0
  190.0890  177.1630  138.3880 C   0  0  0  0  0  3  0  0  0  0  0  0
  191.5690  175.4380  135.4130 C   0  0  0  0  0  2  0  0  0  0  0  0
  190.4200  175.9920  136.2510 C   0  0  2  0  0  3  0  0  0  0  0  0
  189.6850  177.0690  135.4560 C   0  0  0  0  0  2  0  0  0  0  0  0
  190.9340  176.5600  137.5500 C   0  0  0  0  0  0  0  0  0  0  0  0
  192.4330  174.4830  136.2420 C   0  0  0  0  0  2  0  0  0  0  0  0
  192.3950  176.4930  137.8710 C   0  0  0  0  0  2  0  0  0  0  0  0
  186.8100  178.7560  138.5160 O   0  0  0  0  0  0  0  0  0  0  0  0
  185.6200  178.2950  139.0840 C   0  0  1  0  0  3  0  0  0  0  0  0
  185.1110  179.2900  140.0140 N   0  0  0  0  0  1  0  0  0  0  0  0
  184.7950  176.6660  137.3920 C   0  0  0  0  0  1  0  0  0  0  0  0
  184.5990  178.0470  137.9880 C   0  0  0  0  0  2  0  0  0  0  0  0
  188.2440  178.5940  141.1620 O   0  0  0  0  0  0  0  0  0  0  0  0
  188.9020  177.4560  141.6640 C   0  0  1  0  0  3  0  0  0  0  0  0
  190.2510  177.7230  141.9260 O   0  0  0  0  0  1  0  0  0  0  0  0
  188.1980  176.8710  142.8620 C   0  0  0  0  0  0  0  0  0  0  0  0
  188.3220  175.6870  143.1320 O   0  0  0  0  0  0  0  0  0  0  0  0
  187.3310  177.7320  143.7370 C   0  0  0  0  0  2  0  0  0  0  0  0
  187.2870  177.2900  145.2020 C   0  0  1  0  0  3  0  0  0  0  0  0
  188.3200  178.0220  146.0550 C   0  0  0  0  0  2  0  0  0  0  0  0
  188.6880  177.2070  147.2850 C   0  0  0  0  0  3  0  0  0  0  0  0
  188.5200  178.0640  148.5220 C   0  0  0  0  0  1  0  0  0  0  0  0
  190.1270  176.7330  147.2060 C   0  0  0  0  0  1  0  0  0  0  0  0
  185.8860  177.4240  145.7890 C   0  0  0  0  0  2  0  0  0  0  0  0
  185.6450  179.4900  146.9550 O   0  0  0  0  0  0  0  0  0  0  0  0
  184.9000  179.5050  144.7550 N   0  0  0  0  0  1  0  0  0  0  0  0
  185.4870  178.8580  145.8780 C   0  0  0  0  0  0  0  0  0  0  0  0
  1 18  1  0  0  0  0
  2 13  1  6  0  0  0
  2  1  1  0  0  0  0
  3  6  1  0  0  0  0
  3  2  1  1  0  0  0
  4  3  1  0  0  0  0
  5 12  1  0  0  0  0
  7 11  1  0  0  0  0
  8  7  1  6  0  0  0
  8 10  1  0  0  0  0
  9  8  1  0  0  0  0
  9  4  1  0  0  0  0
 10 12  1  0  0  0  0
 10  6  2  0  0  0  0
 11  5  1  0  0  0  0
 13 14  1  0  0  0  0
 14 15  1  1  0  0  0
 16 17  1  0  0  0  0
 17 14  1  0  0  0  0
 18 19  1  0  0  0  0
 19 20  1  1  0  0  0
 19 21  1  0  0  0  0
 21 22  2  0  0  0  0
 21 23  1  0  0  0  0
 24 23  1  6  0  0  0
 24 29  1  0  0  0  0
 24 25  1  0  0  0  0
 25 26  1  0  0  0  0
 26 27  1  0  0  0  0
 28 26  1  0  0  0  0
 29 32  1  0  0  0  0
 31 32  1  0  0  0  0
 32 30  2  0  0  0  0
M  END
>  <MODEL>
4

>  <REMARK>
 VINA RESULT:      -6.8      2.921      5.574
  Name = 
  14 active torsions:
  status: ('A' for Active; 'I' for Inactive)
    1  A    between atoms: O_1  and  C_5
    2  A    between atoms: O_1  and  O_30
    3  A    between atoms: C_2  and  C_5
    4  A    between atoms: C_3  and  C_8
    5  A    between atoms: C_3  and  C_20
    6  A    between atoms: C_4  and  C_24
    7  A    between atoms: C_4  and  O_30
    8  A    between atoms: C_5  and  O_14
    9  A    between atoms: C_13  and  O_14
   10  A    between atoms: C_13  and  C_29
   11  A    between atoms: C_15  and  C_20
   12  A    between atoms: C_15  and  C_26
   13  A    between atoms: C_16  and  C_20
   14  A    between atoms: C_16  and  C_24
                            x       y       z     vdW  Elec       q    Type
                         _______ _______ _______ _____ _____    ______ ____

>  <TORSDO>
F 14

$$$$
=
 OpenBabel10262421193D

 32 33  0  0  1  0  0  0  0  0999 V2000
  186.5420  178.6280  140.2150 O   0  0  0  0  0  0  0  0  0  0  0  0
  185.2780  179.1270  140.5890 C   0  0  2  0  0  3  0  0  0  0  0  0
  185.1280  179.1620  142.1120 C   0  0  1  0  0  3  0  0  0  0  0  0
  183.3880  178.8220  142.5780 S   0  0  0  0  0  0  0  0  0  0  0  0
  187.5300  177.7820  146.0800 C   0  0  0  0  0  2  0  0  0  0  0  0
  186.0520  178.1970  142.7930 C   0  0  0  0  0  3  0  0  0  0  0  0
  185.0920  178.5370  146.3960 C   0  0  0  0  0  2  0  0  0  0  0  0
  185.0150  178.8900  144.9120 C   0  0  2  0  0  3  0  0  0  0  0  0
  183.6020  178.6220  144.4000 C   0  0  0  0  0  2  0  0  0  0  0  0
  186.0190  178.0880  144.1220 C   0  0  0  0  0  0  0  0  0  0  0  0
  186.5350  178.6260  146.8990 C   0  0  0  0  0  2  0  0  0  0  0  0
  186.9360  177.1340  144.8230 C   0  0  0  0  0  2  0  0  0  0  0  0
  184.2510  178.3890  139.9810 O   0  0  0  0  0  0  0  0  0  0  0  0
  183.3600  179.3460  139.4880 C   0  0  1  0  0  3  0  0  0  0  0  0
  184.1070  180.4940  139.0010 N   0  0  0  0  0  1  0  0  0  0  0  0
  183.3580  177.6880  137.6310 C   0  0  0  0  0  1  0  0  0  0  0  0
  182.5460  178.7450  138.3550 C   0  0  0  0  0  2  0  0  0  0  0  0
  186.5660  178.6100  138.8890 O   0  0  0  0  0  0  0  0  0  0  0  0
  187.5310  177.6610  138.5050 C   0  0  1  0  0  3  0  0  0  0  0  0
  186.9910  176.7150  137.6250 O   0  0  0  0  0  1  0  0  0  0  0  0
  188.7750  178.3050  137.9480 C   0  0  0  0  0  0  0  0  0  0  0  0
  188.7770  179.4910  137.6560 O   0  0  0  0  0  0  0  0  0  0  0  0
  190.0260  177.5000  137.7360 C   0  0  0  0  0  2  0  0  0  0  0  0
  190.5650  176.8360  139.0070 C   0  0  1  0  0  3  0  0  0  0  0  0
  191.9490  176.2290  138.7960 C   0  0  0  0  0  2  0  0  0  0  0  0
  192.1720  175.8730  137.3340 C   0  0  0  0  0  3  0  0  0  0  0  0
  192.0380  174.3750  137.1580 C   0  0  0  0  0  1  0  0  0  0  0  0
  193.5550  176.3000  136.8800 C   0  0  0  0  0  1  0  0  0  0  0  0
  190.5530  177.7950  140.1910 C   0  0  0  0  0  2  0  0  0  0  0  0
  192.0030  177.4360  142.0490 O   0  0  0  0  0  0  0  0  0  0  0  0
  190.1710  176.0130  141.9360 N   0  0  0  0  0  1  0  0  0  0  0  0
  190.9560  177.0920  141.4430 C   0  0  0  0  0  0  0  0  0  0  0  0
  1  2  1  0  0  0  0
  2 13  1  6  0  0  0
  3  2  1  6  0  0  0
  3  4  1  0  0  0  0
  3  6  1  0  0  0  0
  4  9  1  0  0  0  0
  5 11  1  0  0  0  0
  6 10  2  0  0  0  0
  7 11  1  0  0  0  0
  8  9  1  6  0  0  0
  8  7  1  0  0  0  0
 10 12  1  0  0  0  0
 10  8  1  0  0  0  0
 12  5  1  0  0  0  0
 14 15  1  6  0  0  0
 14 13  1  0  0  0  0
 16 17  1  0  0  0  0
 17 14  1  0  0  0  0
 18  1  1  0  0  0  0
 19 20  1  6  0  0  0
 19 18  1  0  0  0  0
 21 19  1  0  0  0  0
 22 21  2  0  0  0  0
 23 21  1  0  0  0  0
 24 23  1  6  0  0  0
 24 29  1  0  0  0  0
 25 24  1  0  0  0  0
 26 25  1  0  0  0  0
 27 26  1  0  0  0  0
 28 26  1  0  0  0  0
 29 32  1  0  0  0  0
 32 31  1  0  0  0  0
 32 30  2  0  0  0  0
M  END
>  <MODEL>
5

>  <REMARK>
 VINA RESULT:      -6.7      2.944      7.243
  Name = 
  14 active torsions:
  status: ('A' for Active; 'I' for Inactive)
    1  A    between atoms: O_1  and  C_5
    2  A    between atoms: O_1  and  O_30
    3  A    between atoms: C_2  and  C_5
    4  A    between atoms: C_3  and  C_8
    5  A    between atoms: C_3  and  C_20
    6  A    between atoms: C_4  and  C_24
    7  A    between atoms: C_4  and  O_30
    8  A    between atoms: C_5  and  O_14
    9  A    between atoms: C_13  and  O_14
   10  A    between atoms: C_13  and  C_29
   11  A    between atoms: C_15  and  C_20
   12  A    between atoms: C_15  and  C_26
   13  A    between atoms: C_16  and  C_20
   14  A    between atoms: C_16  and  C_24
                            x       y       z     vdW  Elec       q    Type
                         _______ _______ _______ _____ _____    ______ ____

>  <TORSDO>
F 14

$$$$
=
 OpenBabel10262421193D

 32 33  0  0  1  0  0  0  0  0999 V2000
  191.0200  176.9290  139.6010 O   0  0  0  0  0  0  0  0  0  0  0  0
  190.5860  176.5880  138.3040 C   0  0  2  0  0  3  0  0  0  0  0  0
  189.1160  176.9620  138.0980 C   0  0  1  0  0  3  0  0  0  0  0  0
  188.9950  178.5300  137.1560 S   0  0  0  0  0  0  0  0  0  0  0  0
  184.8840  174.8430  137.0890 C   0  0  0  0  0  2  0  0  0  0  0  0
  188.3470  175.8750  137.4090 C   0  0  0  0  0  3  0  0  0  0  0  0
  184.9610  177.4110  136.9670 C   0  0  0  0  0  2  0  0  0  0  0  0
  186.4070  177.3850  137.4570 C   0  0  2  0  0  3  0  0  0  0  0  0
  187.1820  178.5310  136.8110 C   0  0  0  0  0  2  0  0  0  0  0  0
  187.0570  176.0630  137.1290 C   0  0  0  0  0  0  0  0  0  0  0  0
  184.2020  176.1750  137.4560 C   0  0  0  0  0  2  0  0  0  0  0  0
  186.2680  174.9890  136.4460 C   0  0  0  0  0  2  0  0  0  0  0  0
  190.8200  175.2290  138.0410 O   0  0  0  0  0  0  0  0  0  0  0  0
  191.9160  175.2120  137.1750 C   0  0  1  0  0  3  0  0  0  0  0  0
  192.9880  174.4310  137.7700 N   0  0  0  0  0  1  0  0  0  0  0  0
  190.6730  173.3470  136.0910 C   0  0  0  0  0  1  0  0  0  0  0  0
  191.5040  174.5920  135.8500 C   0  0  0  0  0  2  0  0  0  0  0  0
  190.4790  176.0430  140.4270 O   0  0  0  0  0  0  0  0  0  0  0  0
  190.4240  176.6420  141.6990 C   0  0  1  0  0  3  0  0  0  0  0  0
  191.2810  177.7470  141.7770 O   0  0  0  0  0  1  0  0  0  0  0  0
  189.0140  176.9900  142.1050 C   0  0  0  0  0  0  0  0  0  0  0  0
  188.3740  177.8110  141.4670 O   0  0  0  0  0  0  0  0  0  0  0  0
  188.3790  176.3400  143.3010 C   0  0  0  0  0  2  0  0  0  0  0  0
  188.0600  177.3080  144.4440 C   0  0  1  0  0  3  0  0  0  0  0  0
  186.6170  177.1780  144.9230 C   0  0  0  0  0  2  0  0  0  0  0  0
  185.8460  178.4680  144.6870 C   0  0  0  0  0  3  0  0  0  0  0  0
  184.9580  178.7460  145.8820 C   0  0  0  0  0  1  0  0  0  0  0  0
  184.9800  178.3570  143.4460 C   0  0  0  0  0  1  0  0  0  0  0  0
  189.0450  177.1590  145.5980 C   0  0  0  0  0  2  0  0  0  0  0  0
  190.3760  178.9250  144.7080 O   0  0  0  0  0  0  0  0  0  0  0  0
  191.5670  177.1140  145.5430 N   0  0  0  0  0  1  0  0  0  0  0  0
  190.3500  177.7960  145.2630 C   0  0  0  0  0  0  0  0  0  0  0  0
  1 18  1  0  0  0  0
  2 13  1  1  0  0  0
  2  1  1  0  0  0  0
  3  2  1  6  0  0  0
  4  3  1  0  0  0  0
  5 11  1  0  0  0  0
  6  3  1  0  0  0  0
  7 11  1  0  0  0  0
  7  8  1  0  0  0  0
  8  9  1  6  0  0  0
  9  4  1  0  0  0  0
 10  6  2  0  0  0  0
 10  8  1  0  0  0  0
 12  5  1  0  0  0  0
 12 10  1  0  0  0  0
 14 15  1  1  0  0  0
 14 13  1  0  0  0  0
 17 16  1  0  0  0  0
 17 14  1  0  0  0  0
 18 19  1  0  0  0  0
 19 20  1  6  0  0  0
 19 21  1  0  0  0  0
 21 23  1  0  0  0  0
 22 21  2  0  0  0  0
 24 23  1  6  0  0  0
 24 25  1  0  0  0  0
 24 29  1  0  0  0  0
 26 25  1  0  0  0  0
 26 27  1  0  0  0  0
 28 26  1  0  0  0  0
 30 32  2  0  0  0  0
 32 31  1  0  0  0  0
 32 29  1  0  0  0  0
M  END
>  <MODEL>
6

>  <REMARK>
 VINA RESULT:      -6.7      3.463      6.680
  Name = 
  14 active torsions:
  status: ('A' for Active; 'I' for Inactive)
    1  A    between atoms: O_1  and  C_5
    2  A    between atoms: O_1  and  O_30
    3  A    between atoms: C_2  and  C_5
    4  A    between atoms: C_3  and  C_8
    5  A    between atoms: C_3  and  C_20
    6  A    between atoms: C_4  and  C_24
    7  A    between atoms: C_4  and  O_30
    8  A    between atoms: C_5  and  O_14
    9  A    between atoms: C_13  and  O_14
   10  A    between atoms: C_13  and  C_29
   11  A    between atoms: C_15  and  C_20
   12  A    between atoms: C_15  and  C_26
   13  A    between atoms: C_16  and  C_20
   14  A    between atoms: C_16  and  C_24
                            x       y       z     vdW  Elec       q    Type
                         _______ _______ _______ _____ _____    ______ ____

>  <TORSDO>
F 14

$$$$
=
 OpenBabel10262421193D

 32 33  0  0  1  0  0  0  0  0999 V2000
  190.4380  177.3540  140.5810 O   0  0  0  0  0  0  0  0  0  0  0  0
  190.4610  177.1100  139.1920 C   0  0  2  0  0  3  0  0  0  0  0  0
  189.0730  177.3020  138.5770 C   0  0  1  0  0  3  0  0  0  0  0  0
  189.0920  178.7230  137.4170 S   0  0  0  0  0  0  0  0  0  0  0  0
  185.4030  174.6490  136.8680 C   0  0  0  0  0  2  0  0  0  0  0  0
  188.5850  176.0650  137.8830 C   0  0  0  0  0  3  0  0  0  0  0  0
  185.3330  177.1770  136.3980 C   0  0  0  0  0  2  0  0  0  0  0  0
  186.6000  177.3610  137.2300 C   0  0  2  0  0  3  0  0  0  0  0  0
  187.4360  178.4930  136.6380 C   0  0  0  0  0  2  0  0  0  0  0  0
  187.4020  176.0840  137.2680 C   0  0  0  0  0  0  0  0  0  0  0  0
  184.5600  175.9380  136.8580 C   0  0  0  0  0  2  0  0  0  0  0  0
  186.8940  174.8580  136.5740 C   0  0  0  0  0  2  0  0  0  0  0  0
  190.9810  175.8360  138.9180 O   0  0  0  0  0  0  0  0  0  0  0  0
  192.0360  176.0600  138.0310 C   0  0  1  0  0  3  0  0  0  0  0  0
  193.1200  176.7310  138.7290 N   0  0  0  0  0  1  0  0  0  0  0  0
  194.0120  174.5730  137.7370 C   0  0  0  0  0  1  0  0  0  0  0  0
  192.5250  174.7310  137.4800 C   0  0  0  0  0  2  0  0  0  0  0  0
  189.1660  177.5260  140.9150 O   0  0  0  0  0  0  0  0  0  0  0  0
  189.0820  177.3800  142.3120 C   0  0  1  0  0  3  0  0  0  0  0  0
  189.9670  178.2440  142.9670 O   0  0  0  0  0  1  0  0  0  0  0  0
  187.6690  177.5290  142.8170 C   0  0  0  0  0  0  0  0  0  0  0  0
  186.8960  178.2970  142.2670 O   0  0  0  0  0  0  0  0  0  0  0  0
  187.1930  176.7410  144.0060 C   0  0  0  0  0  2  0  0  0  0  0  0
  187.0210  177.5740  145.2790 C   0  0  1  0  0  3  0  0  0  0  0  0
  188.3610  177.9750  145.8900 C   0  0  0  0  0  2  0  0  0  0  0  0
  188.6550  177.1610  147.1410 C   0  0  0  0  0  3  0  0  0  0  0  0
  188.3420  177.9960  148.3660 C   0  0  0  0  0  1  0  0  0  0  0  0
  190.1140  176.7500  147.1860 C   0  0  0  0  0  1  0  0  0  0  0  0
  186.1340  178.7900  145.0400 C   0  0  0  0  0  2  0  0  0  0  0  0
  185.1030  178.5310  147.1740 O   0  0  0  0  0  0  0  0  0  0  0  0
  183.6460  178.9780  145.4210 N   0  0  0  0  0  1  0  0  0  0  0  0
  184.9500  178.7650  145.9470 C   0  0  0  0  0  0  0  0  0  0  0  0
  1 18  1  0  0  0  0
  2 13  1  1  0  0  0
  2  1  1  0  0  0  0
  3  2  1  6  0  0  0
  4  3  1  0  0  0  0
  6  3  1  0  0  0  0
  7 11  1  0  0  0  0
  8  7  1  6  0  0  0
  8 10  1  0  0  0  0
  9  8  1  0  0  0  0
  9  4  1  0  0  0  0
 10  6  2  0  0  0  0
 11  5  1  0  0  0  0
 12  5  1  0  0  0  0
 12 10  1  0  0  0  0
 14 15  1  1  0  0  0
 14 13  1  0  0  0  0
 17 16  1  0  0  0  0
 17 14  1  0  0  0  0
 18 19  1  0  0  0  0
 19 21  1  0  0  0  0
 19 20  1  1  0  0  0
 21 23  1  0  0  0  0
 22 21  2  0  0  0  0
 24 23  1  6  0  0  0
 24 25  1  0  0  0  0
 25 26  1  0  0  0  0
 26 28  1  0  0  0  0
 26 27  1  0  0  0  0
 29 24  1  0  0  0  0
 29 32  1  0  0  0  0
 31 32  1  0  0  0  0
 32 30  2  0  0  0  0
M  END
>  <MODEL>
7

>  <REMARK>
 VINA RESULT:      -6.7      2.815      5.856
  Name = 
  14 active torsions:
  status: ('A' for Active; 'I' for Inactive)
    1  A    between atoms: O_1  and  C_5
    2  A    between atoms: O_1  and  O_30
    3  A    between atoms: C_2  and  C_5
    4  A    between atoms: C_3  and  C_8
    5  A    between atoms: C_3  and  C_20
    6  A    between atoms: C_4  and  C_24
    7  A    between atoms: C_4  and  O_30
    8  A    between atoms: C_5  and  O_14
    9  A    between atoms: C_13  and  O_14
   10  A    between atoms: C_13  and  C_29
   11  A    between atoms: C_15  and  C_20
   12  A    between atoms: C_15  and  C_26
   13  A    between atoms: C_16  and  C_20
   14  A    between atoms: C_16  and  C_24
                            x       y       z     vdW  Elec       q    Type
                         _______ _______ _______ _____ _____    ______ ____

>  <TORSDO>
F 14

$$$$
=
 OpenBabel10262421193D

 32 33  0  0  1  0  0  0  0  0999 V2000
  187.5090  178.6980  141.5900 O   0  0  0  0  0  0  0  0  0  0  0  0
  188.4870  177.7120  141.3460 C   0  0  2  0  0  3  0  0  0  0  0  0
  189.2070  177.3180  142.6380 C   0  0  1  0  0  3  0  0  0  0  0  0
  190.9620  177.8430  142.5620 S   0  0  0  0  0  0  0  0  0  0  0  0
  188.3980  177.1730  147.4070 C   0  0  0  0  0  2  0  0  0  0  0  0
  188.5410  177.8890  143.8530 C   0  0  0  0  0  3  0  0  0  0  0  0
  190.8230  176.8260  146.6240 C   0  0  0  0  0  2  0  0  0  0  0  0
  190.3560  176.8840  145.1720 C   0  0  2  0  0  3  0  0  0  0  0  0
  191.4430  177.5290  144.3150 C   0  0  0  0  0  2  0  0  0  0  0  0
  189.0690  177.6610  145.0560 C   0  0  0  0  0  0  0  0  0  0  0  0
  189.6910  176.3460  147.5370 C   0  0  0  0  0  2  0  0  0  0  0  0
  188.4170  178.2180  146.2840 C   0  0  0  0  0  2  0  0  0  0  0  0
  189.3870  178.1360  140.3560 O   0  0  0  0  0  0  0  0  0  0  0  0
  189.0390  177.4090  139.2150 C   0  0  1  0  0  3  0  0  0  0  0  0
  188.8940  178.3180  138.0900 N   0  0  0  0  0  1  0  0  0  0  0  0
  190.6550  176.5880  137.5080 C   0  0  0  0  0  1  0  0  0  0  0  0
  190.1240  176.3890  138.9150 C   0  0  0  0  0  2  0  0  0  0  0  0
  186.3310  178.1090  141.4390 O   0  0  0  0  0  0  0  0  0  0  0  0
  185.5110  179.0020  140.7240 C   0  0  1  0  0  3  0  0  0  0  0  0
  185.8200  178.9930  139.3590 O   0  0  0  0  0  1  0  0  0  0  0  0
  184.0450  178.7560  140.9730 C   0  0  0  0  0  0  0  0  0  0  0  0
  183.2150  179.0780  140.1380 O   0  0  0  0  0  0  0  0  0  0  0  0
  183.5820  178.1180  142.2530 C   0  0  0  0  0  2  0  0  0  0  0  0
  182.9430  179.0960  143.2430 C   0  0  1  0  0  3  0  0  0  0  0  0
  181.4860  179.3960  142.8970 C   0  0  0  0  0  2  0  0  0  0  0  0
  180.5530  178.3810  143.5410 C   0  0  0  0  0  3  0  0  0  0  0  0
  179.9010  177.5460  142.4590 C   0  0  0  0  0  1  0  0  0  0  0  0
  179.4720  179.0780  144.3440 C   0  0  0  0  0  1  0  0  0  0  0  0
  183.0840  178.6130  144.6820 C   0  0  0  0  0  2  0  0  0  0  0  0
  185.2680  179.5520  144.4990 O   0  0  0  0  0  0  0  0  0  0  0  0
  184.7390  178.6800  146.5860 N   0  0  0  0  0  1  0  0  0  0  0  0
  184.4170  178.9870  145.2350 C   0  0  0  0  0  0  0  0  0  0  0  0
  2 13  1  6  0  0  0
  2  1  1  0  0  0  0
  3  2  1  6  0  0  0
  3  6  1  0  0  0  0
  4  3  1  0  0  0  0
  4  9  1  0  0  0  0
  5 11  1  0  0  0  0
  6 10  2  0  0  0  0
  7 11  1  0  0  0  0
  8  9  1  6  0  0  0
  8  7  1  0  0  0  0
 10  8  1  0  0  0  0
 10 12  1  0  0  0  0
 12  5  1  0  0  0  0
 14 15  1  6  0  0  0
 14 13  1  0  0  0  0
 16 17  1  0  0  0  0
 17 14  1  0  0  0  0
 18  1  1  0  0  0  0
 19 20  1  6  0  0  0
 19 21  1  0  0  0  0
 19 18  1  0  0  0  0
 21 23  1  0  0  0  0
 22 21  2  0  0  0  0
 24 23  1  6  0  0  0
 24 29  1  0  0  0  0
 25 24  1  0  0  0  0
 25 26  1  0  0  0  0
 26 28  1  0  0  0  0
 27 26  1  0  0  0  0
 29 32  1  0  0  0  0
 30 32  2  0  0  0  0
 32 31  1  0  0  0  0
M  END
>  <MODEL>
8

>  <REMARK>
 VINA RESULT:      -6.6      1.728      2.854
  Name = 
  14 active torsions:
  status: ('A' for Active; 'I' for Inactive)
    1  A    between atoms: O_1  and  C_5
    2  A    between atoms: O_1  and  O_30
    3  A    between atoms: C_2  and  C_5
    4  A    between atoms: C_3  and  C_8
    5  A    between atoms: C_3  and  C_20
    6  A    between atoms: C_4  and  C_24
    7  A    between atoms: C_4  and  O_30
    8  A    between atoms: C_5  and  O_14
    9  A    between atoms: C_13  and  O_14
   10  A    between atoms: C_13  and  C_29
   11  A    between atoms: C_15  and  C_20
   12  A    between atoms: C_15  and  C_26
   13  A    between atoms: C_16  and  C_20
   14  A    between atoms: C_16  and  C_24
                            x       y       z     vdW  Elec       q    Type
                         _______ _______ _______ _____ _____    ______ ____

>  <TORSDO>
F 14

$$$$
=
 OpenBabel10262421193D

 32 33  0  0  1  0  0  0  0  0999 V2000
  188.5650  177.8440  143.8180 O   0  0  0  0  0  0  0  0  0  0  0  0
  187.7540  177.4260  144.8930 C   0  0  2  0  0  3  0  0  0  0  0  0
  186.2800  177.7400  144.6250 C   0  0  1  0  0  3  0  0  0  0  0  0
  185.6800  178.9960  145.8190 S   0  0  0  0  0  0  0  0  0  0  0  0
  183.2700  178.3740  140.8890 C   0  0  0  0  0  2  0  0  0  0  0  0
  186.0470  178.2010  143.2170 C   0  0  0  0  0  3  0  0  0  0  0  0
  182.3970  179.0360  143.2160 C   0  0  0  0  0  2  0  0  0  0  0  0
  183.6900  178.5190  143.8420 C   0  0  2  0  0  3  0  0  0  0  0  0
  184.0440  179.3750  145.0560 C   0  0  0  0  0  2  0  0  0  0  0  0
  184.8150  178.5440  142.8380 C   0  0  0  0  0  0  0  0  0  0  0  0
  182.1070  178.3140  141.8970 C   0  0  0  0  0  2  0  0  0  0  0  0
  184.5590  179.0020  141.4350 C   0  0  0  0  0  2  0  0  0  0  0  0
  188.1970  177.9900  146.1000 O   0  0  0  0  0  0  0  0  0  0  0  0
  188.4940  176.9000  146.9210 C   0  0  1  0  0  3  0  0  0  0  0  0
  189.9360  176.7700  147.0480 N   0  0  0  0  0  1  0  0  0  0  0  0
  188.2980  178.4590  148.8510 C   0  0  0  0  0  1  0  0  0  0  0  0
  187.8750  177.1150  148.2910 C   0  0  0  0  0  2  0  0  0  0  0  0
  189.8220  177.6450  144.1910 O   0  0  0  0  0  0  0  0  0  0  0  0
  190.6400  178.0370  143.1160 C   0  0  1  0  0  3  0  0  0  0  0  0
  191.8290  178.6220  143.5690 O   0  0  0  0  0  1  0  0  0  0  0  0
  190.8980  176.9050  142.1530 C   0  0  0  0  0  0  0  0  0  0  0  0
  190.5530  175.7680  142.4320 O   0  0  0  0  0  0  0  0  0  0  0  0
  191.5880  177.1570  140.8420 C   0  0  0  0  0  2  0  0  0  0  0  0
  190.6350  177.4450  139.6790 C   0  0  1  0  0  3  0  0  0  0  0  0
  190.5450  176.2730  138.7050 C   0  0  0  0  0  2  0  0  0  0  0  0
  191.1860  176.6230  137.3700 C   0  0  0  0  0  3  0  0  0  0  0  0
  190.3310  176.0750  136.2460 C   0  0  0  0  0  1  0  0  0  0  0  0
  192.5760  176.0240  137.2680 C   0  0  0  0  0  1  0  0  0  0  0  0
  189.2560  177.8650  140.1720 C   0  0  0  0  0  2  0  0  0  0  0  0
  189.0570  179.3760  138.3390 O   0  0  0  0  0  0  0  0  0  0  0  0
  187.1060  178.2510  138.9070 N   0  0  0  0  0  1  0  0  0  0  0  0
  188.4890  178.5370  139.0850 C   0  0  0  0  0  0  0  0  0  0  0  0
  1 18  1  0  0  0  0
  2  1  1  6  0  0  0
  2 13  1  0  0  0  0
  3  2  1  6  0  0  0
  3  4  1  0  0  0  0
  5 12  1  0  0  0  0
  5 11  1  0  0  0  0
  6  3  1  0  0  0  0
  8  7  1  6  0  0  0
  8  9  1  0  0  0  0
  9  4  1  0  0  0  0
 10  6  2  0  0  0  0
 10  8  1  0  0  0  0
 11  7  1  0  0  0  0
 12 10  1  0  0  0  0
 13 14  1  0  0  0  0
 14 15  1  1  0  0  0
 14 17  1  0  0  0  0
 17 16  1  0  0  0  0
 19 20  1  1  0  0  0
 19 18  1  0  0  0  0
 21 22  2  0  0  0  0
 21 19  1  0  0  0  0
 23 21  1  0  0  0  0
 24 25  1  1  0  0  0
 24 29  1  0  0  0  0
 24 23  1  0  0  0  0
 26 25  1  0  0  0  0
 27 26  1  0  0  0  0
 28 26  1  0  0  0  0
 30 32  2  0  0  0  0
 31 32  1  0  0  0  0
 32 29  1  0  0  0  0
M  END
>  <MODEL>
9

>  <REMARK>
 VINA RESULT:      -6.6      3.246      8.227
  Name = 
  14 active torsions:
  status: ('A' for Active; 'I' for Inactive)
    1  A    between atoms: O_1  and  C_5
    2  A    between atoms: O_1  and  O_30
    3  A    between atoms: C_2  and  C_5
    4  A    between atoms: C_3  and  C_8
    5  A    between atoms: C_3  and  C_20
    6  A    between atoms: C_4  and  C_24
    7  A    between atoms: C_4  and  O_30
    8  A    between atoms: C_5  and  O_14
    9  A    between atoms: C_13  and  O_14
   10  A    between atoms: C_13  and  C_29
   11  A    between atoms: C_15  and  C_20
   12  A    between atoms: C_15  and  C_26
   13  A    between atoms: C_16  and  C_20
   14  A    between atoms: C_16  and  C_24
                            x       y       z     vdW  Elec       q    Type
                         _______ _______ _______ _____ _____    ______ ____

>  <TORSDO>
F 14

$$$$
