=
 OpenBabel10262419203D

 31 35  0  0  1  0  0  0  0  0999 V2000
  190.6000  177.2020  145.3950 C   0  0  0  0  0  0  0  0  0  0  0  0
  187.6880  177.4920  142.9100 C   0  0  2  0  0  3  0  0  0  0  0  0
  186.5220  177.8270  143.8340 C   0  0  0  0  0  0  0  0  0  0  0  0
  186.2670  177.8710  146.2940 C   0  0  0  0  0  3  0  0  0  0  0  0
  189.0780  177.4850  143.5190 C   0  0  0  0  0  0  0  0  0  0  0  0
  191.6940  177.3250  144.5360 C   0  0  0  0  0  3  0  0  0  0  0  0
  186.3570  177.0110  145.0790 C   0  0  0  0  0  2  0  0  0  0  0  0
  188.7130  177.8210  140.6690 C   0  0  1  0  0  3  0  0  0  0  0  0
  190.8040  177.0030  146.7540 O   0  0  0  0  0  1  0  0  0  0  0  0
  185.5250  179.1840  141.9990 C   0  0  0  0  0  2  0  0  0  0  0  0
  185.2690  178.7290  146.4900 C   0  0  0  0  0  3  0  0  0  0  0  0
  190.0070  177.8030  141.2800 O   0  0  0  0  0  0  0  0  0  0  0  0
  187.6860  178.3720  141.6550 C   0  0  1  0  0  3  0  0  0  0  0  0
  189.3010  177.2720  144.8870 C   0  0  0  0  0  3  0  0  0  0  0  0
  184.1940  178.9970  145.5190 C   0  0  0  0  0  3  0  0  0  0  0  0
  190.1900  177.5910  142.6550 C   0  0  0  0  0  0  0  0  0  0  0  0
  191.4890  177.5190  143.1680 C   0  0  0  0  0  3  0  0  0  0  0  0
  186.3460  178.3910  141.0880 N   0  0  0  0  0  2  0  0  0  0  0  0
  185.4910  178.5860  143.3840 C   0  0  0  0  0  0  0  0  0  0  0  0
  184.2920  178.9250  144.1850 C   0  0  0  0  0  3  0  0  0  0  0  0
  188.7610  178.6740  139.4100 C   0  0  0  0  0  2  0  0  0  0  0  0
  186.8640  178.5400  137.9700 O   0  0  0  0  0  1  0  0  0  0  0  0
  188.1000  177.9530  138.2470 C   0  0  1  0  0  3  0  0  0  0  0  0
  189.1690  178.0700  136.7840 S   0  0  0  0  0  0  0  0  0  0  0  0
  191.6600  174.8000  137.5150 C   0  0  0  0  0  0  0  0  0  0  0  0
  189.4680  173.9970  137.0170 C   0  0  0  0  0  3  0  0  0  0  0  0
  192.8510  174.5120  137.8000 O   0  0  0  0  0  0  0  0  0  0  0  0
  191.2580  176.2420  137.3860 C   0  0  0  0  0  2  0  0  0  0  0  0
  188.9890  175.3750  136.8440 C   0  0  0  0  0  3  0  0  0  0  0  0
  189.8120  176.4160  137.0030 C   0  0  0  0  0  0  0  0  0  0  0  0
  190.7040  173.7500  137.3260 N   0  0  0  0  0  0  0  0  0  0  0  0
  1  9  1  0  0  0  0
  2  5  1  1  0  0  0
  2  3  1  0  0  0  0
  3  7  1  0  0  0  0
  4 11  2  0  0  0  0
  5 14  2  0  0  0  0
  6  1  2  0  0  0  0
  7  4  1  0  0  0  0
  8 21  1  6  0  0  0
  8 12  1  0  0  0  0
  8 13  1  0  0  0  0
 10 19  1  0  0  0  0
 12 16  1  0  0  0  0
 13 18  1  6  0  0  0
 13  2  1  0  0  0  0
 14  1  1  0  0  0  0
 15 11  1  0  0  0  0
 16 17  2  0  0  0  0
 16  5  1  0  0  0  0
 17  6  1  0  0  0  0
 18 10  1  0  0  0  0
 19  3  2  0  0  0  0
 19 20  1  0  0  0  0
 20 15  2  0  0  0  0
 23 22  1  6  0  0  0
 23 21  1  0  0  0  0
 24 30  1  0  0  0  0
 24 23  1  0  0  0  0
 25 27  2  0  0  0  0
 26 31  2  0  0  0  0
 28 25  1  0  0  0  0
 29 30  2  0  0  0  0
 29 26  1  0  0  0  0
 30 28  1  0  0  0  0
 31 25  1  0  0  0  0
M  END
>  <MODEL>
1

>  <REMARK>
 VINA RESULT:     -10.5      0.000      0.000
  Name = 
  4 active torsions:
  status: ('A' for Active; 'I' for Inactive)
    1  A    between atoms: S_3  and  C_9
    2  A    between atoms: S_3  and  C_22
    3  A    between atoms: C_9  and  C_23
    4  A    between atoms: C_15  and  C_23
                            x       y       z     vdW  Elec       q    Type
                         _______ _______ _______ _____ _____    ______ ____

>  <TORSDO>
F 4

$$$$
=
 OpenBabel10262419203D

 31 35  0  0  1  0  0  0  0  0999 V2000
  190.4670  177.2310  145.5650 C   0  0  0  0  0  0  0  0  0  0  0  0
  187.6710  177.4820  142.9450 C   0  0  2  0  0  3  0  0  0  0  0  0
  186.4650  177.8350  143.8090 C   0  0  0  0  0  0  0  0  0  0  0  0
  186.0990  177.9220  146.2540 C   0  0  0  0  0  3  0  0  0  0  0  0
  189.0330  177.4830  143.6170 C   0  0  0  0  0  0  0  0  0  0  0  0
  191.5990  177.3370  144.7550 C   0  0  0  0  0  3  0  0  0  0  0  0
  186.2430  177.0400  145.0590 C   0  0  0  0  0  2  0  0  0  0  0  0
  188.7980  177.7700  140.7480 C   0  0  1  0  0  3  0  0  0  0  0  0
  190.6080  177.0560  146.9350 O   0  0  0  0  0  1  0  0  0  0  0  0
  185.5560  179.1610  141.9070 C   0  0  0  0  0  2  0  0  0  0  0  0
  185.0950  178.7850  146.3890 C   0  0  0  0  0  3  0  0  0  0  0  0
  190.0630  177.7610  141.4170 O   0  0  0  0  0  0  0  0  0  0  0  0
  187.7280  178.3390  141.6760 C   0  0  1  0  0  3  0  0  0  0  0  0
  189.1920  177.2940  144.9980 C   0  0  0  0  0  3  0  0  0  0  0  0
  184.0660  179.0380  145.3660 C   0  0  0  0  0  3  0  0  0  0  0  0
  190.1830  177.5730  142.8020 C   0  0  0  0  0  0  0  0  0  0  0  0
  191.4570  177.5080  143.3750 C   0  0  0  0  0  3  0  0  0  0  0  0
  186.4150  178.3510  141.0490 N   0  0  0  0  0  2  0  0  0  0  0  0
  185.4580  178.5880  143.3000 C   0  0  0  0  0  0  0  0  0  0  0  0
  184.2240  178.9420  144.0400 C   0  0  0  0  0  3  0  0  0  0  0  0
  188.9050  178.6000  139.4770 C   0  0  0  0  0  2  0  0  0  0  0  0
  187.2990  178.8120  137.7260 O   0  0  0  0  0  1  0  0  0  0  0  0
  188.1870  177.9170  138.3270 C   0  0  1  0  0  3  0  0  0  0  0  0
  189.4090  177.3620  137.1030 S   0  0  0  0  0  0  0  0  0  0  0  0
  186.8630  174.0530  137.1260 C   0  0  0  0  0  0  0  0  0  0  0  0
  189.1100  173.2870  136.8820 C   0  0  0  0  0  3  0  0  0  0  0  0
  185.6470  173.7450  137.2280 O   0  0  0  0  0  0  0  0  0  0  0  0
  187.2640  175.5010  137.1540 C   0  0  0  0  0  2  0  0  0  0  0  0
  189.5990  174.6730  136.9270 C   0  0  0  0  0  3  0  0  0  0  0  0
  188.7540  175.6980  137.0620 C   0  0  0  0  0  0  0  0  0  0  0  0
  187.8440  173.0200  136.9770 N   0  0  0  0  0  0  0  0  0  0  0  0
  1  9  1  0  0  0  0
  2  5  1  1  0  0  0
  2  3  1  0  0  0  0
  3  7  1  0  0  0  0
  4 11  2  0  0  0  0
  5 14  2  0  0  0  0
  6  1  2  0  0  0  0
  7  4  1  0  0  0  0
  8 21  1  6  0  0  0
  8 12  1  0  0  0  0
  8 13  1  0  0  0  0
 10 19  1  0  0  0  0
 12 16  1  0  0  0  0
 13 18  1  6  0  0  0
 13  2  1  0  0  0  0
 14  1  1  0  0  0  0
 15 11  1  0  0  0  0
 16 17  2  0  0  0  0
 16  5  1  0  0  0  0
 17  6  1  0  0  0  0
 18 10  1  0  0  0  0
 19  3  2  0  0  0  0
 19 20  1  0  0  0  0
 20 15  2  0  0  0  0
 23 22  1  6  0  0  0
 23 21  1  0  0  0  0
 24 23  1  0  0  0  0
 25 28  1  0  0  0  0
 25 27  2  0  0  0  0
 26 29  1  0  0  0  0
 26 31  2  0  0  0  0
 29 30  2  0  0  0  0
 30 24  1  0  0  0  0
 30 28  1  0  0  0  0
 31 25  1  0  0  0  0
M  END
>  <MODEL>
2

>  <REMARK>
 VINA RESULT:     -10.1      1.322      1.855
  Name = 
  4 active torsions:
  status: ('A' for Active; 'I' for Inactive)
    1  A    between atoms: S_3  and  C_9
    2  A    between atoms: S_3  and  C_22
    3  A    between atoms: C_9  and  C_23
    4  A    between atoms: C_15  and  C_23
                            x       y       z     vdW  Elec       q    Type
                         _______ _______ _______ _____ _____    ______ ____

>  <TORSDO>
F 4

$$$$
=
 OpenBabel10262419203D

 31 35  0  0  1  0  0  0  0  0999 V2000
  185.3930  178.3060  145.3220 C   0  0  0  0  0  0  0  0  0  0  0  0
  188.8680  178.1140  143.7020 C   0  0  2  0  0  3  0  0  0  0  0  0
  189.7210  177.5930  144.8540 C   0  0  0  0  0  0  0  0  0  0  0  0
  189.2830  177.2410  147.2630 C   0  0  0  0  0  3  0  0  0  0  0  0
  187.3650  178.1440  143.9070 C   0  0  0  0  0  0  0  0  0  0  0  0
  184.5760  178.3600  144.1910 C   0  0  0  0  0  3  0  0  0  0  0  0
  189.5610  178.2430  146.1940 C   0  0  0  0  0  2  0  0  0  0  0  0
  188.4940  178.1240  141.2440 C   0  0  1  0  0  3  0  0  0  0  0  0
  184.8270  178.3550  146.5890 O   0  0  0  0  0  1  0  0  0  0  0  0
  191.1420  176.3990  143.1930 C   0  0  0  0  0  2  0  0  0  0  0  0
  190.1590  176.2990  147.6050 C   0  0  0  0  0  3  0  0  0  0  0  0
  187.0820  178.1580  141.4790 O   0  0  0  0  0  0  0  0  0  0  0  0
  189.1890  177.3920  142.3890 C   0  0  1  0  0  3  0  0  0  0  0  0
  186.7790  178.2080  145.1800 C   0  0  0  0  0  3  0  0  0  0  0  0
  191.4510  176.0760  146.9350 C   0  0  0  0  0  3  0  0  0  0  0  0
  186.5330  178.2170  142.7680 C   0  0  0  0  0  0  0  0  0  0  0  0
  185.1460  178.3160  142.9160 C   0  0  0  0  0  3  0  0  0  0  0  0
  190.6330  177.3480  142.2080 N   0  0  0  0  0  2  0  0  0  0  0  0
  190.8100  176.8240  144.6030 C   0  0  0  0  0  0  0  0  0  0  0  0
  191.7290  176.3120  145.6460 C   0  0  0  0  0  3  0  0  0  0  0  0
  188.7690  177.4320  139.9170 C   0  0  0  0  0  2  0  0  0  0  0  0
  189.0210  179.0400  138.1730 O   0  0  0  0  0  1  0  0  0  0  0  0
  188.1030  178.1770  138.7740 C   0  0  1  0  0  3  0  0  0  0  0  0
  187.5030  176.9790  137.5470 S   0  0  0  0  0  0  0  0  0  0  0  0
  184.0230  178.9820  138.6900 C   0  0  0  0  0  0  0  0  0  0  0  0
  183.4450  177.2770  137.1240 C   0  0  0  0  0  3  0  0  0  0  0  0
  183.6200  179.9090  139.4400 O   0  0  0  0  0  0  0  0  0  0  0  0
  185.4910  178.6650  138.6300 C   0  0  0  0  0  2  0  0  0  0  0  0
  184.8550  176.8780  137.0200 C   0  0  0  0  0  3  0  0  0  0  0  0
  185.8040  177.5070  137.7200 C   0  0  0  0  0  0  0  0  0  0  0  0
  183.0790  178.2490  137.9000 N   0  0  0  0  0  0  0  0  0  0  0  0
  1  9  1  0  0  0  0
  2  5  1  1  0  0  0
  2  3  1  0  0  0  0
  3  7  1  0  0  0  0
  4 11  2  0  0  0  0
  5 14  2  0  0  0  0
  6  1  2  0  0  0  0
  7  4  1  0  0  0  0
  8 21  1  6  0  0  0
  8 12  1  0  0  0  0
  8 13  1  0  0  0  0
 10 19  1  0  0  0  0
 12 16  1  0  0  0  0
 13 18  1  6  0  0  0
 13  2  1  0  0  0  0
 14  1  1  0  0  0  0
 15 11  1  0  0  0  0
 16 17  2  0  0  0  0
 16  5  1  0  0  0  0
 17  6  1  0  0  0  0
 18 10  1  0  0  0  0
 19  3  2  0  0  0  0
 19 20  1  0  0  0  0
 20 15  2  0  0  0  0
 23 22  1  6  0  0  0
 23 21  1  0  0  0  0
 24 30  1  0  0  0  0
 24 23  1  0  0  0  0
 25 27  2  0  0  0  0
 26 31  2  0  0  0  0
 28 25  1  0  0  0  0
 29 26  1  0  0  0  0
 29 30  2  0  0  0  0
 30 28  1  0  0  0  0
 31 25  1  0  0  0  0
M  END
>  <MODEL>
3

>  <REMARK>
 VINA RESULT:      -9.9      2.814      5.376
  Name = 
  4 active torsions:
  status: ('A' for Active; 'I' for Inactive)
    1  A    between atoms: S_3  and  C_9
    2  A    between atoms: S_3  and  C_22
    3  A    between atoms: C_9  and  C_23
    4  A    between atoms: C_15  and  C_23
                            x       y       z     vdW  Elec       q    Type
                         _______ _______ _______ _____ _____    ______ ____

>  <TORSDO>
F 4

$$$$
=
 OpenBabel10262419203D

 31 35  0  0  1  0  0  0  0  0999 V2000
  188.9020  177.8830  141.7910 C   0  0  0  0  0  0  0  0  0  0  0  0
  186.2770  177.7210  144.5890 C   0  0  2  0  0  3  0  0  0  0  0  0
  187.1540  177.6930  145.8370 C   0  0  0  0  0  0  0  0  0  0  0  0
  189.5900  177.4510  146.1930 C   0  0  0  0  0  3  0  0  0  0  0  0
  186.9660  177.9780  143.2610 C   0  0  0  0  0  0  0  0  0  0  0  0
  188.1220  178.3320  140.7230 C   0  0  0  0  0  3  0  0  0  0  0  0
  188.3170  176.7500  145.8550 C   0  0  0  0  0  2  0  0  0  0  0  0
  184.1350  178.4800  143.5810 C   0  0  1  0  0  3  0  0  0  0  0  0
  190.2500  177.6130  141.6000 O   0  0  0  0  0  1  0  0  0  0  0  0
  185.3760  178.9450  147.0500 C   0  0  0  0  0  2  0  0  0  0  0  0
  189.7930  178.0350  147.3710 C   0  0  0  0  0  3  0  0  0  0  0  0
  184.8190  178.7050  142.3440 O   0  0  0  0  0  0  0  0  0  0  0  0
  185.0990  178.6870  144.7480 C   0  0  1  0  0  3  0  0  0  0  0  0
  188.3240  177.6980  143.0500 C   0  0  0  0  0  3  0  0  0  0  0  0
  188.7840  178.1360  148.4390 C   0  0  0  0  0  3  0  0  0  0  0  0
  186.1810  178.4160  142.1710 C   0  0  0  0  0  0  0  0  0  0  0  0
  186.7640  178.5980  140.9140 C   0  0  0  0  0  3  0  0  0  0  0  0
  184.4560  178.4490  146.0310 N   0  0  0  0  0  2  0  0  0  0  0  0
  186.7050  178.2320  146.9980 C   0  0  0  0  0  0  0  0  0  0  0  0
  187.4570  178.2110  148.2740 C   0  0  0  0  0  3  0  0  0  0  0  0
  182.9530  179.4320  143.6850 C   0  0  0  0  0  2  0  0  0  0  0  0
  180.7270  178.8760  144.3380 O   0  0  0  0  0  1  0  0  0  0  0  0
  181.6610  178.7280  143.3100 C   0  0  1  0  0  3  0  0  0  0  0  0
  181.0020  179.4570  141.7830 S   0  0  0  0  0  0  0  0  0  0  0  0
  182.1230  176.1260  139.5290 C   0  0  0  0  0  0  0  0  0  0  0  0
  179.8590  175.8470  140.2330 C   0  0  0  0  0  3  0  0  0  0  0  0
  183.0950  175.6520  138.8860 O   0  0  0  0  0  0  0  0  0  0  0  0
  182.2720  177.4480  140.2280 C   0  0  0  0  0  2  0  0  0  0  0  0
  179.9030  177.1430  140.9250 C   0  0  0  0  0  3  0  0  0  0  0  0
  181.0090  177.8920  140.9180 C   0  0  0  0  0  0  0  0  0  0  0  0
  180.8930  175.3940  139.5940 N   0  0  0  0  0  0  0  0  0  0  0  0
  1 14  1  0  0  0  0
  2  5  1  6  0  0  0
  2 13  1  0  0  0  0
  2  3  1  0  0  0  0
  3  7  1  0  0  0  0
  3 19  2  0  0  0  0
  4 11  2  0  0  0  0
  6 17  1  0  0  0  0
  6  1  2  0  0  0  0
  7  4  1  0  0  0  0
  8 21  1  1  0  0  0
  8 13  1  0  0  0  0
  9  1  1  0  0  0  0
 11 15  1  0  0  0  0
 12  8  1  0  0  0  0
 13 18  1  1  0  0  0
 14  5  2  0  0  0  0
 16 12  1  0  0  0  0
 16  5  1  0  0  0  0
 17 16  2  0  0  0  0
 18 10  1  0  0  0  0
 19 10  1  0  0  0  0
 19 20  1  0  0  0  0
 20 15  2  0  0  0  0
 23 21  1  0  0  0  0
 23 22  1  1  0  0  0
 24 23  1  0  0  0  0
 25 31  1  0  0  0  0
 25 28  1  0  0  0  0
 26 29  1  0  0  0  0
 27 25  2  0  0  0  0
 28 30  1  0  0  0  0
 30 29  2  0  0  0  0
 30 24  1  0  0  0  0
 31 26  2  0  0  0  0
M  END
>  <MODEL>
4

>  <REMARK>
 VINA RESULT:      -9.8      3.968      6.621
  Name = 
  4 active torsions:
  status: ('A' for Active; 'I' for Inactive)
    1  A    between atoms: S_3  and  C_9
    2  A    between atoms: S_3  and  C_22
    3  A    between atoms: C_9  and  C_23
    4  A    between atoms: C_15  and  C_23
                            x       y       z     vdW  Elec       q    Type
                         _______ _______ _______ _____ _____    ______ ____

>  <TORSDO>
F 4

$$$$
=
 OpenBabel10262419203D

 31 35  0  0  1  0  0  0  0  0999 V2000
  185.3750  178.3410  145.0890 C   0  0  0  0  0  0  0  0  0  0  0  0
  188.8930  178.0840  143.5740 C   0  0  2  0  0  3  0  0  0  0  0  0
  189.7120  177.6000  144.7670 C   0  0  0  0  0  0  0  0  0  0  0  0
  189.2050  177.3320  147.1730 C   0  0  0  0  0  3  0  0  0  0  0  0
  187.3850  178.1250  143.7370 C   0  0  0  0  0  0  0  0  0  0  0  0
  184.5910  178.3590  143.9340 C   0  0  0  0  0  3  0  0  0  0  0  0
  189.5170  178.2960  146.0790 C   0  0  0  0  0  2  0  0  0  0  0  0
  188.5870  178.0110  141.1080 C   0  0  1  0  0  3  0  0  0  0  0  0
  184.7740  178.4360  146.3370 O   0  0  0  0  0  1  0  0  0  0  0  0
  191.1740  176.3460  143.1890 C   0  0  0  0  0  2  0  0  0  0  0  0
  190.0670  176.4000  147.5720 C   0  0  0  0  0  3  0  0  0  0  0  0
  187.1700  178.0560  141.3020 O   0  0  0  0  0  0  0  0  0  0  0  0
  189.2480  177.3160  142.2960 C   0  0  1  0  0  3  0  0  0  0  0  0
  186.7640  178.2340  144.9900 C   0  0  0  0  0  3  0  0  0  0  0  0
  191.3770  176.1500  146.9460 C   0  0  0  0  0  3  0  0  0  0  0  0
  186.5850  178.1620  142.5730 C   0  0  0  0  0  0  0  0  0  0  0  0
  185.1950  178.2700  142.6780 C   0  0  0  0  0  3  0  0  0  0  0  0
  190.6960  177.2620  142.1580 N   0  0  0  0  0  2  0  0  0  0  0  0
  190.8050  176.8200  144.5730 C   0  0  0  0  0  0  0  0  0  0  0  0
  191.6920  176.3410  145.6590 C   0  0  0  0  0  3  0  0  0  0  0  0
  188.8970  177.2730  139.8140 C   0  0  0  0  0  2  0  0  0  0  0  0
  188.9940  179.2850  138.5360 O   0  0  0  0  0  1  0  0  0  0  0  0
  188.3650  178.0410  138.6160 C   0  0  1  0  0  3  0  0  0  0  0  0
  188.6980  177.0940  137.1020 S   0  0  0  0  0  0  0  0  0  0  0  0
  185.6780  174.2110  137.1640 C   0  0  0  0  0  0  0  0  0  0  0  0
  184.6750  176.3740  137.2910 C   0  0  0  0  0  3  0  0  0  0  0  0
  185.5020  172.9660  137.1170 O   0  0  0  0  0  0  0  0  0  0  0  0
  187.0760  174.7630  137.1330 C   0  0  0  0  0  2  0  0  0  0  0  0
  186.0010  177.0050  137.2390 C   0  0  0  0  0  3  0  0  0  0  0  0
  187.1120  176.2680  137.1560 C   0  0  0  0  0  0  0  0  0  0  0  0
  184.5450  175.0830  137.2540 N   0  0  0  0  0  0  0  0  0  0  0  0
  1  9  1  0  0  0  0
  2  5  1  1  0  0  0
  2  3  1  0  0  0  0
  3  7  1  0  0  0  0
  4 11  2  0  0  0  0
  5 14  2  0  0  0  0
  6  1  2  0  0  0  0
  7  4  1  0  0  0  0
  8 21  1  6  0  0  0
  8 12  1  0  0  0  0
  8 13  1  0  0  0  0
 10 19  1  0  0  0  0
 12 16  1  0  0  0  0
 13 18  1  6  0  0  0
 13  2  1  0  0  0  0
 14  1  1  0  0  0  0
 15 11  1  0  0  0  0
 16 17  2  0  0  0  0
 16  5  1  0  0  0  0
 17  6  1  0  0  0  0
 18 10  1  0  0  0  0
 19  3  2  0  0  0  0
 19 20  1  0  0  0  0
 20 15  2  0  0  0  0
 23 22  1  6  0  0  0
 23 21  1  0  0  0  0
 24 30  1  0  0  0  0
 24 23  1  0  0  0  0
 25 31  1  0  0  0  0
 27 25  2  0  0  0  0
 28 30  1  0  0  0  0
 28 25  1  0  0  0  0
 29 26  1  0  0  0  0
 30 29  2  0  0  0  0
 31 26  2  0  0  0  0
M  END
>  <MODEL>
5

>  <REMARK>
 VINA RESULT:      -9.6      2.655      4.723
  Name = 
  4 active torsions:
  status: ('A' for Active; 'I' for Inactive)
    1  A    between atoms: S_3  and  C_9
    2  A    between atoms: S_3  and  C_22
    3  A    between atoms: C_9  and  C_23
    4  A    between atoms: C_15  and  C_23
                            x       y       z     vdW  Elec       q    Type
                         _______ _______ _______ _____ _____    ______ ____

>  <TORSDO>
F 4

$$$$
=
 OpenBabel10262419203D

 31 35  0  0  1  0  0  0  0  0999 V2000
  190.6640  177.2680  142.6040 C   0  0  0  0  0  0  0  0  0  0  0  0
  187.1800  177.4750  144.2040 C   0  0  2  0  0  3  0  0  0  0  0  0
  187.5230  177.6040  145.6840 C   0  0  0  0  0  0  0  0  0  0  0  0
  189.6340  177.4020  146.9580 C   0  0  0  0  0  3  0  0  0  0  0  0
  188.3270  177.5570  143.2130 C   0  0  0  0  0  0  0  0  0  0  0  0
  190.3650  177.5800  141.2770 C   0  0  0  0  0  3  0  0  0  0  0  0
  188.5460  176.6670  146.2500 C   0  0  0  0  0  2  0  0  0  0  0  0
  185.6120  178.1070  142.3810 C   0  0  1  0  0  3  0  0  0  0  0  0
  191.9700  176.9710  142.9690 O   0  0  0  0  0  1  0  0  0  0  0  0
  185.4880  179.0080  145.9810 C   0  0  0  0  0  2  0  0  0  0  0  0
  189.4130  178.1310  148.0490 C   0  0  0  0  0  3  0  0  0  0  0  0
  186.7190  178.1690  141.4760 O   0  0  0  0  0  0  0  0  0  0  0  0
  186.0790  178.4580  143.7910 C   0  0  1  0  0  3  0  0  0  0  0  0
  189.6500  177.2480  143.5640 C   0  0  0  0  0  3  0  0  0  0  0  0
  188.0840  178.3720  148.6370 C   0  0  0  0  0  3  0  0  0  0  0  0
  188.0300  177.8550  141.8650 C   0  0  0  0  0  0  0  0  0  0  0  0
  189.0490  177.8730  140.9080 C   0  0  0  0  0  3  0  0  0  0  0  0
  184.9920  178.3890  144.7560 N   0  0  0  0  0  2  0  0  0  0  0  0
  186.7020  178.2900  146.5180 C   0  0  0  0  0  0  0  0  0  0  0  0
  186.9210  178.4290  147.9770 C   0  0  0  0  0  3  0  0  0  0  0  0
  184.5270  179.0690  141.9180 C   0  0  0  0  0  2  0  0  0  0  0  0
  182.3650  178.4400  141.1310 O   0  0  0  0  0  1  0  0  0  0  0  0
  183.7180  178.4620  140.7860 C   0  0  1  0  0  3  0  0  0  0  0  0
  183.9450  179.4600  139.2850 S   0  0  0  0  0  0  0  0  0  0  0  0
  186.6500  176.9760  137.3000 C   0  0  0  0  0  0  0  0  0  0  0  0
  184.5020  175.9340  137.2860 C   0  0  0  0  0  3  0  0  0  0  0  0
  187.8570  176.9120  136.9500 O   0  0  0  0  0  0  0  0  0  0  0  0
  186.1670  178.1680  138.0780 C   0  0  0  0  0  2  0  0  0  0  0  0
  183.9340  177.0710  138.0240 C   0  0  0  0  0  3  0  0  0  0  0  0
  184.6940  178.1090  138.3840 C   0  0  0  0  0  0  0  0  0  0  0  0
  185.7580  175.9080  136.9600 N   0  0  0  0  0  0  0  0  0  0  0  0
  1  9  1  0  0  0  0
  1 14  1  0  0  0  0
  2  5  1  6  0  0  0
  2  3  1  0  0  0  0
  3  7  1  0  0  0  0
  3 19  2  0  0  0  0
  4 11  2  0  0  0  0
  5 14  2  0  0  0  0
  6  1  2  0  0  0  0
  7  4  1  0  0  0  0
  8 21  1  6  0  0  0
  8 13  1  0  0  0  0
 10 19  1  0  0  0  0
 11 15  1  0  0  0  0
 12 16  1  0  0  0  0
 12  8  1  0  0  0  0
 13  2  1  0  0  0  0
 13 18  1  1  0  0  0
 16  5  1  0  0  0  0
 17  6  1  0  0  0  0
 17 16  2  0  0  0  0
 18 10  1  0  0  0  0
 19 20  1  0  0  0  0
 20 15  2  0  0  0  0
 23 22  1  1  0  0  0
 23 21  1  0  0  0  0
 24 23  1  0  0  0  0
 25 28  1  0  0  0  0
 26 29  1  0  0  0  0
 27 25  2  0  0  0  0
 28 30  1  0  0  0  0
 29 30  2  0  0  0  0
 30 24  1  0  0  0  0
 31 26  2  0  0  0  0
 31 25  1  0  0  0  0
M  END
>  <MODEL>
6

>  <REMARK>
 VINA RESULT:      -9.6      2.816      4.196
  Name = 
  4 active torsions:
  status: ('A' for Active; 'I' for Inactive)
    1  A    between atoms: S_3  and  C_9
    2  A    between atoms: S_3  and  C_22
    3  A    between atoms: C_9  and  C_23
    4  A    between atoms: C_15  and  C_23
                            x       y       z     vdW  Elec       q    Type
                         _______ _______ _______ _____ _____    ______ ____

>  <TORSDO>
F 4

$$$$
=
 OpenBabel10262419203D

 31 35  0  0  1  0  0  0  0  0999 V2000
  189.8880  177.5760  141.7620 C   0  0  0  0  0  0  0  0  0  0  0  0
  186.1250  177.8850  142.4610 C   0  0  2  0  0  3  0  0  0  0  0  0
  186.0950  177.9500  143.9840 C   0  0  0  0  0  0  0  0  0  0  0  0
  187.8160  177.6130  145.7290 C   0  0  0  0  0  3  0  0  0  0  0  0
  187.4840  177.9490  141.7880 C   0  0  0  0  0  0  0  0  0  0  0  0
  189.9380  177.9450  140.4160 C   0  0  0  0  0  3  0  0  0  0  0  0
  186.9130  176.9510  144.7440 C   0  0  0  0  0  2  0  0  0  0  0  0
  185.0810  178.6440  140.3360 C   0  0  1  0  0  3  0  0  0  0  0  0
  191.0510  177.2100  142.4240 O   0  0  0  0  0  1  0  0  0  0  0  0
  184.1000  179.4320  143.8300 C   0  0  0  0  0  2  0  0  0  0  0  0
  187.3560  178.3150  146.7610 C   0  0  0  0  0  3  0  0  0  0  0  0
  186.3790  178.6870  139.7360 O   0  0  0  0  0  0  0  0  0  0  0  0
  185.1950  178.9290  141.8320 C   0  0  1  0  0  3  0  0  0  0  0  0
  188.6670  177.5700  142.4400 C   0  0  0  0  0  3  0  0  0  0  0  0
  185.9330  178.5950  147.0150 C   0  0  0  0  0  3  0  0  0  0  0  0
  187.5410  178.3030  140.4220 C   0  0  0  0  0  0  0  0  0  0  0  0
  188.7660  178.3070  139.7470 C   0  0  0  0  0  3  0  0  0  0  0  0
  183.9010  178.8760  142.4950 N   0  0  0  0  0  2  0  0  0  0  0  0
  185.1170  178.6440  144.6190 C   0  0  0  0  0  0  0  0  0  0  0  0
  184.9720  178.7260  146.0910 C   0  0  0  0  0  3  0  0  0  0  0  0
  184.1790  179.6680  139.6620 C   0  0  0  0  0  2  0  0  0  0  0  0
  182.3770  179.6150  138.1000 O   0  0  0  0  0  1  0  0  0  0  0  0
  182.8470  179.0440  139.2840 C   0  0  1  0  0  3  0  0  0  0  0  0
  183.0680  177.2560  139.0500 S   0  0  0  0  0  0  0  0  0  0  0  0
  179.6860  175.2810  140.4980 C   0  0  0  0  0  0  0  0  0  0  0  0
  179.6450  177.5380  141.2740 C   0  0  0  0  0  3  0  0  0  0  0  0
  179.1090  174.1630  140.4700 O   0  0  0  0  0  0  0  0  0  0  0  0
  180.9910  175.4580  139.7750 C   0  0  0  0  0  2  0  0  0  0  0  0
  180.9080  177.8130  140.5750 C   0  0  0  0  0  3  0  0  0  0  0  0
  181.5300  176.8620  139.8740 C   0  0  0  0  0  0  0  0  0  0  0  0
  179.0950  176.3640  141.2260 N   0  0  0  0  0  0  0  0  0  0  0  0
  1  9  1  0  0  0  0
  1 14  1  0  0  0  0
  2  5  1  6  0  0  0
  2  3  1  0  0  0  0
  3 19  2  0  0  0  0
  3  7  1  0  0  0  0
  4 11  2  0  0  0  0
  5 14  2  0  0  0  0
  6  1  2  0  0  0  0
  7  4  1  0  0  0  0
  8 21  1  6  0  0  0
  8 13  1  0  0  0  0
 10 19  1  0  0  0  0
 11 15  1  0  0  0  0
 12  8  1  0  0  0  0
 12 16  1  0  0  0  0
 13  2  1  0  0  0  0
 13 18  1  1  0  0  0
 16  5  1  0  0  0  0
 17  6  1  0  0  0  0
 17 16  2  0  0  0  0
 18 10  1  0  0  0  0
 19 20  1  0  0  0  0
 20 15  2  0  0  0  0
 23 22  1  6  0  0  0
 23 21  1  0  0  0  0
 24 23  1  0  0  0  0
 24 30  1  0  0  0  0
 25 31  1  0  0  0  0
 27 25  2  0  0  0  0
 28 30  1  0  0  0  0
 28 25  1  0  0  0  0
 29 26  1  0  0  0  0
 30 29  2  0  0  0  0
 31 26  2  0  0  0  0
M  END
>  <MODEL>
7

>  <REMARK>
 VINA RESULT:      -9.5      3.732      6.203
  Name = 
  4 active torsions:
  status: ('A' for Active; 'I' for Inactive)
    1  A    between atoms: S_3  and  C_9
    2  A    between atoms: S_3  and  C_22
    3  A    between atoms: C_9  and  C_23
    4  A    between atoms: C_15  and  C_23
                            x       y       z     vdW  Elec       q    Type
                         _______ _______ _______ _____ _____    ______ ____

>  <TORSDO>
F 4

$$$$
=
 OpenBabel10262419203D

 31 35  0  0  1  0  0  0  0  0999 V2000
  185.3320  178.3120  145.2890 C   0  0  0  0  0  0  0  0  0  0  0  0
  188.8040  178.1400  143.6590 C   0  0  2  0  0  3  0  0  0  0  0  0
  189.6630  177.6230  144.8080 C   0  0  0  0  0  0  0  0  0  0  0  0
  189.2330  177.2660  147.2180 C   0  0  0  0  0  3  0  0  0  0  0  0
  187.3010  178.1620  143.8690 C   0  0  0  0  0  0  0  0  0  0  0  0
  184.5120  178.3620  144.1600 C   0  0  0  0  0  3  0  0  0  0  0  0
  189.5030  178.2710  146.1490 C   0  0  0  0  0  2  0  0  0  0  0  0
  188.4220  178.1500  141.2030 C   0  0  1  0  0  3  0  0  0  0  0  0
  184.7700  178.3570  146.5580 O   0  0  0  0  0  1  0  0  0  0  0  0
  191.0850  176.4380  143.1430 C   0  0  0  0  0  2  0  0  0  0  0  0
  190.1150  176.3290  147.5580 C   0  0  0  0  0  3  0  0  0  0  0  0
  187.0120  178.1760  141.4410 O   0  0  0  0  0  0  0  0  0  0  0  0
  189.1250  177.4200  142.3450 C   0  0  1  0  0  3  0  0  0  0  0  0
  186.7180  178.2220  145.1440 C   0  0  0  0  0  3  0  0  0  0  0  0
  191.4060  176.1130  146.8840 C   0  0  0  0  0  3  0  0  0  0  0  0
  186.4650  178.2310  142.7320 C   0  0  0  0  0  0  0  0  0  0  0  0
  185.0780  178.3230  142.8830 C   0  0  0  0  0  3  0  0  0  0  0  0
  190.5680  177.3850  142.1600 N   0  0  0  0  0  2  0  0  0  0  0  0
  190.7560  176.8600  144.5540 C   0  0  0  0  0  0  0  0  0  0  0  0
  191.6800  176.3520  145.5940 C   0  0  0  0  0  3  0  0  0  0  0  0
  188.6980  177.4600  139.8740 C   0  0  0  0  0  2  0  0  0  0  0  0
  189.0210  178.9890  138.0720 O   0  0  0  0  0  1  0  0  0  0  0  0
  188.0560  178.2240  138.7290 C   0  0  1  0  0  3  0  0  0  0  0  0
  187.3190  177.0440  137.5610 S   0  0  0  0  0  0  0  0  0  0  0  0
  191.0450  175.1870  137.2350 C   0  0  0  0  0  0  0  0  0  0  0  0
  190.6330  176.4340  135.2410 C   0  0  0  0  0  3  0  0  0  0  0  0
  191.8360  174.4460  137.8730 O   0  0  0  0  0  0  0  0  0  0  0  0
  189.7240  175.5590  137.8480 C   0  0  0  0  0  2  0  0  0  0  0  0
  189.3340  176.8720  135.7700 C   0  0  0  0  0  3  0  0  0  0  0  0
  188.9120  176.4810  136.9750 C   0  0  0  0  0  0  0  0  0  0  0  0
  191.4100  175.6570  135.9320 N   0  0  0  0  0  0  0  0  0  0  0  0
  1  9  1  0  0  0  0
  2  5  1  1  0  0  0
  2  3  1  0  0  0  0
  3  7  1  0  0  0  0
  4 11  2  0  0  0  0
  5 14  2  0  0  0  0
  6  1  2  0  0  0  0
  7  4  1  0  0  0  0
  8 21  1  6  0  0  0
  8 12  1  0  0  0  0
  8 13  1  0  0  0  0
 10 19  1  0  0  0  0
 12 16  1  0  0  0  0
 13 18  1  6  0  0  0
 13  2  1  0  0  0  0
 14  1  1  0  0  0  0
 15 11  1  0  0  0  0
 16 17  2  0  0  0  0
 16  5  1  0  0  0  0
 17  6  1  0  0  0  0
 18 10  1  0  0  0  0
 19  3  2  0  0  0  0
 19 20  1  0  0  0  0
 20 15  2  0  0  0  0
 23 22  1  6  0  0  0
 23 21  1  0  0  0  0
 24 23  1  0  0  0  0
 25 28  1  0  0  0  0
 25 27  2  0  0  0  0
 26 29  1  0  0  0  0
 26 31  2  0  0  0  0
 29 30  2  0  0  0  0
 30 24  1  0  0  0  0
 30 28  1  0  0  0  0
 31 25  1  0  0  0  0
M  END
>  <MODEL>
8

>  <REMARK>
 VINA RESULT:      -9.0      2.004      4.101
  Name = 
  4 active torsions:
  status: ('A' for Active; 'I' for Inactive)
    1  A    between atoms: S_3  and  C_9
    2  A    between atoms: S_3  and  C_22
    3  A    between atoms: C_9  and  C_23
    4  A    between atoms: C_15  and  C_23
                            x       y       z     vdW  Elec       q    Type
                         _______ _______ _______ _____ _____    ______ ____

>  <TORSDO>
F 4

$$$$
=
 OpenBabel10262419203D

 31 35  0  0  1  0  0  0  0  0999 V2000
  190.6220  177.2560  142.6800 C   0  0  0  0  0  0  0  0  0  0  0  0
  187.2170  177.4230  144.4470 C   0  0  2  0  0  3  0  0  0  0  0  0
  187.6310  177.5360  145.9110 C   0  0  0  0  0  0  0  0  0  0  0  0
  189.8010  177.3290  147.0800 C   0  0  0  0  0  3  0  0  0  0  0  0
  188.3150  177.5240  143.4040 C   0  0  0  0  0  0  0  0  0  0  0  0
  190.2570  177.5830  141.3730 C   0  0  0  0  0  3  0  0  0  0  0  0
  188.6840  176.5970  146.4150 C   0  0  0  0  0  2  0  0  0  0  0  0
  185.5600  178.0680  142.7090 C   0  0  1  0  0  3  0  0  0  0  0  0
  191.9450  176.9620  142.9790 O   0  0  0  0  0  1  0  0  0  0  0  0
  185.6050  178.9240  146.3230 C   0  0  0  0  0  2  0  0  0  0  0  0
  189.6280  178.0440  148.1890 C   0  0  0  0  0  3  0  0  0  0  0  0
  186.6230  178.1480  141.7540 O   0  0  0  0  0  0  0  0  0  0  0  0
  186.0920  178.4050  144.1010 C   0  0  1  0  0  3  0  0  0  0  0  0
  189.6540  177.2180  143.6870 C   0  0  0  0  0  3  0  0  0  0  0  0
  188.3280  178.2690  148.8430 C   0  0  0  0  0  3  0  0  0  0  0  0
  187.9520  177.8370  142.0750 C   0  0  0  0  0  0  0  0  0  0  0  0
  188.9240  177.8720  141.0710 C   0  0  0  0  0  3  0  0  0  0  0  0
  185.0530  178.3170  145.1150 N   0  0  0  0  0  2  0  0  0  0  0  0
  186.8460  178.2060  146.7920 C   0  0  0  0  0  0  0  0  0  0  0  0
  187.1340  178.3280  148.2400 C   0  0  0  0  0  3  0  0  0  0  0  0
  184.4500  179.0300  142.3120 C   0  0  0  0  0  2  0  0  0  0  0  0
  182.2630  178.6150  141.4560 O   0  0  0  0  0  1  0  0  0  0  0  0
  183.6210  178.4540  141.1770 C   0  0  1  0  0  3  0  0  0  0  0  0
  184.0310  179.3220  139.6350 S   0  0  0  0  0  0  0  0  0  0  0  0
  182.4360  175.9830  137.7030 C   0  0  0  0  0  0  0  0  0  0  0  0
  181.1090  177.8900  137.1560 C   0  0  0  0  0  3  0  0  0  0  0  0
  182.6270  174.7490  137.5470 O   0  0  0  0  0  0  0  0  0  0  0  0
  183.3590  176.7670  138.5920 C   0  0  0  0  0  2  0  0  0  0  0  0
  181.9740  178.7430  137.9830 C   0  0  0  0  0  3  0  0  0  0  0  0
  183.0190  178.2340  138.6400 C   0  0  0  0  0  0  0  0  0  0  0  0
  181.3380  176.6180  137.0370 N   0  0  0  0  0  0  0  0  0  0  0  0
  1  9  1  0  0  0  0
  1 14  1  0  0  0  0
  2  5  1  6  0  0  0
  2  3  1  0  0  0  0
  3  7  1  0  0  0  0
  3 19  2  0  0  0  0
  4 11  2  0  0  0  0
  5 14  2  0  0  0  0
  6  1  2  0  0  0  0
  7  4  1  0  0  0  0
  8 21  1  6  0  0  0
  8 13  1  0  0  0  0
 10 19  1  0  0  0  0
 11 15  1  0  0  0  0
 12 16  1  0  0  0  0
 12  8  1  0  0  0  0
 13  2  1  0  0  0  0
 13 18  1  1  0  0  0
 16  5  1  0  0  0  0
 17  6  1  0  0  0  0
 17 16  2  0  0  0  0
 18 10  1  0  0  0  0
 19 20  1  0  0  0  0
 20 15  2  0  0  0  0
 23 22  1  1  0  0  0
 23 21  1  0  0  0  0
 24 23  1  0  0  0  0
 25 28  1  0  0  0  0
 26 29  1  0  0  0  0
 27 25  2  0  0  0  0
 28 30  1  0  0  0  0
 29 30  2  0  0  0  0
 30 24  1  0  0  0  0
 31 26  2  0  0  0  0
 31 25  1  0  0  0  0
M  END
>  <MODEL>
9

>  <REMARK>
 VINA RESULT:      -8.9      3.506      5.445
  Name = 
  4 active torsions:
  status: ('A' for Active; 'I' for Inactive)
    1  A    between atoms: S_3  and  C_9
    2  A    between atoms: S_3  and  C_22
    3  A    between atoms: C_9  and  C_23
    4  A    between atoms: C_15  and  C_23
                            x       y       z     vdW  Elec       q    Type
                         _______ _______ _______ _____ _____    ______ ____

>  <TORSDO>
F 4

$$$$
