=
 OpenBabel10252414583D

 34 40  0  0  1  0  0  0  0  0999 V2000
  186.1400  178.1620  145.8680 C   0  0  0  0  0  0  0  0  0  0  0  0
  187.9640  177.3460  144.4560 C   0  0  0  0  0  0  0  0  0  0  0  0
  185.9420  178.3200  143.4530 C   0  0  0  0  0  0  0  0  0  0  0  0
  185.9370  179.0260  140.9840 C   0  0  1  0  0  3  0  0  0  0  0  0
  188.2050  177.4010  146.8720 C   0  0  0  0  0  3  0  0  0  0  0  0
  188.7210  177.1070  145.6060 C   0  0  0  0  0  3  0  0  0  0  0  0
  187.6770  177.7780  141.8000 C   0  0  0  0  0  0  0  0  0  0  0  0
  186.6790  177.9230  144.5820 C   0  0  0  0  0  0  0  0  0  0  0  0
  186.6100  178.4630  139.8080 N   0  0  0  0  0  2  0  0  0  0  0  0
  186.9110  177.9100  147.0050 C   0  0  0  0  0  3  0  0  0  0  0  0
  184.6190  178.7880  143.5790 C   0  0  0  0  0  0  0  0  0  0  0  0
  184.8460  178.6750  146.0020 C   0  0  0  0  0  3  0  0  0  0  0  0
  188.5640  176.6590  142.8910 S   0  0  0  0  0  0  0  0  0  0  0  0
  184.4440  178.7130  141.0100 C   0  0  0  0  0  2  0  0  0  0  0  0
  183.8230  179.2020  142.3390 C   0  0  1  0  0  3  0  0  0  0  0  0
  187.8490  177.8560  140.3240 C   0  0  1  0  0  3  0  0  0  0  0  0
  186.5650  178.3670  142.1360 C   0  0  0  0  0  0  0  0  0  0  0  0
  184.0880  178.9760  144.8670 C   0  0  0  0  0  3  0  0  0  0  0  0
  180.3050  178.5340  143.6470 C   0  0  0  0  0  0  0  0  0  0  0  0
  179.6880  178.0220  142.5000 C   0  0  0  0  0  3  0  0  0  0  0  0
  182.3840  178.7890  142.4100 C   0  0  0  0  0  0  0  0  0  0  0  0
  180.4190  177.8860  141.3110 C   0  0  0  0  0  3  0  0  0  0  0  0
  181.6500  178.9160  143.6050 C   0  0  0  0  0  3  0  0  0  0  0  0
  181.7640  178.2670  141.2650 C   0  0  0  0  0  3  0  0  0  0  0  0
  179.5960  178.6680  144.8010 F   0  0  0  0  0  0  0  0  0  0  0  0
  189.0350  178.7470  139.9810 C   0  0  0  0  0  2  0  0  0  0  0  0
  189.7940  178.1620  138.8850 N   0  0  0  0  0  2  0  0  0  0  0  0
  191.7820  177.3910  140.9620 C   0  0  0  0  0  1  0  0  0  0  0  0
  190.0440  176.7690  139.2320 C   0  0  2  0  0  3  0  0  0  0  0  0
  191.4900  176.5820  139.7140 C   0  0  1  0  0  3  0  0  0  0  0  0
  192.0910  176.3230  137.2350 C   0  0  0  0  0  2  0  0  0  0  0  0
  190.9850  175.2690  137.3600 C   0  0  0  0  0  2  0  0  0  0  0  0
  189.7310  175.8750  138.0160 C   0  0  0  0  0  2  0  0  0  0  0  0
  192.5040  176.8970  138.6080 C   0  0  0  0  0  2  0  0  0  0  0  0
  1 12  1  0  0  0  0
  1 10  2  0  0  0  0
  2  8  2  0  0  0  0
  2  6  1  0  0  0  0
  3 11  2  0  0  0  0
  3  8  1  0  0  0  0
  4 14  1  6  0  0  0
  4 17  1  0  0  0  0
  5 10  1  0  0  0  0
  6  5  2  0  0  0  0
  7 17  2  0  0  0  0
  7 13  1  0  0  0  0
  8  1  1  0  0  0  0
  9 16  1  0  0  0  0
  9  4  1  0  0  0  0
 11 18  1  0  0  0  0
 13  2  1  0  0  0  0
 14 15  1  0  0  0  0
 15 21  1  1  0  0  0
 15 11  1  0  0  0  0
 16 26  1  1  0  0  0
 16  7  1  0  0  0  0
 17  3  1  0  0  0  0
 18 12  2  0  0  0  0
 19 25  1  0  0  0  0
 20 19  2  0  0  0  0
 21 23  2  0  0  0  0
 22 20  1  0  0  0  0
 23 19  1  0  0  0  0
 24 22  2  0  0  0  0
 24 21  1  0  0  0  0
 27 26  1  0  0  0  0
 29 27  1  6  0  0  0
 29 30  1  0  0  0  0
 30 28  1  1  0  0  0
 31 32  1  0  0  0  0
 31 34  1  0  0  0  0
 32 33  1  0  0  0  0
 33 29  1  0  0  0  0
 34 30  1  0  0  0  0
M  END
>  <MODEL>
1

>  <REMARK>
 VINA RESULT:     -10.8      0.000      0.000
  Name = 
  4 active torsions:
  status: ('A' for Active; 'I' for Inactive)
    1  A    between atoms: N_3  and  C_13
    2  A    between atoms: N_3  and  C_17
    3  A    between atoms: C_12  and  C_28
    4  A    between atoms: C_17  and  C_29
                            x       y       z     vdW  Elec       q    Type
                         _______ _______ _______ _____ _____    ______ ____

>  <TORSDO>
F 4

$$$$
=
 OpenBabel10252414583D

 34 40  0  0  1  0  0  0  0  0999 V2000
  184.9300  178.5700  145.3640 C   0  0  0  0  0  0  0  0  0  0  0  0
  187.0350  177.7720  144.4030 C   0  0  0  0  0  0  0  0  0  0  0  0
  185.1800  178.4730  142.9510 C   0  0  0  0  0  0  0  0  0  0  0  0
  185.5940  178.9310  140.4580 C   0  0  1  0  0  3  0  0  0  0  0  0
  186.8140  178.0820  146.8010 C   0  0  0  0  0  3  0  0  0  0  0  0
  187.5760  177.7090  145.6900 C   0  0  0  0  0  3  0  0  0  0  0  0
  187.2250  177.9160  141.7070 C   0  0  0  0  0  0  0  0  0  0  0  0
  185.7150  178.2510  144.2310 C   0  0  0  0  0  0  0  0  0  0  0  0
  186.5090  178.3130  139.4920 N   0  0  0  0  0  2  0  0  0  0  0  0
  185.4890  178.4950  146.6420 C   0  0  0  0  0  3  0  0  0  0  0  0
  183.8300  178.8420  142.7840 C   0  0  0  0  0  0  0  0  0  0  0  0
  183.6050  178.9860  145.2050 C   0  0  0  0  0  3  0  0  0  0  0  0
  187.9590  176.9860  143.0580 S   0  0  0  0  0  0  0  0  0  0  0  0
  184.1450  178.5020  140.2500 C   0  0  0  0  0  2  0  0  0  0  0  0
  183.2560  179.0660  141.3830 C   0  0  1  0  0  3  0  0  0  0  0  0
  187.6660  177.8630  140.2870 C   0  0  1  0  0  3  0  0  0  0  0  0
  186.0350  178.4420  141.7710 C   0  0  0  0  0  0  0  0  0  0  0  0
  183.0560  179.1110  143.9260 C   0  0  0  0  0  3  0  0  0  0  0  0
  180.2720  176.9350  140.3400 C   0  0  0  0  0  0  0  0  0  0  0  0
  179.2330  177.5890  141.0100 C   0  0  0  0  0  3  0  0  0  0  0  0
  181.8580  178.5450  141.2390 C   0  0  0  0  0  0  0  0  0  0  0  0
  179.5020  178.7240  141.7870 C   0  0  0  0  0  3  0  0  0  0  0  0
  181.5830  177.4110  140.4520 C   0  0  0  0  0  3  0  0  0  0  0  0
  180.8110  179.2030  141.9020 C   0  0  0  0  0  3  0  0  0  0  0  0
  180.0130  175.8330  139.5860 F   0  0  0  0  0  0  0  0  0  0  0  0
  188.8360  178.8100  140.0660 C   0  0  0  0  0  2  0  0  0  0  0  0
  189.7300  178.2650  139.0550 N   0  0  0  0  0  2  0  0  0  0  0  0
  191.5610  177.4140  141.2420 C   0  0  0  0  0  1  0  0  0  0  0  0
  189.9410  176.8610  139.3800 C   0  0  2  0  0  3  0  0  0  0  0  0
  191.3480  176.6420  139.9550 C   0  0  1  0  0  3  0  0  0  0  0  0
  192.1150  176.4410  137.5180 C   0  0  0  0  0  2  0  0  0  0  0  0
  190.9920  175.3980  137.5370 C   0  0  0  0  0  2  0  0  0  0  0  0
  189.7030  176.0030  138.1210 C   0  0  0  0  0  2  0  0  0  0  0  0
  192.4390  176.9730  138.9310 C   0  0  0  0  0  2  0  0  0  0  0  0
  1 10  2  0  0  0  0
  2  6  1  0  0  0  0
  3  8  1  0  0  0  0
  4 14  1  6  0  0  0
  4 17  1  0  0  0  0
  6  5  2  0  0  0  0
  7 17  2  0  0  0  0
  7 13  1  0  0  0  0
  8  2  2  0  0  0  0
  8  1  1  0  0  0  0
  9 16  1  0  0  0  0
  9  4  1  0  0  0  0
 10  5  1  0  0  0  0
 11  3  2  0  0  0  0
 11 18  1  0  0  0  0
 12  1  1  0  0  0  0
 13  2  1  0  0  0  0
 14 15  1  0  0  0  0
 15 21  1  1  0  0  0
 15 11  1  0  0  0  0
 16 26  1  1  0  0  0
 16  7  1  0  0  0  0
 17  3  1  0  0  0  0
 18 12  2  0  0  0  0
 19 23  2  0  0  0  0
 19 20  1  0  0  0  0
 20 22  2  0  0  0  0
 21 24  2  0  0  0  0
 22 24  1  0  0  0  0
 23 21  1  0  0  0  0
 25 19  1  0  0  0  0
 27 26  1  0  0  0  0
 29 27  1  6  0  0  0
 29 30  1  0  0  0  0
 30 28  1  1  0  0  0
 31 32  1  0  0  0  0
 31 34  1  0  0  0  0
 32 33  1  0  0  0  0
 33 29  1  0  0  0  0
 34 30  1  0  0  0  0
M  END
>  <MODEL>
2

>  <REMARK>
 VINA RESULT:     -10.1      1.299      1.634
  Name = 
  4 active torsions:
  status: ('A' for Active; 'I' for Inactive)
    1  A    between atoms: N_3  and  C_13
    2  A    between atoms: N_3  and  C_17
    3  A    between atoms: C_12  and  C_28
    4  A    between atoms: C_17  and  C_29
                            x       y       z     vdW  Elec       q    Type
                         _______ _______ _______ _____ _____    ______ ____

>  <TORSDO>
F 4

$$$$
=
 OpenBabel10252414583D

 34 40  0  0  1  0  0  0  0  0999 V2000
  185.2790  178.2330  142.8130 C   0  0  0  0  0  0  0  0  0  0  0  0
  186.5440  178.5670  140.7450 C   0  0  0  0  0  0  0  0  0  0  0  0
  187.6140  177.5730  142.7220 C   0  0  0  0  0  0  0  0  0  0  0  0
  189.8620  176.3520  142.4950 C   0  0  1  0  0  3  0  0  0  0  0  0
  184.1590  179.0180  140.8180 C   0  0  0  0  0  3  0  0  0  0  0  0
  185.3680  178.9860  140.1160 C   0  0  0  0  0  3  0  0  0  0  0  0
  189.0700  177.5960  140.7420 C   0  0  0  0  0  0  0  0  0  0  0  0
  186.4930  178.1410  142.0930 C   0  0  0  0  0  0  0  0  0  0  0  0
  191.0150  176.5880  141.6210 N   0  0  0  0  0  2  0  0  0  0  0  0
  184.1170  178.6600  142.1680 C   0  0  0  0  0  3  0  0  0  0  0  0
  187.5910  177.2560  144.0950 C   0  0  0  0  0  0  0  0  0  0  0  0
  185.2350  177.8720  144.1630 C   0  0  0  0  0  3  0  0  0  0  0  0
  188.1100  178.8470  139.8790 S   0  0  0  0  0  0  0  0  0  0  0  0
  190.1200  176.7870  143.9350 C   0  0  0  0  0  2  0  0  0  0  0  0
  188.8250  176.6520  144.7700 C   0  0  1  0  0  3  0  0  0  0  0  0
  190.4580  177.1860  140.3950 C   0  0  1  0  0  3  0  0  0  0  0  0
  188.7880  177.1900  141.9470 C   0  0  0  0  0  0  0  0  0  0  0  0
  186.3850  177.3970  144.8020 C   0  0  0  0  0  3  0  0  0  0  0  0
  190.5090  177.6250  148.0490 C   0  0  0  0  0  0  0  0  0  0  0  0
  189.4430  178.2260  148.7260 C   0  0  0  0  0  3  0  0  0  0  0  0
  189.0520  177.1900  146.1500 C   0  0  0  0  0  0  0  0  0  0  0  0
  188.1800  178.3030  148.1220 C   0  0  0  0  0  3  0  0  0  0  0  0
  190.3160  177.1060  146.7640 C   0  0  0  0  0  3  0  0  0  0  0  0
  187.9830  177.7860  146.8370 C   0  0  0  0  0  3  0  0  0  0  0  0
  191.7350  177.5500  148.6340 F   0  0  0  0  0  0  0  0  0  0  0  0
  190.4340  176.1460  139.2850 C   0  0  0  0  0  2  0  0  0  0  0  0
  190.2410  176.7990  137.9980 N   0  0  0  0  0  2  0  0  0  0  0  0
  191.1850  175.9930  135.2920 C   0  0  0  0  0  1  0  0  0  0  0  0
  189.4820  175.8800  137.1600 C   0  0  2  0  0  3  0  0  0  0  0  0
  189.7280  176.1730  135.6730 C   0  0  1  0  0  3  0  0  0  0  0  0
  187.8510  177.9050  135.8900 C   0  0  0  0  0  2  0  0  0  0  0  0
  187.1370  176.6600  136.4290 C   0  0  0  0  0  2  0  0  0  0  0  0
  187.9850  175.9790  137.5170 C   0  0  0  0  0  2  0  0  0  0  0  0
  189.2270  177.5660  135.2770 C   0  0  0  0  0  2  0  0  0  0  0  0
  1 12  1  0  0  0  0
  2  8  1  0  0  0  0
  3 11  2  0  0  0  0
  4 14  1  1  0  0  0
  5 10  2  0  0  0  0
  6  2  2  0  0  0  0
  6  5  1  0  0  0  0
  7 17  2  0  0  0  0
  8  3  1  0  0  0  0
  8  1  2  0  0  0  0
  9  4  1  0  0  0  0
 10  1  1  0  0  0  0
 11 15  1  0  0  0  0
 11 18  1  0  0  0  0
 12 18  2  0  0  0  0
 13  7  1  0  0  0  0
 13  2  1  0  0  0  0
 14 15  1  0  0  0  0
 15 21  1  1  0  0  0
 16 26  1  6  0  0  0
 16  7  1  0  0  0  0
 16  9  1  0  0  0  0
 17  4  1  0  0  0  0
 17  3  1  0  0  0  0
 19 25  1  0  0  0  0
 19 20  1  0  0  0  0
 21 23  1  0  0  0  0
 21 24  2  0  0  0  0
 22 20  2  0  0  0  0
 23 19  2  0  0  0  0
 24 22  1  0  0  0  0
 27 26  1  0  0  0  0
 29 33  1  0  0  0  0
 29 27  1  1  0  0  0
 30 28  1  1  0  0  0
 30 29  1  0  0  0  0
 31 32  1  0  0  0  0
 32 33  1  0  0  0  0
 34 30  1  0  0  0  0
 34 31  1  0  0  0  0
M  END
>  <MODEL>
3

>  <REMARK>
 VINA RESULT:      -9.7      3.001      6.043
  Name = 
  4 active torsions:
  status: ('A' for Active; 'I' for Inactive)
    1  A    between atoms: N_3  and  C_13
    2  A    between atoms: N_3  and  C_17
    3  A    between atoms: C_12  and  C_28
    4  A    between atoms: C_17  and  C_29
                            x       y       z     vdW  Elec       q    Type
                         _______ _______ _______ _____ _____    ______ ____

>  <TORSDO>
F 4

$$$$
=
 OpenBabel10252414583D

 34 40  0  0  1  0  0  0  0  0999 V2000
  186.5530  178.2590  146.1980 C   0  0  0  0  0  0  0  0  0  0  0  0
  188.2480  177.2420  144.7560 C   0  0  0  0  0  0  0  0  0  0  0  0
  186.2380  178.2770  143.7910 C   0  0  0  0  0  0  0  0  0  0  0  0
  186.1460  178.8260  141.2840 C   0  0  1  0  0  3  0  0  0  0  0  0
  188.6180  177.4320  147.1480 C   0  0  0  0  0  3  0  0  0  0  0  0
  189.0490  177.0270  145.8800 C   0  0  0  0  0  3  0  0  0  0  0  0
  187.8480  177.5230  142.0940 C   0  0  0  0  0  0  0  0  0  0  0  0
  187.0090  177.9060  144.9060 C   0  0  0  0  0  0  0  0  0  0  0  0
  186.7200  178.1490  140.1160 N   0  0  0  0  0  2  0  0  0  0  0  0
  187.3670  178.0300  147.3100 C   0  0  0  0  0  3  0  0  0  0  0  0
  184.9550  178.8350  143.9500 C   0  0  0  0  0  0  0  0  0  0  0  0
  185.3020  178.8600  146.3620 C   0  0  0  0  0  3  0  0  0  0  0  0
  188.7220  176.4210  143.2120 S   0  0  0  0  0  0  0  0  0  0  0  0
  184.6400  178.6110  141.4030 C   0  0  0  0  0  2  0  0  0  0  0  0
  184.1200  179.2210  142.7260 C   0  0  1  0  0  3  0  0  0  0  0  0
  187.9460  177.4980  140.6090 C   0  0  1  0  0  3  0  0  0  0  0  0
  186.7930  178.2020  142.4450 C   0  0  0  0  0  0  0  0  0  0  0  0
  184.5040  179.1370  145.2470 C   0  0  0  0  0  3  0  0  0  0  0  0
  180.4950  178.3270  141.9610 C   0  0  0  0  0  0  0  0  0  0  0  0
  179.9500  178.3000  143.2490 C   0  0  0  0  0  3  0  0  0  0  0  0
  182.6650  178.9050  142.8940 C   0  0  0  0  0  0  0  0  0  0  0  0
  180.7590  178.5830  144.3600 C   0  0  0  0  0  3  0  0  0  0  0  0
  181.8490  178.6300  141.7810 C   0  0  0  0  0  3  0  0  0  0  0  0
  182.1130  178.8860  144.1840 C   0  0  0  0  0  3  0  0  0  0  0  0
  179.7110  178.0510  140.8830 F   0  0  0  0  0  0  0  0  0  0  0  0
  189.1640  178.2880  140.1520 C   0  0  0  0  0  2  0  0  0  0  0  0
  188.8970  178.9070  138.8610 N   0  0  0  0  0  2  0  0  0  0  0  0
  188.3820  179.0000  135.9310 C   0  0  0  0  0  1  0  0  0  0  0  0
  189.8110  178.3060  137.8990 C   0  0  2  0  0  3  0  0  0  0  0  0
  189.0540  177.8440  136.6460 C   0  0  1  0  0  3  0  0  0  0  0  0
  188.6070  175.6750  137.9360 C   0  0  0  0  0  2  0  0  0  0  0  0
  190.1330  175.7540  138.0550 C   0  0  0  0  0  2  0  0  0  0  0  0
  190.5640  177.1390  138.5690 C   0  0  0  0  0  2  0  0  0  0  0  0
  188.0440  176.7380  136.9660 C   0  0  0  0  0  2  0  0  0  0  0  0
  1 12  1  0  0  0  0
  1 10  2  0  0  0  0
  2  8  2  0  0  0  0
  2  6  1  0  0  0  0
  3 11  2  0  0  0  0
  3  8  1  0  0  0  0
  4 14  1  1  0  0  0
  4 17  1  0  0  0  0
  5 10  1  0  0  0  0
  6  5  2  0  0  0  0
  7 17  2  0  0  0  0
  7 13  1  0  0  0  0
  8  1  1  0  0  0  0
  9 16  1  0  0  0  0
  9  4  1  0  0  0  0
 11 18  1  0  0  0  0
 13  2  1  0  0  0  0
 14 15  1  0  0  0  0
 15 21  1  1  0  0  0
 15 11  1  0  0  0  0
 16 26  1  1  0  0  0
 16  7  1  0  0  0  0
 17  3  1  0  0  0  0
 18 12  2  0  0  0  0
 19 20  1  0  0  0  0
 20 22  2  0  0  0  0
 21 24  2  0  0  0  0
 23 19  2  0  0  0  0
 23 21  1  0  0  0  0
 24 22  1  0  0  0  0
 25 19  1  0  0  0  0
 27 26  1  0  0  0  0
 29 33  1  0  0  0  0
 29 27  1  1  0  0  0
 30 28  1  1  0  0  0
 30 34  1  0  0  0  0
 30 29  1  0  0  0  0
 31 32  1  0  0  0  0
 32 33  1  0  0  0  0
 34 31  1  0  0  0  0
M  END
>  <MODEL>
4

>  <REMARK>
 VINA RESULT:      -9.7      1.305      2.087
  Name = 
  4 active torsions:
  status: ('A' for Active; 'I' for Inactive)
    1  A    between atoms: N_3  and  C_13
    2  A    between atoms: N_3  and  C_17
    3  A    between atoms: C_12  and  C_28
    4  A    between atoms: C_17  and  C_29
                            x       y       z     vdW  Elec       q    Type
                         _______ _______ _______ _____ _____    ______ ____

>  <TORSDO>
F 4

$$$$
=
 OpenBabel10252414583D

 34 40  0  0  1  0  0  0  0  0999 V2000
  185.1770  178.8850  141.9060 C   0  0  0  0  0  0  0  0  0  0  0  0
  186.5380  177.6360  143.5110 C   0  0  0  0  0  0  0  0  0  0  0  0
  187.2720  177.8960  141.1790 C   0  0  0  0  0  0  0  0  0  0  0  0
  189.7020  177.3810  140.5260 C   0  0  1  0  0  3  0  0  0  0  0  0
  184.5440  178.8150  144.2390 C   0  0  0  0  0  3  0  0  0  0  0  0
  185.6490  178.0060  144.5230 C   0  0  0  0  0  3  0  0  0  0  0  0
  188.9340  176.7720  142.5980 C   0  0  0  0  0  0  0  0  0  0  0  0
  186.3290  178.1170  142.1970 C   0  0  0  0  0  0  0  0  0  0  0  0
  190.6560  176.3860  141.0280 N   0  0  0  0  0  2  0  0  0  0  0  0
  184.2980  179.2390  142.9310 C   0  0  0  0  0  3  0  0  0  0  0  0
  187.0060  178.2780  139.8500 C   0  0  0  0  0  0  0  0  0  0  0  0
  184.9310  179.3120  140.5970 C   0  0  0  0  0  3  0  0  0  0  0  0
  187.7540  176.3460  143.8840 S   0  0  0  0  0  0  0  0  0  0  0  0
  189.1410  177.0140  139.1560 C   0  0  0  0  0  2  0  0  0  0  0  0
  188.0370  178.0180  138.7480 C   0  0  1  0  0  3  0  0  0  0  0  0
  190.2870  176.1710  142.4380 C   0  0  1  0  0  3  0  0  0  0  0  0
  188.5960  177.3720  141.4920 C   0  0  0  0  0  0  0  0  0  0  0  0
  185.8340  179.0030  139.5760 C   0  0  0  0  0  3  0  0  0  0  0  0
  186.2450  175.9310  136.1090 C   0  0  0  0  0  0  0  0  0  0  0  0
  186.2270  176.8230  135.0330 C   0  0  0  0  0  3  0  0  0  0  0  0
  187.4090  177.5870  137.4570 C   0  0  0  0  0  0  0  0  0  0  0  0
  186.8050  178.0940  135.1630 C   0  0  0  0  0  3  0  0  0  0  0  0
  186.8360  176.3090  137.3200 C   0  0  0  0  0  3  0  0  0  0  0  0
  187.3960  178.4760  136.3720 C   0  0  0  0  0  3  0  0  0  0  0  0
  185.6830  174.6980  135.9840 F   0  0  0  0  0  0  0  0  0  0  0  0
  191.2850  176.8820  143.3410 C   0  0  0  0  0  2  0  0  0  0  0  0
  191.3030  176.2510  144.6530 N   0  0  0  0  0  2  0  0  0  0  0  0
  192.4300  175.7100  147.3540 C   0  0  0  0  0  1  0  0  0  0  0  0
  191.4870  177.3100  145.6370 C   0  0  2  0  0  3  0  0  0  0  0  0
  191.3690  176.7520  147.0620 C   0  0  1  0  0  3  0  0  0  0  0  0
  188.8440  177.1090  146.7980 C   0  0  0  0  0  2  0  0  0  0  0  0
  189.3560  178.5100  146.4480 C   0  0  0  0  0  2  0  0  0  0  0  0
  190.4610  178.4310  145.3790 C   0  0  0  0  0  2  0  0  0  0  0  0
  189.9670  176.2000  147.3430 C   0  0  0  0  0  2  0  0  0  0  0  0
  1  8  1  0  0  0  0
  1 10  2  0  0  0  0
  2 13  1  0  0  0  0
  2  6  1  0  0  0  0
  3 17  1  0  0  0  0
  3  8  1  0  0  0  0
  4 14  1  6  0  0  0
  4  9  1  0  0  0  0
  4 17  1  0  0  0  0
  5  6  2  0  0  0  0
  7 13  1  0  0  0  0
  8  2  2  0  0  0  0
  9 16  1  0  0  0  0
 10  5  1  0  0  0  0
 11  3  2  0  0  0  0
 12  1  1  0  0  0  0
 15 21  1  6  0  0  0
 15 14  1  0  0  0  0
 15 11  1  0  0  0  0
 16  7  1  0  0  0  0
 16 26  1  1  0  0  0
 17  7  2  0  0  0  0
 18 11  1  0  0  0  0
 18 12  2  0  0  0  0
 19 23  1  0  0  0  0
 20 22  1  0  0  0  0
 20 19  2  0  0  0  0
 22 24  2  0  0  0  0
 23 21  2  0  0  0  0
 24 21  1  0  0  0  0
 25 19  1  0  0  0  0
 26 27  1  0  0  0  0
 29 27  1  6  0  0  0
 29 30  1  0  0  0  0
 30 34  1  0  0  0  0
 30 28  1  6  0  0  0
 31 34  1  0  0  0  0
 32 31  1  0  0  0  0
 33 29  1  0  0  0  0
 33 32  1  0  0  0  0
M  END
>  <MODEL>
5

>  <REMARK>
 VINA RESULT:      -9.6      3.214      6.480
  Name = 
  4 active torsions:
  status: ('A' for Active; 'I' for Inactive)
    1  A    between atoms: N_3  and  C_13
    2  A    between atoms: N_3  and  C_17
    3  A    between atoms: C_12  and  C_28
    4  A    between atoms: C_17  and  C_29
                            x       y       z     vdW  Elec       q    Type
                         _______ _______ _______ _____ _____    ______ ____

>  <TORSDO>
F 4

$$$$
=
 OpenBabel10252414583D

 34 40  0  0  1  0  0  0  0  0999 V2000
  186.1240  178.4580  138.5760 C   0  0  0  0  0  0  0  0  0  0  0  0
  186.4250  178.4240  141.0040 C   0  0  0  0  0  0  0  0  0  0  0  0
  188.2550  177.7560  139.5050 C   0  0  0  0  0  0  0  0  0  0  0  0
  190.6550  177.5710  140.4000 C   0  0  1  0  0  3  0  0  0  0  0  0
  184.3880  179.3150  140.0270 C   0  0  0  0  0  3  0  0  0  0  0  0
  185.1600  179.0000  141.1500 C   0  0  0  0  0  3  0  0  0  0  0  0
  188.9140  177.8140  141.8710 C   0  0  0  0  0  0  0  0  0  0  0  0
  186.9340  178.1930  139.7050 C   0  0  0  0  0  0  0  0  0  0  0  0
  191.1780  177.1620  141.7080 N   0  0  0  0  0  2  0  0  0  0  0  0
  184.8610  179.0290  138.7430 C   0  0  0  0  0  3  0  0  0  0  0  0
  188.7190  177.4200  138.2180 C   0  0  0  0  0  0  0  0  0  0  0  0
  186.5970  178.1750  137.2910 C   0  0  0  0  0  3  0  0  0  0  0  0
  187.2270  177.7620  142.4870 S   0  0  0  0  0  0  0  0  0  0  0  0
  190.8560  176.5050  139.3280 C   0  0  0  0  0  2  0  0  0  0  0  0
  190.1560  176.9310  138.0170 C   0  0  1  0  0  3  0  0  0  0  0  0
  190.1340  177.5340  142.6780 C   0  0  1  0  0  3  0  0  0  0  0  0
  189.2110  177.7510  140.6050 C   0  0  0  0  0  0  0  0  0  0  0  0
  187.8810  177.6510  137.1140 C   0  0  0  0  0  3  0  0  0  0  0  0
  189.6720  173.6010  136.2260 C   0  0  0  0  0  0  0  0  0  0  0  0
  190.4530  173.7990  135.0820 C   0  0  0  0  0  3  0  0  0  0  0  0
  190.2560  175.8290  137.0060 C   0  0  0  0  0  0  0  0  0  0  0  0
  191.1420  175.0060  134.9020 C   0  0  0  0  0  3  0  0  0  0  0  0
  189.5740  174.6120  137.1880 C   0  0  0  0  0  3  0  0  0  0  0  0
  191.0450  176.0200  135.8620 C   0  0  0  0  0  3  0  0  0  0  0  0
  189.0020  172.4300  136.4010 F   0  0  0  0  0  0  0  0  0  0  0  0
  190.5600  178.7840  143.4330 C   0  0  0  0  0  2  0  0  0  0  0  0
  190.3260  178.6060  144.8590 N   0  0  0  0  0  2  0  0  0  0  0  0
  187.8010  177.4580  145.9400 C   0  0  0  0  0  1  0  0  0  0  0  0
  190.1680  177.1770  145.0930 C   0  0  2  0  0  3  0  0  0  0  0  0
  189.1860  176.9200  146.2440 C   0  0  1  0  0  3  0  0  0  0  0  0
  191.2120  177.1930  147.7910 C   0  0  0  0  0  2  0  0  0  0  0  0
  191.7390  176.1150  146.8370 C   0  0  0  0  0  2  0  0  0  0  0  0
  191.5480  176.5490  145.3730 C   0  0  0  0  0  2  0  0  0  0  0  0
  189.7090  177.4770  147.5730 C   0  0  0  0  0  2  0  0  0  0  0  0
  1 10  2  0  0  0  0
  1  8  1  0  0  0  0
  2  6  1  0  0  0  0
  2 13  1  0  0  0  0
  3  8  1  0  0  0  0
  3 17  1  0  0  0  0
  4 14  1  6  0  0  0
  4 17  1  0  0  0  0
  4  9  1  0  0  0  0
  5  6  2  0  0  0  0
  7 13  1  0  0  0  0
  7 16  1  0  0  0  0
  8  2  2  0  0  0  0
  9 16  1  0  0  0  0
 10  5  1  0  0  0  0
 11  3  2  0  0  0  0
 12  1  1  0  0  0  0
 15 21  1  6  0  0  0
 15 11  1  0  0  0  0
 15 14  1  0  0  0  0
 16 26  1  6  0  0  0
 17  7  2  0  0  0  0
 18 12  2  0  0  0  0
 18 11  1  0  0  0  0
 19 25  1  0  0  0  0
 19 23  1  0  0  0  0
 20 19  2  0  0  0  0
 21 23  2  0  0  0  0
 22 20  1  0  0  0  0
 22 24  2  0  0  0  0
 24 21  1  0  0  0  0
 26 27  1  0  0  0  0
 29 27  1  1  0  0  0
 29 33  1  0  0  0  0
 29 30  1  0  0  0  0
 30 28  1  6  0  0  0
 30 34  1  0  0  0  0
 32 31  1  0  0  0  0
 33 32  1  0  0  0  0
 34 31  1  0  0  0  0
M  END
>  <MODEL>
6

>  <REMARK>
 VINA RESULT:      -9.6      3.541      8.163
  Name = 
  4 active torsions:
  status: ('A' for Active; 'I' for Inactive)
    1  A    between atoms: N_3  and  C_13
    2  A    between atoms: N_3  and  C_17
    3  A    between atoms: C_12  and  C_28
    4  A    between atoms: C_17  and  C_29
                            x       y       z     vdW  Elec       q    Type
                         _______ _______ _______ _____ _____    ______ ____

>  <TORSDO>
F 4

$$$$
=
 OpenBabel10252414583D

 34 40  0  0  1  0  0  0  0  0999 V2000
  185.5960  178.2530  139.4210 C   0  0  0  0  0  0  0  0  0  0  0  0
  183.3650  177.4750  138.7820 C   0  0  0  0  0  0  0  0  0  0  0  0
  183.7880  178.3510  141.0400 C   0  0  0  0  0  0  0  0  0  0  0  0
  181.8240  179.0030  142.5610 C   0  0  1  0  0  3  0  0  0  0  0  0
  185.1480  177.5900  137.1380 C   0  0  0  0  0  3  0  0  0  0  0  0
  183.8250  177.2880  137.4760 C   0  0  0  0  0  3  0  0  0  0  0  0
  181.4210  177.8370  140.6290 C   0  0  0  0  0  0  0  0  0  0  0  0
  184.2430  178.0070  139.7550 C   0  0  0  0  0  0  0  0  0  0  0  0
  180.4780  178.4400  142.7090 N   0  0  0  0  0  2  0  0  0  0  0  0
  186.0370  178.0550  138.1110 C   0  0  0  0  0  3  0  0  0  0  0  0
  184.6890  178.7730  142.0380 C   0  0  0  0  0  0  0  0  0  0  0  0
  186.4850  178.7210  140.3930 C   0  0  0  0  0  3  0  0  0  0  0  0
  181.7520  176.7760  139.2180 S   0  0  0  0  0  0  0  0  0  0  0  0
  182.7430  178.6360  143.7220 C   0  0  0  0  0  2  0  0  0  0  0  0
  184.1810  179.1310  143.4370 C   0  0  1  0  0  3  0  0  0  0  0  0
  180.1390  177.8900  141.3840 C   0  0  1  0  0  3  0  0  0  0  0  0
  182.3620  178.3920  141.3380 C   0  0  0  0  0  0  0  0  0  0  0  0
  186.0370  178.9690  141.6940 C   0  0  0  0  0  3  0  0  0  0  0  0
  187.1000  177.4860  145.2560 C   0  0  0  0  0  0  0  0  0  0  0  0
  186.8150  177.8310  146.5820 C   0  0  0  0  0  3  0  0  0  0  0  0
  185.1030  178.6660  144.5240 C   0  0  0  0  0  0  0  0  0  0  0  0
  185.6720  178.5860  146.8810 C   0  0  0  0  0  3  0  0  0  0  0  0
  186.2460  177.9000  144.2280 C   0  0  0  0  0  3  0  0  0  0  0  0
  184.8160  179.0030  145.8550 C   0  0  0  0  0  3  0  0  0  0  0  0
  188.2090  176.7550  144.9650 F   0  0  0  0  0  0  0  0  0  0  0  0
  179.1560  178.8160  140.6830 C   0  0  0  0  0  2  0  0  0  0  0  0
  179.2470  178.6360  139.2420 N   0  0  0  0  0  2  0  0  0  0  0  0
  178.9490  178.9530  136.2970 C   0  0  0  0  0  1  0  0  0  0  0  0
  178.9870  179.9320  138.6300 C   0  0  2  0  0  3  0  0  0  0  0  0
  179.5730  179.9890  137.2110 C   0  0  1  0  0  3  0  0  0  0  0  0
  181.7630  180.6940  138.3410 C   0  0  0  0  0  2  0  0  0  0  0  0
  180.8040  181.7330  138.9320 C   0  0  0  0  0  2  0  0  0  0  0  0
  179.5610  181.0460  139.5260 C   0  0  0  0  0  2  0  0  0  0  0  0
  181.1000  179.8620  137.2210 C   0  0  0  0  0  2  0  0  0  0  0  0
  1  8  2  0  0  0  0
  1 12  1  0  0  0  0
  2 13  1  0  0  0  0
  2  8  1  0  0  0  0
  3 17  1  0  0  0  0
  3 11  2  0  0  0  0
  4  9  1  0  0  0  0
  4 14  1  1  0  0  0
  5  6  1  0  0  0  0
  5 10  2  0  0  0  0
  6  2  2  0  0  0  0
  7 17  2  0  0  0  0
  7 16  1  0  0  0  0
  8  3  1  0  0  0  0
 10  1  1  0  0  0  0
 11 15  1  0  0  0  0
 12 18  2  0  0  0  0
 13  7  1  0  0  0  0
 15 14  1  0  0  0  0
 15 21  1  1  0  0  0
 16 26  1  6  0  0  0
 16  9  1  0  0  0  0
 17  4  1  0  0  0  0
 18 11  1  0  0  0  0
 19 20  1  0  0  0  0
 20 22  2  0  0  0  0
 21 24  2  0  0  0  0
 23 21  1  0  0  0  0
 23 19  2  0  0  0  0
 24 22  1  0  0  0  0
 25 19  1  0  0  0  0
 27 26  1  0  0  0  0
 29 27  1  1  0  0  0
 29 33  1  0  0  0  0
 30 28  1  6  0  0  0
 30 34  1  0  0  0  0
 30 29  1  0  0  0  0
 31 32  1  0  0  0  0
 32 33  1  0  0  0  0
 34 31  1  0  0  0  0
M  END
>  <MODEL>
7

>  <REMARK>
 VINA RESULT:      -9.5      3.955      8.179
  Name = 
  4 active torsions:
  status: ('A' for Active; 'I' for Inactive)
    1  A    between atoms: N_3  and  C_13
    2  A    between atoms: N_3  and  C_17
    3  A    between atoms: C_12  and  C_28
    4  A    between atoms: C_17  and  C_29
                            x       y       z     vdW  Elec       q    Type
                         _______ _______ _______ _____ _____    ______ ____

>  <TORSDO>
F 4

$$$$
=
 OpenBabel10252414583D

 34 40  0  0  1  0  0  0  0  0999 V2000
  184.3620  178.7560  141.5070 C   0  0  0  0  0  0  0  0  0  0  0  0
  185.7380  178.1490  143.4380 C   0  0  0  0  0  0  0  0  0  0  0  0
  186.7190  178.2700  141.1870 C   0  0  0  0  0  0  0  0  0  0  0  0
  189.2700  178.3340  140.8930 C   0  0  1  0  0  3  0  0  0  0  0  0
  183.4310  178.8450  143.7380 C   0  0  0  0  0  3  0  0  0  0  0  0
  184.6470  178.4060  144.2720 C   0  0  0  0  0  3  0  0  0  0  0  0
  188.3800  177.8360  142.9450 C   0  0  0  0  0  0  0  0  0  0  0  0
  185.6120  178.3700  142.0470 C   0  0  0  0  0  0  0  0  0  0  0  0
  190.3550  177.7090  141.6560 N   0  0  0  0  0  2  0  0  0  0  0  0
  183.2820  179.0020  142.3580 C   0  0  0  0  0  3  0  0  0  0  0  0
  186.5650  178.3790  139.7910 C   0  0  0  0  0  0  0  0  0  0  0  0
  184.2130  178.9170  140.1260 C   0  0  0  0  0  3  0  0  0  0  0  0
  187.1650  177.2940  144.1530 S   0  0  0  0  0  0  0  0  0  0  0  0
  189.0230  177.6460  139.5540 C   0  0  0  0  0  2  0  0  0  0  0  0
  187.7780  178.2530  138.8660 C   0  0  1  0  0  3  0  0  0  0  0  0
  189.8470  177.6010  143.0350 C   0  0  1  0  0  3  0  0  0  0  0  0
  188.0700  178.1660  141.7240 C   0  0  0  0  0  0  0  0  0  0  0  0
  185.3030  178.7200  139.2740 C   0  0  0  0  0  3  0  0  0  0  0  0
  187.1670  175.4010  136.4120 C   0  0  0  0  0  0  0  0  0  0  0  0
  186.8750  176.1140  135.2440 C   0  0  0  0  0  3  0  0  0  0  0  0
  187.4720  177.4960  137.6090 C   0  0  0  0  0  0  0  0  0  0  0  0
  186.8890  177.5160  135.2540 C   0  0  0  0  0  3  0  0  0  0  0  0
  187.4660  176.0880  137.5930 C   0  0  0  0  0  3  0  0  0  0  0  0
  187.1870  178.2060  136.4340 C   0  0  0  0  0  3  0  0  0  0  0  0
  187.1520  174.0410  136.4030 F   0  0  0  0  0  0  0  0  0  0  0  0
  190.4960  178.6700  143.9030 C   0  0  0  0  0  2  0  0  0  0  0  0
  191.2710  178.0430  144.9640 N   0  0  0  0  0  2  0  0  0  0  0  0
  189.0240  177.7600  146.8970 C   0  0  0  0  0  1  0  0  0  0  0  0
  190.6530  176.7530  145.2430 C   0  0  2  0  0  3  0  0  0  0  0  0
  190.1000  176.7140  146.6750 C   0  0  1  0  0  3  0  0  0  0  0  0
  192.4610  176.0030  147.3730 C   0  0  0  0  0  2  0  0  0  0  0  0
  192.1680  174.9540  146.2940 C   0  0  0  0  0  2  0  0  0  0  0  0
  191.6800  175.6300  145.0010 C   0  0  0  0  0  2  0  0  0  0  0  0
  191.2140  176.8460  147.7180 C   0  0  0  0  0  2  0  0  0  0  0  0
  1  8  1  0  0  0  0
  1 10  2  0  0  0  0
  2 13  1  0  0  0  0
  2  6  1  0  0  0  0
  3 17  1  0  0  0  0
  3  8  1  0  0  0  0
  4 14  1  6  0  0  0
  4  9  1  0  0  0  0
  4 17  1  0  0  0  0
  5  6  2  0  0  0  0
  7 16  1  0  0  0  0
  7 13  1  0  0  0  0
  8  2  2  0  0  0  0
  9 16  1  0  0  0  0
 10  5  1  0  0  0  0
 11  3  2  0  0  0  0
 12  1  1  0  0  0  0
 15 21  1  6  0  0  0
 15 14  1  0  0  0  0
 15 11  1  0  0  0  0
 16 26  1  1  0  0  0
 17  7  2  0  0  0  0
 18 11  1  0  0  0  0
 18 12  2  0  0  0  0
 19 23  1  0  0  0  0
 20 22  1  0  0  0  0
 20 19  2  0  0  0  0
 22 24  2  0  0  0  0
 23 21  2  0  0  0  0
 24 21  1  0  0  0  0
 25 19  1  0  0  0  0
 26 27  1  0  0  0  0
 29 27  1  1  0  0  0
 29 30  1  0  0  0  0
 30 28  1  6  0  0  0
 30 34  1  0  0  0  0
 31 34  1  0  0  0  0
 32 31  1  0  0  0  0
 33 29  1  0  0  0  0
 33 32  1  0  0  0  0
M  END
>  <MODEL>
8

>  <REMARK>
 VINA RESULT:      -9.4      3.290      6.544
  Name = 
  4 active torsions:
  status: ('A' for Active; 'I' for Inactive)
    1  A    between atoms: N_3  and  C_13
    2  A    between atoms: N_3  and  C_17
    3  A    between atoms: C_12  and  C_28
    4  A    between atoms: C_17  and  C_29
                            x       y       z     vdW  Elec       q    Type
                         _______ _______ _______ _____ _____    ______ ____

>  <TORSDO>
F 4

$$$$
=
 OpenBabel10252414583D

 34 40  0  0  1  0  0  0  0  0999 V2000
  185.6970  177.9760  143.8160 C   0  0  0  0  0  0  0  0  0  0  0  0
  186.3820  178.5840  141.5470 C   0  0  0  0  0  0  0  0  0  0  0  0
  187.9430  177.4430  143.0650 C   0  0  0  0  0  0  0  0  0  0  0  0
  190.0830  176.3620  142.1420 C   0  0  1  0  0  3  0  0  0  0  0  0
  184.0870  178.9080  142.2700 C   0  0  0  0  0  3  0  0  0  0  0  0
  185.0770  179.0080  141.2860 C   0  0  0  0  0  3  0  0  0  0  0  0
  188.8430  177.7420  140.7980 C   0  0  0  0  0  0  0  0  0  0  0  0
  186.6880  178.0190  142.8070 C   0  0  0  0  0  0  0  0  0  0  0  0
  190.9690  176.7420  141.0370 N   0  0  0  0  0  2  0  0  0  0  0  0
  184.3990  178.4110  143.5370 C   0  0  0  0  0  3  0  0  0  0  0  0
  188.2790  176.9840  144.3540 C   0  0  0  0  0  0  0  0  0  0  0  0
  186.0080  177.4750  145.0840 C   0  0  0  0  0  3  0  0  0  0  0  0
  187.6690  179.0270  140.3510 S   0  0  0  0  0  0  0  0  0  0  0  0
  190.6910  176.6570  143.5100 C   0  0  0  0  0  2  0  0  0  0  0  0
  189.6570  176.3730  144.6240 C   0  0  1  0  0  3  0  0  0  0  0  0
  190.1040  177.4370  140.0680 C   0  0  1  0  0  3  0  0  0  0  0  0
  188.8870  177.1990  141.9810 C   0  0  0  0  0  0  0  0  0  0  0  0
  187.2920  176.9930  145.3540 C   0  0  0  0  0  3  0  0  0  0  0  0
  190.0010  177.9000  148.1000 C   0  0  0  0  0  0  0  0  0  0  0  0
  191.2960  177.4940  148.4410 C   0  0  0  0  0  3  0  0  0  0  0  0
  190.2180  176.7760  145.9540 C   0  0  0  0  0  0  0  0  0  0  0  0
  192.0550  176.7370  147.5380 C   0  0  0  0  0  3  0  0  0  0  0  0
  189.4620  177.5440  146.8590 C   0  0  0  0  0  3  0  0  0  0  0  0
  191.5190  176.3790  146.2970 C   0  0  0  0  0  3  0  0  0  0  0  0
  189.2620  178.6340  148.9760 F   0  0  0  0  0  0  0  0  0  0  0  0
  189.8170  176.5180  138.8890 C   0  0  0  0  0  2  0  0  0  0  0  0
  190.9320  175.6030  138.6920 N   0  0  0  0  0  2  0  0  0  0  0  0
  190.1510  174.6640  135.9770 C   0  0  0  0  0  1  0  0  0  0  0  0
  191.6390  176.0380  137.4950 C   0  0  2  0  0  3  0  0  0  0  0  0
  191.5760  174.9580  136.4050 C   0  0  1  0  0  3  0  0  0  0  0  0
  193.6380  173.9470  137.5440 C   0  0  0  0  0  2  0  0  0  0  0  0
  194.1250  175.3840  137.3230 C   0  0  0  0  0  2  0  0  0  0  0  0
  193.0940  176.3930  137.8590 C   0  0  0  0  0  2  0  0  0  0  0  0
  192.2940  173.6740  136.8360 C   0  0  0  0  0  2  0  0  0  0  0  0
  1 12  1  0  0  0  0
  2  8  1  0  0  0  0
  3 11  2  0  0  0  0
  4 14  1  1  0  0  0
  5 10  2  0  0  0  0
  6  2  2  0  0  0  0
  6  5  1  0  0  0  0
  7 17  2  0  0  0  0
  8  3  1  0  0  0  0
  8  1  2  0  0  0  0
  9  4  1  0  0  0  0
 10  1  1  0  0  0  0
 11 15  1  0  0  0  0
 11 18  1  0  0  0  0
 12 18  2  0  0  0  0
 13  7  1  0  0  0  0
 13  2  1  0  0  0  0
 14 15  1  0  0  0  0
 15 21  1  1  0  0  0
 16 26  1  6  0  0  0
 16  7  1  0  0  0  0
 16  9  1  0  0  0  0
 17  4  1  0  0  0  0
 17  3  1  0  0  0  0
 19 20  1  0  0  0  0
 19 25  1  0  0  0  0
 21 24  2  0  0  0  0
 21 23  1  0  0  0  0
 22 20  2  0  0  0  0
 23 19  2  0  0  0  0
 24 22  1  0  0  0  0
 27 26  1  0  0  0  0
 29 33  1  0  0  0  0
 29 27  1  1  0  0  0
 30 28  1  1  0  0  0
 30 34  1  0  0  0  0
 30 29  1  0  0  0  0
 32 31  1  0  0  0  0
 32 33  1  0  0  0  0
 34 31  1  0  0  0  0
M  END
>  <MODEL>
9

>  <REMARK>
 VINA RESULT:      -9.2      2.750      6.152
  Name = 
  4 active torsions:
  status: ('A' for Active; 'I' for Inactive)
    1  A    between atoms: N_3  and  C_13
    2  A    between atoms: N_3  and  C_17
    3  A    between atoms: C_12  and  C_28
    4  A    between atoms: C_17  and  C_29
                            x       y       z     vdW  Elec       q    Type
                         _______ _______ _______ _____ _____    ______ ____

>  <TORSDO>
F 4

$$$$
