=
 OpenBabel10262421313D

 32 37  0  0  1  0  0  0  0  0999 V2000
  188.5400  177.4500  146.9740 C   0  0  0  0  0  0  0  0  0  0  0  0
  190.9710  177.6680  144.6620 C   0  0  0  0  0  3  0  0  0  0  0  0
  189.2300  176.9820  139.8280 C   0  0  0  0  0  0  0  0  0  0  0  0
  193.4530  176.3890  137.5510 C   0  0  0  0  0  3  0  0  0  0  0  0
  192.7710  176.1290  136.4030 N   0  0  0  0  0  0  0  0  0  0  0  0
  189.1250  177.5240  142.1390 C   0  0  0  0  0  0  0  0  0  0  0  0
  191.2460  177.2530  141.0640 N   0  0  0  0  0  0  0  0  0  0  0  0
  189.5960  176.9190  146.4750 N   0  0  0  0  0  0  0  0  0  0  0  0
  191.3320  177.8750  143.3980 C   0  0  0  0  0  3  0  0  0  0  0  0
  192.7620  176.6740  138.7280 C   0  0  0  0  0  3  0  0  0  0  0  0
  190.6310  176.9750  139.8850 C   0  0  0  0  0  0  0  0  0  0  0  0
  191.3620  176.6900  138.7210 C   0  0  0  0  0  0  0  0  0  0  0  0
  189.2630  176.4310  137.5140 C   0  0  0  0  0  0  0  0  0  0  0  0
  187.3760  178.1840  145.8310 S   0  0  0  0  0  0  0  0  0  0  0  0
  188.5220  177.7040  144.5540 C   0  0  0  0  0  0  0  0  0  0  0  0
  188.3130  177.4750  148.4450 C   0  0  0  0  0  1  0  0  0  0  0  0
  190.5460  177.5160  142.2000 C   0  0  0  0  0  0  0  0  0  0  0  0
  188.2440  177.8890  143.2670 C   0  0  0  0  0  3  0  0  0  0  0  0
  189.7150  176.9620  145.0440 C   0  0  1  0  0  3  0  0  0  0  0  0
  191.4120  176.1360  136.3640 C   0  0  0  0  0  3  0  0  0  0  0  0
  190.6710  176.4140  137.5200 C   0  0  0  0  0  0  0  0  0  0  0  0
  188.5200  177.2680  140.9480 N   0  0  0  0  0  0  0  0  0  0  0  0
  188.5870  176.7160  138.6610 N   0  0  0  0  0  0  0  0  0  0  0  0
  188.4830  176.1280  136.2720 C   0  0  0  0  0  2  0  0  0  0  0  0
  186.0310  175.7330  136.7230 N   0  0  0  0  0  0  0  0  0  0  0  0
  187.2860  173.9330  136.8700 C   0  0  0  0  0  0  0  0  0  0  0  0
  185.9700  173.6050  137.1480 C   0  0  0  0  0  3  0  0  0  0  0  0
  185.2290  174.7300  137.0460 N   0  0  0  0  0  0  0  0  0  0  0  0
  188.4460  173.0010  136.8680 C   0  0  0  0  0  1  0  0  0  0  0  0
  187.2910  175.2820  136.5950 C   0  0  0  0  0  0  0  0  0  0  0  0
  185.5700  177.0950  136.5000 C   0  0  0  0  0  2  0  0  0  0  0  0
  185.2340  177.7500  137.8260 C   0  0  0  0  0  1  0  0  0  0  0  0
  1 16  1  0  0  0  0
  3 11  1  0  0  0  0
  3 22  2  0  0  0  0
  4 10  1  0  0  0  0
  5  4  2  0  0  0  0
  6 17  2  0  0  0  0
  6 18  1  0  0  0  0
  7 17  1  0  0  0  0
  8  1  2  0  0  0  0
  9  2  2  0  0  0  0
 11  7  2  0  0  0  0
 12 10  2  0  0  0  0
 12 11  1  0  0  0  0
 13 21  1  0  0  0  0
 13 23  2  0  0  0  0
 14  1  1  0  0  0  0
 15 19  1  0  0  0  0
 15 14  1  0  0  0  0
 17  9  1  0  0  0  0
 18 15  2  0  0  0  0
 19  2  1  1  0  0  0
 19  8  1  0  0  0  0
 20  5  1  0  0  0  0
 20 21  2  0  0  0  0
 21 12  1  0  0  0  0
 22  6  1  0  0  0  0
 23  3  1  0  0  0  0
 24 30  1  0  0  0  0
 24 13  1  0  0  0  0
 25 28  1  0  0  0  0
 26 27  1  0  0  0  0
 28 27  2  0  0  0  0
 29 26  1  0  0  0  0
 30 25  1  0  0  0  0
 30 26  2  0  0  0  0
 31 25  1  0  0  0  0
 31 32  1  0  0  0  0
M  END
>  <MODEL>
1

>  <REMARK>
 VINA RESULT:      -8.6      0.000      0.000
  Name = 
  3 active torsions:
  status: ('A' for Active; 'I' for Inactive)
    1  A    between atoms: C_6  and  N_7
    2  A    between atoms: C_16  and  C_27
    3  A    between atoms: C_27  and  C_32
                            x       y       z     vdW  Elec       q    Type
                         _______ _______ _______ _____ _____    ______ ____

>  <TORSDO>
F 3

$$$$
=
 OpenBabel10262421313D

 32 37  0  0  1  0  0  0  0  0999 V2000
  191.3910  176.4170  146.2890 C   0  0  0  0  0  0  0  0  0  0  0  0
  191.9470  176.9410  143.0160 C   0  0  0  0  0  3  0  0  0  0  0  0
  187.6360  178.1480  140.4020 C   0  0  0  0  0  0  0  0  0  0  0  0
  189.2750  177.5960  135.8870 C   0  0  0  0  0  3  0  0  0  0  0  0
  188.0190  177.8380  135.4270 N   0  0  0  0  0  0  0  0  0  0  0  0
  189.0700  177.9320  142.2840 C   0  0  0  0  0  0  0  0  0  0  0  0
  189.9420  177.6570  140.0720 N   0  0  0  0  0  0  0  0  0  0  0  0
  191.7140  175.9010  145.1610 N   0  0  0  0  0  0  0  0  0  0  0  0
  191.5580  177.4760  141.8600 C   0  0  0  0  0  3  0  0  0  0  0  0
  189.5340  177.6040  137.2580 C   0  0  0  0  0  3  0  0  0  0  0  0
  188.7100  177.8810  139.5420 C   0  0  0  0  0  0  0  0  0  0  0  0
  188.4900  177.8620  138.1560 C   0  0  0  0  0  0  0  0  0  0  0  0
  186.1430  178.3690  138.5620 C   0  0  0  0  0  0  0  0  0  0  0  0
  190.1110  177.6670  146.2810 S   0  0  0  0  0  0  0  0  0  0  0  0
  190.0710  177.4310  144.5150 C   0  0  0  0  0  0  0  0  0  0  0  0
  192.0780  176.0100  147.5460 C   0  0  0  0  0  1  0  0  0  0  0  0
  190.1620  177.6600  141.4150 C   0  0  0  0  0  0  0  0  0  0  0  0
  189.1850  178.0630  143.7510 C   0  0  0  0  0  3  0  0  0  0  0  0
  190.9930  176.3770  144.0120 C   0  0  1  0  0  3  0  0  0  0  0  0
  186.9850  178.0920  136.2730 C   0  0  0  0  0  3  0  0  0  0  0  0
  187.1910  178.1080  137.6580 C   0  0  0  0  0  0  0  0  0  0  0  0
  187.8470  178.1780  141.7420 N   0  0  0  0  0  0  0  0  0  0  0  0
  186.3960  178.3840  139.9000 N   0  0  0  0  0  0  0  0  0  0  0  0
  184.7450  178.6180  138.0880 C   0  0  0  0  0  2  0  0  0  0  0  0
  183.0360  177.6170  139.6530 N   0  0  0  0  0  0  0  0  0  0  0  0
  183.6810  176.2780  138.0310 C   0  0  0  0  0  0  0  0  0  0  0  0
  182.7600  175.6260  138.8320 C   0  0  0  0  0  3  0  0  0  0  0  0
  182.3840  176.4760  139.8120 N   0  0  0  0  0  0  0  0  0  0  0  0
  184.3610  175.7180  136.8320 C   0  0  0  0  0  1  0  0  0  0  0  0
  183.8280  177.5370  138.5690 C   0  0  0  0  0  0  0  0  0  0  0  0
  182.8580  178.7750  140.5140 C   0  0  0  0  0  2  0  0  0  0  0  0
  183.5340  178.5350  141.8500 C   0  0  0  0  0  1  0  0  0  0  0  0
  1 16  1  0  0  0  0
  3 22  2  0  0  0  0
  4 10  1  0  0  0  0
  5  4  2  0  0  0  0
  5 20  1  0  0  0  0
  6 18  1  0  0  0  0
  7 17  1  0  0  0  0
  8  1  2  0  0  0  0
  9  2  2  0  0  0  0
 10 12  2  0  0  0  0
 11  7  2  0  0  0  0
 11  3  1  0  0  0  0
 12 11  1  0  0  0  0
 13 23  2  0  0  0  0
 14  1  1  0  0  0  0
 15 14  1  0  0  0  0
 17  9  1  0  0  0  0
 17  6  2  0  0  0  0
 18 15  2  0  0  0  0
 19  2  1  6  0  0  0
 19 15  1  0  0  0  0
 19  8  1  0  0  0  0
 20 21  2  0  0  0  0
 21 12  1  0  0  0  0
 21 13  1  0  0  0  0
 22  6  1  0  0  0  0
 23  3  1  0  0  0  0
 24 13  1  0  0  0  0
 24 30  1  0  0  0  0
 25 28  1  0  0  0  0
 25 31  1  0  0  0  0
 26 30  2  0  0  0  0
 26 27  1  0  0  0  0
 27 28  2  0  0  0  0
 29 26  1  0  0  0  0
 30 25  1  0  0  0  0
 31 32  1  0  0  0  0
M  END
>  <MODEL>
2

>  <REMARK>
 VINA RESULT:      -8.4      2.585      3.514
  Name = 
  3 active torsions:
  status: ('A' for Active; 'I' for Inactive)
    1  A    between atoms: C_6  and  N_7
    2  A    between atoms: C_16  and  C_27
    3  A    between atoms: C_27  and  C_32
                            x       y       z     vdW  Elec       q    Type
                         _______ _______ _______ _____ _____    ______ ____

>  <TORSDO>
F 3

$$$$
=
 OpenBabel10262421313D

 32 37  0  0  1  0  0  0  0  0999 V2000
  192.2130  176.1530  136.4610 C   0  0  0  0  0  0  0  0  0  0  0  0
  189.6330  178.0200  137.5380 C   0  0  0  0  0  3  0  0  0  0  0  0
  188.4790  177.1870  142.5230 C   0  0  0  0  0  0  0  0  0  0  0  0
  184.1760  179.3840  142.7080 C   0  0  0  0  0  3  0  0  0  0  0  0
  184.0390  178.9570  143.9920 N   0  0  0  0  0  0  0  0  0  0  0  0
  189.8210  177.2380  140.5630 C   0  0  0  0  0  0  0  0  0  0  0  0
  187.7030  178.3530  140.5970 N   0  0  0  0  0  0  0  0  0  0  0  0
  190.9520  176.3790  136.3950 N   0  0  0  0  0  0  0  0  0  0  0  0
  188.9640  178.5730  138.5470 C   0  0  0  0  0  3  0  0  0  0  0  0
  185.3210  179.0620  141.9800 C   0  0  0  0  0  3  0  0  0  0  0  0
  187.4960  177.9530  141.8800 C   0  0  0  0  0  0  0  0  0  0  0  0
  186.3280  178.2960  142.5790 C   0  0  0  0  0  0  0  0  0  0  0  0
  187.1810  177.0890  144.5150 C   0  0  0  0  0  0  0  0  0  0  0  0
  192.9810  176.2690  138.0720 S   0  0  0  0  0  0  0  0  0  0  0  0
  191.3590  176.7010  138.6730 C   0  0  0  0  0  0  0  0  0  0  0  0
  193.0020  175.8350  135.2400 C   0  0  0  0  0  1  0  0  0  0  0  0
  188.8260  178.0140  139.9080 C   0  0  0  0  0  0  0  0  0  0  0  0
  191.1260  176.8830  139.9690 C   0  0  0  0  0  3  0  0  0  0  0  0
  190.2940  176.6870  137.6350 C   0  0  1  0  0  3  0  0  0  0  0  0
  184.9990  178.2110  144.6020 C   0  0  0  0  0  3  0  0  0  0  0  0
  186.1660  177.8590  143.9130 C   0  0  0  0  0  0  0  0  0  0  0  0
  189.6140  176.8630  141.8540 N   0  0  0  0  0  0  0  0  0  0  0  0
  188.3020  176.7800  143.8070 N   0  0  0  0  0  0  0  0  0  0  0  0
  187.0510  176.5850  145.9190 C   0  0  0  0  0  2  0  0  0  0  0  0
  189.1330  177.3020  147.1530 N   0  0  0  0  0  0  0  0  0  0  0  0
  187.3430  178.4910  147.6200 C   0  0  0  0  0  0  0  0  0  0  0  0
  188.4150  178.9590  148.3590 C   0  0  0  0  0  3  0  0  0  0  0  0
  189.4960  178.2110  148.0450 N   0  0  0  0  0  0  0  0  0  0  0  0
  185.9530  179.0210  147.6500 C   0  0  0  0  0  1  0  0  0  0  0  0
  187.8290  177.4510  146.8610 C   0  0  0  0  0  0  0  0  0  0  0  0
  190.0500  176.3380  146.5650 C   0  0  0  0  0  2  0  0  0  0  0  0
  191.3560  176.3300  147.3370 C   0  0  0  0  0  1  0  0  0  0  0  0
  1 14  1  0  0  0  0
  2  9  2  0  0  0  0
  3 23  1  0  0  0  0
  4  5  1  0  0  0  0
  5 20  2  0  0  0  0
  6 22  1  0  0  0  0
  7 11  2  0  0  0  0
  8  1  2  0  0  0  0
  8 19  1  0  0  0  0
  9 17  1  0  0  0  0
 10 12  1  0  0  0  0
 10  4  2  0  0  0  0
 11  3  1  0  0  0  0
 11 12  1  0  0  0  0
 12 21  2  0  0  0  0
 13 24  1  0  0  0  0
 14 15  1  0  0  0  0
 15 18  2  0  0  0  0
 16  1  1  0  0  0  0
 17  6  2  0  0  0  0
 17  7  1  0  0  0  0
 18  6  1  0  0  0  0
 19  2  1  6  0  0  0
 19 15  1  0  0  0  0
 21 13  1  0  0  0  0
 21 20  1  0  0  0  0
 22  3  2  0  0  0  0
 23 13  2  0  0  0  0
 24 30  1  0  0  0  0
 25 28  1  0  0  0  0
 26 29  1  0  0  0  0
 26 27  1  0  0  0  0
 28 27  2  0  0  0  0
 30 25  1  0  0  0  0
 30 26  2  0  0  0  0
 31 25  1  0  0  0  0
 31 32  1  0  0  0  0
M  END
>  <MODEL>
3

>  <REMARK>
 VINA RESULT:      -8.3      3.156      9.006
  Name = 
  3 active torsions:
  status: ('A' for Active; 'I' for Inactive)
    1  A    between atoms: C_6  and  N_7
    2  A    between atoms: C_16  and  C_27
    3  A    between atoms: C_27  and  C_32
                            x       y       z     vdW  Elec       q    Type
                         _______ _______ _______ _____ _____    ______ ____

>  <TORSDO>
F 3

$$$$
=
 OpenBabel10262421313D

 32 37  0  0  1  0  0  0  0  0999 V2000
  191.0520  177.2040  147.4380 C   0  0  0  0  0  0  0  0  0  0  0  0
  187.7050  177.2260  147.1370 C   0  0  0  0  0  3  0  0  0  0  0  0
  186.1170  178.2170  142.3030 C   0  0  0  0  0  0  0  0  0  0  0  0
  181.4440  179.0960  143.1770 C   0  0  0  0  0  3  0  0  0  0  0  0
  181.2840  179.4210  141.8660 N   0  0  0  0  0  0  0  0  0  0  0  0
  187.5940  177.5040  144.0220 C   0  0  0  0  0  0  0  0  0  0  0  0
  185.2880  177.9140  144.5140 N   0  0  0  0  0  0  0  0  0  0  0  0
  189.9540  177.8000  147.7280 N   0  0  0  0  0  0  0  0  0  0  0  0
  186.6250  177.1230  146.3660 C   0  0  0  0  0  3  0  0  0  0  0  0
  182.6940  178.7050  143.6560 C   0  0  0  0  0  3  0  0  0  0  0  0
  185.0570  178.2610  143.2200 C   0  0  0  0  0  0  0  0  0  0  0  0
  183.7840  178.6510  142.7770 C   0  0  0  0  0  0  0  0  0  0  0  0
  184.6940  178.9390  140.5370 C   0  0  0  0  0  0  0  0  0  0  0  0
  191.2050  176.5240  145.7910 S   0  0  0  0  0  0  0  0  0  0  0  0
  189.5490  177.1290  145.5260 C   0  0  0  0  0  0  0  0  0  0  0  0
  192.1390  177.0640  148.4460 C   0  0  0  0  0  1  0  0  0  0  0  0
  186.5220  177.5470  144.9540 C   0  0  0  0  0  0  0  0  0  0  0  0
  188.9570  177.0320  144.3400 C   0  0  0  0  0  3  0  0  0  0  0  0
  188.9710  177.8670  146.6810 C   0  0  1  0  0  3  0  0  0  0  0  0
  182.3210  179.3780  140.9890 C   0  0  0  0  0  3  0  0  0  0  0  0
  183.5980  178.9950  141.4200 C   0  0  0  0  0  0  0  0  0  0  0  0
  187.3470  177.8300  142.7250 N   0  0  0  0  0  0  0  0  0  0  0  0
  185.9140  178.5510  141.0020 N   0  0  0  0  0  0  0  0  0  0  0  0
  184.5560  179.3110  139.0930 C   0  0  0  0  0  2  0  0  0  0  0  0
  183.9730  177.1380  137.9490 N   0  0  0  0  0  0  0  0  0  0  0  0
  186.0310  177.8310  137.5960 C   0  0  0  0  0  0  0  0  0  0  0  0
  185.8260  176.6310  136.9370 C   0  0  0  0  0  3  0  0  0  0  0  0
  184.5550  176.2380  137.1720 N   0  0  0  0  0  0  0  0  0  0  0  0
  187.2890  178.6250  137.6130 C   0  0  0  0  0  1  0  0  0  0  0  0
  184.8390  178.1310  138.2180 C   0  0  0  0  0  0  0  0  0  0  0  0
  182.5880  177.0540  138.3830 C   0  0  0  0  0  2  0  0  0  0  0  0
  182.4500  176.0030  139.4680 C   0  0  0  0  0  1  0  0  0  0  0  0
  1  8  2  0  0  0  0
  1 16  1  0  0  0  0
  3 22  2  0  0  0  0
  3 11  1  0  0  0  0
  4 10  1  0  0  0  0
  5  4  2  0  0  0  0
  6 18  1  0  0  0  0
  6 17  2  0  0  0  0
  7 17  1  0  0  0  0
  9  2  2  0  0  0  0
 11  7  2  0  0  0  0
 12 11  1  0  0  0  0
 12 10  2  0  0  0  0
 13 23  2  0  0  0  0
 13 21  1  0  0  0  0
 14  1  1  0  0  0  0
 15 14  1  0  0  0  0
 15 19  1  0  0  0  0
 17  9  1  0  0  0  0
 18 15  2  0  0  0  0
 19  2  1  1  0  0  0
 19  8  1  0  0  0  0
 20 21  2  0  0  0  0
 20  5  1  0  0  0  0
 21 12  1  0  0  0  0
 22  6  1  0  0  0  0
 23  3  1  0  0  0  0
 24 13  1  0  0  0  0
 25 30  1  0  0  0  0
 25 31  1  0  0  0  0
 26 29  1  0  0  0  0
 26 30  2  0  0  0  0
 27 28  2  0  0  0  0
 27 26  1  0  0  0  0
 28 25  1  0  0  0  0
 30 24  1  0  0  0  0
 31 32  1  0  0  0  0
M  END
>  <MODEL>
4

>  <REMARK>
 VINA RESULT:      -8.0      3.497      6.101
  Name = 
  3 active torsions:
  status: ('A' for Active; 'I' for Inactive)
    1  A    between atoms: C_6  and  N_7
    2  A    between atoms: C_16  and  C_27
    3  A    between atoms: C_27  and  C_32
                            x       y       z     vdW  Elec       q    Type
                         _______ _______ _______ _____ _____    ______ ____

>  <TORSDO>
F 3

$$$$
=
 OpenBabel10262421313D

 32 37  0  0  1  0  0  0  0  0999 V2000
  191.1550  177.1850  147.4700 C   0  0  0  0  0  0  0  0  0  0  0  0
  187.8040  177.1840  147.2050 C   0  0  0  0  0  3  0  0  0  0  0  0
  186.1560  178.2310  142.4040 C   0  0  0  0  0  0  0  0  0  0  0  0
  181.4860  179.0600  143.3410 C   0  0  0  0  0  3  0  0  0  0  0  0
  181.3080  179.4020  142.0370 N   0  0  0  0  0  0  0  0  0  0  0  0
  187.6570  177.5050  144.0960 C   0  0  0  0  0  0  0  0  0  0  0  0
  185.3530  177.8900  144.6190 N   0  0  0  0  0  0  0  0  0  0  0  0
  190.0560  177.7680  147.7800 N   0  0  0  0  0  0  0  0  0  0  0  0
  186.7160  177.0840  146.4450 C   0  0  0  0  0  3  0  0  0  0  0  0
  182.7440  178.6730  143.8010 C   0  0  0  0  0  3  0  0  0  0  0  0
  185.1050  178.2530  143.3330 C   0  0  0  0  0  0  0  0  0  0  0  0
  183.8240  178.6390  142.9100 C   0  0  0  0  0  0  0  0  0  0  0  0
  184.7080  178.9660  140.6640 C   0  0  0  0  0  0  0  0  0  0  0  0
  191.2950  176.5300  145.8110 S   0  0  0  0  0  0  0  0  0  0  0  0
  189.6320  177.1250  145.5740 C   0  0  0  0  0  0  0  0  0  0  0  0
  192.2540  177.0390  148.4630 C   0  0  0  0  0  1  0  0  0  0  0  0
  186.5950  177.5270  145.0410 C   0  0  0  0  0  0  0  0  0  0  0  0
  189.0270  177.0390  144.3920 C   0  0  0  0  0  3  0  0  0  0  0  0
  189.0600  177.8420  146.7450 C   0  0  1  0  0  3  0  0  0  0  0  0
  182.3370  179.3800  141.1480 C   0  0  0  0  0  3  0  0  0  0  0  0
  183.6210  179.0010  141.5590 C   0  0  0  0  0  0  0  0  0  0  0  0
  187.3930  177.8480  142.8060 N   0  0  0  0  0  0  0  0  0  0  0  0
  185.9360  178.5810  141.1090 N   0  0  0  0  0  0  0  0  0  0  0  0
  184.5500  179.3570  139.2270 C   0  0  0  0  0  2  0  0  0  0  0  0
  185.7210  177.7060  137.7190 N   0  0  0  0  0  0  0  0  0  0  0  0
  183.5690  177.3360  137.9780 C   0  0  0  0  0  0  0  0  0  0  0  0
  184.1040  176.3850  137.1270 C   0  0  0  0  0  3  0  0  0  0  0  0
  185.4240  176.6400  136.9930 N   0  0  0  0  0  0  0  0  0  0  0  0
  182.1470  177.4380  138.4050 C   0  0  0  0  0  1  0  0  0  0  0  0
  184.6170  178.1500  138.3440 C   0  0  0  0  0  0  0  0  0  0  0  0
  187.0640  178.2530  137.8370 C   0  0  0  0  0  2  0  0  0  0  0  0
  187.5840  178.6430  136.4660 C   0  0  0  0  0  1  0  0  0  0  0  0
  1  8  2  0  0  0  0
  1 16  1  0  0  0  0
  3 22  2  0  0  0  0
  3 11  1  0  0  0  0
  4 10  1  0  0  0  0
  5  4  2  0  0  0  0
  6 18  1  0  0  0  0
  6 17  2  0  0  0  0
  7 17  1  0  0  0  0
  9  2  2  0  0  0  0
 11  7  2  0  0  0  0
 12 11  1  0  0  0  0
 12 10  2  0  0  0  0
 13 23  2  0  0  0  0
 13 21  1  0  0  0  0
 14  1  1  0  0  0  0
 15 14  1  0  0  0  0
 15 19  1  0  0  0  0
 17  9  1  0  0  0  0
 18 15  2  0  0  0  0
 19  2  1  1  0  0  0
 19  8  1  0  0  0  0
 20 21  2  0  0  0  0
 20  5  1  0  0  0  0
 21 12  1  0  0  0  0
 22  6  1  0  0  0  0
 23  3  1  0  0  0  0
 24 13  1  0  0  0  0
 25 31  1  0  0  0  0
 25 30  1  0  0  0  0
 26 30  2  0  0  0  0
 26 29  1  0  0  0  0
 27 26  1  0  0  0  0
 28 27  2  0  0  0  0
 28 25  1  0  0  0  0
 30 24  1  0  0  0  0
 32 31  1  0  0  0  0
M  END
>  <MODEL>
5

>  <REMARK>
 VINA RESULT:      -7.9      3.496      6.195
  Name = 
  3 active torsions:
  status: ('A' for Active; 'I' for Inactive)
    1  A    between atoms: C_6  and  N_7
    2  A    between atoms: C_16  and  C_27
    3  A    between atoms: C_27  and  C_32
                            x       y       z     vdW  Elec       q    Type
                         _______ _______ _______ _____ _____    ______ ____

>  <TORSDO>
F 3

$$$$
=
 OpenBabel10262421313D

 32 37  0  0  1  0  0  0  0  0999 V2000
  188.8050  178.2040  147.8480 C   0  0  0  0  0  0  0  0  0  0  0  0
  185.5250  178.4090  147.1430 C   0  0  0  0  0  3  0  0  0  0  0  0
  184.5440  178.3320  142.0540 C   0  0  0  0  0  0  0  0  0  0  0  0
  179.9220  179.7500  142.1250 C   0  0  0  0  0  3  0  0  0  0  0  0
  179.9290  179.7620  140.7650 N   0  0  0  0  0  0  0  0  0  0  0  0
  185.7580  177.9400  144.0580 C   0  0  0  0  0  0  0  0  0  0  0  0
  183.4690  178.6310  144.1570 N   0  0  0  0  0  0  0  0  0  0  0  0
  187.7510  178.9330  147.8570 N   0  0  0  0  0  0  0  0  0  0  0  0
  184.5230  178.2070  146.2900 C   0  0  0  0  0  3  0  0  0  0  0  0
  181.0710  179.3900  142.8300 C   0  0  0  0  0  3  0  0  0  0  0  0
  183.4070  178.6750  142.8000 C   0  0  0  0  0  0  0  0  0  0  0  0
  182.2320  179.0440  142.1270 C   0  0  0  0  0  0  0  0  0  0  0  0
  183.3890  178.7160  140.0090 C   0  0  0  0  0  0  0  0  0  0  0  0
  189.0520  177.1390  146.4320 S   0  0  0  0  0  0  0  0  0  0  0  0
  187.5030  177.7880  145.8360 C   0  0  0  0  0  0  0  0  0  0  0  0
  189.7650  178.2260  148.9870 C   0  0  0  0  0  1  0  0  0  0  0  0
  184.6080  178.2870  144.8170 C   0  0  0  0  0  0  0  0  0  0  0  0
  187.0260  177.4550  144.6400 C   0  0  0  0  0  3  0  0  0  0  0  0
  186.8900  178.8230  146.7110 C   0  0  1  0  0  3  0  0  0  0  0  0
  181.0400  179.4320  140.0540 C   0  0  0  0  0  3  0  0  0  0  0  0
  182.2200  179.0660  140.7140 C   0  0  0  0  0  0  0  0  0  0  0  0
  185.6780  177.9640  142.7000 N   0  0  0  0  0  0  0  0  0  0  0  0
  184.5080  178.3590  140.6960 N   0  0  0  0  0  0  0  0  0  0  0  0
  183.4350  178.7410  138.5130 C   0  0  0  0  0  2  0  0  0  0  0  0
  185.1990  177.2620  137.4770 N   0  0  0  0  0  0  0  0  0  0  0  0
  183.2820  176.2580  137.8680 C   0  0  0  0  0  0  0  0  0  0  0  0
  184.1650  175.3620  137.2900 C   0  0  0  0  0  3  0  0  0  0  0  0
  185.3300  176.0100  137.0680 N   0  0  0  0  0  0  0  0  0  0  0  0
  181.8800  175.9730  138.2790 C   0  0  0  0  0  1  0  0  0  0  0  0
  183.9670  177.4460  137.9830 C   0  0  0  0  0  0  0  0  0  0  0  0
  186.2690  178.2460  137.4180 C   0  0  0  0  0  2  0  0  0  0  0  0
  187.3390  177.9070  138.4390 C   0  0  0  0  0  1  0  0  0  0  0  0
  1  8  2  0  0  0  0
  1 16  1  0  0  0  0
  3 22  2  0  0  0  0
  3 11  1  0  0  0  0
  4 10  1  0  0  0  0
  5  4  2  0  0  0  0
  6 18  1  0  0  0  0
  6 17  2  0  0  0  0
  7 17  1  0  0  0  0
  9  2  2  0  0  0  0
 11  7  2  0  0  0  0
 12 11  1  0  0  0  0
 12 10  2  0  0  0  0
 13 23  2  0  0  0  0
 13 21  1  0  0  0  0
 14  1  1  0  0  0  0
 15 14  1  0  0  0  0
 15 19  1  0  0  0  0
 17  9  1  0  0  0  0
 18 15  2  0  0  0  0
 19  2  1  1  0  0  0
 19  8  1  0  0  0  0
 20 21  2  0  0  0  0
 20  5  1  0  0  0  0
 21 12  1  0  0  0  0
 22  6  1  0  0  0  0
 23  3  1  0  0  0  0
 24 13  1  0  0  0  0
 25 30  1  0  0  0  0
 26 30  2  0  0  0  0
 26 29  1  0  0  0  0
 27 26  1  0  0  0  0
 28 27  2  0  0  0  0
 28 25  1  0  0  0  0
 30 24  1  0  0  0  0
 31 25  1  0  0  0  0
 31 32  1  0  0  0  0
M  END
>  <MODEL>
6

>  <REMARK>
 VINA RESULT:      -7.7      3.842      6.796
  Name = 
  3 active torsions:
  status: ('A' for Active; 'I' for Inactive)
    1  A    between atoms: C_6  and  N_7
    2  A    between atoms: C_16  and  C_27
    3  A    between atoms: C_27  and  C_32
                            x       y       z     vdW  Elec       q    Type
                         _______ _______ _______ _____ _____    ______ ____

>  <TORSDO>
F 3

$$$$
=
 OpenBabel10262421313D

 32 37  0  0  1  0  0  0  0  0999 V2000
  189.5240  177.6940  147.0440 C   0  0  0  0  0  0  0  0  0  0  0  0
  187.7210  177.7380  144.2070 C   0  0  0  0  0  3  0  0  0  0  0  0
  190.5500  176.6690  139.9970 C   0  0  0  0  0  0  0  0  0  0  0  0
  187.4200  178.0450  136.5790 C   0  0  0  0  0  3  0  0  0  0  0  0
  188.3710  177.7930  135.6400 N   0  0  0  0  0  0  0  0  0  0  0  0
  189.9660  176.6810  142.3000 C   0  0  0  0  0  0  0  0  0  0  0  0
  188.3690  177.3640  140.6530 N   0  0  0  0  0  0  0  0  0  0  0  0
  188.8690  178.4050  146.2010 N   0  0  0  0  0  0  0  0  0  0  0  0
  187.5780  177.3680  142.9370 C   0  0  0  0  0  3  0  0  0  0  0  0
  187.6950  177.8360  137.9310 C   0  0  0  0  0  3  0  0  0  0  0  0
  189.2730  177.1430  139.6620 C   0  0  0  0  0  0  0  0  0  0  0  0
  188.9580  177.3670  138.3130 C   0  0  0  0  0  0  0  0  0  0  0  0
  191.2030  176.6420  137.7100 C   0  0  0  0  0  0  0  0  0  0  0  0
  190.5400  176.3760  146.3870 S   0  0  0  0  0  0  0  0  0  0  0  0
  189.9450  176.8870  144.7870 C   0  0  0  0  0  0  0  0  0  0  0  0
  189.4150  177.9420  148.5080 C   0  0  0  0  0  1  0  0  0  0  0  0
  188.6710  177.1620  141.9640 C   0  0  0  0  0  0  0  0  0  0  0  0
  190.3940  176.3260  143.6690 C   0  0  0  0  0  3  0  0  0  0  0  0
  189.0410  178.0690  144.8140 C   0  0  1  0  0  3  0  0  0  0  0  0
  189.6060  177.3380  135.9790 C   0  0  0  0  0  3  0  0  0  0  0  0
  189.9340  177.1150  137.3230 C   0  0  0  0  0  0  0  0  0  0  0  0
  190.8550  176.4400  141.2990 N   0  0  0  0  0  0  0  0  0  0  0  0
  191.4710  176.4310  139.0270 N   0  0  0  0  0  0  0  0  0  0  0  0
  192.2790  176.3770  136.7020 C   0  0  0  0  0  2  0  0  0  0  0  0
  193.6260  174.2910  137.1580 N   0  0  0  0  0  0  0  0  0  0  0  0
  191.8360  173.9670  135.9220 C   0  0  0  0  0  0  0  0  0  0  0  0
  192.5020  172.7670  136.0960 C   0  0  0  0  0  3  0  0  0  0  0  0
  193.5910  173.0010  136.8600 N   0  0  0  0  0  0  0  0  0  0  0  0
  190.5830  174.1770  135.1460 C   0  0  0  0  0  1  0  0  0  0  0  0
  192.5640  174.9100  136.6130 C   0  0  0  0  0  0  0  0  0  0  0  0
  194.6490  174.8990  137.9940 C   0  0  0  0  0  2  0  0  0  0  0  0
  195.4310  173.8200  138.7200 C   0  0  0  0  0  1  0  0  0  0  0  0
  1 16  1  0  0  0  0
  3 22  2  0  0  0  0
  4 10  1  0  0  0  0
  5 20  1  0  0  0  0
  5  4  2  0  0  0  0
  6 18  1  0  0  0  0
  7 17  1  0  0  0  0
  8  1  2  0  0  0  0
  9  2  2  0  0  0  0
 10 12  2  0  0  0  0
 11  3  1  0  0  0  0
 11  7  2  0  0  0  0
 12 11  1  0  0  0  0
 13 23  2  0  0  0  0
 14  1  1  0  0  0  0
 15 19  1  0  0  0  0
 15 14  1  0  0  0  0
 17  6  2  0  0  0  0
 17  9  1  0  0  0  0
 18 15  2  0  0  0  0
 19  2  1  1  0  0  0
 19  8  1  0  0  0  0
 20 21  2  0  0  0  0
 21 13  1  0  0  0  0
 21 12  1  0  0  0  0
 22  6  1  0  0  0  0
 23  3  1  0  0  0  0
 24 13  1  0  0  0  0
 25 31  1  0  0  0  0
 26 27  1  0  0  0  0
 26 30  2  0  0  0  0
 27 28  2  0  0  0  0
 28 25  1  0  0  0  0
 29 26  1  0  0  0  0
 30 24  1  0  0  0  0
 30 25  1  0  0  0  0
 31 32  1  0  0  0  0
M  END
>  <MODEL>
7

>  <REMARK>
 VINA RESULT:      -7.7      2.115      4.524
  Name = 
  3 active torsions:
  status: ('A' for Active; 'I' for Inactive)
    1  A    between atoms: C_6  and  N_7
    2  A    between atoms: C_16  and  C_27
    3  A    between atoms: C_27  and  C_32
                            x       y       z     vdW  Elec       q    Type
                         _______ _______ _______ _____ _____    ______ ____

>  <TORSDO>
F 3

$$$$
=
 OpenBabel10262421313D

 32 37  0  0  1  0  0  0  0  0999 V2000
  189.4340  177.6850  147.1900 C   0  0  0  0  0  0  0  0  0  0  0  0
  187.6150  177.7120  144.3630 C   0  0  0  0  0  3  0  0  0  0  0  0
  190.4470  176.7510  140.1290 C   0  0  0  0  0  0  0  0  0  0  0  0
  187.2670  178.0840  136.7400 C   0  0  0  0  0  3  0  0  0  0  0  0
  188.2180  177.8640  135.7940 N   0  0  0  0  0  0  0  0  0  0  0  0
  189.8750  176.7270  142.4350 C   0  0  0  0  0  0  0  0  0  0  0  0
  188.2540  177.3870  140.8020 N   0  0  0  0  0  0  0  0  0  0  0  0
  188.7580  178.3880  146.3570 N   0  0  0  0  0  0  0  0  0  0  0  0
  187.4740  177.3510  143.0900 C   0  0  0  0  0  3  0  0  0  0  0  0
  187.5540  177.8690  138.0880 C   0  0  0  0  0  3  0  0  0  0  0  0
  189.1580  177.1970  139.8050 C   0  0  0  0  0  0  0  0  0  0  0  0
  188.8300  177.4270  138.4600 C   0  0  0  0  0  0  0  0  0  0  0  0
  191.0890  176.7610  137.8380 C   0  0  0  0  0  0  0  0  0  0  0  0
  190.4780  176.3990  146.5160 S   0  0  0  0  0  0  0  0  0  0  0  0
  189.8620  176.9100  144.9240 C   0  0  0  0  0  0  0  0  0  0  0  0
  189.3270  177.9170  148.6570 C   0  0  0  0  0  1  0  0  0  0  0  0
  188.5670  177.1800  142.1100 C   0  0  0  0  0  0  0  0  0  0  0  0
  190.3180  176.3700  143.7980 C   0  0  0  0  0  3  0  0  0  0  0  0
  188.9310  178.0690  144.9670 C   0  0  1  0  0  3  0  0  0  0  0  0
  189.4660  177.4350  136.1230 C   0  0  0  0  0  3  0  0  0  0  0  0
  189.8060  177.2070  137.4620 C   0  0  0  0  0  0  0  0  0  0  0  0
  190.7640  176.5180  141.4270 N   0  0  0  0  0  0  0  0  0  0  0  0
  191.3690  176.5450  139.1520 N   0  0  0  0  0  0  0  0  0  0  0  0
  192.1650  176.5310  136.8220 C   0  0  0  0  0  2  0  0  0  0  0  0
  191.8970  174.1150  136.1430 N   0  0  0  0  0  0  0  0  0  0  0  0
  193.6120  174.5060  137.4630 C   0  0  0  0  0  0  0  0  0  0  0  0
  193.5540  173.1560  137.1670 C   0  0  0  0  0  3  0  0  0  0  0  0
  192.4940  172.9520  136.3540 N   0  0  0  0  0  0  0  0  0  0  0  0
  194.6210  175.1770  138.3280 C   0  0  0  0  0  1  0  0  0  0  0  0
  192.5590  175.0880  136.7940 C   0  0  0  0  0  0  0  0  0  0  0  0
  190.7320  174.2800  135.2880 C   0  0  0  0  0  2  0  0  0  0  0  0
  189.5090  173.6870  135.9620 C   0  0  0  0  0  1  0  0  0  0  0  0
  1 16  1  0  0  0  0
  3 22  2  0  0  0  0
  4 10  1  0  0  0  0
  5 20  1  0  0  0  0
  5  4  2  0  0  0  0
  6 18  1  0  0  0  0
  7 17  1  0  0  0  0
  8  1  2  0  0  0  0
  9  2  2  0  0  0  0
 10 12  2  0  0  0  0
 11  3  1  0  0  0  0
 11  7  2  0  0  0  0
 12 11  1  0  0  0  0
 13 23  2  0  0  0  0
 14  1  1  0  0  0  0
 15 19  1  0  0  0  0
 15 14  1  0  0  0  0
 17  6  2  0  0  0  0
 17  9  1  0  0  0  0
 18 15  2  0  0  0  0
 19  2  1  1  0  0  0
 19  8  1  0  0  0  0
 20 21  2  0  0  0  0
 21 13  1  0  0  0  0
 21 12  1  0  0  0  0
 22  6  1  0  0  0  0
 23  3  1  0  0  0  0
 24 13  1  0  0  0  0
 25 28  1  0  0  0  0
 25 30  1  0  0  0  0
 26 29  1  0  0  0  0
 27 26  1  0  0  0  0
 28 27  2  0  0  0  0
 30 24  1  0  0  0  0
 30 26  2  0  0  0  0
 31 32  1  0  0  0  0
 31 25  1  0  0  0  0
M  END
>  <MODEL>
8

>  <REMARK>
 VINA RESULT:      -7.4      1.931      4.161
  Name = 
  3 active torsions:
  status: ('A' for Active; 'I' for Inactive)
    1  A    between atoms: C_6  and  N_7
    2  A    between atoms: C_16  and  C_27
    3  A    between atoms: C_27  and  C_32
                            x       y       z     vdW  Elec       q    Type
                         _______ _______ _______ _____ _____    ______ ____

>  <TORSDO>
F 3

$$$$
=
 OpenBabel10262421313D

 32 37  0  0  1  0  0  0  0  0999 V2000
  182.0960  178.1800  139.2850 C   0  0  0  0  0  0  0  0  0  0  0  0
  182.6850  178.5170  142.5780 C   0  0  0  0  0  3  0  0  0  0  0  0
  187.7270  178.3120  143.7610 C   0  0  0  0  0  0  0  0  0  0  0  0
  187.3880  177.7770  148.5540 C   0  0  0  0  0  3  0  0  0  0  0  0
  188.7390  177.6410  148.6110 N   0  0  0  0  0  0  0  0  0  0  0  0
  185.8060  178.6540  142.4050 C   0  0  0  0  0  0  0  0  0  0  0  0
  185.5760  178.4060  144.7750 N   0  0  0  0  0  0  0  0  0  0  0  0
  181.9870  177.6600  140.4520 N   0  0  0  0  0  0  0  0  0  0  0  0
  183.5240  178.8210  143.5650 C   0  0  0  0  0  3  0  0  0  0  0  0
  186.7540  177.9820  147.3280 C   0  0  0  0  0  3  0  0  0  0  0  0
  186.9200  178.2520  144.9050 C   0  0  0  0  0  0  0  0  0  0  0  0
  187.5200  178.0450  146.1570 C   0  0  0  0  0  0  0  0  0  0  0  0
  189.6910  177.9630  145.0580 C   0  0  0  0  0  0  0  0  0  0  0  0
  183.6150  179.0490  138.9160 S   0  0  0  0  0  0  0  0  0  0  0  0
  184.1020  178.6440  140.5820 C   0  0  0  0  0  0  0  0  0  0  0  0
  180.9890  178.0850  138.2950 C   0  0  0  0  0  1  0  0  0  0  0  0
  184.9840  178.5940  143.5640 C   0  0  0  0  0  0  0  0  0  0  0  0
  185.3100  178.9490  141.0460 C   0  0  0  0  0  3  0  0  0  0  0  0
  183.1130  177.8220  141.3300 C   0  0  1  0  0  3  0  0  0  0  0  0
  189.5100  177.6970  147.4920 C   0  0  0  0  0  3  0  0  0  0  0  0
  188.9230  177.8980  146.2370 C   0  0  0  0  0  0  0  0  0  0  0  0
  187.1520  178.5230  142.5500 N   0  0  0  0  0  0  0  0  0  0  0  0
  189.0750  178.1700  143.8620 N   0  0  0  0  0  0  0  0  0  0  0  0
  191.1790  177.7950  145.0850 C   0  0  0  0  0  2  0  0  0  0  0  0
  191.4000  175.7560  143.6130 N   0  0  0  0  0  0  0  0  0  0  0  0
  192.0480  175.4530  145.6930 C   0  0  0  0  0  0  0  0  0  0  0  0
  192.1980  174.2740  144.9850 C   0  0  0  0  0  3  0  0  0  0  0  0
  191.7960  174.4960  143.7140 N   0  0  0  0  0  0  0  0  0  0  0  0
  192.3680  175.6650  147.1310 C   0  0  0  0  0  1  0  0  0  0  0  0
  191.5510  176.3730  144.7980 C   0  0  0  0  0  0  0  0  0  0  0  0
  190.9270  176.3560  142.3760 C   0  0  0  0  0  2  0  0  0  0  0  0
  192.0560  177.1160  141.7060 C   0  0  0  0  0  1  0  0  0  0  0  0
  1  8  2  0  0  0  0
  2  9  2  0  0  0  0
  3 23  1  0  0  0  0
  3 11  1  0  0  0  0
  4  5  1  0  0  0  0
  6 22  1  0  0  0  0
  6 17  2  0  0  0  0
  7 11  2  0  0  0  0
  8 19  1  0  0  0  0
 10  4  2  0  0  0  0
 11 12  1  0  0  0  0
 12 21  2  0  0  0  0
 12 10  1  0  0  0  0
 13 24  1  0  0  0  0
 13 21  1  0  0  0  0
 14  1  1  0  0  0  0
 14 15  1  0  0  0  0
 15 18  2  0  0  0  0
 15 19  1  0  0  0  0
 16  1  1  0  0  0  0
 17  9  1  0  0  0  0
 17  7  1  0  0  0  0
 18  6  1  0  0  0  0
 19  2  1  1  0  0  0
 20  5  2  0  0  0  0
 21 20  1  0  0  0  0
 22  3  2  0  0  0  0
 23 13  2  0  0  0  0
 25 28  1  0  0  0  0
 25 30  1  0  0  0  0
 26 29  1  0  0  0  0
 27 26  1  0  0  0  0
 28 27  2  0  0  0  0
 30 24  1  0  0  0  0
 30 26  2  0  0  0  0
 31 25  1  0  0  0  0
 32 31  1  0  0  0  0
M  END
>  <MODEL>
9

>  <REMARK>
 VINA RESULT:      -7.4      4.365      8.707
  Name = 
  3 active torsions:
  status: ('A' for Active; 'I' for Inactive)
    1  A    between atoms: C_6  and  N_7
    2  A    between atoms: C_16  and  C_27
    3  A    between atoms: C_27  and  C_32
                            x       y       z     vdW  Elec       q    Type
                         _______ _______ _______ _____ _____    ______ ____

>  <TORSDO>
F 3

$$$$
