=
 OpenBabel10262419173D

 34 37  0  0  1  0  0  0  0  0999 V2000
  180.0950  175.7240  139.2890 C   0  0  2  0  0  3  0  0  0  0  0  0
  187.5540  179.2460  136.7830 O   0  0  0  0  0  0  0  0  0  0  0  0
  181.7240  177.1000  137.7980 C   0  0  1  0  0  3  0  0  0  0  0  0
  183.7080  178.0480  139.1310 C   0  0  1  0  0  3  0  0  0  0  0  0
  183.9920  177.1860  136.7820 C   0  0  0  0  0  3  0  0  0  0  0  0
  188.1420  178.6580  138.9440 N   0  0  0  0  0  2  0  0  0  0  0  0
  181.0520  175.7420  138.0840 C   0  0  2  0  0  3  0  0  0  0  0  0
  185.2340  177.6710  136.7610 C   0  0  0  0  0  3  0  0  0  0  0  0
  185.2270  177.9940  139.2670 C   0  0  0  0  0  2  0  0  0  0  0  0
  181.0050  178.2960  138.4590 C   0  0  2  0  0  3  0  0  0  0  0  0
  180.6240  176.6270  140.3960 C   0  0  0  0  0  2  0  0  0  0  0  0
  183.2360  179.4860  138.8620 C   0  0  0  0  0  2  0  0  0  0  0  0
  181.8280  179.5760  138.2360 C   0  0  2  0  0  3  0  0  0  0  0  0
  185.8920  178.1120  137.9620 N   0  0  0  0  0  0  0  0  0  0  0  0
  183.2340  177.0370  138.0690 C   0  0  2  0  0  3  0  0  0  0  0  0
  180.6520  178.0900  139.9490 C   0  0  0  0  0  2  0  0  0  0  0  0
  187.2050  178.6900  137.8590 C   0  0  0  0  0  0  0  0  0  0  0  0
  180.9390  183.1580  137.7790 C   0  0  0  0  0  0  0  0  0  0  0  0
  179.5680  183.1630  138.0730 O   0  0  0  0  0  0  0  0  0  0  0  0
  181.0880  180.8510  138.6630 C   0  0  1  0  0  3  0  0  0  0  0  0
  178.9310  182.0760  138.7480 C   0  0  0  0  0  2  0  0  0  0  0  0
  181.6810  182.0720  138.0080 C   0  0  0  0  0  3  0  0  0  0  0  0
  179.5900  180.7580  138.3560 C   0  0  0  0  0  2  0  0  0  0  0  0
  181.5630  184.3550  137.1580 C   0  0  0  0  0  1  0  0  0  0  0  0
  179.9120  174.3320  139.7980 C   0  0  0  0  0  0  0  0  0  0  0  0
  180.0240  174.0790  141.1580 O   0  0  0  0  0  1  0  0  0  0  0  0
  179.6540  173.3870  139.0060 O   0  0  0  0  0  0  0  0  0  0  0  0
  180.5140  175.1380  136.9270 O   0  0  0  0  0  0  0  0  0  0  0  0
  181.5230  174.3890  136.2990 C   0  0  0  0  0  1  0  0  0  0  0  0
  188.0320  177.7950  140.1130 C   0  0  1  0  0  3  0  0  0  0  0  0
  189.2980  176.9580  140.2790 C   0  0  0  0  0  2  0  0  0  0  0  0
  190.4110  177.6400  139.7830 O   0  0  0  0  0  1  0  0  0  0  0  0
  187.7660  178.6400  141.3480 C   0  0  0  0  0  2  0  0  0  0  0  0
  187.8860  177.6200  142.8470 S   0  0  0  0  0  1  0  0  0  0  0  0
  1 25  1  1  0  0  0
  1 11  1  0  0  0  0
  2 17  2  0  0  0  0
  3 15  1  0  0  0  0
  3  7  1  0  0  0  0
  3 10  1  0  0  0  0
  4  9  1  0  0  0  0
  5 15  1  0  0  0  0
  6 30  1  0  0  0  0
  7  1  1  0  0  0  0
  8  5  2  0  0  0  0
  8 14  1  0  0  0  0
 10 16  1  0  0  0  0
 12  4  1  0  0  0  0
 13 10  1  0  0  0  0
 13 20  1  0  0  0  0
 13 12  1  0  0  0  0
 14  9  1  0  0  0  0
 15  4  1  0  0  0  0
 16 11  1  0  0  0  0
 17 14  1  0  0  0  0
 17  6  1  0  0  0  0
 18 22  2  0  0  0  0
 18 19  1  0  0  0  0
 19 21  1  0  0  0  0
 22 20  1  0  0  0  0
 23 20  1  0  0  0  0
 23 21  1  0  0  0  0
 24 18  1  0  0  0  0
 25 26  1  0  0  0  0
 27 25  2  0  0  0  0
 28  7  1  0  0  0  0
 29 28  1  0  0  0  0
 30 31  1  0  0  0  0
 30 33  1  0  0  0  0
 32 31  1  0  0  0  0
 33 34  1  0  0  0  0
M  END
>  <MODEL>
1

>  <REMARK>
 VINA RESULT:      -5.6      0.000      0.000
  Name = 
  6 active torsions:
  status: ('A' for Active; 'I' for Inactive)
    1  A    between atoms: C_1  and  C_6
    2  A    between atoms: O_2  and  C_15
    3  A    between atoms: C_11  and  CA_20
    4  A    between atoms: C_12  and  C_28
    5  A    between atoms: N_13  and  CA_20
    6  A    between atoms: CB_14  and  CA_20
                            x       y       z     vdW  Elec       q    Type
                         _______ _______ _______ _____ _____    ______ ____

>  <TORSDO>
F 6

$$$$
=
 OpenBabel10262419173D

 34 37  0  0  1  0  0  0  0  0999 V2000
  184.4140  179.0760  141.7770 C   0  0  2  0  0  3  0  0  0  0  0  0
  179.7020  173.8470  136.8000 O   0  0  0  0  0  0  0  0  0  0  0  0
  182.2820  178.1320  140.6220 C   0  0  1  0  0  3  0  0  0  0  0  0
  182.8200  176.9100  138.4240 C   0  0  1  0  0  3  0  0  0  0  0  0
  181.0350  176.0750  139.9920 C   0  0  0  0  0  3  0  0  0  0  0  0
  181.8120  173.2360  136.0680 N   0  0  0  0  0  2  0  0  0  0  0  0
  183.1980  178.1360  141.8620 C   0  0  2  0  0  3  0  0  0  0  0  0
  180.6500  175.1900  139.0720 C   0  0  0  0  0  3  0  0  0  0  0  0
  182.7640  175.5480  137.7370 C   0  0  0  0  0  2  0  0  0  0  0  0
  182.4680  179.3670  139.7140 C   0  0  2  0  0  3  0  0  0  0  0  0
  184.9580  179.1070  140.3560 C   0  0  0  0  0  2  0  0  0  0  0  0
  182.0360  177.9590  137.6190 C   0  0  0  0  0  2  0  0  0  0  0  0
  181.6220  179.1980  138.4400 C   0  0  2  0  0  3  0  0  0  0  0  0
  181.4560  174.9050  137.9160 N   0  0  0  0  0  0  0  0  0  0  0  0
  182.3540  176.7850  139.8870 C   0  0  2  0  0  3  0  0  0  0  0  0
  183.9390  179.7090  139.3860 C   0  0  0  0  0  2  0  0  0  0  0  0
  180.9470  173.9930  136.9260 C   0  0  0  0  0  0  0  0  0  0  0  0
  180.0620  181.3040  135.8010 C   0  0  0  0  0  0  0  0  0  0  0  0
  180.1450  182.5880  136.3580 O   0  0  0  0  0  0  0  0  0  0  0  0
  181.5670  180.4680  137.5790 C   0  0  1  0  0  3  0  0  0  0  0  0
  180.9990  182.8820  137.4660 C   0  0  0  0  0  2  0  0  0  0  0  0
  180.6880  180.2720  136.3720 C   0  0  0  0  0  3  0  0  0  0  0  0
  181.0890  181.6740  138.3940 C   0  0  0  0  0  2  0  0  0  0  0  0
  179.2260  181.0790  134.5940 C   0  0  0  0  0  1  0  0  0  0  0  0
  185.4800  178.6500  142.7320 C   0  0  0  0  0  0  0  0  0  0  0  0
  186.6180  178.0170  142.2520 O   0  0  0  0  0  0  0  0  0  0  0  0
  185.3570  178.8610  143.9690 O   0  0  0  0  0  1  0  0  0  0  0  0
  182.4840  178.2450  143.0750 O   0  0  0  0  0  0  0  0  0  0  0  0
  181.2910  178.9450  142.8350 C   0  0  0  0  0  1  0  0  0  0  0  0
  183.2390  173.0380  136.2890 C   0  0  1  0  0  3  0  0  0  0  0  0
  183.4950  171.6730  136.9230 C   0  0  0  0  0  2  0  0  0  0  0  0
  182.3150  170.9300  136.9960 O   0  0  0  0  0  1  0  0  0  0  0  0
  183.9840  173.1820  134.9730 C   0  0  0  0  0  2  0  0  0  0  0  0
  185.5100  174.1380  135.2140 S   0  0  0  0  0  1  0  0  0  0  0  0
  1  7  1  0  0  0  0
  1 25  1  1  0  0  0
  2 17  2  0  0  0  0
  3  7  1  0  0  0  0
  4 15  1  0  0  0  0
  6 30  1  0  0  0  0
  6 17  1  0  0  0  0
  7 28  1  0  0  0  0
  8  5  2  0  0  0  0
  9 14  1  0  0  0  0
  9  4  1  0  0  0  0
 10  3  1  0  0  0  0
 11  1  1  0  0  0  0
 12  4  1  0  0  0  0
 12 13  1  0  0  0  0
 13 10  1  0  0  0  0
 14  8  1  0  0  0  0
 15  5  1  0  0  0  0
 15  3  1  0  0  0  0
 16 10  1  0  0  0  0
 16 11  1  0  0  0  0
 17 14  1  0  0  0  0
 18 19  1  0  0  0  0
 18 22  2  0  0  0  0
 19 21  1  0  0  0  0
 20 23  1  0  0  0  0
 20 13  1  0  0  0  0
 21 23  1  0  0  0  0
 22 20  1  0  0  0  0
 24 18  1  0  0  0  0
 25 27  1  0  0  0  0
 26 25  2  0  0  0  0
 29 28  1  0  0  0  0
 30 31  1  0  0  0  0
 31 32  1  0  0  0  0
 33 34  1  0  0  0  0
 33 30  1  0  0  0  0
M  END
>  <MODEL>
2

>  <REMARK>
 VINA RESULT:      -5.6      3.297      6.036
  Name = 
  6 active torsions:
  status: ('A' for Active; 'I' for Inactive)
    1  A    between atoms: C_1  and  C_6
    2  A    between atoms: O_2  and  C_15
    3  A    between atoms: C_11  and  CA_20
    4  A    between atoms: C_12  and  C_28
    5  A    between atoms: N_13  and  CA_20
    6  A    between atoms: CB_14  and  CA_20
                            x       y       z     vdW  Elec       q    Type
                         _______ _______ _______ _____ _____    ______ ____

>  <TORSDO>
F 6

$$$$
=
 OpenBabel10262419173D

 34 37  0  0  1  0  0  0  0  0999 V2000
  184.0590  179.3150  140.5000 C   0  0  2  0  0  3  0  0  0  0  0  0
  179.0640  172.9380  137.5490 O   0  0  0  0  0  0  0  0  0  0  0  0
  181.8630  178.0020  140.0320 C   0  0  1  0  0  3  0  0  0  0  0  0
  182.0430  176.5040  137.9500 C   0  0  1  0  0  3  0  0  0  0  0  0
  180.7840  175.7610  140.0000 C   0  0  0  0  0  3  0  0  0  0  0  0
  181.0140  172.4240  136.4120 N   0  0  0  0  0  2  0  0  0  0  0  0
  183.0270  178.2890  141.0000 C   0  0  2  0  0  3  0  0  0  0  0  0
  180.3190  174.7090  139.3250 C   0  0  0  0  0  3  0  0  0  0  0  0
  182.0110  175.0510  137.4820 C   0  0  0  0  0  2  0  0  0  0  0  0
  181.6750  179.0890  138.9520 C   0  0  2  0  0  3  0  0  0  0  0  0
  184.2590  179.1720  138.9980 C   0  0  0  0  0  2  0  0  0  0  0  0
  180.9680  177.3320  137.2280 C   0  0  0  0  0  2  0  0  0  0  0  0
  180.5930  178.6400  137.9560 C   0  0  2  0  0  3  0  0  0  0  0  0
  180.8720  174.3230  138.0550 N   0  0  0  0  0  0  0  0  0  0  0  0
  181.9400  176.5680  139.4850 C   0  0  2  0  0  3  0  0  0  0  0  0
  182.9770  179.5130  138.2350 C   0  0  0  0  0  2  0  0  0  0  0  0
  180.2760  173.2210  137.3480 C   0  0  0  0  0  0  0  0  0  0  0  0
  180.6960  182.1560  136.7470 C   0  0  0  0  0  0  0  0  0  0  0  0
  180.7750  181.9900  135.3570 O   0  0  0  0  0  0  0  0  0  0  0  0
  180.1790  179.7470  136.9750 C   0  0  1  0  0  3  0  0  0  0  0  0
  180.4720  180.7460  134.7220 C   0  0  0  0  0  2  0  0  0  0  0  0
  180.4540  181.1140  137.5450 C   0  0  0  0  0  3  0  0  0  0  0  0
  180.8790  179.5840  135.6220 C   0  0  0  0  0  2  0  0  0  0  0  0
  180.9340  183.4960  137.3430 C   0  0  0  0  0  1  0  0  0  0  0  0
  185.3600  179.1490  141.2150 C   0  0  0  0  0  0  0  0  0  0  0  0
  186.4830  178.7410  140.5090 O   0  0  0  0  0  0  0  0  0  0  0  0
  185.4480  179.3780  142.4510 O   0  0  0  0  0  1  0  0  0  0  0  0
  182.5990  178.5190  142.3260 O   0  0  0  0  0  0  0  0  0  0  0  0
  181.2560  178.9310  142.3000 C   0  0  0  0  0  1  0  0  0  0  0  0
  182.4680  172.4010  136.3040 C   0  0  1  0  0  3  0  0  0  0  0  0
  183.0370  171.1840  137.0300 C   0  0  0  0  0  2  0  0  0  0  0  0
  183.3860  170.1830  136.1220 O   0  0  0  0  0  1  0  0  0  0  0  0
  182.8700  172.4040  134.8380 C   0  0  0  0  0  2  0  0  0  0  0  0
  184.3490  173.4310  134.5940 S   0  0  0  0  0  1  0  0  0  0  0  0
  1  7  1  0  0  0  0
  1 25  1  1  0  0  0
  3  7  1  0  0  0  0
  4 15  1  0  0  0  0
  6 17  1  0  0  0  0
  7 28  1  0  0  0  0
  8  5  2  0  0  0  0
  9  4  1  0  0  0  0
  9 14  1  0  0  0  0
 10  3  1  0  0  0  0
 11  1  1  0  0  0  0
 12  4  1  0  0  0  0
 12 13  1  0  0  0  0
 13 10  1  0  0  0  0
 14  8  1  0  0  0  0
 15  5  1  0  0  0  0
 15  3  1  0  0  0  0
 16 10  1  0  0  0  0
 16 11  1  0  0  0  0
 17  2  2  0  0  0  0
 17 14  1  0  0  0  0
 18 24  1  0  0  0  0
 18 22  2  0  0  0  0
 19 18  1  0  0  0  0
 20 22  1  0  0  0  0
 20 13  1  0  0  0  0
 21 19  1  0  0  0  0
 21 23  1  0  0  0  0
 23 20  1  0  0  0  0
 25 27  1  0  0  0  0
 26 25  2  0  0  0  0
 29 28  1  0  0  0  0
 30  6  1  0  0  0  0
 30 31  1  0  0  0  0
 32 31  1  0  0  0  0
 33 30  1  0  0  0  0
 34 33  1  0  0  0  0
M  END
>  <MODEL>
3

>  <REMARK>
 VINA RESULT:      -5.4      3.469      6.318
  Name = 
  6 active torsions:
  status: ('A' for Active; 'I' for Inactive)
    1  A    between atoms: C_1  and  C_6
    2  A    between atoms: O_2  and  C_15
    3  A    between atoms: C_11  and  CA_20
    4  A    between atoms: C_12  and  C_28
    5  A    between atoms: N_13  and  CA_20
    6  A    between atoms: CB_14  and  CA_20
                            x       y       z     vdW  Elec       q    Type
                         _______ _______ _______ _____ _____    ______ ____

>  <TORSDO>
F 6

$$$$
=
 OpenBabel10262419173D

 34 37  0  0  1  0  0  0  0  0999 V2000
  179.9510  178.8000  141.7270 C   0  0  2  0  0  3  0  0  0  0  0  0
  183.8900  175.9860  134.5940 O   0  0  0  0  0  0  0  0  0  0  0  0
  180.1660  177.8690  139.3080 C   0  0  1  0  0  3  0  0  0  0  0  0
  182.3850  178.5380  138.1940 C   0  0  1  0  0  3  0  0  0  0  0  0
  181.3630  176.2670  137.8280 C   0  0  0  0  0  3  0  0  0  0  0  0
  185.7130  176.9320  135.6620 N   0  0  0  0  0  2  0  0  0  0  0  0
  180.0030  177.5650  140.8100 C   0  0  2  0  0  3  0  0  0  0  0  0
  182.2670  176.0190  136.8800 C   0  0  0  0  0  3  0  0  0  0  0  0
  183.6820  177.9770  137.6180 C   0  0  0  0  0  2  0  0  0  0  0  0
  179.8020  179.3200  138.9280 C   0  0  2  0  0  3  0  0  0  0  0  0
  180.8850  179.8830  141.2060 C   0  0  0  0  0  2  0  0  0  0  0  0
  181.6360  179.3710  137.1420 C   0  0  0  0  0  2  0  0  0  0  0  0
  180.1350  179.5610  137.4460 C   0  0  2  0  0  3  0  0  0  0  0  0
  183.4280  176.8510  136.7100 N   0  0  0  0  0  0  0  0  0  0  0  0
  181.5370  177.4020  138.7950 C   0  0  2  0  0  3  0  0  0  0  0  0
  180.4260  180.3990  139.8410 C   0  0  0  0  0  2  0  0  0  0  0  0
  184.3260  176.5690  135.6220 C   0  0  0  0  0  0  0  0  0  0  0  0
  180.5950  183.1390  136.5390 C   0  0  0  0  0  0  0  0  0  0  0  0
  179.8700  183.2370  135.3420 O   0  0  0  0  0  0  0  0  0  0  0  0
  179.6060  180.9020  136.9180 C   0  0  1  0  0  3  0  0  0  0  0  0
  178.9310  182.2390  134.9380 C   0  0  0  0  0  2  0  0  0  0  0  0
  180.5250  182.0370  137.2890 C   0  0  0  0  0  3  0  0  0  0  0  0
  179.3960  180.8620  135.4010 C   0  0  0  0  0  2  0  0  0  0  0  0
  181.4900  184.2510  136.9500 C   0  0  0  0  0  1  0  0  0  0  0  0
  180.3120  178.4330  143.1290 C   0  0  0  0  0  0  0  0  0  0  0  0
  181.5730  178.7450  143.6170 O   0  0  0  0  0  0  0  0  0  0  0  0
  179.4820  177.8450  143.8740 O   0  0  0  0  0  1  0  0  0  0  0  0
  178.9870  176.6220  141.0750 O   0  0  0  0  0  0  0  0  0  0  0  0
  179.5190  175.3310  140.9210 C   0  0  0  0  0  1  0  0  0  0  0  0
  186.4410  177.3060  136.8690 C   0  0  1  0  0  3  0  0  0  0  0  0
  187.0850  176.0760  137.5050 C   0  0  0  0  0  2  0  0  0  0  0  0
  187.5160  175.1790  136.5250 O   0  0  0  0  0  1  0  0  0  0  0  0
  187.4820  178.3600  136.5310 C   0  0  0  0  0  2  0  0  0  0  0  0
  188.7200  178.4700  137.8560 S   0  0  0  0  0  1  0  0  0  0  0  0
  1 25  1  1  0  0  0
  2 17  2  0  0  0  0
  3  7  1  0  0  0  0
  4 15  1  0  0  0  0
  5 15  1  0  0  0  0
  6 30  1  0  0  0  0
  7 28  1  0  0  0  0
  7  1  1  0  0  0  0
  8  5  2  0  0  0  0
  9  4  1  0  0  0  0
 10  3  1  0  0  0  0
 10 16  1  0  0  0  0
 11  1  1  0  0  0  0
 12 13  1  0  0  0  0
 12  4  1  0  0  0  0
 13 10  1  0  0  0  0
 14  8  1  0  0  0  0
 14  9  1  0  0  0  0
 15  3  1  0  0  0  0
 16 11  1  0  0  0  0
 17  6  1  0  0  0  0
 17 14  1  0  0  0  0
 18 24  1  0  0  0  0
 18 22  2  0  0  0  0
 19 18  1  0  0  0  0
 20 22  1  0  0  0  0
 20 13  1  0  0  0  0
 21 19  1  0  0  0  0
 21 23  1  0  0  0  0
 23 20  1  0  0  0  0
 25 26  2  0  0  0  0
 25 27  1  0  0  0  0
 29 28  1  0  0  0  0
 30 31  1  0  0  0  0
 32 31  1  0  0  0  0
 33 30  1  0  0  0  0
 33 34  1  0  0  0  0
M  END
>  <MODEL>
4

>  <REMARK>
 VINA RESULT:      -5.3      2.607      3.676
  Name = 
  6 active torsions:
  status: ('A' for Active; 'I' for Inactive)
    1  A    between atoms: C_1  and  C_6
    2  A    between atoms: O_2  and  C_15
    3  A    between atoms: C_11  and  CA_20
    4  A    between atoms: C_12  and  C_28
    5  A    between atoms: N_13  and  CA_20
    6  A    between atoms: CB_14  and  CA_20
                            x       y       z     vdW  Elec       q    Type
                         _______ _______ _______ _____ _____    ______ ____

>  <TORSDO>
F 6

$$$$
=
 OpenBabel10262419173D

 34 37  0  0  1  0  0  0  0  0999 V2000
  186.2140  177.0060  137.0610 C   0  0  2  0  0  3  0  0  0  0  0  0
  178.9310  180.6680  139.8660 O   0  0  0  0  0  0  0  0  0  0  0  0
  184.0700  177.2950  138.5050 C   0  0  1  0  0  3  0  0  0  0  0  0
  183.3580  179.7570  138.7190 C   0  0  1  0  0  3  0  0  0  0  0  0
  181.6600  177.9120  138.4930 C   0  0  0  0  0  3  0  0  0  0  0  0
  179.7680  182.4350  138.6270 N   0  0  0  0  0  2  0  0  0  0  0  0
  184.7210  176.6840  137.2490 C   0  0  2  0  0  3  0  0  0  0  0  0
  180.6860  178.7840  138.7560 C   0  0  0  0  0  3  0  0  0  0  0  0
  182.2400  180.7400  138.3840 C   0  0  0  0  0  2  0  0  0  0  0  0
  185.0900  177.7360  139.5770 C   0  0  2  0  0  3  0  0  0  0  0  0
  186.5100  178.4240  137.5300 C   0  0  0  0  0  2  0  0  0  0  0  0
  183.6230  179.7290  140.2330 C   0  0  0  0  0  2  0  0  0  0  0  0
  184.3540  178.4600  140.7180 C   0  0  2  0  0  3  0  0  0  0  0  0
  180.9210  180.2030  138.7410 N   0  0  0  0  0  0  0  0  0  0  0  0
  183.0410  178.3710  138.1260 C   0  0  2  0  0  3  0  0  0  0  0  0
  186.2730  178.5680  139.0350 C   0  0  0  0  0  2  0  0  0  0  0  0
  179.8430  181.0850  139.1040 C   0  0  0  0  0  0  0  0  0  0  0  0
  184.9270  178.6880  144.3850 C   0  0  0  0  0  0  0  0  0  0  0  0
  186.1990  178.1130  144.5240 O   0  0  0  0  0  0  0  0  0  0  0  0
  185.2500  178.7390  141.9320 C   0  0  1  0  0  3  0  0  0  0  0  0
  187.0710  177.9190  143.4080 C   0  0  0  0  0  2  0  0  0  0  0  0
  184.4310  178.9620  143.1760 C   0  0  0  0  0  3  0  0  0  0  0  0
  186.2580  177.6070  142.1550 C   0  0  0  0  0  2  0  0  0  0  0  0
  184.1020  178.9480  145.5930 C   0  0  0  0  0  1  0  0  0  0  0  0
  186.6150  176.8380  135.6310 C   0  0  0  0  0  0  0  0  0  0  0  0
  187.7180  176.0580  135.3160 O   0  0  0  0  0  1  0  0  0  0  0  0
  185.9600  177.3960  134.7100 O   0  0  0  0  0  0  0  0  0  0  0  0
  184.4130  175.3170  137.0770 O   0  0  0  0  0  0  0  0  0  0  0  0
  183.2950  175.2100  136.2330 C   0  0  0  0  0  1  0  0  0  0  0  0
  180.5370  182.9660  137.5090 C   0  0  1  0  0  3  0  0  0  0  0  0
  179.8640  182.6150  136.1840 C   0  0  0  0  0  2  0  0  0  0  0  0
  180.7550  181.9560  135.3340 O   0  0  0  0  0  1  0  0  0  0  0  0
  180.6910  184.4710  137.6640 C   0  0  0  0  0  2  0  0  0  0  0  0
  179.3650  185.3350  136.7720 S   0  0  0  0  0  1  0  0  0  0  0  0
  1 25  1  6  0  0  0
  1  7  1  0  0  0  0
  1 11  1  0  0  0  0
  3 10  1  0  0  0  0
  4 12  1  0  0  0  0
  5  8  2  0  0  0  0
  6 17  1  0  0  0  0
  7  3  1  0  0  0  0
  9  4  1  0  0  0  0
  9 14  1  0  0  0  0
 10 13  1  0  0  0  0
 11 16  1  0  0  0  0
 12 13  1  0  0  0  0
 13 20  1  0  0  0  0
 14  8  1  0  0  0  0
 14 17  1  0  0  0  0
 15  5  1  0  0  0  0
 15  3  1  0  0  0  0
 15  4  1  0  0  0  0
 16 10  1  0  0  0  0
 17  2  2  0  0  0  0
 18 19  1  0  0  0  0
 18 24  1  0  0  0  0
 20 23  1  0  0  0  0
 20 22  1  0  0  0  0
 21 19  1  0  0  0  0
 22 18  2  0  0  0  0
 23 21  1  0  0  0  0
 26 25  1  0  0  0  0
 27 25  2  0  0  0  0
 28  7  1  0  0  0  0
 29 28  1  0  0  0  0
 30 33  1  0  0  0  0
 30  6  1  0  0  0  0
 31 30  1  0  0  0  0
 32 31  1  0  0  0  0
 34 33  1  0  0  0  0
M  END
>  <MODEL>
5

>  <REMARK>
 VINA RESULT:      -5.1      3.706      7.533
  Name = 
  6 active torsions:
  status: ('A' for Active; 'I' for Inactive)
    1  A    between atoms: C_1  and  C_6
    2  A    between atoms: O_2  and  C_15
    3  A    between atoms: C_11  and  CA_20
    4  A    between atoms: C_12  and  C_28
    5  A    between atoms: N_13  and  CA_20
    6  A    between atoms: CB_14  and  CA_20
                            x       y       z     vdW  Elec       q    Type
                         _______ _______ _______ _____ _____    ______ ____

>  <TORSDO>
F 6

$$$$
=
 OpenBabel10262419173D

 34 37  0  0  1  0  0  0  0  0999 V2000
  180.8960  179.3520  142.5650 C   0  0  2  0  0  3  0  0  0  0  0  0
  183.5150  176.3510  134.9200 O   0  0  0  0  0  0  0  0  0  0  0  0
  182.0340  179.3970  140.2270 C   0  0  1  0  0  3  0  0  0  0  0  0
  182.8190  177.0660  139.4750 C   0  0  1  0  0  3  0  0  0  0  0  0
  181.8430  178.7160  137.8420 C   0  0  0  0  0  3  0  0  0  0  0  0
  182.9520  174.3410  135.9220 N   0  0  0  0  0  2  0  0  0  0  0  0
  180.7670  179.6600  141.0630 C   0  0  2  0  0  3  0  0  0  0  0  0
  182.1930  177.9160  136.8340 C   0  0  0  0  0  3  0  0  0  0  0  0
  182.6100  175.9890  138.4130 C   0  0  0  0  0  2  0  0  0  0  0  0
  183.3240  179.3060  141.0710 C   0  0  2  0  0  3  0  0  0  0  0  0
  181.7790  178.1300  142.7790 C   0  0  0  0  0  2  0  0  0  0  0  0
  184.2870  177.5200  139.5100 C   0  0  0  0  0  2  0  0  0  0  0  0
  184.5000  178.8990  140.1690 C   0  0  2  0  0  3  0  0  0  0  0  0
  182.6080  176.5580  137.0590 N   0  0  0  0  0  0  0  0  0  0  0  0
  181.8230  178.2220  139.2600 C   0  0  2  0  0  3  0  0  0  0  0  0
  183.2130  178.3980  142.3170 C   0  0  0  0  0  2  0  0  0  0  0  0
  183.0400  175.7720  135.9340 C   0  0  0  0  0  0  0  0  0  0  0  0
  186.8930  177.9020  142.8360 C   0  0  0  0  0  0  0  0  0  0  0  0
  188.1030  177.8190  142.1330 O   0  0  0  0  0  0  0  0  0  0  0  0
  185.8620  178.9970  140.8710 C   0  0  1  0  0  3  0  0  0  0  0  0
  188.2700  178.3940  140.8350 C   0  0  0  0  0  2  0  0  0  0  0  0
  185.8040  178.4170  142.2600 C   0  0  0  0  0  3  0  0  0  0  0  0
  186.9620  178.3120  140.0540 C   0  0  0  0  0  2  0  0  0  0  0  0
  186.8070  177.3640  144.2180 C   0  0  0  0  0  1  0  0  0  0  0  0
  179.5500  179.1330  143.1780 C   0  0  0  0  0  0  0  0  0  0  0  0
  178.9780  180.1330  143.9500 O   0  0  0  0  0  1  0  0  0  0  0  0
  178.9310  178.0500  142.9970 O   0  0  0  0  0  0  0  0  0  0  0  0
  180.1780  180.9150  140.7930 O   0  0  0  0  0  0  0  0  0  0  0  0
  179.1960  180.7480  139.8040 C   0  0  0  0  0  1  0  0  0  0  0  0
  182.1500  173.5490  136.8470 C   0  0  1  0  0  3  0  0  0  0  0  0
  180.7040  173.4680  136.3630 C   0  0  0  0  0  2  0  0  0  0  0  0
  179.8250  173.9130  137.3530 O   0  0  0  0  0  1  0  0  0  0  0  0
  182.7590  172.1640  136.9930 C   0  0  0  0  0  2  0  0  0  0  0  0
  184.5630  172.2850  137.1710 S   0  0  0  0  0  1  0  0  0  0  0  0
  1 11  1  0  0  0  0
  1 25  1  6  0  0  0
  2 17  2  0  0  0  0
  3  7  1  0  0  0  0
  3 10  1  0  0  0  0
  4 12  1  0  0  0  0
  5 15  1  0  0  0  0
  6 17  1  0  0  0  0
  6 30  1  0  0  0  0
  7  1  1  0  0  0  0
  8 14  1  0  0  0  0
  8  5  2  0  0  0  0
  9  4  1  0  0  0  0
 10 16  1  0  0  0  0
 12 13  1  0  0  0  0
 13 20  1  0  0  0  0
 13 10  1  0  0  0  0
 14  9  1  0  0  0  0
 15  4  1  0  0  0  0
 15  3  1  0  0  0  0
 16 11  1  0  0  0  0
 17 14  1  0  0  0  0
 18 24  1  0  0  0  0
 19 18  1  0  0  0  0
 20 22  1  0  0  0  0
 21 19  1  0  0  0  0
 22 18  2  0  0  0  0
 23 21  1  0  0  0  0
 23 20  1  0  0  0  0
 25 26  1  0  0  0  0
 27 25  2  0  0  0  0
 28  7  1  0  0  0  0
 29 28  1  0  0  0  0
 30 33  1  0  0  0  0
 31 30  1  0  0  0  0
 31 32  1  0  0  0  0
 33 34  1  0  0  0  0
M  END
>  <MODEL>
6

>  <REMARK>
 VINA RESULT:      -4.9      3.076      6.716
  Name = 
  6 active torsions:
  status: ('A' for Active; 'I' for Inactive)
    1  A    between atoms: C_1  and  C_6
    2  A    between atoms: O_2  and  C_15
    3  A    between atoms: C_11  and  CA_20
    4  A    between atoms: C_12  and  C_28
    5  A    between atoms: N_13  and  CA_20
    6  A    between atoms: CB_14  and  CA_20
                            x       y       z     vdW  Elec       q    Type
                         _______ _______ _______ _____ _____    ______ ____

>  <TORSDO>
F 6

$$$$
=
 OpenBabel10262419173D

 34 37  0  0  1  0  0  0  0  0999 V2000
  182.3090  174.6180  137.0230 C   0  0  2  0  0  3  0  0  0  0  0  0
  189.0810  179.9480  137.2560 O   0  0  0  0  0  0  0  0  0  0  0  0
  183.6290  176.8410  136.7390 C   0  0  1  0  0  3  0  0  0  0  0  0
  185.6340  177.0000  138.3420 C   0  0  1  0  0  3  0  0  0  0  0  0
  185.7620  177.8740  135.9840 C   0  0  0  0  0  3  0  0  0  0  0  0
  189.9410  178.2160  138.5290 N   0  0  0  0  0  2  0  0  0  0  0  0
  183.1310  175.5310  136.0970 C   0  0  2  0  0  3  0  0  0  0  0  0
  186.9410  178.4320  136.2620 C   0  0  0  0  0  3  0  0  0  0  0  0
  187.1570  177.0900  138.3900 C   0  0  0  0  0  2  0  0  0  0  0  0
  182.8650  177.2290  138.0230 C   0  0  2  0  0  3  0  0  0  0  0  0
  182.8540  174.6780  138.4430 C   0  0  0  0  0  2  0  0  0  0  0  0
  184.9940  178.1970  139.0650 C   0  0  0  0  0  2  0  0  0  0  0  0
  183.5280  178.4610  138.6620 C   0  0  2  0  0  3  0  0  0  0  0  0
  187.6690  178.1010  137.4560 N   0  0  0  0  0  0  0  0  0  0  0  0
  185.1590  176.8370  136.8860 C   0  0  2  0  0  3  0  0  0  0  0  0
  182.6890  176.0780  139.0390 C   0  0  0  0  0  2  0  0  0  0  0  0
  188.9010  178.7930  137.7300 C   0  0  0  0  0  0  0  0  0  0  0  0
  180.3860  178.7930  140.6240 C   0  0  0  0  0  0  0  0  0  0  0  0
  180.8600  178.8070  141.9430 O   0  0  0  0  0  0  0  0  0  0  0  0
  182.7120  179.0550  139.8180 C   0  0  1  0  0  3  0  0  0  0  0  0
  182.2360  179.0360  142.2550 C   0  0  0  0  0  2  0  0  0  0  0  0
  181.2330  178.8700  139.5950 C   0  0  0  0  0  3  0  0  0  0  0  0
  183.1260  178.4490  141.1630 C   0  0  0  0  0  2  0  0  0  0  0  0
  178.9310  178.6400  140.3660 C   0  0  0  0  0  1  0  0  0  0  0  0
  182.3190  173.2100  136.5220 C   0  0  0  0  0  0  0  0  0  0  0  0
  181.1180  172.5530  136.2970 O   0  0  0  0  0  0  0  0  0  0  0  0
  183.4080  172.6150  136.3000 O   0  0  0  0  0  1  0  0  0  0  0  0
  182.5410  175.7280  134.8290 O   0  0  0  0  0  0  0  0  0  0  0  0
  181.5930  176.7590  134.9280 C   0  0  0  0  0  1  0  0  0  0  0  0
  190.0390  176.8020  138.8730 C   0  0  1  0  0  3  0  0  0  0  0  0
  190.8070  176.0430  137.7940 C   0  0  0  0  0  2  0  0  0  0  0  0
  190.7300  174.6650  138.0080 O   0  0  0  0  0  1  0  0  0  0  0  0
  190.7050  176.6530  140.2310 C   0  0  0  0  0  2  0  0  0  0  0  0
  189.6040  177.2570  141.5430 S   0  0  0  0  0  1  0  0  0  0  0  0
  1 25  1  6  0  0  0
  1 11  1  0  0  0  0
  2 17  2  0  0  0  0
  3 15  1  0  0  0  0
  3 10  1  0  0  0  0
  4  9  1  0  0  0  0
  4 12  1  0  0  0  0
  5  8  2  0  0  0  0
  5 15  1  0  0  0  0
  6 30  1  0  0  0  0
  7  3  1  0  0  0  0
  7  1  1  0  0  0  0
  8 14  1  0  0  0  0
 10 13  1  0  0  0  0
 10 16  1  0  0  0  0
 11 16  1  0  0  0  0
 13 12  1  0  0  0  0
 13 20  1  0  0  0  0
 14 17  1  0  0  0  0
 14  9  1  0  0  0  0
 15  4  1  0  0  0  0
 17  6  1  0  0  0  0
 18 19  1  0  0  0  0
 19 21  1  0  0  0  0
 20 23  1  0  0  0  0
 22 20  1  0  0  0  0
 22 18  2  0  0  0  0
 23 21  1  0  0  0  0
 24 18  1  0  0  0  0
 26 25  2  0  0  0  0
 27 25  1  0  0  0  0
 28 29  1  0  0  0  0
 28  7  1  0  0  0  0
 30 33  1  0  0  0  0
 31 32  1  0  0  0  0
 31 30  1  0  0  0  0
 33 34  1  0  0  0  0
M  END
>  <MODEL>
7

>  <REMARK>
 VINA RESULT:      -4.7      2.756      3.506
  Name = 
  6 active torsions:
  status: ('A' for Active; 'I' for Inactive)
    1  A    between atoms: C_1  and  C_6
    2  A    between atoms: O_2  and  C_15
    3  A    between atoms: C_11  and  CA_20
    4  A    between atoms: C_12  and  C_28
    5  A    between atoms: N_13  and  CA_20
    6  A    between atoms: CB_14  and  CA_20
                            x       y       z     vdW  Elec       q    Type
                         _______ _______ _______ _____ _____    ______ ____

>  <TORSDO>
F 6

$$$$
=
 OpenBabel10262419173D

 34 37  0  0  1  0  0  0  0  0999 V2000
  180.8620  179.3560  142.2590 C   0  0  2  0  0  3  0  0  0  0  0  0
  180.6640  175.3220  134.6430 O   0  0  0  0  0  0  0  0  0  0  0  0
  181.0040  179.0890  139.6750 C   0  0  1  0  0  3  0  0  0  0  0  0
  181.6940  176.7140  138.9730 C   0  0  1  0  0  3  0  0  0  0  0  0
  179.9900  178.0290  137.6670 C   0  0  0  0  0  3  0  0  0  0  0  0
  180.7570  173.4700  136.0290 N   0  0  0  0  0  2  0  0  0  0  0  0
  180.1330  179.4140  140.9050 C   0  0  2  0  0  3  0  0  0  0  0  0
  180.0120  177.0990  136.7120 C   0  0  0  0  0  3  0  0  0  0  0  0
  181.2160  175.4720  138.2240 C   0  0  0  0  0  2  0  0  0  0  0  0
  182.5200  179.2030  139.9450 C   0  0  2  0  0  3  0  0  0  0  0  0
  181.8900  178.2330  142.2570 C   0  0  0  0  0  2  0  0  0  0  0  0
  183.0030  177.2450  138.3670 C   0  0  0  0  0  2  0  0  0  0  0  0
  183.2980  178.7210  138.7080 C   0  0  2  0  0  3  0  0  0  0  0  0
  180.6310  175.8180  136.9220 N   0  0  0  0  0  0  0  0  0  0  0  0
  180.5710  177.7660  139.0260 C   0  0  2  0  0  3  0  0  0  0  0  0
  182.9980  178.5000  141.2350 C   0  0  0  0  0  2  0  0  0  0  0  0
  180.6830  174.8870  135.8260 C   0  0  0  0  0  0  0  0  0  0  0  0
  186.5500  178.6320  140.5100 C   0  0  0  0  0  0  0  0  0  0  0  0
  187.4410  178.2510  139.4960 O   0  0  0  0  0  0  0  0  0  0  0  0
  184.8040  179.0020  138.7950 C   0  0  1  0  0  3  0  0  0  0  0  0
  187.0920  178.3190  138.1120 C   0  0  0  0  0  2  0  0  0  0  0  0
  185.2880  178.9560  140.2210 C   0  0  0  0  0  3  0  0  0  0  0  0
  185.6060  178.0230  137.9310 C   0  0  0  0  0  2  0  0  0  0  0  0
  187.0010  178.6240  141.9260 C   0  0  0  0  0  1  0  0  0  0  0  0
  179.8890  179.1660  143.3760 C   0  0  0  0  0  0  0  0  0  0  0  0
  179.6720  177.8950  143.8880 O   0  0  0  0  0  1  0  0  0  0  0  0
  179.2650  180.1490  143.8590 O   0  0  0  0  0  0  0  0  0  0  0  0
  179.3510  180.5770  140.7350 O   0  0  0  0  0  0  0  0  0  0  0  0
  179.7090  181.1880  139.5230 C   0  0  0  0  0  1  0  0  0  0  0  0
  180.4650  172.7930  137.2870 C   0  0  1  0  0  3  0  0  0  0  0  0
  179.0300  172.2700  137.2900 C   0  0  0  0  0  2  0  0  0  0  0  0
  178.9330  171.0850  136.5580 O   0  0  0  0  0  1  0  0  0  0  0  0
  181.4610  171.6660  137.5030 C   0  0  0  0  0  2  0  0  0  0  0  0
  183.0360  172.0520  136.6830 S   0  0  0  0  0  1  0  0  0  0  0  0
  1 25  1  1  0  0  0
  2 17  2  0  0  0  0
  3 10  1  0  0  0  0
  3  7  1  0  0  0  0
  4 15  1  0  0  0  0
  5 15  1  0  0  0  0
  6 30  1  0  0  0  0
  7  1  1  0  0  0  0
  8 14  1  0  0  0  0
  8  5  2  0  0  0  0
  9  4  1  0  0  0  0
 10 16  1  0  0  0  0
 11  1  1  0  0  0  0
 12 13  1  0  0  0  0
 12  4  1  0  0  0  0
 13 20  1  0  0  0  0
 13 10  1  0  0  0  0
 14  9  1  0  0  0  0
 15  3  1  0  0  0  0
 16 11  1  0  0  0  0
 17  6  1  0  0  0  0
 17 14  1  0  0  0  0
 18 24  1  0  0  0  0
 19 18  1  0  0  0  0
 20 22  1  0  0  0  0
 21 19  1  0  0  0  0
 22 18  2  0  0  0  0
 23 21  1  0  0  0  0
 23 20  1  0  0  0  0
 25 27  2  0  0  0  0
 25 26  1  0  0  0  0
 28  7  1  0  0  0  0
 29 28  1  0  0  0  0
 30 31  1  0  0  0  0
 30 33  1  0  0  0  0
 32 31  1  0  0  0  0
 34 33  1  0  0  0  0
M  END
>  <MODEL>
8

>  <REMARK>
 VINA RESULT:      -4.7      3.279      6.988
  Name = 
  6 active torsions:
  status: ('A' for Active; 'I' for Inactive)
    1  A    between atoms: C_1  and  C_6
    2  A    between atoms: O_2  and  C_15
    3  A    between atoms: C_11  and  CA_20
    4  A    between atoms: C_12  and  C_28
    5  A    between atoms: N_13  and  CA_20
    6  A    between atoms: CB_14  and  CA_20
                            x       y       z     vdW  Elec       q    Type
                         _______ _______ _______ _____ _____    ______ ____

>  <TORSDO>
F 6

$$$$
=
 OpenBabel10262419173D

 34 37  0  0  1  0  0  0  0  0999 V2000
  181.5380  175.4590  137.1990 C   0  0  2  0  0  3  0  0  0  0  0  0
  189.4250  177.8780  134.6960 O   0  0  0  0  0  0  0  0  0  0  0  0
  183.4120  177.0630  136.3740 C   0  0  1  0  0  3  0  0  0  0  0  0
  185.7550  176.2820  137.0900 C   0  0  1  0  0  3  0  0  0  0  0  0
  185.3500  177.3310  134.8370 C   0  0  0  0  0  3  0  0  0  0  0  0
  189.9510  175.8090  135.5930 N   0  0  0  0  0  2  0  0  0  0  0  0
  182.2540  176.1160  136.0050 C   0  0  2  0  0  3  0  0  0  0  0  0
  186.6660  177.3820  134.6310 C   0  0  0  0  0  3  0  0  0  0  0  0
  187.1020  175.8030  136.5540 C   0  0  0  0  0  2  0  0  0  0  0  0
  183.3750  177.5430  137.8410 C   0  0  2  0  0  3  0  0  0  0  0  0
  182.5370  175.1420  138.3030 C   0  0  0  0  0  2  0  0  0  0  0  0
  185.9320  177.5310  137.9690 C   0  0  0  0  0  2  0  0  0  0  0  0
  184.6420  178.3590  138.1470 C   0  0  2  0  0  3  0  0  0  0  0  0
  187.5890  176.6640  135.4680 N   0  0  0  0  0  0  0  0  0  0  0  0
  184.7640  176.4830  135.9290 C   0  0  2  0  0  3  0  0  0  0  0  0
  183.1490  176.4200  138.8790 C   0  0  0  0  0  2  0  0  0  0  0  0
  189.0000  176.8200  135.2340 C   0  0  0  0  0  0  0  0  0  0  0  0
  183.1890  178.8430  141.5350 C   0  0  0  0  0  0  0  0  0  0  0  0
  184.3330  179.0200  142.3270 O   0  0  0  0  0  0  0  0  0  0  0  0
  184.5930  179.0630  139.5090 C   0  0  1  0  0  3  0  0  0  0  0  0
  185.6110  179.3150  141.7600 C   0  0  0  0  0  2  0  0  0  0  0  0
  183.2780  178.8200  140.2040 C   0  0  0  0  0  3  0  0  0  0  0  0
  185.7560  178.6270  140.4060 C   0  0  0  0  0  2  0  0  0  0  0  0
  181.8700  178.6280  142.1860 C   0  0  0  0  0  1  0  0  0  0  0  0
  180.8260  174.2170  136.7710 C   0  0  0  0  0  0  0  0  0  0  0  0
  181.5410  173.0400  136.6040 O   0  0  0  0  0  1  0  0  0  0  0  0
  179.5830  174.2290  136.5620 O   0  0  0  0  0  0  0  0  0  0  0  0
  181.3710  176.6680  135.0520 O   0  0  0  0  0  0  0  0  0  0  0  0
  180.6520  177.7120  135.6560 C   0  0  0  0  0  1  0  0  0  0  0  0
  189.6150  174.4270  135.9130 C   0  0  1  0  0  3  0  0  0  0  0  0
  189.7090  173.5530  134.6650 C   0  0  0  0  0  2  0  0  0  0  0  0
  189.4920  172.2100  134.9810 O   0  0  0  0  0  1  0  0  0  0  0  0
  190.5360  173.9190  137.0100 C   0  0  0  0  0  2  0  0  0  0  0  0
  191.2570  175.3140  137.9230 S   0  0  0  0  0  1  0  0  0  0  0  0
  1 25  1  6  0  0  0
  1 11  1  0  0  0  0
  2 17  2  0  0  0  0
  3 10  1  0  0  0  0
  4 12  1  0  0  0  0
  5 15  1  0  0  0  0
  6 30  1  0  0  0  0
  7  3  1  0  0  0  0
  7  1  1  0  0  0  0
  8  5  2  0  0  0  0
  8 14  1  0  0  0  0
  9  4  1  0  0  0  0
 10 13  1  0  0  0  0
 10 16  1  0  0  0  0
 11 16  1  0  0  0  0
 12 13  1  0  0  0  0
 13 20  1  0  0  0  0
 14  9  1  0  0  0  0
 15  3  1  0  0  0  0
 15  4  1  0  0  0  0
 17 14  1  0  0  0  0
 17  6  1  0  0  0  0
 18 24  1  0  0  0  0
 18 19  1  0  0  0  0
 20 22  1  0  0  0  0
 20 23  1  0  0  0  0
 21 19  1  0  0  0  0
 22 18  2  0  0  0  0
 23 21  1  0  0  0  0
 26 25  1  0  0  0  0
 27 25  2  0  0  0  0
 28 29  1  0  0  0  0
 28  7  1  0  0  0  0
 30 33  1  0  0  0  0
 31 32  1  0  0  0  0
 31 30  1  0  0  0  0
 33 34  1  0  0  0  0
M  END
>  <MODEL>
9

>  <REMARK>
 VINA RESULT:      -4.6      3.550      4.675
  Name = 
  6 active torsions:
  status: ('A' for Active; 'I' for Inactive)
    1  A    between atoms: C_1  and  C_6
    2  A    between atoms: O_2  and  C_15
    3  A    between atoms: C_11  and  CA_20
    4  A    between atoms: C_12  and  C_28
    5  A    between atoms: N_13  and  CA_20
    6  A    between atoms: CB_14  and  CA_20
                            x       y       z     vdW  Elec       q    Type
                         _______ _______ _______ _____ _____    ______ ____

>  <TORSDO>
F 6

$$$$
