=
 OpenBabel10262423093D

 37 38  0  0  1  0  0  0  0  0999 V2000
  181.7090  177.7390  140.7880 O   0  0  0  0  0  0  0  0  0  0  0  0
  179.5030  177.9670  139.6440 C   0  0  2  0  0  0  0  0  0  0  0  0
  181.7960  178.9340  141.5110 C   0  0  2  0  0  3  0  0  0  0  0  0
  181.0500  178.0460  139.5810 C   0  0  1  0  0  3  0  0  0  0  0  0
  180.6290  177.9420  143.3780 O   0  0  0  0  0  1  0  0  0  0  0  0
  178.9320  178.9570  138.8410 O   0  0  0  0  0  1  0  0  0  0  0  0
  181.7370  179.0720  138.6370 C   0  0  2  0  0  3  0  0  0  0  0  0
  179.2770  180.5150  141.1930 C   0  0  0  0  0  1  0  0  0  0  0  0
  178.9310  178.0860  141.0860 C   0  0  0  0  0  2  0  0  0  0  0  0
  183.2690  178.9280  138.6580 C   0  0  0  0  0  2  0  0  0  0  0  0
  179.3550  179.2420  141.9010 N   0  0  0  0  0  0  0  0  0  0  0  0
  183.2360  179.2190  141.9850 C   0  0  2  0  0  3  0  0  0  0  0  0
  184.2080  178.9600  140.8230 C   0  0  0  0  0  2  0  0  0  0  0  0
  183.8750  179.7860  139.6730 N   0  0  0  0  0  2  0  0  0  0  0  0
  180.6660  179.0590  142.5380 C   0  0  2  0  0  3  0  0  0  0  0  0
  179.5140  175.4380  139.9600 C   0  0  0  0  0  1  0  0  0  0  0  0
  179.1020  176.6000  139.0660 C   0  0  2  0  0  3  0  0  0  0  0  0
  179.6340  176.4150  137.7870 O   0  0  0  0  0  1  0  0  0  0  0  0
  182.8230  178.7700  144.3190 O   0  0  0  0  0  1  0  0  0  0  0  0
  183.6360  178.4140  143.2400 C   0  0  2  0  0  3  0  0  0  0  0  0
  186.0410  178.0660  142.9240 C   0  0  0  0  0  0  0  0  0  0  0  0
  185.0760  178.5880  143.6370 C   0  0  0  0  0  0  0  0  0  0  0  0
  186.9520  177.5720  142.2480 O   0  0  0  0  0  0  0  0  0  0  0  0
  185.4130  179.4320  144.8210 C   0  0  0  0  0  2  0  0  0  0  0  0
  185.0050  178.3110  146.9610 C   0  0  0  0  0  2  0  0  0  0  0  0
  187.2040  177.9560  145.9640 C   0  0  0  0  0  1  0  0  0  0  0  0
  185.8540  178.5890  145.9760 C   0  0  0  0  0  0  0  0  0  0  0  0
  181.3470  180.3880  138.9330 O   0  0  0  0  0  0  0  0  0  0  0  0
  181.0390  180.0900  136.5730 C   0  0  0  0  0  1  0  0  0  0  0  0
  181.2980  181.0710  137.7080 C   0  0  1  0  0  3  0  0  0  0  0  0
  180.2530  182.2020  137.7410 C   0  0  2  0  0  0  0  0  0  0  0  0
  179.9600  182.5340  139.0650 O   0  0  0  0  0  1  0  0  0  0  0  0
  179.0910  181.7550  137.1410 F   0  0  0  0  0  0  0  0  0  0  0  0
  180.8190  183.7010  136.8600 P   0  0  0  0  0  0  0  0  0  0  0  0
  179.6740  184.9360  137.0220 O   0  0  0  0  0  1  0  0  0  0  0  0
  181.0260  183.3980  135.3940 O   0  0  0  0  0  0  0  0  0  0  0  0
  182.2830  184.2170  137.5300 O   0  0  0  0  0  1  0  0  0  0  0  0
  2  6  1  6  0  0  0
  2  9  1  0  0  0  0
  3  1  1  1  0  0  0
  3 12  1  0  0  0  0
  3 15  1  0  0  0  0
  4  2  1  0  0  0  0
  4  1  1  1  0  0  0
  7 10  1  0  0  0  0
  7 28  1  1  0  0  0
  7  4  1  0  0  0  0
  8 11  1  0  0  0  0
  9 11  1  0  0  0  0
 10 14  1  0  0  0  0
 11 15  1  0  0  0  0
 12 20  1  1  0  0  0
 13 12  1  0  0  0  0
 14 13  1  0  0  0  0
 15  5  1  6  0  0  0
 17  2  1  0  0  0  0
 17 16  1  1  0  0  0
 18 17  1  0  0  0  0
 20 22  1  0  0  0  0
 20 19  1  1  0  0  0
 21 22  2  0  0  0  0
 22 24  1  0  0  0  0
 23 21  2  0  0  0  0
 24 27  1  0  0  0  0
 26 27  1  0  0  0  0
 27 25  2  0  0  0  0
 30 29  1  6  0  0  0
 30 31  1  0  0  0  0
 30 28  1  0  0  0  0
 31 33  1  6  0  0  0
 31 32  1  0  0  0  0
 34 35  1  0  0  0  0
 34 37  1  0  0  0  0
 34 31  1  0  0  0  0
 36 34  2  0  0  0  0
M  END
>  <MODEL>
1

>  <REMARK>
 VINA RESULT:      -6.5      0.000      0.000
  Name = 
  9 active torsions:
  status: ('A' for Active; 'I' for Inactive)
    1  A    between atoms: C_1  and  P_5
    2  A    between atoms: C_1  and  C_23
    3  A    between atoms: C_6  and  C_8
    4  A    between atoms: C_6  and  C_31
    5  A    between atoms: C_8  and  C_19
    6  A    between atoms: C_9  and  C_30
    7  A    between atoms: C_20  and  O_25
    8  A    between atoms: C_23  and  O_25
    9  A    between atoms: C_29  and  C_31
                            x       y       z     vdW  Elec       q    Type
                         _______ _______ _______ _____ _____    ______ ____

>  <TORSDO>
F 9

$$$$
=
 OpenBabel10262423093D

 37 38  0  0  1  0  0  0  0  0999 V2000
  188.3440  176.1200  138.4520 O   0  0  0  0  0  0  0  0  0  0  0  0
  188.1730  175.8260  135.9800 C   0  0  2  0  0  0  0  0  0  0  0  0
  188.9270  177.3870  138.5640 C   0  0  2  0  0  3  0  0  0  0  0  0
  188.9070  175.5160  137.3100 C   0  0  1  0  0  3  0  0  0  0  0  0
  186.7560  178.4420  138.5020 O   0  0  0  0  0  1  0  0  0  0  0  0
  189.0890  175.9320  134.9310 O   0  0  0  0  0  1  0  0  0  0  0  0
  190.4430  175.2840  137.3130 C   0  0  2  0  0  3  0  0  0  0  0  0
  189.2430  178.6160  135.8560 C   0  0  0  0  0  1  0  0  0  0  0  0
  187.3050  177.1170  136.0320 C   0  0  0  0  0  2  0  0  0  0  0  0
  190.9590  174.9050  138.7120 C   0  0  0  0  0  2  0  0  0  0  0  0
  187.9530  178.3630  136.4890 N   0  0  0  0  0  0  0  0  0  0  0  0
  189.5040  177.6350  139.9720 C   0  0  2  0  0  3  0  0  0  0  0  0
  190.2910  176.3930  140.4190 C   0  0  0  0  0  2  0  0  0  0  0  0
  191.3560  176.0850  139.4770 N   0  0  0  0  0  2  0  0  0  0  0  0
  188.0400  178.4760  137.9510 C   0  0  2  0  0  3  0  0  0  0  0  0
  185.8480  174.8130  136.2370 C   0  0  0  0  0  1  0  0  0  0  0  0
  187.2550  174.6280  135.6860 C   0  0  2  0  0  3  0  0  0  0  0  0
  187.7980  173.4400  136.1840 O   0  0  0  0  0  1  0  0  0  0  0  0
  188.1570  179.3890  140.9350 O   0  0  0  0  0  1  0  0  0  0  0  0
  188.4310  178.0220  141.0120 C   0  0  2  0  0  3  0  0  0  0  0  0
  189.8360  178.2500  143.0070 C   0  0  0  0  0  0  0  0  0  0  0  0
  188.8100  177.6810  142.4280 C   0  0  0  0  0  0  0  0  0  0  0  0
  190.8050  178.7890  143.5560 O   0  0  0  0  0  0  0  0  0  0  0  0
  187.9570  176.7350  143.2060 C   0  0  0  0  0  2  0  0  0  0  0  0
  185.9360  177.9620  143.8450 C   0  0  0  0  0  2  0  0  0  0  0  0
  187.5390  177.5300  145.6330 C   0  0  0  0  0  1  0  0  0  0  0  0
  187.1160  177.4650  144.2040 C   0  0  0  0  0  0  0  0  0  0  0  0
  191.1340  176.3940  136.8010 O   0  0  0  0  0  0  0  0  0  0  0  0
  192.0690  176.3210  134.5940 C   0  0  0  0  0  1  0  0  0  0  0  0
  192.2010  175.8830  136.0460 C   0  0  1  0  0  3  0  0  0  0  0  0
  193.5570  176.2890  136.6500 C   0  0  2  0  0  0  0  0  0  0  0  0
  193.3530  177.1180  137.7540 O   0  0  0  0  0  1  0  0  0  0  0  0
  194.2730  176.9990  135.7040 F   0  0  0  0  0  0  0  0  0  0  0  0
  194.5540  174.8440  137.1630 P   0  0  0  0  0  0  0  0  0  0  0  0
  195.8810  174.6570  136.1290 O   0  0  0  0  0  0  0  0  0  0  0  0
  193.7110  173.5900  137.1280 O   0  0  0  0  0  1  0  0  0  0  0  0
  195.1140  175.0910  138.7390 O   0  0  0  0  0  1  0  0  0  0  0  0
  2  6  1  6  0  0  0
  2  9  1  0  0  0  0
  2  4  1  0  0  0  0
  3  1  1  1  0  0  0
  3 12  1  0  0  0  0
  4  7  1  0  0  0  0
  4  1  1  1  0  0  0
  7 28  1  1  0  0  0
  7 10  1  0  0  0  0
  8 11  1  0  0  0  0
  9 11  1  0  0  0  0
 10 14  1  0  0  0  0
 11 15  1  0  0  0  0
 12 13  1  0  0  0  0
 12 20  1  1  0  0  0
 14 13  1  0  0  0  0
 15  5  1  1  0  0  0
 15  3  1  0  0  0  0
 17  2  1  0  0  0  0
 17 18  1  0  0  0  0
 17 16  1  1  0  0  0
 20 19  1  1  0  0  0
 20 22  1  0  0  0  0
 21 23  2  0  0  0  0
 22 21  2  0  0  0  0
 22 24  1  0  0  0  0
 24 27  1  0  0  0  0
 25 27  2  0  0  0  0
 27 26  1  0  0  0  0
 30 29  1  6  0  0  0
 30 31  1  0  0  0  0
 30 28  1  0  0  0  0
 31 33  1  6  0  0  0
 31 34  1  0  0  0  0
 31 32  1  0  0  0  0
 34 37  1  0  0  0  0
 35 34  2  0  0  0  0
 36 34  1  0  0  0  0
M  END
>  <MODEL>
2

>  <REMARK>
 VINA RESULT:      -6.4      7.301     10.131
  Name = 
  9 active torsions:
  status: ('A' for Active; 'I' for Inactive)
    1  A    between atoms: C_1  and  P_5
    2  A    between atoms: C_1  and  C_23
    3  A    between atoms: C_6  and  C_8
    4  A    between atoms: C_6  and  C_31
    5  A    between atoms: C_8  and  C_19
    6  A    between atoms: C_9  and  C_30
    7  A    between atoms: C_20  and  O_25
    8  A    between atoms: C_23  and  O_25
    9  A    between atoms: C_29  and  C_31
                            x       y       z     vdW  Elec       q    Type
                         _______ _______ _______ _____ _____    ______ ____

>  <TORSDO>
F 9

$$$$
=
 OpenBabel10262423093D

 37 38  0  0  1  0  0  0  0  0999 V2000
  182.9950  177.7140  136.4320 O   0  0  0  0  0  0  0  0  0  0  0  0
  180.5390  178.1520  136.4010 C   0  0  2  0  0  0  0  0  0  0  0  0
  183.1010  176.6700  137.3580 C   0  0  2  0  0  3  0  0  0  0  0  0
  181.9560  178.5510  136.8860 C   0  0  1  0  0  3  0  0  0  0  0  0
  182.7440  175.0310  135.6200 O   0  0  0  0  0  1  0  0  0  0  0  0
  179.5930  178.4100  137.3960 O   0  0  0  0  0  1  0  0  0  0  0  0
  182.1410  179.2240  138.2750 C   0  0  2  0  0  3  0  0  0  0  0  0
  180.3810  175.8230  138.2690 C   0  0  0  0  0  1  0  0  0  0  0  0
  180.4250  176.6640  135.9620 C   0  0  0  0  0  2  0  0  0  0  0  0
  183.6060  179.6180  138.5250 C   0  0  0  0  0  2  0  0  0  0  0  0
  180.8820  175.6300  136.9120 N   0  0  0  0  0  0  0  0  0  0  0  0
  184.5490  176.4850  137.8560 C   0  0  2  0  0  3  0  0  0  0  0  0
  185.1460  177.8610  138.1890 C   0  0  0  0  0  2  0  0  0  0  0  0
  184.3450  178.5470  139.1910 N   0  0  0  0  0  2  0  0  0  0  0  0
  182.3360  175.4240  136.8980 C   0  0  2  0  0  3  0  0  0  0  0  0
  180.1540  180.5260  135.5570 C   0  0  0  0  0  1  0  0  0  0  0  0
  180.2110  179.0480  135.1950 C   0  0  2  0  0  3  0  0  0  0  0  0
  179.0080  178.6690  134.5940 O   0  0  0  0  0  1  0  0  0  0  0  0
  185.6310  174.4010  137.3030 O   0  0  0  0  0  1  0  0  0  0  0  0
  185.4420  175.7120  136.8610 C   0  0  2  0  0  3  0  0  0  0  0  0
  186.9110  177.4150  135.8870 C   0  0  0  0  0  0  0  0  0  0  0  0
  186.7860  176.3490  136.6350 C   0  0  0  0  0  0  0  0  0  0  0  0
  187.0280  178.4240  135.1810 O   0  0  0  0  0  0  0  0  0  0  0  0
  187.9840  175.7980  137.3350 C   0  0  0  0  0  2  0  0  0  0  0  0
  190.0040  177.1850  137.3540 C   0  0  0  0  0  2  0  0  0  0  0  0
  188.2980  177.7490  139.0050 C   0  0  0  0  0  1  0  0  0  0  0  0
  188.8270  176.8960  137.9030 C   0  0  0  0  0  0  0  0  0  0  0  0
  181.6480  178.4140  139.3100 O   0  0  0  0  0  0  0  0  0  0  0  0
  180.5370  180.5060  139.6860 C   0  0  0  0  0  1  0  0  0  0  0  0
  181.1970  179.2850  140.3140 C   0  0  1  0  0  3  0  0  0  0  0  0
  180.2580  178.5650  141.2980 C   0  0  2  0  0  0  0  0  0  0  0  0
  180.4740  177.1870  141.2320 O   0  0  0  0  0  1  0  0  0  0  0  0
  178.9490  178.8140  140.9310 F   0  0  0  0  0  0  0  0  0  0  0  0
  180.4900  179.1250  143.0220 P   0  0  0  0  0  0  0  0  0  0  0  0
  179.9970  180.7360  143.1810 O   0  0  0  0  0  0  0  0  0  0  0  0
  181.9440  179.0050  143.4190 O   0  0  0  0  0  1  0  0  0  0  0  0
  179.5550  178.1600  144.0490 O   0  0  0  0  0  1  0  0  0  0  0  0
  2  4  1  0  0  0  0
  2  6  1  1  0  0  0
  3  1  1  6  0  0  0
  3 12  1  0  0  0  0
  4  1  1  1  0  0  0
  4  7  1  0  0  0  0
  7 10  1  0  0  0  0
  7 28  1  1  0  0  0
  9  2  1  0  0  0  0
  9 11  1  0  0  0  0
 10 14  1  0  0  0  0
 11  8  1  0  0  0  0
 12 20  1  6  0  0  0
 12 13  1  0  0  0  0
 13 14  1  0  0  0  0
 15  5  1  6  0  0  0
 15 11  1  0  0  0  0
 15  3  1  0  0  0  0
 17 16  1  1  0  0  0
 17  2  1  0  0  0  0
 18 17  1  0  0  0  0
 20 19  1  1  0  0  0
 21 22  2  0  0  0  0
 22 20  1  0  0  0  0
 22 24  1  0  0  0  0
 23 21  2  0  0  0  0
 24 27  1  0  0  0  0
 25 27  2  0  0  0  0
 27 26  1  0  0  0  0
 28 30  1  0  0  0  0
 30 29  1  6  0  0  0
 30 31  1  0  0  0  0
 31 33  1  6  0  0  0
 31 34  1  0  0  0  0
 32 31  1  0  0  0  0
 34 35  2  0  0  0  0
 34 36  1  0  0  0  0
 34 37  1  0  0  0  0
M  END
>  <MODEL>
3

>  <REMARK>
 VINA RESULT:      -5.5      4.013      6.178
  Name = 
  9 active torsions:
  status: ('A' for Active; 'I' for Inactive)
    1  A    between atoms: C_1  and  P_5
    2  A    between atoms: C_1  and  C_23
    3  A    between atoms: C_6  and  C_8
    4  A    between atoms: C_6  and  C_31
    5  A    between atoms: C_8  and  C_19
    6  A    between atoms: C_9  and  C_30
    7  A    between atoms: C_20  and  O_25
    8  A    between atoms: C_23  and  O_25
    9  A    between atoms: C_29  and  C_31
                            x       y       z     vdW  Elec       q    Type
                         _______ _______ _______ _____ _____    ______ ____

>  <TORSDO>
F 9

$$$$
=
 OpenBabel10262423093D

 37 38  0  0  1  0  0  0  0  0999 V2000
  180.6290  177.0230  137.9810 O   0  0  0  0  0  0  0  0  0  0  0  0
  180.7290  174.6720  137.1500 C   0  0  2  0  0  0  0  0  0  0  0  0
  181.1340  177.7460  136.8950 C   0  0  2  0  0  3  0  0  0  0  0  0
  181.3360  175.8040  138.0180 C   0  0  1  0  0  3  0  0  0  0  0  0
  178.9310  177.9060  135.9170 O   0  0  0  0  0  1  0  0  0  0  0  0
  181.7440  173.8890  136.5920 O   0  0  0  0  0  1  0  0  0  0  0  0
  182.8730  175.8820  138.2290 C   0  0  2  0  0  3  0  0  0  0  0  0
  181.6680  175.9100  134.5950 C   0  0  0  0  0  1  0  0  0  0  0  0
  179.7990  175.1860  136.0140 C   0  0  0  0  0  2  0  0  0  0  0  0
  183.2590  177.0200  139.1890 C   0  0  0  0  0  2  0  0  0  0  0  0
  180.3330  176.2150  135.0990 N   0  0  0  0  0  0  0  0  0  0  0  0
  181.5490  179.1760  137.2960 C   0  0  2  0  0  3  0  0  0  0  0  0
  182.3450  179.1180  138.6090 C   0  0  0  0  0  2  0  0  0  0  0  0
  183.5160  178.2660  138.4700 N   0  0  0  0  0  2  0  0  0  0  0  0
  180.2620  177.5770  135.6450 C   0  0  2  0  0  3  0  0  0  0  0  0
  179.8360  174.3260  139.5120 C   0  0  0  0  0  1  0  0  0  0  0  0
  179.9080  173.7780  138.0930 C   0  0  2  0  0  3  0  0  0  0  0  0
  180.4110  172.4740  138.1230 O   0  0  0  0  0  1  0  0  0  0  0  0
  180.0660  180.6990  136.1560 O   0  0  0  0  0  1  0  0  0  0  0  0
  180.3560  180.1490  137.4070 C   0  0  2  0  0  3  0  0  0  0  0  0
  180.0600  181.2180  139.5920 C   0  0  0  0  0  0  0  0  0  0  0  0
  180.5760  181.2660  138.3900 C   0  0  0  0  0  0  0  0  0  0  0  0
  179.5730  181.1720  140.7290 O   0  0  0  0  0  0  0  0  0  0  0  0
  181.4570  182.4110  138.0140 C   0  0  0  0  0  2  0  0  0  0  0  0
  180.9860  183.9830  136.1960 C   0  0  0  0  0  2  0  0  0  0  0  0
  179.4390  184.0280  138.0810 C   0  0  0  0  0  1  0  0  0  0  0  0
  180.6650  183.5210  137.4000 C   0  0  0  0  0  0  0  0  0  0  0  0
  183.5580  175.9930  137.0090 O   0  0  0  0  0  0  0  0  0  0  0  0
  184.9400  174.0990  137.5160 C   0  0  0  0  0  1  0  0  0  0  0  0
  184.8810  175.5990  137.2590 C   0  0  1  0  0  3  0  0  0  0  0  0
  185.8170  176.0250  136.1140 C   0  0  2  0  0  0  0  0  0  0  0  0
  185.3260  177.1840  135.5110 O   0  0  0  0  0  1  0  0  0  0  0  0
  185.8460  175.0230  135.1630 F   0  0  0  0  0  0  0  0  0  0  0  0
  187.5280  176.3280  136.6860 P   0  0  0  0  0  0  0  0  0  0  0  0
  188.3580  177.2770  135.5570 O   0  0  0  0  0  0  0  0  0  0  0  0
  188.2560  175.0160  136.8700 O   0  0  0  0  0  1  0  0  0  0  0  0
  187.4800  177.1460  138.1650 O   0  0  0  0  0  1  0  0  0  0  0  0
  2  6  1  6  0  0  0
  2  4  1  0  0  0  0
  2 17  1  0  0  0  0
  3 12  1  0  0  0  0
  3  1  1  1  0  0  0
  4  1  1  6  0  0  0
  4  7  1  0  0  0  0
  7 28  1  6  0  0  0
  7 10  1  0  0  0  0
  8 11  1  0  0  0  0
  9  2  1  0  0  0  0
 11 15  1  0  0  0  0
 11  9  1  0  0  0  0
 12 20  1  1  0  0  0
 12 13  1  0  0  0  0
 14 13  1  0  0  0  0
 14 10  1  0  0  0  0
 15  5  1  1  0  0  0
 15  3  1  0  0  0  0
 17 18  1  0  0  0  0
 17 16  1  1  0  0  0
 20 19  1  6  0  0  0
 20 22  1  0  0  0  0
 21 23  2  0  0  0  0
 22 21  2  0  0  0  0
 24 22  1  0  0  0  0
 25 27  2  0  0  0  0
 27 24  1  0  0  0  0
 27 26  1  0  0  0  0
 28 30  1  0  0  0  0
 30 29  1  6  0  0  0
 31 33  1  6  0  0  0
 31 34  1  0  0  0  0
 31 30  1  0  0  0  0
 32 31  1  0  0  0  0
 34 36  1  0  0  0  0
 34 37  1  0  0  0  0
 35 34  2  0  0  0  0
M  END
>  <MODEL>
4

>  <REMARK>
 VINA RESULT:      -5.2      4.493      7.482
  Name = 
  9 active torsions:
  status: ('A' for Active; 'I' for Inactive)
    1  A    between atoms: C_1  and  P_5
    2  A    between atoms: C_1  and  C_23
    3  A    between atoms: C_6  and  C_8
    4  A    between atoms: C_6  and  C_31
    5  A    between atoms: C_8  and  C_19
    6  A    between atoms: C_9  and  C_30
    7  A    between atoms: C_20  and  O_25
    8  A    between atoms: C_23  and  O_25
    9  A    between atoms: C_29  and  C_31
                            x       y       z     vdW  Elec       q    Type
                         _______ _______ _______ _____ _____    ______ ____

>  <TORSDO>
F 9

$$$$
=
 OpenBabel10262423093D

 37 38  0  0  1  0  0  0  0  0999 V2000
  182.3440  177.7000  136.1070 O   0  0  0  0  0  0  0  0  0  0  0  0
  180.2720  179.0760  136.3060 C   0  0  2  0  0  0  0  0  0  0  0  0
  182.0050  176.5440  136.8190 C   0  0  2  0  0  3  0  0  0  0  0  0
  181.7220  178.7770  136.7680 C   0  0  1  0  0  3  0  0  0  0  0  0
  181.0490  175.5480  134.8370 O   0  0  0  0  0  1  0  0  0  0  0  0
  179.4930  179.4940  137.3880 O   0  0  0  0  0  1  0  0  0  0  0  0
  182.1370  179.0420  138.2420 C   0  0  2  0  0  3  0  0  0  0  0  0
  179.1580  176.6910  137.7250 C   0  0  0  0  0  1  0  0  0  0  0  0
  179.5770  177.8700  135.6110 C   0  0  0  0  0  2  0  0  0  0  0  0
  183.6330  178.7640  138.4710 C   0  0  0  0  0  2  0  0  0  0  0  0
  179.5630  176.5790  136.3280 N   0  0  0  0  0  0  0  0  0  0  0  0
  183.2460  175.7060  137.1850 C   0  0  2  0  0  3  0  0  0  0  0  0
  184.3410  176.6390  137.7260 C   0  0  0  0  0  2  0  0  0  0  0  0
  183.8660  177.3820  138.8830 N   0  0  0  0  0  2  0  0  0  0  0  0
  180.8120  175.8180  136.1880 C   0  0  2  0  0  3  0  0  0  0  0  0
  180.7150  181.5640  135.9690 C   0  0  0  0  0  1  0  0  0  0  0  0
  180.3540  180.2420  135.3060 C   0  0  2  0  0  3  0  0  0  0  0  0
  179.1580  180.3870  134.5980 O   0  0  0  0  0  1  0  0  0  0  0  0
  183.3410  173.5260  136.1560 O   0  0  0  0  0  1  0  0  0  0  0  0
  183.7710  174.8480  136.0140 C   0  0  2  0  0  3  0  0  0  0  0  0
  186.0240  174.1300  136.6580 C   0  0  0  0  0  0  0  0  0  0  0  0
  185.2690  174.8600  135.8770 C   0  0  0  0  0  0  0  0  0  0  0  0
  186.7370  173.4380  137.3950 O   0  0  0  0  0  0  0  0  0  0  0  0
  185.8990  175.6620  134.7870 C   0  0  0  0  0  2  0  0  0  0  0  0
  187.9490  176.3830  135.9180 C   0  0  0  0  0  2  0  0  0  0  0  0
  186.4620  178.1600  135.1550 C   0  0  0  0  0  1  0  0  0  0  0  0
  186.7960  176.7200  135.3460 C   0  0  0  0  0  0  0  0  0  0  0  0
  181.3420  178.3130  139.1410 O   0  0  0  0  0  0  0  0  0  0  0  0
  180.8540  180.5330  139.9060 C   0  0  0  0  0  1  0  0  0  0  0  0
  181.2180  179.1060  140.2930 C   0  0  1  0  0  3  0  0  0  0  0  0
  180.2050  178.5000  141.2810 C   0  0  2  0  0  0  0  0  0  0  0  0
  180.2610  177.1070  141.2180 O   0  0  0  0  0  1  0  0  0  0  0  0
  178.9320  178.8980  140.9170 F   0  0  0  0  0  0  0  0  0  0  0  0
  180.5060  179.0340  143.0040 P   0  0  0  0  0  0  0  0  0  0  0  0
  179.7480  177.9720  144.0810 O   0  0  0  0  0  1  0  0  0  0  0  0
  179.9700  180.4320  143.2180 O   0  0  0  0  0  0  0  0  0  0  0  0
  182.1700  179.0280  143.3020 O   0  0  0  0  0  1  0  0  0  0  0  0
  2  4  1  0  0  0  0
  2  6  1  1  0  0  0
  3  1  1  6  0  0  0
  3 12  1  0  0  0  0
  4  1  1  1  0  0  0
  4  7  1  0  0  0  0
  7 10  1  0  0  0  0
  7 28  1  1  0  0  0
  9  2  1  0  0  0  0
  9 11  1  0  0  0  0
 10 14  1  0  0  0  0
 11  8  1  0  0  0  0
 12 20  1  6  0  0  0
 12 13  1  0  0  0  0
 13 14  1  0  0  0  0
 15  5  1  6  0  0  0
 15 11  1  0  0  0  0
 15  3  1  0  0  0  0
 17 16  1  1  0  0  0
 17  2  1  0  0  0  0
 18 17  1  0  0  0  0
 20 19  1  1  0  0  0
 21 23  2  0  0  0  0
 22 20  1  0  0  0  0
 22 21  2  0  0  0  0
 24 27  1  0  0  0  0
 24 22  1  0  0  0  0
 26 27  1  0  0  0  0
 27 25  2  0  0  0  0
 28 30  1  0  0  0  0
 30 29  1  6  0  0  0
 30 31  1  0  0  0  0
 31 33  1  6  0  0  0
 31 34  1  0  0  0  0
 32 31  1  0  0  0  0
 34 36  2  0  0  0  0
 34 37  1  0  0  0  0
 34 35  1  0  0  0  0
M  END
>  <MODEL>
5

>  <REMARK>
 VINA RESULT:      -4.9      3.963      6.736
  Name = 
  9 active torsions:
  status: ('A' for Active; 'I' for Inactive)
    1  A    between atoms: C_1  and  P_5
    2  A    between atoms: C_1  and  C_23
    3  A    between atoms: C_6  and  C_8
    4  A    between atoms: C_6  and  C_31
    5  A    between atoms: C_8  and  C_19
    6  A    between atoms: C_9  and  C_30
    7  A    between atoms: C_20  and  O_25
    8  A    between atoms: C_23  and  O_25
    9  A    between atoms: C_29  and  C_31
                            x       y       z     vdW  Elec       q    Type
                         _______ _______ _______ _____ _____    ______ ____

>  <TORSDO>
F 9

$$$$
=
 OpenBabel10262423093D

 37 38  0  0  1  0  0  0  0  0999 V2000
  182.6360  177.7840  137.1870 O   0  0  0  0  0  0  0  0  0  0  0  0
  180.1450  177.9250  137.1320 C   0  0  2  0  0  0  0  0  0  0  0  0
  182.9120  176.9450  136.1010 C   0  0  2  0  0  3  0  0  0  0  0  0
  181.4310  177.3240  137.7550 C   0  0  1  0  0  3  0  0  0  0  0  0
  182.9660  178.8340  134.5960 O   0  0  0  0  0  1  0  0  0  0  0  0
  179.1260  176.9700  137.1030 O   0  0  0  0  0  1  0  0  0  0  0  0
  181.4180  175.8740  138.3160 C   0  0  2  0  0  3  0  0  0  0  0  0
  180.3840  176.2740  134.6500 C   0  0  0  0  0  1  0  0  0  0  0  0
  180.3520  178.4950  135.6990 C   0  0  0  0  0  2  0  0  0  0  0  0
  182.7620  175.5040  138.9660 C   0  0  0  0  0  2  0  0  0  0  0  0
  180.9690  177.6100  134.6900 N   0  0  0  0  0  0  0  0  0  0  0  0
  184.3450  176.3800  136.1580 C   0  0  2  0  0  3  0  0  0  0  0  0
  184.6380  175.8960  137.5870 C   0  0  0  0  0  2  0  0  0  0  0  0
  183.6730  174.8890  138.0040 N   0  0  0  0  0  2  0  0  0  0  0  0
  182.4340  177.5540  134.7780 C   0  0  2  0  0  3  0  0  0  0  0  0
  179.7250  180.4280  137.3710 C   0  0  0  0  0  1  0  0  0  0  0  0
  179.6930  179.0680  138.0560 C   0  0  2  0  0  3  0  0  0  0  0  0
  180.4660  179.1150  139.2200 O   0  0  0  0  0  1  0  0  0  0  0  0
  186.1410  176.8350  134.6130 O   0  0  0  0  0  1  0  0  0  0  0  0
  185.4160  177.3810  135.6750 C   0  0  2  0  0  3  0  0  0  0  0  0
  185.9470  178.3120  137.8790 C   0  0  0  0  0  0  0  0  0  0  0  0
  186.3770  177.8040  136.7520 C   0  0  0  0  0  0  0  0  0  0  0  0
  185.5400  178.7910  138.9450 O   0  0  0  0  0  0  0  0  0  0  0  0
  187.8400  177.5730  136.5620 C   0  0  0  0  0  2  0  0  0  0  0  0
  188.1680  175.2420  137.2380 C   0  0  0  0  0  2  0  0  0  0  0  0
  189.1650  176.9310  138.6890 C   0  0  0  0  0  1  0  0  0  0  0  0
  188.3480  176.5310  137.5070 C   0  0  0  0  0  0  0  0  0  0  0  0
  181.0570  174.9420  137.3300 O   0  0  0  0  0  0  0  0  0  0  0  0
  179.3910  174.1430  138.8590 C   0  0  0  0  0  1  0  0  0  0  0  0
  180.6080  173.8000  138.0100 C   0  0  1  0  0  3  0  0  0  0  0  0
  180.3230  172.6450  137.0340 C   0  0  2  0  0  0  0  0  0  0  0  0
  179.4140  173.0630  136.0620 O   0  0  0  0  0  1  0  0  0  0  0  0
  179.7530  171.5980  137.7350 F   0  0  0  0  0  0  0  0  0  0  0  0
  181.8380  172.0330  136.2140 P   0  0  0  0  0  0  0  0  0  0  0  0
  181.5000  170.6180  135.3500 O   0  0  0  0  0  1  0  0  0  0  0  0
  182.9100  171.7490  137.2410 O   0  0  0  0  0  1  0  0  0  0  0  0
  182.4000  173.2130  135.1400 O   0  0  0  0  0  0  0  0  0  0  0  0
  2  6  1  6  0  0  0
  2  4  1  0  0  0  0
  2 17  1  0  0  0  0
  3 12  1  0  0  0  0
  3  1  1  1  0  0  0
  4  1  1  6  0  0  0
  4  7  1  0  0  0  0
  7 28  1  6  0  0  0
  7 10  1  0  0  0  0
  8 11  1  0  0  0  0
  9  2  1  0  0  0  0
 11 15  1  0  0  0  0
 11  9  1  0  0  0  0
 12 20  1  1  0  0  0
 12 13  1  0  0  0  0
 13 14  1  0  0  0  0
 14 10  1  0  0  0  0
 15  5  1  1  0  0  0
 15  3  1  0  0  0  0
 17 16  1  6  0  0  0
 17 18  1  0  0  0  0
 20 19  1  6  0  0  0
 20 22  1  0  0  0  0
 21 23  2  0  0  0  0
 22 21  2  0  0  0  0
 24 22  1  0  0  0  0
 24 27  1  0  0  0  0
 25 27  2  0  0  0  0
 27 26  1  0  0  0  0
 28 30  1  0  0  0  0
 30 29  1  6  0  0  0
 31 32  1  6  0  0  0
 31 33  1  0  0  0  0
 31 30  1  0  0  0  0
 34 31  1  0  0  0  0
 34 36  1  0  0  0  0
 35 34  1  0  0  0  0
 37 34  2  0  0  0  0
M  END
>  <MODEL>
6

>  <REMARK>
 VINA RESULT:      -4.8      5.135      7.642
  Name = 
  9 active torsions:
  status: ('A' for Active; 'I' for Inactive)
    1  A    between atoms: C_1  and  P_5
    2  A    between atoms: C_1  and  C_23
    3  A    between atoms: C_6  and  C_8
    4  A    between atoms: C_6  and  C_31
    5  A    between atoms: C_8  and  C_19
    6  A    between atoms: C_9  and  C_30
    7  A    between atoms: C_20  and  O_25
    8  A    between atoms: C_23  and  O_25
    9  A    between atoms: C_29  and  C_31
                            x       y       z     vdW  Elec       q    Type
                         _______ _______ _______ _____ _____    ______ ____

>  <TORSDO>
F 9

$$$$
=
 OpenBabel10262423093D

 37 38  0  0  1  0  0  0  0  0999 V2000
  181.6690  177.3300  138.1190 O   0  0  0  0  0  0  0  0  0  0  0  0
  182.4750  175.4460  136.6950 C   0  0  2  0  0  0  0  0  0  0  0  0
  181.8490  178.4370  137.2820 C   0  0  2  0  0  3  0  0  0  0  0  0
  182.7330  176.4450  137.8520 C   0  0  1  0  0  3  0  0  0  0  0  0
  179.6600  178.1180  136.3130 O   0  0  0  0  0  1  0  0  0  0  0  0
  183.6540  175.2130  135.9820 O   0  0  0  0  0  1  0  0  0  0  0  0
  184.1730  176.9630  138.1250 C   0  0  2  0  0  3  0  0  0  0  0  0
  182.8130  177.5470  134.5940 C   0  0  0  0  0  1  0  0  0  0  0  0
  181.3640  175.9060  135.7090 C   0  0  0  0  0  2  0  0  0  0  0  0
  184.2250  177.8710  139.3660 C   0  0  0  0  0  2  0  0  0  0  0  0
  181.4830  177.2560  135.1190 N   0  0  0  0  0  0  0  0  0  0  0  0
  181.8020  179.7660  138.0630 C   0  0  2  0  0  3  0  0  0  0  0  0
  182.6500  179.6290  139.3370 C   0  0  0  0  0  2  0  0  0  0  0  0
  184.0240  179.2740  139.0130 N   0  0  0  0  0  2  0  0  0  0  0  0
  181.0080  178.3260  136.0060 C   0  0  2  0  0  3  0  0  0  0  0  0
  182.8800  172.9360  136.8700 C   0  0  0  0  0  1  0  0  0  0  0  0
  182.0430  174.1180  137.3390 C   0  0  2  0  0  3  0  0  0  0  0  0
  180.6920  173.8560  137.1020 O   0  0  0  0  0  1  0  0  0  0  0  0
  180.3160  181.6250  138.4510 O   0  0  0  0  0  1  0  0  0  0  0  0
  180.3680  180.2300  138.3910 C   0  0  2  0  0  3  0  0  0  0  0  0
  179.9540  180.3220  140.8050 C   0  0  0  0  0  0  0  0  0  0  0  0
  179.8300  179.6680  139.6790 C   0  0  0  0  0  0  0  0  0  0  0  0
  180.0700  180.9420  141.8700 O   0  0  0  0  0  0  0  0  0  0  0  0
  179.0780  178.3780  139.6580 C   0  0  0  0  0  2  0  0  0  0  0  0
  180.6060  177.7370  141.4620 C   0  0  0  0  0  2  0  0  0  0  0  0
  179.3270  175.9260  140.4430 C   0  0  0  0  0  1  0  0  0  0  0  0
  179.7360  177.3570  140.5310 C   0  0  0  0  0  0  0  0  0  0  0  0
  184.7120  177.6070  137.0010 O   0  0  0  0  0  0  0  0  0  0  0  0
  186.0930  176.3470  135.4980 C   0  0  0  0  0  1  0  0  0  0  0  0
  186.0030  177.0860  136.8270 C   0  0  1  0  0  3  0  0  0  0  0  0
  187.0710  178.1880  136.9470 C   0  0  2  0  0  0  0  0  0  0  0  0
  186.4540  179.4200  137.1660 O   0  0  0  0  0  1  0  0  0  0  0  0
  187.7730  178.2620  135.7580 F   0  0  0  0  0  0  0  0  0  0  0  0
  188.2590  177.8650  138.2980 P   0  0  0  0  0  0  0  0  0  0  0  0
  189.7660  178.5360  137.9200 O   0  0  0  0  0  0  0  0  0  0  0  0
  188.4140  176.3760  138.5130 O   0  0  0  0  0  1  0  0  0  0  0  0
  187.6830  178.5720  139.7220 O   0  0  0  0  0  1  0  0  0  0  0  0
  2  6  1  6  0  0  0
  2 17  1  0  0  0  0
  2  4  1  0  0  0  0
  3 12  1  0  0  0  0
  3  1  1  1  0  0  0
  4  1  1  6  0  0  0
  4  7  1  0  0  0  0
  7 28  1  6  0  0  0
  7 10  1  0  0  0  0
  8 11  1  0  0  0  0
  9  2  1  0  0  0  0
 11  9  1  0  0  0  0
 11 15  1  0  0  0  0
 12 20  1  1  0  0  0
 12 13  1  0  0  0  0
 14 13  1  0  0  0  0
 14 10  1  0  0  0  0
 15  5  1  1  0  0  0
 15  3  1  0  0  0  0
 17 16  1  6  0  0  0
 18 17  1  0  0  0  0
 20 19  1  1  0  0  0
 20 22  1  0  0  0  0
 21 23  2  0  0  0  0
 22 21  2  0  0  0  0
 24 22  1  0  0  0  0
 24 27  1  0  0  0  0
 26 27  1  0  0  0  0
 27 25  2  0  0  0  0
 30 29  1  6  0  0  0
 30 31  1  0  0  0  0
 30 28  1  0  0  0  0
 31 33  1  6  0  0  0
 31 32  1  0  0  0  0
 31 34  1  0  0  0  0
 34 36  1  0  0  0  0
 34 37  1  0  0  0  0
 35 34  2  0  0  0  0
M  END
>  <MODEL>
7

>  <REMARK>
 VINA RESULT:      -4.7      3.957      6.757
  Name = 
  9 active torsions:
  status: ('A' for Active; 'I' for Inactive)
    1  A    between atoms: C_1  and  P_5
    2  A    between atoms: C_1  and  C_23
    3  A    between atoms: C_6  and  C_8
    4  A    between atoms: C_6  and  C_31
    5  A    between atoms: C_8  and  C_19
    6  A    between atoms: C_9  and  C_30
    7  A    between atoms: C_20  and  O_25
    8  A    between atoms: C_23  and  O_25
    9  A    between atoms: C_29  and  C_31
                            x       y       z     vdW  Elec       q    Type
                         _______ _______ _______ _____ _____    ______ ____

>  <TORSDO>
F 9

$$$$
=
 OpenBabel10262423093D

 37 38  0  0  1  0  0  0  0  0999 V2000
  182.7990  177.9430  137.0260 O   0  0  0  0  0  0  0  0  0  0  0  0
  180.3320  177.8990  137.3990 C   0  0  2  0  0  0  0  0  0  0  0  0
  183.2690  177.0930  138.0330 C   0  0  2  0  0  3  0  0  0  0  0  0
  181.6910  178.6280  137.5620 C   0  0  1  0  0  3  0  0  0  0  0  0
  182.9990  175.1690  136.5980 O   0  0  0  0  0  1  0  0  0  0  0  0
  179.5220  178.1240  138.5150 O   0  0  0  0  0  1  0  0  0  0  0  0
  181.9450  179.5290  138.8030 C   0  0  2  0  0  3  0  0  0  0  0  0
  180.9700  175.8970  139.5260 C   0  0  0  0  0  1  0  0  0  0  0  0
  180.4700  176.3670  137.1680 C   0  0  0  0  0  2  0  0  0  0  0  0
  183.3140  180.2270  138.7290 C   0  0  0  0  0  2  0  0  0  0  0  0
  181.2800  175.5960  138.1320 N   0  0  0  0  0  0  0  0  0  0  0  0
  184.7830  177.2620  138.2710 C   0  0  2  0  0  3  0  0  0  0  0  0
  185.1190  178.7610  138.3220 C   0  0  0  0  0  2  0  0  0  0  0  0
  184.3580  179.4300  139.3670 N   0  0  0  0  0  2  0  0  0  0  0  0
  182.7240  175.6690  137.8730 C   0  0  2  0  0  3  0  0  0  0  0  0
  180.5040  178.4960  134.9270 C   0  0  0  0  0  1  0  0  0  0  0  0
  179.6350  178.5210  136.1770 C   0  0  2  0  0  3  0  0  0  0  0  0
  179.2310  179.8330  136.4370 O   0  0  0  0  0  1  0  0  0  0  0  0
  185.8190  175.1920  137.5940 O   0  0  0  0  0  1  0  0  0  0  0  0
  185.6520  176.5290  137.2270 C   0  0  2  0  0  3  0  0  0  0  0  0
  187.8600  177.2470  138.0110 C   0  0  0  0  0  0  0  0  0  0  0  0
  187.0070  177.1510  137.0230 C   0  0  0  0  0  0  0  0  0  0  0  0
  188.6670  177.3380  138.9440 O   0  0  0  0  0  0  0  0  0  0  0  0
  187.4100  177.5970  135.6570 C   0  0  0  0  0  2  0  0  0  0  0  0
  187.9810  175.4600  134.6040 C   0  0  0  0  0  2  0  0  0  0  0  0
  189.8020  177.0690  134.8230 C   0  0  0  0  0  1  0  0  0  0  0  0
  188.3900  176.6450  135.0480 C   0  0  0  0  0  0  0  0  0  0  0  0
  181.8050  178.8090  140.0000 O   0  0  0  0  0  0  0  0  0  0  0  0
  180.1860  180.5010  140.5200 C   0  0  0  0  0  1  0  0  0  0  0  0
  181.4220  179.7390  140.9790 C   0  0  1  0  0  3  0  0  0  0  0  0
  181.2070  179.0590  142.3420 C   0  0  2  0  0  0  0  0  0  0  0  0
  180.6820  177.7790  142.1530 O   0  0  0  0  0  1  0  0  0  0  0  0
  180.2920  179.7960  143.0710 F   0  0  0  0  0  0  0  0  0  0  0  0
  182.7510  178.9340  143.3130 P   0  0  0  0  0  0  0  0  0  0  0  0
  183.9070  178.0460  142.4540 O   0  0  0  0  0  0  0  0  0  0  0  0
  182.4820  178.2580  144.6380 O   0  0  0  0  0  1  0  0  0  0  0  0
  183.3520  180.4890  143.5980 O   0  0  0  0  0  1  0  0  0  0  0  0
  2  4  1  0  0  0  0
  2  6  1  1  0  0  0
  3  1  1  6  0  0  0
  3 12  1  0  0  0  0
  4  1  1  1  0  0  0
  4  7  1  0  0  0  0
  7 28  1  1  0  0  0
  9  2  1  0  0  0  0
  9 11  1  0  0  0  0
 10  7  1  0  0  0  0
 10 14  1  0  0  0  0
 11  8  1  0  0  0  0
 12 20  1  6  0  0  0
 12 13  1  0  0  0  0
 13 14  1  0  0  0  0
 15  5  1  6  0  0  0
 15  3  1  0  0  0  0
 15 11  1  0  0  0  0
 17 16  1  6  0  0  0
 17 18  1  0  0  0  0
 17  2  1  0  0  0  0
 20 19  1  1  0  0  0
 21 23  2  0  0  0  0
 22 20  1  0  0  0  0
 22 21  2  0  0  0  0
 24 22  1  0  0  0  0
 25 27  2  0  0  0  0
 26 27  1  0  0  0  0
 27 24  1  0  0  0  0
 28 30  1  0  0  0  0
 30 29  1  6  0  0  0
 30 31  1  0  0  0  0
 31 32  1  6  0  0  0
 31 33  1  0  0  0  0
 31 34  1  0  0  0  0
 34 37  1  0  0  0  0
 34 36  1  0  0  0  0
 35 34  2  0  0  0  0
M  END
>  <MODEL>
8

>  <REMARK>
 VINA RESULT:      -4.6      3.745      6.374
  Name = 
  9 active torsions:
  status: ('A' for Active; 'I' for Inactive)
    1  A    between atoms: C_1  and  P_5
    2  A    between atoms: C_1  and  C_23
    3  A    between atoms: C_6  and  C_8
    4  A    between atoms: C_6  and  C_31
    5  A    between atoms: C_8  and  C_19
    6  A    between atoms: C_9  and  C_30
    7  A    between atoms: C_20  and  O_25
    8  A    between atoms: C_23  and  O_25
    9  A    between atoms: C_29  and  C_31
                            x       y       z     vdW  Elec       q    Type
                         _______ _______ _______ _____ _____    ______ ____

>  <TORSDO>
F 9

$$$$
=
 OpenBabel10262423093D

 37 38  0  0  1  0  0  0  0  0999 V2000
  189.5100  177.5520  137.7050 O   0  0  0  0  0  0  0  0  0  0  0  0
  189.6960  176.0910  135.6900 C   0  0  2  0  0  0  0  0  0  0  0  0
  189.0890  176.6510  138.6900 C   0  0  2  0  0  3  0  0  0  0  0  0
  188.9000  177.1460  136.5010 C   0  0  1  0  0  3  0  0  0  0  0  0
  191.3780  176.0800  139.2090 O   0  0  0  0  0  1  0  0  0  0  0  0
  188.8230  175.2000  135.0620 O   0  0  0  0  0  1  0  0  0  0  0  0
  187.3470  177.1510  136.4550 C   0  0  2  0  0  3  0  0  0  0  0  0
  188.9910  173.8780  137.5730 C   0  0  0  0  0  1  0  0  0  0  0  0
  190.7190  175.2880  136.5450 C   0  0  0  0  0  2  0  0  0  0  0  0
  186.7570  178.3260  137.2530 C   0  0  0  0  0  2  0  0  0  0  0  0
  190.2240  174.6320  137.7720 N   0  0  0  0  0  0  0  0  0  0  0  0
  188.5180  177.3730  139.9270 C   0  0  2  0  0  3  0  0  0  0  0  0
  187.5710  178.4910  139.4630 C   0  0  0  0  0  2  0  0  0  0  0  0
  186.4960  177.9550  138.6420 N   0  0  0  0  0  2  0  0  0  0  0  0
  190.1210  175.5410  138.9210 C   0  0  2  0  0  3  0  0  0  0  0  0
  191.9540  176.5570  134.6030 C   0  0  0  0  0  1  0  0  0  0  0  0
  190.4600  176.8540  134.5950 C   0  0  2  0  0  3  0  0  0  0  0  0
  190.2580  178.2320  134.7020 O   0  0  0  0  0  1  0  0  0  0  0  0
  190.8460  177.9310  140.2240 O   0  0  0  0  0  1  0  0  0  0  0  0
  189.6090  177.9200  140.8730 C   0  0  2  0  0  3  0  0  0  0  0  0
  188.6840  176.6730  142.7690 C   0  0  0  0  0  0  0  0  0  0  0  0
  189.7390  177.1470  142.1570 C   0  0  0  0  0  0  0  0  0  0  0  0
  187.6870  176.2250  143.3470 O   0  0  0  0  0  0  0  0  0  0  0  0
  191.0980  176.8530  142.7000 C   0  0  0  0  0  2  0  0  0  0  0  0
  191.3830  178.9520  143.9310 C   0  0  0  0  0  2  0  0  0  0  0  0
  191.4490  176.9080  145.2630 C   0  0  0  0  0  1  0  0  0  0  0  0
  191.3530  177.6220  143.9570 C   0  0  0  0  0  0  0  0  0  0  0  0
  186.8130  175.9260  136.8860 O   0  0  0  0  0  0  0  0  0  0  0  0
  185.7050  176.2420  134.7820 C   0  0  0  0  0  1  0  0  0  0  0  0
  185.5840  175.7750  136.2260 C   0  0  1  0  0  3  0  0  0  0  0  0
  185.0710  174.3270  136.3230 C   0  0  2  0  0  0  0  0  0  0  0  0
  185.4980  173.7560  137.5230 O   0  0  0  0  0  1  0  0  0  0  0  0
  185.6060  173.5930  135.2810 F   0  0  0  0  0  0  0  0  0  0  0  0
  183.2480  174.2230  136.2270 P   0  0  0  0  0  0  0  0  0  0  0  0
  182.7580  174.0970  134.6120 O   0  0  0  0  0  0  0  0  0  0  0  0
  182.6220  175.4510  136.8460 O   0  0  0  0  0  1  0  0  0  0  0  0
  182.7270  172.8520  137.0680 O   0  0  0  0  0  1  0  0  0  0  0  0
  2  6  1  6  0  0  0
  2  4  1  0  0  0  0
  2  9  1  0  0  0  0
  3  1  1  6  0  0  0
  3 15  1  0  0  0  0
  3 12  1  0  0  0  0
  4  1  1  1  0  0  0
  7  4  1  0  0  0  0
  7 28  1  1  0  0  0
  7 10  1  0  0  0  0
  8 11  1  0  0  0  0
  9 11  1  0  0  0  0
 10 14  1  0  0  0  0
 11 15  1  0  0  0  0
 12 20  1  6  0  0  0
 13 12  1  0  0  0  0
 14 13  1  0  0  0  0
 15  5  1  6  0  0  0
 17 16  1  1  0  0  0
 17 18  1  0  0  0  0
 17  2  1  0  0  0  0
 20 19  1  6  0  0  0
 20 22  1  0  0  0  0
 21 23  2  0  0  0  0
 22 24  1  0  0  0  0
 22 21  2  0  0  0  0
 24 27  1  0  0  0  0
 25 27  2  0  0  0  0
 27 26  1  0  0  0  0
 30 29  1  6  0  0  0
 30 31  1  0  0  0  0
 30 28  1  0  0  0  0
 31 33  1  6  0  0  0
 31 32  1  0  0  0  0
 34 31  1  0  0  0  0
 34 36  1  0  0  0  0
 34 37  1  0  0  0  0
 35 34  2  0  0  0  0
M  END
>  <MODEL>
9

>  <REMARK>
 VINA RESULT:      -4.6      6.488      8.926
  Name = 
  9 active torsions:
  status: ('A' for Active; 'I' for Inactive)
    1  A    between atoms: C_1  and  P_5
    2  A    between atoms: C_1  and  C_23
    3  A    between atoms: C_6  and  C_8
    4  A    between atoms: C_6  and  C_31
    5  A    between atoms: C_8  and  C_19
    6  A    between atoms: C_9  and  C_30
    7  A    between atoms: C_20  and  O_25
    8  A    between atoms: C_23  and  O_25
    9  A    between atoms: C_29  and  C_31
                            x       y       z     vdW  Elec       q    Type
                         _______ _______ _______ _____ _____    ______ ____

>  <TORSDO>
F 9

$$$$
