=
 OpenBabel10262421233D

 32 38  0  0  1  0  0  0  0  0999 V2000
  188.2730  176.7530  144.4610 C   0  0  0  0  0  3  0  0  0  0  0  0
  190.0350  177.4230  139.7460 C   0  0  0  0  0  0  0  0  0  0  0  0
  186.0630  179.0030  137.4350 O   0  0  0  0  0  0  0  0  0  0  0  0
  186.0310  177.6090  137.2450 C   0  0  2  0  0  3  0  0  0  0  0  0
  191.6860  176.3380  138.1190 C   0  0  0  0  0  0  0  0  0  0  0  0
  192.9620  176.3360  138.7190 C   0  0  0  0  0  0  0  0  0  0  0  0
  190.1960  177.3660  142.1400 C   0  0  0  0  0  0  0  0  0  0  0  0
  188.0790  178.1490  141.0340 C   0  0  0  0  0  3  0  0  0  0  0  0
  192.3960  174.7010  136.4890 C   0  0  0  0  0  0  0  0  0  0  0  0
  187.9740  177.0310  143.1930 C   0  0  0  0  0  3  0  0  0  0  0  0
  186.4410  178.2160  138.5390 C   0  0  1  0  0  3  0  0  0  0  0  0
  188.6450  177.9050  139.8510 C   0  0  0  0  0  0  0  0  0  0  0  0
  187.9500  178.0920  138.5430 C   0  0  1  0  0  3  0  0  0  0  0  0
  189.6640  177.1240  137.2500 C   0  0  2  0  0  3  0  0  0  0  0  0
  193.6440  174.6220  137.1200 C   0  0  0  0  0  3  0  0  0  0  0  0
  190.6800  177.3440  144.6000 C   0  0  0  0  0  3  0  0  0  0  0  0
  188.8040  177.9240  142.3330 C   0  0  0  0  0  0  0  0  0  0  0  0
  193.9310  175.4510  138.2180 C   0  0  0  0  0  3  0  0  0  0  0  0
  191.0190  177.1800  143.1720 C   0  0  0  0  0  3  0  0  0  0  0  0
  189.4780  177.2050  145.1840 C   0  0  0  0  0  0  0  0  0  0  0  0
  187.3260  177.1330  136.5940 C   0  0  0  0  0  2  0  0  0  0  0  0
  188.2720  176.9690  137.6840 N   0  0  2  0  0  0  0  0  0  0  0  0
  190.1160  175.9100  136.4140 C   0  0  0  0  0  2  0  0  0  0  0  0
  190.7140  177.1520  140.8200 N   0  0  0  0  0  2  0  0  0  0  0  0
  193.4650  177.5030  139.9290 Cl  0  0  0  0  0  0  0  0  0  0  0  0
  192.1240  173.9200  135.3730 O   0  0  0  0  0  1  0  0  0  0  0  0
  190.5670  177.1670  138.4230 N   0  0  0  0  0  0  0  0  0  0  0  0
  191.4440  175.5860  136.9950 C   0  0  0  0  0  0  0  0  0  0  0  0
  188.2270  177.8780  147.3300 C   0  0  0  0  0  0  0  0  0  0  0  0
  189.3480  177.3500  146.6070 N   0  0  0  0  0  2  0  0  0  0  0  0
  187.1750  178.2360  146.7370 O   0  0  0  0  0  0  0  0  0  0  0  0
  188.3050  177.9930  148.8080 C   0  0  0  0  0  1  0  0  0  0  0  0
  1 20  1  0  0  0  0
  2 12  2  0  0  0  0
  2 24  1  0  0  0  0
  4 21  1  6  0  0  0
  4  3  1  0  0  0  0
  4 11  1  0  0  0  0
  5 27  1  0  0  0  0
  5  6  1  0  0  0  0
  6 25  1  0  0  0  0
  7 17  1  0  0  0  0
  7 19  2  0  0  0  0
  8 17  2  0  0  0  0
  9 28  1  0  0  0  0
  9 15  2  0  0  0  0
 10  1  2  0  0  0  0
 11  3  1  6  0  0  0
 11 13  1  0  0  0  0
 12  8  1  0  0  0  0
 13 12  1  1  0  0  0
 14 23  1  6  0  0  0
 14 22  1  0  0  0  0
 14 27  1  0  0  0  0
 15 18  1  0  0  0  0
 16 20  2  0  0  0  0
 17 10  1  0  0  0  0
 18  6  2  0  0  0  0
 19 16  1  0  0  0  0
 20 30  1  0  0  0  0
 22 21  1  6  0  0  0
 22 13  1  0  0  0  0
 23 28  1  0  0  0  0
 24  7  1  0  0  0  0
 26  9  1  0  0  0  0
 27  2  1  0  0  0  0
 28  5  2  0  0  0  0
 29 32  1  0  0  0  0
 30 29  1  0  0  0  0
 31 29  2  0  0  0  0
M  END
>  <MODEL>
1

>  <REMARK>
 VINA RESULT:     -10.1      0.000      0.000
  Name = 
  1 active torsions:
  status: ('A' for Active; 'I' for Inactive)
    1  A    between atoms: N_10  and  C_24
                            x       y       z     vdW  Elec       q    Type
                         _______ _______ _______ _____ _____    ______ ____

>  <TORSDO>
F 1

$$$$
=
 OpenBabel10262421233D

 32 38  0  0  1  0  0  0  0  0999 V2000
  187.8160  176.9080  144.7180 C   0  0  0  0  0  3  0  0  0  0  0  0
  186.2610  178.4280  140.1310 C   0  0  0  0  0  0  0  0  0  0  0  0
  181.5630  179.3600  140.9510 O   0  0  0  0  0  0  0  0  0  0  0  0
  181.5710  178.0190  140.5260 C   0  0  2  0  0  3  0  0  0  0  0  0
  186.6850  177.8970  137.6630 C   0  0  0  0  0  0  0  0  0  0  0  0
  188.0530  178.1040  137.3940 C   0  0  0  0  0  0  0  0  0  0  0  0
  187.8510  178.1570  141.9080 C   0  0  0  0  0  0  0  0  0  0  0  0
  185.4290  178.5820  142.4320 C   0  0  0  0  0  3  0  0  0  0  0  0
  186.4260  176.6290  135.6220 C   0  0  0  0  0  0  0  0  0  0  0  0
  186.7800  177.2480  143.9540 C   0  0  0  0  0  3  0  0  0  0  0  0
  182.6160  178.5600  141.4330 C   0  0  1  0  0  3  0  0  0  0  0  0
  185.1810  178.5900  141.1210 C   0  0  0  0  0  0  0  0  0  0  0  0
  183.8180  178.7610  140.5360 C   0  0  1  0  0  3  0  0  0  0  0  0
  184.4820  178.3210  138.3190 C   0  0  2  0  0  3  0  0  0  0  0  0
  187.7990  176.7530  135.3770 C   0  0  0  0  0  3  0  0  0  0  0  0
  189.7310  177.9810  143.5580 C   0  0  0  0  0  3  0  0  0  0  0  0
  186.8140  178.3820  142.9850 C   0  0  0  0  0  0  0  0  0  0  0  0
  188.6050  177.5030  136.2510 C   0  0  0  0  0  3  0  0  0  0  0  0
  189.1460  178.0420  142.2030 C   0  0  0  0  0  3  0  0  0  0  0  0
  189.1560  177.5280  144.6850 C   0  0  0  0  0  0  0  0  0  0  0  0
  182.2440  177.9010  139.1620 C   0  0  0  0  0  2  0  0  0  0  0  0
  183.6680  177.8290  139.4350 N   0  0  2  0  0  0  0  0  0  0  0  0
  184.4590  177.3260  137.1420 C   0  0  0  0  0  2  0  0  0  0  0  0
  187.4780  178.1970  140.5230 N   0  0  0  0  0  2  0  0  0  0  0  0
  189.0610  179.2180  138.3020 Cl  0  0  0  0  0  0  0  0  0  0  0  0
  185.6160  175.9300  134.7360 O   0  0  0  0  0  1  0  0  0  0  0  0
  185.9020  178.4330  138.7270 N   0  0  0  0  0  0  0  0  0  0  0  0
  185.8910  177.2330  136.7600 C   0  0  0  0  0  0  0  0  0  0  0  0
  191.0980  176.7430  146.1790 C   0  0  0  0  0  0  0  0  0  0  0  0
  189.9040  177.4920  145.9100 N   0  0  0  0  0  2  0  0  0  0  0  0
  191.6510  176.0480  145.2860 O   0  0  0  0  0  0  0  0  0  0  0  0
  191.6990  176.7980  147.5360 C   0  0  0  0  0  1  0  0  0  0  0  0
  2 24  1  0  0  0  0
  2 12  2  0  0  0  0
  4 21  1  6  0  0  0
  4  3  1  0  0  0  0
  4 11  1  0  0  0  0
  5 27  1  0  0  0  0
  6  5  1  0  0  0  0
  6 25  1  0  0  0  0
  7 19  2  0  0  0  0
  7 17  1  0  0  0  0
  8 17  2  0  0  0  0
  9 28  1  0  0  0  0
 10  1  2  0  0  0  0
 11  3  1  6  0  0  0
 12  8  1  0  0  0  0
 13 12  1  1  0  0  0
 13 11  1  0  0  0  0
 14 23  1  6  0  0  0
 14 27  1  0  0  0  0
 14 22  1  0  0  0  0
 15  9  2  0  0  0  0
 15 18  1  0  0  0  0
 16 20  2  0  0  0  0
 17 10  1  0  0  0  0
 18  6  2  0  0  0  0
 19 16  1  0  0  0  0
 20  1  1  0  0  0  0
 20 30  1  0  0  0  0
 22 21  1  6  0  0  0
 22 13  1  0  0  0  0
 24  7  1  0  0  0  0
 26  9  1  0  0  0  0
 27  2  1  0  0  0  0
 28 23  1  0  0  0  0
 28  5  2  0  0  0  0
 29 32  1  0  0  0  0
 30 29  1  0  0  0  0
 31 29  2  0  0  0  0
M  END
>  <MODEL>
2

>  <REMARK>
 VINA RESULT:      -9.5      3.329      4.537
  Name = 
  1 active torsions:
  status: ('A' for Active; 'I' for Inactive)
    1  A    between atoms: N_10  and  C_24
                            x       y       z     vdW  Elec       q    Type
                         _______ _______ _______ _____ _____    ______ ____

>  <TORSDO>
F 1

$$$$
=
 OpenBabel10262421233D

 32 38  0  0  1  0  0  0  0  0999 V2000
  189.1300  176.7990  144.6460 C   0  0  0  0  0  3  0  0  0  0  0  0
  188.7220  177.4210  139.6230 C   0  0  0  0  0  0  0  0  0  0  0  0
  184.5910  179.9590  139.2860 O   0  0  0  0  0  0  0  0  0  0  0  0
  184.1740  178.6200  139.1740 C   0  0  2  0  0  3  0  0  0  0  0  0
  189.2000  176.1350  137.4630 C   0  0  0  0  0  0  0  0  0  0  0  0
  190.5740  175.8220  137.4280 C   0  0  0  0  0  0  0  0  0  0  0  0
  189.9090  177.1610  141.6920 C   0  0  0  0  0  0  0  0  0  0  0  0
  187.7500  178.4470  141.6270 C   0  0  0  0  0  3  0  0  0  0  0  0
  188.7370  174.5060  135.7380 C   0  0  0  0  0  0  0  0  0  0  0  0
  188.3710  177.2240  143.6380 C   0  0  0  0  0  3  0  0  0  0  0  0
  185.2360  179.0330  140.1280 C   0  0  1  0  0  3  0  0  0  0  0  0
  187.6660  178.1750  140.3240 C   0  0  0  0  0  0  0  0  0  0  0  0
  186.5230  178.5960  139.4600 C   0  0  1  0  0  3  0  0  0  0  0  0
  187.2290  177.3860  137.5670 C   0  0  2  0  0  3  0  0  0  0  0  0
  190.0840  174.1230  135.7460 C   0  0  0  0  0  3  0  0  0  0  0  0
  191.4150  176.8620  143.6750 C   0  0  0  0  0  3  0  0  0  0  0  0
  188.9060  177.9830  142.4710 C   0  0  0  0  0  0  0  0  0  0  0  0
  191.0010  174.7930  136.5740 C   0  0  0  0  0  3  0  0  0  0  0  0
  191.0410  176.7330  142.2520 C   0  0  0  0  0  3  0  0  0  0  0  0
  190.5980  176.9370  144.7400 C   0  0  0  0  0  0  0  0  0  0  0  0
  184.9070  177.9310  138.0270 C   0  0  0  0  0  2  0  0  0  0  0  0
  186.1760  177.4950  138.5820 N   0  0  2  0  0  0  0  0  0  0  0  0
  186.9860  176.1670  136.6550 C   0  0  0  0  0  2  0  0  0  0  0  0
  189.7290  176.9380  140.2870 N   0  0  0  0  0  2  0  0  0  0  0  0
  191.8030  176.7680  138.2500 Cl  0  0  0  0  0  0  0  0  0  0  0  0
  187.8350  173.8810  134.8860 O   0  0  0  0  0  1  0  0  0  0  0  0
  188.5430  177.1550  138.2100 N   0  0  0  0  0  0  0  0  0  0  0  0
  188.3270  175.5320  136.5900 C   0  0  0  0  0  0  0  0  0  0  0  0
  191.9570  176.0190  146.7220 C   0  0  0  0  0  0  0  0  0  0  0  0
  191.1460  177.0030  146.0650 N   0  0  0  0  0  2  0  0  0  0  0  0
  192.3180  174.9670  146.1310 O   0  0  0  0  0  0  0  0  0  0  0  0
  192.3880  176.2510  148.1240 C   0  0  0  0  0  1  0  0  0  0  0  0
  1 20  1  0  0  0  0
  2 24  1  0  0  0  0
  2 12  2  0  0  0  0
  4 21  1  6  0  0  0
  4  3  1  0  0  0  0
  4 11  1  0  0  0  0
  5 27  1  0  0  0  0
  6  5  1  0  0  0  0
  6 25  1  0  0  0  0
  7 19  2  0  0  0  0
  7 17  1  0  0  0  0
  8 17  2  0  0  0  0
  9 15  2  0  0  0  0
  9 28  1  0  0  0  0
 10  1  2  0  0  0  0
 11  3  1  6  0  0  0
 12  8  1  0  0  0  0
 13 11  1  0  0  0  0
 13 12  1  1  0  0  0
 14 23  1  6  0  0  0
 14 27  1  0  0  0  0
 14 22  1  0  0  0  0
 15 18  1  0  0  0  0
 16 20  2  0  0  0  0
 17 10  1  0  0  0  0
 18  6  2  0  0  0  0
 19 16  1  0  0  0  0
 20 30  1  0  0  0  0
 22 21  1  6  0  0  0
 22 13  1  0  0  0  0
 24  7  1  0  0  0  0
 26  9  1  0  0  0  0
 27  2  1  0  0  0  0
 28 23  1  0  0  0  0
 28  5  2  0  0  0  0
 29 32  1  0  0  0  0
 30 29  1  0  0  0  0
 31 29  2  0  0  0  0
M  END
>  <MODEL>
3

>  <REMARK>
 VINA RESULT:      -9.4      2.179      2.714
  Name = 
  1 active torsions:
  status: ('A' for Active; 'I' for Inactive)
    1  A    between atoms: N_10  and  C_24
                            x       y       z     vdW  Elec       q    Type
                         _______ _______ _______ _____ _____    ______ ____

>  <TORSDO>
F 1

$$$$
=
 OpenBabel10262421233D

 32 38  0  0  1  0  0  0  0  0999 V2000
  186.8490  177.1280  144.7780 C   0  0  0  0  0  3  0  0  0  0  0  0
  187.1960  178.0590  139.7990 C   0  0  0  0  0  0  0  0  0  0  0  0
  182.8840  180.1070  138.8860 O   0  0  0  0  0  0  0  0  0  0  0  0
  182.6670  178.7400  138.6350 C   0  0  2  0  0  3  0  0  0  0  0  0
  188.1840  176.9980  137.6900 C   0  0  0  0  0  0  0  0  0  0  0  0
  189.5740  176.8540  137.8760 C   0  0  0  0  0  0  0  0  0  0  0  0
  188.0500  177.7920  142.0250 C   0  0  0  0  0  0  0  0  0  0  0  0
  185.7830  178.8140  141.6560 C   0  0  0  0  0  3  0  0  0  0  0  0
  188.2250  175.4550  135.8290 C   0  0  0  0  0  0  0  0  0  0  0  0
  186.2170  177.5310  143.6770 C   0  0  0  0  0  3  0  0  0  0  0  0
  183.4960  179.2060  139.7780 C   0  0  1  0  0  3  0  0  0  0  0  0
  185.9500  178.6290  140.3440 C   0  0  0  0  0  0  0  0  0  0  0  0
  184.9200  178.9740  139.3200 C   0  0  1  0  0  3  0  0  0  0  0  0
  186.0780  177.9960  137.5170 C   0  0  2  0  0  3  0  0  0  0  0  0
  189.5910  175.2350  136.0500 C   0  0  0  0  0  3  0  0  0  0  0  0
  189.2350  177.5310  144.2200 C   0  0  0  0  0  3  0  0  0  0  0  0
  186.8350  178.4310  142.6600 C   0  0  0  0  0  0  0  0  0  0  0  0
  190.2650  175.9470  137.0570 C   0  0  0  0  0  3  0  0  0  0  0  0
  189.1200  177.4620  142.7490 C   0  0  0  0  0  3  0  0  0  0  0  0
  188.2510  177.4310  145.1300 C   0  0  0  0  0  0  0  0  0  0  0  0
  183.6620  178.2280  137.5980 C   0  0  0  0  0  2  0  0  0  0  0  0
  184.8680  177.9060  138.3400 N   0  0  2  0  0  0  0  0  0  0  0  0
  186.1480  176.8270  136.5150 C   0  0  0  0  0  2  0  0  0  0  0  0
  188.1330  177.6520  140.6000 N   0  0  0  0  0  2  0  0  0  0  0  0
  190.5190  177.8770  138.9450 Cl  0  0  0  0  0  0  0  0  0  0  0  0
  187.5640  174.7910  134.8040 O   0  0  0  0  0  1  0  0  0  0  0  0
  187.2870  177.8770  138.3640 N   0  0  0  0  0  0  0  0  0  0  0  0
  187.5520  176.3610  136.6500 C   0  0  0  0  0  0  0  0  0  0  0  0
  187.7870  178.0650  147.5800 C   0  0  0  0  0  0  0  0  0  0  0  0
  188.5610  177.4660  146.5310 N   0  0  0  0  0  2  0  0  0  0  0  0
  186.6720  178.6030  147.3460 O   0  0  0  0  0  0  0  0  0  0  0  0
  188.3060  178.0400  148.9710 C   0  0  0  0  0  1  0  0  0  0  0  0
  1 20  1  0  0  0  0
  2 12  2  0  0  0  0
  2 24  1  0  0  0  0
  4 21  1  6  0  0  0
  4  3  1  0  0  0  0
  4 11  1  0  0  0  0
  5  6  1  0  0  0  0
  5 27  1  0  0  0  0
  6 25  1  0  0  0  0
  7 17  1  0  0  0  0
  7 19  2  0  0  0  0
  8 17  2  0  0  0  0
  9 15  2  0  0  0  0
  9 28  1  0  0  0  0
 10  1  2  0  0  0  0
 11  3  1  6  0  0  0
 12  8  1  0  0  0  0
 13 11  1  0  0  0  0
 13 12  1  1  0  0  0
 14 23  1  6  0  0  0
 14 22  1  0  0  0  0
 14 27  1  0  0  0  0
 15 18  1  0  0  0  0
 16 20  2  0  0  0  0
 17 10  1  0  0  0  0
 18  6  2  0  0  0  0
 19 16  1  0  0  0  0
 20 30  1  0  0  0  0
 22 21  1  6  0  0  0
 22 13  1  0  0  0  0
 23 28  1  0  0  0  0
 24  7  1  0  0  0  0
 26  9  1  0  0  0  0
 27  2  1  0  0  0  0
 28  5  2  0  0  0  0
 29 32  1  0  0  0  0
 30 29  1  0  0  0  0
 31 29  2  0  0  0  0
M  END
>  <MODEL>
4

>  <REMARK>
 VINA RESULT:      -9.1      2.097      3.051
  Name = 
  1 active torsions:
  status: ('A' for Active; 'I' for Inactive)
    1  A    between atoms: N_10  and  C_24
                            x       y       z     vdW  Elec       q    Type
                         _______ _______ _______ _____ _____    ______ ____

>  <TORSDO>
F 1

$$$$
=
 OpenBabel10262421233D

 32 38  0  0  1  0  0  0  0  0999 V2000
  182.9590  177.8880  142.5940 C   0  0  0  0  0  3  0  0  0  0  0  0
  187.9950  178.2550  143.1320 C   0  0  0  0  0  0  0  0  0  0  0  0
  189.4300  178.8160  138.5230 O   0  0  0  0  0  0  0  0  0  0  0  0
  189.4900  177.4250  138.7280 C   0  0  2  0  0  3  0  0  0  0  0  0
  189.8690  177.2780  144.5760 C   0  0  0  0  0  0  0  0  0  0  0  0
  189.5880  177.5730  145.9250 C   0  0  0  0  0  0  0  0  0  0  0  0
  185.7100  178.5290  143.8120 C   0  0  0  0  0  0  0  0  0  0  0  0
  186.3480  178.7860  141.3950 C   0  0  0  0  0  3  0  0  0  0  0  0
  191.4790  175.5970  145.2280 C   0  0  0  0  0  0  0  0  0  0  0  0
  184.1400  177.9490  141.9810 C   0  0  0  0  0  3  0  0  0  0  0  0
  188.3850  178.2520  139.2780 C   0  0  1  0  0  3  0  0  0  0  0  0
  187.6070  178.4970  141.7300 C   0  0  0  0  0  0  0  0  0  0  0  0
  188.7250  178.3940  140.7470 C   0  0  1  0  0  3  0  0  0  0  0  0
  190.3000  177.5840  142.2990 C   0  0  2  0  0  3  0  0  0  0  0  0
  191.1540  175.8160  146.5730 C   0  0  0  0  0  3  0  0  0  0  0  0
  183.4390  178.9030  144.8100 C   0  0  0  0  0  3  0  0  0  0  0  0
  185.2420  178.8560  142.4120 C   0  0  1  0  0  3  0  0  0  0  0  0
  190.2270  176.8140  146.9190 C   0  0  0  0  0  3  0  0  0  0  0  0
  184.8880  178.6210  144.8580 C   0  0  0  0  0  3  0  0  0  0  0  0
  182.5790  178.6310  143.8130 C   0  0  0  0  0  0  0  0  0  0  0  0
  190.3860  177.1040  139.9200 C   0  0  0  0  0  2  0  0  0  0  0  0
  189.5400  177.2450  141.0920 N   0  0  2  0  0  0  0  0  0  0  0  0
  191.1150  176.3720  142.7920 C   0  0  0  0  0  2  0  0  0  0  0  0
  187.0930  178.2440  144.0660 N   0  0  0  0  0  0  0  0  0  0  0  0
  188.6310  178.9530  146.4360 Cl  0  0  0  0  0  0  0  0  0  0  0  0
  192.4300  174.6460  144.8820 O   0  0  0  0  0  1  0  0  0  0  0  0
  189.3800  177.9310  143.4070 N   0  0  0  0  0  0  0  0  0  0  0  0
  190.8370  176.3590  144.2510 C   0  0  0  0  0  0  0  0  0  0  0  0
  180.3500  179.6800  143.0720 C   0  0  0  0  0  0  0  0  0  0  0  0
  181.1830  178.9290  143.9660 N   0  0  0  0  0  2  0  0  0  0  0  0
  180.7950  180.1280  141.9820 O   0  0  0  0  0  0  0  0  0  0  0  0
  178.9310  179.9250  143.4350 C   0  0  0  0  0  1  0  0  0  0  0  0
  1 20  1  0  0  0  0
  2 27  1  0  0  0  0
  2 24  2  0  0  0  0
  3  4  1  0  0  0  0
  4 11  1  0  0  0  0
  4 21  1  1  0  0  0
  5  6  1  0  0  0  0
  6 25  1  0  0  0  0
  6 18  2  0  0  0  0
  7 24  1  0  0  0  0
  7 19  2  0  0  0  0
  8 12  2  0  0  0  0
  9 15  2  0  0  0  0
 10 17  1  0  0  0  0
 10  1  2  0  0  0  0
 11  3  1  6  0  0  0
 11 13  1  0  0  0  0
 12  2  1  0  0  0  0
 13 22  1  0  0  0  0
 13 12  1  1  0  0  0
 14 23  1  1  0  0  0
 14 27  1  0  0  0  0
 15 18  1  0  0  0  0
 16 19  1  0  0  0  0
 17  8  1  6  0  0  0
 17  7  1  0  0  0  0
 20 30  1  0  0  0  0
 20 16  2  0  0  0  0
 22 21  1  6  0  0  0
 22 14  1  0  0  0  0
 23 28  1  0  0  0  0
 26  9  1  0  0  0  0
 27  5  1  0  0  0  0
 28  5  2  0  0  0  0
 28  9  1  0  0  0  0
 29 32  1  0  0  0  0
 29 30  1  0  0  0  0
 31 29  2  0  0  0  0
M  END
>  <MODEL>
5

>  <REMARK>
 VINA RESULT:      -8.7      4.244      6.586
  Name = 
  1 active torsions:
  status: ('A' for Active; 'I' for Inactive)
    1  A    between atoms: N_10  and  C_24
                            x       y       z     vdW  Elec       q    Type
                         _______ _______ _______ _____ _____    ______ ____

>  <TORSDO>
F 1

$$$$
=
 OpenBabel10262421233D

 32 38  0  0  1  0  0  0  0  0999 V2000
  186.0760  177.4850  145.8430 C   0  0  0  0  0  3  0  0  0  0  0  0
  183.3720  178.5380  141.6770 C   0  0  0  0  0  0  0  0  0  0  0  0
  179.3000  180.3730  143.5940 O   0  0  0  0  0  0  0  0  0  0  0  0
  179.0180  179.0020  143.4540 C   0  0  2  0  0  3  0  0  0  0  0  0
  182.9480  177.5760  139.3440 C   0  0  0  0  0  0  0  0  0  0  0  0
  184.1800  177.5030  138.6640 C   0  0  0  0  0  0  0  0  0  0  0  0
  185.3890  178.2710  142.9500 C   0  0  2  0  0  3  0  0  0  0  0  0
  183.3150  179.1780  144.0440 C   0  0  0  0  0  3  0  0  0  0  0  0
  181.9230  176.0780  137.7480 C   0  0  0  0  0  0  0  0  0  0  0  0
  184.9030  177.8780  145.3510 C   0  0  0  0  0  3  0  0  0  0  0  0
  180.3490  179.4870  143.9050 C   0  0  1  0  0  3  0  0  0  0  0  0
  182.6770  179.0300  142.8810 C   0  0  0  0  0  0  0  0  0  0  0  0
  181.2300  179.3410  142.6830 C   0  0  1  0  0  3  0  0  0  0  0  0
  181.1210  178.4650  140.5000 C   0  0  2  0  0  3  0  0  0  0  0  0
  183.1590  175.9260  137.1060 C   0  0  0  0  0  3  0  0  0  0  0  0
  187.6520  178.0270  144.0020 C   0  0  0  0  0  3  0  0  0  0  0  0
  184.7690  178.8300  144.2110 C   0  0  0  0  0  0  0  0  0  0  0  0
  184.2770  176.6510  137.5520 C   0  0  0  0  0  3  0  0  0  0  0  0
  186.6880  177.9830  142.8840 C   0  0  0  0  0  3  0  0  0  0  0  0
  187.4030  177.8550  145.3120 C   0  0  0  0  0  0  0  0  0  0  0  0
  179.2180  178.5650  142.0060 C   0  0  0  0  0  2  0  0  0  0  0  0
  180.6390  178.2930  141.8740 N   0  0  2  0  0  0  0  0  0  0  0  0
  180.6180  177.3220  139.5950 C   0  0  0  0  0  2  0  0  0  0  0  0
  184.6140  178.1650  141.7470 N   0  0  0  0  0  0  0  0  0  0  0  0
  185.5430  178.5520  139.0140 Cl  0  0  0  0  0  0  0  0  0  0  0  0
  180.8030  175.4010  137.2820 O   0  0  0  0  0  1  0  0  0  0  0  0
  182.6000  178.3920  140.4600 N   0  0  0  0  0  0  0  0  0  0  0  0
  181.8410  176.9280  138.8510 C   0  0  0  0  0  0  0  0  0  0  0  0
  189.7060  177.1280  146.2010 C   0  0  0  0  0  0  0  0  0  0  0  0
  188.4830  177.8760  146.2580 N   0  0  0  0  0  2  0  0  0  0  0  0
  189.9700  176.3780  145.2240 O   0  0  0  0  0  0  0  0  0  0  0  0
  190.6850  177.2510  147.3110 C   0  0  0  0  0  1  0  0  0  0  0  0
  2 24  2  0  0  0  0
  2 12  1  0  0  0  0
  4 21  1  6  0  0  0
  4  3  1  0  0  0  0
  4 11  1  0  0  0  0
  5 27  1  0  0  0  0
  6 25  1  0  0  0  0
  6  5  2  0  0  0  0
  7 19  1  6  0  0  0
  7 17  1  0  0  0  0
  8 17  1  0  0  0  0
  9 28  2  0  0  0  0
 10  1  1  0  0  0  0
 11  3  1  6  0  0  0
 12  8  2  0  0  0  0
 13 12  1  1  0  0  0
 13 11  1  0  0  0  0
 14 23  1  6  0  0  0
 14 22  1  0  0  0  0
 15 18  2  0  0  0  0
 15  9  1  0  0  0  0
 16 20  1  0  0  0  0
 17 10  2  0  0  0  0
 18  6  1  0  0  0  0
 19 16  2  0  0  0  0
 20  1  2  0  0  0  0
 20 30  1  0  0  0  0
 22 21  1  6  0  0  0
 22 13  1  0  0  0  0
 24  7  1  0  0  0  0
 26  9  1  0  0  0  0
 27 14  1  0  0  0  0
 27  2  1  0  0  0  0
 28  5  1  0  0  0  0
 28 23  1  0  0  0  0
 29 30  1  0  0  0  0
 29 32  1  0  0  0  0
 31 29  2  0  0  0  0
M  END
>  <MODEL>
6

>  <REMARK>
 VINA RESULT:      -8.7      5.398      7.517
  Name = 
  1 active torsions:
  status: ('A' for Active; 'I' for Inactive)
    1  A    between atoms: N_10  and  C_24
                            x       y       z     vdW  Elec       q    Type
                         _______ _______ _______ _____ _____    ______ ____

>  <TORSDO>
F 1

$$$$
=
 OpenBabel10262421233D

 32 38  0  0  1  0  0  0  0  0999 V2000
  188.1330  176.6940  145.9600 C   0  0  0  0  0  3  0  0  0  0  0  0
  186.1260  178.5410  141.6770 C   0  0  0  0  0  0  0  0  0  0  0  0
  181.7760  180.0650  143.2150 O   0  0  0  0  0  0  0  0  0  0  0  0
  181.5370  178.7480  142.7820 C   0  0  2  0  0  3  0  0  0  0  0  0
  186.0980  178.0300  139.1700 C   0  0  0  0  0  0  0  0  0  0  0  0
  187.4250  178.0600  138.6960 C   0  0  0  0  0  0  0  0  0  0  0  0
  187.9130  178.0080  143.1880 C   0  0  0  0  0  0  0  0  0  0  0  0
  185.6790  178.7370  144.0800 C   0  0  0  0  0  3  0  0  0  0  0  0
  185.3640  176.8670  137.1810 C   0  0  0  0  0  0  0  0  0  0  0  0
  187.0490  177.1910  145.3660 C   0  0  0  0  0  3  0  0  0  0  0  0
  182.7710  179.1190  143.5240 C   0  0  1  0  0  3  0  0  0  0  0  0
  185.2390  178.8160  142.8230 C   0  0  0  0  0  0  0  0  0  0  0  0
  183.8400  179.1830  142.4540 C   0  0  1  0  0  3  0  0  0  0  0  0
  184.0970  178.7240  140.1580 C   0  0  2  0  0  3  0  0  0  0  0  0
  186.6890  176.8130  136.7310 C   0  0  0  0  0  3  0  0  0  0  0  0
  189.9790  177.5360  144.5290 C   0  0  0  0  0  3  0  0  0  0  0  0
  187.0900  178.3380  144.4140 C   0  0  0  0  0  0  0  0  0  0  0  0
  187.7110  177.4250  137.4770 C   0  0  0  0  0  3  0  0  0  0  0  0
  189.2100  177.7140  143.2810 C   0  0  0  0  0  3  0  0  0  0  0  0
  189.5240  177.1310  145.7270 C   0  0  0  0  0  0  0  0  0  0  0  0
  181.9740  178.5810  141.3300 C   0  0  0  0  0  2  0  0  0  0  0  0
  183.4010  178.3120  141.3820 N   0  0  2  0  0  0  0  0  0  0  0  0
  183.7610  177.7750  138.9900 C   0  0  0  0  0  2  0  0  0  0  0  0
  187.3450  178.1390  141.8770 N   0  0  0  0  0  2  0  0  0  0  0  0
  188.7000  179.0030  139.4490 Cl  0  0  0  0  0  0  0  0  0  0  0  0
  184.3430  176.3080  136.4240 O   0  0  0  0  0  1  0  0  0  0  0  0
  185.5630  178.6330  140.3450 N   0  0  0  0  0  0  0  0  0  0  0  0
  185.0940  177.5030  138.3940 C   0  0  0  0  0  0  0  0  0  0  0  0
  191.6440  176.1870  146.8370 C   0  0  0  0  0  0  0  0  0  0  0  0
  190.4360  176.9600  146.8230 N   0  0  0  0  0  2  0  0  0  0  0  0
  192.0560  175.5950  145.8050 O   0  0  0  0  0  0  0  0  0  0  0  0
  192.4300  176.0920  148.0940 C   0  0  0  0  0  1  0  0  0  0  0  0
  2 24  1  0  0  0  0
  2 12  2  0  0  0  0
  4 21  1  6  0  0  0
  4  3  1  0  0  0  0
  4 11  1  0  0  0  0
  5 27  1  0  0  0  0
  6  5  1  0  0  0  0
  6 25  1  0  0  0  0
  7 19  2  0  0  0  0
  7 17  1  0  0  0  0
  8 17  2  0  0  0  0
  9 28  1  0  0  0  0
 10  1  2  0  0  0  0
 11  3  1  6  0  0  0
 12  8  1  0  0  0  0
 13 12  1  1  0  0  0
 13 11  1  0  0  0  0
 14 23  1  6  0  0  0
 14 27  1  0  0  0  0
 14 22  1  0  0  0  0
 15  9  2  0  0  0  0
 15 18  1  0  0  0  0
 16 20  2  0  0  0  0
 17 10  1  0  0  0  0
 18  6  2  0  0  0  0
 19 16  1  0  0  0  0
 20  1  1  0  0  0  0
 20 30  1  0  0  0  0
 22 21  1  6  0  0  0
 22 13  1  0  0  0  0
 24  7  1  0  0  0  0
 26  9  1  0  0  0  0
 27  2  1  0  0  0  0
 28 23  1  0  0  0  0
 28  5  2  0  0  0  0
 29 32  1  0  0  0  0
 30 29  1  0  0  0  0
 31 29  2  0  0  0  0
M  END
>  <MODEL>
7

>  <REMARK>
 VINA RESULT:      -8.6      3.655      5.355
  Name = 
  1 active torsions:
  status: ('A' for Active; 'I' for Inactive)
    1  A    between atoms: N_10  and  C_24
                            x       y       z     vdW  Elec       q    Type
                         _______ _______ _______ _____ _____    ______ ____

>  <TORSDO>
F 1

$$$$
=
 OpenBabel10262421233D

 32 38  0  0  1  0  0  0  0  0999 V2000
  182.8500  177.4950  140.5930 C   0  0  0  0  0  3  0  0  0  0  0  0
  187.0390  178.3910  143.3180 C   0  0  0  0  0  0  0  0  0  0  0  0
  190.5010  178.0580  139.9240 O   0  0  0  0  0  0  0  0  0  0  0  0
  190.4160  176.7550  140.4470 C   0  0  2  0  0  3  0  0  0  0  0  0
  187.9760  177.9110  145.6500 C   0  0  0  0  0  0  0  0  0  0  0  0
  187.0990  178.4670  146.6040 C   0  0  0  0  0  0  0  0  0  0  0  0
  184.7130  178.6140  142.7690 C   0  0  0  0  0  0  0  0  0  0  0  0
  186.4270  178.3930  140.9430 C   0  0  0  0  0  3  0  0  0  0  0  0
  189.0350  176.5530  147.3470 C   0  0  0  0  0  0  0  0  0  0  0  0
  184.1810  177.5200  140.6060 C   0  0  0  0  0  3  0  0  0  0  0  0
  189.2070  177.5850  140.2110 C   0  0  1  0  0  3  0  0  0  0  0  0
  187.3680  178.2900  141.8840 C   0  0  0  0  0  0  0  0  0  0  0  0
  188.8150  178.0710  141.5900 C   0  0  1  0  0  3  0  0  0  0  0  0
  189.4430  177.7510  143.8380 C   0  0  2  0  0  3  0  0  0  0  0  0
  188.1200  177.0310  148.2930 C   0  0  0  0  0  3  0  0  0  0  0  0
  182.2540  179.0020  142.4740 C   0  0  0  0  0  3  0  0  0  0  0  0
  184.9740  178.5890  141.2790 C   0  0  1  0  0  3  0  0  0  0  0  0
  187.1690  177.9990  147.9250 C   0  0  0  0  0  3  0  0  0  0  0  0
  183.4980  178.8600  143.2570 C   0  0  0  0  0  3  0  0  0  0  0  0
  181.9600  178.4500  141.2840 C   0  0  0  0  0  0  0  0  0  0  0  0
  190.6300  176.7750  141.9580 C   0  0  0  0  0  2  0  0  0  0  0  0
  189.3350  177.0960  142.5300 N   0  0  2  0  0  0  0  0  0  0  0  0
  189.8910  176.7480  144.9190 C   0  0  0  0  0  2  0  0  0  0  0  0
  185.8020  178.5070  143.6970 N   0  0  0  0  0  0  0  0  0  0  0  0
  186.0560  179.8400  146.2740 Cl  0  0  0  0  0  0  0  0  0  0  0  0
  190.0080  175.6330  147.7150 O   0  0  0  0  0  1  0  0  0  0  0  0
  188.1190  178.2520  144.2740 N   0  0  0  0  0  0  0  0  0  0  0  0
  188.9560  177.0280  146.0370 C   0  0  0  0  0  0  0  0  0  0  0  0
  180.3470  179.4810  139.5660 C   0  0  0  0  0  0  0  0  0  0  0  0
  180.6680  178.6560  140.6950 N   0  0  0  0  0  2  0  0  0  0  0  0
  181.2420  180.0950  138.9270 O   0  0  0  0  0  0  0  0  0  0  0  0
  178.9310  179.6050  139.1360 C   0  0  0  0  0  1  0  0  0  0  0  0
  1 10  2  0  0  0  0
  1 20  1  0  0  0  0
  2 24  2  0  0  0  0
  2 27  1  0  0  0  0
  3  4  1  0  0  0  0
  4 21  1  1  0  0  0
  5 28  2  0  0  0  0
  5  6  1  0  0  0  0
  6 18  2  0  0  0  0
  7 19  2  0  0  0  0
  7 24  1  0  0  0  0
  8 17  1  0  0  0  0
  8 12  2  0  0  0  0
  9 26  1  0  0  0  0
  9 15  2  0  0  0  0
 11  3  1  6  0  0  0
 11  4  1  0  0  0  0
 11 13  1  0  0  0  0
 12  2  1  0  0  0  0
 13 12  1  6  0  0  0
 13 22  1  0  0  0  0
 14 27  1  0  0  0  0
 14 23  1  1  0  0  0
 16 19  1  0  0  0  0
 17 10  1  6  0  0  0
 17  7  1  0  0  0  0
 18 15  1  0  0  0  0
 20 16  2  0  0  0  0
 22 21  1  6  0  0  0
 22 14  1  0  0  0  0
 23 28  1  0  0  0  0
 25  6  1  0  0  0  0
 27  5  1  0  0  0  0
 28  9  1  0  0  0  0
 29 30  1  0  0  0  0
 30 20  1  0  0  0  0
 31 29  2  0  0  0  0
 32 29  1  0  0  0  0
M  END
>  <MODEL>
8

>  <REMARK>
 VINA RESULT:      -8.5      4.073      8.248
  Name = 
  1 active torsions:
  status: ('A' for Active; 'I' for Inactive)
    1  A    between atoms: N_10  and  C_24
                            x       y       z     vdW  Elec       q    Type
                         _______ _______ _______ _____ _____    ______ ____

>  <TORSDO>
F 1

$$$$
=
 OpenBabel10262421233D

 32 38  0  0  1  0  0  0  0  0999 V2000
  182.6080  176.8650  138.1110 C   0  0  0  0  0  3  0  0  0  0  0  0
  186.0040  178.5230  141.5020 C   0  0  0  0  0  0  0  0  0  0  0  0
  190.1390  178.2280  138.9670 O   0  0  0  0  0  0  0  0  0  0  0  0
  190.0590  176.9880  139.6250 C   0  0  2  0  0  3  0  0  0  0  0  0
  186.4490  178.4060  144.0200 C   0  0  0  0  0  0  0  0  0  0  0  0
  185.3380  178.9570  144.6920 C   0  0  0  0  0  0  0  0  0  0  0  0
  183.8440  178.4160  140.4620 C   0  0  0  0  0  0  0  0  0  0  0  0
  185.9280  178.2000  139.0730 C   0  0  0  0  0  3  0  0  0  0  0  0
  187.2290  177.3680  146.0590 C   0  0  0  0  0  0  0  0  0  0  0  0
  183.8970  177.0440  138.3950 C   0  0  0  0  0  3  0  0  0  0  0  0
  188.8610  177.6440  139.0390 C   0  0  1  0  0  3  0  0  0  0  0  0
  186.6460  178.3080  140.1920 C   0  0  0  0  0  0  0  0  0  0  0  0
  188.1360  178.2260  140.2340 C   0  0  1  0  0  3  0  0  0  0  0  0
  188.2840  178.2230  142.5840 C   0  0  2  0  0  3  0  0  0  0  0  0
  186.0900  177.8360  146.7260 C   0  0  0  0  0  3  0  0  0  0  0  0
  181.4830  178.4860  139.6190 C   0  0  0  0  0  3  0  0  0  0  0  0
  184.4250  178.2620  139.0740 C   0  0  1  0  0  3  0  0  0  0  0  0
  185.1590  178.6430  146.0480 C   0  0  0  0  0  3  0  0  0  0  0  0
  182.5340  178.5720  140.6530 C   0  0  0  0  0  3  0  0  0  0  0  0
  181.5080  177.7790  138.4760 C   0  0  0  0  0  0  0  0  0  0  0  0
  189.9360  177.1950  141.1310 C   0  0  0  0  0  2  0  0  0  0  0  0
  188.5230  177.4240  141.3790 N   0  0  2  0  0  0  0  0  0  0  0  0
  188.5730  177.3990  143.8550 C   0  0  0  0  0  2  0  0  0  0  0  0
  184.7090  178.5360  141.6000 N   0  0  0  0  0  0  0  0  0  0  0  0
  184.2730  180.1570  143.9800 Cl  0  0  0  0  0  0  0  0  0  0  0  0
  188.1760  176.6110  146.7360 O   0  0  0  0  0  1  0  0  0  0  0  0
  186.8570  178.6120  142.6700 N   0  0  0  0  0  0  0  0  0  0  0  0
  187.3950  177.6890  144.7110 C   0  0  0  0  0  0  0  0  0  0  0  0
  180.2260  178.4200  136.3390 C   0  0  0  0  0  0  0  0  0  0  0  0
  180.3620  177.7710  137.6110 N   0  0  0  0  0  2  0  0  0  0  0  0
  181.1830  179.0530  135.8200 O   0  0  0  0  0  0  0  0  0  0  0  0
  178.9320  178.3350  135.6140 C   0  0  0  0  0  1  0  0  0  0  0  0
  1 10  2  0  0  0  0
  1 20  1  0  0  0  0
  2 24  2  0  0  0  0
  2 27  1  0  0  0  0
  3  4  1  0  0  0  0
  4 21  1  1  0  0  0
  5  6  2  0  0  0  0
  5 28  1  0  0  0  0
  6 18  1  0  0  0  0
  7 19  2  0  0  0  0
  7 24  1  0  0  0  0
  8 17  1  0  0  0  0
  8 12  2  0  0  0  0
  9 15  1  0  0  0  0
  9 26  1  0  0  0  0
 11  3  1  6  0  0  0
 11  4  1  0  0  0  0
 11 13  1  0  0  0  0
 12  2  1  0  0  0  0
 13 12  1  6  0  0  0
 13 22  1  0  0  0  0
 14 27  1  0  0  0  0
 14 23  1  1  0  0  0
 16 19  1  0  0  0  0
 17 10  1  1  0  0  0
 17  7  1  0  0  0  0
 18 15  2  0  0  0  0
 20 16  2  0  0  0  0
 22 21  1  6  0  0  0
 22 14  1  0  0  0  0
 23 28  1  0  0  0  0
 25  6  1  0  0  0  0
 27  5  1  0  0  0  0
 28  9  2  0  0  0  0
 29 30  1  0  0  0  0
 30 20  1  0  0  0  0
 31 29  2  0  0  0  0
 32 29  1  0  0  0  0
M  END
>  <MODEL>
9

>  <REMARK>
 VINA RESULT:      -8.2      4.024      8.806
  Name = 
  1 active torsions:
  status: ('A' for Active; 'I' for Inactive)
    1  A    between atoms: N_10  and  C_24
                            x       y       z     vdW  Elec       q    Type
                         _______ _______ _______ _____ _____    ______ ____

>  <TORSDO>
F 1

$$$$
