=
 OpenBabel10262421583D

 30 33  0  0  1  0  0  0  0  0999 V2000
  187.2410  177.7270  143.3080 N   0  0  0  0  0  0  0  0  0  0  0  0
  185.0300  178.4010  142.4960 C   0  0  0  0  0  0  0  0  0  0  0  0
  186.0860  178.5860  147.3110 C   0  0  0  0  0  3  0  0  0  0  0  0
  188.1390  177.2650  144.3640 C   0  0  0  0  0  0  0  0  0  0  0  0
  186.9790  178.3950  148.3680 C   0  0  0  0  0  3  0  0  0  0  0  0
  183.7340  178.8610  142.7400 C   0  0  0  0  0  3  0  0  0  0  0  0
  185.4280  178.1700  141.2210 F   0  0  0  0  0  0  0  0  0  0  0  0
  186.4470  178.2410  145.9990 C   0  0  0  0  0  0  0  0  0  0  0  0
  183.3130  179.1100  144.0480 C   0  0  0  0  0  3  0  0  0  0  0  0
  185.9070  178.1770  143.5640 C   0  0  0  0  0  0  0  0  0  0  0  0
  187.7340  177.7120  145.7520 C   0  0  0  0  0  0  0  0  0  0  0  0
  188.2380  177.8470  148.1260 C   0  0  0  0  0  3  0  0  0  0  0  0
  188.6100  177.4990  146.8270 C   0  0  0  0  0  3  0  0  0  0  0  0
  184.1900  178.9000  145.1150 C   0  0  0  0  0  3  0  0  0  0  0  0
  185.4940  178.4350  144.8830 C   0  0  0  0  0  0  0  0  0  0  0  0
  191.0250  178.8330  142.7470 O   0  0  0  0  0  0  0  0  0  0  0  0
  189.9650  178.1520  142.7740 C   0  0  0  0  0  0  0  0  0  0  0  0
  189.5320  177.5740  144.0280 N   0  0  0  0  0  0  0  0  0  0  0  0
  188.4520  178.9550  140.9090 C   0  0  0  0  0  3  0  0  0  0  0  0
  189.2170  176.8690  140.7600 N   0  0  0  0  0  0  0  0  0  0  0  0
  189.2150  177.9800  141.5130 C   0  0  1  0  0  3  0  0  0  0  0  0
  187.9570  178.4370  139.7700 N   0  0  0  0  0  0  0  0  0  0  0  0
  188.4350  177.1770  139.7080 C   0  0  0  0  0  3  0  0  0  0  0  0
  190.5000  177.4040  145.1040 C   0  0  0  0  0  2  0  0  0  0  0  0
  191.3070  176.1340  144.8870 C   0  0  0  0  0  2  0  0  0  0  0  0
  191.8400  176.3390  147.2700 C   0  0  0  0  0  3  0  0  0  0  0  0
  192.1550  175.8480  146.0780 C   0  0  0  0  0  3  0  0  0  0  0  0
  193.1830  177.1090  149.2110 O   0  0  0  0  0  1  0  0  0  0  0  0
  192.6640  176.0680  148.4500 C   0  0  0  0  0  0  0  0  0  0  0  0
  192.9030  174.8770  148.7790 O   0  0  0  0  0  0  0  0  0  0  0  0
  1 10  2  0  0  0  0
  1  4  1  0  0  0  0
  2  6  2  0  0  0  0
  2 10  1  0  0  0  0
  3  5  2  0  0  0  0
  4 11  2  0  0  0  0
  6  9  1  0  0  0  0
  7  2  1  0  0  0  0
  8  3  1  0  0  0  0
  9 14  2  0  0  0  0
 10 15  1  0  0  0  0
 11  8  1  0  0  0  0
 11 13  1  0  0  0  0
 12  5  1  0  0  0  0
 13 12  2  0  0  0  0
 15 14  1  0  0  0  0
 15  8  2  0  0  0  0
 16 17  2  0  0  0  0
 17 18  1  0  0  0  0
 18  4  1  0  0  0  0
 18 24  1  0  0  0  0
 19 21  1  0  0  0  0
 20 21  1  0  0  0  0
 21 17  1  6  0  0  0
 22 19  2  0  0  0  0
 23 22  1  0  0  0  0
 23 20  2  0  0  0  0
 25 24  1  0  0  0  0
 25 27  1  0  0  0  0
 26 29  1  0  0  0  0
 27 26  2  0  0  0  0
 29 30  2  0  0  0  0
 29 28  1  0  0  0  0
M  END
>  <MODEL>
1

>  <REMARK>
 VINA RESULT:      -9.0      0.000      0.000
  Name = 
  6 active torsions:
  status: ('A' for Active; 'I' for Inactive)
    1  A    between atoms: C_4  and  N_13
    2  A    between atoms: C_7  and  C_15
    3  A    between atoms: C_8  and  C_12
    4  A    between atoms: N_13  and  C_27
    5  A    between atoms: C_16  and  C_30
    6  A    between atoms: C_27  and  C_30
                            x       y       z     vdW  Elec       q    Type
                         _______ _______ _______ _____ _____    ______ ____

>  <TORSDO>
F 6

$$$$
=
 OpenBabel10262421583D

 30 33  0  0  0  0  0  0  0  0999 V2000
  186.9150  177.9650  144.6210 N   0  0  0  0  0  0  0  0  0  0  0  0
  186.5590  178.4820  146.9890 C   0  0  0  0  0  0  0  0  0  0  0  0
  190.8850  176.6780  145.4480 C   0  0  0  0  0  3  0  0  0  0  0  0
  187.6150  177.2630  143.5470 C   0  0  0  0  0  0  0  0  0  0  0  0
  191.7110  176.2100  144.4240 C   0  0  0  0  0  3  0  0  0  0  0  0
  187.0190  178.5170  148.3080 C   0  0  0  0  0  3  0  0  0  0  0  0
  185.3140  178.9350  146.7030 F   0  0  0  0  0  0  0  0  0  0  0  0
  189.5540  177.0400  145.1840 C   0  0  0  0  0  0  0  0  0  0  0  0
  188.3020  178.0600  148.6160 C   0  0  0  0  0  3  0  0  0  0  0  0
  187.3810  177.9780  145.9730 C   0  0  0  0  0  0  0  0  0  0  0  0
  189.0610  176.9450  143.8630 C   0  0  0  0  0  0  0  0  0  0  0  0
  191.2140  176.0900  143.1270 C   0  0  0  0  0  3  0  0  0  0  0  0
  189.8930  176.4480  142.8490 C   0  0  0  0  0  3  0  0  0  0  0  0
  189.1290  177.5690  147.6030 C   0  0  0  0  0  3  0  0  0  0  0  0
  188.6780  177.5260  146.2740 C   0  0  0  0  0  0  0  0  0  0  0  0
  186.5550  179.8000  141.1290 O   0  0  0  0  0  0  0  0  0  0  0  0
  186.3690  178.9050  141.9980 C   0  0  0  0  0  0  0  0  0  0  0  0
  187.4290  177.9580  142.2700 N   0  0  0  0  0  0  0  0  0  0  0  0
  184.6770  179.7550  143.6800 C   0  0  0  0  0  3  0  0  0  0  0  0
  184.0730  178.0100  142.4340 N   0  0  0  0  0  0  0  0  0  0  0  0
  185.0680  178.8730  142.6970 C   0  0  0  0  0  0  0  0  0  0  0  0
  183.4250  179.4270  144.0470 N   0  0  0  0  0  2  0  0  0  0  0  0
  183.0880  178.3710  143.2780 C   0  0  0  0  0  3  0  0  0  0  0  0
  188.4810  177.7640  141.2800 C   0  0  0  0  0  2  0  0  0  0  0  0
  187.8980  177.8350  139.8770 C   0  0  0  0  0  2  0  0  0  0  0  0
  190.0160  176.7950  139.2150 C   0  0  0  0  0  3  0  0  0  0  0  0
  188.7520  177.0750  138.9220 C   0  0  0  0  0  3  0  0  0  0  0  0
  191.7920  176.7070  137.4820 O   0  0  0  0  0  0  0  0  0  0  0  0
  190.8690  176.0490  138.2870 C   0  0  0  0  0  0  0  0  0  0  0  0
  190.7640  174.7970  138.2190 O   0  0  0  0  0  1  0  0  0  0  0  0
  1 10  1  0  0  0  0
  2  6  1  0  0  0  0
  4 11  1  0  0  0  0
  4  1  2  0  0  0  0
  5  3  2  0  0  0  0
  6  9  2  0  0  0  0
  7  2  1  0  0  0  0
  8  3  1  0  0  0  0
  8 15  1  0  0  0  0
 10 15  1  0  0  0  0
 10  2  2  0  0  0  0
 11  8  2  0  0  0  0
 12  5  1  0  0  0  0
 13 12  2  0  0  0  0
 13 11  1  0  0  0  0
 14  9  1  0  0  0  0
 15 14  2  0  0  0  0
 16 17  2  0  0  0  0
 17 18  1  0  0  0  0
 17 21  1  0  0  0  0
 18  4  1  0  0  0  0
 19 22  1  0  0  0  0
 20 21  1  0  0  0  0
 20 23  2  0  0  0  0
 21 19  2  0  0  0  0
 23 22  1  0  0  0  0
 24 18  1  0  0  0  0
 25 24  1  0  0  0  0
 27 26  2  0  0  0  0
 27 25  1  0  0  0  0
 28 29  2  0  0  0  0
 29 26  1  0  0  0  0
 30 29  1  0  0  0  0
M  END
>  <MODEL>
2

>  <REMARK>
 VINA RESULT:      -8.7      3.414      6.050
  Name = 
  6 active torsions:
  status: ('A' for Active; 'I' for Inactive)
    1  A    between atoms: C_4  and  N_13
    2  A    between atoms: C_7  and  C_15
    3  A    between atoms: C_8  and  C_12
    4  A    between atoms: N_13  and  C_27
    5  A    between atoms: C_16  and  C_30
    6  A    between atoms: C_27  and  C_30
                            x       y       z     vdW  Elec       q    Type
                         _______ _______ _______ _____ _____    ______ ____

>  <TORSDO>
F 6

$$$$
=
 OpenBabel10262421583D

 30 33  0  0  0  0  0  0  0  0999 V2000
  188.1040  178.1630  143.4450 N   0  0  0  0  0  0  0  0  0  0  0  0
  187.4220  177.9860  145.7920 C   0  0  0  0  0  0  0  0  0  0  0  0
  184.0410  178.5290  142.2410 C   0  0  0  0  0  3  0  0  0  0  0  0
  187.8640  178.5640  142.0610 C   0  0  0  0  0  0  0  0  0  0  0  0
  183.7060  178.6790  140.8930 C   0  0  0  0  0  3  0  0  0  0  0  0
  186.4250  177.9730  146.7700 C   0  0  0  0  0  3  0  0  0  0  0  0
  188.7180  177.8210  146.1560 F   0  0  0  0  0  0  0  0  0  0  0  0
  185.3850  178.4740  142.6420 C   0  0  0  0  0  0  0  0  0  0  0  0
  185.0860  178.1350  146.4080 C   0  0  0  0  0  3  0  0  0  0  0  0
  187.0830  178.1730  144.4460 C   0  0  0  0  0  0  0  0  0  0  0  0
  186.4020  178.5530  141.6650 C   0  0  0  0  0  0  0  0  0  0  0  0
  184.7130  178.7850  139.9330 C   0  0  0  0  0  3  0  0  0  0  0  0
  186.0530  178.7310  140.3180 C   0  0  0  0  0  3  0  0  0  0  0  0
  184.7420  178.3080  145.0650 C   0  0  0  0  0  3  0  0  0  0  0  0
  185.7350  178.3260  144.0730 C   0  0  0  0  0  0  0  0  0  0  0  0
  190.2150  176.0350  140.8460 O   0  0  0  0  0  0  0  0  0  0  0  0
  189.8580  177.0090  141.5630 C   0  0  0  0  0  0  0  0  0  0  0  0
  188.7280  177.8110  141.1480 N   0  0  0  0  0  0  0  0  0  0  0  0
  190.8150  176.3750  143.8200 C   0  0  0  0  0  3  0  0  0  0  0  0
  191.2670  178.4230  143.0710 N   0  0  0  0  0  0  0  0  0  0  0  0
  190.6200  177.2790  142.7990 C   0  0  0  0  0  0  0  0  0  0  0  0
  191.5810  176.9720  144.7510 N   0  0  0  0  0  2  0  0  0  0  0  0
  191.8380  178.2060  144.2710 C   0  0  0  0  0  3  0  0  0  0  0  0
  188.3070  177.7790  139.7530 C   0  0  0  0  0  2  0  0  0  0  0  0
  189.2190  178.6580  138.9110 C   0  0  0  0  0  2  0  0  0  0  0  0
  187.7990  178.1670  136.9750 C   0  0  0  0  0  3  0  0  0  0  0  0
  189.0150  178.3780  137.4620 C   0  0  0  0  0  3  0  0  0  0  0  0
  188.6490  177.5950  134.7140 O   0  0  0  0  0  0  0  0  0  0  0  0
  187.5810  177.8900  135.5530 C   0  0  0  0  0  0  0  0  0  0  0  0
  186.4130  177.9200  135.0880 O   0  0  0  0  0  1  0  0  0  0  0  0
  1 10  1  0  0  0  0
  2  7  1  0  0  0  0
  2  6  1  0  0  0  0
  3  8  1  0  0  0  0
  4  1  2  0  0  0  0
  5  3  2  0  0  0  0
  8 15  1  0  0  0  0
  9  6  2  0  0  0  0
 10  2  2  0  0  0  0
 11  4  1  0  0  0  0
 11  8  2  0  0  0  0
 12 13  2  0  0  0  0
 12  5  1  0  0  0  0
 13 11  1  0  0  0  0
 14  9  1  0  0  0  0
 15 10  1  0  0  0  0
 15 14  2  0  0  0  0
 16 17  2  0  0  0  0
 17 21  1  0  0  0  0
 18 17  1  0  0  0  0
 18  4  1  0  0  0  0
 19 22  1  0  0  0  0
 20 23  2  0  0  0  0
 21 20  1  0  0  0  0
 21 19  2  0  0  0  0
 23 22  1  0  0  0  0
 24 18  1  0  0  0  0
 25 24  1  0  0  0  0
 26 27  2  0  0  0  0
 27 25  1  0  0  0  0
 28 29  2  0  0  0  0
 29 26  1  0  0  0  0
 30 29  1  0  0  0  0
M  END
>  <MODEL>
3

>  <REMARK>
 VINA RESULT:      -8.5      3.076      6.958
  Name = 
  6 active torsions:
  status: ('A' for Active; 'I' for Inactive)
    1  A    between atoms: C_4  and  N_13
    2  A    between atoms: C_7  and  C_15
    3  A    between atoms: C_8  and  C_12
    4  A    between atoms: N_13  and  C_27
    5  A    between atoms: C_16  and  C_30
    6  A    between atoms: C_27  and  C_30
                            x       y       z     vdW  Elec       q    Type
                         _______ _______ _______ _____ _____    ______ ____

>  <TORSDO>
F 6

$$$$
=
 OpenBabel10262421583D

 30 33  0  0  1  0  0  0  0  0999 V2000
  183.9140  178.5460  141.3720 N   0  0  0  0  0  0  0  0  0  0  0  0
  185.5050  178.4550  143.2320 C   0  0  0  0  0  0  0  0  0  0  0  0
  180.6700  178.9100  144.1000 C   0  0  0  0  0  3  0  0  0  0  0  0
  182.6150  178.9030  140.8040 C   0  0  0  0  0  0  0  0  0  0  0  0
  179.3570  179.0170  143.6380 C   0  0  0  0  0  3  0  0  0  0  0  0
  185.7770  178.4840  144.6020 C   0  0  0  0  0  3  0  0  0  0  0  0
  186.5240  178.2900  142.3530 F   0  0  0  0  0  0  0  0  0  0  0  0
  181.7440  178.8560  143.1980 C   0  0  0  0  0  0  0  0  0  0  0  0
  184.7360  178.6470  145.5200 C   0  0  0  0  0  3  0  0  0  0  0  0
  184.1900  178.6000  142.7740 C   0  0  0  0  0  0  0  0  0  0  0  0
  181.4830  178.8920  141.8100 C   0  0  0  0  0  0  0  0  0  0  0  0
  179.1040  179.0810  142.2680 C   0  0  0  0  0  3  0  0  0  0  0  0
  180.1620  179.0280  141.3590 C   0  0  0  0  0  3  0  0  0  0  0  0
  183.4210  178.7780  145.0670 C   0  0  0  0  0  3  0  0  0  0  0  0
  183.1360  178.7530  143.6920 C   0  0  0  0  0  0  0  0  0  0  0  0
  182.3260  178.0010  137.2680 O   0  0  0  0  0  0  0  0  0  0  0  0
  182.0500  178.6710  138.3000 C   0  0  0  0  0  0  0  0  0  0  0  0
  182.3430  178.1110  139.6010 N   0  0  0  0  0  0  0  0  0  0  0  0
  180.1300  180.2260  137.7440 C   0  0  0  0  0  3  0  0  0  0  0  0
  182.0530  181.1730  138.3500 N   0  0  0  0  0  0  0  0  0  0  0  0
  181.4360  180.0020  138.1210 C   0  0  1  0  0  3  0  0  0  0  0  0
  179.9350  181.5560  137.7210 N   0  0  0  0  0  0  0  0  0  0  0  0
  181.1120  182.1010  138.0910 C   0  0  0  0  0  3  0  0  0  0  0  0
  182.5280  176.6710  139.7310 C   0  0  0  0  0  2  0  0  0  0  0  0
  181.1780  175.9750  139.8040 C   0  0  0  0  0  2  0  0  0  0  0  0
  180.0300  174.1090  138.7070 C   0  0  0  0  0  3  0  0  0  0  0  0
  181.0890  174.9070  138.7700 C   0  0  0  0  0  3  0  0  0  0  0  0
  180.5520  171.8260  137.8820 O   0  0  0  0  0  1  0  0  0  0  0  0
  179.9270  173.0540  137.6960 C   0  0  0  0  0  0  0  0  0  0  0  0
  179.2620  173.2620  136.6480 O   0  0  0  0  0  0  0  0  0  0  0  0
  1 10  1  0  0  0  0
  2  6  1  0  0  0  0
  4  1  2  0  0  0  0
  4 11  1  0  0  0  0
  5  3  1  0  0  0  0
  6  9  2  0  0  0  0
  7  2  1  0  0  0  0
  8 15  1  0  0  0  0
  8  3  2  0  0  0  0
 10  2  2  0  0  0  0
 10 15  1  0  0  0  0
 11  8  1  0  0  0  0
 12  5  2  0  0  0  0
 13 11  2  0  0  0  0
 13 12  1  0  0  0  0
 14  9  1  0  0  0  0
 15 14  2  0  0  0  0
 16 17  2  0  0  0  0
 17 18  1  0  0  0  0
 18 24  1  0  0  0  0
 18  4  1  0  0  0  0
 19 21  1  0  0  0  0
 21 17  1  1  0  0  0
 21 20  1  0  0  0  0
 22 19  2  0  0  0  0
 22 23  1  0  0  0  0
 23 20  2  0  0  0  0
 24 25  1  0  0  0  0
 26 27  2  0  0  0  0
 27 25  1  0  0  0  0
 29 28  1  0  0  0  0
 29 26  1  0  0  0  0
 30 29  2  0  0  0  0
M  END
>  <MODEL>
4

>  <REMARK>
 VINA RESULT:      -8.5      6.052      9.530
  Name = 
  6 active torsions:
  status: ('A' for Active; 'I' for Inactive)
    1  A    between atoms: C_4  and  N_13
    2  A    between atoms: C_7  and  C_15
    3  A    between atoms: C_8  and  C_12
    4  A    between atoms: N_13  and  C_27
    5  A    between atoms: C_16  and  C_30
    6  A    between atoms: C_27  and  C_30
                            x       y       z     vdW  Elec       q    Type
                         _______ _______ _______ _____ _____    ______ ____

>  <TORSDO>
F 6

$$$$
=
 OpenBabel10262421583D

 30 33  0  0  0  0  0  0  0  0999 V2000
  188.0330  178.1570  143.6910 N   0  0  0  0  0  0  0  0  0  0  0  0
  187.2830  178.0620  146.0220 C   0  0  0  0  0  0  0  0  0  0  0  0
  184.0090  178.5210  142.3610 C   0  0  0  0  0  3  0  0  0  0  0  0
  187.8350  178.5160  142.2890 C   0  0  0  0  0  0  0  0  0  0  0  0
  183.7140  178.6310  141.0000 C   0  0  0  0  0  3  0  0  0  0  0  0
  186.2590  178.0900  146.9720 C   0  0  0  0  0  3  0  0  0  0  0  0
  188.5660  177.8980  146.4280 F   0  0  0  0  0  0  0  0  0  0  0  0
  185.3400  178.4670  142.8020 C   0  0  0  0  0  0  0  0  0  0  0  0
  184.9320  178.2530  146.5660 C   0  0  0  0  0  3  0  0  0  0  0  0
  186.9830  178.2090  144.6620 C   0  0  0  0  0  0  0  0  0  0  0  0
  186.3860  178.5060  141.8520 C   0  0  0  0  0  0  0  0  0  0  0  0
  184.7480  178.6960  140.0660 C   0  0  0  0  0  3  0  0  0  0  0  0
  186.0760  178.6430  140.4900 C   0  0  0  0  0  3  0  0  0  0  0  0
  184.6280  178.3860  145.2090 C   0  0  0  0  0  3  0  0  0  0  0  0
  185.6490  178.3620  144.2460 C   0  0  0  0  0  0  0  0  0  0  0  0
  190.2840  176.0030  141.2460 O   0  0  0  0  0  0  0  0  0  0  0  0
  189.8940  177.0190  141.8820 C   0  0  0  0  0  0  0  0  0  0  0  0
  188.7180  177.7250  141.4250 N   0  0  0  0  0  0  0  0  0  0  0  0
  190.9250  176.6390  144.1640 C   0  0  0  0  0  3  0  0  0  0  0  0
  191.2640  178.6290  143.2220 N   0  0  0  0  0  0  0  0  0  0  0  0
  190.6670  177.4360  143.0700 C   0  0  0  0  0  0  0  0  0  0  0  0
  191.6810  177.3530  145.0180 N   0  0  0  0  0  2  0  0  0  0  0  0
  191.8680  178.5490  144.4220 C   0  0  0  0  0  3  0  0  0  0  0  0
  188.2700  177.5480  140.0500 C   0  0  0  0  0  2  0  0  0  0  0  0
  189.1750  178.3180  139.1010 C   0  0  0  0  0  2  0  0  0  0  0  0
  189.4550  176.1170  138.0620 C   0  0  0  0  0  3  0  0  0  0  0  0
  189.8270  177.3880  138.1370 C   0  0  0  0  0  3  0  0  0  0  0  0
  190.8450  174.1180  137.5740 O   0  0  0  0  0  1  0  0  0  0  0  0
  190.0850  175.1900  137.1190 C   0  0  0  0  0  0  0  0  0  0  0  0
  189.9360  175.3660  135.8820 O   0  0  0  0  0  0  0  0  0  0  0  0
  1 10  1  0  0  0  0
  2  7  1  0  0  0  0
  2  6  1  0  0  0  0
  3  8  1  0  0  0  0
  4  1  2  0  0  0  0
  5  3  2  0  0  0  0
  8 15  1  0  0  0  0
  9  6  2  0  0  0  0
 10  2  2  0  0  0  0
 11  4  1  0  0  0  0
 11  8  2  0  0  0  0
 12 13  2  0  0  0  0
 12  5  1  0  0  0  0
 13 11  1  0  0  0  0
 14  9  1  0  0  0  0
 15 10  1  0  0  0  0
 15 14  2  0  0  0  0
 16 17  2  0  0  0  0
 17 21  1  0  0  0  0
 18 17  1  0  0  0  0
 18  4  1  0  0  0  0
 19 22  1  0  0  0  0
 20 23  2  0  0  0  0
 21 20  1  0  0  0  0
 21 19  2  0  0  0  0
 23 22  1  0  0  0  0
 24 18  1  0  0  0  0
 25 24  1  0  0  0  0
 26 27  2  0  0  0  0
 27 25  1  0  0  0  0
 29 28  1  0  0  0  0
 29 26  1  0  0  0  0
 30 29  2  0  0  0  0
M  END
>  <MODEL>
5

>  <REMARK>
 VINA RESULT:      -8.3      2.948      6.279
  Name = 
  6 active torsions:
  status: ('A' for Active; 'I' for Inactive)
    1  A    between atoms: C_4  and  N_13
    2  A    between atoms: C_7  and  C_15
    3  A    between atoms: C_8  and  C_12
    4  A    between atoms: N_13  and  C_27
    5  A    between atoms: C_16  and  C_30
    6  A    between atoms: C_27  and  C_30
                            x       y       z     vdW  Elec       q    Type
                         _______ _______ _______ _____ _____    ______ ____

>  <TORSDO>
F 6

$$$$
=
 OpenBabel10262421583D

 30 33  0  0  1  0  0  0  0  0999 V2000
  186.8970  177.7910  142.6760 N   0  0  0  0  0  0  0  0  0  0  0  0
  185.1560  178.5060  144.2450 C   0  0  0  0  0  0  0  0  0  0  0  0
  189.6180  177.1930  145.8920 C   0  0  0  0  0  3  0  0  0  0  0  0
  188.1380  177.0850  142.3640 C   0  0  0  0  0  0  0  0  0  0  0  0
  190.9180  176.7410  145.6520 C   0  0  0  0  0  3  0  0  0  0  0  0
  184.7230  178.7520  145.5510 C   0  0  0  0  0  3  0  0  0  0  0  0
  184.3160  178.7390  143.2070 F   0  0  0  0  0  0  0  0  0  0  0  0
  188.7020  177.3270  144.8370 C   0  0  0  0  0  0  0  0  0  0  0  0
  185.5810  178.5220  146.6290 C   0  0  0  0  0  3  0  0  0  0  0  0
  186.4490  178.0190  144.0160 C   0  0  0  0  0  0  0  0  0  0  0  0
  189.1120  177.0170  143.5200 C   0  0  0  0  0  0  0  0  0  0  0  0
  191.3120  176.4100  144.3560 C   0  0  0  0  0  3  0  0  0  0  0  0
  190.4120  176.5380  143.2980 C   0  0  0  0  0  3  0  0  0  0  0  0
  186.8750  178.0490  146.4020 C   0  0  0  0  0  3  0  0  0  0  0  0
  187.3220  177.7960  145.0960 C   0  0  0  0  0  0  0  0  0  0  0  0
  188.7500  179.2710  139.4920 O   0  0  0  0  0  0  0  0  0  0  0  0
  188.0570  178.5020  140.2120 C   0  0  0  0  0  0  0  0  0  0  0  0
  188.7270  177.6010  141.1250 N   0  0  0  0  0  0  0  0  0  0  0  0
  185.8280  177.7130  139.3070 C   0  0  0  0  0  3  0  0  0  0  0  0
  185.7890  179.4200  140.7370 N   0  0  0  0  0  0  0  0  0  0  0  0
  186.5870  178.5620  140.0810 C   0  0  1  0  0  3  0  0  0  0  0  0
  184.5370  178.0570  139.4700 N   0  0  0  0  0  0  0  0  0  0  0  0
  184.5460  179.0900  140.3370 C   0  0  0  0  0  3  0  0  0  0  0  0
  190.1300  177.2770  140.9030 C   0  0  0  0  0  2  0  0  0  0  0  0
  190.3090  176.6330  139.5370 C   0  0  0  0  0  2  0  0  0  0  0  0
  192.1450  176.2970  137.9500 C   0  0  0  0  0  3  0  0  0  0  0  0
  191.7550  176.5330  139.1960 C   0  0  0  0  0  3  0  0  0  0  0  0
  194.4450  175.4740  138.3930 O   0  0  0  0  0  1  0  0  0  0  0  0
  193.5630  176.1960  137.5980 C   0  0  0  0  0  0  0  0  0  0  0  0
  193.9870  176.7710  136.5610 O   0  0  0  0  0  0  0  0  0  0  0  0
  1 10  1  0  0  0  0
  2  6  1  0  0  0  0
  4  1  2  0  0  0  0
  4 11  1  0  0  0  0
  5  3  1  0  0  0  0
  6  9  2  0  0  0  0
  7  2  1  0  0  0  0
  8 15  1  0  0  0  0
  8  3  2  0  0  0  0
 10  2  2  0  0  0  0
 10 15  1  0  0  0  0
 11  8  1  0  0  0  0
 12  5  2  0  0  0  0
 13 11  2  0  0  0  0
 13 12  1  0  0  0  0
 14  9  1  0  0  0  0
 15 14  2  0  0  0  0
 16 17  2  0  0  0  0
 17 18  1  0  0  0  0
 18  4  1  0  0  0  0
 19 22  2  0  0  0  0
 19 21  1  0  0  0  0
 21 17  1  1  0  0  0
 21 20  1  0  0  0  0
 22 23  1  0  0  0  0
 23 20  2  0  0  0  0
 24 18  1  0  0  0  0
 25 24  1  0  0  0  0
 26 27  2  0  0  0  0
 27 25  1  0  0  0  0
 29 26  1  0  0  0  0
 29 28  1  0  0  0  0
 30 29  2  0  0  0  0
M  END
>  <MODEL>
6

>  <REMARK>
 VINA RESULT:      -8.3      3.247      5.256
  Name = 
  6 active torsions:
  status: ('A' for Active; 'I' for Inactive)
    1  A    between atoms: C_4  and  N_13
    2  A    between atoms: C_7  and  C_15
    3  A    between atoms: C_8  and  C_12
    4  A    between atoms: N_13  and  C_27
    5  A    between atoms: C_16  and  C_30
    6  A    between atoms: C_27  and  C_30
                            x       y       z     vdW  Elec       q    Type
                         _______ _______ _______ _____ _____    ______ ____

>  <TORSDO>
F 6

$$$$
=
 OpenBabel10262421583D

 30 33  0  0  1  0  0  0  0  0999 V2000
  187.1340  177.9900  141.5310 N   0  0  0  0  0  0  0  0  0  0  0  0
  185.2690  178.6940  142.9560 C   0  0  0  0  0  0  0  0  0  0  0  0
  189.4380  176.9790  144.9610 C   0  0  0  0  0  3  0  0  0  0  0  0
  188.3610  177.2320  141.2970 C   0  0  0  0  0  0  0  0  0  0  0  0
  190.7300  176.4640  144.8270 C   0  0  0  0  0  3  0  0  0  0  0  0
  184.7060  178.8680  144.2230 C   0  0  0  0  0  3  0  0  0  0  0  0
  184.5660  179.0580  141.8560 F   0  0  0  0  0  0  0  0  0  0  0  0
  188.6550  177.2500  143.8280 C   0  0  0  0  0  0  0  0  0  0  0  0
  185.4230  178.5040  145.3650 C   0  0  0  0  0  3  0  0  0  0  0  0
  186.5510  178.1440  142.8280 C   0  0  0  0  0  0  0  0  0  0  0  0
  189.1940  177.0150  142.5420 C   0  0  0  0  0  0  0  0  0  0  0  0
  191.2490  176.2070  143.5580 C   0  0  0  0  0  3  0  0  0  0  0  0
  190.4820  176.4720  142.4230 C   0  0  0  0  0  3  0  0  0  0  0  0
  186.7060  177.9670  145.2410 C   0  0  0  0  0  3  0  0  0  0  0  0
  187.2830  177.7860  143.9740 C   0  0  0  0  0  0  0  0  0  0  0  0
  189.1640  179.3060  138.3900 O   0  0  0  0  0  0  0  0  0  0  0  0
  188.5110  178.4310  139.0200 C   0  0  0  0  0  0  0  0  0  0  0  0
  189.1130  177.8020  140.1750 N   0  0  0  0  0  0  0  0  0  0  0  0
  186.8520  177.0250  137.7240 C   0  0  0  0  0  3  0  0  0  0  0  0
  186.0340  178.7500  138.8710 N   0  0  0  0  0  0  0  0  0  0  0  0
  187.1560  178.0920  138.5390 C   0  0  1  0  0  3  0  0  0  0  0  0
  185.5200  177.0260  137.5320 N   0  0  0  0  0  0  0  0  0  0  0  0
  185.0550  178.0790  138.2360 C   0  0  0  0  0  3  0  0  0  0  0  0
  190.5610  177.8450  140.3360 C   0  0  0  0  0  2  0  0  0  0  0  0
  191.2400  177.2290  139.1230 C   0  0  0  0  0  2  0  0  0  0  0  0
  190.3940  175.7060  137.4000 C   0  0  0  0  0  3  0  0  0  0  0  0
  190.5130  176.0040  138.6880 C   0  0  0  0  0  3  0  0  0  0  0  0
  188.6510  174.5910  136.0270 O   0  0  0  0  0  0  0  0  0  0  0  0
  189.6820  174.5050  136.9560 C   0  0  0  0  0  0  0  0  0  0  0  0
  190.0090  173.3830  137.4210 O   0  0  0  0  0  1  0  0  0  0  0  0
  1 10  1  0  0  0  0
  2  6  1  0  0  0  0
  4  1  2  0  0  0  0
  4 11  1  0  0  0  0
  5  3  1  0  0  0  0
  6  9  2  0  0  0  0
  7  2  1  0  0  0  0
  8 15  1  0  0  0  0
  8  3  2  0  0  0  0
 10  2  2  0  0  0  0
 10 15  1  0  0  0  0
 11  8  1  0  0  0  0
 12  5  2  0  0  0  0
 13 11  2  0  0  0  0
 13 12  1  0  0  0  0
 14  9  1  0  0  0  0
 15 14  2  0  0  0  0
 16 17  2  0  0  0  0
 17 18  1  0  0  0  0
 18 24  1  0  0  0  0
 18  4  1  0  0  0  0
 19 21  1  0  0  0  0
 21 20  1  0  0  0  0
 21 17  1  1  0  0  0
 22 19  2  0  0  0  0
 22 23  1  0  0  0  0
 23 20  2  0  0  0  0
 25 24  1  0  0  0  0
 26 27  2  0  0  0  0
 27 25  1  0  0  0  0
 28 29  2  0  0  0  0
 29 26  1  0  0  0  0
 29 30  1  0  0  0  0
M  END
>  <MODEL>
7

>  <REMARK>
 VINA RESULT:      -8.3      3.643      5.755
  Name = 
  6 active torsions:
  status: ('A' for Active; 'I' for Inactive)
    1  A    between atoms: C_4  and  N_13
    2  A    between atoms: C_7  and  C_15
    3  A    between atoms: C_8  and  C_12
    4  A    between atoms: N_13  and  C_27
    5  A    between atoms: C_16  and  C_30
    6  A    between atoms: C_27  and  C_30
                            x       y       z     vdW  Elec       q    Type
                         _______ _______ _______ _____ _____    ______ ____

>  <TORSDO>
F 6

$$$$
=
 OpenBabel10262421583D

 30 33  0  0  1  0  0  0  0  0999 V2000
  188.0890  177.5080  140.8530 N   0  0  0  0  0  0  0  0  0  0  0  0
  186.2100  178.4650  139.6050 C   0  0  0  0  0  0  0  0  0  0  0  0
  186.0860  178.2510  144.5330 C   0  0  0  0  0  3  0  0  0  0  0  0
  188.6590  176.8890  142.0480 C   0  0  0  0  0  0  0  0  0  0  0  0
  186.6760  177.9010  145.7490 C   0  0  0  0  0  3  0  0  0  0  0  0
  184.9410  179.0490  139.5770 C   0  0  0  0  0  3  0  0  0  0  0  0
  186.8800  178.2670  138.4440 F   0  0  0  0  0  0  0  0  0  0  0  0
  186.7190  177.9460  143.3170 C   0  0  0  0  0  0  0  0  0  0  0  0
  184.2420  179.2640  140.7670 C   0  0  0  0  0  3  0  0  0  0  0  0
  186.7790  178.0840  140.8260 C   0  0  0  0  0  0  0  0  0  0  0  0
  187.9740  177.2950  143.3350 C   0  0  0  0  0  0  0  0  0  0  0  0
  187.9010  177.2350  145.7640 C   0  0  0  0  0  3  0  0  0  0  0  0
  188.5420  176.9260  144.5640 C   0  0  0  0  0  3  0  0  0  0  0  0
  184.8120  178.8980  141.9880 C   0  0  0  0  0  3  0  0  0  0  0  0
  186.0860  178.3080  142.0290 C   0  0  0  0  0  0  0  0  0  0  0  0
  192.0160  177.9690  141.0640 O   0  0  0  0  0  0  0  0  0  0  0  0
  190.9260  177.3530  140.9120 C   0  0  0  0  0  0  0  0  0  0  0  0
  190.1140  177.0640  142.0740 N   0  0  0  0  0  0  0  0  0  0  0  0
  190.1370  177.8260  138.5530 C   0  0  0  0  0  3  0  0  0  0  0  0
  190.5630  175.7020  139.0670 N   0  0  0  0  0  0  0  0  0  0  0  0
  190.5360  176.9560  139.5440 C   0  0  1  0  0  3  0  0  0  0  0  0
  189.8970  177.1000  137.4460 N   0  0  0  0  0  0  0  0  0  0  0  0
  190.1620  175.8230  137.7870 C   0  0  0  0  0  3  0  0  0  0  0  0
  190.7310  177.0790  143.3940 C   0  0  0  0  0  2  0  0  0  0  0  0
  191.5450  175.8120  143.6060 C   0  0  0  0  0  2  0  0  0  0  0  0
  191.7060  176.6320  145.9100 C   0  0  0  0  0  3  0  0  0  0  0  0
  191.8540  175.6310  145.0520 C   0  0  0  0  0  3  0  0  0  0  0  0
  191.4940  177.3570  148.2750 O   0  0  0  0  0  1  0  0  0  0  0  0
  192.0050  176.4700  147.3340 C   0  0  0  0  0  0  0  0  0  0  0  0
  192.7340  175.5160  147.7100 O   0  0  0  0  0  0  0  0  0  0  0  0
  1  4  1  0  0  0  0
  2 10  1  0  0  0  0
  3  5  2  0  0  0  0
  4 18  1  0  0  0  0
  4 11  2  0  0  0  0
  5 12  1  0  0  0  0
  6  2  2  0  0  0  0
  6  9  1  0  0  0  0
  7  2  1  0  0  0  0
  8 11  1  0  0  0  0
  8  3  1  0  0  0  0
  9 14  2  0  0  0  0
 10  1  2  0  0  0  0
 10 15  1  0  0  0  0
 11 13  1  0  0  0  0
 13 12  2  0  0  0  0
 14 15  1  0  0  0  0
 15  8  2  0  0  0  0
 17 16  2  0  0  0  0
 17 18  1  0  0  0  0
 18 24  1  0  0  0  0
 19 21  1  0  0  0  0
 20 21  1  0  0  0  0
 21 17  1  6  0  0  0
 22 23  1  0  0  0  0
 22 19  2  0  0  0  0
 23 20  2  0  0  0  0
 24 25  1  0  0  0  0
 25 27  1  0  0  0  0
 26 29  1  0  0  0  0
 27 26  2  0  0  0  0
 29 30  2  0  0  0  0
 29 28  1  0  0  0  0
M  END
>  <MODEL>
8

>  <REMARK>
 VINA RESULT:      -8.2      1.808      2.538
  Name = 
  6 active torsions:
  status: ('A' for Active; 'I' for Inactive)
    1  A    between atoms: C_4  and  N_13
    2  A    between atoms: C_7  and  C_15
    3  A    between atoms: C_8  and  C_12
    4  A    between atoms: N_13  and  C_27
    5  A    between atoms: C_16  and  C_30
    6  A    between atoms: C_27  and  C_30
                            x       y       z     vdW  Elec       q    Type
                         _______ _______ _______ _____ _____    ______ ____

>  <TORSDO>
F 6

$$$$
=
 OpenBabel10262421583D

 30 33  0  0  1  0  0  0  0  0999 V2000
  187.9260  177.9220  140.7330 N   0  0  0  0  0  0  0  0  0  0  0  0
  189.9630  176.8840  141.6150 C   0  0  0  0  0  0  0  0  0  0  0  0
  186.1690  177.8800  144.6070 C   0  0  0  0  0  3  0  0  0  0  0  0
  186.6940  178.6890  140.9030 C   0  0  0  0  0  0  0  0  0  0  0  0
  184.8830  178.3850  144.8130 C   0  0  0  0  0  3  0  0  0  0  0  0
  190.7020  176.3740  142.6850 C   0  0  0  0  0  3  0  0  0  0  0  0
  190.4900  176.8590  140.3660 F   0  0  0  0  0  0  0  0  0  0  0  0
  186.7720  177.9540  143.3420 C   0  0  0  0  0  0  0  0  0  0  0  0
  190.1670  176.3880  143.9760 C   0  0  0  0  0  3  0  0  0  0  0  0
  188.6880  177.4210  141.8350 C   0  0  0  0  0  0  0  0  0  0  0  0
  186.0560  178.5300  142.2670 C   0  0  0  0  0  0  0  0  0  0  0  0
  184.1890  178.9770  143.7580 C   0  0  0  0  0  3  0  0  0  0  0  0
  184.7760  179.0570  142.4950 C   0  0  0  0  0  3  0  0  0  0  0  0
  188.8910  176.9100  144.1970 C   0  0  0  0  0  3  0  0  0  0  0  0
  188.1390  177.4280  143.1300 C   0  0  0  0  0  0  0  0  0  0  0  0
  185.2860  177.2140  137.8630 O   0  0  0  0  0  0  0  0  0  0  0  0
  186.1540  177.8390  138.5300 C   0  0  0  0  0  0  0  0  0  0  0  0
  185.7740  178.4410  139.7890 N   0  0  0  0  0  0  0  0  0  0  0  0
  188.3550  176.8460  137.7670 C   0  0  0  0  0  3  0  0  0  0  0  0
  188.1250  179.0530  137.5810 N   0  0  0  0  0  0  0  0  0  0  0  0
  187.5240  177.9230  137.9840 C   0  0  1  0  0  3  0  0  0  0  0  0
  189.4980  177.3140  137.2350 N   0  0  0  0  0  0  0  0  0  0  0  0
  189.3300  178.6480  137.1350 C   0  0  0  0  0  3  0  0  0  0  0  0
  184.3650  178.7030  140.0570 C   0  0  0  0  0  2  0  0  0  0  0  0
  183.8350  179.7510  139.0910 C   0  0  0  0  0  2  0  0  0  0  0  0
  181.7070  179.3720  140.2440 C   0  0  0  0  0  3  0  0  0  0  0  0
  182.3510  179.8350  139.1800 C   0  0  0  0  0  3  0  0  0  0  0  0
  179.4490  178.3820  139.9470 O   0  0  0  0  0  0  0  0  0  0  0  0
  180.2480  179.4470  140.3480 C   0  0  0  0  0  0  0  0  0  0  0  0
  179.7120  180.4890  140.8060 O   0  0  0  0  0  1  0  0  0  0  0  0
  1  4  2  0  0  0  0
  1 10  1  0  0  0  0
  2 10  2  0  0  0  0
  2  6  1  0  0  0  0
  3  5  1  0  0  0  0
  4 11  1  0  0  0  0
  6  9  2  0  0  0  0
  7  2  1  0  0  0  0
  8  3  2  0  0  0  0
  9 14  1  0  0  0  0
 10 15  1  0  0  0  0
 11 13  2  0  0  0  0
 11  8  1  0  0  0  0
 12  5  2  0  0  0  0
 13 12  1  0  0  0  0
 15  8  1  0  0  0  0
 15 14  2  0  0  0  0
 16 17  2  0  0  0  0
 17 18  1  0  0  0  0
 18 24  1  0  0  0  0
 18  4  1  0  0  0  0
 19 21  1  0  0  0  0
 20 21  1  0  0  0  0
 21 17  1  6  0  0  0
 22 19  2  0  0  0  0
 23 22  1  0  0  0  0
 23 20  2  0  0  0  0
 25 27  1  0  0  0  0
 25 24  1  0  0  0  0
 26 29  1  0  0  0  0
 27 26  2  0  0  0  0
 28 29  2  0  0  0  0
 29 30  1  0  0  0  0
M  END
>  <MODEL>
9

>  <REMARK>
 VINA RESULT:      -8.0      4.502      7.772
  Name = 
  6 active torsions:
  status: ('A' for Active; 'I' for Inactive)
    1  A    between atoms: C_4  and  N_13
    2  A    between atoms: C_7  and  C_15
    3  A    between atoms: C_8  and  C_12
    4  A    between atoms: N_13  and  C_27
    5  A    between atoms: C_16  and  C_30
    6  A    between atoms: C_27  and  C_30
                            x       y       z     vdW  Elec       q    Type
                         _______ _______ _______ _____ _____    ______ ____

>  <TORSDO>
F 6

$$$$
