=
 OpenBabel10262419183D

 34 38  0  0  1  0  0  0  0  0999 V2000
  190.1800  177.2490  146.8340 C   0  0  0  0  0  0  0  0  0  0  0  0
  191.6060  175.8030  145.4860 C   0  0  0  0  0  0  0  0  0  0  0  0
  189.6950  177.0940  144.4520 C   0  0  0  0  0  0  0  0  0  0  0  0
  189.2440  177.7640  142.0540 C   0  0  1  0  0  3  0  0  0  0  0  0
  191.0190  177.0450  147.9310 C   0  0  0  0  0  3  0  0  0  0  0  0
  192.4230  175.6070  146.6030 C   0  0  0  0  0  3  0  0  0  0  0  0
  191.5410  177.3180  142.7130 C   0  0  0  0  0  2  0  0  0  0  0  0
  190.5110  176.7110  145.5590 C   0  0  0  0  0  0  0  0  0  0  0  0
  191.9020  176.9560  141.2700 C   0  0  0  0  0  2  0  0  0  0  0  0
  189.5010  177.3780  140.6060 C   0  0  0  0  0  2  0  0  0  0  0  0
  192.1520  176.2480  147.8100 C   0  0  0  0  0  3  0  0  0  0  0  0
  188.4350  177.6800  144.7160 C   0  0  0  0  0  0  0  0  0  0  0  0
  189.0210  177.9280  147.0160 N   0  0  0  0  0  0  0  0  0  0  0  0
  191.8700  174.6780  144.1570 Cl  0  0  0  0  0  0  0  0  0  0  0  0
  187.8270  177.7280  142.3870 N   0  0  0  0  0  0  0  0  0  0  0  0
  187.4320  177.7900  143.6210 C   0  0  0  0  0  0  0  0  0  0  0  0
  190.9710  177.6630  140.2790 C   0  0  2  0  0  3  0  0  0  0  0  0
  190.0950  176.8970  142.9930 C   0  0  1  0  0  3  0  0  0  0  0  0
  188.1350  178.1110  146.0090 C   0  0  0  0  0  3  0  0  0  0  0  0
  183.6910  178.3310  142.9240 C   0  0  2  0  0  3  0  0  0  0  0  0
  183.3970  179.2680  144.0930 C   0  0  0  0  0  2  0  0  0  0  0  0
  185.9570  177.8610  143.8870 C   0  0  2  0  0  3  0  0  0  0  0  0
  184.1440  178.8020  145.3390 C   0  0  0  0  0  2  0  0  0  0  0  0
  185.1890  178.2970  142.6380 C   0  0  0  0  0  2  0  0  0  0  0  0
  185.6460  178.7720  145.0750 C   0  0  0  0  0  2  0  0  0  0  0  0
  183.0170  178.7710  141.8010 F   0  0  0  0  0  0  0  0  0  0  0  0
  191.2960  177.2080  138.8670 C   0  0  0  0  0  2  0  0  0  0  0  0
  189.9660  176.1520  138.2090 S   0  0  0  0  0  0  0  0  0  0  0  0
  190.3110  176.2470  135.5990 O   0  0  0  0  0  1  0  0  0  0  0  0
  189.8750  177.0660  136.6420 C   0  0  1  0  0  3  0  0  0  0  0  0
  188.4390  177.4950  136.3960 C   0  0  0  0  0  2  0  0  0  0  0  0
  186.8610  178.7890  137.8280 O   0  0  0  0  0  1  0  0  0  0  0  0
  188.1040  178.6910  137.2180 C   0  0  0  0  0  0  0  0  0  0  0  0
  188.9580  179.6010  137.3840 O   0  0  0  0  0  0  0  0  0  0  0  0
  1 13  1  0  0  0  0
  1  5  2  0  0  0  0
  2  8  2  0  0  0  0
  2  6  1  0  0  0  0
  3 12  2  0  0  0  0
  3  8  1  0  0  0  0
  4 10  1  6  0  0  0
  4 15  1  0  0  0  0
  4 18  1  0  0  0  0
  6 11  2  0  0  0  0
  8  1  1  0  0  0  0
  9  7  1  0  0  0  0
 11  5  1  0  0  0  0
 12 19  1  0  0  0  0
 14  2  1  0  0  0  0
 15 16  2  0  0  0  0
 16 12  1  0  0  0  0
 17 27  1  6  0  0  0
 17 10  1  0  0  0  0
 17  9  1  0  0  0  0
 18  7  1  1  0  0  0
 18  3  1  0  0  0  0
 19 13  2  0  0  0  0
 20 26  1  6  0  0  0
 20 21  1  0  0  0  0
 21 23  1  0  0  0  0
 22 16  1  6  0  0  0
 22 25  1  0  0  0  0
 24 20  1  0  0  0  0
 24 22  1  0  0  0  0
 25 23  1  0  0  0  0
 28 27  1  0  0  0  0
 30 29  1  6  0  0  0
 30 28  1  0  0  0  0
 31 30  1  0  0  0  0
 31 33  1  0  0  0  0
 33 34  2  0  0  0  0
 33 32  1  0  0  0  0
M  END
>  <MODEL>
1

>  <REMARK>
 VINA RESULT:      -9.7      0.000      0.000
  Name = 
  6 active torsions:
  status: ('A' for Active; 'I' for Inactive)
    1  A    between atoms: C_3  and  S_13
    2  A    between atoms: C_3  and  C_29
    3  A    between atoms: C_12  and  C_28
    4  A    between atoms: S_13  and  C_33
    5  A    between atoms: C_20  and  C_22
    6  A    between atoms: C_22  and  C_33
                            x       y       z     vdW  Elec       q    Type
                         _______ _______ _______ _____ _____    ______ ____

>  <TORSDO>
F 6

$$$$
=
 OpenBabel10262419183D

 34 38  0  0  1  0  0  0  0  0999 V2000
  189.8140  177.3660  146.6250 C   0  0  0  0  0  0  0  0  0  0  0  0
  191.2500  175.9920  145.2150 C   0  0  0  0  0  0  0  0  0  0  0  0
  189.2860  177.2560  144.2500 C   0  0  0  0  0  0  0  0  0  0  0  0
  188.7700  177.9730  141.8780 C   0  0  1  0  0  3  0  0  0  0  0  0
  190.6790  177.1580  147.7000 C   0  0  0  0  0  3  0  0  0  0  0  0
  192.0940  175.7910  146.3110 C   0  0  0  0  0  3  0  0  0  0  0  0
  191.0900  177.5720  142.4820 C   0  0  0  0  0  2  0  0  0  0  0  0
  190.1330  176.8690  145.3310 C   0  0  0  0  0  0  0  0  0  0  0  0
  191.4330  177.2550  141.0240 C   0  0  0  0  0  2  0  0  0  0  0  0
  189.0090  177.6290  140.4170 C   0  0  0  0  0  2  0  0  0  0  0  0
  191.8300  176.3950  147.5380 C   0  0  0  0  0  3  0  0  0  0  0  0
  188.0160  177.8030  144.5520 C   0  0  0  0  0  0  0  0  0  0  0  0
  188.6400  178.0100  146.8460 N   0  0  0  0  0  0  0  0  0  0  0  0
  191.5170  174.9070  143.8540 Cl  0  0  0  0  0  0  0  0  0  0  0  0
  187.3620  177.8900  142.2370 N   0  0  0  0  0  0  0  0  0  0  0  0
  186.9890  177.9120  143.4790 C   0  0  0  0  0  0  0  0  0  0  0  0
  190.4640  177.9600  140.0690 C   0  0  2  0  0  3  0  0  0  0  0  0
  189.6620  177.1050  142.7790 C   0  0  1  0  0  3  0  0  0  0  0  0
  187.7310  178.1930  145.8610 C   0  0  0  0  0  3  0  0  0  0  0  0
  183.2150  178.2600  142.8400 C   0  0  2  0  0  3  0  0  0  0  0  0
  182.9070  179.2480  143.9620 C   0  0  0  0  0  2  0  0  0  0  0  0
  185.5190  177.9370  143.7750 C   0  0  2  0  0  3  0  0  0  0  0  0
  183.6980  178.8830  145.2150 C   0  0  0  0  0  2  0  0  0  0  0  0
  184.7070  178.2710  142.5220 C   0  0  0  0  0  2  0  0  0  0  0  0
  185.1950  178.9000  144.9180 C   0  0  0  0  0  2  0  0  0  0  0  0
  182.5000  178.6080  141.7110 F   0  0  0  0  0  0  0  0  0  0  0  0
  190.7730  177.5480  138.6390 C   0  0  0  0  0  2  0  0  0  0  0  0
  189.7870  176.0940  138.1620 S   0  0  0  0  0  0  0  0  0  0  0  0
  190.8580  173.8080  137.4080 O   0  0  0  0  0  1  0  0  0  0  0  0
  191.2560  175.0820  137.8190 C   0  0  1  0  0  3  0  0  0  0  0  0
  192.0770  175.7440  136.7270 C   0  0  0  0  0  2  0  0  0  0  0  0
  194.0450  174.8440  137.9640 O   0  0  0  0  0  1  0  0  0  0  0  0
  193.5120  175.8080  137.1200 C   0  0  0  0  0  0  0  0  0  0  0  0
  194.2500  176.7210  136.6650 O   0  0  0  0  0  0  0  0  0  0  0  0
  1 13  1  0  0  0  0
  1  5  2  0  0  0  0
  2  8  2  0  0  0  0
  2  6  1  0  0  0  0
  3 12  2  0  0  0  0
  3  8  1  0  0  0  0
  4 10  1  6  0  0  0
  4 15  1  0  0  0  0
  4 18  1  0  0  0  0
  6 11  2  0  0  0  0
  8  1  1  0  0  0  0
  9  7  1  0  0  0  0
 11  5  1  0  0  0  0
 12 19  1  0  0  0  0
 14  2  1  0  0  0  0
 15 16  2  0  0  0  0
 16 12  1  0  0  0  0
 17 27  1  6  0  0  0
 17 10  1  0  0  0  0
 17  9  1  0  0  0  0
 18  7  1  1  0  0  0
 18  3  1  0  0  0  0
 19 13  2  0  0  0  0
 20 26  1  6  0  0  0
 20 21  1  0  0  0  0
 21 23  1  0  0  0  0
 22 16  1  6  0  0  0
 22 25  1  0  0  0  0
 24 20  1  0  0  0  0
 24 22  1  0  0  0  0
 25 23  1  0  0  0  0
 28 27  1  0  0  0  0
 30 29  1  6  0  0  0
 30 28  1  0  0  0  0
 31 33  1  0  0  0  0
 31 30  1  0  0  0  0
 33 32  1  0  0  0  0
 34 33  2  0  0  0  0
M  END
>  <MODEL>
2

>  <REMARK>
 VINA RESULT:      -9.3      1.881      2.312
  Name = 
  6 active torsions:
  status: ('A' for Active; 'I' for Inactive)
    1  A    between atoms: C_3  and  S_13
    2  A    between atoms: C_3  and  C_29
    3  A    between atoms: C_12  and  C_28
    4  A    between atoms: S_13  and  C_33
    5  A    between atoms: C_20  and  C_22
    6  A    between atoms: C_22  and  C_33
                            x       y       z     vdW  Elec       q    Type
                         _______ _______ _______ _____ _____    ______ ____

>  <TORSDO>
F 6

$$$$
=
 OpenBabel10262419183D

 34 38  0  0  1  0  0  0  0  0999 V2000
  185.2810  178.7050  145.0650 C   0  0  0  0  0  0  0  0  0  0  0  0
  187.2880  177.3800  144.6700 C   0  0  0  0  0  0  0  0  0  0  0  0
  185.8760  178.2270  142.7520 C   0  0  0  0  0  0  0  0  0  0  0  0
  186.4210  178.5620  140.3040 C   0  0  1  0  0  3  0  0  0  0  0  0
  185.5880  178.7560  146.4260 C   0  0  0  0  0  3  0  0  0  0  0  0
  187.5660  177.4370  146.0380 C   0  0  0  0  0  3  0  0  0  0  0  0
  188.2520  178.5680  141.9030 C   0  0  0  0  0  2  0  0  0  0  0  0
  186.1770  178.0990  144.1410 C   0  0  0  0  0  0  0  0  0  0  0  0
  189.2290  178.1220  140.8130 C   0  0  0  0  0  2  0  0  0  0  0  0
  187.3100  178.0750  139.1700 C   0  0  0  0  0  2  0  0  0  0  0  0
  186.7420  178.1460  146.9080 C   0  0  0  0  0  3  0  0  0  0  0  0
  184.5690  178.6230  142.3810 C   0  0  0  0  0  0  0  0  0  0  0  0
  184.0900  179.2010  144.6460 N   0  0  0  0  0  0  0  0  0  0  0  0
  188.2080  176.1810  143.7660 Cl  0  0  0  0  0  0  0  0  0  0  0  0
  185.0100  178.3290  140.0320 N   0  0  0  0  0  0  0  0  0  0  0  0
  184.1230  178.4530  140.9700 C   0  0  0  0  0  0  0  0  0  0  0  0
  188.7400  178.5600  139.4280 C   0  0  2  0  0  3  0  0  0  0  0  0
  186.8770  177.9470  141.6350 C   0  0  1  0  0  3  0  0  0  0  0  0
  183.7040  179.1310  143.3510 C   0  0  0  0  0  3  0  0  0  0  0  0
  180.9050  176.7860  139.6890 C   0  0  2  0  0  3  0  0  0  0  0  0
  180.4930  177.8700  138.6970 C   0  0  0  0  0  2  0  0  0  0  0  0
  182.6770  178.3090  140.5970 C   0  0  2  0  0  3  0  0  0  0  0  0
  180.7580  179.2510  139.2880 C   0  0  0  0  0  2  0  0  0  0  0  0
  182.3860  176.9190  140.0320 C   0  0  0  0  0  2  0  0  0  0  0  0
  182.2380  179.4060  139.6260 C   0  0  0  0  0  2  0  0  0  0  0  0
  180.6690  175.5420  139.1380 F   0  0  0  0  0  0  0  0  0  0  0  0
  189.6810  178.0200  138.3650 C   0  0  0  0  0  2  0  0  0  0  0  0
  189.1950  176.3380  137.8700 S   0  0  0  0  0  0  0  0  0  0  0  0
  190.8760  174.3100  137.8100 O   0  0  0  0  0  1  0  0  0  0  0  0
  190.8510  175.6570  138.1780 C   0  0  1  0  0  3  0  0  0  0  0  0
  191.8700  176.4340  137.3650 C   0  0  0  0  0  2  0  0  0  0  0  0
  193.3530  177.1310  139.2430 O   0  0  0  0  0  1  0  0  0  0  0  0
  193.1920  176.4380  138.0520 C   0  0  0  0  0  0  0  0  0  0  0  0
  194.1560  175.7900  137.5670 O   0  0  0  0  0  0  0  0  0  0  0  0
  1  5  2  0  0  0  0
  2  6  1  0  0  0  0
  3  8  1  0  0  0  0
  4 10  1  6  0  0  0
  4 18  1  0  0  0  0
  5 11  1  0  0  0  0
  6 11  2  0  0  0  0
  8  2  2  0  0  0  0
  8  1  1  0  0  0  0
  9  7  1  0  0  0  0
 10 17  1  0  0  0  0
 12  3  2  0  0  0  0
 12 19  1  0  0  0  0
 13  1  1  0  0  0  0
 14  2  1  0  0  0  0
 15  4  1  0  0  0  0
 15 16  2  0  0  0  0
 16 12  1  0  0  0  0
 17 27  1  6  0  0  0
 17  9  1  0  0  0  0
 18  7  1  1  0  0  0
 18  3  1  0  0  0  0
 19 13  2  0  0  0  0
 20 26  1  6  0  0  0
 20 24  1  0  0  0  0
 21 23  1  0  0  0  0
 21 20  1  0  0  0  0
 22 16  1  6  0  0  0
 23 25  1  0  0  0  0
 24 22  1  0  0  0  0
 25 22  1  0  0  0  0
 28 30  1  0  0  0  0
 28 27  1  0  0  0  0
 30 29  1  6  0  0  0
 31 33  1  0  0  0  0
 31 30  1  0  0  0  0
 33 32  1  0  0  0  0
 34 33  2  0  0  0  0
M  END
>  <MODEL>
3

>  <REMARK>
 VINA RESULT:      -9.2      3.091      4.670
  Name = 
  6 active torsions:
  status: ('A' for Active; 'I' for Inactive)
    1  A    between atoms: C_3  and  S_13
    2  A    between atoms: C_3  and  C_29
    3  A    between atoms: C_12  and  C_28
    4  A    between atoms: S_13  and  C_33
    5  A    between atoms: C_20  and  C_22
    6  A    between atoms: C_22  and  C_33
                            x       y       z     vdW  Elec       q    Type
                         _______ _______ _______ _____ _____    ______ ____

>  <TORSDO>
F 6

$$$$
=
 OpenBabel10262419183D

 34 38  0  0  1  0  0  0  0  0999 V2000
  186.8410  178.2860  146.1860 C   0  0  0  0  0  0  0  0  0  0  0  0
  188.6680  177.0410  145.1600 C   0  0  0  0  0  0  0  0  0  0  0  0
  186.8120  178.0370  143.7630 C   0  0  0  0  0  0  0  0  0  0  0  0
  186.7060  178.6090  141.3010 C   0  0  1  0  0  3  0  0  0  0  0  0
  187.4920  178.2150  147.4190 C   0  0  0  0  0  3  0  0  0  0  0  0
  189.2930  176.9760  146.4090 C   0  0  0  0  0  3  0  0  0  0  0  0
  188.8880  178.5000  142.3650 C   0  0  0  0  0  2  0  0  0  0  0  0
  187.4630  177.7860  145.0080 C   0  0  0  0  0  0  0  0  0  0  0  0
  189.5460  178.1760  141.0210 C   0  0  0  0  0  2  0  0  0  0  0  0
  187.2660  178.2470  139.9350 C   0  0  0  0  0  2  0  0  0  0  0  0
  188.7270  177.5850  147.5260 C   0  0  0  0  0  3  0  0  0  0  0  0
  185.4570  178.4420  143.7820 C   0  0  0  0  0  0  0  0  0  0  0  0
  185.5850  178.7970  146.1390 N   0  0  0  0  0  0  0  0  0  0  0  0
  189.3150  175.9490  143.9390 Cl  0  0  0  0  0  0  0  0  0  0  0  0
  185.2710  178.3770  141.3830 N   0  0  0  0  0  0  0  0  0  0  0  0
  184.6580  178.3960  142.5260 C   0  0  0  0  0  0  0  0  0  0  0  0
  188.7170  178.7330  139.8580 C   0  0  2  0  0  3  0  0  0  0  0  0
  187.4880  177.8810  142.4040 C   0  0  1  0  0  3  0  0  0  0  0  0
  184.8760  178.8410  144.9870 C   0  0  0  0  0  3  0  0  0  0  0  0
  181.0700  178.3040  141.1510 C   0  0  2  0  0  3  0  0  0  0  0  0
  180.4420  179.2720  142.1500 C   0  0  0  0  0  2  0  0  0  0  0  0
  183.1640  178.2610  142.5290 C   0  0  2  0  0  3  0  0  0  0  0  0
  181.0040  179.0230  143.5470 C   0  0  0  0  0  2  0  0  0  0  0  0
  182.5860  178.4760  141.1290 C   0  0  0  0  0  2  0  0  0  0  0  0
  182.5190  179.2030  143.5460 C   0  0  0  0  0  2  0  0  0  0  0  0
  180.5600  178.5460  139.8910 F   0  0  0  0  0  0  0  0  0  0  0  0
  189.3470  178.3120  138.5410 C   0  0  0  0  0  2  0  0  0  0  0  0
  188.7680  176.6570  138.0510 S   0  0  0  0  0  0  0  0  0  0  0  0
  190.3510  174.5540  137.9360 O   0  0  0  0  0  1  0  0  0  0  0  0
  190.3930  175.8930  138.3270 C   0  0  1  0  0  3  0  0  0  0  0  0
  191.4390  176.6360  137.5150 C   0  0  0  0  0  2  0  0  0  0  0  0
  193.9230  176.4710  137.6650 O   0  0  0  0  0  0  0  0  0  0  0  0
  192.7120  176.7490  138.2820 C   0  0  0  0  0  0  0  0  0  0  0  0
  192.6920  177.1240  139.4840 O   0  0  0  0  0  1  0  0  0  0  0  0
  1  5  2  0  0  0  0
  2  6  1  0  0  0  0
  3 12  2  0  0  0  0
  3  8  1  0  0  0  0
  4 10  1  6  0  0  0
  4 15  1  0  0  0  0
  4 18  1  0  0  0  0
  5 11  1  0  0  0  0
  6 11  2  0  0  0  0
  8  2  2  0  0  0  0
  8  1  1  0  0  0  0
  9  7  1  0  0  0  0
 12 19  1  0  0  0  0
 13  1  1  0  0  0  0
 14  2  1  0  0  0  0
 15 16  2  0  0  0  0
 16 12  1  0  0  0  0
 17 27  1  6  0  0  0
 17 10  1  0  0  0  0
 17  9  1  0  0  0  0
 18  7  1  1  0  0  0
 18  3  1  0  0  0  0
 19 13  2  0  0  0  0
 20 26  1  6  0  0  0
 20 21  1  0  0  0  0
 21 23  1  0  0  0  0
 22 16  1  6  0  0  0
 22 25  1  0  0  0  0
 24 20  1  0  0  0  0
 24 22  1  0  0  0  0
 25 23  1  0  0  0  0
 28 30  1  0  0  0  0
 28 27  1  0  0  0  0
 30 29  1  6  0  0  0
 31 33  1  0  0  0  0
 31 30  1  0  0  0  0
 32 33  2  0  0  0  0
 33 34  1  0  0  0  0
M  END
>  <MODEL>
4

>  <REMARK>
 VINA RESULT:      -9.2      2.358      3.435
  Name = 
  6 active torsions:
  status: ('A' for Active; 'I' for Inactive)
    1  A    between atoms: C_3  and  S_13
    2  A    between atoms: C_3  and  C_29
    3  A    between atoms: C_12  and  C_28
    4  A    between atoms: S_13  and  C_33
    5  A    between atoms: C_20  and  C_22
    6  A    between atoms: C_22  and  C_33
                            x       y       z     vdW  Elec       q    Type
                         _______ _______ _______ _____ _____    ______ ____

>  <TORSDO>
F 6

$$$$
=
 OpenBabel10262419183D

 34 38  0  0  1  0  0  0  0  0999 V2000
  188.8030  177.1070  146.0660 C   0  0  0  0  0  0  0  0  0  0  0  0
  187.1240  178.5900  147.0250 C   0  0  0  0  0  0  0  0  0  0  0  0
  187.1530  178.0660  144.5530 C   0  0  0  0  0  0  0  0  0  0  0  0
  185.3470  178.2520  142.7890 C   0  0  1  0  0  3  0  0  0  0  0  0
  189.2610  176.8040  147.3490 C   0  0  0  0  0  3  0  0  0  0  0  0
  187.6090  178.2770  148.2980 C   0  0  0  0  0  3  0  0  0  0  0  0
  184.6700  178.0270  145.1130 C   0  0  0  0  0  2  0  0  0  0  0  0
  187.6590  177.9310  145.8800 C   0  0  0  0  0  0  0  0  0  0  0  0
  183.3440  178.7320  144.8130 C   0  0  0  0  0  2  0  0  0  0  0  0
  184.0790  179.0010  142.4110 C   0  0  0  0  0  2  0  0  0  0  0  0
  188.6500  177.3670  148.4640 C   0  0  0  0  0  3  0  0  0  0  0  0
  187.9830  177.6810  143.4740 C   0  0  0  0  0  0  0  0  0  0  0  0
  189.4980  176.6410  144.9980 N   0  0  0  0  0  0  0  0  0  0  0  0
  186.0600  179.9920  146.9500 Cl  0  0  0  0  0  0  0  0  0  0  0  0
  186.4140  178.4590  141.8220 N   0  0  0  0  0  0  0  0  0  0  0  0
  187.6330  178.1040  142.0890 C   0  0  0  0  0  0  0  0  0  0  0  0
  182.9500  178.5520  143.3430 C   0  0  2  0  0  3  0  0  0  0  0  0
  185.7680  178.6150  144.2210 C   0  0  1  0  0  3  0  0  0  0  0  0
  189.1420  176.9460  143.7270 C   0  0  0  0  0  3  0  0  0  0  0  0
  189.0710  178.6050  138.5610 C   0  0  2  0  0  3  0  0  0  0  0  0
  190.0020  177.3960  138.5430 C   0  0  0  0  0  2  0  0  0  0  0  0
  188.6620  178.2410  141.0070 C   0  0  2  0  0  3  0  0  0  0  0  0
  190.6740  177.2310  139.9030 C   0  0  0  0  0  2  0  0  0  0  0  0
  188.0060  178.4370  139.6400 C   0  0  0  0  0  2  0  0  0  0  0  0
  189.6230  177.0500  140.9940 C   0  0  0  0  0  2  0  0  0  0  0  0
  188.4620  178.7360  137.3280 F   0  0  0  0  0  0  0  0  0  0  0  0
  181.6830  179.3410  143.0590 C   0  0  0  0  0  2  0  0  0  0  0  0
  181.0810  179.0060  141.3740 S   0  0  0  0  0  0  0  0  0  0  0  0
  179.1400  178.0840  142.8980 O   0  0  0  0  0  1  0  0  0  0  0  0
  180.0220  177.6330  141.9150 C   0  0  1  0  0  3  0  0  0  0  0  0
  179.2420  177.1030  140.7250 C   0  0  0  0  0  2  0  0  0  0  0  0
  180.0760  175.0750  139.5400 O   0  0  0  0  0  0  0  0  0  0  0  0
  179.3950  175.6260  140.6160 C   0  0  0  0  0  0  0  0  0  0  0  0
  178.9320  174.8760  141.5150 O   0  0  0  0  0  1  0  0  0  0  0  0
  1  5  2  0  0  0  0
  2  6  1  0  0  0  0
  3  8  1  0  0  0  0
  4 10  1  6  0  0  0
  4 18  1  0  0  0  0
  5 11  1  0  0  0  0
  6 11  2  0  0  0  0
  8  1  1  0  0  0  0
  8  2  2  0  0  0  0
  9  7  1  0  0  0  0
 10 17  1  0  0  0  0
 12 19  1  0  0  0  0
 12  3  2  0  0  0  0
 13  1  1  0  0  0  0
 14  2  1  0  0  0  0
 15 16  2  0  0  0  0
 15  4  1  0  0  0  0
 16 12  1  0  0  0  0
 17 27  1  6  0  0  0
 17  9  1  0  0  0  0
 18  3  1  0  0  0  0
 18  7  1  1  0  0  0
 19 13  2  0  0  0  0
 20 26  1  6  0  0  0
 20 24  1  0  0  0  0
 21 20  1  0  0  0  0
 21 23  1  0  0  0  0
 22 16  1  1  0  0  0
 23 25  1  0  0  0  0
 24 22  1  0  0  0  0
 25 22  1  0  0  0  0
 28 30  1  0  0  0  0
 28 27  1  0  0  0  0
 30 29  1  1  0  0  0
 31 30  1  0  0  0  0
 32 33  2  0  0  0  0
 33 31  1  0  0  0  0
 33 34  1  0  0  0  0
M  END
>  <MODEL>
5

>  <REMARK>
 VINA RESULT:      -9.1      4.159      7.117
  Name = 
  6 active torsions:
  status: ('A' for Active; 'I' for Inactive)
    1  A    between atoms: C_3  and  S_13
    2  A    between atoms: C_3  and  C_29
    3  A    between atoms: C_12  and  C_28
    4  A    between atoms: S_13  and  C_33
    5  A    between atoms: C_20  and  C_22
    6  A    between atoms: C_22  and  C_33
                            x       y       z     vdW  Elec       q    Type
                         _______ _______ _______ _____ _____    ______ ____

>  <TORSDO>
F 6

$$$$
=
 OpenBabel10262419183D

 34 38  0  0  1  0  0  0  0  0999 V2000
  188.7860  177.0840  146.0880 C   0  0  0  0  0  0  0  0  0  0  0  0
  187.1300  178.5690  147.0840 C   0  0  0  0  0  0  0  0  0  0  0  0
  187.1150  178.0600  144.6090 C   0  0  0  0  0  0  0  0  0  0  0  0
  185.2820  178.2670  142.8770 C   0  0  1  0  0  3  0  0  0  0  0  0
  189.2640  176.7700  147.3610 C   0  0  0  0  0  3  0  0  0  0  0  0
  187.6350  178.2460  148.3470 C   0  0  0  0  0  3  0  0  0  0  0  0
  184.6420  178.0300  145.2100 C   0  0  0  0  0  2  0  0  0  0  0  0
  187.6420  177.9140  145.9270 C   0  0  0  0  0  0  0  0  0  0  0  0
  183.3150  178.7430  144.9360 C   0  0  0  0  0  2  0  0  0  0  0  0
  184.0120  179.0240  142.5240 C   0  0  0  0  0  2  0  0  0  0  0  0
  188.6730  177.3290  148.4900 C   0  0  0  0  0  3  0  0  0  0  0  0
  187.9260  177.6780  143.5140 C   0  0  0  0  0  0  0  0  0  0  0  0
  189.4600  176.6210  145.0060 N   0  0  0  0  0  0  0  0  0  0  0  0
  186.0720  179.9760  147.0360 Cl  0  0  0  0  0  0  0  0  0  0  0  0
  186.3340  178.4740  141.8930 N   0  0  0  0  0  0  0  0  0  0  0  0
  187.5550  178.1110  142.1380 C   0  0  0  0  0  0  0  0  0  0  0  0
  182.8950  178.5740  143.4720 C   0  0  2  0  0  3  0  0  0  0  0  0
  185.7280  178.6180  144.3040 C   0  0  1  0  0  3  0  0  0  0  0  0
  189.0850  176.9360  143.7440 C   0  0  0  0  0  3  0  0  0  0  0  0
  188.9360  178.5560  138.5790 C   0  0  2  0  0  3  0  0  0  0  0  0
  189.9060  177.3780  138.5850 C   0  0  0  0  0  2  0  0  0  0  0  0
  188.5670  178.2500  141.0390 C   0  0  2  0  0  3  0  0  0  0  0  0
  190.5990  177.2750  139.9410 C   0  0  0  0  0  2  0  0  0  0  0  0
  187.8890  178.3850  139.6750 C   0  0  0  0  0  2  0  0  0  0  0  0
  189.5660  177.0920  141.0500 C   0  0  0  0  0  2  0  0  0  0  0  0
  188.3090  178.6300  137.3500 F   0  0  0  0  0  0  0  0  0  0  0  0
  181.6290  179.3720  143.2140 C   0  0  0  0  0  2  0  0  0  0  0  0
  180.2990  178.2880  142.6060 S   0  0  0  0  0  0  0  0  0  0  0  0
  179.9030  180.6490  141.5050 O   0  0  0  0  0  1  0  0  0  0  0  0
  180.0020  179.3070  141.1310 C   0  0  1  0  0  3  0  0  0  0  0  0
  181.1520  179.1260  140.1570 C   0  0  0  0  0  2  0  0  0  0  0  0
  180.2730  176.9740  139.2560 O   0  0  0  0  0  0  0  0  0  0  0  0
  181.3240  177.6860  139.8160 C   0  0  0  0  0  0  0  0  0  0  0  0
  182.4320  177.1210  140.0090 O   0  0  0  0  0  1  0  0  0  0  0  0
  1  5  2  0  0  0  0
  2  6  1  0  0  0  0
  3  8  1  0  0  0  0
  4 10  1  6  0  0  0
  4 18  1  0  0  0  0
  5 11  1  0  0  0  0
  6 11  2  0  0  0  0
  8  1  1  0  0  0  0
  8  2  2  0  0  0  0
  9  7  1  0  0  0  0
 10 17  1  0  0  0  0
 12 19  1  0  0  0  0
 12  3  2  0  0  0  0
 13  1  1  0  0  0  0
 14  2  1  0  0  0  0
 15 16  2  0  0  0  0
 15  4  1  0  0  0  0
 16 12  1  0  0  0  0
 17 27  1  1  0  0  0
 17  9  1  0  0  0  0
 18  3  1  0  0  0  0
 18  7  1  1  0  0  0
 19 13  2  0  0  0  0
 20 26  1  6  0  0  0
 20 21  1  0  0  0  0
 20 24  1  0  0  0  0
 21 23  1  0  0  0  0
 22 25  1  0  0  0  0
 22 16  1  1  0  0  0
 23 25  1  0  0  0  0
 24 22  1  0  0  0  0
 28 27  1  0  0  0  0
 30 29  1  1  0  0  0
 30 28  1  0  0  0  0
 31 30  1  0  0  0  0
 32 33  2  0  0  0  0
 33 34  1  0  0  0  0
 33 31  1  0  0  0  0
M  END
>  <MODEL>
6

>  <REMARK>
 VINA RESULT:      -9.0      3.772      6.742
  Name = 
  6 active torsions:
  status: ('A' for Active; 'I' for Inactive)
    1  A    between atoms: C_3  and  S_13
    2  A    between atoms: C_3  and  C_29
    3  A    between atoms: C_12  and  C_28
    4  A    between atoms: S_13  and  C_33
    5  A    between atoms: C_20  and  C_22
    6  A    between atoms: C_22  and  C_33
                            x       y       z     vdW  Elec       q    Type
                         _______ _______ _______ _____ _____    ______ ____

>  <TORSDO>
F 6

$$$$
=
 OpenBabel10262419183D

 34 38  0  0  1  0  0  0  0  0999 V2000
  191.4260  175.9470  145.2240 C   0  0  0  0  0  0  0  0  0  0  0  0
  190.2820  177.3290  146.8750 C   0  0  0  0  0  0  0  0  0  0  0  0
  189.4250  177.1370  144.5050 C   0  0  0  0  0  0  0  0  0  0  0  0
  187.1410  177.5980  143.5170 C   0  0  1  0  0  3  0  0  0  0  0  0
  192.2740  175.4660  146.2220 C   0  0  0  0  0  3  0  0  0  0  0  0
  191.1530  176.8390  147.8520 C   0  0  0  0  0  3  0  0  0  0  0  0
  187.2890  177.0830  145.8880 C   0  0  0  0  0  2  0  0  0  0  0  0
  190.3460  176.8160  145.5470 C   0  0  0  0  0  0  0  0  0  0  0  0
  185.9920  177.8530  146.1530 C   0  0  0  0  0  2  0  0  0  0  0  0
  185.8750  178.4200  143.6940 C   0  0  0  0  0  2  0  0  0  0  0  0
  192.1220  175.8910  147.5380 C   0  0  0  0  0  3  0  0  0  0  0  0
  189.8070  176.8790  143.1670 C   0  0  0  0  0  0  0  0  0  0  0  0
  191.6780  175.6110  143.9350 N   0  0  0  0  0  0  0  0  0  0  0  0
  189.3560  178.7530  147.3390 Cl  0  0  0  0  0  0  0  0  0  0  0  0
  187.8230  177.9060  142.2690 N   0  0  0  0  0  0  0  0  0  0  0  0
  189.0330  177.4900  142.0510 C   0  0  0  0  0  0  0  0  0  0  0  0
  185.1060  177.8780  144.9040 C   0  0  2  0  0  3  0  0  0  0  0  0
  188.0520  177.7570  144.7440 C   0  0  1  0  0  3  0  0  0  0  0  0
  190.9300  176.0900  142.9130 C   0  0  0  0  0  3  0  0  0  0  0  0
  189.2390  178.5860  138.3730 C   0  0  2  0  0  3  0  0  0  0  0  0
  189.8700  177.3140  137.8140 C   0  0  0  0  0  2  0  0  0  0  0  0
  189.6350  177.7450  140.7010 C   0  0  2  0  0  3  0  0  0  0  0  0
  190.9270  176.7840  138.7790 C   0  0  0  0  0  2  0  0  0  0  0  0
  188.5970  178.3060  139.7280 C   0  0  0  0  0  2  0  0  0  0  0  0
  190.2990  176.4870  140.1380 C   0  0  0  0  0  2  0  0  0  0  0  0
  188.2790  179.0480  137.4940 F   0  0  0  0  0  0  0  0  0  0  0  0
  183.8760  178.7280  145.1730 C   0  0  0  0  0  2  0  0  0  0  0  0
  183.7540  180.0840  143.9640 S   0  0  0  0  0  0  0  0  0  0  0  0
  182.6760  178.5790  142.0900 O   0  0  0  0  0  1  0  0  0  0  0  0
  182.2830  179.3770  143.1650 C   0  0  1  0  0  3  0  0  0  0  0  0
  181.5170  178.5430  144.1760 C   0  0  0  0  0  2  0  0  0  0  0  0
  179.5660  177.5780  142.9610 O   0  0  0  0  0  0  0  0  0  0  0  0
  180.0650  178.5240  143.8440 C   0  0  0  0  0  0  0  0  0  0  0  0
  179.2840  179.3500  144.3860 O   0  0  0  0  0  1  0  0  0  0  0  0
  1  8  1  0  0  0  0
  1  5  2  0  0  0  0
  2 14  1  0  0  0  0
  2  6  1  0  0  0  0
  3 18  1  0  0  0  0
  3  8  1  0  0  0  0
  4 10  1  1  0  0  0
  4 18  1  0  0  0  0
  5 11  1  0  0  0  0
  7  9  1  0  0  0  0
  8  2  2  0  0  0  0
 10 17  1  0  0  0  0
 11  6  2  0  0  0  0
 12  3  2  0  0  0  0
 13  1  1  0  0  0  0
 15  4  1  0  0  0  0
 16 15  2  0  0  0  0
 16 12  1  0  0  0  0
 17 27  1  1  0  0  0
 17  9  1  0  0  0  0
 18  7  1  1  0  0  0
 19 12  1  0  0  0  0
 19 13  2  0  0  0  0
 20 26  1  6  0  0  0
 20 24  1  0  0  0  0
 21 20  1  0  0  0  0
 21 23  1  0  0  0  0
 22 16  1  1  0  0  0
 23 25  1  0  0  0  0
 24 22  1  0  0  0  0
 25 22  1  0  0  0  0
 28 27  1  0  0  0  0
 30 29  1  6  0  0  0
 30 28  1  0  0  0  0
 30 31  1  0  0  0  0
 32 33  2  0  0  0  0
 33 31  1  0  0  0  0
 33 34  1  0  0  0  0
M  END
>  <MODEL>
7

>  <REMARK>
 VINA RESULT:      -9.0      3.599      6.644
  Name = 
  6 active torsions:
  status: ('A' for Active; 'I' for Inactive)
    1  A    between atoms: C_3  and  S_13
    2  A    between atoms: C_3  and  C_29
    3  A    between atoms: C_12  and  C_28
    4  A    between atoms: S_13  and  C_33
    5  A    between atoms: C_20  and  C_22
    6  A    between atoms: C_22  and  C_33
                            x       y       z     vdW  Elec       q    Type
                         _______ _______ _______ _____ _____    ______ ____

>  <TORSDO>
F 6

$$$$
=
 OpenBabel10262419183D

 34 38  0  0  1  0  0  0  0  0999 V2000
  189.8430  177.2510  146.4680 C   0  0  0  0  0  0  0  0  0  0  0  0
  191.1590  175.8460  144.9730 C   0  0  0  0  0  0  0  0  0  0  0  0
  189.1830  177.1740  144.1250 C   0  0  0  0  0  0  0  0  0  0  0  0
  188.5590  177.9240  141.7900 C   0  0  1  0  0  3  0  0  0  0  0  0
  190.7600  177.0090  147.4930 C   0  0  0  0  0  3  0  0  0  0  0  0
  192.0550  175.6120  146.0190 C   0  0  0  0  0  3  0  0  0  0  0  0
  190.8960  177.4510  142.2620 C   0  0  0  0  0  2  0  0  0  0  0  0
  190.0760  176.7540  145.1550 C   0  0  0  0  0  0  0  0  0  0  0  0
  191.1480  177.1360  140.7850 C   0  0  0  0  0  2  0  0  0  0  0  0
  188.7070  177.5850  140.3150 C   0  0  0  0  0  2  0  0  0  0  0  0
  191.8770  176.2130  147.2630 C   0  0  0  0  0  3  0  0  0  0  0  0
  187.9480  177.7550  144.5000 C   0  0  0  0  0  0  0  0  0  0  0  0
  188.7030  177.9260  146.7580 N   0  0  0  0  0  0  0  0  0  0  0  0
  191.3190  174.7640  143.5920 Cl  0  0  0  0  0  0  0  0  0  0  0  0
  187.1710  177.8800  142.2250 N   0  0  0  0  0  0  0  0  0  0  0  0
  186.8680  177.9020  143.4860 C   0  0  0  0  0  0  0  0  0  0  0  0
  190.1500  177.8760  139.8900 C   0  0  2  0  0  3  0  0  0  0  0  0
  189.4730  177.0240  142.6340 C   0  0  1  0  0  3  0  0  0  0  0  0
  187.7470  178.1440  145.8250 C   0  0  0  0  0  3  0  0  0  0  0  0
  183.0710  178.3030  143.0470 C   0  0  2  0  0  3  0  0  0  0  0  0
  182.8440  179.3370  144.1460 C   0  0  0  0  0  2  0  0  0  0  0  0
  185.4170  177.9680  143.8620 C   0  0  2  0  0  3  0  0  0  0  0  0
  183.6980  179.0030  145.3660 C   0  0  0  0  0  2  0  0  0  0  0  0
  184.5420  178.2720  142.6460 C   0  0  0  0  0  2  0  0  0  0  0  0
  185.1760  178.9790  144.9850 C   0  0  0  0  0  2  0  0  0  0  0  0
  182.2990  178.6230  141.9470 F   0  0  0  0  0  0  0  0  0  0  0  0
  190.3670  177.4670  138.4430 C   0  0  0  0  0  2  0  0  0  0  0  0
  191.6990  176.2310  138.3170 S   0  0  0  0  0  0  0  0  0  0  0  0
  190.8350  173.8500  137.5940 O   0  0  0  0  0  1  0  0  0  0  0  0
  190.7550  175.1790  137.1750 C   0  0  1  0  0  3  0  0  0  0  0  0
  189.3060  175.6300  137.1610 C   0  0  0  0  0  2  0  0  0  0  0  0
  188.4530  174.1620  135.3360 O   0  0  0  0  0  1  0  0  0  0  0  0
  188.7140  175.4410  135.8070 C   0  0  0  0  0  0  0  0  0  0  0  0
  188.4220  176.4410  135.1010 O   0  0  0  0  0  0  0  0  0  0  0  0
  1 13  1  0  0  0  0
  1  5  2  0  0  0  0
  2  8  2  0  0  0  0
  2  6  1  0  0  0  0
  3 12  2  0  0  0  0
  3  8  1  0  0  0  0
  4 10  1  6  0  0  0
  4 15  1  0  0  0  0
  4 18  1  0  0  0  0
  6 11  2  0  0  0  0
  8  1  1  0  0  0  0
  9  7  1  0  0  0  0
 11  5  1  0  0  0  0
 12 19  1  0  0  0  0
 14  2  1  0  0  0  0
 15 16  2  0  0  0  0
 16 12  1  0  0  0  0
 17 27  1  6  0  0  0
 17 10  1  0  0  0  0
 17  9  1  0  0  0  0
 18  7  1  1  0  0  0
 18  3  1  0  0  0  0
 19 13  2  0  0  0  0
 20 26  1  6  0  0  0
 20 21  1  0  0  0  0
 21 23  1  0  0  0  0
 22 16  1  6  0  0  0
 22 25  1  0  0  0  0
 24 20  1  0  0  0  0
 24 22  1  0  0  0  0
 25 23  1  0  0  0  0
 28 27  1  0  0  0  0
 30 29  1  1  0  0  0
 30 28  1  0  0  0  0
 31 30  1  0  0  0  0
 32 33  1  0  0  0  0
 33 31  1  0  0  0  0
 34 33  2  0  0  0  0
M  END
>  <MODEL>
8

>  <REMARK>
 VINA RESULT:      -8.9      1.386      1.658
  Name = 
  6 active torsions:
  status: ('A' for Active; 'I' for Inactive)
    1  A    between atoms: C_3  and  S_13
    2  A    between atoms: C_3  and  C_29
    3  A    between atoms: C_12  and  C_28
    4  A    between atoms: S_13  and  C_33
    5  A    between atoms: C_20  and  C_22
    6  A    between atoms: C_22  and  C_33
                            x       y       z     vdW  Elec       q    Type
                         _______ _______ _______ _____ _____    ______ ____

>  <TORSDO>
F 6

$$$$
=
 OpenBabel10262419183D

 34 38  0  0  1  0  0  0  0  0999 V2000
  192.0260  177.1710  140.2990 C   0  0  0  0  0  0  0  0  0  0  0  0
  190.2670  176.5870  138.7150 C   0  0  0  0  0  0  0  0  0  0  0  0
  189.7210  177.3040  141.0760 C   0  0  0  0  0  0  0  0  0  0  0  0
  187.5860  178.2110  142.0900 C   0  0  1  0  0  3  0  0  0  0  0  0
  192.9720  177.0700  139.2780 C   0  0  0  0  0  3  0  0  0  0  0  0
  191.2370  176.4820  137.7140 C   0  0  0  0  0  3  0  0  0  0  0  0
  187.9290  178.4740  139.6980 C   0  0  0  0  0  2  0  0  0  0  0  0
  190.6380  177.0290  140.0180 C   0  0  0  0  0  0  0  0  0  0  0  0
  186.4160  178.5350  139.4710 C   0  0  0  0  0  2  0  0  0  0  0  0
  186.0720  178.2150  141.9530 C   0  0  0  0  0  2  0  0  0  0  0  0
  192.5760  176.7520  137.9830 C   0  0  0  0  0  3  0  0  0  0  0  0
  190.2170  177.3570  142.4010 C   0  0  0  0  0  0  0  0  0  0  0  0
  192.4560  177.3590  141.5720 N   0  0  0  0  0  0  0  0  0  0  0  0
  188.6990  175.8910  138.3170 Cl  0  0  0  0  0  0  0  0  0  0  0  0
  188.0210  177.6240  143.3490 N   0  0  0  0  0  0  0  0  0  0  0  0
  189.2650  177.3140  143.5450 C   0  0  0  0  0  0  0  0  0  0  0  0
  185.6960  179.0460  140.7220 C   0  0  2  0  0  3  0  0  0  0  0  0
  188.2270  177.5330  140.8690 C   0  0  1  0  0  3  0  0  0  0  0  0
  191.5950  177.4080  142.6160 C   0  0  0  0  0  3  0  0  0  0  0  0
  189.0920  176.7530  147.3430 C   0  0  2  0  0  3  0  0  0  0  0  0
  190.5150  177.1890  147.6810 C   0  0  0  0  0  2  0  0  0  0  0  0
  189.6640  176.8190  144.9030 C   0  0  2  0  0  3  0  0  0  0  0  0
  191.4860  176.6800  146.6200 C   0  0  0  0  0  2  0  0  0  0  0  0
  188.6840  177.2940  145.9760 C   0  0  0  0  0  2  0  0  0  0  0  0
  191.1000  177.2210  145.2460 C   0  0  0  0  0  2  0  0  0  0  0  0
  188.2240  177.2290  148.3060 F   0  0  0  0  0  0  0  0  0  0  0  0
  184.1940  179.0040  140.4950 C   0  0  0  0  0  2  0  0  0  0  0  0
  183.4020  177.8390  141.6480 S   0  0  0  0  0  0  0  0  0  0  0  0
  181.1830  179.2290  141.9410 O   0  0  0  0  0  1  0  0  0  0  0  0
  182.4650  179.1480  142.4890 C   0  0  1  0  0  3  0  0  0  0  0  0
  182.3740  178.8260  143.9700 C   0  0  0  0  0  2  0  0  0  0  0  0
  184.4990  180.1270  144.0550 O   0  0  0  0  0  0  0  0  0  0  0  0
  183.6150  179.2540  144.6740 C   0  0  0  0  0  0  0  0  0  0  0  0
  183.8500  178.8460  145.8410 O   0  0  0  0  0  1  0  0  0  0  0  0
  1 13  1  0  0  0  0
  2  8  1  0  0  0  0
  3 12  2  0  0  0  0
  4 10  1  6  0  0  0
  4 15  1  0  0  0  0
  5  1  1  0  0  0  0
  6 11  1  0  0  0  0
  6  2  2  0  0  0  0
  8  1  2  0  0  0  0
  8  3  1  0  0  0  0
  9  7  1  0  0  0  0
  9 17  1  0  0  0  0
 11  5  2  0  0  0  0
 12 19  1  0  0  0  0
 12 16  1  0  0  0  0
 13 19  2  0  0  0  0
 14  2  1  0  0  0  0
 15 16  2  0  0  0  0
 17 27  1  6  0  0  0
 17 10  1  0  0  0  0
 18  7  1  6  0  0  0
 18  3  1  0  0  0  0
 18  4  1  0  0  0  0
 20 21  1  0  0  0  0
 20 26  1  1  0  0  0
 22 16  1  6  0  0  0
 22 25  1  0  0  0  0
 22 24  1  0  0  0  0
 23 21  1  0  0  0  0
 24 20  1  0  0  0  0
 25 23  1  0  0  0  0
 27 28  1  0  0  0  0
 28 30  1  0  0  0  0
 30 29  1  6  0  0  0
 30 31  1  0  0  0  0
 31 33  1  0  0  0  0
 32 33  2  0  0  0  0
 33 34  1  0  0  0  0
M  END
>  <MODEL>
9

>  <REMARK>
 VINA RESULT:      -8.5      3.730      6.887
  Name = 
  6 active torsions:
  status: ('A' for Active; 'I' for Inactive)
    1  A    between atoms: C_3  and  S_13
    2  A    between atoms: C_3  and  C_29
    3  A    between atoms: C_12  and  C_28
    4  A    between atoms: S_13  and  C_33
    5  A    between atoms: C_20  and  C_22
    6  A    between atoms: C_22  and  C_33
                            x       y       z     vdW  Elec       q    Type
                         _______ _______ _______ _____ _____    ______ ____

>  <TORSDO>
F 6

$$$$
