=
 OpenBabel10262420043D

 27 31  0  0  1  0  0  0  0  0999 V2000
  188.5070  177.1490  144.3810 N   0  0  0  0  0  0  0  0  0  0  0  0
  187.3450  177.5630  142.2590 C   0  0  2  0  0  3  0  0  0  0  0  0
  189.8750  176.8880  142.3780 C   0  0  1  0  0  3  0  0  0  0  0  0
  187.6050  177.9430  138.3080 N   0  0  0  0  0  0  0  0  0  0  0  0
  189.1900  176.7140  136.7230 C   0  0  0  0  0  1  0  0  0  0  0  0
  186.3750  178.4640  141.5130 C   0  0  0  0  0  3  0  0  0  0  0  0
  189.6120  177.2600  139.1300 C   0  0  0  0  0  0  0  0  0  0  0  0
  192.0610  178.5060  144.3860 C   0  0  0  0  0  2  0  0  0  0  0  0
  190.9810  176.6710  139.1880 C   0  0  0  0  0  1  0  0  0  0  0  0
  191.2140  178.1650  145.6020 C   0  0  0  0  0  2  0  0  0  0  0  0
  188.9340  178.0070  140.2330 C   0  0  1  0  0  3  0  0  0  0  0  0
  187.6320  178.0630  143.6800 C   0  0  1  0  0  3  0  0  0  0  0  0
  188.8460  177.3060  138.0480 C   0  0  0  0  0  0  0  0  0  0  0  0
  187.6560  178.3240  139.5410 C   0  0  0  0  0  0  0  0  0  0  0  0
  189.5370  176.6110  143.8220 C   0  0  0  0  0  0  0  0  0  0  0  0
  188.6370  177.1570  141.4810 C   0  0  2  0  0  3  0  0  0  0  0  0
  191.1710  178.9530  143.2340 C   0  0  0  0  0  2  0  0  0  0  0  0
  186.5090  178.7600  140.2560 N   0  0  0  0  0  0  0  0  0  0  0  0
  191.0790  176.6540  145.8330 C   0  0  0  0  0  2  0  0  0  0  0  0
  190.5240  175.8470  144.6490 C   0  0  0  0  0  2  0  0  0  0  0  0
  191.0700  177.8440  142.1930 C   0  0  0  0  0  2  0  0  0  0  0  0
  184.0690  178.6590  146.0120 C   0  0  0  0  0  3  0  0  0  0  0  0
  186.3830  178.2740  144.4810 C   0  0  0  0  0  0  0  0  0  0  0  0
  186.4310  178.1410  145.8730 C   0  0  0  0  0  3  0  0  0  0  0  0
  185.2770  178.3340  146.6380 C   0  0  0  0  0  3  0  0  0  0  0  0
  184.0150  178.7920  144.6220 C   0  0  0  0  0  3  0  0  0  0  0  0
  185.1690  178.6000  143.8560 C   0  0  0  0  0  3  0  0  0  0  0  0
  2  6  1  6  0  0  0
  2 12  1  0  0  0  0
  3 21  1  1  0  0  0
  3 15  1  0  0  0  0
  4 14  2  0  0  0  0
  5 13  1  0  0  0  0
  7  9  1  0  0  0  0
  8 10  1  0  0  0  0
 10 19  1  0  0  0  0
 11  7  1  6  0  0  0
 11 16  1  0  0  0  0
 12  1  1  0  0  0  0
 12 23  1  1  0  0  0
 13  4  1  0  0  0  0
 13  7  2  0  0  0  0
 14 11  1  0  0  0  0
 14 18  1  0  0  0  0
 15  1  2  0  0  0  0
 15 20  1  0  0  0  0
 16  2  1  0  0  0  0
 16  3  1  0  0  0  0
 17  8  1  0  0  0  0
 18  6  2  0  0  0  0
 20 19  1  0  0  0  0
 21 17  1  0  0  0  0
 22 25  1  0  0  0  0
 23 24  1  0  0  0  0
 24 25  2  0  0  0  0
 26 22  2  0  0  0  0
 27 23  2  0  0  0  0
 27 26  1  0  0  0  0
M  END
>  <MODEL>
1

>  <REMARK>
 VINA RESULT:      -8.9      0.000      0.000
  Name = 
  1 active torsions:
  status: ('A' for Active; 'I' for Inactive)
    1  A    between atoms: C_9  and  C_15
                            x       y       z     vdW  Elec       q    Type
                         _______ _______ _______ _____ _____    ______ ____

>  <TORSDO>
F 1

$$$$
=
 OpenBabel10262420043D

 27 31  0  0  1  0  0  0  0  0999 V2000
  188.6170  176.8420  143.9900 N   0  0  0  0  0  0  0  0  0  0  0  0
  186.9580  177.6640  142.3780 C   0  0  2  0  0  3  0  0  0  0  0  0
  189.3200  176.7870  141.6550 C   0  0  1  0  0  3  0  0  0  0  0  0
  186.1310  178.6230  138.6070 N   0  0  0  0  0  0  0  0  0  0  0  0
  187.0450  177.5340  136.4840 C   0  0  0  0  0  1  0  0  0  0  0  0
  185.9300  178.7400  142.0720 C   0  0  0  0  0  3  0  0  0  0  0  0
  188.1930  177.6710  138.7040 C   0  0  0  0  0  0  0  0  0  0  0  0
  192.1600  177.9060  143.1070 C   0  0  0  0  0  2  0  0  0  0  0  0
  189.4430  176.9770  138.2790 C   0  0  0  0  0  1  0  0  0  0  0  0
  191.6580  177.4490  144.4670 C   0  0  0  0  0  2  0  0  0  0  0  0
  187.9490  178.2900  140.0430 C   0  0  1  0  0  3  0  0  0  0  0  0
  187.6930  177.9170  143.7000 C   0  0  1  0  0  3  0  0  0  0  0  0
  187.1630  177.9400  137.9130 C   0  0  0  0  0  0  0  0  0  0  0  0
  186.5740  178.8060  139.8070 C   0  0  0  0  0  0  0  0  0  0  0  0
  189.3740  176.3190  143.0890 C   0  0  0  0  0  0  0  0  0  0  0  0
  187.9190  177.2840  141.2070 C   0  0  2  0  0  3  0  0  0  0  0  0
  191.0400  178.5910  142.3360 C   0  0  0  0  0  2  0  0  0  0  0  0
  185.7360  179.2140  140.8790 N   0  0  0  0  0  0  0  0  0  0  0  0
  191.4170  175.9350  144.5390 C   0  0  0  0  0  2  0  0  0  0  0  0
  190.4580  175.3640  143.4830 C   0  0  0  0  0  2  0  0  0  0  0  0
  190.5180  177.6650  141.2430 C   0  0  0  0  0  2  0  0  0  0  0  0
  185.0360  178.4290  147.0420 C   0  0  0  0  0  3  0  0  0  0  0  0
  186.7550  178.0980  144.8560 C   0  0  0  0  0  0  0  0  0  0  0  0
  187.2530  178.0160  146.1610 C   0  0  0  0  0  3  0  0  0  0  0  0
  186.3960  178.1820  147.2520 C   0  0  0  0  0  3  0  0  0  0  0  0
  184.5330  178.5110  145.7400 C   0  0  0  0  0  3  0  0  0  0  0  0
  185.3900  178.3450  144.6480 C   0  0  0  0  0  3  0  0  0  0  0  0
  2  6  1  6  0  0  0
  2 12  1  0  0  0  0
  3 21  1  1  0  0  0
  3 15  1  0  0  0  0
  4 14  2  0  0  0  0
  5 13  1  0  0  0  0
  8 10  1  0  0  0  0
  9  7  1  0  0  0  0
 10 19  1  0  0  0  0
 11  7  1  6  0  0  0
 11 16  1  0  0  0  0
 12  1  1  0  0  0  0
 12 23  1  1  0  0  0
 13  4  1  0  0  0  0
 13  7  2  0  0  0  0
 14 11  1  0  0  0  0
 14 18  1  0  0  0  0
 15 20  1  0  0  0  0
 15  1  2  0  0  0  0
 16  3  1  0  0  0  0
 16  2  1  0  0  0  0
 17  8  1  0  0  0  0
 18  6  2  0  0  0  0
 20 19  1  0  0  0  0
 21 17  1  0  0  0  0
 22 25  1  0  0  0  0
 23 24  1  0  0  0  0
 24 25  2  0  0  0  0
 26 22  2  0  0  0  0
 27 23  2  0  0  0  0
 27 26  1  0  0  0  0
M  END
>  <MODEL>
2

>  <REMARK>
 VINA RESULT:      -8.3      1.056      1.233
  Name = 
  1 active torsions:
  status: ('A' for Active; 'I' for Inactive)
    1  A    between atoms: C_9  and  C_15
                            x       y       z     vdW  Elec       q    Type
                         _______ _______ _______ _____ _____    ______ ____

>  <TORSDO>
F 1

$$$$
=
 OpenBabel10262420043D

 27 31  0  0  1  0  0  0  0  0999 V2000
  189.0660  178.2430  140.8670 N   0  0  0  0  0  0  0  0  0  0  0  0
  186.6620  178.5590  140.4840 C   0  0  2  0  0  3  0  0  0  0  0  0
  187.6990  178.3770  142.8840 C   0  0  1  0  0  3  0  0  0  0  0  0
  183.0100  178.7510  142.0490 N   0  0  0  0  0  0  0  0  0  0  0  0
  182.3420  179.6560  144.3440 C   0  0  0  0  0  1  0  0  0  0  0  0
  185.4550  178.1400  139.6610 C   0  0  0  0  0  3  0  0  0  0  0  0
  184.5400  178.6290  143.7260 C   0  0  0  0  0  0  0  0  0  0  0  0
  189.7830  175.8560  143.7400 C   0  0  0  0  0  2  0  0  0  0  0  0
  185.1530  178.7410  145.0810 C   0  0  0  0  0  1  0  0  0  0  0  0
  190.7350  176.2480  142.6220 C   0  0  0  0  0  2  0  0  0  0  0  0
  185.1600  177.9670  142.5370 C   0  0  1  0  0  3  0  0  0  0  0  0
  187.9260  177.7740  140.1100 C   0  0  1  0  0  3  0  0  0  0  0  0
  183.3050  178.9990  143.4140 C   0  0  0  0  0  0  0  0  0  0  0  0
  184.0610  178.1820  141.5590 C   0  0  0  0  0  0  0  0  0  0  0  0
  188.9970  178.5120  142.1250 C   0  0  0  0  0  0  0  0  0  0  0  0
  186.4360  178.6570  142.0260 C   0  0  2  0  0  3  0  0  0  0  0  0
  188.3440  175.9000  143.2450 C   0  0  0  0  0  2  0  0  0  0  0  0
  184.2640  178.0200  140.1620 N   0  0  0  0  0  0  0  0  0  0  0  0
  191.2950  177.6670  142.7810 C   0  0  0  0  0  2  0  0  0  0  0  0
  190.2480  178.7850  142.9020 C   0  0  0  0  0  2  0  0  0  0  0  0
  187.6410  177.1360  143.7970 C   0  0  0  0  0  2  0  0  0  0  0  0
  188.7980  177.9270  135.9030 C   0  0  0  0  0  3  0  0  0  0  0  0
  188.2340  177.8420  138.6450 C   0  0  0  0  0  0  0  0  0  0  0  0
  187.9800  176.7260  137.8400 C   0  0  0  0  0  3  0  0  0  0  0  0
  188.2610  176.7680  136.4710 C   0  0  0  0  0  3  0  0  0  0  0  0
  189.0560  179.0440  136.7020 C   0  0  0  0  0  3  0  0  0  0  0  0
  188.7750  179.0030  138.0720 C   0  0  0  0  0  3  0  0  0  0  0  0
  1 15  2  0  0  0  0
  2  6  1  6  0  0  0
  2 16  1  0  0  0  0
  3 21  1  6  0  0  0
  4 13  1  0  0  0  0
  6 18  2  0  0  0  0
  7  9  1  0  0  0  0
 10 19  1  0  0  0  0
 10  8  1  0  0  0  0
 11 14  1  6  0  0  0
 11  7  1  0  0  0  0
 12 23  1  6  0  0  0
 12  2  1  0  0  0  0
 12  1  1  0  0  0  0
 13  7  2  0  0  0  0
 13  5  1  0  0  0  0
 14  4  2  0  0  0  0
 15  3  1  0  0  0  0
 15 20  1  0  0  0  0
 16 11  1  0  0  0  0
 16  3  1  0  0  0  0
 17  8  1  0  0  0  0
 17 21  1  0  0  0  0
 18 14  1  0  0  0  0
 19 20  1  0  0  0  0
 22 25  2  0  0  0  0
 22 26  1  0  0  0  0
 24 23  2  0  0  0  0
 25 24  1  0  0  0  0
 26 27  2  0  0  0  0
 27 23  1  0  0  0  0
M  END
>  <MODEL>
3

>  <REMARK>
 VINA RESULT:      -8.0      1.748      6.067
  Name = 
  1 active torsions:
  status: ('A' for Active; 'I' for Inactive)
    1  A    between atoms: C_9  and  C_15
                            x       y       z     vdW  Elec       q    Type
                         _______ _______ _______ _____ _____    ______ ____

>  <TORSDO>
F 1

$$$$
=
 OpenBabel10262420043D

 27 31  0  0  1  0  0  0  0  0999 V2000
  188.3410  177.0080  144.4620 N   0  0  0  0  0  0  0  0  0  0  0  0
  186.1340  177.9410  144.9920 C   0  0  2  0  0  3  0  0  0  0  0  0
  186.8350  177.2610  142.5600 C   0  0  1  0  0  3  0  0  0  0  0  0
  182.6510  179.3030  143.6350 N   0  0  0  0  0  0  0  0  0  0  0  0
  181.3640  178.5150  141.5730 C   0  0  0  0  0  1  0  0  0  0  0  0
  185.3720  178.9990  145.7720 C   0  0  0  0  0  3  0  0  0  0  0  0
  183.8440  178.4390  141.9040 C   0  0  0  0  0  0  0  0  0  0  0  0
  189.7290  178.3250  141.1740 C   0  0  0  0  0  2  0  0  0  0  0  0
  184.1640  177.8560  140.5690 C   0  0  0  0  0  1  0  0  0  0  0  0
  190.5190  177.6880  142.3070 C   0  0  0  0  0  2  0  0  0  0  0  0
  184.8410  178.8830  142.9260 C   0  0  1  0  0  3  0  0  0  0  0  0
  187.6520  178.0680  145.1650 C   0  0  1  0  0  3  0  0  0  0  0  0
  182.6280  178.7540  142.3270 C   0  0  0  0  0  0  0  0  0  0  0  0
  183.8970  179.3620  143.9700 C   0  0  0  0  0  0  0  0  0  0  0  0
  188.0020  176.6300  143.2780 C   0  0  0  0  0  0  0  0  0  0  0  0
  185.7020  177.7460  143.5030 C   0  0  2  0  0  3  0  0  0  0  0  0
  188.5080  179.0460  141.7260 C   0  0  0  0  0  2  0  0  0  0  0  0
  184.3210  179.6030  145.3050 N   0  0  0  0  0  0  0  0  0  0  0  0
  190.3300  176.1670  142.3870 C   0  0  0  0  0  2  0  0  0  0  0  0
  188.8770  175.6840  142.5150 C   0  0  0  0  0  2  0  0  0  0  0  0
  187.2490  178.2350  141.4380 C   0  0  0  0  0  2  0  0  0  0  0  0
  188.8920  178.0640  149.2820 C   0  0  0  0  0  3  0  0  0  0  0  0
  188.0700  178.0690  146.6050 C   0  0  0  0  0  0  0  0  0  0  0  0
  189.4220  177.8990  146.9250 C   0  0  0  0  0  3  0  0  0  0  0  0
  189.8330  177.8980  148.2610 C   0  0  0  0  0  3  0  0  0  0  0  0
  187.5410  178.2330  148.9680 C   0  0  0  0  0  3  0  0  0  0  0  0
  187.1290  178.2350  147.6310 C   0  0  0  0  0  3  0  0  0  0  0  0
  1 12  1  0  0  0  0
  2 12  1  0  0  0  0
  2  6  1  6  0  0  0
  3 21  1  1  0  0  0
  3 15  1  0  0  0  0
  3 16  1  0  0  0  0
  4 14  2  0  0  0  0
  5 13  1  0  0  0  0
  7 13  2  0  0  0  0
  8 17  1  0  0  0  0
  8 10  1  0  0  0  0
  9  7  1  0  0  0  0
 10 19  1  0  0  0  0
 11  7  1  6  0  0  0
 11 16  1  0  0  0  0
 11 14  1  0  0  0  0
 12 23  1  1  0  0  0
 13  4  1  0  0  0  0
 14 18  1  0  0  0  0
 15  1  2  0  0  0  0
 16  2  1  0  0  0  0
 18  6  2  0  0  0  0
 19 20  1  0  0  0  0
 20 15  1  0  0  0  0
 21 17  1  0  0  0  0
 23 24  2  0  0  0  0
 23 27  1  0  0  0  0
 24 25  1  0  0  0  0
 25 22  2  0  0  0  0
 26 22  1  0  0  0  0
 27 26  2  0  0  0  0
M  END
>  <MODEL>
4

>  <REMARK>
 VINA RESULT:      -7.9      2.425      4.860
  Name = 
  1 active torsions:
  status: ('A' for Active; 'I' for Inactive)
    1  A    between atoms: C_9  and  C_15
                            x       y       z     vdW  Elec       q    Type
                         _______ _______ _______ _____ _____    ______ ____

>  <TORSDO>
F 1

$$$$
=
 OpenBabel10262420043D

 27 31  0  0  1  0  0  0  0  0999 V2000
  183.6010  178.7790  141.4070 N   0  0  0  0  0  0  0  0  0  0  0  0
  186.0420  178.6280  141.2010 C   0  0  2  0  0  3  0  0  0  0  0  0
  184.4420  178.5800  139.1260 C   0  0  1  0  0  3  0  0  0  0  0  0
  189.1820  178.0530  138.8270 N   0  0  0  0  0  0  0  0  0  0  0  0
  189.4320  178.7380  136.3780 C   0  0  0  0  0  1  0  0  0  0  0  0
  187.3130  178.0060  141.7540 C   0  0  0  0  0  3  0  0  0  0  0  0
  187.2970  178.1820  137.5620 C   0  0  0  0  0  0  0  0  0  0  0  0
  181.7880  176.4920  138.9670 C   0  0  0  0  0  2  0  0  0  0  0  0
  186.4070  178.3700  136.3800 C   0  0  0  0  0  1  0  0  0  0  0  0
  181.2220  177.0970  140.2420 C   0  0  0  0  0  2  0  0  0  0  0  0
  186.8710  177.6910  138.9080 C   0  0  1  0  0  3  0  0  0  0  0  0
  184.7840  178.1190  141.9150 C   0  0  1  0  0  3  0  0  0  0  0  0
  188.6170  178.3120  137.5510 C   0  0  0  0  0  0  0  0  0  0  0  0
  188.1940  177.7160  139.5880 C   0  0  0  0  0  0  0  0  0  0  0  0
  183.4130  178.9910  140.1500 C   0  0  0  0  0  0  0  0  0  0  0  0
  185.9040  178.6340  139.6450 C   0  0  2  0  0  3  0  0  0  0  0  0
  183.2870  176.2690  139.1120 C   0  0  0  0  0  2  0  0  0  0  0  0
  188.3070  177.6400  141.0020 N   0  0  0  0  0  0  0  0  0  0  0  0
  180.9100  178.5930  140.1080 C   0  0  0  0  0  2  0  0  0  0  0  0
  182.0840  179.4800  139.6650 C   0  0  0  0  0  2  0  0  0  0  0  0
  184.0510  177.3250  138.3210 C   0  0  0  0  0  2  0  0  0  0  0  0
  184.9490  178.6280  146.1810 C   0  0  0  0  0  3  0  0  0  0  0  0
  184.8550  178.2900  143.4020 C   0  0  0  0  0  0  0  0  0  0  0  0
  183.7600  178.8350  144.0820 C   0  0  0  0  0  3  0  0  0  0  0  0
  183.8060  179.0030  145.4690 C   0  0  0  0  0  3  0  0  0  0  0  0
  186.0460  178.0840  145.5070 C   0  0  0  0  0  3  0  0  0  0  0  0
  186.0010  177.9160  144.1200 C   0  0  0  0  0  3  0  0  0  0  0  0
  1 12  1  0  0  0  0
  2  6  1  6  0  0  0
  2 12  1  0  0  0  0
  3 21  1  1  0  0  0
  3 16  1  0  0  0  0
  3 15  1  0  0  0  0
  4 14  2  0  0  0  0
  5 13  1  0  0  0  0
  8 17  1  0  0  0  0
  8 10  1  0  0  0  0
  9  7  1  0  0  0  0
 11  7  1  6  0  0  0
 11 14  1  0  0  0  0
 11 16  1  0  0  0  0
 12 23  1  1  0  0  0
 13  7  2  0  0  0  0
 13  4  1  0  0  0  0
 14 18  1  0  0  0  0
 15  1  2  0  0  0  0
 16  2  1  0  0  0  0
 18  6  2  0  0  0  0
 19 10  1  0  0  0  0
 20 19  1  0  0  0  0
 20 15  1  0  0  0  0
 21 17  1  0  0  0  0
 23 24  2  0  0  0  0
 23 27  1  0  0  0  0
 24 25  1  0  0  0  0
 25 22  2  0  0  0  0
 26 22  1  0  0  0  0
 27 26  2  0  0  0  0
M  END
>  <MODEL>
5

>  <REMARK>
 VINA RESULT:      -7.8      2.839      5.836
  Name = 
  1 active torsions:
  status: ('A' for Active; 'I' for Inactive)
    1  A    between atoms: C_9  and  C_15
                            x       y       z     vdW  Elec       q    Type
                         _______ _______ _______ _____ _____    ______ ____

>  <TORSDO>
F 1

$$$$
=
 OpenBabel10262420043D

 27 31  0  0  1  0  0  0  0  0999 V2000
  186.6120  178.6440  138.4190 N   0  0  0  0  0  0  0  0  0  0  0  0
  186.8390  178.6280  140.8630 C   0  0  2  0  0  3  0  0  0  0  0  0
  188.8450  178.1230  139.2530 C   0  0  1  0  0  3  0  0  0  0  0  0
  189.1460  177.8780  144.0150 N   0  0  0  0  0  0  0  0  0  0  0  0
  191.6800  178.1570  144.1960 C   0  0  0  0  0  1  0  0  0  0  0  0
  186.2160  178.1960  142.1790 C   0  0  0  0  0  3  0  0  0  0  0  0
  190.3770  177.6630  142.1160 C   0  0  0  0  0  0  0  0  0  0  0  0
  188.5990  175.8600  136.7530 C   0  0  0  0  0  2  0  0  0  0  0  0
  191.5560  177.5890  141.2050 C   0  0  0  0  0  1  0  0  0  0  0  0
  187.4320  176.6310  136.1550 C   0  0  0  0  0  2  0  0  0  0  0  0
  188.9590  177.3770  141.7370 C   0  0  1  0  0  3  0  0  0  0  0  0
  186.0250  178.1610  139.6500 C   0  0  1  0  0  3  0  0  0  0  0  0
  190.4360  177.8800  143.4230 C   0  0  0  0  0  0  0  0  0  0  0  0
  188.3200  177.6070  143.0600 C   0  0  0  0  0  0  0  0  0  0  0  0
  187.8830  178.6280  138.2050 C   0  0  0  0  0  0  0  0  0  0  0  0
  188.3710  178.3620  140.7120 C   0  0  2  0  0  3  0  0  0  0  0  0
  188.4490  175.7680  138.2650 C   0  0  0  0  0  2  0  0  0  0  0  0
  186.9160  177.7770  143.1900 N   0  0  0  0  0  0  0  0  0  0  0  0
  187.8080  178.0580  135.7370 C   0  0  0  0  0  2  0  0  0  0  0  0
  188.4170  178.9360  136.8410 C   0  0  0  0  0  2  0  0  0  0  0  0
  189.4200  176.7260  138.9450 C   0  0  0  0  0  2  0  0  0  0  0  0
  181.9150  179.4090  139.8300 C   0  0  0  0  0  3  0  0  0  0  0  0
  184.5890  178.5840  139.7210 C   0  0  0  0  0  0  0  0  0  0  0  0
  184.1800  179.7360  139.0400 C   0  0  0  0  0  3  0  0  0  0  0  0
  182.8460  180.1480  139.0940 C   0  0  0  0  0  3  0  0  0  0  0  0
  182.3180  178.2580  140.5130 C   0  0  0  0  0  3  0  0  0  0  0  0
  183.6530  177.8450  140.4600 C   0  0  0  0  0  3  0  0  0  0  0  0
  1 12  1  0  0  0  0
  2  6  1  1  0  0  0
  3 21  1  6  0  0  0
  3 16  1  0  0  0  0
  6 18  2  0  0  0  0
  7 13  2  0  0  0  0
  8 17  1  0  0  0  0
  9  7  1  0  0  0  0
 10  8  1  0  0  0  0
 11  7  1  1  0  0  0
 11 14  1  0  0  0  0
 12 23  1  1  0  0  0
 12  2  1  0  0  0  0
 13  4  1  0  0  0  0
 13  5  1  0  0  0  0
 14 18  1  0  0  0  0
 14  4  2  0  0  0  0
 15  1  2  0  0  0  0
 15  3  1  0  0  0  0
 16  2  1  0  0  0  0
 16 11  1  0  0  0  0
 17 21  1  0  0  0  0
 19 10  1  0  0  0  0
 19 20  1  0  0  0  0
 20 15  1  0  0  0  0
 22 26  1  0  0  0  0
 23 27  1  0  0  0  0
 24 25  1  0  0  0  0
 24 23  2  0  0  0  0
 25 22  2  0  0  0  0
 27 26  2  0  0  0  0
M  END
>  <MODEL>
6

>  <REMARK>
 VINA RESULT:      -7.8      2.161      5.907
  Name = 
  1 active torsions:
  status: ('A' for Active; 'I' for Inactive)
    1  A    between atoms: C_9  and  C_15
                            x       y       z     vdW  Elec       q    Type
                         _______ _______ _______ _____ _____    ______ ____

>  <TORSDO>
F 1

$$$$
=
 OpenBabel10262420043D

 27 31  0  0  1  0  0  0  0  0999 V2000
  190.3820  175.5320  136.3710 N   0  0  0  0  0  0  0  0  0  0  0  0
  191.7950  175.9780  138.3280 C   0  0  2  0  0  3  0  0  0  0  0  0
  189.2160  176.4450  138.3110 C   0  0  1  0  0  3  0  0  0  0  0  0
  192.0730  177.5070  141.9900 N   0  0  0  0  0  0  0  0  0  0  0  0
  190.2680  177.5630  143.7980 C   0  0  0  0  0  1  0  0  0  0  0  0
  193.1160  176.5450  138.8210 C   0  0  0  0  0  3  0  0  0  0  0  0
  189.9010  177.5490  141.3220 C   0  0  0  0  0  0  0  0  0  0  0  0
  187.7400  178.2170  135.8390 C   0  0  0  0  0  2  0  0  0  0  0  0
  188.4120  177.6110  141.3830 C   0  0  0  0  0  1  0  0  0  0  0  0
  188.2540  177.2260  134.8060 C   0  0  0  0  0  2  0  0  0  0  0  0
  190.7280  177.5980  140.0770 C   0  0  1  0  0  3  0  0  0  0  0  0
  191.6190  176.1390  136.8130 C   0  0  1  0  0  3  0  0  0  0  0  0
  190.7080  177.5600  142.3740 C   0  0  0  0  0  0  0  0  0  0  0  0
  192.0770  177.5160  140.6980 C   0  0  0  0  0  0  0  0  0  0  0  0
  189.2770  175.6630  137.0210 C   0  0  0  0  0  0  0  0  0  0  0  0
  190.5270  176.3950  139.1400 C   0  0  2  0  0  3  0  0  0  0  0  0
  188.8350  178.5400  136.8470 C   0  0  0  0  0  2  0  0  0  0  0  0
  193.2320  177.2040  139.9330 N   0  0  0  0  0  0  0  0  0  0  0  0
  187.7210  175.8040  135.0240 C   0  0  0  0  0  2  0  0  0  0  0  0
  187.9910  175.1990  136.4110 C   0  0  0  0  0  2  0  0  0  0  0  0
  188.5540  177.8290  138.1660 C   0  0  0  0  0  2  0  0  0  0  0  0
  194.8940  174.4570  134.5940 C   0  0  0  0  0  3  0  0  0  0  0  0
  192.7650  175.5660  136.0350 C   0  0  0  0  0  0  0  0  0  0  0  0
  192.9430  174.1790  136.0010 C   0  0  0  0  0  3  0  0  0  0  0  0
  194.0050  173.6240  135.2800 C   0  0  0  0  0  3  0  0  0  0  0  0
  194.7220  175.8430  134.6260 C   0  0  0  0  0  3  0  0  0  0  0  0
  193.6590  176.3990  135.3460 C   0  0  0  0  0  3  0  0  0  0  0  0
  1 12  1  0  0  0  0
  1 15  2  0  0  0  0
  2  6  1  1  0  0  0
  2 16  1  0  0  0  0
  3 21  1  6  0  0  0
  3 16  1  0  0  0  0
  4 13  1  0  0  0  0
  6 18  2  0  0  0  0
  7  9  1  0  0  0  0
  7 13  2  0  0  0  0
  8 17  1  0  0  0  0
 10 19  1  0  0  0  0
 10  8  1  0  0  0  0
 11 14  1  1  0  0  0
 11  7  1  0  0  0  0
 12 23  1  6  0  0  0
 12  2  1  0  0  0  0
 13  5  1  0  0  0  0
 14  4  2  0  0  0  0
 15  3  1  0  0  0  0
 16 11  1  0  0  0  0
 17 21  1  0  0  0  0
 18 14  1  0  0  0  0
 19 20  1  0  0  0  0
 20 15  1  0  0  0  0
 22 26  2  0  0  0  0
 22 25  1  0  0  0  0
 24 23  1  0  0  0  0
 25 24  2  0  0  0  0
 26 27  1  0  0  0  0
 27 23  2  0  0  0  0
M  END
>  <MODEL>
7

>  <REMARK>
 VINA RESULT:      -7.4      3.247      8.890
  Name = 
  1 active torsions:
  status: ('A' for Active; 'I' for Inactive)
    1  A    between atoms: C_9  and  C_15
                            x       y       z     vdW  Elec       q    Type
                         _______ _______ _______ _____ _____    ______ ____

>  <TORSDO>
F 1

$$$$
=
 OpenBabel10262420043D

 27 31  0  0  1  0  0  0  0  0999 V2000
  190.7090  177.5790  141.0970 N   0  0  0  0  0  0  0  0  0  0  0  0
  189.0720  177.6830  139.2710 C   0  0  2  0  0  3  0  0  0  0  0  0
  188.4970  178.3940  141.7270 C   0  0  1  0  0  3  0  0  0  0  0  0
  185.3060  178.3410  138.1710 N   0  0  0  0  0  0  0  0  0  0  0  0
  183.6470  179.9910  139.1980 C   0  0  0  0  0  1  0  0  0  0  0  0
  188.4950  176.9710  138.0590 C   0  0  0  0  0  3  0  0  0  0  0  0
  185.5470  178.8600  140.3710 C   0  0  0  0  0  0  0  0  0  0  0  0
  189.1690  176.3930  144.3670 C   0  0  0  0  0  2  0  0  0  0  0  0
  185.2870  179.4620  141.7100 C   0  0  0  0  0  1  0  0  0  0  0  0
  190.6440  176.3800  143.9960 C   0  0  0  0  0  2  0  0  0  0  0  0
  186.5870  177.8310  140.0620 C   0  0  1  0  0  3  0  0  0  0  0  0
  190.1370  176.8450  139.9890 C   0  0  1  0  0  3  0  0  0  0  0  0
  184.8130  179.0670  139.2860 C   0  0  0  0  0  0  0  0  0  0  0  0
  186.3100  177.6580  138.6110 C   0  0  0  0  0  0  0  0  0  0  0  0
  189.9910  178.2780  141.9070 C   0  0  0  0  0  0  0  0  0  0  0  0
  188.0330  178.3210  140.2470 C   0  0  2  0  0  3  0  0  0  0  0  0
  188.3120  176.2260  143.1200 C   0  0  0  0  0  2  0  0  0  0  0  0
  187.2350  177.0120  137.7470 N   0  0  0  0  0  0  0  0  0  0  0  0
  191.2820  177.7750  144.0300 C   0  0  0  0  0  2  0  0  0  0  0  0
  190.6010  178.8380  143.1550 C   0  0  0  0  0  2  0  0  0  0  0  0
  187.6840  177.5600  142.7370 C   0  0  0  0  0  2  0  0  0  0  0  0
  193.2990  175.5760  137.3670 C   0  0  0  0  0  3  0  0  0  0  0  0
  191.2310  176.3910  139.0700 C   0  0  0  0  0  0  0  0  0  0  0  0
  192.4510  177.0770  139.0680 C   0  0  0  0  0  3  0  0  0  0  0  0
  193.4840  176.6690  138.2190 C   0  0  0  0  0  3  0  0  0  0  0  0
  192.0820  174.8890  137.3640 C   0  0  0  0  0  3  0  0  0  0  0  0
  191.0480  175.2960  138.2140 C   0  0  0  0  0  3  0  0  0  0  0  0
  1 15  2  0  0  0  0
  2  6  1  6  0  0  0
  2 12  1  0  0  0  0
  2 16  1  0  0  0  0
  3 15  1  0  0  0  0
  3 21  1  1  0  0  0
  4 14  2  0  0  0  0
  4 13  1  0  0  0  0
  5 13  1  0  0  0  0
  7  9  1  0  0  0  0
 10 19  1  0  0  0  0
 10  8  1  0  0  0  0
 11 14  1  6  0  0  0
 11 16  1  0  0  0  0
 11  7  1  0  0  0  0
 12 23  1  6  0  0  0
 12  1  1  0  0  0  0
 13  7  2  0  0  0  0
 15 20  1  0  0  0  0
 16  3  1  0  0  0  0
 17  8  1  0  0  0  0
 18  6  2  0  0  0  0
 18 14  1  0  0  0  0
 20 19  1  0  0  0  0
 21 17  1  0  0  0  0
 22 25  1  0  0  0  0
 24 23  1  0  0  0  0
 25 24  2  0  0  0  0
 26 22  2  0  0  0  0
 26 27  1  0  0  0  0
 27 23  2  0  0  0  0
M  END
>  <MODEL>
8

>  <REMARK>
 VINA RESULT:      -7.2      2.116      5.978
  Name = 
  1 active torsions:
  status: ('A' for Active; 'I' for Inactive)
    1  A    between atoms: C_9  and  C_15
                            x       y       z     vdW  Elec       q    Type
                         _______ _______ _______ _____ _____    ______ ____

>  <TORSDO>
F 1

$$$$
=
 OpenBabel10262420043D

 27 31  0  0  1  0  0  0  0  0999 V2000
  183.4850  177.5360  137.8520 N   0  0  0  0  0  0  0  0  0  0  0  0
  184.9660  177.8480  139.7840 C   0  0  2  0  0  3  0  0  0  0  0  0
  182.3700  178.1790  139.9250 C   0  0  1  0  0  3  0  0  0  0  0  0
  185.3460  178.9970  143.5730 N   0  0  0  0  0  0  0  0  0  0  0  0
  183.6280  178.7710  145.4520 C   0  0  0  0  0  1  0  0  0  0  0  0
  186.2810  178.4280  140.2780 C   0  0  0  0  0  3  0  0  0  0  0  0
  183.1440  178.9970  143.0060 C   0  0  0  0  0  0  0  0  0  0  0  0
  180.6970  180.1220  137.7220 C   0  0  0  0  0  2  0  0  0  0  0  0
  181.6590  178.9740  143.1360 C   0  0  0  0  0  1  0  0  0  0  0  0
  181.2070  179.2720  136.5680 C   0  0  0  0  0  2  0  0  0  0  0  0
  183.9080  179.2190  141.7400 C   0  0  1  0  0  3  0  0  0  0  0  0
  184.7110  178.1570  138.3040 C   0  0  1  0  0  3  0  0  0  0  0  0
  184.0000  178.9390  144.0180 C   0  0  0  0  0  0  0  0  0  0  0  0
  185.2870  179.1420  142.2910 C   0  0  0  0  0  0  0  0  0  0  0  0
  182.4060  177.5410  138.5580 C   0  0  0  0  0  0  0  0  0  0  0  0
  183.7200  178.1110  140.6880 C   0  0  2  0  0  3  0  0  0  0  0  0
  181.8220  180.3940  138.7110 C   0  0  0  0  0  2  0  0  0  0  0  0
  186.4190  178.9720  141.4480 N   0  0  0  0  0  0  0  0  0  0  0  0
  180.7530  177.8090  136.6550 C   0  0  0  0  0  2  0  0  0  0  0  0
  181.1160  177.0770  137.9570 C   0  0  0  0  0  2  0  0  0  0  0  0
  181.6380  179.5360  139.9580 C   0  0  0  0  0  2  0  0  0  0  0  0
  187.9480  176.8880  135.7740 C   0  0  0  0  0  3  0  0  0  0  0  0
  185.8440  177.7290  137.4210 C   0  0  0  0  0  0  0  0  0  0  0  0
  185.9460  176.3860  137.0400 C   0  0  0  0  0  3  0  0  0  0  0  0
  186.9950  175.9660  136.2180 C   0  0  0  0  0  3  0  0  0  0  0  0
  187.8520  178.2300  136.1530 C   0  0  0  0  0  3  0  0  0  0  0  0
  186.8030  178.6520  136.9760 C   0  0  0  0  0  3  0  0  0  0  0  0
  1 12  1  0  0  0  0
  1 15  2  0  0  0  0
  2  6  1  1  0  0  0
  2 16  1  0  0  0  0
  3 21  1  6  0  0  0
  3 16  1  0  0  0  0
  4 13  1  0  0  0  0
  6 18  2  0  0  0  0
  7  9  1  0  0  0  0
  7 13  2  0  0  0  0
  8 17  1  0  0  0  0
 10 19  1  0  0  0  0
 10  8  1  0  0  0  0
 11 14  1  1  0  0  0
 11  7  1  0  0  0  0
 12 23  1  6  0  0  0
 12  2  1  0  0  0  0
 13  5  1  0  0  0  0
 14  4  2  0  0  0  0
 15  3  1  0  0  0  0
 16 11  1  0  0  0  0
 17 21  1  0  0  0  0
 18 14  1  0  0  0  0
 19 20  1  0  0  0  0
 20 15  1  0  0  0  0
 22 26  2  0  0  0  0
 22 25  1  0  0  0  0
 24 23  1  0  0  0  0
 25 24  2  0  0  0  0
 26 27  1  0  0  0  0
 27 23  2  0  0  0  0
M  END
>  <MODEL>
9

>  <REMARK>
 VINA RESULT:      -6.8      3.966      8.837
  Name = 
  1 active torsions:
  status: ('A' for Active; 'I' for Inactive)
    1  A    between atoms: C_9  and  C_15
                            x       y       z     vdW  Elec       q    Type
                         _______ _______ _______ _____ _____    ______ ____

>  <TORSDO>
F 1

$$$$
