=
 OpenBabel10262420513D

 28 32  0  0  0  0  0  0  0  0999 V2000
  187.6240  178.2720  140.7930 N   0  0  0  0  0  0  0  0  0  0  0  0
  190.4960  176.9320  144.7350 C   0  0  0  0  0  3  0  0  0  0  0  0
  184.5130  178.6420  144.6830 C   0  0  0  0  0  1  0  0  0  0  0  0
  188.9990  177.1030  146.6440 C   0  0  0  0  0  0  0  0  0  0  0  0
  188.1750  177.6400  144.4250 C   0  0  0  0  0  0  0  0  0  0  0  0
  191.2950  176.4010  146.9600 C   0  0  0  0  0  0  0  0  0  0  0  0
  189.2270  177.2260  145.2550 C   0  0  0  0  0  0  0  0  0  0  0  0
  186.7410  177.7840  146.3740 C   0  0  0  0  0  3  0  0  0  0  0  0
  190.0340  176.6920  147.4880 C   0  0  0  0  0  3  0  0  0  0  0  0
  186.0760  178.4520  142.7250 C   0  0  0  0  0  0  0  0  0  0  0  0
  188.3720  177.7750  143.0060 N   0  0  0  0  0  0  0  0  0  0  0  0
  187.7740  177.3840  147.1610 N   0  0  0  0  0  0  0  0  0  0  0  0
  185.3730  178.9210  140.4830 C   0  0  0  0  0  3  0  0  0  0  0  0
  185.8320  178.3410  144.1360 N   0  0  0  0  0  0  0  0  0  0  0  0
  185.1380  178.8120  141.8990 N   0  0  0  0  0  0  0  0  0  0  0  0
  192.3940  175.9640  147.8610 C   0  0  0  0  0  1  0  0  0  0  0  0
  191.5260  176.5210  145.5870 C   0  0  0  0  0  3  0  0  0  0  0  0
  186.9140  177.9220  144.9900 C   0  0  0  0  0  0  0  0  0  0  0  0
  186.5450  178.6610  139.9770 N   0  0  0  0  0  0  0  0  0  0  0  0
  187.4170  178.1470  142.2050 C   0  0  0  0  0  0  0  0  0  0  0  0
  188.9030  177.9400  140.1770 C   0  0  0  0  0  2  0  0  0  0  0  0
  188.7400  177.7840  138.7030 C   0  0  0  0  0  0  0  0  0  0  0  0
  188.4870  177.4760  135.9350 C   0  0  0  0  0  0  0  0  0  0  0  0
  188.2990  176.5670  138.1710 C   0  0  0  0  0  3  0  0  0  0  0  0
  189.0620  178.8440  137.8480 C   0  0  0  0  0  3  0  0  0  0  0  0
  188.9350  178.6900  136.4650 C   0  0  0  0  0  3  0  0  0  0  0  0
  188.3630  177.3280  134.5940 F   0  0  0  0  0  0  0  0  0  0  0  0
  188.1710  176.4140  136.7870 C   0  0  0  0  0  3  0  0  0  0  0  0
  1 20  1  0  0  0  0
  2  7  2  0  0  0  0
  2 17  1  0  0  0  0
  4 12  1  0  0  0  0
  4  9  2  0  0  0  0
  5 18  2  0  0  0  0
  5  7  1  0  0  0  0
  6  9  1  0  0  0  0
  6 16  1  0  0  0  0
  7  4  1  0  0  0  0
  8 12  2  0  0  0  0
 10 14  1  0  0  0  0
 11  5  1  0  0  0  0
 13 15  1  0  0  0  0
 14  3  1  0  0  0  0
 14 18  1  0  0  0  0
 15 10  2  0  0  0  0
 17  6  2  0  0  0  0
 18  8  1  0  0  0  0
 19 13  2  0  0  0  0
 19  1  1  0  0  0  0
 20 10  1  0  0  0  0
 20 11  2  0  0  0  0
 21  1  1  0  0  0  0
 22 21  1  0  0  0  0
 23 26  2  0  0  0  0
 23 28  1  0  0  0  0
 24 22  1  0  0  0  0
 25 22  2  0  0  0  0
 26 25  1  0  0  0  0
 27 23  1  0  0  0  0
 28 24  2  0  0  0  0
M  END
>  <MODEL>
1

>  <REMARK>
 VINA RESULT:     -10.4      0.000      0.000
  Name = 
  2 active torsions:
  status: ('A' for Active; 'I' for Inactive)
    1  A    between atoms: N_1  and  C_2
    2  A    between atoms: C_2  and  C_3
                            x       y       z     vdW  Elec       q    Type
                         _______ _______ _______ _____ _____    ______ ____

>  <TORSDO>
F 2

$$$$
=
 OpenBabel10262420513D

 28 32  0  0  0  0  0  0  0  0999 V2000
  189.7510  176.8830  142.5190 N   0  0  0  0  0  0  0  0  0  0  0  0
  184.9050  178.3060  142.7820 C   0  0  0  0  0  3  0  0  0  0  0  0
  188.9760  177.4870  147.4160 C   0  0  0  0  0  1  0  0  0  0  0  0
  184.5040  178.6090  145.1620 C   0  0  0  0  0  0  0  0  0  0  0  0
  186.6980  177.9070  144.3970 C   0  0  0  0  0  0  0  0  0  0  0  0
  182.7230  179.0080  143.5700 C   0  0  0  0  0  0  0  0  0  0  0  0
  185.3760  178.2700  144.1020 C   0  0  0  0  0  0  0  0  0  0  0  0
  186.2260  178.2320  146.7520 C   0  0  0  0  0  3  0  0  0  0  0  0
  183.1840  178.9750  144.8890 C   0  0  0  0  0  3  0  0  0  0  0  0
  189.3680  177.1870  144.9530 C   0  0  0  0  0  0  0  0  0  0  0  0
  187.6130  177.5560  143.3430 N   0  0  0  0  0  0  0  0  0  0  0  0
  184.9490  178.5800  146.4460 N   0  0  0  0  0  0  0  0  0  0  0  0
  191.4970  176.5300  144.0720 C   0  0  0  0  0  3  0  0  0  0  0  0
  188.4910  177.5190  146.0400 N   0  0  0  0  0  0  0  0  0  0  0  0
  190.6110  176.8590  145.1570 N   0  0  0  0  0  0  0  0  0  0  0  0
  181.3170  179.3970  143.2840 C   0  0  0  0  0  1  0  0  0  0  0  0
  183.5820  178.6740  142.5190 C   0  0  0  0  0  3  0  0  0  0  0  0
  187.1310  177.8870  145.7390 C   0  0  0  0  0  0  0  0  0  0  0  0
  191.0810  176.5480  142.8380 N   0  0  0  0  0  0  0  0  0  0  0  0
  188.8490  177.2230  143.5780 C   0  0  0  0  0  0  0  0  0  0  0  0
  189.3440  176.9410  141.1210 C   0  0  0  0  0  2  0  0  0  0  0  0
  190.5350  176.8290  140.2320 C   0  0  0  0  0  0  0  0  0  0  0  0
  192.7530  176.6610  138.5350 C   0  0  0  0  0  0  0  0  0  0  0  0
  191.7340  177.4610  140.5810 C   0  0  0  0  0  3  0  0  0  0  0  0
  190.4450  176.1190  139.0290 C   0  0  0  0  0  3  0  0  0  0  0  0
  191.5540  176.0350  138.1820 C   0  0  0  0  0  3  0  0  0  0  0  0
  193.8280  176.5780  137.7140 F   0  0  0  0  0  0  0  0  0  0  0  0
  192.8430  177.3750  139.7330 C   0  0  0  0  0  3  0  0  0  0  0  0
  1 19  1  0  0  0  0
  1 20  1  0  0  0  0
  2  7  1  0  0  0  0
  4 12  1  0  0  0  0
  5 18  2  0  0  0  0
  6  9  2  0  0  0  0
  7  5  1  0  0  0  0
  7  4  2  0  0  0  0
  9  4  1  0  0  0  0
 10 15  2  0  0  0  0
 10 14  1  0  0  0  0
 11 20  2  0  0  0  0
 11  5  1  0  0  0  0
 12  8  2  0  0  0  0
 13 15  1  0  0  0  0
 14  3  1  0  0  0  0
 16  6  1  0  0  0  0
 17  2  2  0  0  0  0
 17  6  1  0  0  0  0
 18 14  1  0  0  0  0
 18  8  1  0  0  0  0
 19 13  2  0  0  0  0
 20 10  1  0  0  0  0
 21  1  1  0  0  0  0
 22 24  1  0  0  0  0
 22 21  1  0  0  0  0
 23 28  1  0  0  0  0
 25 22  2  0  0  0  0
 26 23  2  0  0  0  0
 26 25  1  0  0  0  0
 27 23  1  0  0  0  0
 28 24  2  0  0  0  0
M  END
>  <MODEL>
2

>  <REMARK>
 VINA RESULT:      -9.7      2.568      5.456
  Name = 
  2 active torsions:
  status: ('A' for Active; 'I' for Inactive)
    1  A    between atoms: N_1  and  C_2
    2  A    between atoms: C_2  and  C_3
                            x       y       z     vdW  Elec       q    Type
                         _______ _______ _______ _____ _____    ______ ____

>  <TORSDO>
F 2

$$$$
=
 OpenBabel10262420513D

 28 32  0  0  0  0  0  0  0  0999 V2000
  186.2240  178.5990  140.2210 N   0  0  0  0  0  0  0  0  0  0  0  0
  187.1050  178.0890  145.1750 C   0  0  0  0  0  3  0  0  0  0  0  0
  190.8830  176.8080  140.4000 C   0  0  0  0  0  1  0  0  0  0  0  0
  189.3730  177.2180  145.2880 C   0  0  0  0  0  0  0  0  0  0  0  0
  188.3700  177.6700  143.1240 C   0  0  0  0  0  0  0  0  0  0  0  0
  188.1290  177.6300  147.3240 C   0  0  0  0  0  0  0  0  0  0  0  0
  188.2710  177.6630  144.5230 C   0  0  0  0  0  0  0  0  0  0  0  0
  190.6260  176.8050  143.3140 C   0  0  0  0  0  3  0  0  0  0  0  0
  189.2950  177.2040  146.6820 C   0  0  0  0  0  3  0  0  0  0  0  0
  188.5410  177.7130  140.3090 C   0  0  0  0  0  0  0  0  0  0  0  0
  187.2670  178.1170  142.3140 N   0  0  0  0  0  0  0  0  0  0  0  0
  190.5100  176.8040  144.6680 N   0  0  0  0  0  0  0  0  0  0  0  0
  187.4550  178.2300  138.2370 C   0  0  0  0  0  3  0  0  0  0  0  0
  189.6660  177.2490  141.0720 N   0  0  0  0  0  0  0  0  0  0  0  0
  188.5750  177.7620  139.0090 N   0  0  0  0  0  0  0  0  0  0  0  0
  188.0490  177.6150  148.8080 C   0  0  0  0  0  1  0  0  0  0  0  0
  187.0360  178.0720  146.5720 C   0  0  0  0  0  3  0  0  0  0  0  0
  189.5630  177.2360  142.5090 C   0  0  0  0  0  0  0  0  0  0  0  0
  186.3570  178.6230  138.8200 N   0  0  0  0  0  0  0  0  0  0  0  0
  187.3270  178.1450  141.0150 C   0  0  0  0  0  0  0  0  0  0  0  0
  184.9980  179.0970  140.8310 C   0  0  0  0  0  2  0  0  0  0  0  0
  183.8130  178.6670  140.0340 C   0  0  0  0  0  0  0  0  0  0  0  0
  181.5590  177.8740  138.5800 C   0  0  0  0  0  0  0  0  0  0  0  0
  183.2110  179.5560  139.1370 C   0  0  0  0  0  3  0  0  0  0  0  0
  183.2820  177.3830  140.2090 C   0  0  0  0  0  3  0  0  0  0  0  0
  182.1570  176.9880  139.4810 C   0  0  0  0  0  3  0  0  0  0  0  0
  180.4690  177.4900  137.8740 F   0  0  0  0  0  0  0  0  0  0  0  0
  182.0850  179.1580  138.4090 C   0  0  0  0  0  3  0  0  0  0  0  0
  1 21  1  0  0  0  0
  1 20  1  0  0  0  0
  2 17  1  0  0  0  0
  3 14  1  0  0  0  0
  4  9  2  0  0  0  0
  5  7  1  0  0  0  0
  6 16  1  0  0  0  0
  7  2  2  0  0  0  0
  7  4  1  0  0  0  0
  8 12  2  0  0  0  0
  9  6  1  0  0  0  0
 10 20  1  0  0  0  0
 10 14  1  0  0  0  0
 11  5  1  0  0  0  0
 12  4  1  0  0  0  0
 13 19  2  0  0  0  0
 13 15  1  0  0  0  0
 14 18  1  0  0  0  0
 15 10  2  0  0  0  0
 17  6  2  0  0  0  0
 18  5  2  0  0  0  0
 18  8  1  0  0  0  0
 19  1  1  0  0  0  0
 20 11  2  0  0  0  0
 22 25  1  0  0  0  0
 22 21  1  0  0  0  0
 23 26  1  0  0  0  0
 24 22  2  0  0  0  0
 26 25  2  0  0  0  0
 27 23  1  0  0  0  0
 28 23  2  0  0  0  0
 28 24  1  0  0  0  0
M  END
>  <MODEL>
3

>  <REMARK>
 VINA RESULT:      -9.6      2.582      4.717
  Name = 
  2 active torsions:
  status: ('A' for Active; 'I' for Inactive)
    1  A    between atoms: N_1  and  C_2
    2  A    between atoms: C_2  and  C_3
                            x       y       z     vdW  Elec       q    Type
                         _______ _______ _______ _____ _____    ______ ____

>  <TORSDO>
F 2

$$$$
=
 OpenBabel10262420513D

 28 32  0  0  0  0  0  0  0  0999 V2000
  186.6440  178.4330  140.1430 N   0  0  0  0  0  0  0  0  0  0  0  0
  187.7470  178.0360  145.0630 C   0  0  0  0  0  3  0  0  0  0  0  0
  182.2430  179.1640  142.3890 C   0  0  0  0  0  1  0  0  0  0  0  0
  185.6150  178.3870  146.1790 C   0  0  0  0  0  0  0  0  0  0  0  0
  185.7260  178.4690  143.7550 C   0  0  0  0  0  0  0  0  0  0  0  0
  187.6110  177.9590  147.4810 C   0  0  0  0  0  0  0  0  0  0  0  0
  186.3720  178.2960  144.9880 C   0  0  0  0  0  0  0  0  0  0  0  0
  183.6360  178.8060  144.9360 C   0  0  0  0  0  3  0  0  0  0  0  0
  186.2390  178.2180  147.4170 C   0  0  0  0  0  3  0  0  0  0  0  0
  184.4560  178.7920  141.2580 C   0  0  0  0  0  0  0  0  0  0  0  0
  186.4650  178.3820  142.5240 N   0  0  0  0  0  0  0  0  0  0  0  0
  184.2810  178.6380  146.1210 N   0  0  0  0  0  0  0  0  0  0  0  0
  184.6870  178.8150  138.8740 C   0  0  0  0  0  3  0  0  0  0  0  0
  183.6760  178.8960  142.4590 N   0  0  0  0  0  0  0  0  0  0  0  0
  183.9140  178.9230  140.0820 N   0  0  0  0  0  0  0  0  0  0  0  0
  188.2720  177.7790  148.8010 C   0  0  0  0  0  1  0  0  0  0  0  0
  188.3640  177.8670  146.3070 C   0  0  0  0  0  3  0  0  0  0  0  0
  184.3400  178.7260  143.7270 C   0  0  0  0  0  0  0  0  0  0  0  0
  185.9690  178.5810  138.9170 N   0  0  0  0  0  0  0  0  0  0  0  0
  185.8980  178.5270  141.3620 C   0  0  0  0  0  0  0  0  0  0  0  0
  188.0680  178.1210  140.1420 C   0  0  0  0  0  2  0  0  0  0  0  0
  188.5240  177.7970  138.7590 C   0  0  0  0  0  0  0  0  0  0  0  0
  189.4300  177.1920  136.1830 C   0  0  0  0  0  0  0  0  0  0  0  0
  188.5970  176.4650  138.3380 C   0  0  0  0  0  3  0  0  0  0  0  0
  188.9110  178.8260  137.8930 C   0  0  0  0  0  3  0  0  0  0  0  0
  189.3630  178.5230  136.6060 C   0  0  0  0  0  3  0  0  0  0  0  0
  189.8670  176.8990  134.9350 F   0  0  0  0  0  0  0  0  0  0  0  0
  189.0490  176.1630  137.0490 C   0  0  0  0  0  3  0  0  0  0  0  0
  1 20  1  0  0  0  0
  2 17  1  0  0  0  0
  3 14  1  0  0  0  0
  4  9  2  0  0  0  0
  5  7  1  0  0  0  0
  6 16  1  0  0  0  0
  7  2  2  0  0  0  0
  7  4  1  0  0  0  0
  8 12  2  0  0  0  0
  9  6  1  0  0  0  0
 10 20  1  0  0  0  0
 10 14  1  0  0  0  0
 11  5  1  0  0  0  0
 12  4  1  0  0  0  0
 13 19  2  0  0  0  0
 13 15  1  0  0  0  0
 14 18  1  0  0  0  0
 15 10  2  0  0  0  0
 17  6  2  0  0  0  0
 18  5  2  0  0  0  0
 18  8  1  0  0  0  0
 19  1  1  0  0  0  0
 20 11  2  0  0  0  0
 21  1  1  0  0  0  0
 22 21  1  0  0  0  0
 23 26  2  0  0  0  0
 23 28  1  0  0  0  0
 24 22  1  0  0  0  0
 25 22  2  0  0  0  0
 26 25  1  0  0  0  0
 27 23  1  0  0  0  0
 28 24  2  0  0  0  0
M  END
>  <MODEL>
4

>  <REMARK>
 VINA RESULT:      -9.6      1.910      2.597
  Name = 
  2 active torsions:
  status: ('A' for Active; 'I' for Inactive)
    1  A    between atoms: N_1  and  C_2
    2  A    between atoms: C_2  and  C_3
                            x       y       z     vdW  Elec       q    Type
                         _______ _______ _______ _____ _____    ______ ____

>  <TORSDO>
F 2

$$$$
=
 OpenBabel10262420513D

 28 32  0  0  0  0  0  0  0  0999 V2000
  189.6480  177.7410  139.3800 N   0  0  0  0  0  0  0  0  0  0  0  0
  189.0500  177.3540  144.3880 C   0  0  0  0  0  3  0  0  0  0  0  0
  184.8660  179.0030  140.0860 C   0  0  0  0  0  1  0  0  0  0  0  0
  186.7240  177.9630  144.7560 C   0  0  0  0  0  0  0  0  0  0  0  0
  187.6210  177.9690  142.5000 C   0  0  0  0  0  0  0  0  0  0  0  0
  188.1320  177.3550  146.6300 C   0  0  0  0  0  0  0  0  0  0  0  0
  187.8100  177.7600  143.8740 C   0  0  0  0  0  0  0  0  0  0  0  0
  185.3130  178.5620  142.9440 C   0  0  0  0  0  3  0  0  0  0  0  0
  186.8920  177.7590  146.1280 C   0  0  0  0  0  3  0  0  0  0  0  0
  187.2700  178.3640  139.7290 C   0  0  0  0  0  0  0  0  0  0  0  0
  188.7040  177.7720  141.5730 N   0  0  0  0  0  0  0  0  0  0  0  0
  185.5170  178.3560  144.2710 N   0  0  0  0  0  0  0  0  0  0  0  0
  188.2610  178.2990  137.5490 C   0  0  0  0  0  3  0  0  0  0  0  0
  186.1610  178.5830  140.6140 N   0  0  0  0  0  0  0  0  0  0  0  0
  187.1560  178.5220  138.4430 N   0  0  0  0  0  0  0  0  0  0  0  0
  188.3070  177.1390  148.0910 C   0  0  0  0  0  1  0  0  0  0  0  0
  189.2090  177.1520  145.7620 C   0  0  0  0  0  3  0  0  0  0  0  0
  186.3560  178.3750  142.0260 C   0  0  0  0  0  0  0  0  0  0  0  0
  189.4250  177.9300  138.0030 N   0  0  0  0  0  0  0  0  0  0  0  0
  188.5620  177.9470  140.2920 C   0  0  0  0  0  0  0  0  0  0  0  0
  190.9510  177.2760  139.8370 C   0  0  0  0  0  2  0  0  0  0  0  0
  191.5910  176.4260  138.7920 C   0  0  0  0  0  0  0  0  0  0  0  0
  192.8160  174.8030  136.8720 C   0  0  0  0  0  0  0  0  0  0  0  0
  190.9360  175.2830  138.3200 C   0  0  0  0  0  3  0  0  0  0  0  0
  192.8630  176.7520  138.3080 C   0  0  0  0  0  3  0  0  0  0  0  0
  193.4740  175.9420  137.3480 C   0  0  0  0  0  3  0  0  0  0  0  0
  193.4090  174.0190  135.9400 F   0  0  0  0  0  0  0  0  0  0  0  0
  191.5490  174.4730  137.3590 C   0  0  0  0  0  3  0  0  0  0  0  0
  1 21  1  0  0  0  0
  1 20  1  0  0  0  0
  2 17  1  0  0  0  0
  3 14  1  0  0  0  0
  4  9  2  0  0  0  0
  5  7  1  0  0  0  0
  6 16  1  0  0  0  0
  7  2  2  0  0  0  0
  7  4  1  0  0  0  0
  8 12  2  0  0  0  0
  9  6  1  0  0  0  0
 10 20  1  0  0  0  0
 10 14  1  0  0  0  0
 11  5  1  0  0  0  0
 12  4  1  0  0  0  0
 13 19  2  0  0  0  0
 13 15  1  0  0  0  0
 14 18  1  0  0  0  0
 15 10  2  0  0  0  0
 17  6  2  0  0  0  0
 18  5  2  0  0  0  0
 18  8  1  0  0  0  0
 19  1  1  0  0  0  0
 20 11  2  0  0  0  0
 22 21  1  0  0  0  0
 23 26  2  0  0  0  0
 23 28  1  0  0  0  0
 24 22  1  0  0  0  0
 25 22  2  0  0  0  0
 26 25  1  0  0  0  0
 27 23  1  0  0  0  0
 28 24  2  0  0  0  0
M  END
>  <MODEL>
5

>  <REMARK>
 VINA RESULT:      -9.6      2.544      3.596
  Name = 
  2 active torsions:
  status: ('A' for Active; 'I' for Inactive)
    1  A    between atoms: N_1  and  C_2
    2  A    between atoms: C_2  and  C_3
                            x       y       z     vdW  Elec       q    Type
                         _______ _______ _______ _____ _____    ______ ____

>  <TORSDO>
F 2

$$$$
=
 OpenBabel10262420513D

 28 32  0  0  0  0  0  0  0  0999 V2000
  185.5640  178.9320  141.8420 N   0  0  0  0  0  0  0  0  0  0  0  0
  188.9480  177.5380  145.3330 C   0  0  0  0  0  3  0  0  0  0  0  0
  189.5320  177.5560  139.1380 C   0  0  0  0  0  1  0  0  0  0  0  0
  190.8930  176.8640  144.0380 C   0  0  0  0  0  0  0  0  0  0  0  0
  188.9010  177.6420  142.8900 C   0  0  0  0  0  0  0  0  0  0  0  0
  190.9490  176.7580  146.4560 C   0  0  0  0  0  0  0  0  0  0  0  0
  189.5680  177.3520  144.0890 C   0  0  0  0  0  0  0  0  0  0  0  0
  190.8780  176.9580  141.6650 C   0  0  0  0  0  3  0  0  0  0  0  0
  191.5750  176.5700  145.2210 C   0  0  0  0  0  3  0  0  0  0  0  0
  187.5370  178.2530  140.4970 C   0  0  0  0  0  0  0  0  0  0  0  0
  187.5520  178.1410  142.9040 N   0  0  0  0  0  0  0  0  0  0  0  0
  191.5060  176.6810  142.8380 N   0  0  0  0  0  0  0  0  0  0  0  0
  185.5270  179.0690  139.4830 C   0  0  0  0  0  3  0  0  0  0  0  0
  188.8800  177.7480  140.4290 N   0  0  0  0  0  0  0  0  0  0  0  0
  186.8700  178.5590  139.4230 N   0  0  0  0  0  0  0  0  0  0  0  0
  191.6770  176.4430  147.7130 C   0  0  0  0  0  1  0  0  0  0  0  0
  189.6380  177.2410  146.5120 C   0  0  0  0  0  3  0  0  0  0  0  0
  189.5640  177.4440  141.6600 C   0  0  0  0  0  0  0  0  0  0  0  0
  184.9270  179.2420  140.6260 N   0  0  0  0  0  0  0  0  0  0  0  0
  186.9060  178.4300  141.8120 C   0  0  0  0  0  0  0  0  0  0  0  0
  184.8740  179.1910  143.0990 C   0  0  0  0  0  2  0  0  0  0  0  0
  183.4180  178.9020  142.9560 C   0  0  0  0  0  0  0  0  0  0  0  0
  180.6770  178.4140  142.6840 C   0  0  0  0  0  0  0  0  0  0  0  0
  182.8780  178.6200  141.6960 C   0  0  0  0  0  3  0  0  0  0  0  0
  182.5830  178.9480  144.0790 C   0  0  0  0  0  3  0  0  0  0  0  0
  181.2140  178.7030  143.9420 C   0  0  0  0  0  3  0  0  0  0  0  0
  179.3500  178.1760  142.5520 F   0  0  0  0  0  0  0  0  0  0  0  0
  181.5080  178.3740  141.5610 C   0  0  0  0  0  3  0  0  0  0  0  0
  1 21  1  0  0  0  0
  2 17  1  0  0  0  0
  3 14  1  0  0  0  0
  4  7  1  0  0  0  0
  4  9  2  0  0  0  0
  5 11  1  0  0  0  0
  5  7  1  0  0  0  0
  6 17  2  0  0  0  0
  6 16  1  0  0  0  0
  7  2  2  0  0  0  0
  8 12  2  0  0  0  0
  9  6  1  0  0  0  0
 10 20  1  0  0  0  0
 12  4  1  0  0  0  0
 13 19  2  0  0  0  0
 14 10  1  0  0  0  0
 14 18  1  0  0  0  0
 15 13  1  0  0  0  0
 15 10  2  0  0  0  0
 18  8  1  0  0  0  0
 18  5  2  0  0  0  0
 19  1  1  0  0  0  0
 20  1  1  0  0  0  0
 20 11  2  0  0  0  0
 22 21  1  0  0  0  0
 22 25  1  0  0  0  0
 23 26  1  0  0  0  0
 24 22  2  0  0  0  0
 26 25  2  0  0  0  0
 27 23  1  0  0  0  0
 28 24  1  0  0  0  0
 28 23  2  0  0  0  0
M  END
>  <MODEL>
6

>  <REMARK>
 VINA RESULT:      -9.2      2.976      5.579
  Name = 
  2 active torsions:
  status: ('A' for Active; 'I' for Inactive)
    1  A    between atoms: N_1  and  C_2
    2  A    between atoms: C_2  and  C_3
                            x       y       z     vdW  Elec       q    Type
                         _______ _______ _______ _____ _____    ______ ____

>  <TORSDO>
F 2

$$$$
=
 OpenBabel10262420513D

 28 32  0  0  0  0  0  0  0  0999 V2000
  189.8770  177.7690  140.1150 N   0  0  0  0  0  0  0  0  0  0  0  0
  185.3340  178.4570  142.2310 C   0  0  0  0  0  3  0  0  0  0  0  0
  190.7400  177.0770  144.9870 C   0  0  0  0  0  1  0  0  0  0  0  0
  185.7310  178.1260  144.6070 C   0  0  0  0  0  0  0  0  0  0  0  0
  187.5760  177.9140  143.0450 C   0  0  0  0  0  0  0  0  0  0  0  0
  183.5080  178.6640  143.8100 C   0  0  0  0  0  0  0  0  0  0  0  0
  186.2170  178.1660  143.2810 C   0  0  0  0  0  0  0  0  0  0  0  0
  187.8960  177.6020  145.4270 C   0  0  0  0  0  3  0  0  0  0  0  0
  184.3800  178.3750  144.8640 C   0  0  0  0  0  3  0  0  0  0  0  0
  190.3080  177.4290  142.5370 C   0  0  0  0  0  0  0  0  0  0  0  0
  188.1050  177.9470  141.7070 N   0  0  0  0  0  0  0  0  0  0  0  0
  186.5760  177.8470  145.6350 N   0  0  0  0  0  0  0  0  0  0  0  0
  192.0520  177.2810  140.9010 C   0  0  0  0  0  3  0  0  0  0  0  0
  189.8270  177.3760  143.8890 N   0  0  0  0  0  0  0  0  0  0  0  0
  191.5610  177.2240  142.2520 N   0  0  0  0  0  0  0  0  0  0  0  0
  182.0720  178.9280  144.0870 C   0  0  0  0  0  1  0  0  0  0  0  0
  183.9840  178.7050  142.4970 C   0  0  0  0  0  3  0  0  0  0  0  0
  188.4290  177.6290  144.1310 C   0  0  0  0  0  0  0  0  0  0  0  0
  191.2500  177.5410  139.9070 N   0  0  0  0  0  0  0  0  0  0  0  0
  189.3620  177.7270  141.4520 C   0  0  0  0  0  0  0  0  0  0  0  0
  189.0280  178.1080  138.9810 C   0  0  0  0  0  2  0  0  0  0  0  0
  189.2990  177.1860  137.8400 C   0  0  0  0  0  0  0  0  0  0  0  0
  189.7540  175.4520  135.6940 C   0  0  0  0  0  0  0  0  0  0  0  0
  189.5360  177.7020  136.5610 C   0  0  0  0  0  3  0  0  0  0  0  0
  189.2820  175.8010  138.0430 C   0  0  0  0  0  3  0  0  0  0  0  0
  189.5100  174.9350  136.9700 C   0  0  0  0  0  3  0  0  0  0  0  0
  189.9760  174.6120  134.6540 F   0  0  0  0  0  0  0  0  0  0  0  0
  189.7650  176.8340  135.4890 C   0  0  0  0  0  3  0  0  0  0  0  0
  1 20  1  0  0  0  0
  2 17  2  0  0  0  0
  2  7  1  0  0  0  0
  4  9  1  0  0  0  0
  4 12  1  0  0  0  0
  5  7  1  0  0  0  0
  5 18  2  0  0  0  0
  6 16  1  0  0  0  0
  6  9  2  0  0  0  0
  7  4  2  0  0  0  0
  8 12  2  0  0  0  0
 10 14  1  0  0  0  0
 11  5  1  0  0  0  0
 13 15  1  0  0  0  0
 14 18  1  0  0  0  0
 14  3  1  0  0  0  0
 15 10  2  0  0  0  0
 17  6  1  0  0  0  0
 18  8  1  0  0  0  0
 19  1  1  0  0  0  0
 19 13  2  0  0  0  0
 20 11  2  0  0  0  0
 20 10  1  0  0  0  0
 21  1  1  0  0  0  0
 22 25  1  0  0  0  0
 22 21  1  0  0  0  0
 23 26  1  0  0  0  0
 24 22  2  0  0  0  0
 26 25  2  0  0  0  0
 27 23  1  0  0  0  0
 28 23  2  0  0  0  0
 28 24  1  0  0  0  0
M  END
>  <MODEL>
7

>  <REMARK>
 VINA RESULT:      -9.0      1.886      4.823
  Name = 
  2 active torsions:
  status: ('A' for Active; 'I' for Inactive)
    1  A    between atoms: N_1  and  C_2
    2  A    between atoms: C_2  and  C_3
                            x       y       z     vdW  Elec       q    Type
                         _______ _______ _______ _____ _____    ______ ____

>  <TORSDO>
F 2

$$$$
=
 OpenBabel10262420513D

 28 32  0  0  0  0  0  0  0  0999 V2000
  188.7320  178.1920  139.3180 N   0  0  0  0  0  0  0  0  0  0  0  0
  190.5850  177.1620  143.9110 C   0  0  0  0  0  3  0  0  0  0  0  0
  184.7280  178.4970  142.2880 C   0  0  0  0  0  1  0  0  0  0  0  0
  188.6500  177.3030  145.3760 C   0  0  0  0  0  0  0  0  0  0  0  0
  188.3840  177.7150  142.9990 C   0  0  0  0  0  0  0  0  0  0  0  0
  190.8250  176.7550  146.2870 C   0  0  0  0  0  0  0  0  0  0  0  0
  189.2130  177.3940  144.0830 C   0  0  0  0  0  0  0  0  0  0  0  0
  186.5000  177.8340  144.5200 C   0  0  0  0  0  3  0  0  0  0  0  0
  189.4580  176.9840  146.4700 C   0  0  0  0  0  3  0  0  0  0  0  0
  186.7410  178.3390  140.7930 C   0  0  0  0  0  0  0  0  0  0  0  0
  188.9240  177.8150  141.6690 N   0  0  0  0  0  0  0  0  0  0  0  0
  187.3210  177.5240  145.5570 N   0  0  0  0  0  0  0  0  0  0  0  0
  186.6010  178.6900  138.4270 C   0  0  0  0  0  3  0  0  0  0  0  0
  186.1560  178.2590  142.1020 N   0  0  0  0  0  0  0  0  0  0  0  0
  186.0230  178.6140  139.7430 N   0  0  0  0  0  0  0  0  0  0  0  0
  191.6830  176.4160  147.4530 C   0  0  0  0  0  1  0  0  0  0  0  0
  191.3870  176.8440  145.0110 C   0  0  0  0  0  3  0  0  0  0  0  0
  187.0080  177.9370  143.2170 C   0  0  0  0  0  0  0  0  0  0  0  0
  187.8740  178.4870  138.2420 N   0  0  0  0  0  0  0  0  0  0  0  0
  188.1830  178.1010  140.6380 C   0  0  0  0  0  0  0  0  0  0  0  0
  190.1400  177.9210  139.0570 C   0  0  0  0  0  2  0  0  0  0  0  0
  190.2920  176.6100  138.3620 C   0  0  0  0  0  0  0  0  0  0  0  0
  190.5820  174.1780  137.0110 C   0  0  0  0  0  0  0  0  0  0  0  0
  191.5510  176.0060  138.2710 C   0  0  0  0  0  3  0  0  0  0  0  0
  189.1800  176.0000  137.7700 C   0  0  0  0  0  3  0  0  0  0  0  0
  189.3260  174.7850  137.0960 C   0  0  0  0  0  3  0  0  0  0  0  0
  190.7230  172.9990  136.3580 F   0  0  0  0  0  0  0  0  0  0  0  0
  191.6950  174.7890  137.5970 C   0  0  0  0  0  3  0  0  0  0  0  0
  1 20  1  0  0  0  0
  2  7  2  0  0  0  0
  2 17  1  0  0  0  0
  4 12  1  0  0  0  0
  4  9  2  0  0  0  0
  5 18  2  0  0  0  0
  5  7  1  0  0  0  0
  6  9  1  0  0  0  0
  6 16  1  0  0  0  0
  7  4  1  0  0  0  0
  8 12  2  0  0  0  0
 10 14  1  0  0  0  0
 11  5  1  0  0  0  0
 13 15  1  0  0  0  0
 14  3  1  0  0  0  0
 14 18  1  0  0  0  0
 15 10  2  0  0  0  0
 17  6  2  0  0  0  0
 18  8  1  0  0  0  0
 19 13  2  0  0  0  0
 19  1  1  0  0  0  0
 20 10  1  0  0  0  0
 20 11  2  0  0  0  0
 21  1  1  0  0  0  0
 22 21  1  0  0  0  0
 23 26  2  0  0  0  0
 23 28  1  0  0  0  0
 24 22  1  0  0  0  0
 25 22  2  0  0  0  0
 26 25  1  0  0  0  0
 27 23  1  0  0  0  0
 28 24  2  0  0  0  0
M  END
>  <MODEL>
8

>  <REMARK>
 VINA RESULT:      -8.9      1.969      2.382
  Name = 
  2 active torsions:
  status: ('A' for Active; 'I' for Inactive)
    1  A    between atoms: N_1  and  C_2
    2  A    between atoms: C_2  and  C_3
                            x       y       z     vdW  Elec       q    Type
                         _______ _______ _______ _____ _____    ______ ____

>  <TORSDO>
F 2

$$$$
=
 OpenBabel10262420513D

 28 32  0  0  0  0  0  0  0  0999 V2000
  189.5880  177.8730  139.2420 N   0  0  0  0  0  0  0  0  0  0  0  0
  185.4350  178.5790  142.0420 C   0  0  0  0  0  3  0  0  0  0  0  0
  191.0360  176.5440  143.8340 C   0  0  0  0  0  1  0  0  0  0  0  0
  186.1180  177.9390  144.2870 C   0  0  0  0  0  0  0  0  0  0  0  0
  187.7170  177.8040  142.4650 C   0  0  0  0  0  0  0  0  0  0  0  0
  183.8580  178.7060  143.8770 C   0  0  0  0  0  0  0  0  0  0  0  0
  186.4250  178.1090  142.9180 C   0  0  0  0  0  0  0  0  0  0  0  0
  188.3260  177.1870  144.7280 C   0  0  0  0  0  3  0  0  0  0  0  0
  184.8380  178.2380  144.7580 C   0  0  0  0  0  3  0  0  0  0  0  0
  190.3100  177.2170  141.5240 C   0  0  0  0  0  0  0  0  0  0  0  0
  188.0640  177.9660  141.0780 N   0  0  0  0  0  0  0  0  0  0  0  0
  187.0680  177.4860  145.1470 N   0  0  0  0  0  0  0  0  0  0  0  0
  191.8030  177.1590  139.6520 C   0  0  0  0  0  3  0  0  0  0  0  0
  190.0110  177.0300  142.9170 N   0  0  0  0  0  0  0  0  0  0  0  0
  191.4940  176.9700  141.0440 N   0  0  0  0  0  0  0  0  0  0  0  0
  182.4960  179.0230  144.3820 C   0  0  0  0  0  1  0  0  0  0  0  0
  184.1560  178.8760  142.5220 C   0  0  0  0  0  3  0  0  0  0  0  0
  188.6820  177.3370  143.3810 C   0  0  0  0  0  0  0  0  0  0  0  0
  190.8990  177.5860  138.8170 N   0  0  0  0  0  0  0  0  0  0  0  0
  189.2540  177.7010  140.6240 C   0  0  0  0  0  0  0  0  0  0  0  0
  188.6240  178.3980  138.2830 C   0  0  0  0  0  2  0  0  0  0  0  0
  187.7600  177.2990  137.7650 C   0  0  0  0  0  0  0  0  0  0  0  0
  186.1350  175.2170  136.8440 C   0  0  0  0  0  0  0  0  0  0  0  0
  186.3850  177.5020  137.6060 C   0  0  0  0  0  3  0  0  0  0  0  0
  188.3200  176.0500  137.4710 C   0  0  0  0  0  3  0  0  0  0  0  0
  187.5070  175.0110  137.0100 C   0  0  0  0  0  3  0  0  0  0  0  0
  185.3470  174.2090  136.3960 F   0  0  0  0  0  0  0  0  0  0  0  0
  185.5730  176.4620  137.1430 C   0  0  0  0  0  3  0  0  0  0  0  0
  1 20  1  0  0  0  0
  2 17  2  0  0  0  0
  2  7  1  0  0  0  0
  4  9  1  0  0  0  0
  4 12  1  0  0  0  0
  5  7  1  0  0  0  0
  5 18  2  0  0  0  0
  6 16  1  0  0  0  0
  6  9  2  0  0  0  0
  7  4  2  0  0  0  0
  8 12  2  0  0  0  0
 10 14  1  0  0  0  0
 11  5  1  0  0  0  0
 13 15  1  0  0  0  0
 14 18  1  0  0  0  0
 14  3  1  0  0  0  0
 15 10  2  0  0  0  0
 17  6  1  0  0  0  0
 18  8  1  0  0  0  0
 19  1  1  0  0  0  0
 19 13  2  0  0  0  0
 20 11  2  0  0  0  0
 20 10  1  0  0  0  0
 21  1  1  0  0  0  0
 22 21  1  0  0  0  0
 23 26  2  0  0  0  0
 23 28  1  0  0  0  0
 24 22  1  0  0  0  0
 25 22  2  0  0  0  0
 26 25  1  0  0  0  0
 27 23  1  0  0  0  0
 28 24  2  0  0  0  0
M  END
>  <MODEL>
9

>  <REMARK>
 VINA RESULT:      -8.9      2.037      4.901
  Name = 
  2 active torsions:
  status: ('A' for Active; 'I' for Inactive)
    1  A    between atoms: N_1  and  C_2
    2  A    between atoms: C_2  and  C_3
                            x       y       z     vdW  Elec       q    Type
                         _______ _______ _______ _____ _____    ______ ____

>  <TORSDO>
F 2

$$$$
