=
 OpenBabel10262423033D

 37 45  0  0  1  0  0  0  0  0999 V2000
  185.4200  178.9300  145.5740 C   0  0  2  0  0  0  0  0  0  0  0  0
  191.5740  177.1270  147.2070 O   0  0  0  0  0  0  0  0  0  0  0  0
  189.6840  177.1750  143.1800 C   0  0  2  0  0  0  0  0  0  0  0  0
  186.9240  178.4000  140.8740 C   0  0  0  0  0  3  0  0  0  0  0  0
  190.1580  177.6860  145.3650 C   0  0  2  0  0  3  0  0  0  0  0  0
  188.4840  177.9090  142.6760 C   0  0  1  0  0  3  0  0  0  0  0  0
  185.8090  179.9550  146.4370 O   0  0  0  0  0  1  0  0  0  0  0  0
  189.4220  176.6550  144.5680 C   0  0  1  0  0  3  0  0  0  0  0  0
  188.1870  177.6390  141.2310 C   0  0  2  0  0  3  0  0  0  0  0  0
  191.3090  177.9870  144.6400 O   0  0  0  0  0  0  0  0  0  0  0  0
  187.8880  176.7550  144.7680 C   0  0  1  0  0  3  0  0  0  0  0  0
  187.9840  176.7260  147.2580 C   0  0  0  0  0  2  0  0  0  0  0  0
  192.0190  177.9700  142.4570 C   0  0  0  0  0  2  0  0  0  0  0  0
  185.9530  177.6040  146.1370 C   0  0  0  0  0  2  0  0  0  0  0  0
  190.8240  178.1710  143.3280 C   0  0  2  0  0  0  0  0  0  0  0  0
  187.4700  177.5080  146.0480 C   0  0  2  0  0  3  0  0  0  0  0  0
  185.9310  178.5570  141.7870 C   0  0  0  0  0  3  0  0  0  0  0  0
  190.9490  176.9230  142.3690 C   0  0  2  0  0  0  0  0  0  0  0  0
  187.3500  177.2900  143.4330 C   0  0  1  0  0  3  0  0  0  0  0  0
  190.3970  177.2560  146.7750 C   0  0  0  0  0  0  0  0  0  0  0  0
  189.4390  177.9640  140.4250 C   0  0  1  0  0  3  0  0  0  0  0  0
  189.3170  177.0830  147.6530 O   0  0  0  0  0  0  0  0  0  0  0  0
  186.0380  178.0680  143.2350 C   0  0  1  0  0  3  0  0  0  0  0  0
  185.9670  179.2670  144.1760 C   0  0  0  0  0  2  0  0  0  0  0  0
  190.5730  177.0030  140.8620 C   0  0  0  0  0  2  0  0  0  0  0  0
  189.1100  178.9730  138.1270 C   0  0  0  0  0  3  0  0  0  0  0  0
  189.1930  177.8380  138.9500 C   0  0  0  0  0  0  0  0  0  0  0  0
  189.0860  176.5630  138.3820 C   0  0  0  0  0  3  0  0  0  0  0  0
  188.7800  175.1850  136.4600 F   0  0  0  0  0  0  0  0  0  0  0  0
  188.7910  177.5540  136.1920 C   0  0  0  0  0  3  0  0  0  0  0  0
  188.8830  176.4210  137.0060 C   0  0  0  0  0  0  0  0  0  0  0  0
  188.9040  178.8300  136.7520 C   0  0  0  0  0  3  0  0  0  0  0  0
  183.8890  178.9080  145.5550 C   0  0  0  0  0  2  0  0  0  0  0  0
  183.2850  179.5870  144.3340 C   0  0  0  0  0  2  0  0  0  0  0  0
  182.1240  178.7650  143.8200 C   0  0  0  0  0  2  0  0  0  0  0  0
  182.1640  178.7210  142.3580 C   0  0  0  0  0  0  0  0  0  0  0  0
  182.2020  178.6840  141.1530 C   0  0  0  0  0  3  0  0  0  0  0  0
  1 14  1  0  0  0  0
  1  7  1  1  0  0  0
  3 15  1  0  0  0  0
  3  8  1  0  0  0  0
  4  9  1  0  0  0  0
  4 17  2  0  0  0  0
  5 20  1  0  0  0  0
  6  3  1  0  0  0  0
  6 19  1  0  0  0  0
  8 11  1  0  0  0  0
  8  5  1  0  0  0  0
  9  6  1  0  0  0  0
 10  5  1  0  0  0  0
 11 16  1  0  0  0  0
 12 22  1  0  0  0  0
 13 15  1  0  0  0  0
 15 10  1  0  0  0  0
 16 14  1  0  0  0  0
 16 12  1  0  0  0  0
 17 23  1  0  0  0  0
 18 13  1  0  0  0  0
 18  3  1  0  0  0  0
 18 15  1  0  0  0  0
 19 11  1  0  0  0  0
 20  2  2  0  0  0  0
 20 22  1  0  0  0  0
 21 25  1  0  0  0  0
 21  9  1  0  0  0  0
 23 19  1  0  0  0  0
 23 24  1  0  0  0  0
 24  1  1  0  0  0  0
 25 18  1  0  0  0  0
 26 27  1  0  0  0  0
 27 21  1  0  0  0  0
 28 27  2  0  0  0  0
 29 31  1  0  0  0  0
 30 32  1  0  0  0  0
 30 31  2  0  0  0  0
 31 28  1  0  0  0  0
 32 26  2  0  0  0  0
 33  1  1  0  0  0  0
 34 33  1  0  0  0  0
 35 34  1  0  0  0  0
 36 35  1  0  0  0  0
 37 36  3  0  0  0  0
M  END
>  <MODEL>
1

>  <REMARK>
 VINA RESULT:     -10.6      0.000      0.000
  Name = 
  5 active torsions:
  status: ('A' for Active; 'I' for Inactive)
    1  A    between atoms: C_1  and  C_5
    2  A    between atoms: C_5  and  C_17
    3  A    between atoms: C_6  and  C_31
    4  A    between atoms: C_11  and  C_26
    5  A    between atoms: C_17  and  C_26
                            x       y       z     vdW  Elec       q    Type
                         _______ _______ _______ _____ _____    ______ ____

>  <TORSDO>
F 5

$$$$
=
 OpenBabel10262423033D

 37 45  0  0  1  0  0  0  0  0999 V2000
  184.5350  179.5280  144.0980 C   0  0  2  0  0  0  0  0  0  0  0  0
  189.6770  177.7180  147.8490 O   0  0  0  0  0  0  0  0  0  0  0  0
  189.1590  177.2490  143.4560 C   0  0  2  0  0  0  0  0  0  0  0  0
  187.3830  178.2380  140.2450 C   0  0  0  0  0  3  0  0  0  0  0  0
  188.9670  178.0590  145.5930 C   0  0  2  0  0  3  0  0  0  0  0  0
  188.2480  177.9520  142.5020 C   0  0  1  0  0  3  0  0  0  0  0  0
  184.7230  180.6520  144.9030 O   0  0  0  0  0  1  0  0  0  0  0  0
  188.4290  176.9540  144.7390 C   0  0  1  0  0  3  0  0  0  0  0  0
  188.3970  177.4830  141.0850 C   0  0  2  0  0  3  0  0  0  0  0  0
  190.3100  178.1970  145.2470 O   0  0  0  0  0  0  0  0  0  0  0  0
  186.9250  177.1500  144.4170 C   0  0  1  0  0  3  0  0  0  0  0  0
  186.2320  177.4890  146.7870 C   0  0  0  0  0  2  0  0  0  0  0  0
  191.6650  177.8240  143.4310 C   0  0  0  0  0  2  0  0  0  0  0  0
  184.7430  178.2780  144.9680 C   0  0  0  0  0  2  0  0  0  0  0  0
  190.2790  178.2050  143.8360 C   0  0  2  0  0  0  0  0  0  0  0  0
  186.1960  178.1030  145.3870 C   0  0  2  0  0  3  0  0  0  0  0  0
  186.1730  178.5720  140.7600 C   0  0  0  0  0  3  0  0  0  0  0  0
  190.5860  176.8230  143.1360 C   0  0  2  0  0  0  0  0  0  0  0  0
  186.8840  177.5040  142.9230 C   0  0  1  0  0  3  0  0  0  0  0  0
  188.7120  177.8340  147.0470 C   0  0  0  0  0  0  0  0  0  0  0  0
  189.8630  177.6290  140.6920 C   0  0  1  0  0  3  0  0  0  0  0  0
  187.4000  177.8400  147.5430 O   0  0  0  0  0  0  0  0  0  0  0  0
  185.7760  178.3000  142.2140 C   0  0  1  0  0  3  0  0  0  0  0  0
  185.5210  179.6280  142.9220 C   0  0  0  0  0  2  0  0  0  0  0  0
  190.7120  176.6950  141.5910 C   0  0  0  0  0  2  0  0  0  0  0  0
  190.8470  176.1830  138.8640 C   0  0  0  0  0  3  0  0  0  0  0  0
  190.0820  177.2960  139.2460 C   0  0  0  0  0  0  0  0  0  0  0  0
  189.4760  178.0890  138.2630 C   0  0  0  0  0  3  0  0  0  0  0  0
  189.0560  178.5500  135.9620 F   0  0  0  0  0  0  0  0  0  0  0  0
  190.4150  176.6770  136.5340 C   0  0  0  0  0  3  0  0  0  0  0  0
  189.6440  177.7810  136.9100 C   0  0  0  0  0  0  0  0  0  0  0  0
  191.0170  175.8780  137.5110 C   0  0  0  0  0  3  0  0  0  0  0  0
  183.0910  179.5710  143.5880 C   0  0  0  0  0  2  0  0  0  0  0  0
  182.1740  178.5670  144.2730 C   0  0  0  0  0  2  0  0  0  0  0  0
  180.7640  178.7310  143.7500 C   0  0  0  0  0  2  0  0  0  0  0  0
  180.7610  178.5840  142.2950 C   0  0  0  0  0  0  0  0  0  0  0  0
  180.7630  178.4650  141.0950 C   0  0  0  0  0  3  0  0  0  0  0  0
  1  7  1  1  0  0  0
  1 14  1  0  0  0  0
  3 15  1  0  0  0  0
  3  8  1  0  0  0  0
  4 17  2  0  0  0  0
  4  9  1  0  0  0  0
  5 20  1  0  0  0  0
  6 19  1  0  0  0  0
  6  3  1  0  0  0  0
  8  5  1  0  0  0  0
  9  6  1  0  0  0  0
 10  5  1  0  0  0  0
 11  8  1  0  0  0  0
 11 16  1  0  0  0  0
 12 22  1  0  0  0  0
 13 15  1  0  0  0  0
 14 16  1  0  0  0  0
 15 10  1  0  0  0  0
 16 12  1  0  0  0  0
 17 23  1  0  0  0  0
 18 13  1  0  0  0  0
 18  3  1  0  0  0  0
 18 15  1  0  0  0  0
 19 11  1  0  0  0  0
 20 22  1  0  0  0  0
 20  2  2  0  0  0  0
 21  9  1  0  0  0  0
 21 25  1  0  0  0  0
 23 24  1  0  0  0  0
 23 19  1  0  0  0  0
 24  1  1  0  0  0  0
 25 18  1  0  0  0  0
 26 27  1  0  0  0  0
 27 21  1  0  0  0  0
 28 27  2  0  0  0  0
 29 31  1  0  0  0  0
 30 31  2  0  0  0  0
 30 32  1  0  0  0  0
 31 28  1  0  0  0  0
 32 26  2  0  0  0  0
 33  1  1  0  0  0  0
 33 34  1  0  0  0  0
 35 34  1  0  0  0  0
 36 35  1  0  0  0  0
 37 36  3  0  0  0  0
M  END
>  <MODEL>
2

>  <REMARK>
 VINA RESULT:      -9.2      1.270      1.668
  Name = 
  5 active torsions:
  status: ('A' for Active; 'I' for Inactive)
    1  A    between atoms: C_1  and  C_5
    2  A    between atoms: C_5  and  C_17
    3  A    between atoms: C_6  and  C_31
    4  A    between atoms: C_11  and  C_26
    5  A    between atoms: C_17  and  C_26
                            x       y       z     vdW  Elec       q    Type
                         _______ _______ _______ _____ _____    ______ ____

>  <TORSDO>
F 5

$$$$
=
 OpenBabel10262423033D

 37 45  0  0  1  0  0  0  0  0999 V2000
  183.7770  177.9800  139.4820 C   0  0  2  0  0  0  0  0  0  0  0  0
  189.9910  176.8180  137.5250 O   0  0  0  0  0  0  0  0  0  0  0  0
  188.5250  177.8740  141.5900 C   0  0  2  0  0  0  0  0  0  0  0  0
  185.6580  178.1310  144.0720 C   0  0  0  0  0  3  0  0  0  0  0  0
  188.5930  177.0580  139.4480 C   0  0  2  0  0  3  0  0  0  0  0  0
  187.1600  177.7710  142.1900 C   0  0  1  0  0  3  0  0  0  0  0  0
  183.6320  176.8300  138.7050 O   0  0  0  0  0  1  0  0  0  0  0  0
  188.4230  178.3590  140.1680 C   0  0  1  0  0  3  0  0  0  0  0  0
  187.1010  178.2430  143.6130 C   0  0  2  0  0  3  0  0  0  0  0  0
  189.5460  176.3390  140.1660 O   0  0  0  0  0  0  0  0  0  0  0  0
  186.9860  178.9200  140.0200 C   0  0  1  0  0  3  0  0  0  0  0  0
  186.9260  178.7310  137.5360 C   0  0  0  0  0  2  0  0  0  0  0  0
  190.3320  176.1980  142.3180 C   0  0  0  0  0  2  0  0  0  0  0  0
  184.7910  178.9020  138.7870 C   0  0  0  0  0  2  0  0  0  0  0  0
  189.1130  176.4750  141.5010 C   0  0  2  0  0  0  0  0  0  0  0  0
  186.2050  178.3360  138.8250 C   0  0  2  0  0  3  0  0  0  0  0  0
  184.6390  178.3580  143.2040 C   0  0  0  0  0  3  0  0  0  0  0  0
  189.8230  177.6090  142.3400 C   0  0  2  0  0  0  0  0  0  0  0  0
  186.3570  178.7650  141.4120 C   0  0  1  0  0  3  0  0  0  0  0  0
  188.9030  177.2420  137.9990 C   0  0  0  0  0  0  0  0  0  0  0  0
  188.1400  177.4640  144.4110 C   0  0  1  0  0  3  0  0  0  0  0  0
  187.9490  177.8050  137.1390 O   0  0  0  0  0  0  0  0  0  0  0  0
  184.8530  178.6490  141.7160 C   0  0  1  0  0  3  0  0  0  0  0  0
  184.2140  177.5370  140.8890 C   0  0  0  0  0  2  0  0  0  0  0  0
  189.5460  177.8050  143.8580 C   0  0  0  0  0  2  0  0  0  0  0  0
  186.8400  178.0780  146.4940 C   0  0  0  0  0  3  0  0  0  0  0  0
  188.0660  177.7860  145.8740 C   0  0  0  0  0  0  0  0  0  0  0  0
  189.2380  177.7540  146.6410 C   0  0  0  0  0  3  0  0  0  0  0  0
  190.3240  177.9920  148.7500 F   0  0  0  0  0  0  0  0  0  0  0  0
  187.9670  178.3240  148.6220 C   0  0  0  0  0  3  0  0  0  0  0  0
  189.1890  178.0250  148.0120 C   0  0  0  0  0  0  0  0  0  0  0  0
  186.7930  178.3510  147.8640 C   0  0  0  0  0  3  0  0  0  0  0  0
  182.4090  178.6650  139.5400 C   0  0  0  0  0  2  0  0  0  0  0  0
  181.4720  178.0670  140.5800 C   0  0  0  0  0  2  0  0  0  0  0  0
  180.8260  179.1770  141.3790 C   0  0  0  0  0  2  0  0  0  0  0  0
  180.9210  178.8720  142.8060 C   0  0  0  0  0  0  0  0  0  0  0  0
  181.0030  178.6240  143.9830 C   0  0  0  0  0  3  0  0  0  0  0  0
  1  7  1  6  0  0  0
  1 33  1  0  0  0  0
  1 24  1  0  0  0  0
  2 20  2  0  0  0  0
  3  6  1  0  0  0  0
  3 18  1  0  0  0  0
  5 10  1  0  0  0  0
  5  8  1  0  0  0  0
  6  9  1  0  0  0  0
  8  3  1  0  0  0  0
  9  4  1  0  0  0  0
  9 21  1  0  0  0  0
 10 15  1  0  0  0  0
 11  8  1  0  0  0  0
 11 19  1  0  0  0  0
 12 16  1  0  0  0  0
 13 18  1  0  0  0  0
 14 16  1  0  0  0  0
 14  1  1  0  0  0  0
 15  3  1  0  0  0  0
 15 13  1  0  0  0  0
 15 18  1  0  0  0  0
 16 11  1  0  0  0  0
 17  4  2  0  0  0  0
 18 25  1  0  0  0  0
 19 23  1  0  0  0  0
 19  6  1  0  0  0  0
 20  5  1  0  0  0  0
 21 27  1  0  0  0  0
 22 12  1  0  0  0  0
 22 20  1  0  0  0  0
 23 17  1  0  0  0  0
 24 23  1  0  0  0  0
 25 21  1  0  0  0  0
 26 32  1  0  0  0  0
 27 26  2  0  0  0  0
 27 28  1  0  0  0  0
 28 31  2  0  0  0  0
 31 30  1  0  0  0  0
 31 29  1  0  0  0  0
 32 30  2  0  0  0  0
 33 34  1  0  0  0  0
 34 35  1  0  0  0  0
 35 36  1  0  0  0  0
 36 37  3  0  0  0  0
M  END
>  <MODEL>
3

>  <REMARK>
 VINA RESULT:      -8.7      3.501      6.725
  Name = 
  5 active torsions:
  status: ('A' for Active; 'I' for Inactive)
    1  A    between atoms: C_1  and  C_5
    2  A    between atoms: C_5  and  C_17
    3  A    between atoms: C_6  and  C_31
    4  A    between atoms: C_11  and  C_26
    5  A    between atoms: C_17  and  C_26
                            x       y       z     vdW  Elec       q    Type
                         _______ _______ _______ _____ _____    ______ ____

>  <TORSDO>
F 5

$$$$
=
 OpenBabel10262423033D

 37 45  0  0  1  0  0  0  0  0999 V2000
  189.1630  177.5160  141.8070 C   0  0  2  0  0  0  0  0  0  0  0  0
  185.5360  176.3580  136.3950 O   0  0  0  0  0  0  0  0  0  0  0  0
  189.9630  176.6060  136.7540 C   0  0  2  0  0  0  0  0  0  0  0  0
  193.0800  176.5240  138.9260 C   0  0  0  0  0  3  0  0  0  0  0  0
  187.7550  176.2740  137.2770 C   0  0  2  0  0  3  0  0  0  0  0  0
  190.8520  176.4740  137.9490 C   0  0  1  0  0  3  0  0  0  0  0  0
  188.2380  176.5780  142.2660 O   0  0  0  0  0  1  0  0  0  0  0  0
  188.7330  177.3960  137.1160 C   0  0  1  0  0  3  0  0  0  0  0  0
  192.3080  176.6270  137.6240 C   0  0  2  0  0  3  0  0  0  0  0  0
  188.0590  175.3480  136.2820 O   0  0  0  0  0  0  0  0  0  0  0  0
  189.0590  178.0790  138.4680 C   0  0  1  0  0  3  0  0  0  0  0  0
  186.6790  178.4410  139.1150 C   0  0  0  0  0  2  0  0  0  0  0  0
  189.8790  174.6830  135.0500 C   0  0  0  0  0  2  0  0  0  0  0  0
  188.4300  178.4910  140.8710 C   0  0  0  0  0  2  0  0  0  0  0  0
  189.4610  175.2210  136.3790 C   0  0  2  0  0  0  0  0  0  0  0  0
  188.0060  177.8280  139.5670 C   0  0  2  0  0  3  0  0  0  0  0  0
  192.5540  177.0080  140.0800 C   0  0  0  0  0  3  0  0  0  0  0  0
  190.3000  176.0890  135.3620 C   0  0  2  0  0  0  0  0  0  0  0  0
  190.5060  177.6700  138.7780 C   0  0  1  0  0  3  0  0  0  0  0  0
  186.3380  176.7470  137.2850 C   0  0  0  0  0  0  0  0  0  0  0  0
  192.6560  175.6190  136.5340 C   0  0  1  0  0  3  0  0  0  0  0  0
  185.8690  177.5530  138.3330 O   0  0  0  0  0  0  0  0  0  0  0  0
  191.1450  177.6010  140.1760 C   0  0  1  0  0  3  0  0  0  0  0  0
  190.3040  176.7470  141.1190 C   0  0  0  0  0  2  0  0  0  0  0  0
  191.8480  175.9680  135.2590 C   0  0  0  0  0  2  0  0  0  0  0  0
  194.9380  174.5260  136.5750 C   0  0  0  0  0  3  0  0  0  0  0  0
  194.1250  175.6180  136.2320 C   0  0  0  0  0  0  0  0  0  0  0  0
  194.6850  176.7120  135.5600 C   0  0  0  0  0  3  0  0  0  0  0  0
  196.5840  177.7810  134.5940 F   0  0  0  0  0  0  0  0  0  0  0  0
  196.8540  175.6350  135.5960 C   0  0  0  0  0  3  0  0  0  0  0  0
  196.0470  176.7220  135.2450 C   0  0  0  0  0  0  0  0  0  0  0  0
  196.3000  174.5370  136.2610 C   0  0  0  0  0  3  0  0  0  0  0  0
  189.6920  178.2710  143.0300 C   0  0  0  0  0  2  0  0  0  0  0  0
  190.1320  177.3580  144.1650 C   0  0  0  0  0  2  0  0  0  0  0  0
  189.5660  177.8650  145.4730 C   0  0  0  0  0  2  0  0  0  0  0  0
  188.1150  177.6810  145.4820 C   0  0  0  0  0  0  0  0  0  0  0  0
  186.9180  177.5310  145.4930 C   0  0  0  0  0  3  0  0  0  0  0  0
  1  7  1  1  0  0  0
  1 33  1  0  0  0  0
  2 20  2  0  0  0  0
  3  8  1  0  0  0  0
  3  6  1  0  0  0  0
  4 17  2  0  0  0  0
  5 20  1  0  0  0  0
  6 19  1  0  0  0  0
  8  5  1  0  0  0  0
  8 11  1  0  0  0  0
  9  6  1  0  0  0  0
  9  4  1  0  0  0  0
 10 15  1  0  0  0  0
 10  5  1  0  0  0  0
 11 19  1  0  0  0  0
 11 16  1  0  0  0  0
 12 16  1  0  0  0  0
 13 18  1  0  0  0  0
 13 15  1  0  0  0  0
 14  1  1  0  0  0  0
 15  3  1  0  0  0  0
 16 14  1  0  0  0  0
 17 23  1  0  0  0  0
 18 15  1  0  0  0  0
 18  3  1  0  0  0  0
 19 23  1  0  0  0  0
 20 22  1  0  0  0  0
 21  9  1  0  0  0  0
 22 12  1  0  0  0  0
 23 24  1  0  0  0  0
 24  1  1  0  0  0  0
 25 18  1  0  0  0  0
 25 21  1  0  0  0  0
 27 21  1  0  0  0  0
 27 26  2  0  0  0  0
 28 27  1  0  0  0  0
 29 31  1  0  0  0  0
 30 32  2  0  0  0  0
 31 28  2  0  0  0  0
 31 30  1  0  0  0  0
 32 26  1  0  0  0  0
 33 34  1  0  0  0  0
 34 35  1  0  0  0  0
 35 36  1  0  0  0  0
 36 37  3  0  0  0  0
M  END
>  <MODEL>
4

>  <REMARK>
 VINA RESULT:      -7.6      4.440      7.382
  Name = 
  5 active torsions:
  status: ('A' for Active; 'I' for Inactive)
    1  A    between atoms: C_1  and  C_5
    2  A    between atoms: C_5  and  C_17
    3  A    between atoms: C_6  and  C_31
    4  A    between atoms: C_11  and  C_26
    5  A    between atoms: C_17  and  C_26
                            x       y       z     vdW  Elec       q    Type
                         _______ _______ _______ _____ _____    ______ ____

>  <TORSDO>
F 5

$$$$
