=
 OpenBabel10262421433D

 30 34  0  0  1  0  0  0  0  0999 V2000
  189.0230  176.6770  143.2640 C   0  0  2  0  0  3  0  0  0  0  0  0
  189.3150  177.4830  141.9580 C   0  0  1  0  0  0  0  0  0  0  0  0
  187.5330  176.6030  143.6150 C   0  0  0  0  0  2  0  0  0  0  0  0
  185.9430  179.1330  141.5850 C   0  0  0  0  0  2  0  0  0  0  0  0
  189.5830  178.4640  139.1840 C   0  0  1  0  0  3  0  0  0  0  0  0
  186.8750  178.0380  141.8110 N   0  0  2  0  0  0  0  0  0  0  0  0
  185.4740  178.0790  143.7080 C   0  0  0  0  0  2  0  0  0  0  0  0
  190.6530  177.5500  139.7230 C   0  0  2  0  0  3  0  0  0  0  0  0
  186.9000  177.9280  143.2520 C   0  0  1  0  0  3  0  0  0  0  0  0
  188.2110  178.3670  141.2990 C   0  0  2  0  0  3  0  0  0  0  0  0
  190.7450  176.5050  138.8190 O   0  0  0  0  0  0  0  0  0  0  0  0
  189.5540  178.2270  137.8080 O   0  0  0  0  0  0  0  0  0  0  0  0
  183.7300  178.4920  142.1640 F   0  0  0  0  0  0  0  0  0  0  0  0
  184.8910  179.0340  142.6830 C   0  0  2  0  0  3  0  0  0  0  0  0
  190.5480  178.1590  142.0160 O   0  0  0  0  0  0  0  0  0  0  0  0
  190.5060  177.0400  141.1640 C   0  0  1  0  0  3  0  0  0  0  0  0
  190.3830  177.1040  137.6000 C   0  0  0  0  0  2  0  0  0  0  0  0
  187.7640  176.9010  139.4360 O   0  0  0  0  0  1  0  0  0  0  0  0
  188.2060  178.1850  139.7780 C   0  0  2  0  0  3  0  0  0  0  0  0
  189.8450  177.0410  144.5200 C   0  0  2  0  0  3  0  0  0  0  0  0
  191.2810  176.4960  144.5390 C   0  0  2  0  0  3  0  0  0  0  0  0
  191.4110  175.1450  143.8490 C   0  0  0  0  0  2  0  0  0  0  0  0
  192.4220  174.3970  144.4530 O   0  0  0  0  0  1  0  0  0  0  0  0
  191.7610  176.4050  145.9220 C   0  0  0  0  0  0  0  0  0  0  0  0
  192.1420  176.3350  147.0130 N   0  0  0  0  0  0  0  0  0  0  0  0
  189.1530  176.7680  145.7070 O   0  0  0  0  0  0  0  0  0  0  0  0
  188.9630  178.0140  146.3120 C   0  0  0  0  0  2  0  0  0  0  0  0
  187.9380  177.9360  147.4030 C   0  0  0  0  0  0  0  0  0  0  0  0
  186.5340  178.4040  147.1950 C   0  0  0  0  0  1  0  0  0  0  0  0
  188.2590  177.4820  148.4880 O   0  0  0  0  0  0  0  0  0  0  0  0
  1  3  1  0  0  0  0
  1 20  1  1  0  0  0
  2 15  1  1  0  0  0
  2  1  1  0  0  0  0
  4 14  1  0  0  0  0
  5 12  1  6  0  0  0
  5  8  1  0  0  0  0
  5 19  1  0  0  0  0
  6  4  1  1  0  0  0
  6  9  1  0  0  0  0
  8 11  1  6  0  0  0
  8 16  1  0  0  0  0
  9  3  1  6  0  0  0
  9  7  1  0  0  0  0
 10  6  1  0  0  0  0
 10  2  1  0  0  0  0
 13 14  1  0  0  0  0
 14  7  1  0  0  0  0
 16  2  1  0  0  0  0
 16 15  1  0  0  0  0
 17 12  1  0  0  0  0
 17 11  1  0  0  0  0
 18 19  1  0  0  0  0
 19 10  1  0  0  0  0
 20 21  1  0  0  0  0
 20 26  1  0  0  0  0
 21 24  1  0  0  0  0
 22 23  1  0  0  0  0
 22 21  1  0  0  0  0
 24 25  3  0  0  0  0
 26 27  1  0  0  0  0
 27 28  1  0  0  0  0
 28 30  2  0  0  0  0
 29 28  1  0  0  0  0
M  END
>  <MODEL>
1

>  <REMARK>
 VINA RESULT:      -7.9      0.000      0.000
  Name = 
  7 active torsions:
  status: ('A' for Active; 'I' for Inactive)
    1  A    between atoms: C_1  and  C_22
    2  A    between atoms: C_2  and  C_14
    3  A    between atoms: C_3  and  C_19
    4  A    between atoms: C_14  and  C_20
    5  A    between atoms: C_14  and  C_22
    6  A    between atoms: C_19  and  O_29
    7  A    between atoms: C_22  and  O_29
                            x       y       z     vdW  Elec       q    Type
                         _______ _______ _______ _____ _____    ______ ____

>  <TORSDO>
F 7

$$$$
=
 OpenBabel10262421433D

 30 34  0  0  1  0  0  0  0  0999 V2000
  188.7780  176.6560  141.9320 C   0  0  2  0  0  3  0  0  0  0  0  0
  187.9340  177.7090  142.7210 C   0  0  1  0  0  0  0  0  0  0  0  0
  189.7370  175.8550  142.8190 C   0  0  0  0  0  2  0  0  0  0  0  0
  189.9110  177.6770  145.9330 C   0  0  0  0  0  2  0  0  0  0  0  0
  186.0210  179.1440  144.4550 C   0  0  1  0  0  3  0  0  0  0  0  0
  189.2070  177.1070  144.7940 N   0  0  2  0  0  0  0  0  0  0  0  0
  191.3800  176.1930  144.7190 C   0  0  0  0  0  2  0  0  0  0  0  0
  185.5690  178.7440  143.0740 C   0  0  2  0  0  3  0  0  0  0  0  0
  190.2810  176.7850  143.8800 C   0  0  1  0  0  3  0  0  0  0  0  0
  188.2970  178.0870  144.1900 C   0  0  2  0  0  3  0  0  0  0  0  0
  184.4030  178.0190  143.2570 O   0  0  0  0  0  0  0  0  0  0  0  0
  184.8640  179.1490  145.2360 O   0  0  0  0  0  0  0  0  0  0  0  0
  191.1700  176.0130  147.0690 F   0  0  0  0  0  0  0  0  0  0  0  0
  191.2350  176.9310  146.0370 C   0  0  2  0  0  3  0  0  0  0  0  0
  187.6570  178.8530  141.9480 O   0  0  0  0  0  0  0  0  0  0  0  0
  186.5670  177.9930  142.1790 C   0  0  1  0  0  3  0  0  0  0  0  0
  183.8580  178.5790  144.4260 C   0  0  0  0  0  2  0  0  0  0  0  0
  186.4710  176.9060  145.2330 O   0  0  0  0  0  1  0  0  0  0  0  0
  187.0360  178.1750  145.0540 C   0  0  2  0  0  3  0  0  0  0  0  0
  189.5130  177.1430  140.6630 C   0  0  2  0  0  3  0  0  0  0  0  0
  188.6460  177.2200  139.3970 C   0  0  2  0  0  3  0  0  0  0  0  0
  188.8930  176.0630  138.4390 C   0  0  0  0  0  2  0  0  0  0  0  0
  187.9310  176.0680  137.4280 O   0  0  0  0  0  1  0  0  0  0  0  0
  188.8710  178.4990  138.7160 C   0  0  0  0  0  0  0  0  0  0  0  0
  189.0490  179.5070  138.1770 N   0  0  0  0  0  0  0  0  0  0  0  0
  190.7150  176.4570  140.4480 O   0  0  0  0  0  0  0  0  0  0  0  0
  191.7040  177.4450  140.4560 C   0  0  0  0  0  2  0  0  0  0  0  0
  192.8090  177.1140  139.4980 C   0  0  0  0  0  0  0  0  0  0  0  0
  192.5390  176.4410  138.1920 C   0  0  0  0  0  1  0  0  0  0  0  0
  193.9560  177.4010  139.7940 O   0  0  0  0  0  0  0  0  0  0  0  0
  1 20  1  6  0  0  0
  1  2  1  0  0  0  0
  1  3  1  0  0  0  0
  2 15  1  6  0  0  0
  2 10  1  0  0  0  0
  4 14  1  0  0  0  0
  5 19  1  0  0  0  0
  5 12  1  1  0  0  0
  6  4  1  1  0  0  0
  7 14  1  0  0  0  0
  8 11  1  1  0  0  0
  8  5  1  0  0  0  0
  9  3  1  6  0  0  0
  9  7  1  0  0  0  0
  9  6  1  0  0  0  0
 10  6  1  0  0  0  0
 10 19  1  0  0  0  0
 11 17  1  0  0  0  0
 14 13  1  0  0  0  0
 15 16  1  0  0  0  0
 16  2  1  0  0  0  0
 16  8  1  0  0  0  0
 17 12  1  0  0  0  0
 19 18  1  0  0  0  0
 21 20  1  0  0  0  0
 22 21  1  0  0  0  0
 23 22  1  0  0  0  0
 24 21  1  0  0  0  0
 25 24  3  0  0  0  0
 26 27  1  0  0  0  0
 26 20  1  0  0  0  0
 28 30  2  0  0  0  0
 28 27  1  0  0  0  0
 29 28  1  0  0  0  0
M  END
>  <MODEL>
2

>  <REMARK>
 VINA RESULT:      -7.2      2.864      6.770
  Name = 
  7 active torsions:
  status: ('A' for Active; 'I' for Inactive)
    1  A    between atoms: C_1  and  C_22
    2  A    between atoms: C_2  and  C_14
    3  A    between atoms: C_3  and  C_19
    4  A    between atoms: C_14  and  C_20
    5  A    between atoms: C_14  and  C_22
    6  A    between atoms: C_19  and  O_29
    7  A    between atoms: C_22  and  O_29
                            x       y       z     vdW  Elec       q    Type
                         _______ _______ _______ _____ _____    ______ ____

>  <TORSDO>
F 7

$$$$
=
 OpenBabel10262421433D

 30 34  0  0  1  0  0  0  0  0999 V2000
  188.1800  178.1130  142.1510 C   0  0  2  0  0  3  0  0  0  0  0  0
  187.1220  177.7650  143.2470 C   0  0  1  0  0  0  0  0  0  0  0  0
  187.5960  178.8840  140.9630 C   0  0  0  0  0  2  0  0  0  0  0  0
  184.0140  178.5110  141.2430 C   0  0  0  0  0  2  0  0  0  0  0  0
  185.1470  177.7810  145.4450 C   0  0  1  0  0  3  0  0  0  0  0  0
  185.3460  178.7510  141.7790 N   0  0  2  0  0  0  0  0  0  0  0  0
  185.5740  178.8780  139.4350 C   0  0  0  0  0  2  0  0  0  0  0  0
  186.6090  177.7030  145.8010 C   0  0  2  0  0  3  0  0  0  0  0  0
  186.2090  178.3470  140.6910 C   0  0  1  0  0  3  0  0  0  0  0  0
  185.5960  177.9240  142.9660 C   0  0  2  0  0  3  0  0  0  0  0  0
  186.8360  178.7460  146.6840 O   0  0  0  0  0  0  0  0  0  0  0  0
  184.5380  178.4310  146.5200 O   0  0  0  0  0  0  0  0  0  0  0  0
  183.5160  180.0430  139.4970 F   0  0  0  0  0  0  0  0  0  0  0  0
  184.0910  178.8120  139.7510 C   0  0  2  0  0  3  0  0  0  0  0  0
  187.4030  176.5430  143.8870 O   0  0  0  0  0  0  0  0  0  0  0  0
  187.6320  177.7000  144.6540 C   0  0  1  0  0  3  0  0  0  0  0  0
  185.5970  178.8920  147.3310 C   0  0  0  0  0  2  0  0  0  0  0  0
  185.2770  179.9040  144.3070 O   0  0  0  0  0  1  0  0  0  0  0  0
  184.8880  178.5660  144.1620 C   0  0  2  0  0  3  0  0  0  0  0  0
  189.0800  176.9630  141.6450 C   0  0  2  0  0  3  0  0  0  0  0  0
  190.4640  176.8790  142.3070 C   0  0  2  0  0  3  0  0  0  0  0  0
  190.6190  175.6590  143.2040 C   0  0  0  0  0  2  0  0  0  0  0  0
  191.8370  175.7170  143.8810 O   0  0  0  0  0  1  0  0  0  0  0  0
  190.7260  178.1040  143.0690 C   0  0  0  0  0  0  0  0  0  0  0  0
  190.9340  179.0700  143.6720 N   0  0  0  0  0  0  0  0  0  0  0  0
  189.1520  176.9200  140.2470 O   0  0  0  0  0  0  0  0  0  0  0  0
  190.4930  176.6490  139.9600 C   0  0  0  0  0  2  0  0  0  0  0  0
  190.6590  176.1590  138.5530 C   0  0  0  0  0  0  0  0  0  0  0  0
  190.3280  177.0210  137.3780 C   0  0  0  0  0  1  0  0  0  0  0  0
  191.0730  175.0280  138.3640 O   0  0  0  0  0  0  0  0  0  0  0  0
  1 20  1  6  0  0  0
  1  2  1  0  0  0  0
  2 15  1  6  0  0  0
  2 16  1  0  0  0  0
  3  1  1  0  0  0  0
  5  8  1  0  0  0  0
  5 12  1  1  0  0  0
  6  4  1  6  0  0  0
  6 10  1  0  0  0  0
  7 14  1  0  0  0  0
  8 11  1  1  0  0  0
  9  7  1  6  0  0  0
  9  3  1  0  0  0  0
  9  6  1  0  0  0  0
 10  2  1  0  0  0  0
 10 19  1  0  0  0  0
 11 17  1  0  0  0  0
 12 17  1  0  0  0  0
 13 14  1  0  0  0  0
 14  4  1  0  0  0  0
 15 16  1  0  0  0  0
 16  8  1  0  0  0  0
 19 18  1  0  0  0  0
 19  5  1  0  0  0  0
 20 21  1  0  0  0  0
 21 24  1  0  0  0  0
 21 22  1  0  0  0  0
 22 23  1  0  0  0  0
 24 25  3  0  0  0  0
 26 20  1  0  0  0  0
 27 26  1  0  0  0  0
 28 27  1  0  0  0  0
 29 28  1  0  0  0  0
 30 28  2  0  0  0  0
M  END
>  <MODEL>
3

>  <REMARK>
 VINA RESULT:      -7.2      2.134      5.917
  Name = 
  7 active torsions:
  status: ('A' for Active; 'I' for Inactive)
    1  A    between atoms: C_1  and  C_22
    2  A    between atoms: C_2  and  C_14
    3  A    between atoms: C_3  and  C_19
    4  A    between atoms: C_14  and  C_20
    5  A    between atoms: C_14  and  C_22
    6  A    between atoms: C_19  and  O_29
    7  A    between atoms: C_22  and  O_29
                            x       y       z     vdW  Elec       q    Type
                         _______ _______ _______ _____ _____    ______ ____

>  <TORSDO>
F 7

$$$$
=
 OpenBabel10262421433D

 30 34  0  0  1  0  0  0  0  0999 V2000
  187.9680  177.5460  142.6810 C   0  0  2  0  0  3  0  0  0  0  0  0
  186.9660  178.3900  141.8300 C   0  0  1  0  0  0  0  0  0  0  0  0
  187.4110  177.1350  144.0490 C   0  0  0  0  0  2  0  0  0  0  0  0
  184.5080  179.2210  144.5680 C   0  0  0  0  0  2  0  0  0  0  0  0
  184.7390  179.3880  140.1650 C   0  0  1  0  0  3  0  0  0  0  0  0
  185.3760  178.3700  143.7670 N   0  0  2  0  0  0  0  0  0  0  0  0
  186.1040  178.1010  145.9940 C   0  0  0  0  0  2  0  0  0  0  0  0
  185.9140  178.7480  139.4730 C   0  0  2  0  0  3  0  0  0  0  0  0
  186.5710  178.2780  144.5750 C   0  0  1  0  0  3  0  0  0  0  0  0
  185.6790  178.9930  142.4720 C   0  0  2  0  0  3  0  0  0  0  0  0
  185.3810  177.7460  138.6790 O   0  0  0  0  0  0  0  0  0  0  0  0
  183.6420  179.1430  139.3360 O   0  0  0  0  0  0  0  0  0  0  0  0
  183.8010  178.0940  146.5360 F   0  0  0  0  0  0  0  0  0  0  0  0
  184.8090  178.8910  146.0250 C   0  0  2  0  0  3  0  0  0  0  0  0
  187.6230  179.3310  141.0140 O   0  0  0  0  0  0  0  0  0  0  0  0
  187.0660  178.2260  140.3440 C   0  0  1  0  0  3  0  0  0  0  0  0
  184.1050  178.2380  138.3560 C   0  0  0  0  0  2  0  0  0  0  0  0
  184.1220  177.4520  141.4630 O   0  0  0  0  0  1  0  0  0  0  0  0
  184.4720  178.8050  141.5500 C   0  0  2  0  0  3  0  0  0  0  0  0
  189.4030  178.0970  142.8380 C   0  0  2  0  0  3  0  0  0  0  0  0
  190.5110  177.2030  142.2590 C   0  0  2  0  0  3  0  0  0  0  0  0
  190.5880  177.2640  140.7400 C   0  0  0  0  0  2  0  0  0  0  0  0
  191.8970  177.5320  140.3390 O   0  0  0  0  0  1  0  0  0  0  0  0
  190.3150  175.8190  142.7010 C   0  0  0  0  0  0  0  0  0  0  0  0
  190.1620  174.7260  143.0480 N   0  0  0  0  0  0  0  0  0  0  0  0
  189.6760  178.5050  144.1500 O   0  0  0  0  0  0  0  0  0  0  0  0
  190.9420  177.9850  144.4370 C   0  0  0  0  0  2  0  0  0  0  0  0
  190.9660  177.3290  145.7840 C   0  0  0  0  0  0  0  0  0  0  0  0
  189.7560  177.2950  146.6610 C   0  0  0  0  0  1  0  0  0  0  0  0
  191.9980  176.8110  146.1740 O   0  0  0  0  0  0  0  0  0  0  0  0
  1 20  1  1  0  0  0
  1  3  1  0  0  0  0
  2 15  1  1  0  0  0
  2 10  1  0  0  0  0
  2  1  1  0  0  0  0
  4 14  1  0  0  0  0
  5 12  1  6  0  0  0
  5 19  1  0  0  0  0
  6  4  1  1  0  0  0
  6  9  1  0  0  0  0
  7 14  1  0  0  0  0
  8 11  1  1  0  0  0
  8  5  1  0  0  0  0
  8 16  1  0  0  0  0
  9  3  1  6  0  0  0
  9  7  1  0  0  0  0
 10  6  1  0  0  0  0
 14 13  1  0  0  0  0
 16 15  1  0  0  0  0
 16  2  1  0  0  0  0
 17 11  1  0  0  0  0
 17 12  1  0  0  0  0
 18 19  1  0  0  0  0
 19 10  1  0  0  0  0
 20 26  1  0  0  0  0
 21 24  1  0  0  0  0
 21 20  1  0  0  0  0
 22 21  1  0  0  0  0
 23 22  1  0  0  0  0
 24 25  3  0  0  0  0
 26 27  1  0  0  0  0
 27 28  1  0  0  0  0
 28 30  2  0  0  0  0
 28 29  1  0  0  0  0
M  END
>  <MODEL>
4

>  <REMARK>
 VINA RESULT:      -7.0      2.401      3.811
  Name = 
  7 active torsions:
  status: ('A' for Active; 'I' for Inactive)
    1  A    between atoms: C_1  and  C_22
    2  A    between atoms: C_2  and  C_14
    3  A    between atoms: C_3  and  C_19
    4  A    between atoms: C_14  and  C_20
    5  A    between atoms: C_14  and  C_22
    6  A    between atoms: C_19  and  O_29
    7  A    between atoms: C_22  and  O_29
                            x       y       z     vdW  Elec       q    Type
                         _______ _______ _______ _____ _____    ______ ____

>  <TORSDO>
F 7

$$$$
=
 OpenBabel10262421433D

 30 34  0  0  1  0  0  0  0  0999 V2000
  188.0200  176.9790  142.8530 C   0  0  2  0  0  3  0  0  0  0  0  0
  187.1100  178.0010  142.0990 C   0  0  1  0  0  0  0  0  0  0  0  0
  187.4820  176.5830  144.2320 C   0  0  0  0  0  2  0  0  0  0  0  0
  184.9490  179.0370  145.0130 C   0  0  0  0  0  2  0  0  0  0  0  0
  184.9700  179.3960  140.6150 C   0  0  1  0  0  3  0  0  0  0  0  0
  185.6380  178.1120  144.1250 N   0  0  2  0  0  0  0  0  0  0  0  0
  186.4350  177.6250  146.2910 C   0  0  0  0  0  2  0  0  0  0  0  0
  185.9990  178.6280  139.8270 C   0  0  2  0  0  3  0  0  0  0  0  0
  186.8480  177.8060  144.8560 C   0  0  1  0  0  3  0  0  0  0  0  0
  185.9620  178.7500  142.8430 C   0  0  2  0  0  3  0  0  0  0  0  0
  185.2840  177.7560  139.0240 O   0  0  0  0  0  0  0  0  0  0  0  0
  183.8070  179.3540  139.8430 O   0  0  0  0  0  0  0  0  0  0  0  0
  184.1880  177.9240  146.9690 F   0  0  0  0  0  0  0  0  0  0  0  0
  185.2730  178.5920  146.4330 C   0  0  2  0  0  3  0  0  0  0  0  0
  187.8550  178.8780  141.2880 O   0  0  0  0  0  0  0  0  0  0  0  0
  187.1070  177.9010  140.6050 C   0  0  1  0  0  3  0  0  0  0  0  0
  184.0790  178.4440  138.7990 C   0  0  0  0  0  2  0  0  0  0  0  0
  184.1440  177.5040  141.8630 O   0  0  0  0  0  1  0  0  0  0  0  0
  184.6930  178.7860  141.9870 C   0  0  2  0  0  3  0  0  0  0  0  0
  189.5270  177.3080  142.9480 C   0  0  2  0  0  3  0  0  0  0  0  0
  189.9300  178.1760  144.1490 C   0  0  2  0  0  3  0  0  0  0  0  0
  190.6920  179.4310  143.7440 C   0  0  0  0  0  2  0  0  0  0  0  0
  192.0550  179.2560  143.9800 O   0  0  0  0  0  1  0  0  0  0  0  0
  190.7240  177.3840  145.0930 C   0  0  0  0  0  0  0  0  0  0  0  0
  191.3520  176.7590  145.8370 N   0  0  0  0  0  0  0  0  0  0  0  0
  190.0430  177.7930  141.7390 O   0  0  0  0  0  0  0  0  0  0  0  0
  190.7290  176.7120  141.1770 C   0  0  0  0  0  2  0  0  0  0  0  0
  190.5530  176.6740  139.6890 C   0  0  0  0  0  0  0  0  0  0  0  0
  190.1330  177.8820  138.9170 C   0  0  0  0  0  1  0  0  0  0  0  0
  190.7570  175.6290  139.0940 O   0  0  0  0  0  0  0  0  0  0  0  0
  1 20  1  1  0  0  0
  1  3  1  0  0  0  0
  2 15  1  1  0  0  0
  2 10  1  0  0  0  0
  2  1  1  0  0  0  0
  4 14  1  0  0  0  0
  5 12  1  6  0  0  0
  5 19  1  0  0  0  0
  6  9  1  0  0  0  0
  6  4  1  1  0  0  0
  7 14  1  0  0  0  0
  8 11  1  1  0  0  0
  8 16  1  0  0  0  0
  8  5  1  0  0  0  0
  9  3  1  6  0  0  0
  9  7  1  0  0  0  0
 10  6  1  0  0  0  0
 14 13  1  0  0  0  0
 16 15  1  0  0  0  0
 16  2  1  0  0  0  0
 17 11  1  0  0  0  0
 17 12  1  0  0  0  0
 18 19  1  0  0  0  0
 19 10  1  0  0  0  0
 20 21  1  0  0  0  0
 21 24  1  0  0  0  0
 22 23  1  0  0  0  0
 22 21  1  0  0  0  0
 24 25  3  0  0  0  0
 26 20  1  0  0  0  0
 27 26  1  0  0  0  0
 28 27  1  0  0  0  0
 29 28  1  0  0  0  0
 30 28  2  0  0  0  0
M  END
>  <MODEL>
5

>  <REMARK>
 VINA RESULT:      -6.7      2.366      4.661
  Name = 
  7 active torsions:
  status: ('A' for Active; 'I' for Inactive)
    1  A    between atoms: C_1  and  C_22
    2  A    between atoms: C_2  and  C_14
    3  A    between atoms: C_3  and  C_19
    4  A    between atoms: C_14  and  C_20
    5  A    between atoms: C_14  and  C_22
    6  A    between atoms: C_19  and  O_29
    7  A    between atoms: C_22  and  O_29
                            x       y       z     vdW  Elec       q    Type
                         _______ _______ _______ _____ _____    ______ ____

>  <TORSDO>
F 7

$$$$
=
 OpenBabel10262421433D

 30 34  0  0  1  0  0  0  0  0999 V2000
  189.0530  176.4910  142.8480 C   0  0  2  0  0  3  0  0  0  0  0  0
  189.3030  177.3500  141.5660 C   0  0  1  0  0  0  0  0  0  0  0  0
  187.5930  176.5010  143.3130 C   0  0  0  0  0  2  0  0  0  0  0  0
  186.0440  179.2490  141.5540 C   0  0  0  0  0  2  0  0  0  0  0  0
  189.4310  178.4700  138.8350 C   0  0  1  0  0  3  0  0  0  0  0  0
  186.9070  178.0810  141.6460 N   0  0  2  0  0  0  0  0  0  0  0  0
  185.6620  178.1080  143.6490 C   0  0  0  0  0  2  0  0  0  0  0  0
  190.4680  177.4540  139.2380 C   0  0  2  0  0  3  0  0  0  0  0  0
  187.0340  177.8850  143.0720 C   0  0  1  0  0  3  0  0  0  0  0  0
  188.2210  178.3450  141.0460 C   0  0  2  0  0  3  0  0  0  0  0  0
  190.4130  176.4590  138.2760 O   0  0  0  0  0  0  0  0  0  0  0  0
  189.2780  178.3160  137.4560 O   0  0  0  0  0  0  0  0  0  0  0  0
  183.8400  178.7310  142.2740 F   0  0  0  0  0  0  0  0  0  0  0  0
  185.0740  179.1600  142.7260 C   0  0  2  0  0  3  0  0  0  0  0  0
  190.5840  177.9340  141.5610 O   0  0  0  0  0  0  0  0  0  0  0  0
  190.3940  176.8710  140.6570 C   0  0  1  0  0  3  0  0  0  0  0  0
  190.0040  177.1520  137.1230 C   0  0  0  0  0  2  0  0  0  0  0  0
  187.5250  177.0240  139.1510 O   0  0  0  0  0  1  0  0  0  0  0  0
  188.0860  178.2530  139.5230 C   0  0  2  0  0  3  0  0  0  0  0  0
  189.9940  176.7230  144.0510 C   0  0  2  0  0  3  0  0  0  0  0  0
  189.8270  178.0790  144.7550 C   0  0  2  0  0  3  0  0  0  0  0  0
  191.1040  178.9080  144.7540 C   0  0  0  0  0  2  0  0  0  0  0  0
  190.9310  180.0480  143.9680 O   0  0  0  0  0  1  0  0  0  0  0  0
  189.3600  177.8720  146.1300 C   0  0  0  0  0  0  0  0  0  0  0  0
  188.9900  177.7080  147.2140 N   0  0  0  0  0  0  0  0  0  0  0  0
  191.3310  176.4400  143.7440 O   0  0  0  0  0  0  0  0  0  0  0  0
  191.4390  175.0500  143.8390 C   0  0  0  0  0  2  0  0  0  0  0  0
  192.1630  174.6460  145.0890 C   0  0  0  0  0  0  0  0  0  0  0  0
  192.1180  175.4830  146.3260 C   0  0  0  0  0  1  0  0  0  0  0  0
  192.8050  173.6100  145.0940 O   0  0  0  0  0  0  0  0  0  0  0  0
  1  3  1  0  0  0  0
  1 20  1  1  0  0  0
  2 15  1  1  0  0  0
  2  1  1  0  0  0  0
  4 14  1  0  0  0  0
  5 12  1  6  0  0  0
  5  8  1  0  0  0  0
  5 19  1  0  0  0  0
  6  4  1  1  0  0  0
  6  9  1  0  0  0  0
  8 11  1  6  0  0  0
  8 16  1  0  0  0  0
  9  3  1  6  0  0  0
  9  7  1  0  0  0  0
 10  2  1  0  0  0  0
 10  6  1  0  0  0  0
 13 14  1  0  0  0  0
 14  7  1  0  0  0  0
 16 15  1  0  0  0  0
 16  2  1  0  0  0  0
 17 12  1  0  0  0  0
 17 11  1  0  0  0  0
 18 19  1  0  0  0  0
 19 10  1  0  0  0  0
 20 21  1  0  0  0  0
 21 24  1  0  0  0  0
 22 21  1  0  0  0  0
 23 22  1  0  0  0  0
 24 25  3  0  0  0  0
 26 27  1  0  0  0  0
 26 20  1  0  0  0  0
 27 28  1  0  0  0  0
 28 30  2  0  0  0  0
 28 29  1  0  0  0  0
M  END
>  <MODEL>
6

>  <REMARK>
 VINA RESULT:      -6.7      1.576      2.761
  Name = 
  7 active torsions:
  status: ('A' for Active; 'I' for Inactive)
    1  A    between atoms: C_1  and  C_22
    2  A    between atoms: C_2  and  C_14
    3  A    between atoms: C_3  and  C_19
    4  A    between atoms: C_14  and  C_20
    5  A    between atoms: C_14  and  C_22
    6  A    between atoms: C_19  and  O_29
    7  A    between atoms: C_22  and  O_29
                            x       y       z     vdW  Elec       q    Type
                         _______ _______ _______ _____ _____    ______ ____

>  <TORSDO>
F 7

$$$$
=
 OpenBabel10262421433D

 30 34  0  0  1  0  0  0  0  0999 V2000
  189.7780  177.8540  141.1300 C   0  0  2  0  0  3  0  0  0  0  0  0
  189.7430  177.0830  142.4880 C   0  0  1  0  0  0  0  0  0  0  0  0
  188.5980  178.8140  140.9430 C   0  0  0  0  0  2  0  0  0  0  0  0
  186.1800  177.8600  143.4510 C   0  0  0  0  0  2  0  0  0  0  0  0
  189.8340  176.2370  145.3180 C   0  0  1  0  0  3  0  0  0  0  0  0
  187.5270  178.1460  142.9810 N   0  0  2  0  0  0  0  0  0  0  0  0
  186.0880  178.9090  141.2760 C   0  0  0  0  0  2  0  0  0  0  0  0
  191.1270  176.2840  144.5470 C   0  0  2  0  0  3  0  0  0  0  0  0
  187.3700  178.1690  141.5440 C   0  0  1  0  0  3  0  0  0  0  0  0
  188.4620  177.0840  143.3770 C   0  0  2  0  0  3  0  0  0  0  0  0
  191.9790  177.0840  145.2910 O   0  0  0  0  0  0  0  0  0  0  0  0
  190.1850  176.4890  146.6460 O   0  0  0  0  0  0  0  0  0  0  0  0
  184.7360  179.7040  143.0480 F   0  0  0  0  0  0  0  0  0  0  0  0
  185.2310  178.5470  142.4760 C   0  0  2  0  0  3  0  0  0  0  0  0
  190.2920  175.7910  142.3790 O   0  0  0  0  0  0  0  0  0  0  0  0
  191.0750  176.7300  143.0770 C   0  0  1  0  0  3  0  0  0  0  0  0
  191.5420  176.8730  146.6110 C   0  0  0  0  0  2  0  0  0  0  0  0
  189.3070  178.5780  145.0720 O   0  0  0  0  0  1  0  0  0  0  0  0
  188.8230  177.2820  144.8520 C   0  0  2  0  0  3  0  0  0  0  0  0
  189.9900  177.0200  139.8460 C   0  0  2  0  0  3  0  0  0  0  0  0
  191.4420  176.5980  139.5760 C   0  0  2  0  0  3  0  0  0  0  0  0
  192.4590  177.5900  140.1250 C   0  0  0  0  0  2  0  0  0  0  0  0
  193.7460  177.2190  139.7320 O   0  0  0  0  0  1  0  0  0  0  0  0
  191.6470  176.4080  138.1370 C   0  0  0  0  0  0  0  0  0  0  0  0
  191.8090  176.2580  137.0010 N   0  0  0  0  0  0  0  0  0  0  0  0
  189.3850  177.6040  138.7260 O   0  0  0  0  0  0  0  0  0  0  0  0
  188.3780  176.7110  138.3500 C   0  0  0  0  0  2  0  0  0  0  0  0
  187.2190  177.4310  137.7300 C   0  0  0  0  0  0  0  0  0  0  0  0
  186.1180  176.6950  137.0380 C   0  0  0  0  0  1  0  0  0  0  0  0
  187.1750  178.6480  137.7900 O   0  0  0  0  0  0  0  0  0  0  0  0
  1 20  1  6  0  0  0
  1  2  1  0  0  0  0
  2 15  1  6  0  0  0
  2 16  1  0  0  0  0
  2 10  1  0  0  0  0
  3  1  1  0  0  0  0
  5 12  1  1  0  0  0
  6 10  1  0  0  0  0
  6  4  1  1  0  0  0
  7  9  1  0  0  0  0
  7 14  1  0  0  0  0
  8 11  1  1  0  0  0
  8  5  1  0  0  0  0
  9  3  1  6  0  0  0
  9  6  1  0  0  0  0
 10 19  1  0  0  0  0
 11 17  1  0  0  0  0
 14 13  1  0  0  0  0
 14  4  1  0  0  0  0
 15 16  1  0  0  0  0
 16  8  1  0  0  0  0
 17 12  1  0  0  0  0
 19 18  1  0  0  0  0
 19  5  1  0  0  0  0
 21 20  1  0  0  0  0
 21 22  1  0  0  0  0
 23 22  1  0  0  0  0
 24 21  1  0  0  0  0
 25 24  3  0  0  0  0
 26 20  1  0  0  0  0
 27 26  1  0  0  0  0
 28 30  2  0  0  0  0
 28 27  1  0  0  0  0
 29 28  1  0  0  0  0
M  END
>  <MODEL>
7

>  <REMARK>
 VINA RESULT:      -6.7      2.122      6.026
  Name = 
  7 active torsions:
  status: ('A' for Active; 'I' for Inactive)
    1  A    between atoms: C_1  and  C_22
    2  A    between atoms: C_2  and  C_14
    3  A    between atoms: C_3  and  C_19
    4  A    between atoms: C_14  and  C_20
    5  A    between atoms: C_14  and  C_22
    6  A    between atoms: C_19  and  O_29
    7  A    between atoms: C_22  and  O_29
                            x       y       z     vdW  Elec       q    Type
                         _______ _______ _______ _____ _____    ______ ____

>  <TORSDO>
F 7

$$$$
=
 OpenBabel10262421433D

 30 34  0  0  1  0  0  0  0  0999 V2000
  187.5710  177.2580  143.2360 C   0  0  2  0  0  3  0  0  0  0  0  0
  187.1320  178.1310  142.0160 C   0  0  1  0  0  0  0  0  0  0  0  0
  186.4540  177.0420  144.2640 C   0  0  0  0  0  2  0  0  0  0  0  0
  183.9230  179.4890  143.4590 C   0  0  0  0  0  2  0  0  0  0  0  0
  185.9400  179.2250  139.5440 C   0  0  1  0  0  3  0  0  0  0  0  0
  184.9080  178.4740  143.1200 N   0  0  2  0  0  0  0  0  0  0  0  0
  184.6240  178.3260  145.4570 C   0  0  0  0  0  2  0  0  0  0  0  0
  187.1900  178.3910  139.4240 C   0  0  2  0  0  3  0  0  0  0  0  0
  185.6470  178.3170  144.3540 C   0  0  1  0  0  3  0  0  0  0  0  0
  185.7970  178.9360  142.0470 C   0  0  2  0  0  3  0  0  0  0  0  0
  186.8870  177.3900  138.5170 O   0  0  0  0  0  0  0  0  0  0  0  0
  185.2510  179.0330  138.3450 O   0  0  0  0  0  0  0  0  0  0  0  0
  182.3240  178.6370  144.9960 F   0  0  0  0  0  0  0  0  0  0  0  0
  183.5550  179.2610  144.9200 C   0  0  2  0  0  3  0  0  0  0  0  0
  188.1910  178.9110  141.5140 O   0  0  0  0  0  0  0  0  0  0  0  0
  187.8020  177.8210  140.7130 C   0  0  1  0  0  3  0  0  0  0  0  0
  185.9360  177.9960  137.6770 C   0  0  0  0  0  2  0  0  0  0  0  0
  184.5790  177.5000  140.5390 O   0  0  0  0  0  1  0  0  0  0  0  0
  185.0540  178.8060  140.7140 C   0  0  2  0  0  3  0  0  0  0  0  0
  188.8820  177.6510  143.9540 C   0  0  2  0  0  3  0  0  0  0  0  0
  190.1650  177.3960  143.1490 C   0  0  2  0  0  3  0  0  0  0  0  0
  190.6370  175.9510  143.2270 C   0  0  0  0  0  2  0  0  0  0  0  0
  191.6850  175.8400  144.1410 O   0  0  0  0  0  1  0  0  0  0  0  0
  191.2260  178.3000  143.6060 C   0  0  0  0  0  0  0  0  0  0  0  0
  192.0630  179.0130  143.9680 N   0  0  0  0  0  0  0  0  0  0  0  0
  188.9530  177.1320  145.2530 O   0  0  0  0  0  0  0  0  0  0  0  0
  189.1140  178.2470  146.0810 C   0  0  0  0  0  2  0  0  0  0  0  0
  189.1600  177.8480  147.5250 C   0  0  0  0  0  0  0  0  0  0  0  0
  187.9420  177.8900  148.3890 C   0  0  0  0  0  1  0  0  0  0  0  0
  190.2180  177.4820  148.0060 O   0  0  0  0  0  0  0  0  0  0  0  0
  1 20  1  1  0  0  0
  1  3  1  0  0  0  0
  2 15  1  1  0  0  0
  2 10  1  0  0  0  0
  2  1  1  0  0  0  0
  4 14  1  0  0  0  0
  5 12  1  6  0  0  0
  5 19  1  0  0  0  0
  6  4  1  1  0  0  0
  6  9  1  0  0  0  0
  8 11  1  6  0  0  0
  8  5  1  0  0  0  0
  8 16  1  0  0  0  0
  9  3  1  6  0  0  0
  9  7  1  0  0  0  0
 10  6  1  0  0  0  0
 14 13  1  0  0  0  0
 14  7  1  0  0  0  0
 16 15  1  0  0  0  0
 16  2  1  0  0  0  0
 17 12  1  0  0  0  0
 17 11  1  0  0  0  0
 18 19  1  0  0  0  0
 19 10  1  0  0  0  0
 20 26  1  0  0  0  0
 21 22  1  0  0  0  0
 21 24  1  0  0  0  0
 21 20  1  0  0  0  0
 22 23  1  0  0  0  0
 24 25  3  0  0  0  0
 26 27  1  0  0  0  0
 27 28  1  0  0  0  0
 28 30  2  0  0  0  0
 28 29  1  0  0  0  0
M  END
>  <MODEL>
8

>  <REMARK>
 VINA RESULT:      -6.4      2.116      2.700
  Name = 
  7 active torsions:
  status: ('A' for Active; 'I' for Inactive)
    1  A    between atoms: C_1  and  C_22
    2  A    between atoms: C_2  and  C_14
    3  A    between atoms: C_3  and  C_19
    4  A    between atoms: C_14  and  C_20
    5  A    between atoms: C_14  and  C_22
    6  A    between atoms: C_19  and  O_29
    7  A    between atoms: C_22  and  O_29
                            x       y       z     vdW  Elec       q    Type
                         _______ _______ _______ _____ _____    ______ ____

>  <TORSDO>
F 7

$$$$
=
 OpenBabel10262421433D

 30 34  0  0  1  0  0  0  0  0999 V2000
  188.2230  178.6320  141.0120 C   0  0  2  0  0  3  0  0  0  0  0  0
  188.7060  177.6490  142.1270 C   0  0  1  0  0  0  0  0  0  0  0  0
  186.9590  179.4100  141.3920 C   0  0  0  0  0  2  0  0  0  0  0  0
  185.5890  177.6800  144.2520 C   0  0  0  0  0  2  0  0  0  0  0  0
  189.7910  176.3680  144.5590 C   0  0  1  0  0  3  0  0  0  0  0  0
  186.6770  178.2500  143.4710 N   0  0  2  0  0  0  0  0  0  0  0  0
  184.6950  179.0490  142.4730 C   0  0  0  0  0  2  0  0  0  0  0  0
  190.7530  176.7470  143.4630 C   0  0  2  0  0  3  0  0  0  0  0  0
  186.0610  178.4870  142.1850 C   0  0  1  0  0  3  0  0  0  0  0  0
  187.7880  177.2990  143.3380 C   0  0  2  0  0  3  0  0  0  0  0  0
  191.7180  177.5360  144.0680 O   0  0  0  0  0  0  0  0  0  0  0  0
  190.5280  176.4470  145.7420 O   0  0  0  0  0  0  0  0  0  0  0  0
  183.9210  179.3130  144.6940 F   0  0  0  0  0  0  0  0  0  0  0  0
  184.3140  178.3600  143.7710 C   0  0  2  0  0  3  0  0  0  0  0  0
  189.3130  176.4960  141.5920 O   0  0  0  0  0  0  0  0  0  0  0  0
  190.1840  177.4170  142.2030 C   0  0  1  0  0  3  0  0  0  0  0  0
  191.7560  177.0420  145.3830 C   0  0  0  0  0  2  0  0  0  0  0  0
  188.9870  178.6040  144.9750 O   0  0  0  0  0  1  0  0  0  0  0  0
  188.5870  177.3030  144.6440 C   0  0  2  0  0  3  0  0  0  0  0  0
  188.0880  178.0680  139.5800 C   0  0  2  0  0  3  0  0  0  0  0  0
  189.3760  178.0970  138.7440 C   0  0  2  0  0  3  0  0  0  0  0  0
  189.2200  178.8680  137.4410 C   0  0  0  0  0  2  0  0  0  0  0  0
  189.1550  177.9800  136.3670 O   0  0  0  0  0  1  0  0  0  0  0  0
  189.8240  176.7280  138.4720 C   0  0  0  0  0  0  0  0  0  0  0  0
  190.1800  175.6480  138.2560 N   0  0  0  0  0  0  0  0  0  0  0  0
  186.9930  178.6110  138.8960 O   0  0  0  0  0  0  0  0  0  0  0  0
  186.2860  177.5080  138.4070 C   0  0  0  0  0  2  0  0  0  0  0  0
  184.8480  177.8510  138.1610 C   0  0  0  0  0  0  0  0  0  0  0  0
  184.2000  179.0280  138.8160 C   0  0  0  0  0  1  0  0  0  0  0  0
  184.1900  177.1510  137.4110 O   0  0  0  0  0  0  0  0  0  0  0  0
  1 20  1  6  0  0  0
  1  3  1  0  0  0  0
  1  2  1  0  0  0  0
  2 15  1  6  0  0  0
  2 16  1  0  0  0  0
  2 10  1  0  0  0  0
  5 19  1  0  0  0  0
  5 12  1  1  0  0  0
  6  4  1  1  0  0  0
  7 14  1  0  0  0  0
  8 11  1  1  0  0  0
  8  5  1  0  0  0  0
  9  3  1  6  0  0  0
  9  7  1  0  0  0  0
  9  6  1  0  0  0  0
 10  6  1  0  0  0  0
 10 19  1  0  0  0  0
 11 17  1  0  0  0  0
 14  4  1  0  0  0  0
 14 13  1  0  0  0  0
 15 16  1  0  0  0  0
 16  8  1  0  0  0  0
 17 12  1  0  0  0  0
 19 18  1  0  0  0  0
 21 20  1  0  0  0  0
 22 21  1  0  0  0  0
 23 22  1  0  0  0  0
 24 21  1  0  0  0  0
 25 24  3  0  0  0  0
 26 20  1  0  0  0  0
 27 26  1  0  0  0  0
 28 27  1  0  0  0  0
 28 29  1  0  0  0  0
 30 28  2  0  0  0  0
M  END
>  <MODEL>
9

>  <REMARK>
 VINA RESULT:      -6.4      2.164      6.109
  Name = 
  7 active torsions:
  status: ('A' for Active; 'I' for Inactive)
    1  A    between atoms: C_1  and  C_22
    2  A    between atoms: C_2  and  C_14
    3  A    between atoms: C_3  and  C_19
    4  A    between atoms: C_14  and  C_20
    5  A    between atoms: C_14  and  C_22
    6  A    between atoms: C_19  and  O_29
    7  A    between atoms: C_22  and  O_29
                            x       y       z     vdW  Elec       q    Type
                         _______ _______ _______ _____ _____    ______ ____

>  <TORSDO>
F 7

$$$$
