=
 OpenBabel10262421423D

 32 36  0  0  1  0  0  0  0  0999 V2000
  188.8500  175.9270  142.8620 C   0  0  0  0  0  2  0  0  0  0  0  0
  190.2410  175.8470  143.4800 C   0  0  0  0  0  2  0  0  0  0  0  0
  189.4840  177.1600  143.4730 C   0  0  0  0  0  0  0  0  0  0  0  0
  191.8210  176.3230  138.3200 C   0  0  0  0  0  0  0  0  0  0  0  0
  189.0490  178.8050  141.6610 O   0  0  0  0  0  0  0  0  0  0  0  0
  189.7320  177.3540  139.8670 C   0  0  0  0  0  0  0  0  0  0  0  0
  191.3270  177.8880  141.7400 C   0  0  0  0  0  2  0  0  0  0  0  0
  192.0790  176.8160  139.6040 C   0  0  0  0  0  3  0  0  0  0  0  0
  190.0350  178.2390  142.5070 C   0  0  2  0  0  3  0  0  0  0  0  0
  190.5150  176.3290  137.8190 C   0  0  0  0  0  3  0  0  0  0  0  0
  191.0350  177.3230  140.3830 C   0  0  0  0  0  0  0  0  0  0  0  0
  189.4690  176.8410  138.5930 C   0  0  0  0  0  3  0  0  0  0  0  0
  188.6080  177.8340  140.7340 C   0  0  0  0  0  2  0  0  0  0  0  0
  192.9290  175.7580  137.5030 C   0  0  0  0  0  2  0  0  0  0  0  0
  194.8590  174.4360  138.4350 C   0  0  0  0  0  0  0  0  0  0  0  0
  194.1340  175.6570  138.3110 N   0  0  0  0  0  2  0  0  0  0  0  0
  196.0850  174.3900  139.2740 C   0  0  0  0  0  1  0  0  0  0  0  0
  194.4730  173.3950  137.8390 O   0  0  0  0  0  0  0  0  0  0  0  0
  188.9620  177.5450  144.8570 C   0  0  1  0  0  3  0  0  0  0  0  0
  185.6180  178.6950  146.1340 C   0  0  0  0  0  0  0  0  0  0  0  0
  184.7780  178.6800  144.9250 C   0  0  0  0  0  0  0  0  0  0  0  0
  183.2390  178.6260  142.5880 C   0  0  0  0  0  3  0  0  0  0  0  0
  187.4320  177.6070  144.8770 C   0  0  2  0  0  3  0  0  0  0  0  0
  182.6320  178.8890  143.8200 C   0  0  0  0  0  3  0  0  0  0  0  0
  183.4000  178.9190  144.9880 C   0  0  0  0  0  3  0  0  0  0  0  0
  186.8760  178.2280  143.5920 C   0  0  0  0  0  2  0  0  0  0  0  0
  185.1580  179.0880  147.2390 O   0  0  0  0  0  0  0  0  0  0  0  0
  184.6160  178.3920  142.5210 C   0  0  0  0  0  3  0  0  0  0  0  0
  186.9500  178.2890  146.0400 O   0  0  0  0  0  0  0  0  0  0  0  0
  185.3880  178.4070  143.6860 C   0  0  0  0  0  0  0  0  0  0  0  0
  189.7040  177.5240  147.5070 S   0  0  0  0  0  1  0  0  0  0  0  0
  189.5320  176.6280  145.9380 C   0  0  0  0  0  2  0  0  0  0  0  0
  1  3  1  0  0  0  0
  1  2  1  0  0  0  0
  3  2  1  0  0  0  0
  3 19  1  0  0  0  0
  4  8  1  0  0  0  0
  5  9  1  0  0  0  0
  6 11  1  0  0  0  0
  6 13  1  0  0  0  0
  8 11  2  0  0  0  0
  9  7  1  6  0  0  0
  9  3  1  0  0  0  0
 10  4  2  0  0  0  0
 10 12  1  0  0  0  0
 11  7  1  0  0  0  0
 12  6  2  0  0  0  0
 13  5  1  0  0  0  0
 14 16  1  0  0  0  0
 14  4  1  0  0  0  0
 15 17  1  0  0  0  0
 16 15  1  0  0  0  0
 18 15  2  0  0  0  0
 19 32  1  1  0  0  0
 20 27  2  0  0  0  0
 21 25  1  0  0  0  0
 21 20  1  0  0  0  0
 22 24  1  0  0  0  0
 23 19  1  6  0  0  0
 23 29  1  0  0  0  0
 24 25  2  0  0  0  0
 26 30  1  0  0  0  0
 26 23  1  0  0  0  0
 28 22  2  0  0  0  0
 28 30  1  0  0  0  0
 29 20  1  0  0  0  0
 30 21  2  0  0  0  0
 32 31  1  0  0  0  0
M  END
>  <MODEL>
1

>  <REMARK>
 VINA RESULT:      -9.4      0.000      0.000
  Name = 
  6 active torsions:
  status: ('A' for Active; 'I' for Inactive)
    1  A    between atoms: C_2  and  C_24
    2  A    between atoms: N_10  and  C_24
    3  A    between atoms: C_14  and  C_15
    4  A    between atoms: C_15  and  C_26
    5  A    between atoms: C_16  and  C_26
    6  A    between atoms: C_25  and  C_26
                            x       y       z     vdW  Elec       q    Type
                         _______ _______ _______ _____ _____    ______ ____

>  <TORSDO>
F 6

$$$$
=
 OpenBabel10262421423D

 32 36  0  0  1  0  0  0  0  0999 V2000
  189.9960  175.5830  143.2950 C   0  0  0  0  0  2  0  0  0  0  0  0
  191.4810  175.3110  143.5050 C   0  0  0  0  0  2  0  0  0  0  0  0
  190.9050  176.6790  143.8130 C   0  0  0  0  0  0  0  0  0  0  0  0
  189.8300  176.9140  138.2000 C   0  0  0  0  0  0  0  0  0  0  0  0
  190.3740  178.8720  142.7700 O   0  0  0  0  0  0  0  0  0  0  0  0
  189.4150  177.9450  140.7660 C   0  0  0  0  0  0  0  0  0  0  0  0
  191.7750  177.3660  141.4250 C   0  0  0  0  0  2  0  0  0  0  0  0
  190.8610  176.8710  139.1460 C   0  0  0  0  0  3  0  0  0  0  0  0
  191.3070  177.8060  142.8280 C   0  0  2  0  0  3  0  0  0  0  0  0
  188.5870  177.4550  138.5460 C   0  0  0  0  0  3  0  0  0  0  0  0
  190.6530  177.3770  140.4320 C   0  0  0  0  0  0  0  0  0  0  0  0
  188.3780  177.9680  139.8300 C   0  0  0  0  0  3  0  0  0  0  0  0
  189.1780  178.4210  142.1670 C   0  0  0  0  0  2  0  0  0  0  0  0
  190.0440  176.3510  136.8400 C   0  0  0  0  0  2  0  0  0  0  0  0
  189.4430  173.9070  136.9460 C   0  0  0  0  0  0  0  0  0  0  0  0
  189.1160  175.2540  136.6110 N   0  0  0  0  0  2  0  0  0  0  0  0
  188.4550  172.8260  136.6900 C   0  0  0  0  0  1  0  0  0  0  0  0
  190.5580  173.6240  137.4580 O   0  0  0  0  0  0  0  0  0  0  0  0
  190.8090  176.9520  145.3140 C   0  0  1  0  0  3  0  0  0  0  0  0
  188.0220  177.8770  147.6610 C   0  0  0  0  0  0  0  0  0  0  0  0
  186.8830  178.0950  146.7540 C   0  0  0  0  0  0  0  0  0  0  0  0
  184.7600  178.4890  144.9740 C   0  0  0  0  0  3  0  0  0  0  0  0
  189.3500  177.0240  145.7740 C   0  0  2  0  0  3  0  0  0  0  0  0
  184.5330  178.5250  146.3520 C   0  0  0  0  0  3  0  0  0  0  0  0
  185.5920  178.3310  147.2430 C   0  0  0  0  0  3  0  0  0  0  0  0
  188.5020  177.8780  144.8270 C   0  0  0  0  0  2  0  0  0  0  0  0
  187.9090  178.0630  148.9020 O   0  0  0  0  0  0  0  0  0  0  0  0
  186.0490  178.2580  144.4810 C   0  0  0  0  0  3  0  0  0  0  0  0
  189.2500  177.4830  147.1260 O   0  0  0  0  0  0  0  0  0  0  0  0
  187.1110  178.0510  145.3660 C   0  0  0  0  0  0  0  0  0  0  0  0
  191.9770  176.5810  147.7780 S   0  0  0  0  0  1  0  0  0  0  0  0
  191.6340  175.9450  146.1130 C   0  0  0  0  0  2  0  0  0  0  0  0
  1  2  1  0  0  0  0
  1  3  1  0  0  0  0
  2  3  1  0  0  0  0
  3 19  1  0  0  0  0
  4 10  2  0  0  0  0
  4  8  1  0  0  0  0
  5  9  1  0  0  0  0
  6 13  1  0  0  0  0
  8 11  2  0  0  0  0
  9  7  1  6  0  0  0
  9  3  1  0  0  0  0
 10 12  1  0  0  0  0
 11  6  1  0  0  0  0
 11  7  1  0  0  0  0
 12  6  2  0  0  0  0
 13  5  1  0  0  0  0
 14  4  1  0  0  0  0
 15 18  2  0  0  0  0
 16 14  1  0  0  0  0
 16 15  1  0  0  0  0
 17 15  1  0  0  0  0
 19 32  1  1  0  0  0
 20 27  2  0  0  0  0
 21 25  1  0  0  0  0
 21 20  1  0  0  0  0
 22 24  1  0  0  0  0
 23 19  1  6  0  0  0
 23 29  1  0  0  0  0
 24 25  2  0  0  0  0
 26 30  1  0  0  0  0
 26 23  1  0  0  0  0
 28 22  2  0  0  0  0
 28 30  1  0  0  0  0
 29 20  1  0  0  0  0
 30 21  2  0  0  0  0
 32 31  1  0  0  0  0
M  END
>  <MODEL>
2

>  <REMARK>
 VINA RESULT:      -9.2      2.328      2.972
  Name = 
  6 active torsions:
  status: ('A' for Active; 'I' for Inactive)
    1  A    between atoms: C_2  and  C_24
    2  A    between atoms: N_10  and  C_24
    3  A    between atoms: C_14  and  C_15
    4  A    between atoms: C_15  and  C_26
    5  A    between atoms: C_16  and  C_26
    6  A    between atoms: C_25  and  C_26
                            x       y       z     vdW  Elec       q    Type
                         _______ _______ _______ _____ _____    ______ ____

>  <TORSDO>
F 6

$$$$
=
 OpenBabel10262421423D

 32 36  0  0  1  0  0  0  0  0999 V2000
  191.2820  177.8090  144.8010 C   0  0  0  0  0  2  0  0  0  0  0  0
  190.4300  178.7280  143.9340 C   0  0  0  0  0  2  0  0  0  0  0  0
  189.8120  177.5090  144.5890 C   0  0  0  0  0  0  0  0  0  0  0  0
  189.0660  177.8230  138.9270 C   0  0  0  0  0  0  0  0  0  0  0  0
  190.5680  175.6220  143.1590 O   0  0  0  0  0  0  0  0  0  0  0  0
  190.5440  176.8710  141.1020 C   0  0  0  0  0  0  0  0  0  0  0  0
  188.4530  176.6810  142.4920 C   0  0  0  0  0  2  0  0  0  0  0  0
  188.4200  177.5150  140.1300 C   0  0  0  0  0  3  0  0  0  0  0  0
  189.4460  176.3510  143.6260 C   0  0  2  0  0  3  0  0  0  0  0  0
  190.4530  177.6720  138.8200 C   0  0  0  0  0  3  0  0  0  0  0  0
  189.1580  177.0480  141.2220 C   0  0  0  0  0  0  0  0  0  0  0  0
  191.1930  177.2000  139.9080 C   0  0  0  0  0  3  0  0  0  0  0  0
  191.3360  176.4370  142.2970 C   0  0  0  0  0  2  0  0  0  0  0  0
  188.2830  178.3460  137.7750 C   0  0  0  0  0  2  0  0  0  0  0  0
  185.8270  177.7920  137.7370 C   0  0  0  0  0  0  0  0  0  0  0  0
  186.9120  178.6000  138.1870 N   0  0  0  0  0  2  0  0  0  0  0  0
  184.4450  178.0980  138.1910 C   0  0  0  0  0  1  0  0  0  0  0  0
  186.0260  176.8210  136.9600 O   0  0  0  0  0  0  0  0  0  0  0  0
  188.8960  177.8710  145.7580 C   0  0  1  0  0  3  0  0  0  0  0  0
  185.2050  178.4210  146.2120 C   0  0  0  0  0  0  0  0  0  0  0  0
  184.7190  178.5680  144.8300 C   0  0  0  0  0  0  0  0  0  0  0  0
  183.8620  178.8310  142.1790 C   0  0  0  0  0  3  0  0  0  0  0  0
  187.4210  177.7820  145.3560 C   0  0  2  0  0  3  0  0  0  0  0  0
  182.9250  178.7860  143.2160 C   0  0  0  0  0  3  0  0  0  0  0  0
  183.3510  178.6570  144.5410 C   0  0  0  0  0  3  0  0  0  0  0  0
  187.1320  178.5900  144.0870 C   0  0  0  0  0  2  0  0  0  0  0  0
  184.4220  178.5420  147.1920 O   0  0  0  0  0  0  0  0  0  0  0  0
  185.2280  178.7470  142.4650 C   0  0  0  0  0  3  0  0  0  0  0  0
  186.5610  178.1710  146.4320 O   0  0  0  0  0  0  0  0  0  0  0  0
  185.6610  178.6050  143.7860 C   0  0  0  0  0  0  0  0  0  0  0  0
  189.1940  178.0750  148.4860 S   0  0  0  0  0  1  0  0  0  0  0  0
  189.2240  177.0390  146.9960 C   0  0  0  0  0  2  0  0  0  0  0  0
  2  3  1  0  0  0  0
  2  1  1  0  0  0  0
  3  1  1  0  0  0  0
  3 19  1  0  0  0  0
  4  8  1  0  0  0  0
  5  9  1  0  0  0  0
  6 11  1  0  0  0  0
  6 13  1  0  0  0  0
  8 11  2  0  0  0  0
  9  7  1  6  0  0  0
  9  3  1  0  0  0  0
 10  4  2  0  0  0  0
 10 12  1  0  0  0  0
 11  7  1  0  0  0  0
 12  6  2  0  0  0  0
 13  5  1  0  0  0  0
 14 16  1  0  0  0  0
 14  4  1  0  0  0  0
 15 16  1  0  0  0  0
 15 17  1  0  0  0  0
 18 15  2  0  0  0  0
 19 32  1  1  0  0  0
 20 29  1  0  0  0  0
 20 27  2  0  0  0  0
 21 20  1  0  0  0  0
 22 28  2  0  0  0  0
 22 24  1  0  0  0  0
 23 19  1  1  0  0  0
 23 29  1  0  0  0  0
 24 25  2  0  0  0  0
 25 21  1  0  0  0  0
 26 23  1  0  0  0  0
 28 30  1  0  0  0  0
 30 26  1  0  0  0  0
 30 21  2  0  0  0  0
 32 31  1  0  0  0  0
M  END
>  <MODEL>
3

>  <REMARK>
 VINA RESULT:      -9.2      2.599      4.064
  Name = 
  6 active torsions:
  status: ('A' for Active; 'I' for Inactive)
    1  A    between atoms: C_2  and  C_24
    2  A    between atoms: N_10  and  C_24
    3  A    between atoms: C_14  and  C_15
    4  A    between atoms: C_15  and  C_26
    5  A    between atoms: C_16  and  C_26
    6  A    between atoms: C_25  and  C_26
                            x       y       z     vdW  Elec       q    Type
                         _______ _______ _______ _____ _____    ______ ____

>  <TORSDO>
F 6

$$$$
=
 OpenBabel10262421423D

 32 36  0  0  1  0  0  0  0  0999 V2000
  188.7130  176.0030  142.8440 C   0  0  0  0  0  2  0  0  0  0  0  0
  190.0500  175.6940  143.5040 C   0  0  0  0  0  2  0  0  0  0  0  0
  189.5070  177.1090  143.5070 C   0  0  0  0  0  0  0  0  0  0  0  0
  190.3730  176.6480  137.8720 C   0  0  0  0  0  0  0  0  0  0  0  0
  189.4330  179.1540  142.0960 O   0  0  0  0  0  0  0  0  0  0  0  0
  189.1640  177.9830  140.0110 C   0  0  0  0  0  0  0  0  0  0  0  0
  191.1470  177.5030  141.4860 C   0  0  0  0  0  2  0  0  0  0  0  0
  191.0280  176.7270  139.1070 C   0  0  0  0  0  3  0  0  0  0  0  0
  190.2540  178.1090  142.5880 C   0  0  2  0  0  3  0  0  0  0  0  0
  189.1060  177.2200  137.7150 C   0  0  0  0  0  3  0  0  0  0  0  0
  190.4210  177.3860  140.1800 C   0  0  0  0  0  0  0  0  0  0  0  0
  188.4990  177.8850  138.7850 C   0  0  0  0  0  3  0  0  0  0  0  0
  188.4910  178.6260  141.1850 C   0  0  0  0  0  2  0  0  0  0  0  0
  191.0080  175.9230  136.7380 C   0  0  0  0  0  2  0  0  0  0  0  0
  189.4380  174.0250  136.2140 C   0  0  0  0  0  0  0  0  0  0  0  0
  189.9810  175.3080  135.9120 N   0  0  0  0  0  2  0  0  0  0  0  0
  188.3900  173.4450  135.3340 C   0  0  0  0  0  1  0  0  0  0  0  0
  189.8360  173.3780  137.2180 O   0  0  0  0  0  0  0  0  0  0  0  0
  189.0020  177.5410  144.8830 C   0  0  1  0  0  3  0  0  0  0  0  0
  185.6650  178.6380  146.2240 C   0  0  0  0  0  0  0  0  0  0  0  0
  184.8110  178.6430  145.0250 C   0  0  0  0  0  0  0  0  0  0  0  0
  183.2430  178.6280  142.7070 C   0  0  0  0  0  3  0  0  0  0  0  0
  187.4710  177.5920  144.9220 C   0  0  2  0  0  3  0  0  0  0  0  0
  182.6500  178.8590  143.9510 C   0  0  0  0  0  3  0  0  0  0  0  0
  183.4310  178.8700  145.1100 C   0  0  0  0  0  3  0  0  0  0  0  0
  186.8950  178.2370  143.6580 C   0  0  0  0  0  2  0  0  0  0  0  0
  185.2160  179.0030  147.3430 O   0  0  0  0  0  0  0  0  0  0  0  0
  184.6210  178.4060  142.6180 C   0  0  0  0  0  3  0  0  0  0  0  0
  186.9990  178.2440  146.1060 O   0  0  0  0  0  0  0  0  0  0  0  0
  185.4070  178.4020  143.7740 C   0  0  0  0  0  0  0  0  0  0  0  0
  189.7230  177.6100  147.5380 S   0  0  0  0  0  1  0  0  0  0  0  0
  189.5950  176.6720  145.9890 C   0  0  0  0  0  2  0  0  0  0  0  0
  1  2  1  0  0  0  0
  1  3  1  0  0  0  0
  2  3  1  0  0  0  0
  3 19  1  0  0  0  0
  4  8  1  0  0  0  0
  5  9  1  0  0  0  0
  6 11  1  0  0  0  0
  6 13  1  0  0  0  0
  8 11  2  0  0  0  0
  9  7  1  6  0  0  0
  9  3  1  0  0  0  0
 10  4  2  0  0  0  0
 10 12  1  0  0  0  0
 11  7  1  0  0  0  0
 12  6  2  0  0  0  0
 13  5  1  0  0  0  0
 14  4  1  0  0  0  0
 15 18  2  0  0  0  0
 16 15  1  0  0  0  0
 16 14  1  0  0  0  0
 17 15  1  0  0  0  0
 19 32  1  1  0  0  0
 20 27  2  0  0  0  0
 21 25  1  0  0  0  0
 21 20  1  0  0  0  0
 22 24  1  0  0  0  0
 23 19  1  6  0  0  0
 23 29  1  0  0  0  0
 24 25  2  0  0  0  0
 26 30  1  0  0  0  0
 26 23  1  0  0  0  0
 28 22  2  0  0  0  0
 28 30  1  0  0  0  0
 29 20  1  0  0  0  0
 30 21  2  0  0  0  0
 32 31  1  0  0  0  0
M  END
>  <MODEL>
4

>  <REMARK>
 VINA RESULT:      -8.8      1.829      2.312
  Name = 
  6 active torsions:
  status: ('A' for Active; 'I' for Inactive)
    1  A    between atoms: C_2  and  C_24
    2  A    between atoms: N_10  and  C_24
    3  A    between atoms: C_14  and  C_15
    4  A    between atoms: C_15  and  C_26
    5  A    between atoms: C_16  and  C_26
    6  A    between atoms: C_25  and  C_26
                            x       y       z     vdW  Elec       q    Type
                         _______ _______ _______ _____ _____    ______ ____

>  <TORSDO>
F 6

$$$$
=
 OpenBabel10262421423D

 32 36  0  0  1  0  0  0  0  0999 V2000
  182.3820  175.9530  139.7650 C   0  0  0  0  0  2  0  0  0  0  0  0
  181.1460  176.3740  138.9810 C   0  0  0  0  0  2  0  0  0  0  0  0
  182.4700  177.0750  138.7510 C   0  0  0  0  0  0  0  0  0  0  0  0
  184.4300  178.7640  143.8520 C   0  0  0  0  0  0  0  0  0  0  0  0
  183.7430  179.2040  138.9190 O   0  0  0  0  0  0  0  0  0  0  0  0
  184.7080  178.7240  141.0700 C   0  0  0  0  0  0  0  0  0  0  0  0
  182.2070  178.7340  140.7790 C   0  0  0  0  0  2  0  0  0  0  0  0
  183.2930  178.7430  143.0370 C   0  0  0  0  0  3  0  0  0  0  0  0
  182.5540  178.5260  139.2900 C   0  0  2  0  0  3  0  0  0  0  0  0
  185.7040  178.7450  143.2750 C   0  0  0  0  0  3  0  0  0  0  0  0
  183.4290  178.7130  141.6460 C   0  0  0  0  0  0  0  0  0  0  0  0
  185.8440  178.7210  141.8850 C   0  0  0  0  0  3  0  0  0  0  0  0
  184.8460  178.6210  139.5820 C   0  0  0  0  0  2  0  0  0  0  0  0
  184.2830  178.7680  145.3330 C   0  0  0  0  0  2  0  0  0  0  0  0
  186.1420  178.7380  147.0320 C   0  0  0  0  0  0  0  0  0  0  0  0
  185.4440  178.1380  145.9430 N   0  0  0  0  0  2  0  0  0  0  0  0
  187.3220  178.0490  147.6170 C   0  0  0  0  0  1  0  0  0  0  0  0
  185.7690  179.8440  147.5050 O   0  0  0  0  0  0  0  0  0  0  0  0
  183.1090  176.7010  137.4150 C   0  0  1  0  0  3  0  0  0  0  0  0
  184.6600  173.2980  137.0280 C   0  0  0  0  0  0  0  0  0  0  0  0
  186.1010  173.5930  136.9800 C   0  0  0  0  0  0  0  0  0  0  0  0
  188.8260  174.2260  136.9000 C   0  0  0  0  0  3  0  0  0  0  0  0
  184.2050  175.6470  137.5990 C   0  0  2  0  0  3  0  0  0  0  0  0
  188.4190  172.8890  136.9380 C   0  0  0  0  0  3  0  0  0  0  0  0
  187.0580  172.5710  136.9750 C   0  0  0  0  0  3  0  0  0  0  0  0
  185.4950  176.0430  136.8750 C   0  0  0  0  0  2  0  0  0  0  0  0
  184.2330  172.1190  136.8950 O   0  0  0  0  0  0  0  0  0  0  0  0
  187.8730  175.2490  136.9000 C   0  0  0  0  0  3  0  0  0  0  0  0
  183.7560  174.3480  137.1980 O   0  0  0  0  0  0  0  0  0  0  0  0
  186.5100  174.9400  136.9500 C   0  0  0  0  0  0  0  0  0  0  0  0
  182.4440  176.9690  134.7580 S   0  0  0  0  0  1  0  0  0  0  0  0
  182.0530  176.2860  136.3930 C   0  0  0  0  0  2  0  0  0  0  0  0
  2  1  1  0  0  0  0
  3  2  1  0  0  0  0
  3  1  1  0  0  0  0
  4 14  1  0  0  0  0
  5  9  1  0  0  0  0
  5 13  1  0  0  0  0
  6 11  2  0  0  0  0
  6 12  1  0  0  0  0
  7 11  1  0  0  0  0
  8  4  2  0  0  0  0
  9  3  1  1  0  0  0
  9  7  1  0  0  0  0
 10  4  1  0  0  0  0
 11  8  1  0  0  0  0
 12 10  2  0  0  0  0
 13  6  1  0  0  0  0
 14 16  1  0  0  0  0
 15 18  2  0  0  0  0
 15 17  1  0  0  0  0
 16 15  1  0  0  0  0
 19 32  1  6  0  0  0
 19  3  1  0  0  0  0
 20 29  1  0  0  0  0
 21 20  1  0  0  0  0
 22 24  1  0  0  0  0
 23 19  1  6  0  0  0
 24 25  2  0  0  0  0
 25 21  1  0  0  0  0
 26 30  1  0  0  0  0
 26 23  1  0  0  0  0
 27 20  2  0  0  0  0
 28 22  2  0  0  0  0
 28 30  1  0  0  0  0
 29 23  1  0  0  0  0
 30 21  2  0  0  0  0
 31 32  1  0  0  0  0
M  END
>  <MODEL>
5

>  <REMARK>
 VINA RESULT:      -8.3      5.326      9.807
  Name = 
  6 active torsions:
  status: ('A' for Active; 'I' for Inactive)
    1  A    between atoms: C_2  and  C_24
    2  A    between atoms: N_10  and  C_24
    3  A    between atoms: C_14  and  C_15
    4  A    between atoms: C_15  and  C_26
    5  A    between atoms: C_16  and  C_26
    6  A    between atoms: C_25  and  C_26
                            x       y       z     vdW  Elec       q    Type
                         _______ _______ _______ _____ _____    ______ ____

>  <TORSDO>
F 6

$$$$
=
 OpenBabel10262421423D

 32 36  0  0  1  0  0  0  0  0999 V2000
  190.2020  175.6250  142.8450 C   0  0  0  0  0  2  0  0  0  0  0  0
  191.6180  175.8540  143.3600 C   0  0  0  0  0  2  0  0  0  0  0  0
  190.6340  177.0050  143.2970 C   0  0  0  0  0  0  0  0  0  0  0  0
  192.5340  176.0650  137.9850 C   0  0  0  0  0  0  0  0  0  0  0  0
  189.7800  178.4130  141.4360 O   0  0  0  0  0  0  0  0  0  0  0  0
  190.4830  176.9240  139.6810 C   0  0  0  0  0  0  0  0  0  0  0  0
  192.1640  177.8310  141.3210 C   0  0  0  0  0  2  0  0  0  0  0  0
  192.8460  176.6970  139.1940 C   0  0  0  0  0  3  0  0  0  0  0  0
  190.9200  178.0640  142.2020 C   0  0  2  0  0  3  0  0  0  0  0  0
  191.1970  175.8470  137.6350 C   0  0  0  0  0  3  0  0  0  0  0  0
  191.8220  177.1180  140.0490 C   0  0  0  0  0  0  0  0  0  0  0  0
  190.1710  176.2730  138.4840 C   0  0  0  0  0  3  0  0  0  0  0  0
  189.3950  177.3150  140.6340 C   0  0  0  0  0  2  0  0  0  0  0  0
  193.6240  175.5920  137.0890 C   0  0  0  0  0  2  0  0  0  0  0  0
  195.4240  174.0140  137.8710 C   0  0  0  0  0  0  0  0  0  0  0  0
  194.8140  175.3020  137.8740 N   0  0  0  0  0  2  0  0  0  0  0  0
  196.6390  173.7740  138.6920 C   0  0  0  0  0  1  0  0  0  0  0  0
  194.9450  173.0770  137.1790 O   0  0  0  0  0  0  0  0  0  0  0  0
  190.1340  177.4260  144.6790 C   0  0  1  0  0  3  0  0  0  0  0  0
  186.7440  177.9730  143.1480 C   0  0  0  0  0  0  0  0  0  0  0  0
  185.8850  178.2100  144.3190 C   0  0  0  0  0  0  0  0  0  0  0  0
  184.3110  178.6560  146.5900 C   0  0  0  0  0  3  0  0  0  0  0  0
  188.7270  178.0280  144.6010 C   0  0  2  0  0  3  0  0  0  0  0  0
  183.7620  178.8190  145.3150 C   0  0  0  0  0  3  0  0  0  0  0  0
  184.5450  178.5940  144.1790 C   0  0  0  0  0  3  0  0  0  0  0  0
  187.8500  177.5650  145.7680 C   0  0  0  0  0  2  0  0  0  0  0  0
  186.2610  177.9420  141.9840 O   0  0  0  0  0  0  0  0  0  0  0  0
  185.6460  178.2680  146.7330 C   0  0  0  0  0  3  0  0  0  0  0  0
  188.1090  177.7550  143.3390 O   0  0  0  0  0  0  0  0  0  0  0  0
  186.4400  178.0540  145.6030 C   0  0  0  0  0  0  0  0  0  0  0  0
  191.2810  176.7380  147.0840 S   0  0  0  0  0  1  0  0  0  0  0  0
  190.2310  176.2740  145.6770 C   0  0  0  0  0  2  0  0  0  0  0  0
  1  3  1  0  0  0  0
  1  2  1  0  0  0  0
  3  2  1  0  0  0  0
  3 19  1  0  0  0  0
  4  8  1  0  0  0  0
  5  9  1  0  0  0  0
  6 11  1  0  0  0  0
  6 13  1  0  0  0  0
  8 11  2  0  0  0  0
  9  7  1  6  0  0  0
  9  3  1  0  0  0  0
 10  4  2  0  0  0  0
 10 12  1  0  0  0  0
 11  7  1  0  0  0  0
 12  6  2  0  0  0  0
 13  5  1  0  0  0  0
 14 16  1  0  0  0  0
 14  4  1  0  0  0  0
 15 16  1  0  0  0  0
 15 17  1  0  0  0  0
 18 15  2  0  0  0  0
 19 32  1  1  0  0  0
 20 29  1  0  0  0  0
 20 21  1  0  0  0  0
 21 30  1  0  0  0  0
 22 28  1  0  0  0  0
 23 19  1  6  0  0  0
 23 26  1  0  0  0  0
 24 22  2  0  0  0  0
 25 21  2  0  0  0  0
 25 24  1  0  0  0  0
 27 20  2  0  0  0  0
 29 23  1  0  0  0  0
 30 26  1  0  0  0  0
 30 28  2  0  0  0  0
 32 31  1  0  0  0  0
M  END
>  <MODEL>
6

>  <REMARK>
 VINA RESULT:      -8.2      1.450      2.006
  Name = 
  6 active torsions:
  status: ('A' for Active; 'I' for Inactive)
    1  A    between atoms: C_2  and  C_24
    2  A    between atoms: N_10  and  C_24
    3  A    between atoms: C_14  and  C_15
    4  A    between atoms: C_15  and  C_26
    5  A    between atoms: C_16  and  C_26
    6  A    between atoms: C_25  and  C_26
                            x       y       z     vdW  Elec       q    Type
                         _______ _______ _______ _____ _____    ______ ____

>  <TORSDO>
F 6

$$$$
=
 OpenBabel10262421423D

 32 36  0  0  1  0  0  0  0  0999 V2000
  192.0810  178.3770  143.6240 C   0  0  0  0  0  2  0  0  0  0  0  0
  190.6400  178.8730  143.6450 C   0  0  0  0  0  2  0  0  0  0  0  0
  190.9590  177.4420  144.0260 C   0  0  0  0  0  0  0  0  0  0  0  0
  187.7820  178.2340  139.3370 C   0  0  0  0  0  0  0  0  0  0  0  0
  191.4690  176.1290  141.9780 O   0  0  0  0  0  0  0  0  0  0  0  0
  190.2430  177.5570  140.4790 C   0  0  0  0  0  0  0  0  0  0  0  0
  189.0830  176.4900  142.4430 C   0  0  0  0  0  2  0  0  0  0  0  0
  187.8220  177.5700  140.5670 C   0  0  0  0  0  3  0  0  0  0  0  0
  190.5170  176.3670  143.0000 C   0  0  2  0  0  3  0  0  0  0  0  0
  188.9740  178.5760  138.6880 C   0  0  0  0  0  3  0  0  0  0  0  0
  189.0510  177.2390  141.1460 C   0  0  0  0  0  0  0  0  0  0  0  0
  190.2040  178.2420  139.2610 C   0  0  0  0  0  3  0  0  0  0  0  0
  191.5550  177.2620  141.1390 C   0  0  0  0  0  2  0  0  0  0  0  0
  186.4740  178.6100  138.7360 C   0  0  0  0  0  2  0  0  0  0  0  0
  184.2830  179.2280  139.8130 C   0  0  0  0  0  0  0  0  0  0  0  0
  185.4040  178.3560  139.6880 N   0  0  0  0  0  2  0  0  0  0  0  0
  183.2180  178.9190  140.8030 C   0  0  0  0  0  1  0  0  0  0  0  0
  184.1840  180.2560  139.0930 O   0  0  0  0  0  0  0  0  0  0  0  0
  190.8240  177.1890  145.5270 C   0  0  1  0  0  3  0  0  0  0  0  0
  187.9600  178.0440  147.8080 C   0  0  0  0  0  0  0  0  0  0  0  0
  186.8270  178.1850  146.8790 C   0  0  0  0  0  0  0  0  0  0  0  0
  184.7170  178.4340  145.0590 C   0  0  0  0  0  3  0  0  0  0  0  0
  189.3560  177.2060  145.9640 C   0  0  2  0  0  3  0  0  0  0  0  0
  184.4660  178.4950  146.4320 C   0  0  0  0  0  3  0  0  0  0  0  0
  185.5190  178.3740  147.3440 C   0  0  0  0  0  3  0  0  0  0  0  0
  188.4840  177.9940  144.9830 C   0  0  0  0  0  2  0  0  0  0  0  0
  187.8190  178.2560  149.0420 O   0  0  0  0  0  0  0  0  0  0  0  0
  186.0220  178.2510  144.5910 C   0  0  0  0  0  3  0  0  0  0  0  0
  189.2140  177.6940  147.3020 O   0  0  0  0  0  0  0  0  0  0  0  0
  187.0790  178.1160  145.4960 C   0  0  0  0  0  0  0  0  0  0  0  0
  192.0630  176.0050  147.6810 S   0  0  0  0  0  1  0  0  0  0  0  0
  191.5520  175.9120  145.9410 C   0  0  0  0  0  2  0  0  0  0  0  0
  1  2  1  0  0  0  0
  1  3  1  0  0  0  0
  2  3  1  0  0  0  0
  3 19  1  0  0  0  0
  4  8  1  0  0  0  0
  5  9  1  0  0  0  0
  6 13  1  0  0  0  0
  6 11  1  0  0  0  0
  8 11  2  0  0  0  0
  9  7  1  6  0  0  0
  9  3  1  0  0  0  0
 10 12  1  0  0  0  0
 10  4  2  0  0  0  0
 11  7  1  0  0  0  0
 12  6  2  0  0  0  0
 13  5  1  0  0  0  0
 14  4  1  0  0  0  0
 14 16  1  0  0  0  0
 15 17  1  0  0  0  0
 16 15  1  0  0  0  0
 18 15  2  0  0  0  0
 19 32  1  6  0  0  0
 20 27  2  0  0  0  0
 21 25  1  0  0  0  0
 21 20  1  0  0  0  0
 22 24  1  0  0  0  0
 23 19  1  6  0  0  0
 23 29  1  0  0  0  0
 24 25  2  0  0  0  0
 26 30  1  0  0  0  0
 26 23  1  0  0  0  0
 28 22  2  0  0  0  0
 28 30  1  0  0  0  0
 29 20  1  0  0  0  0
 30 21  2  0  0  0  0
 32 31  1  0  0  0  0
M  END
>  <MODEL>
7

>  <REMARK>
 VINA RESULT:      -8.2      2.971      5.120
  Name = 
  6 active torsions:
  status: ('A' for Active; 'I' for Inactive)
    1  A    between atoms: C_2  and  C_24
    2  A    between atoms: N_10  and  C_24
    3  A    between atoms: C_14  and  C_15
    4  A    between atoms: C_15  and  C_26
    5  A    between atoms: C_16  and  C_26
    6  A    between atoms: C_25  and  C_26
                            x       y       z     vdW  Elec       q    Type
                         _______ _______ _______ _____ _____    ______ ____

>  <TORSDO>
F 6

$$$$
=
 OpenBabel10262421423D

 32 36  0  0  1  0  0  0  0  0999 V2000
  180.3000  176.6800  140.8270 C   0  0  0  0  0  2  0  0  0  0  0  0
  179.0560  177.4250  140.3600 C   0  0  0  0  0  2  0  0  0  0  0  0
  180.4200  177.8080  139.8220 C   0  0  0  0  0  0  0  0  0  0  0  0
  183.8830  178.6840  144.2900 C   0  0  0  0  0  0  0  0  0  0  0  0
  182.1690  179.5680  139.6760 O   0  0  0  0  0  0  0  0  0  0  0  0
  183.4740  178.7480  141.5240 C   0  0  0  0  0  0  0  0  0  0  0  0
  181.0530  179.3560  141.8550 C   0  0  0  0  0  2  0  0  0  0  0  0
  182.6140  178.9770  143.7770 C   0  0  0  0  0  3  0  0  0  0  0  0
  180.9760  179.1640  140.3260 C   0  0  2  0  0  3  0  0  0  0  0  0
  184.9410  178.4050  143.4180 C   0  0  0  0  0  3  0  0  0  0  0  0
  182.4050  179.0000  142.3950 C   0  0  0  0  0  0  0  0  0  0  0  0
  184.7360  178.4330  142.0350 C   0  0  0  0  0  3  0  0  0  0  0  0
  183.2250  178.7060  140.0470 C   0  0  0  0  0  2  0  0  0  0  0  0
  184.0980  178.6330  145.7610 C   0  0  0  0  0  2  0  0  0  0  0  0
  186.3070  178.5770  146.9700 C   0  0  0  0  0  0  0  0  0  0  0  0
  185.3790  178.0070  146.0490 N   0  0  0  0  0  2  0  0  0  0  0  0
  187.6020  177.8940  147.2260 C   0  0  0  0  0  1  0  0  0  0  0  0
  186.0400  179.6520  147.5690 O   0  0  0  0  0  0  0  0  0  0  0  0
  180.6240  177.3710  138.3720 C   0  0  1  0  0  3  0  0  0  0  0  0
  180.4370  173.8120  137.1740 C   0  0  0  0  0  0  0  0  0  0  0  0
  181.8460  173.3860  137.1800 C   0  0  0  0  0  0  0  0  0  0  0  0
  184.5430  172.6400  137.2210 C   0  0  0  0  0  3  0  0  0  0  0  0
  181.0760  175.9100  138.2890 C   0  0  2  0  0  3  0  0  0  0  0  0
  183.5580  171.6870  136.9460 C   0  0  0  0  0  3  0  0  0  0  0  0
  182.2100  172.0580  136.9230 C   0  0  0  0  0  3  0  0  0  0  0  0
  182.4690  175.7850  137.6640 C   0  0  0  0  0  2  0  0  0  0  0  0
  179.5270  173.0400  136.7710 O   0  0  0  0  0  0  0  0  0  0  0  0
  184.1840  173.9680  137.4730 C   0  0  0  0  0  3  0  0  0  0  0  0
  180.1170  175.1030  137.5980 O   0  0  0  0  0  0  0  0  0  0  0  0
  182.8370  174.3440  137.4650 C   0  0  0  0  0  0  0  0  0  0  0  0
  179.8540  178.2660  135.8850 S   0  0  0  0  0  1  0  0  0  0  0  0
  179.3830  177.6570  137.5290 C   0  0  0  0  0  2  0  0  0  0  0  0
  2  1  1  0  0  0  0
  3  2  1  0  0  0  0
  3  1  1  0  0  0  0
  4 14  1  0  0  0  0
  5 13  1  0  0  0  0
  5  9  1  0  0  0  0
  6 12  2  0  0  0  0
  6 11  1  0  0  0  0
  7 11  1  0  0  0  0
  8  4  1  0  0  0  0
  9  3  1  1  0  0  0
  9  7  1  0  0  0  0
 10  4  2  0  0  0  0
 11  8  2  0  0  0  0
 12 10  1  0  0  0  0
 13  6  1  0  0  0  0
 14 16  1  0  0  0  0
 15 17  1  0  0  0  0
 15 18  2  0  0  0  0
 16 15  1  0  0  0  0
 19 32  1  6  0  0  0
 19  3  1  0  0  0  0
 20 21  1  0  0  0  0
 20 29  1  0  0  0  0
 21 30  1  0  0  0  0
 22 28  1  0  0  0  0
 23 19  1  6  0  0  0
 24 22  2  0  0  0  0
 25 24  1  0  0  0  0
 25 21  2  0  0  0  0
 26 23  1  0  0  0  0
 27 20  2  0  0  0  0
 29 23  1  0  0  0  0
 30 28  2  0  0  0  0
 30 26  1  0  0  0  0
 31 32  1  0  0  0  0
M  END
>  <MODEL>
8

>  <REMARK>
 VINA RESULT:      -8.1      6.650     10.356
  Name = 
  6 active torsions:
  status: ('A' for Active; 'I' for Inactive)
    1  A    between atoms: C_2  and  C_24
    2  A    between atoms: N_10  and  C_24
    3  A    between atoms: C_14  and  C_15
    4  A    between atoms: C_15  and  C_26
    5  A    between atoms: C_16  and  C_26
    6  A    between atoms: C_25  and  C_26
                            x       y       z     vdW  Elec       q    Type
                         _______ _______ _______ _____ _____    ______ ____

>  <TORSDO>
F 6

$$$$
=
 OpenBabel10262421423D

 32 36  0  0  1  0  0  0  0  0999 V2000
  189.6400  175.6290  142.5380 C   0  0  0  0  0  2  0  0  0  0  0  0
  188.7350  176.7540  142.0520 C   0  0  0  0  0  2  0  0  0  0  0  0
  190.2410  176.8800  141.9290 C   0  0  0  0  0  0  0  0  0  0  0  0
  188.9140  177.8380  147.4100 C   0  0  0  0  0  0  0  0  0  0  0  0
  192.0560  177.4020  143.5450 O   0  0  0  0  0  0  0  0  0  0  0  0
  190.7550  176.9280  145.5120 C   0  0  0  0  0  0  0  0  0  0  0  0
  189.9630  178.6510  143.8570 C   0  0  0  0  0  2  0  0  0  0  0  0
  188.9690  178.4370  146.1460 C   0  0  0  0  0  3  0  0  0  0  0  0
  190.9020  177.9010  142.8900 C   0  0  2  0  0  3  0  0  0  0  0  0
  189.7670  176.7720  147.7160 C   0  0  0  0  0  3  0  0  0  0  0  0
  189.8820  177.9770  145.1920 C   0  0  0  0  0  0  0  0  0  0  0  0
  190.6850  176.3140  146.7660 C   0  0  0  0  0  3  0  0  0  0  0  0
  191.6810  176.3950  144.4620 C   0  0  0  0  0  2  0  0  0  0  0  0
  187.9230  178.3100  148.4140 C   0  0  0  0  0  2  0  0  0  0  0  0
  185.9680  178.2770  146.8270 C   0  0  0  0  0  0  0  0  0  0  0  0
  186.8160  178.9700  147.7400 N   0  0  0  0  0  2  0  0  0  0  0  0
  184.8500  179.0020  146.1670 C   0  0  0  0  0  1  0  0  0  0  0  0
  186.1540  177.0570  146.5750 O   0  0  0  0  0  0  0  0  0  0  0  0
  190.7260  176.7370  140.4880 C   0  0  1  0  0  3  0  0  0  0  0  0
  189.0610  178.8470  137.8590 C   0  0  0  0  0  0  0  0  0  0  0  0
  188.3350  177.8560  137.0490 C   0  0  0  0  0  0  0  0  0  0  0  0
  186.9760  175.9190  135.5540 C   0  0  0  0  0  3  0  0  0  0  0  0
  189.6190  177.0920  139.4900 C   0  0  2  0  0  3  0  0  0  0  0  0
  186.7810  177.2760  135.2830 C   0  0  0  0  0  3  0  0  0  0  0  0
  187.4610  178.2450  136.0260 C   0  0  0  0  0  3  0  0  0  0  0  0
  189.5180  176.0560  138.3670 C   0  0  0  0  0  2  0  0  0  0  0  0
  189.0530  180.0690  137.5520 O   0  0  0  0  0  0  0  0  0  0  0  0
  187.8510  175.5270  136.5710 C   0  0  0  0  0  3  0  0  0  0  0  0
  189.7890  178.4150  138.9690 O   0  0  0  0  0  0  0  0  0  0  0  0
  188.5250  176.4900  137.3280 C   0  0  0  0  0  0  0  0  0  0  0  0
  193.0300  176.7320  138.9820 S   0  0  0  0  0  1  0  0  0  0  0  0
  192.0110  177.5290  140.2550 C   0  0  0  0  0  2  0  0  0  0  0  0
  2  1  1  0  0  0  0
  3  2  1  0  0  0  0
  3  1  1  0  0  0  0
  4 10  1  0  0  0  0
  4 14  1  0  0  0  0
  5 13  1  0  0  0  0
  6 12  1  0  0  0  0
  7 11  1  0  0  0  0
  8  4  2  0  0  0  0
  9  3  1  1  0  0  0
  9  5  1  0  0  0  0
  9  7  1  0  0  0  0
 11  6  2  0  0  0  0
 11  8  1  0  0  0  0
 12 10  2  0  0  0  0
 13  6  1  0  0  0  0
 15 16  1  0  0  0  0
 16 14  1  0  0  0  0
 17 15  1  0  0  0  0
 18 15  2  0  0  0  0
 19 32  1  1  0  0  0
 19  3  1  0  0  0  0
 20 29  1  0  0  0  0
 21 30  1  0  0  0  0
 21 20  1  0  0  0  0
 22 28  1  0  0  0  0
 23 19  1  1  0  0  0
 24 22  2  0  0  0  0
 24 25  1  0  0  0  0
 25 21  2  0  0  0  0
 26 23  1  0  0  0  0
 27 20  2  0  0  0  0
 28 30  2  0  0  0  0
 29 23  1  0  0  0  0
 30 26  1  0  0  0  0
 31 32  1  0  0  0  0
M  END
>  <MODEL>
9

>  <REMARK>
 VINA RESULT:      -8.1      3.746      8.225
  Name = 
  6 active torsions:
  status: ('A' for Active; 'I' for Inactive)
    1  A    between atoms: C_2  and  C_24
    2  A    between atoms: N_10  and  C_24
    3  A    between atoms: C_14  and  C_15
    4  A    between atoms: C_15  and  C_26
    5  A    between atoms: C_16  and  C_26
    6  A    between atoms: C_25  and  C_26
                            x       y       z     vdW  Elec       q    Type
                         _______ _______ _______ _____ _____    ______ ____

>  <TORSDO>
F 6

$$$$
