=
 OpenBabel10262419503D

 25 28  0  0  0  0  0  0  0  0999 V2000
  187.5590  177.8780  145.9880 C   0  0  0  0  0  0  0  0  0  0  0  0
  188.8810  177.4770  145.7710 C   0  0  0  0  0  0  0  0  0  0  0  0
  187.8910  178.0450  148.3820 C   0  0  0  0  0  3  0  0  0  0  0  0
  186.4930  178.0900  145.1440 C   0  0  0  0  0  0  0  0  0  0  0  0
  184.0250  178.6730  144.0370 C   0  0  0  0  0  3  0  0  0  0  0  0
  189.2270  177.6430  148.1970 C   0  0  0  0  0  3  0  0  0  0  0  0
  185.4460  178.4770  145.9560 C   0  0  0  0  0  0  0  0  0  0  0  0
  184.1920  178.7780  145.4300 C   0  0  0  0  0  3  0  0  0  0  0  0
  191.0590  176.9520  146.7090 C   0  0  0  0  0  0  0  0  0  0  0  0
  191.8450  176.8300  147.6860 O   0  0  0  0  0  0  0  0  0  0  0  0
  189.3760  177.1950  144.4980 C   0  0  0  0  0  2  0  0  0  0  0  0
  185.0980  178.2760  143.2100 C   0  0  0  0  0  3  0  0  0  0  0  0
  187.0810  178.1530  147.2540 C   0  0  0  0  0  0  0  0  0  0  0  0
  185.8120  178.5120  147.2200 O   0  0  0  0  0  0  0  0  0  0  0  0
  191.5070  176.6850  145.4520 N   0  0  0  0  0  0  0  0  0  0  0  0
  186.3570  177.9770  143.7630 C   0  0  0  0  0  3  0  0  0  0  0  0
  190.7090  176.8040  144.3560 C   0  0  0  0  0  0  0  0  0  0  0  0
  189.7280  177.3580  146.9040 C   0  0  0  0  0  0  0  0  0  0  0  0
  191.2440  176.4740  143.0090 C   0  0  0  0  0  2  0  0  0  0  0  0
  190.1650  176.0130  142.1530 N   0  0  0  0  0  2  0  0  0  0  0  0
  190.1580  176.8760  140.9850 C   0  0  0  0  0  2  0  0  0  0  0  0
  188.9760  177.8300  141.0490 C   0  0  0  0  0  2  0  0  0  0  0  0
  188.4900  178.1760  139.6770 C   0  0  0  0  0  0  0  0  0  0  0  0
  189.4220  178.0920  138.5190 C   0  0  0  0  0  1  0  0  0  0  0  0
  187.3300  178.5060  139.5000 O   0  0  0  0  0  0  0  0  0  0  0  0
  1 13  1  0  0  0  0
  2  1  2  0  0  0  0
  2 18  1  0  0  0  0
  4  7  1  0  0  0  0
  4  1  1  0  0  0  0
  5  8  1  0  0  0  0
  6  3  1  0  0  0  0
  7 14  1  0  0  0  0
  8  7  2  0  0  0  0
  9 18  1  0  0  0  0
  9 10  2  0  0  0  0
 11  2  1  0  0  0  0
 12 16  1  0  0  0  0
 12  5  2  0  0  0  0
 13  3  2  0  0  0  0
 14 13  1  0  0  0  0
 15  9  1  0  0  0  0
 16  4  2  0  0  0  0
 17 11  1  0  0  0  0
 17 15  2  0  0  0  0
 18  6  2  0  0  0  0
 19 17  1  0  0  0  0
 20 19  1  0  0  0  0
 21 22  1  0  0  0  0
 21 20  1  0  0  0  0
 23 22  1  0  0  0  0
 24 23  1  0  0  0  0
 25 23  2  0  0  0  0
M  END
>  <MODEL>
1

>  <REMARK>
 VINA RESULT:     -10.5      0.000      0.000
  Name = 
  5 active torsions:
  status: ('A' for Active; 'I' for Inactive)
    1  A    between atoms: C_2  and  C_25
    2  A    between atoms: C_6  and  N_15
    3  A    between atoms: C_6  and  C_23
    4  A    between atoms: N_15  and  C_21
    5  A    between atoms: C_21  and  C_25
                            x       y       z     vdW  Elec       q    Type
                         _______ _______ _______ _____ _____    ______ ____

>  <TORSDO>
F 5

$$$$
=
 OpenBabel10262419503D

 25 28  0  0  0  0  0  0  0  0999 V2000
  187.2790  177.9670  145.8930 C   0  0  0  0  0  0  0  0  0  0  0  0
  188.5940  177.5340  145.7030 C   0  0  0  0  0  0  0  0  0  0  0  0
  187.6000  178.2340  148.2790 C   0  0  0  0  0  3  0  0  0  0  0  0
  186.2220  178.1610  145.0330 C   0  0  0  0  0  0  0  0  0  0  0  0
  183.7710  178.7390  143.8860 C   0  0  0  0  0  3  0  0  0  0  0  0
  188.9290  177.8000  148.1210 C   0  0  0  0  0  3  0  0  0  0  0  0
  185.1770  178.6030  145.8200 C   0  0  0  0  0  0  0  0  0  0  0  0
  183.9320  178.9020  145.2740 C   0  0  0  0  0  3  0  0  0  0  0  0
  190.7580  177.0130  146.6770 C   0  0  0  0  0  0  0  0  0  0  0  0
  191.5360  176.9200  147.6640 O   0  0  0  0  0  0  0  0  0  0  0  0
  189.0930  177.1880  144.4460 C   0  0  0  0  0  2  0  0  0  0  0  0
  184.8420  178.2870  143.0840 C   0  0  0  0  0  3  0  0  0  0  0  0
  186.7990  178.3070  147.1430 C   0  0  0  0  0  0  0  0  0  0  0  0
  185.5370  178.6860  147.0840 O   0  0  0  0  0  0  0  0  0  0  0  0
  191.2080  176.6830  145.4360 N   0  0  0  0  0  0  0  0  0  0  0  0
  186.0920  177.9900  143.6570 C   0  0  0  0  0  3  0  0  0  0  0  0
  190.4190  176.7670  144.3310 C   0  0  0  0  0  0  0  0  0  0  0  0
  189.4330  177.4500  146.8450 C   0  0  0  0  0  0  0  0  0  0  0  0
  190.9560  176.3690  143.0030 C   0  0  0  0  0  2  0  0  0  0  0  0
  191.8290  177.4120  142.4950 N   0  0  0  0  0  2  0  0  0  0  0  0
  191.7020  177.3990  141.0490 C   0  0  0  0  0  2  0  0  0  0  0  0
  190.2370  177.4820  140.6530 C   0  0  0  0  0  2  0  0  0  0  0  0
  189.9700  176.6910  139.4120 C   0  0  0  0  0  0  0  0  0  0  0  0
  188.7670  176.9930  138.5870 C   0  0  0  0  0  1  0  0  0  0  0  0
  190.7420  175.8140  139.0620 O   0  0  0  0  0  0  0  0  0  0  0  0
  1 13  1  0  0  0  0
  2  1  2  0  0  0  0
  2 18  1  0  0  0  0
  4  7  1  0  0  0  0
  4  1  1  0  0  0  0
  5  8  1  0  0  0  0
  6  3  1  0  0  0  0
  7 14  1  0  0  0  0
  8  7  2  0  0  0  0
  9 18  1  0  0  0  0
  9 10  2  0  0  0  0
 11  2  1  0  0  0  0
 12 16  1  0  0  0  0
 12  5  2  0  0  0  0
 13  3  2  0  0  0  0
 14 13  1  0  0  0  0
 15  9  1  0  0  0  0
 16  4  2  0  0  0  0
 17 11  1  0  0  0  0
 17 15  2  0  0  0  0
 18  6  2  0  0  0  0
 19 17  1  0  0  0  0
 20 19  1  0  0  0  0
 21 20  1  0  0  0  0
 22 21  1  0  0  0  0
 23 22  1  0  0  0  0
 24 23  1  0  0  0  0
 25 23  2  0  0  0  0
M  END
>  <MODEL>
2

>  <REMARK>
 VINA RESULT:     -10.2      1.151      1.207
  Name = 
  5 active torsions:
  status: ('A' for Active; 'I' for Inactive)
    1  A    between atoms: C_2  and  C_25
    2  A    between atoms: C_6  and  N_15
    3  A    between atoms: C_6  and  C_23
    4  A    between atoms: N_15  and  C_21
    5  A    between atoms: C_21  and  C_25
                            x       y       z     vdW  Elec       q    Type
                         _______ _______ _______ _____ _____    ______ ____

>  <TORSDO>
F 5

$$$$
=
 OpenBabel10262419503D

 25 28  0  0  0  0  0  0  0  0999 V2000
  187.3710  177.9600  145.9200 C   0  0  0  0  0  0  0  0  0  0  0  0
  188.6940  177.5390  145.7600 C   0  0  0  0  0  0  0  0  0  0  0  0
  187.6340  178.2280  148.3130 C   0  0  0  0  0  3  0  0  0  0  0  0
  186.3320  178.1430  145.0360 C   0  0  0  0  0  0  0  0  0  0  0  0
  183.9030  178.6970  143.8320 C   0  0  0  0  0  3  0  0  0  0  0  0
  188.9710  177.8080  148.1850 C   0  0  0  0  0  3  0  0  0  0  0  0
  185.2650  178.5740  145.7980 C   0  0  0  0  0  0  0  0  0  0  0  0
  184.0300  178.8610  145.2230 C   0  0  0  0  0  3  0  0  0  0  0  0
  190.8400  177.0390  146.7840 C   0  0  0  0  0  0  0  0  0  0  0  0
  191.5960  176.9540  147.7880 O   0  0  0  0  0  0  0  0  0  0  0  0
  189.2250  177.1980  144.5150 C   0  0  0  0  0  2  0  0  0  0  0  0
  184.9960  178.2560  143.0550 C   0  0  0  0  0  3  0  0  0  0  0  0
  186.8580  178.2940  147.1580 C   0  0  0  0  0  0  0  0  0  0  0  0
  185.5940  178.6600  147.0710 O   0  0  0  0  0  0  0  0  0  0  0  0
  191.3220  176.7140  145.5530 N   0  0  0  0  0  0  0  0  0  0  0  0
  186.2360  177.9710  143.6570 C   0  0  0  0  0  3  0  0  0  0  0  0
  190.5570  176.7910  144.4300 C   0  0  0  0  0  0  0  0  0  0  0  0
  189.5070  177.4630  146.9210 C   0  0  0  0  0  0  0  0  0  0  0  0
  191.1290  176.3990  143.1150 C   0  0  0  0  0  2  0  0  0  0  0  0
  190.0550  176.0980  142.1850 N   0  0  0  0  0  2  0  0  0  0  0  0
  190.3040  176.8830  140.9890 C   0  0  0  0  0  2  0  0  0  0  0  0
  191.7020  177.4770  141.0360 C   0  0  0  0  0  2  0  0  0  0  0  0
  192.4640  177.1560  139.7900 C   0  0  0  0  0  0  0  0  0  0  0  0
  191.7550  176.5760  138.6160 C   0  0  0  0  0  1  0  0  0  0  0  0
  193.6610  177.3860  139.7240 O   0  0  0  0  0  0  0  0  0  0  0  0
  1 13  1  0  0  0  0
  2  1  2  0  0  0  0
  2 18  1  0  0  0  0
  4  7  1  0  0  0  0
  4  1  1  0  0  0  0
  5  8  1  0  0  0  0
  6  3  1  0  0  0  0
  7 14  1  0  0  0  0
  8  7  2  0  0  0  0
  9 18  1  0  0  0  0
  9 10  2  0  0  0  0
 11  2  1  0  0  0  0
 12 16  1  0  0  0  0
 12  5  2  0  0  0  0
 13  3  2  0  0  0  0
 14 13  1  0  0  0  0
 15  9  1  0  0  0  0
 16  4  2  0  0  0  0
 17 11  1  0  0  0  0
 17 15  2  0  0  0  0
 18  6  2  0  0  0  0
 19 17  1  0  0  0  0
 20 19  1  0  0  0  0
 21 22  1  0  0  0  0
 21 20  1  0  0  0  0
 23 22  1  0  0  0  0
 24 23  1  0  0  0  0
 25 23  2  0  0  0  0
M  END
>  <MODEL>
3

>  <REMARK>
 VINA RESULT:     -10.1      1.547      1.728
  Name = 
  5 active torsions:
  status: ('A' for Active; 'I' for Inactive)
    1  A    between atoms: C_2  and  C_25
    2  A    between atoms: C_6  and  N_15
    3  A    between atoms: C_6  and  C_23
    4  A    between atoms: N_15  and  C_21
    5  A    between atoms: C_21  and  C_25
                            x       y       z     vdW  Elec       q    Type
                         _______ _______ _______ _____ _____    ______ ____

>  <TORSDO>
F 5

$$$$
=
 OpenBabel10262419503D

 25 28  0  0  0  0  0  0  0  0999 V2000
  186.3570  178.1790  145.2900 C   0  0  0  0  0  0  0  0  0  0  0  0
  187.6860  177.7470  145.3210 C   0  0  0  0  0  0  0  0  0  0  0  0
  186.3370  178.6280  147.6710 C   0  0  0  0  0  3  0  0  0  0  0  0
  185.4310  178.2950  144.2780 C   0  0  0  0  0  0  0  0  0  0  0  0
  183.1670  178.7570  142.7560 C   0  0  0  0  0  3  0  0  0  0  0  0
  187.6760  178.1980  147.7350 C   0  0  0  0  0  3  0  0  0  0  0  0
  184.2860  178.7830  144.8740 C   0  0  0  0  0  0  0  0  0  0  0  0
  183.1300  179.0260  144.1370 C   0  0  0  0  0  3  0  0  0  0  0  0
  189.6900  177.3250  146.6270 C   0  0  0  0  0  0  0  0  0  0  0  0
  190.3210  177.3150  147.7180 O   0  0  0  0  0  0  0  0  0  0  0  0
  188.3570  177.3120  144.1770 C   0  0  0  0  0  2  0  0  0  0  0  0
  184.3410  178.2580  142.1500 C   0  0  0  0  0  3  0  0  0  0  0  0
  185.7050  178.6060  146.4310 C   0  0  0  0  0  0  0  0  0  0  0  0
  184.4630  178.9650  146.1660 O   0  0  0  0  0  0  0  0  0  0  0  0
  190.3120  176.9080  145.4910 N   0  0  0  0  0  0  0  0  0  0  0  0
  185.4980  178.0190  142.9150 C   0  0  0  0  0  3  0  0  0  0  0  0
  189.6860  176.8990  144.2820 C   0  0  0  0  0  0  0  0  0  0  0  0
  188.3550  177.7580  146.5730 C   0  0  0  0  0  0  0  0  0  0  0  0
  190.4060  176.4090  143.0770 C   0  0  0  0  0  2  0  0  0  0  0  0
  189.5040  176.3980  141.9390 N   0  0  0  0  0  2  0  0  0  0  0  0
  190.0100  177.3760  140.9930 C   0  0  0  0  0  2  0  0  0  0  0  0
  188.8610  177.9840  140.2060 C   0  0  0  0  0  2  0  0  0  0  0  0
  189.2700  178.2770  138.7970 C   0  0  0  0  0  0  0  0  0  0  0  0
  189.9220  177.2160  137.9800 C   0  0  0  0  0  1  0  0  0  0  0  0
  189.0540  179.3740  138.3090 O   0  0  0  0  0  0  0  0  0  0  0  0
  1  2  2  0  0  0  0
  1 13  1  0  0  0  0
  2 18  1  0  0  0  0
  3  6  1  0  0  0  0
  4  7  1  0  0  0  0
  4  1  1  0  0  0  0
  5  8  1  0  0  0  0
  7 14  1  0  0  0  0
  8  7  2  0  0  0  0
  9 10  2  0  0  0  0
 11 17  1  0  0  0  0
 11  2  1  0  0  0  0
 12  5  2  0  0  0  0
 12 16  1  0  0  0  0
 13  3  2  0  0  0  0
 14 13  1  0  0  0  0
 15  9  1  0  0  0  0
 16  4  2  0  0  0  0
 17 15  2  0  0  0  0
 18  9  1  0  0  0  0
 18  6  2  0  0  0  0
 19 17  1  0  0  0  0
 20 19  1  0  0  0  0
 21 20  1  0  0  0  0
 22 21  1  0  0  0  0
 23 22  1  0  0  0  0
 24 23  1  0  0  0  0
 25 23  2  0  0  0  0
M  END
>  <MODEL>
4

>  <REMARK>
 VINA RESULT:      -9.7      1.047      1.406
  Name = 
  5 active torsions:
  status: ('A' for Active; 'I' for Inactive)
    1  A    between atoms: C_2  and  C_25
    2  A    between atoms: C_6  and  N_15
    3  A    between atoms: C_6  and  C_23
    4  A    between atoms: N_15  and  C_21
    5  A    between atoms: C_21  and  C_25
                            x       y       z     vdW  Elec       q    Type
                         _______ _______ _______ _____ _____    ______ ____

>  <TORSDO>
F 5

$$$$
=
 OpenBabel10262419503D

 25 28  0  0  0  0  0  0  0  0999 V2000
  186.2940  178.3960  144.7880 C   0  0  0  0  0  0  0  0  0  0  0  0
  186.4700  178.4480  143.4020 C   0  0  0  0  0  0  0  0  0  0  0  0
  184.0360  179.2590  144.6390 C   0  0  0  0  0  3  0  0  0  0  0  0
  187.1110  178.0010  145.8230 C   0  0  0  0  0  0  0  0  0  0  0  0
  188.2040  177.3790  148.2880 C   0  0  0  0  0  3  0  0  0  0  0  0
  184.1820  179.3240  143.2410 C   0  0  0  0  0  3  0  0  0  0  0  0
  186.3690  178.1820  146.9730 C   0  0  0  0  0  0  0  0  0  0  0  0
  186.8900  177.8780  148.2290 C   0  0  0  0  0  3  0  0  0  0  0  0
  185.5450  178.9870  141.2220 C   0  0  0  0  0  0  0  0  0  0  0  0
  184.6110  179.4060  140.4870 O   0  0  0  0  0  0  0  0  0  0  0  0
  187.6580  178.0540  142.7850 C   0  0  0  0  0  2  0  0  0  0  0  0
  188.9590  177.1950  147.1090 C   0  0  0  0  0  3  0  0  0  0  0  0
  185.1130  178.7900  145.3860 C   0  0  0  0  0  0  0  0  0  0  0  0
  185.1720  178.6560  146.6970 O   0  0  0  0  0  0  0  0  0  0  0  0
  186.7180  178.5950  140.6550 N   0  0  0  0  0  0  0  0  0  0  0  0
  188.4130  177.5080  145.8510 C   0  0  0  0  0  3  0  0  0  0  0  0
  187.7610  178.1290  141.3950 C   0  0  0  0  0  0  0  0  0  0  0  0
  185.3880  178.9240  142.6170 C   0  0  0  0  0  0  0  0  0  0  0  0
  189.0300  177.7380  140.7250 C   0  0  0  0  0  2  0  0  0  0  0  0
  189.7430  176.7780  141.5490 N   0  0  0  0  0  2  0  0  0  0  0  0
  191.0510  177.3480  141.8190 C   0  0  0  0  0  2  0  0  0  0  0  0
  191.6000  176.7970  143.1240 C   0  0  0  0  0  2  0  0  0  0  0  0
  191.5690  177.8350  144.2010 C   0  0  0  0  0  0  0  0  0  0  0  0
  191.0870  179.2090  143.8900 C   0  0  0  0  0  1  0  0  0  0  0  0
  191.9170  177.5550  145.3360 O   0  0  0  0  0  0  0  0  0  0  0  0
  1 13  2  0  0  0  0
  1  4  1  0  0  0  0
  2  1  1  0  0  0  0
  3 13  1  0  0  0  0
  4 16  2  0  0  0  0
  4  7  1  0  0  0  0
  6  3  2  0  0  0  0
  7  8  2  0  0  0  0
  8  5  1  0  0  0  0
  9 18  1  0  0  0  0
 10  9  2  0  0  0  0
 11  2  1  0  0  0  0
 12  5  2  0  0  0  0
 13 14  1  0  0  0  0
 14  7  1  0  0  0  0
 15  9  1  0  0  0  0
 15 17  2  0  0  0  0
 16 12  1  0  0  0  0
 17 11  1  0  0  0  0
 18  6  1  0  0  0  0
 18  2  2  0  0  0  0
 19 17  1  0  0  0  0
 19 20  1  0  0  0  0
 20 21  1  0  0  0  0
 21 22  1  0  0  0  0
 22 23  1  0  0  0  0
 23 25  2  0  0  0  0
 24 23  1  0  0  0  0
M  END
>  <MODEL>
5

>  <REMARK>
 VINA RESULT:      -9.5      1.600      5.058
  Name = 
  5 active torsions:
  status: ('A' for Active; 'I' for Inactive)
    1  A    between atoms: C_2  and  C_25
    2  A    between atoms: C_6  and  N_15
    3  A    between atoms: C_6  and  C_23
    4  A    between atoms: N_15  and  C_21
    5  A    between atoms: C_21  and  C_25
                            x       y       z     vdW  Elec       q    Type
                         _______ _______ _______ _____ _____    ______ ____

>  <TORSDO>
F 5

$$$$
=
 OpenBabel10262419503D

 25 28  0  0  0  0  0  0  0  0999 V2000
  187.1730  177.9120  145.4090 C   0  0  0  0  0  0  0  0  0  0  0  0
  186.4320  178.2070  144.2610 C   0  0  0  0  0  0  0  0  0  0  0  0
  185.2730  178.2920  146.8630 C   0  0  0  0  0  3  0  0  0  0  0  0
  188.4850  177.5460  145.6100 C   0  0  0  0  0  0  0  0  0  0  0  0
  190.9280  176.8060  146.6780 C   0  0  0  0  0  3  0  0  0  0  0  0
  184.5000  178.5950  145.7270 C   0  0  0  0  0  3  0  0  0  0  0  0
  188.6250  177.3920  146.9750 C   0  0  0  0  0  0  0  0  0  0  0  0
  189.8400  177.0200  147.5430 C   0  0  0  0  0  3  0  0  0  0  0  0
  184.3040  178.8600  143.2900 C   0  0  0  0  0  0  0  0  0  0  0  0
  183.0890  179.1790  143.3930 O   0  0  0  0  0  0  0  0  0  0  0  0
  186.9890  178.1690  142.9820 C   0  0  0  0  0  2  0  0  0  0  0  0
  190.7820  176.9640  145.2820 C   0  0  0  0  0  3  0  0  0  0  0  0
  186.6100  177.9530  146.6690 C   0  0  0  0  0  0  0  0  0  0  0  0
  187.4920  177.6390  147.5990 O   0  0  0  0  0  0  0  0  0  0  0  0
  184.8810  178.8140  142.0580 N   0  0  0  0  0  0  0  0  0  0  0  0
  189.5440  177.3410  144.7290 C   0  0  0  0  0  3  0  0  0  0  0  0
  186.1860  178.4720  141.8810 C   0  0  0  0  0  0  0  0  0  0  0  0
  185.0660  178.5560  144.4300 C   0  0  0  0  0  0  0  0  0  0  0  0
  186.7720  178.4630  140.5140 C   0  0  0  0  0  2  0  0  0  0  0  0
  188.2210  178.5040  140.6020 N   0  0  0  0  0  2  0  0  0  0  0  0
  188.7260  177.4890  139.6950 C   0  0  0  0  0  2  0  0  0  0  0  0
  190.2430  177.4400  139.7600 C   0  0  0  0  0  2  0  0  0  0  0  0
  190.7090  176.9330  141.0870 C   0  0  0  0  0  0  0  0  0  0  0  0
  191.8590  177.5890  141.7690 C   0  0  0  0  0  1  0  0  0  0  0  0
  190.1390  175.9970  141.6230 O   0  0  0  0  0  0  0  0  0  0  0  0
  1  4  1  0  0  0  0
  1 13  2  0  0  0  0
  2 18  2  0  0  0  0
  2  1  1  0  0  0  0
  4  7  1  0  0  0  0
  5  8  1  0  0  0  0
  6  3  2  0  0  0  0
  7  8  2  0  0  0  0
  7 14  1  0  0  0  0
  9 10  2  0  0  0  0
  9 18  1  0  0  0  0
 11  2  1  0  0  0  0
 12  5  2  0  0  0  0
 13  3  1  0  0  0  0
 13 14  1  0  0  0  0
 15  9  1  0  0  0  0
 16 12  1  0  0  0  0
 16  4  2  0  0  0  0
 17 15  2  0  0  0  0
 17 11  1  0  0  0  0
 18  6  1  0  0  0  0
 19 20  1  0  0  0  0
 19 17  1  0  0  0  0
 21 22  1  0  0  0  0
 21 20  1  0  0  0  0
 22 23  1  0  0  0  0
 23 25  2  0  0  0  0
 23 24  1  0  0  0  0
M  END
>  <MODEL>
6

>  <REMARK>
 VINA RESULT:      -9.3      2.136      4.897
  Name = 
  5 active torsions:
  status: ('A' for Active; 'I' for Inactive)
    1  A    between atoms: C_2  and  C_25
    2  A    between atoms: C_6  and  N_15
    3  A    between atoms: C_6  and  C_23
    4  A    between atoms: N_15  and  C_21
    5  A    between atoms: C_21  and  C_25
                            x       y       z     vdW  Elec       q    Type
                         _______ _______ _______ _____ _____    ______ ____

>  <TORSDO>
F 5

$$$$
=
 OpenBabel10262419503D

 25 28  0  0  0  0  0  0  0  0999 V2000
  189.3980  177.4700  144.0920 C   0  0  0  0  0  0  0  0  0  0  0  0
  189.0410  177.6800  142.7570 C   0  0  0  0  0  0  0  0  0  0  0  0
  191.6810  176.9110  143.5020 C   0  0  0  0  0  3  0  0  0  0  0  0
  188.7000  177.5560  145.2750 C   0  0  0  0  0  0  0  0  0  0  0  0
  187.9040  177.5420  147.9250 C   0  0  0  0  0  3  0  0  0  0  0  0
  191.3520  177.1140  142.1500 C   0  0  0  0  0  3  0  0  0  0  0  0
  189.6030  177.2290  146.2660 C   0  0  0  0  0  0  0  0  0  0  0  0
  189.2350  177.2130  147.6090 C   0  0  0  0  0  3  0  0  0  0  0  0
  189.7040  177.6980  140.4200 C   0  0  0  0  0  0  0  0  0  0  0  0
  190.5610  177.5430  139.5100 O   0  0  0  0  0  0  0  0  0  0  0  0
  187.7510  178.0560  142.3800 C   0  0  0  0  0  2  0  0  0  0  0  0
  186.9820  177.8750  146.9080 C   0  0  0  0  0  3  0  0  0  0  0  0
  190.6790  177.0980  144.4520 C   0  0  0  0  0  0  0  0  0  0  0  0
  190.7880  176.9570  145.7590 O   0  0  0  0  0  0  0  0  0  0  0  0
  188.4350  178.0640  140.0900 N   0  0  0  0  0  0  0  0  0  0  0  0
  187.3770  177.8850  145.5570 C   0  0  0  0  0  3  0  0  0  0  0  0
  187.4670  178.2530  141.0270 C   0  0  0  0  0  0  0  0  0  0  0  0
  190.0430  177.4960  141.7690 C   0  0  0  0  0  0  0  0  0  0  0  0
  186.0910  178.6280  140.6070 C   0  0  0  0  0  2  0  0  0  0  0  0
  185.4500  179.3950  141.6600 N   0  0  0  0  0  2  0  0  0  0  0  0
  184.2810  178.6400  142.0770 C   0  0  0  0  0  2  0  0  0  0  0  0
  184.4050  178.2530  143.5410 C   0  0  0  0  0  2  0  0  0  0  0  0
  183.3440  178.9110  144.3640 C   0  0  0  0  0  0  0  0  0  0  0  0
  181.9520  179.0030  143.8410 C   0  0  0  0  0  1  0  0  0  0  0  0
  183.6080  179.3560  145.4680 O   0  0  0  0  0  0  0  0  0  0  0  0
  1 13  2  0  0  0  0
  1  4  1  0  0  0  0
  2  1  1  0  0  0  0
  3 13  1  0  0  0  0
  4 16  2  0  0  0  0
  4  7  1  0  0  0  0
  6  3  2  0  0  0  0
  7  8  2  0  0  0  0
  8  5  1  0  0  0  0
  9 18  1  0  0  0  0
 10  9  2  0  0  0  0
 11  2  1  0  0  0  0
 12  5  2  0  0  0  0
 13 14  1  0  0  0  0
 14  7  1  0  0  0  0
 15  9  1  0  0  0  0
 15 17  2  0  0  0  0
 16 12  1  0  0  0  0
 17 11  1  0  0  0  0
 18  6  1  0  0  0  0
 18  2  2  0  0  0  0
 19 17  1  0  0  0  0
 19 20  1  0  0  0  0
 20 21  1  0  0  0  0
 21 22  1  0  0  0  0
 22 23  1  0  0  0  0
 23 25  2  0  0  0  0
 24 23  1  0  0  0  0
M  END
>  <MODEL>
7

>  <REMARK>
 VINA RESULT:      -9.3      2.015      5.616
  Name = 
  5 active torsions:
  status: ('A' for Active; 'I' for Inactive)
    1  A    between atoms: C_2  and  C_25
    2  A    between atoms: C_6  and  N_15
    3  A    between atoms: C_6  and  C_23
    4  A    between atoms: N_15  and  C_21
    5  A    between atoms: C_21  and  C_25
                            x       y       z     vdW  Elec       q    Type
                         _______ _______ _______ _____ _____    ______ ____

>  <TORSDO>
F 5

$$$$
=
 OpenBabel10262419503D

 25 28  0  0  0  0  0  0  0  0999 V2000
  187.2760  177.8250  145.5030 C   0  0  0  0  0  0  0  0  0  0  0  0
  188.5190  177.4640  144.9750 C   0  0  0  0  0  0  0  0  0  0  0  0
  188.0590  177.5960  147.7840 C   0  0  0  0  0  3  0  0  0  0  0  0
  186.0770  178.1740  144.9240 C   0  0  0  0  0  0  0  0  0  0  0  0
  183.4640  178.9340  144.4190 C   0  0  0  0  0  3  0  0  0  0  0  0
  189.3210  177.2280  147.2840 C   0  0  0  0  0  3  0  0  0  0  0  0
  185.2150  178.4240  145.9730 C   0  0  0  0  0  0  0  0  0  0  0  0
  183.8940  178.8080  145.7530 C   0  0  0  0  0  3  0  0  0  0  0  0
  190.8170  176.7900  145.3810 C   0  0  0  0  0  0  0  0  0  0  0  0
  191.7690  176.5090  146.1570 O   0  0  0  0  0  0  0  0  0  0  0  0
  188.7560  177.3950  143.6020 C   0  0  0  0  0  2  0  0  0  0  0  0
  184.3490  178.6770  143.3490 C   0  0  0  0  0  3  0  0  0  0  0  0
  187.0540  177.8890  146.8650 C   0  0  0  0  0  0  0  0  0  0  0  0
  185.8140  178.2490  147.1320 O   0  0  0  0  0  0  0  0  0  0  0  0
  191.0110  176.7340  144.0360 N   0  0  0  0  0  0  0  0  0  0  0  0
  185.6790  178.2900  143.5940 C   0  0  0  0  0  3  0  0  0  0  0  0
  190.0240  177.0310  143.1470 C   0  0  0  0  0  0  0  0  0  0  0  0
  189.5600  177.1590  145.8910 C   0  0  0  0  0  0  0  0  0  0  0  0
  190.2850  176.9270  141.6870 C   0  0  0  0  0  2  0  0  0  0  0  0
  189.3240  177.7380  140.9590 N   0  0  0  0  0  2  0  0  0  0  0  0
  189.1180  177.0930  139.6750 C   0  0  0  0  0  2  0  0  0  0  0  0
  189.9880  177.7500  138.6160 C   0  0  0  0  0  2  0  0  0  0  0  0
  190.3880  176.7670  137.5620 C   0  0  0  0  0  0  0  0  0  0  0  0
  191.0740  175.5030  137.9510 C   0  0  0  0  0  1  0  0  0  0  0  0
  190.1370  176.9860  136.3890 O   0  0  0  0  0  0  0  0  0  0  0  0
  1 13  1  0  0  0  0
  2  1  2  0  0  0  0
  2 18  1  0  0  0  0
  4  1  1  0  0  0  0
  4  7  1  0  0  0  0
  5  8  1  0  0  0  0
  6  3  1  0  0  0  0
  7 14  1  0  0  0  0
  8  7  2  0  0  0  0
  9 18  1  0  0  0  0
  9 10  2  0  0  0  0
 11  2  1  0  0  0  0
 12 16  1  0  0  0  0
 12  5  2  0  0  0  0
 13 14  1  0  0  0  0
 13  3  2  0  0  0  0
 15  9  1  0  0  0  0
 16  4  2  0  0  0  0
 17 11  1  0  0  0  0
 17 15  2  0  0  0  0
 18  6  2  0  0  0  0
 19 17  1  0  0  0  0
 20 19  1  0  0  0  0
 21 20  1  0  0  0  0
 22 21  1  0  0  0  0
 23 24  1  0  0  0  0
 23 22  1  0  0  0  0
 25 23  2  0  0  0  0
M  END
>  <MODEL>
8

>  <REMARK>
 VINA RESULT:      -9.2      1.478      1.716
  Name = 
  5 active torsions:
  status: ('A' for Active; 'I' for Inactive)
    1  A    between atoms: C_2  and  C_25
    2  A    between atoms: C_6  and  N_15
    3  A    between atoms: C_6  and  C_23
    4  A    between atoms: N_15  and  C_21
    5  A    between atoms: C_21  and  C_25
                            x       y       z     vdW  Elec       q    Type
                         _______ _______ _______ _____ _____    ______ ____

>  <TORSDO>
F 5

$$$$
=
 OpenBabel10262419503D

 25 28  0  0  0  0  0  0  0  0999 V2000
  187.8770  177.6070  144.8920 C   0  0  0  0  0  0  0  0  0  0  0  0
  186.5940  177.9440  144.4530 C   0  0  0  0  0  0  0  0  0  0  0  0
  187.3090  178.0160  147.2100 C   0  0  0  0  0  3  0  0  0  0  0  0
  189.0160  177.1990  144.2340 C   0  0  0  0  0  0  0  0  0  0  0  0
  191.5660  176.3670  143.5530 C   0  0  0  0  0  3  0  0  0  0  0  0
  186.0080  178.3630  146.8010 C   0  0  0  0  0  3  0  0  0  0  0  0
  189.9690  177.0160  145.2160 C   0  0  0  0  0  0  0  0  0  0  0  0
  191.2600  176.5980  144.9070 C   0  0  0  0  0  3  0  0  0  0  0  0
  184.3470  178.6780  145.0150 C   0  0  0  0  0  0  0  0  0  0  0  0
  183.4720  179.0300  145.8500 O   0  0  0  0  0  0  0  0  0  0  0  0
  186.2320  177.9140  143.1060 C   0  0  0  0  0  2  0  0  0  0  0  0
  190.5880  176.5550  142.5510 C   0  0  0  0  0  3  0  0  0  0  0  0
  188.2220  177.6420  146.2290 C   0  0  0  0  0  0  0  0  0  0  0  0
  189.4790  177.2850  146.4090 O   0  0  0  0  0  0  0  0  0  0  0  0
  184.0310  178.6370  143.6920 N   0  0  0  0  0  0  0  0  0  0  0  0
  189.2890  176.9780  142.8870 C   0  0  0  0  0  3  0  0  0  0  0  0
  184.9300  178.2600  142.7420 C   0  0  0  0  0  0  0  0  0  0  0  0
  185.6430  178.3310  145.4340 C   0  0  0  0  0  0  0  0  0  0  0  0
  184.5370  178.2580  141.3080 C   0  0  0  0  0  2  0  0  0  0  0  0
  185.2570  179.3030  140.6020 N   0  0  0  0  0  2  0  0  0  0  0  0
  184.8470  179.2290  139.2110 C   0  0  0  0  0  2  0  0  0  0  0  0
  185.4870  178.0230  138.5420 C   0  0  0  0  0  2  0  0  0  0  0  0
  186.9240  178.2850  138.2230 C   0  0  0  0  0  0  0  0  0  0  0  0
  187.9890  177.7610  139.1230 C   0  0  0  0  0  1  0  0  0  0  0  0
  187.2290  178.9070  137.2200 O   0  0  0  0  0  0  0  0  0  0  0  0
  1 13  1  0  0  0  0
  2  1  2  0  0  0  0
  2 18  1  0  0  0  0
  4  1  1  0  0  0  0
  4  7  1  0  0  0  0
  5  8  1  0  0  0  0
  6  3  1  0  0  0  0
  7 14  1  0  0  0  0
  8  7  2  0  0  0  0
  9 18  1  0  0  0  0
  9 10  2  0  0  0  0
 11  2  1  0  0  0  0
 12 16  1  0  0  0  0
 12  5  2  0  0  0  0
 13 14  1  0  0  0  0
 13  3  2  0  0  0  0
 15  9  1  0  0  0  0
 16  4  2  0  0  0  0
 17 11  1  0  0  0  0
 17 15  2  0  0  0  0
 18  6  2  0  0  0  0
 19 17  1  0  0  0  0
 20 19  1  0  0  0  0
 21 20  1  0  0  0  0
 22 21  1  0  0  0  0
 23 22  1  0  0  0  0
 23 24  1  0  0  0  0
 25 23  2  0  0  0  0
M  END
>  <MODEL>
9

>  <REMARK>
 VINA RESULT:      -9.1      2.442      5.108
  Name = 
  5 active torsions:
  status: ('A' for Active; 'I' for Inactive)
    1  A    between atoms: C_2  and  C_25
    2  A    between atoms: C_6  and  N_15
    3  A    between atoms: C_6  and  C_23
    4  A    between atoms: N_15  and  C_21
    5  A    between atoms: C_21  and  C_25
                            x       y       z     vdW  Elec       q    Type
                         _______ _______ _______ _____ _____    ______ ____

>  <TORSDO>
F 5

$$$$
