=
 OpenBabel10262423293D

 34 39  0  0  1  0  0  0  0  0999 V2000
  186.9410  177.8990  143.5900 N   0  0  0  0  0  0  0  0  0  0  0  0
  190.8930  177.7170  145.2510 C   0  0  0  0  0  2  0  0  0  0  0  0
  185.9930  177.8010  145.7660 N   0  0  0  0  0  2  0  0  0  0  0  0
  188.2520  177.4610  144.0830 C   0  0  2  0  0  3  0  0  0  0  0  0
  187.2810  177.7230  146.3780 C   0  0  0  0  0  0  0  0  0  0  0  0
  188.6920  177.7890  148.3450 C   0  0  0  0  0  3  0  0  0  0  0  0
  187.4160  177.7770  147.7690 C   0  0  0  0  0  3  0  0  0  0  0  0
  185.8820  177.9860  144.3460 C   0  0  0  0  0  0  0  0  0  0  0  0
  189.6950  177.7140  146.1400 C   0  0  0  0  0  0  0  0  0  0  0  0
  188.4170  177.6730  145.5670 C   0  0  0  0  0  0  0  0  0  0  0  0
  189.8320  177.7640  147.5320 C   0  0  0  0  0  3  0  0  0  0  0  0
  190.5860  178.5660  144.0180 C   0  0  0  0  0  2  0  0  0  0  0  0
  189.4050  177.9990  143.1930 C   0  0  1  0  0  3  0  0  0  0  0  0
  182.2620  179.0930  144.0280 C   0  0  0  0  0  3  0  0  0  0  0  0
  184.4000  178.2820  142.3590 C   0  0  0  0  0  3  0  0  0  0  0  0
  181.4980  179.0170  140.2370 C   0  0  0  0  0  0  0  0  0  0  0  0
  180.7590  179.3670  141.7220 S   0  0  0  0  0  0  0  0  0  0  0  0
  182.1210  179.0230  142.6460 C   0  0  0  0  0  0  0  0  0  0  0  0
  182.8140  178.6180  140.4650 C   0  0  0  0  0  0  0  0  0  0  0  0
  183.1600  178.6270  141.8180 C   0  0  0  0  0  0  0  0  0  0  0  0
  183.6900  178.2490  139.4500 O   0  0  0  0  0  1  0  0  0  0  0  0
  184.5790  178.3430  143.7540 C   0  0  0  0  0  0  0  0  0  0  0  0
  183.5060  178.7500  144.5790 C   0  0  0  0  0  3  0  0  0  0  0  0
  180.8350  179.0780  138.9010 C   0  0  1  0  0  3  0  0  0  0  0  0
  179.3270  179.0730  139.0620 C   0  0  0  0  0  1  0  0  0  0  0  0
  181.2310  180.2300  138.2210 O   0  0  0  0  0  1  0  0  0  0  0  0
  189.8690  176.9630  142.2560 N   0  0  2  0  0  0  0  0  0  0  0  0
  191.2900  177.1660  141.9870 C   0  0  0  0  0  2  0  0  0  0  0  0
  191.5590  176.7340  140.5630 C   0  0  1  0  0  3  0  0  0  0  0  0
  190.2090  176.7300  139.8890 C   0  0  0  0  0  2  0  0  0  0  0  0
  189.2310  177.1650  140.9580 C   0  0  0  0  0  2  0  0  0  0  0  0
  192.4870  177.7330  139.8960 C   0  0  0  0  0  2  0  0  0  0  0  0
  193.6400  177.0890  139.4510 O   0  0  0  0  0  0  0  0  0  0  0  0
  193.2430  176.4230  138.2910 C   0  0  0  0  0  1  0  0  0  0  0  0
  1  8  2  0  0  0  0
  2  9  1  0  0  0  0
  3  5  1  0  0  0  0
  4  1  1  6  0  0  0
  4 10  1  0  0  0  0
  5  7  1  0  0  0  0
  7  6  2  0  0  0  0
  8  3  1  0  0  0  0
  9 11  2  0  0  0  0
 10  9  1  0  0  0  0
 10  5  2  0  0  0  0
 11  6  1  0  0  0  0
 12  2  1  0  0  0  0
 13 12  1  1  0  0  0
 13  4  1  0  0  0  0
 14 23  1  0  0  0  0
 15 22  1  0  0  0  0
 16 19  2  0  0  0  0
 16 17  1  0  0  0  0
 17 18  1  0  0  0  0
 18 14  2  0  0  0  0
 19 20  1  0  0  0  0
 20 15  2  0  0  0  0
 20 18  1  0  0  0  0
 21 19  1  0  0  0  0
 22  8  1  0  0  0  0
 22 23  2  0  0  0  0
 24 25  1  1  0  0  0
 24 16  1  0  0  0  0
 26 24  1  0  0  0  0
 27 31  1  6  0  0  0
 27 13  1  0  0  0  0
 28 27  1  0  0  0  0
 29 32  1  6  0  0  0
 29 28  1  0  0  0  0
 30 29  1  0  0  0  0
 30 31  1  0  0  0  0
 33 32  1  0  0  0  0
 34 33  1  0  0  0  0
M  END
>  <MODEL>
1

>  <REMARK>
 VINA RESULT:     -10.1      0.000      0.000
  Name = 
  5 active torsions:
  status: ('A' for Active; 'I' for Inactive)
    1  A    between atoms: N_2  and  C_34
    2  A    between atoms: C_3  and  O_13
    3  A    between atoms: C_3  and  C_25
    4  A    between atoms: C_7  and  C_11
    5  A    between atoms: C_18  and  C_30
                            x       y       z     vdW  Elec       q    Type
                         _______ _______ _______ _____ _____    ______ ____

>  <TORSDO>
F 5

$$$$
=
 OpenBabel10262423293D

 34 39  0  0  1  0  0  0  0  0999 V2000
  187.2700  177.9390  143.1720 N   0  0  0  0  0  0  0  0  0  0  0  0
  191.2310  176.6110  142.1950 C   0  0  0  0  0  2  0  0  0  0  0  0
  186.9320  178.6620  140.9350 N   0  0  0  0  0  2  0  0  0  0  0  0
  188.7200  177.8320  142.9750 C   0  0  2  0  0  3  0  0  0  0  0  0
  188.2450  178.2540  140.5510 C   0  0  0  0  0  0  0  0  0  0  0  0
  189.9040  177.8100  138.8450 C   0  0  0  0  0  3  0  0  0  0  0  0
  188.6450  178.2980  139.2110 C   0  0  0  0  0  3  0  0  0  0  0  0
  186.4530  178.3900  142.2610 C   0  0  0  0  0  0  0  0  0  0  0  0
  190.3530  177.2160  141.1500 C   0  0  0  0  0  0  0  0  0  0  0  0
  189.1050  177.7310  141.5200 C   0  0  0  0  0  0  0  0  0  0  0  0
  190.7570  177.2630  139.8120 C   0  0  0  0  0  3  0  0  0  0  0  0
  190.3560  175.8440  143.1850 C   0  0  0  0  0  2  0  0  0  0  0  0
  189.3460  176.7650  143.9130 C   0  0  1  0  0  3  0  0  0  0  0  0
  183.2370  178.9390  144.2080 C   0  0  0  0  0  3  0  0  0  0  0  0
  184.0650  178.4930  141.5380 C   0  0  0  0  0  3  0  0  0  0  0  0
  180.4100  178.8150  141.5700 C   0  0  0  0  0  0  0  0  0  0  0  0
  180.6490  179.0210  143.2360 S   0  0  0  0  0  0  0  0  0  0  0  0
  182.3220  178.8720  143.1630 C   0  0  0  0  0  0  0  0  0  0  0  0
  181.6450  178.6170  140.9540 C   0  0  0  0  0  0  0  0  0  0  0  0
  182.7150  178.6550  141.8510 C   0  0  0  0  0  0  0  0  0  0  0  0
  181.7940  178.4040  139.5880 O   0  0  0  0  0  1  0  0  0  0  0  0
  185.0200  178.5560  142.5710 C   0  0  0  0  0  0  0  0  0  0  0  0
  184.5970  178.7800  143.9010 C   0  0  0  0  0  3  0  0  0  0  0  0
  179.0880  178.7980  140.8780 C   0  0  1  0  0  3  0  0  0  0  0  0
  178.9310  180.0360  140.0170 C   0  0  0  0  0  1  0  0  0  0  0  0
  178.9770  177.6560  140.0840 O   0  0  0  0  0  1  0  0  0  0  0  0
  189.9670  177.4000  145.0870 N   0  0  2  0  0  0  0  0  0  0  0  0
  191.1980  176.6880  145.4180 C   0  0  0  0  0  2  0  0  0  0  0  0
  191.3760  176.7430  146.9190 C   0  0  1  0  0  3  0  0  0  0  0  0
  190.0100  177.0770  147.4670 C   0  0  0  0  0  2  0  0  0  0  0  0
  189.1140  177.1940  146.2550 C   0  0  0  0  0  2  0  0  0  0  0  0
  191.8380  175.3880  147.4250 C   0  0  0  0  0  2  0  0  0  0  0  0
  193.1860  175.4460  147.7780 O   0  0  0  0  0  0  0  0  0  0  0  0
  193.1960  176.0930  149.0140 C   0  0  0  0  0  1  0  0  0  0  0  0
  2 12  1  0  0  0  0
  3  8  1  0  0  0  0
  4 10  1  6  0  0  0
  4  1  1  0  0  0  0
  4 13  1  0  0  0  0
  5  3  1  0  0  0  0
  5 10  1  0  0  0  0
  6  7  1  0  0  0  0
  6 11  2  0  0  0  0
  7  5  2  0  0  0  0
  8 22  1  0  0  0  0
  8  1  2  0  0  0  0
  9 10  2  0  0  0  0
  9  2  1  0  0  0  0
 11  9  1  0  0  0  0
 13 12  1  6  0  0  0
 13 27  1  0  0  0  0
 15 20  2  0  0  0  0
 15 22  1  0  0  0  0
 16 17  1  0  0  0  0
 18 17  1  0  0  0  0
 18 14  2  0  0  0  0
 19 16  2  0  0  0  0
 19 20  1  0  0  0  0
 20 18  1  0  0  0  0
 21 19  1  0  0  0  0
 22 23  2  0  0  0  0
 23 14  1  0  0  0  0
 24 25  1  6  0  0  0
 24 16  1  0  0  0  0
 26 24  1  0  0  0  0
 27 28  1  1  0  0  0
 27 31  1  0  0  0  0
 28 29  1  0  0  0  0
 29 32  1  1  0  0  0
 29 30  1  0  0  0  0
 31 30  1  0  0  0  0
 32 33  1  0  0  0  0
 33 34  1  0  0  0  0
M  END
>  <MODEL>
2

>  <REMARK>
 VINA RESULT:      -9.7      2.275      4.834
  Name = 
  5 active torsions:
  status: ('A' for Active; 'I' for Inactive)
    1  A    between atoms: N_2  and  C_34
    2  A    between atoms: C_3  and  O_13
    3  A    between atoms: C_3  and  C_25
    4  A    between atoms: C_7  and  C_11
    5  A    between atoms: C_18  and  C_30
                            x       y       z     vdW  Elec       q    Type
                         _______ _______ _______ _____ _____    ______ ____

>  <TORSDO>
F 5

$$$$
=
 OpenBabel10262423293D

 34 39  0  0  1  0  0  0  0  0999 V2000
  184.5470  178.1800  142.5100 N   0  0  0  0  0  0  0  0  0  0  0  0
  181.1490  177.9300  139.9040 C   0  0  0  0  0  2  0  0  0  0  0  0
  183.1550  178.8870  144.3010 N   0  0  0  0  0  2  0  0  0  0  0  0
  183.5000  178.4480  141.5200 C   0  0  2  0  0  3  0  0  0  0  0  0
  181.9880  178.8380  143.4800 C   0  0  0  0  0  0  0  0  0  0  0  0
  179.5810  178.8950  143.2250 C   0  0  0  0  0  3  0  0  0  0  0  0
  180.7180  179.0360  144.0300 C   0  0  0  0  0  3  0  0  0  0  0  0
  184.4200  178.4490  143.7810 C   0  0  0  0  0  0  0  0  0  0  0  0
  180.9840  178.3380  141.3300 C   0  0  0  0  0  0  0  0  0  0  0  0
  182.1210  178.5080  142.1290 C   0  0  0  0  0  0  0  0  0  0  0  0
  179.7120  178.5400  141.8770 C   0  0  0  0  0  3  0  0  0  0  0  0
  182.2980  176.9270  139.8110 C   0  0  0  0  0  2  0  0  0  0  0  0
  183.6460  177.5340  140.2730 C   0  0  1  0  0  3  0  0  0  0  0  0
  186.4700  178.2310  146.9710 C   0  0  0  0  0  3  0  0  0  0  0  0
  186.8060  177.8350  144.1890 C   0  0  0  0  0  3  0  0  0  0  0  0
  190.0030  177.1290  145.8460 C   0  0  0  0  0  0  0  0  0  0  0  0
  189.1310  177.5290  147.2440 S   0  0  0  0  0  0  0  0  0  0  0  0
  187.6900  177.8350  146.4350 C   0  0  0  0  0  0  0  0  0  0  0  0
  189.1650  177.2440  144.7380 C   0  0  0  0  0  0  0  0  0  0  0  0
  187.8670  177.6360  145.0730 C   0  0  0  0  0  0  0  0  0  0  0  0
  189.5800  176.9960  143.4340 O   0  0  0  0  0  1  0  0  0  0  0  0
  185.5560  178.2370  144.6980 C   0  0  0  0  0  0  0  0  0  0  0  0
  185.3980  178.4310  146.0890 C   0  0  0  0  0  3  0  0  0  0  0  0
  191.4480  176.7580  145.7990 C   0  0  1  0  0  3  0  0  0  0  0  0
  191.8680  176.1170  147.1070 C   0  0  0  0  0  1  0  0  0  0  0  0
  191.6830  175.8750  144.7450 O   0  0  0  0  0  1  0  0  0  0  0  0
  184.3020  178.2560  139.1690 N   0  0  2  0  0  0  0  0  0  0  0  0
  184.1850  177.4640  137.9470 C   0  0  0  0  0  2  0  0  0  0  0  0
  185.4240  177.7110  137.1160 C   0  0  1  0  0  3  0  0  0  0  0  0
  186.4420  178.2690  138.0790 C   0  0  0  0  0  2  0  0  0  0  0  0
  185.7400  178.3130  139.4170 C   0  0  0  0  0  2  0  0  0  0  0  0
  185.9080  176.3980  136.5270 C   0  0  0  0  0  2  0  0  0  0  0  0
  185.2950  175.3280  137.1800 O   0  0  0  0  0  0  0  0  0  0  0  0
  186.2490  174.3120  137.1590 C   0  0  0  0  0  1  0  0  0  0  0  0
  1  8  2  0  0  0  0
  2  9  1  0  0  0  0
  4 10  1  1  0  0  0
  4  1  1  0  0  0  0
  5  7  1  0  0  0  0
  5  3  1  0  0  0  0
  6  7  2  0  0  0  0
  8  3  1  0  0  0  0
  8 22  1  0  0  0  0
  9 11  2  0  0  0  0
  9 10  1  0  0  0  0
 10  5  2  0  0  0  0
 11  6  1  0  0  0  0
 12  2  1  0  0  0  0
 13 12  1  6  0  0  0
 13  4  1  0  0  0  0
 15 22  2  0  0  0  0
 15 20  1  0  0  0  0
 16 17  1  0  0  0  0
 18 14  1  0  0  0  0
 18 17  1  0  0  0  0
 19 20  1  0  0  0  0
 19 16  2  0  0  0  0
 20 18  2  0  0  0  0
 21 19  1  0  0  0  0
 22 23  1  0  0  0  0
 23 14  2  0  0  0  0
 24 16  1  0  0  0  0
 24 25  1  1  0  0  0
 26 24  1  0  0  0  0
 27 28  1  6  0  0  0
 27 31  1  0  0  0  0
 27 13  1  0  0  0  0
 29 32  1  1  0  0  0
 29 28  1  0  0  0  0
 29 30  1  0  0  0  0
 30 31  1  0  0  0  0
 32 33  1  0  0  0  0
 34 33  1  0  0  0  0
M  END
>  <MODEL>
3

>  <REMARK>
 VINA RESULT:      -9.7      3.568      8.046
  Name = 
  5 active torsions:
  status: ('A' for Active; 'I' for Inactive)
    1  A    between atoms: N_2  and  C_34
    2  A    between atoms: C_3  and  O_13
    3  A    between atoms: C_3  and  C_25
    4  A    between atoms: C_7  and  C_11
    5  A    between atoms: C_18  and  C_30
                            x       y       z     vdW  Elec       q    Type
                         _______ _______ _______ _____ _____    ______ ____

>  <TORSDO>
F 5

$$$$
=
 OpenBabel10262423293D

 34 39  0  0  1  0  0  0  0  0999 V2000
  188.5310  177.6410  142.6100 N   0  0  0  0  0  0  0  0  0  0  0  0
  187.4390  177.5730  146.7580 C   0  0  0  0  0  2  0  0  0  0  0  0
  190.8150  177.3170  143.1790 N   0  0  0  0  0  2  0  0  0  0  0  0
  188.1830  178.0000  143.9890 C   0  0  2  0  0  3  0  0  0  0  0  0
  190.5180  177.3010  144.5750 C   0  0  0  0  0  0  0  0  0  0  0  0
  191.1740  176.8930  146.8700 C   0  0  0  0  0  3  0  0  0  0  0  0
  191.5070  176.9910  145.5140 C   0  0  0  0  0  3  0  0  0  0  0  0
  189.7510  177.3980  142.2170 C   0  0  0  0  0  0  0  0  0  0  0  0
  188.8610  177.3920  146.3450 C   0  0  0  0  0  0  0  0  0  0  0  0
  189.2020  177.5190  144.9920 C   0  0  0  0  0  0  0  0  0  0  0  0
  189.8510  177.0870  147.2860 C   0  0  0  0  0  3  0  0  0  0  0  0
  186.5360  176.9630  145.6880 C   0  0  0  0  0  2  0  0  0  0  0  0
  186.7050  177.6550  144.3130 C   0  0  1  0  0  3  0  0  0  0  0  0
  189.2250  176.8240  138.4990 C   0  0  0  0  0  3  0  0  0  0  0  0
  191.3570  176.9520  140.3580 C   0  0  0  0  0  3  0  0  0  0  0  0
  192.7650  176.2830  137.0360 C   0  0  0  0  0  0  0  0  0  0  0  0
  191.1380  176.3360  136.5620 S   0  0  0  0  0  0  0  0  0  0  0  0
  190.5470  176.6470  138.1040 C   0  0  0  0  0  0  0  0  0  0  0  0
  192.8460  176.5000  138.4100 C   0  0  0  0  0  0  0  0  0  0  0  0
  191.6000  176.7080  139.0050 C   0  0  0  0  0  0  0  0  0  0  0  0
  194.0450  176.5070  139.1150 O   0  0  0  0  0  1  0  0  0  0  0  0
  190.0300  177.1370  140.7930 C   0  0  0  0  0  0  0  0  0  0  0  0
  188.9720  177.0720  139.8560 C   0  0  0  0  0  3  0  0  0  0  0  0
  193.9230  176.0020  136.1370 C   0  0  1  0  0  3  0  0  0  0  0  0
  193.4340  175.6380  134.7490 C   0  0  0  0  0  1  0  0  0  0  0  0
  194.7560  177.1190  136.0650 O   0  0  0  0  0  1  0  0  0  0  0  0
  185.8560  178.8550  144.2220 N   0  0  2  0  0  0  0  0  0  0  0  0
  184.6700  178.6630  145.0530 C   0  0  0  0  0  2  0  0  0  0  0  0
  183.5190  179.3890  144.3930 C   0  0  1  0  0  3  0  0  0  0  0  0
  183.9480  179.5900  142.9610 C   0  0  0  0  0  2  0  0  0  0  0  0
  185.3230  178.9670  142.8660 C   0  0  0  0  0  2  0  0  0  0  0  0
  182.2710  178.5280  144.4610 C   0  0  0  0  0  2  0  0  0  0  0  0
  181.3470  178.9530  143.5070 O   0  0  0  0  0  0  0  0  0  0  0  0
  180.1230  178.4660  143.9660 C   0  0  0  0  0  1  0  0  0  0  0  0
  3  5  1  0  0  0  0
  4  1  1  6  0  0  0
  4 13  1  0  0  0  0
  4 10  1  0  0  0  0
  5 10  2  0  0  0  0
  5  7  1  0  0  0  0
  6 11  1  0  0  0  0
  7  6  2  0  0  0  0
  8  1  2  0  0  0  0
  8  3  1  0  0  0  0
  9  2  1  0  0  0  0
  9 11  2  0  0  0  0
 10  9  1  0  0  0  0
 12  2  1  0  0  0  0
 13 12  1  1  0  0  0
 14 23  1  0  0  0  0
 15 22  1  0  0  0  0
 16 19  2  0  0  0  0
 17 16  1  0  0  0  0
 17 18  1  0  0  0  0
 18 14  2  0  0  0  0
 18 20  1  0  0  0  0
 19 20  1  0  0  0  0
 19 21  1  0  0  0  0
 20 15  2  0  0  0  0
 22  8  1  0  0  0  0
 23 22  2  0  0  0  0
 24 25  1  6  0  0  0
 24 16  1  0  0  0  0
 26 24  1  0  0  0  0
 27 31  1  6  0  0  0
 27 13  1  0  0  0  0
 27 28  1  0  0  0  0
 29 32  1  6  0  0  0
 29 28  1  0  0  0  0
 30 29  1  0  0  0  0
 31 30  1  0  0  0  0
 33 34  1  0  0  0  0
 33 32  1  0  0  0  0
M  END
>  <MODEL>
4

>  <REMARK>
 VINA RESULT:      -9.6      3.003      8.458
  Name = 
  5 active torsions:
  status: ('A' for Active; 'I' for Inactive)
    1  A    between atoms: N_2  and  C_34
    2  A    between atoms: C_3  and  O_13
    3  A    between atoms: C_3  and  C_25
    4  A    between atoms: C_7  and  C_11
    5  A    between atoms: C_18  and  C_30
                            x       y       z     vdW  Elec       q    Type
                         _______ _______ _______ _____ _____    ______ ____

>  <TORSDO>
F 5

$$$$
=
 OpenBabel10262423293D

 34 39  0  0  1  0  0  0  0  0999 V2000
  188.3810  177.6630  142.5480 N   0  0  0  0  0  0  0  0  0  0  0  0
  187.5070  177.5190  146.7450 C   0  0  0  0  0  2  0  0  0  0  0  0
  190.6920  177.3380  142.9900 N   0  0  0  0  0  2  0  0  0  0  0  0
  188.1040  177.9960  143.9490 C   0  0  2  0  0  3  0  0  0  0  0  0
  190.4680  177.2950  144.3990 C   0  0  0  0  0  0  0  0  0  0  0  0
  191.2440  176.8500  146.6490 C   0  0  0  0  0  3  0  0  0  0  0  0
  191.5060  176.9730  145.2800 C   0  0  0  0  0  3  0  0  0  0  0  0
  189.5790  177.4320  142.0870 C   0  0  0  0  0  0  0  0  0  0  0  0
  188.9060  177.3500  146.2550 C   0  0  0  0  0  0  0  0  0  0  0  0
  189.1750  177.5010  144.8890 C   0  0  0  0  0  0  0  0  0  0  0  0
  189.9440  177.0320  147.1370 C   0  0  0  0  0  3  0  0  0  0  0  0
  186.5510  176.9240  145.7130 C   0  0  0  0  0  2  0  0  0  0  0  0
  186.6460  177.6410  144.3440 C   0  0  1  0  0  3  0  0  0  0  0  0
  191.2660  176.6110  138.7840 C   0  0  0  0  0  3  0  0  0  0  0  0
  188.7030  177.3240  139.7510 C   0  0  0  0  0  3  0  0  0  0  0  0
  188.4810  176.8910  136.1140 C   0  0  0  0  0  0  0  0  0  0  0  0
  190.1330  176.5400  136.2620 S   0  0  0  0  0  0  0  0  0  0  0  0
  190.1770  176.7450  137.9300 C   0  0  0  0  0  0  0  0  0  0  0  0
  187.9620  177.1800  137.3750 C   0  0  0  0  0  0  0  0  0  0  0  0
  188.9160  177.0940  138.3910 C   0  0  0  0  0  0  0  0  0  0  0  0
  186.6320  177.5220  137.5970 O   0  0  0  0  0  1  0  0  0  0  0  0
  189.7830  177.1960  140.6450 C   0  0  0  0  0  0  0  0  0  0  0  0
  191.0600  176.8390  140.1530 C   0  0  0  0  0  3  0  0  0  0  0  0
  187.7120  176.9310  134.8360 C   0  0  1  0  0  3  0  0  0  0  0  0
  186.7040  175.7990  134.7930 C   0  0  0  0  0  1  0  0  0  0  0  0
  187.0520  178.1530  134.7110 O   0  0  0  0  0  1  0  0  0  0  0  0
  185.7900  178.8390  144.3180 N   0  0  2  0  0  0  0  0  0  0  0  0
  184.5820  178.5780  145.0970 C   0  0  0  0  0  2  0  0  0  0  0  0
  183.4450  179.3450  144.4600 C   0  0  1  0  0  3  0  0  0  0  0  0
  183.9140  179.6560  143.0600 C   0  0  0  0  0  2  0  0  0  0  0  0
  185.2950  179.0510  142.9600 C   0  0  0  0  0  2  0  0  0  0  0  0
  182.2030  178.4730  144.4260 C   0  0  0  0  0  2  0  0  0  0  0  0
  181.2480  179.0380  143.5810 O   0  0  0  0  0  0  0  0  0  0  0  0
  180.0360  178.5020  144.0150 C   0  0  0  0  0  1  0  0  0  0  0  0
  3  5  1  0  0  0  0
  4  1  1  6  0  0  0
  4 13  1  0  0  0  0
  4 10  1  0  0  0  0
  5 10  2  0  0  0  0
  5  7  1  0  0  0  0
  6 11  1  0  0  0  0
  7  6  2  0  0  0  0
  8  1  2  0  0  0  0
  8  3  1  0  0  0  0
  9  2  1  0  0  0  0
  9 11  2  0  0  0  0
 10  9  1  0  0  0  0
 12  2  1  0  0  0  0
 13 12  1  1  0  0  0
 14 23  1  0  0  0  0
 15 22  1  0  0  0  0
 16 17  1  0  0  0  0
 16 19  2  0  0  0  0
 17 18  1  0  0  0  0
 18 20  1  0  0  0  0
 18 14  2  0  0  0  0
 19 21  1  0  0  0  0
 19 20  1  0  0  0  0
 20 15  2  0  0  0  0
 22  8  1  0  0  0  0
 23 22  2  0  0  0  0
 24 25  1  1  0  0  0
 24 16  1  0  0  0  0
 26 24  1  0  0  0  0
 27 31  1  6  0  0  0
 27 13  1  0  0  0  0
 27 28  1  0  0  0  0
 29 32  1  6  0  0  0
 29 28  1  0  0  0  0
 30 29  1  0  0  0  0
 31 30  1  0  0  0  0
 33 34  1  0  0  0  0
 33 32  1  0  0  0  0
M  END
>  <MODEL>
5

>  <REMARK>
 VINA RESULT:      -9.0      3.160      7.192
  Name = 
  5 active torsions:
  status: ('A' for Active; 'I' for Inactive)
    1  A    between atoms: N_2  and  C_34
    2  A    between atoms: C_3  and  O_13
    3  A    between atoms: C_3  and  C_25
    4  A    between atoms: C_7  and  C_11
    5  A    between atoms: C_18  and  C_30
                            x       y       z     vdW  Elec       q    Type
                         _______ _______ _______ _____ _____    ______ ____

>  <TORSDO>
F 5

$$$$
=
 OpenBabel10262423293D

 34 39  0  0  1  0  0  0  0  0999 V2000
  187.5280  178.1390  143.4150 N   0  0  0  0  0  0  0  0  0  0  0  0
  191.6770  177.8720  144.4700 C   0  0  0  0  0  2  0  0  0  0  0  0
  186.9050  177.2690  145.5350 N   0  0  0  0  0  2  0  0  0  0  0  0
  188.9200  177.7120  143.5890 C   0  0  2  0  0  3  0  0  0  0  0  0
  188.2680  177.1420  145.9400 C   0  0  0  0  0  0  0  0  0  0  0  0
  189.9350  176.7420  147.6500 C   0  0  0  0  0  3  0  0  0  0  0  0
  188.5940  176.7740  147.2490 C   0  0  0  0  0  3  0  0  0  0  0  0
  186.5820  177.8730  144.2730 C   0  0  0  0  0  0  0  0  0  0  0  0
  190.6200  177.4640  145.4410 C   0  0  0  0  0  0  0  0  0  0  0  0
  189.2800  177.4680  145.0330 C   0  0  0  0  0  0  0  0  0  0  0  0
  190.9480  177.0930  146.7490 C   0  0  0  0  0  3  0  0  0  0  0  0
  191.1460  179.0240  143.6200 C   0  0  0  0  0  2  0  0  0  0  0  0
  189.8990  178.6190  142.7960 C   0  0  1  0  0  3  0  0  0  0  0  0
  182.9890  179.0060  144.7560 C   0  0  0  0  0  3  0  0  0  0  0  0
  184.7210  178.2440  142.6500 C   0  0  0  0  0  3  0  0  0  0  0  0
  181.4480  179.0640  141.2080 C   0  0  0  0  0  0  0  0  0  0  0  0
  181.0400  179.3650  142.8260 S   0  0  0  0  0  0  0  0  0  0  0  0
  182.5610  178.9840  143.4330 C   0  0  0  0  0  0  0  0  0  0  0  0
  182.7780  178.6520  141.1430 C   0  0  0  0  0  0  0  0  0  0  0  0
  183.4000  178.6130  142.3930 C   0  0  0  0  0  0  0  0  0  0  0  0
  183.4180  178.3150  139.9550 O   0  0  0  0  0  1  0  0  0  0  0  0
  185.1890  178.2560  143.9790 C   0  0  0  0  0  0  0  0  0  0  0  0
  184.3160  178.6390  145.0230 C   0  0  0  0  0  3  0  0  0  0  0  0
  180.5210  179.1740  140.0440 C   0  0  1  0  0  3  0  0  0  0  0  0
  179.1430  178.6640  140.4190 C   0  0  0  0  0  1  0  0  0  0  0  0
  180.4330  180.5020  139.6240 O   0  0  0  0  0  1  0  0  0  0  0  0
  190.2930  177.9820  141.5280 N   0  0  2  0  0  0  0  0  0  0  0  0
  189.6290  178.6690  140.4230 C   0  0  0  0  0  2  0  0  0  0  0  0
  189.3480  177.6470  139.3450 C   0  0  1  0  0  3  0  0  0  0  0  0
  189.4300  176.3090  140.0360 C   0  0  0  0  0  2  0  0  0  0  0  0
  189.7500  176.6270  141.4790 C   0  0  0  0  0  2  0  0  0  0  0  0
  187.9560  177.8740  138.7820 C   0  0  0  0  0  2  0  0  0  0  0  0
  187.9530  179.0000  137.9590 O   0  0  0  0  0  0  0  0  0  0  0  0
  188.7110  178.6240  136.8500 C   0  0  0  0  0  1  0  0  0  0  0  0
  1  8  2  0  0  0  0
  2  9  1  0  0  0  0
  3  5  1  0  0  0  0
  4  1  1  1  0  0  0
  4 10  1  0  0  0  0
  5  7  1  0  0  0  0
  7  6  2  0  0  0  0
  8  3  1  0  0  0  0
  9 11  2  0  0  0  0
 10  9  1  0  0  0  0
 10  5  2  0  0  0  0
 11  6  1  0  0  0  0
 12  2  1  0  0  0  0
 13  4  1  0  0  0  0
 13 12  1  1  0  0  0
 14 23  1  0  0  0  0
 15 22  1  0  0  0  0
 16 17  1  0  0  0  0
 17 18  1  0  0  0  0
 18 14  2  0  0  0  0
 19 16  2  0  0  0  0
 19 20  1  0  0  0  0
 20 15  2  0  0  0  0
 20 18  1  0  0  0  0
 21 19  1  0  0  0  0
 22  8  1  0  0  0  0
 22 23  2  0  0  0  0
 24 25  1  1  0  0  0
 24 16  1  0  0  0  0
 26 24  1  0  0  0  0
 27 28  1  6  0  0  0
 27 13  1  0  0  0  0
 29 32  1  1  0  0  0
 29 30  1  0  0  0  0
 29 28  1  0  0  0  0
 30 31  1  0  0  0  0
 31 27  1  0  0  0  0
 33 32  1  0  0  0  0
 34 33  1  0  0  0  0
M  END
>  <MODEL>
6

>  <REMARK>
 VINA RESULT:      -9.0      1.723      2.001
  Name = 
  5 active torsions:
  status: ('A' for Active; 'I' for Inactive)
    1  A    between atoms: N_2  and  C_34
    2  A    between atoms: C_3  and  O_13
    3  A    between atoms: C_3  and  C_25
    4  A    between atoms: C_7  and  C_11
    5  A    between atoms: C_18  and  C_30
                            x       y       z     vdW  Elec       q    Type
                         _______ _______ _______ _____ _____    ______ ____

>  <TORSDO>
F 5

$$$$
=
 OpenBabel10262423293D

 34 39  0  0  1  0  0  0  0  0999 V2000
  186.9650  178.1680  141.8110 N   0  0  0  0  0  0  0  0  0  0  0  0
  190.9820  176.6970  142.1260 C   0  0  0  0  0  2  0  0  0  0  0  0
  187.2600  178.5510  139.4850 N   0  0  0  0  0  2  0  0  0  0  0  0
  188.4090  178.0280  142.0250 C   0  0  2  0  0  3  0  0  0  0  0  0
  188.6090  178.0860  139.5280 C   0  0  0  0  0  0  0  0  0  0  0  0
  190.6390  177.3870  138.4080 C   0  0  0  0  0  3  0  0  0  0  0  0
  189.3500  177.9290  138.3520 C   0  0  0  0  0  3  0  0  0  0  0  0
  186.4370  178.4820  140.6600 C   0  0  0  0  0  0  0  0  0  0  0  0
  190.4380  177.1420  140.8100 C   0  0  0  0  0  0  0  0  0  0  0  0
  189.1600  177.7110  140.7560 C   0  0  0  0  0  0  0  0  0  0  0  0
  191.1820  176.9880  139.6360 C   0  0  0  0  0  3  0  0  0  0  0  0
  189.8460  176.0880  142.9460 C   0  0  0  0  0  2  0  0  0  0  0  0
  188.7200  177.1110  143.2390 C   0  0  1  0  0  3  0  0  0  0  0  0
  183.0020  179.1140  139.1680 C   0  0  0  0  0  3  0  0  0  0  0  0
  184.1790  178.6860  141.7060 C   0  0  0  0  0  3  0  0  0  0  0  0
  180.5670  179.1340  142.1730 C   0  0  0  0  0  0  0  0  0  0  0  0
  180.5800  179.3150  140.4880 S   0  0  0  0  0  0  0  0  0  0  0  0
  182.2390  179.0970  140.3300 C   0  0  0  0  0  0  0  0  0  0  0  0
  181.8700  178.9120  142.6170 C   0  0  0  0  0  0  0  0  0  0  0  0
  182.8040  178.8880  141.5800 C   0  0  0  0  0  0  0  0  0  0  0  0
  182.2030  178.7350  143.9560 O   0  0  0  0  0  1  0  0  0  0  0  0
  184.9820  178.6960  140.5490 C   0  0  0  0  0  0  0  0  0  0  0  0
  184.3850  178.9100  139.2860 C   0  0  0  0  0  3  0  0  0  0  0  0
  179.3640  179.2420  143.0500 C   0  0  1  0  0  3  0  0  0  0  0  0
  179.5240  178.3610  144.2730 C   0  0  0  0  0  1  0  0  0  0  0  0
  179.1760  180.5670  143.4460 O   0  0  0  0  0  1  0  0  0  0  0  0
  189.0360  177.9120  144.4330 N   0  0  2  0  0  0  0  0  0  0  0  0
  190.3340  177.4940  144.9570 C   0  0  0  0  0  2  0  0  0  0  0  0
  190.2970  177.6470  146.4610 C   0  0  1  0  0  3  0  0  0  0  0  0
  188.8320  177.7040  146.8180 C   0  0  0  0  0  2  0  0  0  0  0  0
  188.0980  177.5760  145.5010 C   0  0  0  0  0  2  0  0  0  0  0  0
  190.9580  176.4440  147.1100 C   0  0  0  0  0  2  0  0  0  0  0  0
  192.0030  176.8620  147.9340 O   0  0  0  0  0  0  0  0  0  0  0  0
  192.7480  175.7060  148.1670 C   0  0  0  0  0  1  0  0  0  0  0  0
  1  4  1  0  0  0  0
  2 12  1  0  0  0  0
  3  5  1  0  0  0  0
  3  8  1  0  0  0  0
  4 10  1  6  0  0  0
  4 13  1  0  0  0  0
  5 10  1  0  0  0  0
  6 11  2  0  0  0  0
  7  6  1  0  0  0  0
  7  5  2  0  0  0  0
  8  1  2  0  0  0  0
  9  2  1  0  0  0  0
 10  9  2  0  0  0  0
 11  9  1  0  0  0  0
 13 12  1  6  0  0  0
 13 27  1  0  0  0  0
 14 23  2  0  0  0  0
 14 18  1  0  0  0  0
 16 19  2  0  0  0  0
 16 24  1  0  0  0  0
 17 16  1  0  0  0  0
 18 17  1  0  0  0  0
 18 20  2  0  0  0  0
 19 21  1  0  0  0  0
 20 15  1  0  0  0  0
 20 19  1  0  0  0  0
 22  8  1  0  0  0  0
 22 15  2  0  0  0  0
 23 22  1  0  0  0  0
 24 26  1  0  0  0  0
 24 25  1  1  0  0  0
 27 28  1  1  0  0  0
 27 31  1  0  0  0  0
 28 29  1  0  0  0  0
 29 30  1  0  0  0  0
 29 32  1  1  0  0  0
 31 30  1  0  0  0  0
 32 33  1  0  0  0  0
 33 34  1  0  0  0  0
M  END
>  <MODEL>
7

>  <REMARK>
 VINA RESULT:      -9.0      2.613      5.379
  Name = 
  5 active torsions:
  status: ('A' for Active; 'I' for Inactive)
    1  A    between atoms: N_2  and  C_34
    2  A    between atoms: C_3  and  O_13
    3  A    between atoms: C_3  and  C_25
    4  A    between atoms: C_7  and  C_11
    5  A    between atoms: C_18  and  C_30
                            x       y       z     vdW  Elec       q    Type
                         _______ _______ _______ _____ _____    ______ ____

>  <TORSDO>
F 5

$$$$
=
 OpenBabel10262423293D

 34 39  0  0  1  0  0  0  0  0999 V2000
  184.8990  178.3760  140.4450 N   0  0  0  0  0  0  0  0  0  0  0  0
  183.8310  177.4930  136.3850 C   0  0  0  0  0  2  0  0  0  0  0  0
  182.6160  178.7330  140.9970 N   0  0  0  0  0  2  0  0  0  0  0  0
  184.6180  178.4460  139.0080 C   0  0  2  0  0  3  0  0  0  0  0  0
  182.1980  178.4640  139.6580 C   0  0  0  0  0  0  0  0  0  0  0  0
  180.4530  178.0270  138.0370 C   0  0  0  0  0  3  0  0  0  0  0  0
  180.8400  178.3800  139.3350 C   0  0  0  0  0  3  0  0  0  0  0  0
  183.9960  178.5800  141.3640 C   0  0  0  0  0  0  0  0  0  0  0  0
  182.7800  177.8220  137.3930 C   0  0  0  0  0  0  0  0  0  0  0  0
  183.1650  178.2030  138.6840 C   0  0  0  0  0  0  0  0  0  0  0  0
  181.4220  177.7420  137.0670 C   0  0  0  0  0  3  0  0  0  0  0  0
  184.9680  176.7540  137.0870 C   0  0  0  0  0  2  0  0  0  0  0  0
  185.6400  177.6150  138.1850 C   0  0  1  0  0  3  0  0  0  0  0  0
  183.7920  178.9520  145.1390 C   0  0  0  0  0  3  0  0  0  0  0  0
  185.6870  178.2260  143.1660 C   0  0  0  0  0  3  0  0  0  0  0  0
  187.3060  178.0100  146.4520 C   0  0  0  0  0  0  0  0  0  0  0  0
  185.7860  178.5160  147.0060 S   0  0  0  0  0  0  0  0  0  0  0  0
  185.0920  178.5920  145.4770 C   0  0  0  0  0  0  0  0  0  0  0  0
  187.2750  177.9100  145.0620 C   0  0  0  0  0  0  0  0  0  0  0  0
  186.0300  178.2330  144.5190 C   0  0  0  0  0  0  0  0  0  0  0  0
  188.3720  177.5290  144.2970 O   0  0  0  0  0  1  0  0  0  0  0  0
  184.3790  178.5850  142.7890 C   0  0  0  0  0  0  0  0  0  0  0  0
  183.4390  178.9460  143.7810 C   0  0  0  0  0  3  0  0  0  0  0  0
  188.5030  177.7580  147.3080 C   0  0  1  0  0  3  0  0  0  0  0  0
  188.2470  178.2390  148.7230 C   0  0  0  0  0  1  0  0  0  0  0  0
  188.8050  176.3960  147.3210 O   0  0  0  0  0  1  0  0  0  0  0  0
  186.6780  178.4850  137.6080 N   0  0  2  0  0  0  0  0  0  0  0  0
  187.1130  177.9240  136.3310 C   0  0  0  0  0  2  0  0  0  0  0  0
  188.5790  178.2520  136.1560 C   0  0  1  0  0  3  0  0  0  0  0  0
  189.0770  178.5850  137.5410 C   0  0  0  0  0  2  0  0  0  0  0  0
  187.8740  178.4290  138.4440 C   0  0  0  0  0  2  0  0  0  0  0  0
  189.3060  177.0390  135.6040 C   0  0  0  0  0  2  0  0  0  0  0  0
  188.9050  175.8910  136.2870 O   0  0  0  0  0  0  0  0  0  0  0  0
  189.7300  174.8820  135.7890 C   0  0  0  0  0  1  0  0  0  0  0  0
  1  8  2  0  0  0  0
  2 12  1  0  0  0  0
  2  9  1  0  0  0  0
  3  8  1  0  0  0  0
  4 10  1  1  0  0  0
  4  1  1  0  0  0  0
  5  3  1  0  0  0  0
  6  7  2  0  0  0  0
  7  5  1  0  0  0  0
  8 22  1  0  0  0  0
  9 10  1  0  0  0  0
 10  5  2  0  0  0  0
 11  9  2  0  0  0  0
 11  6  1  0  0  0  0
 13 12  1  6  0  0  0
 13  4  1  0  0  0  0
 14 18  1  0  0  0  0
 15 20  1  0  0  0  0
 16 17  1  0  0  0  0
 16 24  1  0  0  0  0
 18 17  1  0  0  0  0
 19 16  2  0  0  0  0
 20 19  1  0  0  0  0
 20 18  2  0  0  0  0
 21 19  1  0  0  0  0
 22 15  2  0  0  0  0
 22 23  1  0  0  0  0
 23 14  2  0  0  0  0
 24 26  1  0  0  0  0
 24 25  1  1  0  0  0
 27 28  1  6  0  0  0
 27 13  1  0  0  0  0
 27 31  1  0  0  0  0
 29 32  1  1  0  0  0
 29 28  1  0  0  0  0
 29 30  1  0  0  0  0
 30 31  1  0  0  0  0
 32 33  1  0  0  0  0
 34 33  1  0  0  0  0
M  END
>  <MODEL>
8

>  <REMARK>
 VINA RESULT:      -8.9      3.770      7.720
  Name = 
  5 active torsions:
  status: ('A' for Active; 'I' for Inactive)
    1  A    between atoms: N_2  and  C_34
    2  A    between atoms: C_3  and  O_13
    3  A    between atoms: C_3  and  C_25
    4  A    between atoms: C_7  and  C_11
    5  A    between atoms: C_18  and  C_30
                            x       y       z     vdW  Elec       q    Type
                         _______ _______ _______ _____ _____    ______ ____

>  <TORSDO>
F 5

$$$$
=
 OpenBabel10262423293D

 34 39  0  0  1  0  0  0  0  0999 V2000
  187.3140  177.5770  142.5700 N   0  0  0  0  0  0  0  0  0  0  0  0
  191.5730  177.0790  142.6930 C   0  0  0  0  0  2  0  0  0  0  0  0
  187.2120  177.5220  144.9430 N   0  0  0  0  0  2  0  0  0  0  0  0
  188.6770  177.0360  142.5630 C   0  0  2  0  0  3  0  0  0  0  0  0
  188.6240  177.3400  145.0500 C   0  0  0  0  0  0  0  0  0  0  0  0
  190.6520  177.2740  146.3720 C   0  0  0  0  0  3  0  0  0  0  0  0
  189.2570  177.3650  146.2970 C   0  0  0  0  0  3  0  0  0  0  0  0
  186.6090  177.7330  143.6570 C   0  0  0  0  0  0  0  0  0  0  0  0
  190.7810  177.1540  143.9550 C   0  0  0  0  0  0  0  0  0  0  0  0
  189.3840  177.2150  143.8830 C   0  0  0  0  0  0  0  0  0  0  0  0
  191.4150  177.1740  145.2020 C   0  0  0  0  0  3  0  0  0  0  0  0
  190.9060  177.9650  141.6420 C   0  0  0  0  0  2  0  0  0  0  0  0
  189.4680  177.4980  141.3080 C   0  0  1  0  0  3  0  0  0  0  0  0
  183.2170  179.1240  144.6490 C   0  0  0  0  0  3  0  0  0  0  0  0
  184.5310  178.1540  142.3370 C   0  0  0  0  0  3  0  0  0  0  0  0
  181.1190  179.1240  141.3990 C   0  0  0  0  0  0  0  0  0  0  0  0
  181.0020  179.5250  143.0420 S   0  0  0  0  0  0  0  0  0  0  0  0
  182.5760  179.0700  143.4160 C   0  0  0  0  0  0  0  0  0  0  0  0
  182.3940  178.6220  141.1420 C   0  0  0  0  0  0  0  0  0  0  0  0
  183.2090  178.5970  142.2760 C   0  0  0  0  0  0  0  0  0  0  0  0
  182.8090  178.1890  139.8880 O   0  0  0  0  0  1  0  0  0  0  0  0
  185.2110  178.1940  143.5700 C   0  0  0  0  0  0  0  0  0  0  0  0
  184.5460  178.6820  144.7190 C   0  0  0  0  0  3  0  0  0  0  0  0
  180.0220  179.2430  140.3940 C   0  0  1  0  0  3  0  0  0  0  0  0
  179.2120  177.9620  140.3470 C   0  0  0  0  0  1  0  0  0  0  0  0
  179.1890  180.3140  140.7190 O   0  0  0  0  0  1  0  0  0  0  0  0
  189.4830  176.4420  140.2820 N   0  0  2  0  0  0  0  0  0  0  0  0
  190.8480  176.2800  139.7860 C   0  0  0  0  0  2  0  0  0  0  0  0
  190.7670  175.8910  138.3270 C   0  0  1  0  0  3  0  0  0  0  0  0
  189.3810  176.2910  137.8870 C   0  0  0  0  0  2  0  0  0  0  0  0
  188.7340  176.8940  139.1130 C   0  0  0  0  0  2  0  0  0  0  0  0
  191.8190  176.6520  137.5410 C   0  0  0  0  0  2  0  0  0  0  0  0
  192.8420  175.7870  137.1520 O   0  0  0  0  0  0  0  0  0  0  0  0
  193.8500  176.6280  136.6800 C   0  0  0  0  0  1  0  0  0  0  0  0
  1  8  2  0  0  0  0
  2  9  1  0  0  0  0
  3  5  1  0  0  0  0
  4  1  1  1  0  0  0
  4 10  1  0  0  0  0
  5  7  1  0  0  0  0
  7  6  2  0  0  0  0
  8  3  1  0  0  0  0
  9 11  2  0  0  0  0
 10  9  1  0  0  0  0
 10  5  2  0  0  0  0
 11  6  1  0  0  0  0
 12  2  1  0  0  0  0
 13 12  1  1  0  0  0
 13  4  1  0  0  0  0
 14 23  1  0  0  0  0
 15 22  1  0  0  0  0
 16 17  1  0  0  0  0
 17 18  1  0  0  0  0
 18 14  2  0  0  0  0
 19 16  2  0  0  0  0
 19 20  1  0  0  0  0
 20 15  2  0  0  0  0
 20 18  1  0  0  0  0
 21 19  1  0  0  0  0
 22  8  1  0  0  0  0
 22 23  2  0  0  0  0
 24 25  1  1  0  0  0
 24 26  1  0  0  0  0
 24 16  1  0  0  0  0
 27 31  1  6  0  0  0
 27 13  1  0  0  0  0
 28 27  1  0  0  0  0
 29 32  1  6  0  0  0
 29 28  1  0  0  0  0
 30 29  1  0  0  0  0
 30 31  1  0  0  0  0
 33 32  1  0  0  0  0
 34 33  1  0  0  0  0
M  END
>  <MODEL>
9

>  <REMARK>
 VINA RESULT:      -8.8      1.438      1.944
  Name = 
  5 active torsions:
  status: ('A' for Active; 'I' for Inactive)
    1  A    between atoms: N_2  and  C_34
    2  A    between atoms: C_3  and  O_13
    3  A    between atoms: C_3  and  C_25
    4  A    between atoms: C_7  and  C_11
    5  A    between atoms: C_18  and  C_30
                            x       y       z     vdW  Elec       q    Type
                         _______ _______ _______ _____ _____    ______ ____

>  <TORSDO>
F 5

$$$$
