=
 OpenBabel10262419563D

 25 28  0  0  1  0  0  0  0  0999 V2000
  187.8440  177.7230  145.4800 C   0  0  0  0  0  0  0  0  0  0  0  0
  187.0380  177.9320  144.3540 C   0  0  0  0  0  0  0  0  0  0  0  0
  186.1170  178.5030  146.9480 C   0  0  0  0  0  3  0  0  0  0  0  0
  189.2040  177.2290  145.5980 C   0  0  0  0  0  0  0  0  0  0  0  0
  187.2900  178.6720  141.9640 C   0  0  2  0  0  3  0  0  0  0  0  0
  191.7230  176.3640  146.3760 C   0  0  0  0  0  3  0  0  0  0  0  0
  185.3200  178.7040  145.8620 N   0  0  0  0  0  0  0  0  0  0  0  0
  189.5470  177.2170  146.9380 C   0  0  0  0  0  0  0  0  0  0  0  0
  190.8070  176.7880  147.3530 C   0  0  0  0  0  3  0  0  0  0  0  0
  184.7750  178.7640  143.4430 C   0  0  2  0  0  3  0  0  0  0  0  0
  183.3190  178.6400  143.8600 C   0  0  0  0  0  1  0  0  0  0  0  0
  187.5710  177.5790  142.9910 C   0  0  0  0  0  2  0  0  0  0  0  0
  191.3720  176.3780  145.0130 C   0  0  0  0  0  3  0  0  0  0  0  0
  187.3960  178.0010  146.7540 C   0  0  2  0  0  3  0  0  0  0  0  0
  188.4260  177.7090  147.8010 C   0  0  0  0  0  3  0  0  0  0  0  0
  184.9960  177.9470  142.3280 O   0  0  0  0  0  0  0  0  0  0  0  0
  190.0990  176.8130  144.6110 C   0  0  0  0  0  3  0  0  0  0  0  0
  185.8370  178.6760  141.4730 C   0  0  0  0  0  2  0  0  0  0  0  0
  185.7160  178.4180  144.5820 C   0  0  0  0  0  0  0  0  0  0  0  0
  188.2940  178.6870  140.8030 C   0  0  0  0  0  2  0  0  0  0  0  0
  188.2210  177.2270  138.8750 F   0  0  0  0  0  0  0  0  0  0  0  0
  188.6470  177.3250  140.1880 C   0  0  1  0  0  3  0  0  0  0  0  0
  190.0920  176.9740  140.3200 C   0  0  0  0  0  0  0  0  0  0  0  0
  190.6760  176.0620  139.4480 O   0  0  0  0  0  0  0  0  0  0  0  0
  190.7940  177.5260  141.2070 O   0  0  0  0  0  1  0  0  0  0  0  0
  1  4  2  0  0  0  0
  1 14  1  0  0  0  0
  2 19  2  0  0  0  0
  2  1  1  0  0  0  0
  4  8  1  0  0  0  0
  5 20  1  6  0  0  0
  5 12  1  0  0  0  0
  6  9  2  0  0  0  0
  7  3  2  0  0  0  0
  8  9  1  0  0  0  0
  8 15  2  0  0  0  0
 10 11  1  1  0  0  0
 10 19  1  0  0  0  0
 12  2  1  0  0  0  0
 13  6  1  0  0  0  0
 14  3  1  6  0  0  0
 14 15  1  0  0  0  0
 16 10  1  0  0  0  0
 17 13  2  0  0  0  0
 17  4  1  0  0  0  0
 18  5  1  0  0  0  0
 18 16  1  0  0  0  0
 19  7  1  0  0  0  0
 22 21  1  6  0  0  0
 22 23  1  0  0  0  0
 22 20  1  0  0  0  0
 23 25  1  0  0  0  0
 24 23  2  0  0  0  0
M  END
>  <MODEL>
1

>  <REMARK>
 VINA RESULT:     -10.4      0.000      0.000
  Name = 
  3 active torsions:
  status: ('A' for Active; 'I' for Inactive)
    1  A    between atoms: C_2  and  C_25
    2  A    between atoms: C_6  and  C_15
    3  A    between atoms: C_15  and  C_25
                            x       y       z     vdW  Elec       q    Type
                         _______ _______ _______ _____ _____    ______ ____

>  <TORSDO>
F 3

$$$$
=
 OpenBabel10262419563D

 25 28  0  0  1  0  0  0  0  0999 V2000
  186.7590  178.1850  142.8970 C   0  0  0  0  0  0  0  0  0  0  0  0
  188.0180  177.8020  142.4180 C   0  0  0  0  0  0  0  0  0  0  0  0
  186.0370  178.8150  140.6990 C   0  0  0  0  0  3  0  0  0  0  0  0
  186.2080  178.1750  144.2400 C   0  0  2  0  0  3  0  0  0  0  0  0
  190.4160  177.8410  143.1740 C   0  0  2  0  0  3  0  0  0  0  0  0
  184.6970  178.3700  146.5590 C   0  0  0  0  0  3  0  0  0  0  0  0
  187.2550  178.4390  140.2190 N   0  0  0  0  0  0  0  0  0  0  0  0
  184.9160  178.6640  144.1830 C   0  0  0  0  0  0  0  0  0  0  0  0
  184.1370  178.7720  145.3350 C   0  0  0  0  0  3  0  0  0  0  0  0
  189.5890  177.6150  140.3830 C   0  0  2  0  0  3  0  0  0  0  0  0
  189.4470  177.1940  138.9300 C   0  0  0  0  0  1  0  0  0  0  0  0
  189.0300  177.2360  143.3780 C   0  0  0  0  0  2  0  0  0  0  0  0
  186.0130  177.8740  146.6140 C   0  0  0  0  0  3  0  0  0  0  0  0
  185.7850  178.6820  142.0570 C   0  0  0  0  0  0  0  0  0  0  0  0
  184.5240  179.0330  142.7850 C   0  0  0  0  0  3  0  0  0  0  0  0
  190.2680  176.6090  141.0800 O   0  0  0  0  0  0  0  0  0  0  0  0
  186.7840  177.7720  145.4460 C   0  0  0  0  0  3  0  0  0  0  0  0
  191.1470  177.2680  141.9530 C   0  0  0  0  0  2  0  0  0  0  0  0
  188.2420  177.9180  141.0140 C   0  0  0  0  0  0  0  0  0  0  0  0
  191.2850  177.8090  144.4390 C   0  0  0  0  0  2  0  0  0  0  0  0
  192.1510  175.6540  145.1190 F   0  0  0  0  0  0  0  0  0  0  0  0
  191.1390  176.5720  145.3370 C   0  0  1  0  0  3  0  0  0  0  0  0
  191.0090  176.9060  146.7860 C   0  0  0  0  0  0  0  0  0  0  0  0
  189.7790  177.2830  147.3130 O   0  0  0  0  0  0  0  0  0  0  0  0
  192.0120  176.8210  147.5420 O   0  0  0  0  0  1  0  0  0  0  0  0
  1  4  1  0  0  0  0
  2  1  1  0  0  0  0
  2 12  1  0  0  0  0
  3 14  1  0  0  0  0
  4 17  1  1  0  0  0
  5 12  1  0  0  0  0
  5 20  1  1  0  0  0
  6 13  1  0  0  0  0
  7  3  2  0  0  0  0
  7 19  1  0  0  0  0
  8  4  1  0  0  0  0
  8  9  1  0  0  0  0
  9  6  2  0  0  0  0
 10 11  1  6  0  0  0
 10 19  1  0  0  0  0
 10 16  1  0  0  0  0
 14 15  1  0  0  0  0
 14  1  2  0  0  0  0
 15  8  2  0  0  0  0
 16 18  1  0  0  0  0
 17 13  2  0  0  0  0
 18  5  1  0  0  0  0
 19  2  2  0  0  0  0
 20 22  1  0  0  0  0
 22 21  1  1  0  0  0
 22 23  1  0  0  0  0
 23 24  2  0  0  0  0
 23 25  1  0  0  0  0
M  END
>  <MODEL>
2

>  <REMARK>
 VINA RESULT:     -10.3      2.836      5.674
  Name = 
  3 active torsions:
  status: ('A' for Active; 'I' for Inactive)
    1  A    between atoms: C_2  and  C_25
    2  A    between atoms: C_6  and  C_15
    3  A    between atoms: C_15  and  C_25
                            x       y       z     vdW  Elec       q    Type
                         _______ _______ _______ _____ _____    ______ ____

>  <TORSDO>
F 3

$$$$
=
 OpenBabel10262419563D

 25 28  0  0  1  0  0  0  0  0999 V2000
  187.3430  177.9140  145.7050 C   0  0  0  0  0  0  0  0  0  0  0  0
  188.6830  177.5600  145.5040 C   0  0  0  0  0  0  0  0  0  0  0  0
  187.5440  177.6090  148.0750 C   0  0  0  0  0  3  0  0  0  0  0  0
  186.3070  178.2920  144.7610 C   0  0  2  0  0  3  0  0  0  0  0  0
  190.0780  176.3360  143.8080 C   0  0  2  0  0  3  0  0  0  0  0  0
  184.0040  179.0550  143.4150 C   0  0  0  0  0  3  0  0  0  0  0  0
  188.8500  177.2700  147.8950 N   0  0  0  0  0  0  0  0  0  0  0  0
  185.1450  178.5400  145.4680 C   0  0  0  0  0  0  0  0  0  0  0  0
  183.9740  178.9230  144.8140 C   0  0  0  0  0  3  0  0  0  0  0  0
  190.8940  176.7780  146.5760 C   0  0  2  0  0  3  0  0  0  0  0  0
  191.6780  177.1190  147.8320 C   0  0  0  0  0  1  0  0  0  0  0  0
  189.2500  177.5820  144.1100 C   0  0  0  0  0  2  0  0  0  0  0  0
  185.1890  178.8030  142.6990 C   0  0  0  0  0  3  0  0  0  0  0  0
  186.7810  177.9390  146.9640 C   0  0  0  0  0  0  0  0  0  0  0  0
  185.3370  178.3380  146.9400 C   0  0  0  0  0  3  0  0  0  0  0  0
  191.5500  177.3310  145.4710 O   0  0  0  0  0  0  0  0  0  0  0  0
  186.3580  178.4160  143.3720 C   0  0  0  0  0  3  0  0  0  0  0  0
  191.4710  176.3700  144.4510 C   0  0  0  0  0  2  0  0  0  0  0  0
  189.4550  177.2550  146.6650 C   0  0  0  0  0  0  0  0  0  0  0  0
  190.1380  175.9960  142.3130 C   0  0  0  0  0  2  0  0  0  0  0  0
  191.8030  177.5010  141.4070 F   0  0  0  0  0  0  0  0  0  0  0  0
  190.4640  177.1550  141.3600 C   0  0  1  0  0  3  0  0  0  0  0  0
  190.0130  176.9120  139.9580 C   0  0  0  0  0  0  0  0  0  0  0  0
  190.6370  175.9460  139.1770 O   0  0  0  0  0  0  0  0  0  0  0  0
  189.0460  177.5670  139.4870 O   0  0  0  0  0  1  0  0  0  0  0  0
  1 14  1  0  0  0  0
  2  1  2  0  0  0  0
  2 19  1  0  0  0  0
  4 17  1  6  0  0  0
  4  8  1  0  0  0  0
  4  1  1  0  0  0  0
  5 20  1  6  0  0  0
  5 12  1  0  0  0  0
  5 18  1  0  0  0  0
  6  9  2  0  0  0  0
  7  3  1  0  0  0  0
  8 15  2  0  0  0  0
  9  8  1  0  0  0  0
 10 19  1  0  0  0  0
 10 11  1  1  0  0  0
 12  2  1  0  0  0  0
 13 17  2  0  0  0  0
 13  6  1  0  0  0  0
 14  3  2  0  0  0  0
 15 14  1  0  0  0  0
 16 10  1  0  0  0  0
 18 16  1  0  0  0  0
 19  7  2  0  0  0  0
 22 21  1  6  0  0  0
 22 20  1  0  0  0  0
 23 22  1  0  0  0  0
 24 23  2  0  0  0  0
 25 23  1  0  0  0  0
M  END
>  <MODEL>
3

>  <REMARK>
 VINA RESULT:     -10.2      1.930      4.877
  Name = 
  3 active torsions:
  status: ('A' for Active; 'I' for Inactive)
    1  A    between atoms: C_2  and  C_25
    2  A    between atoms: C_6  and  C_15
    3  A    between atoms: C_15  and  C_25
                            x       y       z     vdW  Elec       q    Type
                         _______ _______ _______ _____ _____    ______ ____

>  <TORSDO>
F 3

$$$$
=
 OpenBabel10262419563D

 25 28  0  0  1  0  0  0  0  0999 V2000
  185.8820  178.3010  144.6630 C   0  0  0  0  0  0  0  0  0  0  0  0
  187.1990  178.0170  145.0450 C   0  0  0  0  0  0  0  0  0  0  0  0
  185.1630  178.3920  146.9480 C   0  0  0  0  0  3  0  0  0  0  0  0
  185.2840  178.4500  143.3480 C   0  0  0  0  0  0  0  0  0  0  0  0
  189.1430  176.6420  144.2370 C   0  0  2  0  0  3  0  0  0  0  0  0
  183.6650  178.8230  141.1260 C   0  0  0  0  0  3  0  0  0  0  0  0
  186.4410  178.1230  147.3340 N   0  0  0  0  0  0  0  0  0  0  0  0
  183.9380  178.7230  143.5120 C   0  0  0  0  0  0  0  0  0  0  0  0
  183.1040  178.9130  142.4100 C   0  0  0  0  0  2  0  0  0  0  0  0
  188.8360  177.5750  146.9870 C   0  0  2  0  0  3  0  0  0  0  0  0
  189.0780  178.1660  148.3650 C   0  0  0  0  0  1  0  0  0  0  0  0
  188.2550  177.8570  143.9850 C   0  0  0  0  0  2  0  0  0  0  0  0
  185.0350  178.5450  140.9620 C   0  0  0  0  0  3  0  0  0  0  0  0
  184.8810  178.4870  145.5930 C   0  0  0  0  0  0  0  0  0  0  0  0
  183.5540  178.7720  144.9590 C   0  0  0  0  0  3  0  0  0  0  0  0
  189.8620  177.9910  146.1300 O   0  0  0  0  0  0  0  0  0  0  0  0
  185.8600  178.3550  142.0810 C   0  0  0  0  0  3  0  0  0  0  0  0
  190.1830  176.8770  145.3400 C   0  0  0  0  0  2  0  0  0  0  0  0
  187.4700  177.9570  146.4450 C   0  0  0  0  0  0  0  0  0  0  0  0
  189.7720  176.0730  142.9580 C   0  0  0  0  0  2  0  0  0  0  0  0
  191.8570  176.9480  142.0970 F   0  0  0  0  0  0  0  0  0  0  0  0
  190.4800  177.0790  142.0400 C   0  0  1  0  0  3  0  0  0  0  0  0
  189.9880  177.0410  140.6310 C   0  0  0  0  0  0  0  0  0  0  0  0
  190.5660  176.1780  139.7070 O   0  0  0  0  0  0  0  0  0  0  0  0
  189.0270  177.7750  140.2820 O   0  0  0  0  0  1  0  0  0  0  0  0
  1  2  2  0  0  0  0
  1 14  1  0  0  0  0
  2 19  1  0  0  0  0
  3  7  1  0  0  0  0
  4  8  1  0  0  0  0
  4  1  1  0  0  0  0
  5 20  1  6  0  0  0
  5 18  1  0  0  0  0
  6  9  1  0  0  0  0
  8 15  2  0  0  0  0
  9  8  1  0  0  0  0
 10 11  1  1  0  0  0
 12  5  1  0  0  0  0
 12  2  1  0  0  0  0
 13  6  2  0  0  0  0
 13 17  1  0  0  0  0
 14  3  2  0  0  0  0
 15 14  1  0  0  0  0
 16 10  1  0  0  0  0
 17  4  2  0  0  0  0
 18 16  1  0  0  0  0
 19 10  1  0  0  0  0
 19  7  2  0  0  0  0
 22 21  1  6  0  0  0
 22 20  1  0  0  0  0
 23 22  1  0  0  0  0
 24 23  2  0  0  0  0
 25 23  1  0  0  0  0
M  END
>  <MODEL>
4

>  <REMARK>
 VINA RESULT:     -10.0      1.813      4.988
  Name = 
  3 active torsions:
  status: ('A' for Active; 'I' for Inactive)
    1  A    between atoms: C_2  and  C_25
    2  A    between atoms: C_6  and  C_15
    3  A    between atoms: C_15  and  C_25
                            x       y       z     vdW  Elec       q    Type
                         _______ _______ _______ _____ _____    ______ ____

>  <TORSDO>
F 3

$$$$
=
 OpenBabel10262419563D

 25 28  0  0  1  0  0  0  0  0999 V2000
  186.0490  178.2330  144.9440 C   0  0  0  0  0  0  0  0  0  0  0  0
  185.7780  178.2500  143.5700 C   0  0  0  0  0  0  0  0  0  0  0  0
  183.8550  179.0510  145.4580 C   0  0  0  0  0  3  0  0  0  0  0  0
  187.2470  177.8570  145.6730 C   0  0  0  0  0  0  0  0  0  0  0  0
  186.9840  178.7230  141.4140 C   0  0  2  0  0  3  0  0  0  0  0  0
  189.2330  177.2750  147.5210 C   0  0  0  0  0  3  0  0  0  0  0  0
  183.5750  179.0650  144.1250 N   0  0  0  0  0  0  0  0  0  0  0  0
  187.0040  178.0270  147.0230 C   0  0  0  0  0  0  0  0  0  0  0  0
  187.9870  177.7420  147.9710 C   0  0  0  0  0  3  0  0  0  0  0  0
  184.0800  178.8020  141.7110 C   0  0  2  0  0  3  0  0  0  0  0  0
  182.5850  178.6220  141.5100 C   0  0  0  0  0  1  0  0  0  0  0  0
  186.8340  177.7800  142.6050 C   0  0  0  0  0  2  0  0  0  0  0  0
  189.4780  177.1040  146.1450 C   0  0  0  0  0  3  0  0  0  0  0  0
  185.1090  178.6250  145.8730 C   0  0  2  0  0  3  0  0  0  0  0  0
  185.6180  178.5330  147.2790 C   0  0  0  0  0  3  0  0  0  0  0  0
  184.7580  177.8790  140.9060 O   0  0  0  0  0  0  0  0  0  0  0  0
  188.4780  177.3960  145.2040 C   0  0  0  0  0  3  0  0  0  0  0  0
  185.8640  178.5630  140.3780 C   0  0  0  0  0  2  0  0  0  0  0  0
  184.4720  178.6610  143.1700 C   0  0  0  0  0  0  0  0  0  0  0  0
  188.3780  178.6750  140.7740 C   0  0  0  0  0  2  0  0  0  0  0  0
  189.0480  177.1180  139.0470 F   0  0  0  0  0  0  0  0  0  0  0  0
  188.9170  177.2830  140.4150 C   0  0  1  0  0  3  0  0  0  0  0  0
  190.1830  176.9380  141.1280 C   0  0  0  0  0  0  0  0  0  0  0  0
  191.3810  177.5400  140.7630 O   0  0  0  0  0  0  0  0  0  0  0  0
  190.1610  176.1180  142.0830 O   0  0  0  0  0  1  0  0  0  0  0  0
  1  4  2  0  0  0  0
  1 14  1  0  0  0  0
  2  1  1  0  0  0  0
  4  8  1  0  0  0  0
  5 20  1  6  0  0  0
  5 12  1  0  0  0  0
  6  9  2  0  0  0  0
  7  3  2  0  0  0  0
  8 15  2  0  0  0  0
  8  9  1  0  0  0  0
 10 11  1  1  0  0  0
 10 19  1  0  0  0  0
 12  2  1  0  0  0  0
 13  6  1  0  0  0  0
 14  3  1  6  0  0  0
 14 15  1  0  0  0  0
 16 10  1  0  0  0  0
 17  4  1  0  0  0  0
 17 13  2  0  0  0  0
 18 16  1  0  0  0  0
 18  5  1  0  0  0  0
 19  2  2  0  0  0  0
 19  7  1  0  0  0  0
 22 21  1  6  0  0  0
 22 20  1  0  0  0  0
 22 23  1  0  0  0  0
 23 25  1  0  0  0  0
 24 23  2  0  0  0  0
M  END
>  <MODEL>
5

>  <REMARK>
 VINA RESULT:      -9.9      1.256      1.994
  Name = 
  3 active torsions:
  status: ('A' for Active; 'I' for Inactive)
    1  A    between atoms: C_2  and  C_25
    2  A    between atoms: C_6  and  C_15
    3  A    between atoms: C_15  and  C_25
                            x       y       z     vdW  Elec       q    Type
                         _______ _______ _______ _____ _____    ______ ____

>  <TORSDO>
F 3

$$$$
=
 OpenBabel10262419563D

 25 28  0  0  1  0  0  0  0  0999 V2000
  186.7790  178.2030  142.9670 C   0  0  0  0  0  0  0  0  0  0  0  0
  187.6860  177.8900  141.9470 C   0  0  0  0  0  0  0  0  0  0  0  0
  185.2300  179.1430  141.3970 C   0  0  0  0  0  3  0  0  0  0  0  0
  186.8560  178.0020  144.4030 C   0  0  2  0  0  3  0  0  0  0  0  0
  190.1740  177.8140  141.5910 C   0  0  2  0  0  3  0  0  0  0  0  0
  186.4950  177.8640  147.1500 C   0  0  0  0  0  3  0  0  0  0  0  0
  186.0990  178.8370  140.3950 N   0  0  0  0  0  0  0  0  0  0  0  0
  185.6970  178.4960  144.9720 C   0  0  0  0  0  0  0  0  0  0  0  0
  185.4930  178.4390  146.3510 C   0  0  0  0  0  3  0  0  0  0  0  0
  188.2220  177.9930  139.4270 C   0  0  2  0  0  3  0  0  0  0  0  0
  187.4470  177.7850  138.1370 C   0  0  0  0  0  1  0  0  0  0  0  0
  188.9730  177.1890  142.2940 C   0  0  0  0  0  2  0  0  0  0  0  0
  187.6740  177.3630  146.5670 C   0  0  0  0  0  3  0  0  0  0  0  0
  185.5740  178.8170  142.7010 C   0  0  0  0  0  0  0  0  0  0  0  0
  184.7700  179.0630  143.9410 C   0  0  0  0  0  3  0  0  0  0  0  0
  189.0680  176.8960  139.6280 O   0  0  0  0  0  0  0  0  0  0  0  0
  187.8640  177.4280  145.1790 C   0  0  0  0  0  3  0  0  0  0  0  0
  190.2760  177.4200  140.1120 C   0  0  0  0  0  2  0  0  0  0  0  0
  187.2960  178.2060  140.6110 C   0  0  0  0  0  0  0  0  0  0  0  0
  191.4960  177.5990  142.3410 C   0  0  0  0  0  2  0  0  0  0  0  0
  190.5870  179.1070  144.0010 F   0  0  0  0  0  0  0  0  0  0  0  0
  191.5720  178.1630  143.7670 C   0  0  1  0  0  3  0  0  0  0  0  0
  191.5740  177.1050  144.8210 C   0  0  0  0  0  0  0  0  0  0  0  0
  191.4890  177.4520  146.1640 O   0  0  0  0  0  1  0  0  0  0  0  0
  191.6260  175.8920  144.4920 O   0  0  0  0  0  0  0  0  0  0  0  0
  1  4  1  0  0  0  0
  2 12  1  0  0  0  0
  2  1  1  0  0  0  0
  3 14  1  0  0  0  0
  4  8  1  0  0  0  0
  4 17  1  1  0  0  0
  5 12  1  0  0  0  0
  5 20  1  1  0  0  0
  7 19  1  0  0  0  0
  7  3  2  0  0  0  0
  8  9  1  0  0  0  0
  9  6  2  0  0  0  0
 10 11  1  6  0  0  0
 10 16  1  0  0  0  0
 10 19  1  0  0  0  0
 13  6  1  0  0  0  0
 14  1  2  0  0  0  0
 14 15  1  0  0  0  0
 15  8  2  0  0  0  0
 16 18  1  0  0  0  0
 17 13  2  0  0  0  0
 18  5  1  0  0  0  0
 19  2  2  0  0  0  0
 20 22  1  0  0  0  0
 22 21  1  1  0  0  0
 22 23  1  0  0  0  0
 23 24  1  0  0  0  0
 25 23  2  0  0  0  0
M  END
>  <MODEL>
6

>  <REMARK>
 VINA RESULT:      -9.7      2.366      4.702
  Name = 
  3 active torsions:
  status: ('A' for Active; 'I' for Inactive)
    1  A    between atoms: C_2  and  C_25
    2  A    between atoms: C_6  and  C_15
    3  A    between atoms: C_15  and  C_25
                            x       y       z     vdW  Elec       q    Type
                         _______ _______ _______ _____ _____    ______ ____

>  <TORSDO>
F 3

$$$$
=
 OpenBabel10262419563D

 25 28  0  0  1  0  0  0  0  0999 V2000
  186.9780  177.9280  144.6680 C   0  0  0  0  0  0  0  0  0  0  0  0
  188.2680  177.7160  144.1660 C   0  0  0  0  0  0  0  0  0  0  0  0
  187.6610  177.3100  146.8820 C   0  0  0  0  0  3  0  0  0  0  0  0
  185.7570  178.3510  144.0060 C   0  0  2  0  0  3  0  0  0  0  0  0
  189.3600  176.8610  142.0690 C   0  0  2  0  0  3  0  0  0  0  0  0
  183.1950  179.1070  143.2540 C   0  0  0  0  0  3  0  0  0  0  0  0
  188.9220  177.1070  146.4080 N   0  0  0  0  0  0  0  0  0  0  0  0
  184.7470  178.4010  144.9500 C   0  0  0  0  0  0  0  0  0  0  0  0
  183.4510  178.7770  144.5950 C   0  0  0  0  0  3  0  0  0  0  0  0
  190.6850  176.9730  144.6680 C   0  0  2  0  0  3  0  0  0  0  0  0
  191.6840  177.1960  145.7910 C   0  0  0  0  0  1  0  0  0  0  0  0
  188.5440  177.9800  142.7100 C   0  0  0  0  0  2  0  0  0  0  0  0
  184.2260  179.0540  142.2960 C   0  0  0  0  0  3  0  0  0  0  0  0
  186.6770  177.7310  145.9990 C   0  0  0  0  0  0  0  0  0  0  0  0
  185.2380  178.0100  146.3100 C   0  0  0  0  0  3  0  0  0  0  0  0
  191.0790  177.7280  143.5570 O   0  0  0  0  0  0  0  0  0  0  0  0
  185.5240  178.6730  142.6690 C   0  0  0  0  0  3  0  0  0  0  0  0
  190.8480  176.9160  142.4350 C   0  0  0  0  0  2  0  0  0  0  0  0
  189.2700  177.3150  145.1000 C   0  0  0  0  0  0  0  0  0  0  0  0
  189.1390  176.7400  140.5550 C   0  0  0  0  0  2  0  0  0  0  0  0
  190.7080  177.3850  138.8290 F   0  0  0  0  0  0  0  0  0  0  0  0
  189.7310  177.8600  139.6870 C   0  0  1  0  0  3  0  0  0  0  0  0
  188.6970  178.6470  138.9520 C   0  0  0  0  0  0  0  0  0  0  0  0
  187.3700  178.6220  139.3650 O   0  0  0  0  0  1  0  0  0  0  0  0
  189.0320  179.3590  137.9700 O   0  0  0  0  0  0  0  0  0  0  0  0
  1 14  1  0  0  0  0
  2  1  2  0  0  0  0
  2 19  1  0  0  0  0
  4 17  1  6  0  0  0
  4  1  1  0  0  0  0
  4  8  1  0  0  0  0
  5 20  1  6  0  0  0
  5 18  1  0  0  0  0
  5 12  1  0  0  0  0
  6  9  2  0  0  0  0
  7  3  1  0  0  0  0
  8 15  2  0  0  0  0
  9  8  1  0  0  0  0
 10 19  1  0  0  0  0
 10 11  1  1  0  0  0
 12  2  1  0  0  0  0
 13 17  2  0  0  0  0
 13  6  1  0  0  0  0
 14 15  1  0  0  0  0
 14  3  2  0  0  0  0
 16 10  1  0  0  0  0
 18 16  1  0  0  0  0
 19  7  2  0  0  0  0
 22 21  1  6  0  0  0
 22 20  1  0  0  0  0
 23 24  1  0  0  0  0
 23 22  1  0  0  0  0
 25 23  2  0  0  0  0
M  END
>  <MODEL>
7

>  <REMARK>
 VINA RESULT:      -9.6      1.851      4.855
  Name = 
  3 active torsions:
  status: ('A' for Active; 'I' for Inactive)
    1  A    between atoms: C_2  and  C_25
    2  A    between atoms: C_6  and  C_15
    3  A    between atoms: C_15  and  C_25
                            x       y       z     vdW  Elec       q    Type
                         _______ _______ _______ _____ _____    ______ ____

>  <TORSDO>
F 3

$$$$
=
 OpenBabel10262419563D

 25 28  0  0  1  0  0  0  0  0999 V2000
  189.3380  177.5380  143.8170 C   0  0  0  0  0  0  0  0  0  0  0  0
  188.2780  177.6870  144.7200 C   0  0  0  0  0  0  0  0  0  0  0  0
  190.9290  177.3740  145.6030 C   0  0  0  0  0  3  0  0  0  0  0  0
  189.3560  177.5190  142.3650 C   0  0  0  0  0  0  0  0  0  0  0  0
  186.1030  178.9380  144.8870 C   0  0  2  0  0  3  0  0  0  0  0  0
  189.9460  177.4170  139.6560 C   0  0  0  0  0  3  0  0  0  0  0  0
  189.9070  177.5100  146.4920 N   0  0  0  0  0  0  0  0  0  0  0  0
  190.6640  177.3520  141.9500 C   0  0  0  0  0  0  0  0  0  0  0  0
  190.9860  177.2980  140.5930 C   0  0  0  0  0  2  0  0  0  0  0  0
  187.5530  177.8730  147.1870 C   0  0  2  0  0  3  0  0  0  0  0  0
  187.9250  177.1830  148.4880 C   0  0  0  0  0  1  0  0  0  0  0  0
  186.8740  177.8200  144.1920 C   0  0  0  0  0  2  0  0  0  0  0  0
  188.6150  177.5870  140.0820 C   0  0  0  0  0  3  0  0  0  0  0  0
  190.6390  177.3840  144.2460 C   0  0  0  0  0  0  0  0  0  0  0  0
  191.6060  177.2500  143.1090 C   0  0  0  0  0  3  0  0  0  0  0  0
  186.2910  177.4230  146.7820 O   0  0  0  0  0  0  0  0  0  0  0  0
  188.3090  177.6400  141.4510 C   0  0  0  0  0  3  0  0  0  0  0  0
  185.6160  178.5510  146.2890 C   0  0  0  0  0  2  0  0  0  0  0  0
  188.5970  177.6410  146.1100 C   0  0  0  0  0  0  0  0  0  0  0  0
  184.9790  179.5270  144.0240 C   0  0  0  0  0  2  0  0  0  0  0  0
  182.7850  178.5590  143.6970 F   0  0  0  0  0  0  0  0  0  0  0  0
  184.1000  178.5200  143.2680 C   0  0  1  0  0  3  0  0  0  0  0  0
  184.1920  178.6530  141.7840 C   0  0  0  0  0  0  0  0  0  0  0  0
  185.2250  179.3820  141.2070 O   0  0  0  0  0  1  0  0  0  0  0  0
  183.3460  178.0800  141.0490 O   0  0  0  0  0  0  0  0  0  0  0  0
  1 14  1  0  0  0  0
  1  2  2  0  0  0  0
  2 19  1  0  0  0  0
  3  7  1  0  0  0  0
  4  1  1  0  0  0  0
  5 20  1  6  0  0  0
  5 18  1  0  0  0  0
  6 13  2  0  0  0  0
  6  9  1  0  0  0  0
  8  4  1  0  0  0  0
  8 15  2  0  0  0  0
  9  8  1  0  0  0  0
 10 11  1  1  0  0  0
 12  2  1  0  0  0  0
 12  5  1  0  0  0  0
 13 17  1  0  0  0  0
 14  3  2  0  0  0  0
 15 14  1  0  0  0  0
 16 10  1  0  0  0  0
 17  4  2  0  0  0  0
 18 16  1  0  0  0  0
 19  7  2  0  0  0  0
 19 10  1  0  0  0  0
 22 21  1  1  0  0  0
 22 20  1  0  0  0  0
 23 22  1  0  0  0  0
 24 23  1  0  0  0  0
 25 23  2  0  0  0  0
M  END
>  <MODEL>
8

>  <REMARK>
 VINA RESULT:      -9.1      2.712      5.169
  Name = 
  3 active torsions:
  status: ('A' for Active; 'I' for Inactive)
    1  A    between atoms: C_2  and  C_25
    2  A    between atoms: C_6  and  C_15
    3  A    between atoms: C_15  and  C_25
                            x       y       z     vdW  Elec       q    Type
                         _______ _______ _______ _____ _____    ______ ____

>  <TORSDO>
F 3

$$$$
=
 OpenBabel10262419563D

 25 28  0  0  1  0  0  0  0  0999 V2000
  189.3530  177.4150  144.1520 C   0  0  0  0  0  0  0  0  0  0  0  0
  188.6840  177.7880  142.9790 C   0  0  0  0  0  0  0  0  0  0  0  0
  191.1390  176.4180  142.9010 C   0  0  0  0  0  3  0  0  0  0  0  0
  189.0000  177.6020  145.5480 C   0  0  2  0  0  3  0  0  0  0  0  0
  186.3240  177.9940  142.1360 C   0  0  2  0  0  3  0  0  0  0  0  0
  188.8100  177.6850  148.3150 C   0  0  0  0  0  3  0  0  0  0  0  0
  190.5040  176.7810  141.7530 N   0  0  0  0  0  0  0  0  0  0  0  0
  189.9970  177.0420  146.3260 C   0  0  0  0  0  0  0  0  0  0  0  0
  189.9230  177.0700  147.7180 C   0  0  0  0  0  3  0  0  0  0  0  0
  188.6590  177.7440  140.4020 C   0  0  2  0  0  3  0  0  0  0  0  0
  189.6860  177.9300  139.2970 C   0  0  0  0  0  1  0  0  0  0  0  0
  187.3890  178.5480  143.0790 C   0  0  0  0  0  2  0  0  0  0  0  0
  187.7960  178.2530  147.5200 C   0  0  0  0  0  3  0  0  0  0  0  0
  190.5570  176.7440  144.1180 C   0  0  0  0  0  0  0  0  0  0  0  0
  191.0840  176.4420  145.4880 C   0  0  0  0  0  3  0  0  0  0  0  0
  187.8440  178.8800  140.4550 O   0  0  0  0  0  0  0  0  0  0  0  0
  187.8850  178.2150  146.1200 C   0  0  0  0  0  3  0  0  0  0  0  0
  186.5400  178.4120  140.6760 C   0  0  0  0  0  2  0  0  0  0  0  0
  189.3190  177.4690  141.7410 C   0  0  0  0  0  0  0  0  0  0  0  0
  184.8910  178.2660  142.6130 C   0  0  0  0  0  2  0  0  0  0  0  0
  184.9340  180.4910  143.5630 F   0  0  0  0  0  0  0  0  0  0  0  0
  184.7420  179.1530  143.8570 C   0  0  1  0  0  3  0  0  0  0  0  0
  183.4580  178.9350  144.5870 C   0  0  0  0  0  0  0  0  0  0  0  0
  182.2960  178.6290  143.8890 O   0  0  0  0  0  0  0  0  0  0  0  0
  183.4320  179.0020  145.8440 O   0  0  0  0  0  1  0  0  0  0  0  0
  1  4  1  0  0  0  0
  2 12  1  0  0  0  0
  2  1  1  0  0  0  0
  3 14  1  0  0  0  0
  4 17  1  6  0  0  0
  4  8  1  0  0  0  0
  5 20  1  1  0  0  0
  5 12  1  0  0  0  0
  7  3  2  0  0  0  0
  8  9  1  0  0  0  0
  9  6  2  0  0  0  0
 10 11  1  6  0  0  0
 10 16  1  0  0  0  0
 10 19  1  0  0  0  0
 13  6  1  0  0  0  0
 14  1  2  0  0  0  0
 14 15  1  0  0  0  0
 15  8  2  0  0  0  0
 16 18  1  0  0  0  0
 17 13  2  0  0  0  0
 18  5  1  0  0  0  0
 19  7  1  0  0  0  0
 19  2  2  0  0  0  0
 20 22  1  0  0  0  0
 22 21  1  6  0  0  0
 22 23  1  0  0  0  0
 23 25  1  0  0  0  0
 24 23  2  0  0  0  0
M  END
>  <MODEL>
9

>  <REMARK>
 VINA RESULT:      -9.0      2.449      5.054
  Name = 
  3 active torsions:
  status: ('A' for Active; 'I' for Inactive)
    1  A    between atoms: C_2  and  C_25
    2  A    between atoms: C_6  and  C_15
    3  A    between atoms: C_15  and  C_25
                            x       y       z     vdW  Elec       q    Type
                         _______ _______ _______ _____ _____    ______ ____

>  <TORSDO>
F 3

$$$$
