=
 OpenBabel10262422583D

 37 39  0  0  1  0  0  0  0  0999 V2000
  181.9520  178.9970  142.6680 C   0  0  0  0  0  3  0  0  0  0  0  0
  180.2410  175.9290  140.0520 C   0  0  0  0  0  3  0  0  0  0  0  0
  182.9750  178.8570  141.8250 C   0  0  0  0  0  0  0  0  0  0  0  0
  180.8540  177.0760  140.5710 C   0  0  0  0  0  0  0  0  0  0  0  0
  180.2570  177.5930  141.6510 C   0  0  0  0  0  2  0  0  0  0  0  0
  181.9190  177.7020  139.8440 C   0  0  0  0  0  0  0  0  0  0  0  0
  181.5090  176.1210  138.0160 C   0  0  0  0  0  3  0  0  0  0  0  0
  180.5450  178.9380  142.2210 C   0  0  1  0  0  3  0  0  0  0  0  0
  182.1680  177.2320  138.5370 C   0  0  0  0  0  3  0  0  0  0  0  0
  182.7670  178.6490  140.3520 C   0  0  2  0  0  3  0  0  0  0  0  0
  180.5700  175.4370  138.7910 C   0  0  0  0  0  0  0  0  0  0  0  0
  179.9270  174.2870  138.3230 O   0  0  0  0  0  0  0  0  0  0  0  0
  180.4440  173.4960  137.2610 C   0  0  0  0  0  1  0  0  0  0  0  0
  178.9310  179.3940  144.2990 C   0  0  0  0  0  3  0  0  0  0  0  0
  179.6580  179.1890  143.3590 C   0  0  0  0  0  0  0  0  0  0  0  0
  184.3080  178.9140  142.3660 N   0  0  0  0  0  0  0  0  0  0  0  0
  186.4880  178.9950  141.5330 O   0  0  0  0  0  1  0  0  0  0  0  0
  185.3940  178.1580  141.7570 C   0  0  0  0  0  2  0  0  0  0  0  0
  184.5740  179.5600  143.6450 C   0  0  0  0  0  2  0  0  0  0  0  0
  184.3020  178.5930  144.7850 C   0  0  0  0  0  2  0  0  0  0  0  0
  185.6730  178.6450  146.8790 C   0  0  0  0  0  3  0  0  0  0  0  0
  185.5610  178.3060  145.5260 C   0  0  0  0  0  0  0  0  0  0  0  0
  186.6440  177.7200  144.8610 C   0  0  0  0  0  3  0  0  0  0  0  0
  188.8800  176.8950  144.9070 F   0  0  0  0  0  0  0  0  0  0  0  0
  187.9420  177.7980  146.9040 C   0  0  0  0  0  3  0  0  0  0  0  0
  187.8330  177.4640  145.5500 C   0  0  0  0  0  0  0  0  0  0  0  0
  186.8620  178.3900  147.5680 C   0  0  0  0  0  3  0  0  0  0  0  0
  183.6520  179.4390  139.4040 C   0  0  1  0  0  3  0  0  0  0  0  0
  184.2370  178.6120  138.4370 O   0  0  0  0  0  0  0  0  0  0  0  0
  185.4890  179.0180  138.3510 O   0  0  0  0  0  0  0  0  0  0  0  0
  187.2250  178.3070  136.8880 C   0  0  0  0  0  1  0  0  0  0  0  0
  186.2020  177.8950  137.9250 C   0  0  0  0  0  2  0  0  0  0  0  0
  182.9100  180.5900  138.7420 C   0  0  0  0  0  2  0  0  0  0  0  0
  181.5690  180.5720  139.1260 O   0  0  0  0  0  0  0  0  0  0  0  0
  180.8970  181.1930  138.0740 C   0  0  0  0  0  2  0  0  0  0  0  0
  179.0600  179.7380  138.8590 C   0  0  0  0  0  1  0  0  0  0  0  0
  179.7320  180.3310  137.6390 C   0  0  0  0  0  2  0  0  0  0  0  0
  2  4  1  0  0  0  0
  3 16  1  0  0  0  0
  3  1  2  0  0  0  0
  4  5  1  0  0  0  0
  5  8  1  0  0  0  0
  6 10  1  0  0  0  0
  6  4  2  0  0  0  0
  7  9  2  0  0  0  0
  7 11  1  0  0  0  0
  8  1  1  0  0  0  0
  8 15  1  1  0  0  0
  9  6  1  0  0  0  0
 10 28  1  6  0  0  0
 10  3  1  0  0  0  0
 11  2  2  0  0  0  0
 12 11  1  0  0  0  0
 13 12  1  0  0  0  0
 15 14  3  0  0  0  0
 16 19  1  0  0  0  0
 17 18  1  0  0  0  0
 18 16  1  0  0  0  0
 19 20  1  0  0  0  0
 20 22  1  0  0  0  0
 21 27  1  0  0  0  0
 22 21  2  0  0  0  0
 23 22  1  0  0  0  0
 23 26  2  0  0  0  0
 24 26  1  0  0  0  0
 25 27  2  0  0  0  0
 26 25  1  0  0  0  0
 28 33  1  6  0  0  0
 29 28  1  0  0  0  0
 30 29  1  0  0  0  0
 31 32  1  0  0  0  0
 32 30  1  0  0  0  0
 33 34  1  0  0  0  0
 35 34  1  0  0  0  0
 37 35  1  0  0  0  0
 37 36  1  0  0  0  0
M  END
>  <MODEL>
1

>  <REMARK>
 VINA RESULT:      -6.3      0.000      0.000
  Name = 
  15 active torsions:
  status: ('A' for Active; 'I' for Inactive)
    1  A    between atoms: O_1  and  O_5
    2  A    between atoms: O_1  and  C_36
    3  A    between atoms: O_3  and  C_32
    4  A    between atoms: O_5  and  C_23
    5  A    between atoms: C_6  and  C_31
    6  A    between atoms: C_10  and  N_14
    7  A    between atoms: N_14  and  C_27
    8  A    between atoms: N_14  and  C_37
    9  A    between atoms: O_17  and  C_26
   10  A    between atoms: O_17  and  C_33
   11  A    between atoms: C_24  and  C_28
   12  A    between atoms: C_26  and  C_34
   13  A    between atoms: C_29  and  C_36
   14  A    between atoms: C_31  and  C_37
   15  A    between atoms: C_33  and  C_36
                            x       y       z     vdW  Elec       q    Type
                         _______ _______ _______ _____ _____    ______ ____

>  <TORSDO>
F 15

$$$$
=
 OpenBabel10262422583D

 37 39  0  0  1  0  0  0  0  0999 V2000
  184.3570  178.4080  140.3860 C   0  0  0  0  0  3  0  0  0  0  0  0
  181.8440  181.3990  138.4070 C   0  0  0  0  0  3  0  0  0  0  0  0
  183.3820  178.4840  141.2910 C   0  0  0  0  0  0  0  0  0  0  0  0
  182.3320  180.2610  139.0600 C   0  0  0  0  0  0  0  0  0  0  0  0
  183.5040  179.8080  138.5990 C   0  0  0  0  0  2  0  0  0  0  0  0
  181.5030  179.5770  140.0080 C   0  0  0  0  0  0  0  0  0  0  0  0
  179.6710  181.0840  139.3920 C   0  0  0  0  0  3  0  0  0  0  0  0
  184.0950  178.4830  138.9330 C   0  0  1  0  0  3  0  0  0  0  0  0
  180.1540  179.9810  140.0920 C   0  0  0  0  0  3  0  0  0  0  0  0
  181.9410  178.6320  140.8970 C   0  0  2  0  0  3  0  0  0  0  0  0
  180.5290  181.8270  138.5770 C   0  0  0  0  0  0  0  0  0  0  0  0
  180.0950  182.9710  137.9010 O   0  0  0  0  0  0  0  0  0  0  0  0
  179.7020  182.9520  136.5350 C   0  0  0  0  0  1  0  0  0  0  0  0
  186.3830  178.1620  137.5960 C   0  0  0  0  0  3  0  0  0  0  0  0
  185.3500  178.3050  138.2000 C   0  0  0  0  0  0  0  0  0  0  0  0
  183.7460  178.4160  142.6830 N   0  0  0  0  0  0  0  0  0  0  0  0
  182.9730  180.3000  143.8260 O   0  0  0  0  0  1  0  0  0  0  0  0
  182.8480  178.9140  143.7150 C   0  0  0  0  0  2  0  0  0  0  0  0
  185.0940  178.0390  143.0910 C   0  0  0  0  0  2  0  0  0  0  0  0
  185.2280  178.1270  144.6010 C   0  0  0  0  0  2  0  0  0  0  0  0
  187.0420  178.0190  146.3220 C   0  0  0  0  0  3  0  0  0  0  0  0
  186.6110  177.7650  145.0160 C   0  0  0  0  0  0  0  0  0  0  0  0
  187.4890  177.1920  144.0890 C   0  0  0  0  0  3  0  0  0  0  0  0
  189.6430  176.3080  143.5750 F   0  0  0  0  0  0  0  0  0  0  0  0
  189.2220  177.1150  145.7780 C   0  0  0  0  0  3  0  0  0  0  0  0
  188.7940  176.8650  144.4710 C   0  0  0  0  0  0  0  0  0  0  0  0
  188.3470  177.6940  146.7030 C   0  0  0  0  0  3  0  0  0  0  0  0
  180.9230  177.7770  141.6330 C   0  0  1  0  0  3  0  0  0  0  0  0
  179.9870  178.5650  142.3140 O   0  0  0  0  0  0  0  0  0  0  0  0
  179.6190  177.8400  143.3520 O   0  0  0  0  0  0  0  0  0  0  0  0
  178.9490  180.1020  143.6590 C   0  0  0  0  0  1  0  0  0  0  0  0
  179.2350  178.7700  144.3210 C   0  0  0  0  0  2  0  0  0  0  0  0
  180.2220  176.7890  140.7140 C   0  0  0  0  0  2  0  0  0  0  0  0
  181.1500  176.1960  139.8590 O   0  0  0  0  0  0  0  0  0  0  0  0
  180.5460  176.2420  138.6030 C   0  0  0  0  0  2  0  0  0  0  0  0
  181.1590  175.3420  136.3840 C   0  0  0  0  0  1  0  0  0  0  0  0
  181.6120  176.2240  137.5280 C   0  0  0  0  0  2  0  0  0  0  0  0
  1  3  2  0  0  0  0
  2 11  2  0  0  0  0
  2  4  1  0  0  0  0
  3 16  1  0  0  0  0
  4  6  2  0  0  0  0
  5  8  1  0  0  0  0
  5  4  1  0  0  0  0
  6  9  1  0  0  0  0
  6 10  1  0  0  0  0
  7  9  2  0  0  0  0
  8 15  1  6  0  0  0
  8  1  1  0  0  0  0
 10  3  1  0  0  0  0
 10 28  1  1  0  0  0
 11  7  1  0  0  0  0
 12 11  1  0  0  0  0
 13 12  1  0  0  0  0
 14 15  3  0  0  0  0
 16 19  1  0  0  0  0
 16 18  1  0  0  0  0
 18 17  1  0  0  0  0
 19 20  1  0  0  0  0
 20 22  1  0  0  0  0
 21 27  1  0  0  0  0
 22 21  2  0  0  0  0
 23 26  2  0  0  0  0
 23 22  1  0  0  0  0
 24 26  1  0  0  0  0
 25 27  2  0  0  0  0
 26 25  1  0  0  0  0
 28 33  1  6  0  0  0
 28 29  1  0  0  0  0
 29 30  1  0  0  0  0
 30 32  1  0  0  0  0
 31 32  1  0  0  0  0
 34 33  1  0  0  0  0
 35 34  1  0  0  0  0
 36 37  1  0  0  0  0
 37 35  1  0  0  0  0
M  END
>  <MODEL>
2

>  <REMARK>
 VINA RESULT:      -6.1      1.867      5.244
  Name = 
  15 active torsions:
  status: ('A' for Active; 'I' for Inactive)
    1  A    between atoms: O_1  and  O_5
    2  A    between atoms: O_1  and  C_36
    3  A    between atoms: O_3  and  C_32
    4  A    between atoms: O_5  and  C_23
    5  A    between atoms: C_6  and  C_31
    6  A    between atoms: C_10  and  N_14
    7  A    between atoms: N_14  and  C_27
    8  A    between atoms: N_14  and  C_37
    9  A    between atoms: O_17  and  C_26
   10  A    between atoms: O_17  and  C_33
   11  A    between atoms: C_24  and  C_28
   12  A    between atoms: C_26  and  C_34
   13  A    between atoms: C_29  and  C_36
   14  A    between atoms: C_31  and  C_37
   15  A    between atoms: C_33  and  C_36
                            x       y       z     vdW  Elec       q    Type
                         _______ _______ _______ _____ _____    ______ ____

>  <TORSDO>
F 15

$$$$
=
 OpenBabel10262422583D

 37 39  0  0  1  0  0  0  0  0999 V2000
  188.8760  177.3470  139.5880 C   0  0  0  0  0  3  0  0  0  0  0  0
  192.8390  176.6180  137.8740 C   0  0  0  0  0  3  0  0  0  0  0  0
  188.5100  177.1070  138.3290 C   0  0  0  0  0  0  0  0  0  0  0  0
  191.4950  176.5350  138.2560 C   0  0  0  0  0  0  0  0  0  0  0  0
  191.2510  176.8670  139.5300 C   0  0  0  0  0  2  0  0  0  0  0  0
  190.5370  175.9530  137.3620 C   0  0  0  0  0  0  0  0  0  0  0  0
  192.3900  175.3610  135.8720 C   0  0  0  0  0  3  0  0  0  0  0  0
  189.9730  176.6090  140.2470 C   0  0  1  0  0  3  0  0  0  0  0  0
  191.0400  175.3150  136.2090 C   0  0  0  0  0  3  0  0  0  0  0  0
  189.1780  176.0520  137.4950 C   0  0  2  0  0  3  0  0  0  0  0  0
  193.2920  176.0520  136.6840 C   0  0  0  0  0  0  0  0  0  0  0  0
  194.6450  176.1650  136.3510 O   0  0  0  0  0  0  0  0  0  0  0  0
  195.5790  175.1160  136.5650 C   0  0  0  0  0  1  0  0  0  0  0  0
  190.1900  177.4090  142.7850 C   0  0  0  0  0  3  0  0  0  0  0  0
  190.0920  177.0490  141.6390 C   0  0  0  0  0  0  0  0  0  0  0  0
  187.4390  177.8940  137.7750 N   0  0  0  0  0  0  0  0  0  0  0  0
  188.9420  179.5990  137.2420 O   0  0  0  0  0  1  0  0  0  0  0  0
  187.7170  179.0240  136.9000 C   0  0  0  0  0  2  0  0  0  0  0  0
  186.0640  177.7170  138.2260 C   0  0  0  0  0  2  0  0  0  0  0  0
  185.5190  179.0270  138.7680 C   0  0  0  0  0  2  0  0  0  0  0  0
  186.0770  178.8290  141.2000 C   0  0  0  0  0  3  0  0  0  0  0  0
  185.1100  178.8630  140.1900 C   0  0  0  0  0  0  0  0  0  0  0  0
  183.7560  178.7180  140.5140 C   0  0  0  0  0  3  0  0  0  0  0  0
  182.0600  178.4110  142.1610 F   0  0  0  0  0  0  0  0  0  0  0  0
  184.3370  178.5190  142.8560 C   0  0  0  0  0  3  0  0  0  0  0  0
  183.3700  178.5490  141.8470 C   0  0  0  0  0  0  0  0  0  0  0  0
  185.6910  178.6580  142.5330 C   0  0  0  0  0  3  0  0  0  0  0  0
  188.2840  175.1510  136.6600 C   0  0  1  0  0  3  0  0  0  0  0  0
  187.1780  174.7010  137.3930 O   0  0  0  0  0  0  0  0  0  0  0  0
  187.1570  173.3950  137.2130 O   0  0  0  0  0  0  0  0  0  0  0  0
  185.1990  172.3020  136.4180 C   0  0  0  0  0  1  0  0  0  0  0  0
  185.8670  173.0050  137.5820 C   0  0  0  0  0  2  0  0  0  0  0  0
  187.8330  175.8180  135.3700 C   0  0  0  0  0  2  0  0  0  0  0  0
  186.4540  175.6700  135.2170 O   0  0  0  0  0  0  0  0  0  0  0  0
  186.0450  176.8490  134.5940 C   0  0  0  0  0  2  0  0  0  0  0  0
  184.0070  175.9910  135.6990 C   0  0  0  0  0  1  0  0  0  0  0  0
  184.5370  176.9590  134.6630 C   0  0  0  0  0  2  0  0  0  0  0  0
  1  8  1  0  0  0  0
  2  4  1  0  0  0  0
  3  1  2  0  0  0  0
  4  5  1  0  0  0  0
  5  8  1  0  0  0  0
  6 10  1  0  0  0  0
  6  4  2  0  0  0  0
  7  9  2  0  0  0  0
  7 11  1  0  0  0  0
  8 15  1  1  0  0  0
  9  6  1  0  0  0  0
 10 28  1  6  0  0  0
 10  3  1  0  0  0  0
 11  2  2  0  0  0  0
 12 13  1  0  0  0  0
 12 11  1  0  0  0  0
 15 14  3  0  0  0  0
 16 19  1  0  0  0  0
 16  3  1  0  0  0  0
 18 17  1  0  0  0  0
 18 16  1  0  0  0  0
 19 20  1  0  0  0  0
 20 22  1  0  0  0  0
 21 27  1  0  0  0  0
 22 23  1  0  0  0  0
 22 21  2  0  0  0  0
 23 26  2  0  0  0  0
 26 24  1  0  0  0  0
 26 25  1  0  0  0  0
 27 25  2  0  0  0  0
 28 33  1  6  0  0  0
 28 29  1  0  0  0  0
 30 29  1  0  0  0  0
 30 32  1  0  0  0  0
 31 32  1  0  0  0  0
 34 33  1  0  0  0  0
 35 37  1  0  0  0  0
 35 34  1  0  0  0  0
 37 36  1  0  0  0  0
M  END
>  <MODEL>
3

>  <REMARK>
 VINA RESULT:      -6.0      4.518      8.505
  Name = 
  15 active torsions:
  status: ('A' for Active; 'I' for Inactive)
    1  A    between atoms: O_1  and  O_5
    2  A    between atoms: O_1  and  C_36
    3  A    between atoms: O_3  and  C_32
    4  A    between atoms: O_5  and  C_23
    5  A    between atoms: C_6  and  C_31
    6  A    between atoms: C_10  and  N_14
    7  A    between atoms: N_14  and  C_27
    8  A    between atoms: N_14  and  C_37
    9  A    between atoms: O_17  and  C_26
   10  A    between atoms: O_17  and  C_33
   11  A    between atoms: C_24  and  C_28
   12  A    between atoms: C_26  and  C_34
   13  A    between atoms: C_29  and  C_36
   14  A    between atoms: C_31  and  C_37
   15  A    between atoms: C_33  and  C_36
                            x       y       z     vdW  Elec       q    Type
                         _______ _______ _______ _____ _____    ______ ____

>  <TORSDO>
F 15

$$$$
=
 OpenBabel10262422583D

 37 39  0  0  1  0  0  0  0  0999 V2000
  182.0070  178.8820  142.0190 C   0  0  0  0  0  3  0  0  0  0  0  0
  185.6380  178.7820  139.5730 C   0  0  0  0  0  3  0  0  0  0  0  0
  181.4490  178.6100  140.8390 C   0  0  0  0  0  0  0  0  0  0  0  0
  184.4170  178.4930  140.1920 C   0  0  0  0  0  0  0  0  0  0  0  0
  184.3730  178.7640  141.5020 C   0  0  0  0  0  2  0  0  0  0  0  0
  183.4010  177.7890  139.4660 C   0  0  0  0  0  0  0  0  0  0  0  0
  185.0050  177.5030  137.6350 C   0  0  0  0  0  3  0  0  0  0  0  0
  183.3040  178.3060  142.4310 C   0  0  1  0  0  3  0  0  0  0  0  0
  183.7640  177.2510  138.2130 C   0  0  0  0  0  3  0  0  0  0  0  0
  182.0920  177.6800  139.8520 C   0  0  2  0  0  3  0  0  0  0  0  0
  185.9350  178.3090  138.2960 C   0  0  0  0  0  0  0  0  0  0  0  0
  187.1700  178.6280  137.7240 O   0  0  0  0  0  0  0  0  0  0  0  0
  187.4960  178.3170  136.3770 C   0  0  0  0  0  1  0  0  0  0  0  0
  183.8760  179.0930  144.9180 C   0  0  0  0  0  3  0  0  0  0  0  0
  183.6200  178.7370  143.7950 C   0  0  0  0  0  0  0  0  0  0  0  0
  180.1900  179.2370  140.5280 N   0  0  0  0  0  0  0  0  0  0  0  0
  178.9310  178.0850  142.1210 O   0  0  0  0  0  1  0  0  0  0  0  0
  178.9310  178.5630  140.8100 C   0  0  0  0  0  2  0  0  0  0  0  0
  180.1350  180.4640  139.7430 C   0  0  0  0  0  2  0  0  0  0  0  0
  181.4090  180.6250  138.9320 C   0  0  0  0  0  2  0  0  0  0  0  0
  180.7970  180.8910  136.5200 C   0  0  0  0  0  3  0  0  0  0  0  0
  181.1530  181.4770  137.7380 C   0  0  0  0  0  0  0  0  0  0  0  0
  181.2950  182.8660  137.8300 C   0  0  0  0  0  3  0  0  0  0  0  0
  181.2050  185.0130  136.7970 F   0  0  0  0  0  0  0  0  0  0  0  0
  180.7100  183.0820  135.4910 C   0  0  0  0  0  3  0  0  0  0  0  0
  181.0710  183.6680  136.7080 C   0  0  0  0  0  0  0  0  0  0  0  0
  180.5750  181.6930  135.3960 C   0  0  0  0  0  3  0  0  0  0  0  0
  181.1950  176.6700  139.1570 C   0  0  1  0  0  3  0  0  0  0  0  0
  180.5130  175.8680  140.0810 O   0  0  0  0  0  0  0  0  0  0  0  0
  180.4870  174.6670  139.5380 O   0  0  0  0  0  0  0  0  0  0  0  0
  179.2170  174.1690  141.4870 C   0  0  0  0  0  1  0  0  0  0  0  0
  179.2860  174.1020  139.9750 C   0  0  0  0  0  2  0  0  0  0  0  0
  180.2180  177.3270  138.1960 C   0  0  0  0  0  2  0  0  0  0  0  0
  180.7480  177.3270  136.9060 O   0  0  0  0  0  0  0  0  0  0  0  0
  180.4990  176.0420  136.4270 C   0  0  0  0  0  2  0  0  0  0  0  0
  182.2860  174.3340  136.3680 C   0  0  0  0  0  1  0  0  0  0  0  0
  181.7080  175.5430  135.6640 C   0  0  0  0  0  2  0  0  0  0  0  0
  1  8  1  0  0  0  0
  2  4  1  0  0  0  0
  3  1  2  0  0  0  0
  4  5  1  0  0  0  0
  5  8  1  0  0  0  0
  6 10  1  0  0  0  0
  6  4  2  0  0  0  0
  7  9  2  0  0  0  0
  7 11  1  0  0  0  0
  8 15  1  1  0  0  0
  9  6  1  0  0  0  0
 10 28  1  6  0  0  0
 10  3  1  0  0  0  0
 11  2  2  0  0  0  0
 12 11  1  0  0  0  0
 13 12  1  0  0  0  0
 15 14  3  0  0  0  0
 16 18  1  0  0  0  0
 16  3  1  0  0  0  0
 18 17  1  0  0  0  0
 19 16  1  0  0  0  0
 20 19  1  0  0  0  0
 21 22  1  0  0  0  0
 22 23  2  0  0  0  0
 22 20  1  0  0  0  0
 25 26  2  0  0  0  0
 26 24  1  0  0  0  0
 26 23  1  0  0  0  0
 27 25  1  0  0  0  0
 27 21  2  0  0  0  0
 28 33  1  1  0  0  0
 28 29  1  0  0  0  0
 30 32  1  0  0  0  0
 30 29  1  0  0  0  0
 32 31  1  0  0  0  0
 34 33  1  0  0  0  0
 35 34  1  0  0  0  0
 37 36  1  0  0  0  0
 37 35  1  0  0  0  0
M  END
>  <MODEL>
4

>  <REMARK>
 VINA RESULT:      -5.8      3.255      7.382
  Name = 
  15 active torsions:
  status: ('A' for Active; 'I' for Inactive)
    1  A    between atoms: O_1  and  O_5
    2  A    between atoms: O_1  and  C_36
    3  A    between atoms: O_3  and  C_32
    4  A    between atoms: O_5  and  C_23
    5  A    between atoms: C_6  and  C_31
    6  A    between atoms: C_10  and  N_14
    7  A    between atoms: N_14  and  C_27
    8  A    between atoms: N_14  and  C_37
    9  A    between atoms: O_17  and  C_26
   10  A    between atoms: O_17  and  C_33
   11  A    between atoms: C_24  and  C_28
   12  A    between atoms: C_26  and  C_34
   13  A    between atoms: C_29  and  C_36
   14  A    between atoms: C_31  and  C_37
   15  A    between atoms: C_33  and  C_36
                            x       y       z     vdW  Elec       q    Type
                         _______ _______ _______ _____ _____    ______ ____

>  <TORSDO>
F 15

$$$$
=
 OpenBabel10262422583D

 37 39  0  0  1  0  0  0  0  0999 V2000
  183.4680  179.7180  138.8350 C   0  0  0  0  0  3  0  0  0  0  0  0
  180.2170  177.1670  140.2850 C   0  0  0  0  0  3  0  0  0  0  0  0
  184.1260  178.5600  138.8830 C   0  0  0  0  0  0  0  0  0  0  0  0
  181.2870  177.7200  139.5700 C   0  0  0  0  0  0  0  0  0  0  0  0
  181.2010  179.0390  139.3600 C   0  0  0  0  0  2  0  0  0  0  0  0
  182.2650  176.8570  138.9770 C   0  0  0  0  0  0  0  0  0  0  0  0
  180.8900  174.9440  139.6550 C   0  0  0  0  0  3  0  0  0  0  0  0
  182.0550  179.8070  138.4140 C   0  0  1  0  0  3  0  0  0  0  0  0
  181.9900  175.4730  138.9850 C   0  0  0  0  0  3  0  0  0  0  0  0
  183.4800  177.2620  138.4920 C   0  0  2  0  0  3  0  0  0  0  0  0
  180.0190  175.7890  140.3470 C   0  0  0  0  0  0  0  0  0  0  0  0
  178.9350  175.2920  141.0760 O   0  0  0  0  0  0  0  0  0  0  0  0
  179.0120  174.1040  141.8510 C   0  0  0  0  0  1  0  0  0  0  0  0
  181.2860  182.3650  138.3910 C   0  0  0  0  0  3  0  0  0  0  0  0
  181.6350  181.2110  138.4010 C   0  0  0  0  0  0  0  0  0  0  0  0
  185.4970  178.5800  139.3230 N   0  0  0  0  0  0  0  0  0  0  0  0
  187.6900  178.7790  138.5470 O   0  0  0  0  0  1  0  0  0  0  0  0
  186.5490  177.9770  138.5170 C   0  0  0  0  0  2  0  0  0  0  0  0
  185.8500  179.0190  140.6680 C   0  0  0  0  0  2  0  0  0  0  0  0
  185.7130  177.8650  141.6460 C   0  0  0  0  0  2  0  0  0  0  0  0
  185.5200  178.3830  144.0870 C   0  0  0  0  0  3  0  0  0  0  0  0
  184.9150  178.2890  142.8300 C   0  0  0  0  0  0  0  0  0  0  0  0
  183.5510  178.5680  142.6880 C   0  0  0  0  0  3  0  0  0  0  0  0
  181.4770  179.2230  143.6630 F   0  0  0  0  0  0  0  0  0  0  0  0
  183.4030  179.0500  145.0570 C   0  0  0  0  0  3  0  0  0  0  0  0
  182.7960  178.9500  143.8010 C   0  0  0  0  0  0  0  0  0  0  0  0
  184.7640  178.7650  145.2000 C   0  0  0  0  0  3  0  0  0  0  0  0
  184.2900  176.3100  137.6290 C   0  0  1  0  0  3  0  0  0  0  0  0
  184.0270  174.9730  137.9520 O   0  0  0  0  0  0  0  0  0  0  0  0
  184.6530  174.2680  137.0310 O   0  0  0  0  0  0  0  0  0  0  0  0
  184.0740  171.9660  136.8740 C   0  0  0  0  0  1  0  0  0  0  0  0
  184.8670  173.0190  137.6190 C   0  0  0  0  0  2  0  0  0  0  0  0
  184.0780  176.5520  136.1430 C   0  0  0  0  0  2  0  0  0  0  0  0
  182.7490  176.2990  135.8060 O   0  0  0  0  0  0  0  0  0  0  0  0
  182.3520  177.4240  135.0850 C   0  0  0  0  0  2  0  0  0  0  0  0
  180.1770  176.8300  136.0990 C   0  0  0  0  0  1  0  0  0  0  0  0
  181.0700  177.9750  135.6730 C   0  0  0  0  0  2  0  0  0  0  0  0
  1  3  2  0  0  0  0
  2 11  1  0  0  0  0
  3 16  1  0  0  0  0
  4  2  2  0  0  0  0
  5  4  1  0  0  0  0
  6  9  2  0  0  0  0
  6  4  1  0  0  0  0
  7 11  2  0  0  0  0
  8 15  1  1  0  0  0
  8  1  1  0  0  0  0
  8  5  1  0  0  0  0
  9  7  1  0  0  0  0
 10 28  1  1  0  0  0
 10  3  1  0  0  0  0
 10  6  1  0  0  0  0
 11 12  1  0  0  0  0
 12 13  1  0  0  0  0
 14 15  3  0  0  0  0
 16 19  1  0  0  0  0
 18 17  1  0  0  0  0
 18 16  1  0  0  0  0
 19 20  1  0  0  0  0
 20 22  1  0  0  0  0
 21 27  1  0  0  0  0
 22 21  2  0  0  0  0
 23 22  1  0  0  0  0
 23 26  2  0  0  0  0
 24 26  1  0  0  0  0
 25 27  2  0  0  0  0
 26 25  1  0  0  0  0
 28 33  1  6  0  0  0
 28 29  1  0  0  0  0
 30 32  1  0  0  0  0
 30 29  1  0  0  0  0
 31 32  1  0  0  0  0
 34 33  1  0  0  0  0
 35 37  1  0  0  0  0
 35 34  1  0  0  0  0
 37 36  1  0  0  0  0
M  END
>  <MODEL>
5

>  <REMARK>
 VINA RESULT:      -5.7      2.610      4.162
  Name = 
  15 active torsions:
  status: ('A' for Active; 'I' for Inactive)
    1  A    between atoms: O_1  and  O_5
    2  A    between atoms: O_1  and  C_36
    3  A    between atoms: O_3  and  C_32
    4  A    between atoms: O_5  and  C_23
    5  A    between atoms: C_6  and  C_31
    6  A    between atoms: C_10  and  N_14
    7  A    between atoms: N_14  and  C_27
    8  A    between atoms: N_14  and  C_37
    9  A    between atoms: O_17  and  C_26
   10  A    between atoms: O_17  and  C_33
   11  A    between atoms: C_24  and  C_28
   12  A    between atoms: C_26  and  C_34
   13  A    between atoms: C_29  and  C_36
   14  A    between atoms: C_31  and  C_37
   15  A    between atoms: C_33  and  C_36
                            x       y       z     vdW  Elec       q    Type
                         _______ _______ _______ _____ _____    ______ ____

>  <TORSDO>
F 15

$$$$
=
 OpenBabel10262422583D

 37 39  0  0  1  0  0  0  0  0999 V2000
  183.6120  177.6080  138.8350 C   0  0  0  0  0  3  0  0  0  0  0  0
  185.2630  178.2820  142.8340 C   0  0  0  0  0  3  0  0  0  0  0  0
  182.4850  177.5080  139.5380 C   0  0  0  0  0  0  0  0  0  0  0  0
  184.5010  178.3250  141.6610 C   0  0  0  0  0  0  0  0  0  0  0  0
  185.2110  178.2830  140.5270 C   0  0  0  0  0  2  0  0  0  0  0  0
  183.0940  178.5860  141.7380 C   0  0  0  0  0  0  0  0  0  0  0  0
  183.3680  178.9820  144.1410 C   0  0  0  0  0  3  0  0  0  0  0  0
  184.6710  178.5810  139.1730 C   0  0  1  0  0  3  0  0  0  0  0  0
  182.5810  178.9780  142.9920 C   0  0  0  0  0  3  0  0  0  0  0  0
  182.2020  178.3940  140.7170 C   0  0  2  0  0  3  0  0  0  0  0  0
  184.7070  178.5910  144.0740 C   0  0  0  0  0  0  0  0  0  0  0  0
  185.5140  178.5300  145.2140 O   0  0  0  0  0  0  0  0  0  0  0  0
  184.9820  178.4210  146.5270 C   0  0  0  0  0  1  0  0  0  0  0  0
  186.6350  178.4290  137.3700 C   0  0  0  0  0  3  0  0  0  0  0  0
  185.7480  178.4960  138.1840 C   0  0  0  0  0  0  0  0  0  0  0  0
  181.5230  176.5140  139.1350 N   0  0  0  0  0  0  0  0  0  0  0  0
  179.7220  175.6970  140.3750 O   0  0  0  0  0  1  0  0  0  0  0  0
  181.0670  175.4930  140.0680 C   0  0  0  0  0  2  0  0  0  0  0  0
  181.1300  176.3720  137.7380 C   0  0  0  0  0  2  0  0  0  0  0  0
  181.4870  174.9840  137.2330 C   0  0  0  0  0  2  0  0  0  0  0  0
  183.4350  175.6950  135.8310 C   0  0  0  0  0  3  0  0  0  0  0  0
  182.9330  174.9230  136.8840 C   0  0  0  0  0  0  0  0  0  0  0  0
  183.7870  174.0720  137.5950 C   0  0  0  0  0  3  0  0  0  0  0  0
  185.9690  173.1790  137.9480 F   0  0  0  0  0  0  0  0  0  0  0  0
  185.6440  174.7760  136.2090 C   0  0  0  0  0  3  0  0  0  0  0  0
  185.1420  174.0000  137.2590 C   0  0  0  0  0  0  0  0  0  0  0  0
  184.7900  175.6220  135.4950 C   0  0  0  0  0  3  0  0  0  0  0  0
  180.8060  178.9830  140.8300 C   0  0  1  0  0  3  0  0  0  0  0  0
  180.4940  179.3160  142.1540 O   0  0  0  0  0  0  0  0  0  0  0  0
  179.2760  179.8180  142.1020 O   0  0  0  0  0  0  0  0  0  0  0  0
  179.2770  178.8430  144.2730 C   0  0  0  0  0  1  0  0  0  0  0  0
  178.9310  180.0560  143.4350 C   0  0  0  0  0  2  0  0  0  0  0  0
  180.6070  180.1820  139.9170 C   0  0  0  0  0  2  0  0  0  0  0  0
  179.8990  179.7990  138.7780 O   0  0  0  0  0  0  0  0  0  0  0  0
  180.2190  180.7670  137.8270 C   0  0  0  0  0  2  0  0  0  0  0  0
  181.1120  183.0570  137.5690 C   0  0  0  0  0  1  0  0  0  0  0  0
  181.0810  181.8360  138.4630 C   0  0  0  0  0  2  0  0  0  0  0  0
  1  8  1  0  0  0  0
  1  3  2  0  0  0  0
  2 11  1  0  0  0  0
  3 10  1  0  0  0  0
  4  6  1  0  0  0  0
  4  2  2  0  0  0  0
  5  4  1  0  0  0  0
  6  9  2  0  0  0  0
  8 15  1  6  0  0  0
  8  5  1  0  0  0  0
  9  7  1  0  0  0  0
 10 28  1  1  0  0  0
 10  6  1  0  0  0  0
 11  7  2  0  0  0  0
 11 12  1  0  0  0  0
 12 13  1  0  0  0  0
 14 15  3  0  0  0  0
 16  3  1  0  0  0  0
 16 18  1  0  0  0  0
 18 17  1  0  0  0  0
 19 16  1  0  0  0  0
 20 19  1  0  0  0  0
 21 22  1  0  0  0  0
 22 20  1  0  0  0  0
 22 23  2  0  0  0  0
 25 26  2  0  0  0  0
 26 23  1  0  0  0  0
 26 24  1  0  0  0  0
 27 21  2  0  0  0  0
 27 25  1  0  0  0  0
 28 33  1  6  0  0  0
 28 29  1  0  0  0  0
 30 29  1  0  0  0  0
 30 32  1  0  0  0  0
 32 31  1  0  0  0  0
 34 33  1  0  0  0  0
 35 37  1  0  0  0  0
 35 34  1  0  0  0  0
 36 37  1  0  0  0  0
M  END
>  <MODEL>
6

>  <REMARK>
 VINA RESULT:      -5.7      2.547      7.337
  Name = 
  15 active torsions:
  status: ('A' for Active; 'I' for Inactive)
    1  A    between atoms: O_1  and  O_5
    2  A    between atoms: O_1  and  C_36
    3  A    between atoms: O_3  and  C_32
    4  A    between atoms: O_5  and  C_23
    5  A    between atoms: C_6  and  C_31
    6  A    between atoms: C_10  and  N_14
    7  A    between atoms: N_14  and  C_27
    8  A    between atoms: N_14  and  C_37
    9  A    between atoms: O_17  and  C_26
   10  A    between atoms: O_17  and  C_33
   11  A    between atoms: C_24  and  C_28
   12  A    between atoms: C_26  and  C_34
   13  A    between atoms: C_29  and  C_36
   14  A    between atoms: C_31  and  C_37
   15  A    between atoms: C_33  and  C_36
                            x       y       z     vdW  Elec       q    Type
                         _______ _______ _______ _____ _____    ______ ____

>  <TORSDO>
F 15

$$$$
=
 OpenBabel10262422583D

 37 39  0  0  1  0  0  0  0  0999 V2000
  188.5150  177.4590  139.6350 C   0  0  0  0  0  3  0  0  0  0  0  0
  192.6060  176.7500  138.2440 C   0  0  0  0  0  3  0  0  0  0  0  0
  188.2510  177.2000  138.3540 C   0  0  0  0  0  0  0  0  0  0  0  0
  191.2380  176.6580  138.5220 C   0  0  0  0  0  0  0  0  0  0  0  0
  190.8920  177.0030  139.7680 C   0  0  0  0  0  2  0  0  0  0  0  0
  190.3580  176.0560  137.5640 C   0  0  0  0  0  0  0  0  0  0  0  0
  192.3270  175.4640  136.2300 C   0  0  0  0  0  3  0  0  0  0  0  0
  189.5640  176.7400  140.3870 C   0  0  1  0  0  3  0  0  0  0  0  0
  190.9550  175.4090  136.4620 C   0  0  0  0  0  3  0  0  0  0  0  0
  188.9920  176.1410  137.5890 C   0  0  2  0  0  3  0  0  0  0  0  0
  193.1560  176.1740  137.1010 C   0  0  0  0  0  0  0  0  0  0  0  0
  194.5300  176.2980  136.8730 O   0  0  0  0  0  0  0  0  0  0  0  0
  195.1680  175.7630  135.7210 C   0  0  0  0  0  1  0  0  0  0  0  0
  189.5750  177.5790  142.9220 C   0  0  0  0  0  3  0  0  0  0  0  0
  189.5710  177.1990  141.7780 C   0  0  0  0  0  0  0  0  0  0  0  0
  187.2190  177.9690  137.7090 N   0  0  0  0  0  0  0  0  0  0  0  0
  188.6420  179.7540  137.2180 O   0  0  0  0  0  1  0  0  0  0  0  0
  187.5540  179.0140  136.7520 C   0  0  0  0  0  2  0  0  0  0  0  0
  185.8280  177.8700  138.1350 C   0  0  0  0  0  2  0  0  0  0  0  0
  185.3740  179.1840  138.7460 C   0  0  0  0  0  2  0  0  0  0  0  0
  183.4640  178.8250  140.3240 C   0  0  0  0  0  3  0  0  0  0  0  0
  184.8420  178.9550  140.1180 C   0  0  0  0  0  0  0  0  0  0  0  0
  185.7200  178.8950  141.2060 C   0  0  0  0  0  3  0  0  0  0  0  0
  186.0720  178.6350  143.5490 F   0  0  0  0  0  0  0  0  0  0  0  0
  183.8450  178.5610  142.7010 C   0  0  0  0  0  3  0  0  0  0  0  0
  185.2220  178.6960  142.4970 C   0  0  0  0  0  0  0  0  0  0  0  0
  182.9660  178.6280  141.6150 C   0  0  0  0  0  3  0  0  0  0  0  0
  188.1740  175.2220  136.6980 C   0  0  1  0  0  3  0  0  0  0  0  0
  188.9300  174.1290  136.2560 O   0  0  0  0  0  0  0  0  0  0  0  0
  188.2920  173.6800  135.1920 O   0  0  0  0  0  0  0  0  0  0  0  0
  187.6270  171.4170  135.5020 C   0  0  0  0  0  1  0  0  0  0  0  0
  188.7230  172.3590  135.0480 C   0  0  0  0  0  2  0  0  0  0  0  0
  186.8960  174.7490  137.3720 C   0  0  0  0  0  2  0  0  0  0  0  0
  185.8000  175.0130  136.5500 O   0  0  0  0  0  0  0  0  0  0  0  0
  184.7230  174.4130  137.2010 C   0  0  0  0  0  2  0  0  0  0  0  0
  183.9870  172.0530  137.2120 C   0  0  0  0  0  1  0  0  0  0  0  0
  185.0980  173.0030  137.6050 C   0  0  0  0  0  2  0  0  0  0  0  0
  1  8  1  0  0  0  0
  2  4  1  0  0  0  0
  3  1  2  0  0  0  0
  4  5  1  0  0  0  0
  5  8  1  0  0  0  0
  6 10  1  0  0  0  0
  6  4  2  0  0  0  0
  7  9  2  0  0  0  0
  7 11  1  0  0  0  0
  8 15  1  1  0  0  0
  9  6  1  0  0  0  0
 10 28  1  6  0  0  0
 10  3  1  0  0  0  0
 11  2  2  0  0  0  0
 12 11  1  0  0  0  0
 13 12  1  0  0  0  0
 15 14  3  0  0  0  0
 16 19  1  0  0  0  0
 16  3  1  0  0  0  0
 18 17  1  0  0  0  0
 18 16  1  0  0  0  0
 19 20  1  0  0  0  0
 20 22  1  0  0  0  0
 21 27  1  0  0  0  0
 22 21  2  0  0  0  0
 22 23  1  0  0  0  0
 23 26  2  0  0  0  0
 26 25  1  0  0  0  0
 26 24  1  0  0  0  0
 27 25  2  0  0  0  0
 28 33  1  1  0  0  0
 29 28  1  0  0  0  0
 30 29  1  0  0  0  0
 32 30  1  0  0  0  0
 32 31  1  0  0  0  0
 34 35  1  0  0  0  0
 34 33  1  0  0  0  0
 35 37  1  0  0  0  0
 36 37  1  0  0  0  0
M  END
>  <MODEL>
7

>  <REMARK>
 VINA RESULT:      -5.6      4.512      8.507
  Name = 
  15 active torsions:
  status: ('A' for Active; 'I' for Inactive)
    1  A    between atoms: O_1  and  O_5
    2  A    between atoms: O_1  and  C_36
    3  A    between atoms: O_3  and  C_32
    4  A    between atoms: O_5  and  C_23
    5  A    between atoms: C_6  and  C_31
    6  A    between atoms: C_10  and  N_14
    7  A    between atoms: N_14  and  C_27
    8  A    between atoms: N_14  and  C_37
    9  A    between atoms: O_17  and  C_26
   10  A    between atoms: O_17  and  C_33
   11  A    between atoms: C_24  and  C_28
   12  A    between atoms: C_26  and  C_34
   13  A    between atoms: C_29  and  C_36
   14  A    between atoms: C_31  and  C_37
   15  A    between atoms: C_33  and  C_36
                            x       y       z     vdW  Elec       q    Type
                         _______ _______ _______ _____ _____    ______ ____

>  <TORSDO>
F 15

$$$$
=
 OpenBabel10262422583D

 37 39  0  0  1  0  0  0  0  0999 V2000
  188.7700  178.2440  140.8250 C   0  0  0  0  0  3  0  0  0  0  0  0
  184.9550  179.2540  142.7220 C   0  0  0  0  0  3  0  0  0  0  0  0
  189.1470  178.1490  142.1000 C   0  0  0  0  0  0  0  0  0  0  0  0
  186.1580  178.6480  142.3440 C   0  0  0  0  0  0  0  0  0  0  0  0
  186.3830  178.6180  141.0250 C   0  0  0  0  0  2  0  0  0  0  0  0
  186.9480  177.9650  143.3270 C   0  0  0  0  0  0  0  0  0  0  0  0
  185.1430  178.3420  144.9410 C   0  0  0  0  0  3  0  0  0  0  0  0
  187.4380  177.8060  140.3590 C   0  0  1  0  0  3  0  0  0  0  0  0
  186.3690  177.7770  144.5990 C   0  0  0  0  0  3  0  0  0  0  0  0
  188.2470  177.5690  143.1530 C   0  0  2  0  0  3  0  0  0  0  0  0
  184.4490  179.1220  144.0140 C   0  0  0  0  0  0  0  0  0  0  0  0
  183.2420  179.7510  144.3370 O   0  0  0  0  0  0  0  0  0  0  0  0
  181.9770  179.2180  143.9690 C   0  0  0  0  0  1  0  0  0  0  0  0
  187.2720  178.1190  137.7130 C   0  0  0  0  0  3  0  0  0  0  0  0
  187.3460  177.9760  138.9080 C   0  0  0  0  0  0  0  0  0  0  0  0
  190.4620  178.6200  142.4520 N   0  0  0  0  0  0  0  0  0  0  0  0
  191.9740  179.1750  144.1430 O   0  0  0  0  0  1  0  0  0  0  0  0
  190.6780  179.3880  143.6710 C   0  0  0  0  0  2  0  0  0  0  0  0
  191.5720  178.5230  141.5140 C   0  0  0  0  0  2  0  0  0  0  0  0
  191.9500  177.0670  141.2990 C   0  0  0  0  0  2  0  0  0  0  0  0
  193.1690  176.8000  139.1290 C   0  0  0  0  0  3  0  0  0  0  0  0
  191.9670  176.7510  139.8440 C   0  0  0  0  0  0  0  0  0  0  0  0
  190.7750  176.4290  139.1860 C   0  0  0  0  0  3  0  0  0  0  0  0
  189.6330  175.8330  137.1800 F   0  0  0  0  0  0  0  0  0  0  0  0
  191.9880  176.1910  137.1040 C   0  0  0  0  0  3  0  0  0  0  0  0
  190.7860  176.1470  137.8160 C   0  0  0  0  0  0  0  0  0  0  0  0
  193.1790  176.5190  137.7600 C   0  0  0  0  0  3  0  0  0  0  0  0
  188.8680  176.6040  144.1480 C   0  0  1  0  0  3  0  0  0  0  0  0
  189.9220  175.8820  143.5750 O   0  0  0  0  0  0  0  0  0  0  0  0
  190.9250  176.0080  144.4220 O   0  0  0  0  0  0  0  0  0  0  0  0
  192.4310  174.3100  145.1350 C   0  0  0  0  0  1  0  0  0  0  0  0
  191.8930  175.1100  143.9670 C   0  0  0  0  0  2  0  0  0  0  0  0
  189.3270  177.2980  145.4210 C   0  0  0  0  0  2  0  0  0  0  0  0
  188.6700  176.7520  146.5230 O   0  0  0  0  0  0  0  0  0  0  0  0
  189.5400  176.9690  147.5900 C   0  0  0  0  0  2  0  0  0  0  0  0
  187.5500  178.2510  148.3040 C   0  0  0  0  0  1  0  0  0  0  0  0
  189.0580  178.1520  148.4020 C   0  0  0  0  0  2  0  0  0  0  0  0
  1  3  2  0  0  0  0
  2 11  1  0  0  0  0
  3 16  1  0  0  0  0
  3 10  1  0  0  0  0
  4  2  2  0  0  0  0
  4  6  1  0  0  0  0
  5  4  1  0  0  0  0
  6  9  2  0  0  0  0
  8 15  1  6  0  0  0
  8  1  1  0  0  0  0
  8  5  1  0  0  0  0
  9  7  1  0  0  0  0
 10  6  1  0  0  0  0
 10 28  1  1  0  0  0
 11 12  1  0  0  0  0
 11  7  2  0  0  0  0
 13 12  1  0  0  0  0
 14 15  3  0  0  0  0
 16 18  1  0  0  0  0
 18 17  1  0  0  0  0
 19 16  1  0  0  0  0
 20 19  1  0  0  0  0
 21 22  1  0  0  0  0
 22 20  1  0  0  0  0
 23 22  2  0  0  0  0
 24 26  1  0  0  0  0
 25 27  1  0  0  0  0
 25 26  2  0  0  0  0
 26 23  1  0  0  0  0
 27 21  2  0  0  0  0
 28 33  1  1  0  0  0
 29 28  1  0  0  0  0
 29 30  1  0  0  0  0
 32 30  1  0  0  0  0
 32 31  1  0  0  0  0
 33 34  1  0  0  0  0
 34 35  1  0  0  0  0
 35 37  1  0  0  0  0
 36 37  1  0  0  0  0
M  END
>  <MODEL>
8

>  <REMARK>
 VINA RESULT:      -5.5      4.536      8.831
  Name = 
  15 active torsions:
  status: ('A' for Active; 'I' for Inactive)
    1  A    between atoms: O_1  and  O_5
    2  A    between atoms: O_1  and  C_36
    3  A    between atoms: O_3  and  C_32
    4  A    between atoms: O_5  and  C_23
    5  A    between atoms: C_6  and  C_31
    6  A    between atoms: C_10  and  N_14
    7  A    between atoms: N_14  and  C_27
    8  A    between atoms: N_14  and  C_37
    9  A    between atoms: O_17  and  C_26
   10  A    between atoms: O_17  and  C_33
   11  A    between atoms: C_24  and  C_28
   12  A    between atoms: C_26  and  C_34
   13  A    between atoms: C_29  and  C_36
   14  A    between atoms: C_31  and  C_37
   15  A    between atoms: C_33  and  C_36
                            x       y       z     vdW  Elec       q    Type
                         _______ _______ _______ _____ _____    ______ ____

>  <TORSDO>
F 15

$$$$
=
 OpenBabel10262422583D

 37 39  0  0  1  0  0  0  0  0999 V2000
  182.5160  175.6710  138.2900 C   0  0  0  0  0  3  0  0  0  0  0  0
  180.3900  179.4990  138.2160 C   0  0  0  0  0  3  0  0  0  0  0  0
  183.5520  176.4730  138.0440 C   0  0  0  0  0  0  0  0  0  0  0  0
  181.2870  178.4550  138.4710 C   0  0  0  0  0  0  0  0  0  0  0  0
  180.7180  177.2570  138.6530 C   0  0  0  0  0  2  0  0  0  0  0  0
  182.6720  178.7480  138.6940 C   0  0  0  0  0  0  0  0  0  0  0  0
  182.1070  181.1320  138.6310 C   0  0  0  0  0  3  0  0  0  0  0  0
  181.4140  176.0580  139.1950 C   0  0  1  0  0  3  0  0  0  0  0  0
  183.0260  180.1060  138.8340 C   0  0  0  0  0  3  0  0  0  0  0  0
  183.6820  177.8240  138.6880 C   0  0  2  0  0  3  0  0  0  0  0  0
  180.7900  180.8320  138.2770 C   0  0  0  0  0  0  0  0  0  0  0  0
  179.8520  181.8340  138.0120 O   0  0  0  0  0  0  0  0  0  0  0  0
  180.2140  183.1080  137.4950 C   0  0  0  0  0  1  0  0  0  0  0  0
  179.6810  174.0380  139.4060 C   0  0  0  0  0  3  0  0  0  0  0  0
  180.4650  174.9490  139.3120 C   0  0  0  0  0  0  0  0  0  0  0  0
  184.5650  176.0070  137.1330 N   0  0  0  0  0  0  0  0  0  0  0  0
  183.5020  176.9890  135.3010 O   0  0  0  0  0  1  0  0  0  0  0  0
  184.7430  176.6320  135.8300 C   0  0  0  0  0  2  0  0  0  0  0  0
  185.3050  174.7780  137.3940 C   0  0  0  0  0  2  0  0  0  0  0  0
  185.5440  174.0260  136.0970 C   0  0  0  0  0  2  0  0  0  0  0  0
  185.3460  171.6330  135.3910 C   0  0  0  0  0  3  0  0  0  0  0  0
  184.8490  172.7100  136.1310 C   0  0  0  0  0  0  0  0  0  0  0  0
  183.6800  172.5590  136.8850 C   0  0  0  0  0  3  0  0  0  0  0  0
  181.8860  171.1820  137.6390 F   0  0  0  0  0  0  0  0  0  0  0  0
  183.5160  170.2510  136.1700 C   0  0  0  0  0  3  0  0  0  0  0  0
  183.0150  171.3290  136.9070 C   0  0  0  0  0  0  0  0  0  0  0  0
  184.6810  170.4030  135.4110 C   0  0  0  0  0  3  0  0  0  0  0  0
  185.0480  178.2130  139.2260 C   0  0  1  0  0  3  0  0  0  0  0  0
  185.7750  178.9600  138.2910 O   0  0  0  0  0  0  0  0  0  0  0  0
  187.0080  178.5000  138.3700 O   0  0  0  0  0  0  0  0  0  0  0  0
  188.9990  178.9370  137.1420 C   0  0  0  0  0  1  0  0  0  0  0  0
  187.5190  178.6220  137.0750 C   0  0  0  0  0  2  0  0  0  0  0  0
  184.9590  178.9550  140.5500 C   0  0  0  0  0  2  0  0  0  0  0  0
  184.3730  178.1360  141.5150 O   0  0  0  0  0  0  0  0  0  0  0  0
  185.1370  178.3450  142.6620 C   0  0  0  0  0  2  0  0  0  0  0  0
  183.6470  178.9540  144.5370 C   0  0  0  0  0  1  0  0  0  0  0  0
  184.5550  179.4960  143.4540 C   0  0  0  0  0  2  0  0  0  0  0  0
  1  8  1  0  0  0  0
  2 11  2  0  0  0  0
  2  4  1  0  0  0  0
  3  1  2  0  0  0  0
  3 10  1  0  0  0  0
  4  5  1  0  0  0  0
  4  6  2  0  0  0  0
  5  8  1  0  0  0  0
  6  9  1  0  0  0  0
  7  9  2  0  0  0  0
  8 15  1  6  0  0  0
 10  6  1  0  0  0  0
 10 28  1  6  0  0  0
 11  7  1  0  0  0  0
 12 11  1  0  0  0  0
 13 12  1  0  0  0  0
 15 14  3  0  0  0  0
 16 19  1  0  0  0  0
 16  3  1  0  0  0  0
 17 18  1  0  0  0  0
 18 16  1  0  0  0  0
 20 22  1  0  0  0  0
 20 19  1  0  0  0  0
 21 27  2  0  0  0  0
 21 22  1  0  0  0  0
 22 23  2  0  0  0  0
 23 26  1  0  0  0  0
 25 26  2  0  0  0  0
 26 24  1  0  0  0  0
 27 25  1  0  0  0  0
 28 33  1  1  0  0  0
 29 30  1  0  0  0  0
 29 28  1  0  0  0  0
 32 31  1  0  0  0  0
 32 30  1  0  0  0  0
 33 34  1  0  0  0  0
 34 35  1  0  0  0  0
 35 37  1  0  0  0  0
 37 36  1  0  0  0  0
M  END
>  <MODEL>
9

>  <REMARK>
 VINA RESULT:      -5.4      3.299      7.312
  Name = 
  15 active torsions:
  status: ('A' for Active; 'I' for Inactive)
    1  A    between atoms: O_1  and  O_5
    2  A    between atoms: O_1  and  C_36
    3  A    between atoms: O_3  and  C_32
    4  A    between atoms: O_5  and  C_23
    5  A    between atoms: C_6  and  C_31
    6  A    between atoms: C_10  and  N_14
    7  A    between atoms: N_14  and  C_27
    8  A    between atoms: N_14  and  C_37
    9  A    between atoms: O_17  and  C_26
   10  A    between atoms: O_17  and  C_33
   11  A    between atoms: C_24  and  C_28
   12  A    between atoms: C_26  and  C_34
   13  A    between atoms: C_29  and  C_36
   14  A    between atoms: C_31  and  C_37
   15  A    between atoms: C_33  and  C_36
                            x       y       z     vdW  Elec       q    Type
                         _______ _______ _______ _____ _____    ______ ____

>  <TORSDO>
F 15

$$$$
