=
 OpenBabel10262423213D

 34 38  0  0  1  0  0  0  0  0999 V2000
  188.3080  177.7840  144.9540 C   0  0  0  0  0  0  0  0  0  0  0  0
  191.5460  177.2320  143.3020 C   0  0  0  0  0  3  0  0  0  0  0  0
  190.8690  176.9270  145.4290 O   0  0  0  0  0  0  0  0  0  0  0  0
  186.1170  178.4440  145.8030 C   0  0  0  0  0  0  0  0  0  0  0  0
  186.9900  178.2310  144.7390 C   0  0  0  0  0  3  0  0  0  0  0  0
  187.8400  177.7520  147.3580 C   0  0  0  0  0  0  0  0  0  0  0  0
  188.2180  177.5290  148.7150 N   0  0  0  0  0  1  0  0  0  0  0  0
  186.5450  178.2080  147.1070 C   0  0  0  0  0  3  0  0  0  0  0  0
  190.0490  177.0450  146.4640 C   0  0  0  0  0  0  0  0  0  0  0  0
  188.7390  177.5320  146.2820 C   0  0  0  0  0  0  0  0  0  0  0  0
  190.4780  176.7350  147.6060 O   0  0  0  0  0  0  0  0  0  0  0  0
  191.5010  177.7940  141.9230 C   0  0  0  0  0  2  0  0  0  0  0  0
  190.5370  177.0810  141.0440 C   0  0  0  0  0  0  0  0  0  0  0  0
  189.2450  177.0440  141.3560 C   0  0  0  0  0  3  0  0  0  0  0  0
  190.5330  177.2120  144.1760 C   0  0  0  0  0  0  0  0  0  0  0  0
  188.6410  177.4770  142.6280 C   0  0  0  0  0  3  0  0  0  0  0  0
  189.1830  177.5420  143.8670 C   0  0  0  0  0  0  0  0  0  0  0  0
  190.9770  176.5720  139.7770 N   0  0  0  0  0  0  0  0  0  0  0  0
  190.2270  175.8410  139.0960 O   0  0  0  0  0  0  0  0  0  0  0  0
  192.2200  176.9010  139.2840 O   0  0  0  0  0  0  0  0  0  0  0  0
  184.7340  178.9430  145.5500 C   0  0  0  0  0  2  0  0  0  0  0  0
  182.1590  178.8560  142.8830 C   0  0  0  0  0  3  0  0  0  0  0  0
  185.0190  179.1520  143.0550 C   0  0  0  0  0  2  0  0  0  0  0  0
  183.1070  178.6020  139.2340 C   0  0  0  0  0  0  0  0  0  0  0  0
  182.3390  178.6550  140.4080 C   0  0  0  0  0  3  0  0  0  0  0  0
  182.9620  178.8000  141.6500 C   0  0  0  0  0  0  0  0  0  0  0  0
  185.1290  178.8600  140.5610 C   0  0  0  0  0  3  0  0  0  0  0  0
  184.3630  178.8980  141.7280 C   0  0  0  0  0  0  0  0  0  0  0  0
  184.5040  178.7050  139.3200 C   0  0  0  0  0  3  0  0  0  0  0  0
  184.2280  178.4850  144.1910 C   0  0  2  0  0  3  0  0  0  0  0  0
  182.7500  178.7580  144.0780 C   0  0  0  0  0  3  0  0  0  0  0  0
  182.4730  178.4470  137.9570 N   0  0  0  0  0  0  0  0  0  0  0  0
  181.2310  178.9930  137.7270 O   0  0  0  0  0  0  0  0  0  0  0  0
  183.0400  177.8180  137.0390 O   0  0  0  0  0  0  0  0  0  0  0  0
  1 10  1  0  0  0  0
  2 15  2  0  0  0  0
  3  9  1  0  0  0  0
  4  8  2  0  0  0  0
  5  1  2  0  0  0  0
  5  4  1  0  0  0  0
  6  7  1  0  0  0  0
  8  6  1  0  0  0  0
  9 11  2  0  0  0  0
 10  9  1  0  0  0  0
 10  6  2  0  0  0  0
 12  2  1  0  0  0  0
 13 14  2  0  0  0  0
 13 12  1  0  0  0  0
 14 16  1  0  0  0  0
 15  3  1  0  0  0  0
 16 17  2  0  0  0  0
 17 15  1  0  0  0  0
 17  1  1  0  0  0  0
 18 13  1  0  0  0  0
 19 18  2  0  0  0  0
 20 18  2  0  0  0  0
 21  4  1  0  0  0  0
 22 31  2  0  0  0  0
 23 30  1  0  0  0  0
 24 29  2  0  0  0  0
 24 25  1  0  0  0  0
 25 26  2  0  0  0  0
 26 28  1  0  0  0  0
 26 22  1  0  0  0  0
 27 28  2  0  0  0  0
 28 23  1  0  0  0  0
 29 27  1  0  0  0  0
 30 21  1  1  0  0  0
 31 30  1  0  0  0  0
 32 24  1  0  0  0  0
 33 32  2  0  0  0  0
 34 32  2  0  0  0  0
M  END
>  <MODEL>
1

>  <REMARK>
 VINA RESULT:     -11.5      0.000      0.000
  Name = 
  4 active torsions:
  status: ('A' for Active; 'I' for Inactive)
    1  A    between atoms: N_3  and  C_25
    2  A    between atoms: C_7  and  N_11
    3  A    between atoms: C_8  and  C_18
    4  A    between atoms: C_18  and  C_30
                            x       y       z     vdW  Elec       q    Type
                         _______ _______ _______ _____ _____    ______ ____

>  <TORSDO>
F 4

$$$$
=
 OpenBabel10262423213D

 34 38  0  0  1  0  0  0  0  0999 V2000
  184.1980  178.7020  141.4390 C   0  0  0  0  0  0  0  0  0  0  0  0
  185.6280  177.9810  138.1300 C   0  0  0  0  0  3  0  0  0  0  0  0
  183.6050  178.7430  138.7620 O   0  0  0  0  0  0  0  0  0  0  0  0
  183.4670  178.8870  143.7600 C   0  0  0  0  0  0  0  0  0  0  0  0
  184.4730  178.6770  142.8200 C   0  0  0  0  0  3  0  0  0  0  0  0
  181.8550  179.1740  141.9760 C   0  0  0  0  0  0  0  0  0  0  0  0
  180.5010  179.4280  141.6050 N   0  0  0  0  0  1  0  0  0  0  0  0
  182.1630  179.1310  143.3370 C   0  0  0  0  0  3  0  0  0  0  0  0
  182.6340  179.0220  139.6200 C   0  0  0  0  0  0  0  0  0  0  0  0
  182.8720  178.9620  141.0080 C   0  0  0  0  0  0  0  0  0  0  0  0
  181.4980  179.3150  139.1630 O   0  0  0  0  0  0  0  0  0  0  0  0
  186.9430  177.2990  138.2960 C   0  0  0  0  0  2  0  0  0  0  0  0
  187.9650  178.1700  138.9340 C   0  0  0  0  0  0  0  0  0  0  0  0
  187.7640  178.6570  140.1540 C   0  0  0  0  0  3  0  0  0  0  0  0
  184.8460  178.4300  139.1170 C   0  0  0  0  0  0  0  0  0  0  0  0
  186.5080  178.5990  140.9220 C   0  0  0  0  0  3  0  0  0  0  0  0
  185.2290  178.5160  140.4870 C   0  0  0  0  0  0  0  0  0  0  0  0
  189.2370  178.3530  138.2960 N   0  0  0  0  0  0  0  0  0  0  0  0
  190.2690  177.8550  138.7940 O   0  0  0  0  0  0  0  0  0  0  0  0
  189.3350  179.0570  137.1170 O   0  0  0  0  0  0  0  0  0  0  0  0
  183.7800  178.8300  145.2180 C   0  0  0  0  0  2  0  0  0  0  0  0
  186.7380  178.2030  147.3640 C   0  0  0  0  0  3  0  0  0  0  0  0
  185.9460  177.6780  144.6460 C   0  0  0  0  0  2  0  0  0  0  0  0
  190.0030  176.9750  145.9130 C   0  0  0  0  0  0  0  0  0  0  0  0
  189.0480  177.4480  146.8270 C   0  0  0  0  0  3  0  0  0  0  0  0
  187.7410  177.7080  146.4080 C   0  0  0  0  0  0  0  0  0  0  0  0
  188.3180  177.0060  144.1580 C   0  0  0  0  0  3  0  0  0  0  0  0
  187.3760  177.4910  145.0670 C   0  0  0  0  0  0  0  0  0  0  0  0
  189.6280  176.7560  144.5780 C   0  0  0  0  0  3  0  0  0  0  0  0
  185.2820  178.8030  145.4540 C   0  0  2  0  0  3  0  0  0  0  0  0
  185.5650  178.6730  146.9280 C   0  0  0  0  0  3  0  0  0  0  0  0
  191.3480  176.7120  146.3360 N   0  0  0  0  0  0  0  0  0  0  0  0
  191.7780  177.1220  147.5770 O   0  0  0  0  0  0  0  0  0  0  0  0
  192.1430  176.1090  145.5860 O   0  0  0  0  0  0  0  0  0  0  0  0
  1  5  1  0  0  0  0
  2 12  1  0  0  0  0
  2 15  2  0  0  0  0
  3 15  1  0  0  0  0
  3  9  1  0  0  0  0
  4 21  1  0  0  0  0
  5  4  2  0  0  0  0
  6  8  2  0  0  0  0
  7  6  1  0  0  0  0
  8  4  1  0  0  0  0
  9 10  1  0  0  0  0
 10  1  2  0  0  0  0
 10  6  1  0  0  0  0
 11  9  2  0  0  0  0
 12 13  1  0  0  0  0
 13 14  2  0  0  0  0
 14 16  1  0  0  0  0
 15 17  1  0  0  0  0
 17 16  2  0  0  0  0
 17  1  1  0  0  0  0
 18 19  2  0  0  0  0
 18 13  1  0  0  0  0
 20 18  2  0  0  0  0
 23 28  1  0  0  0  0
 23 30  1  0  0  0  0
 24 32  1  0  0  0  0
 24 25  1  0  0  0  0
 26 25  2  0  0  0  0
 26 22  1  0  0  0  0
 27 29  1  0  0  0  0
 27 28  2  0  0  0  0
 28 26  1  0  0  0  0
 29 24  2  0  0  0  0
 30 21  1  1  0  0  0
 30 31  1  0  0  0  0
 31 22  2  0  0  0  0
 32 33  2  0  0  0  0
 34 32  2  0  0  0  0
M  END
>  <MODEL>
2

>  <REMARK>
 VINA RESULT:     -11.3      1.835      7.400
  Name = 
  4 active torsions:
  status: ('A' for Active; 'I' for Inactive)
    1  A    between atoms: N_3  and  C_25
    2  A    between atoms: C_7  and  N_11
    3  A    between atoms: C_8  and  C_18
    4  A    between atoms: C_18  and  C_30
                            x       y       z     vdW  Elec       q    Type
                         _______ _______ _______ _____ _____    ______ ____

>  <TORSDO>
F 4

$$$$
=
 OpenBabel10262423213D

 34 38  0  0  1  0  0  0  0  0999 V2000
  186.7870  178.2000  141.1140 C   0  0  0  0  0  0  0  0  0  0  0  0
  189.0420  177.2600  138.3660 C   0  0  0  0  0  3  0  0  0  0  0  0
  187.0390  178.2900  138.3840 O   0  0  0  0  0  0  0  0  0  0  0  0
  185.4210  178.5050  143.1130 C   0  0  0  0  0  0  0  0  0  0  0  0
  186.6270  178.1540  142.5120 C   0  0  0  0  0  3  0  0  0  0  0  0
  184.4730  178.9840  140.9360 C   0  0  0  0  0  0  0  0  0  0  0  0
  183.3390  179.4110  140.1840 N   0  0  0  0  0  1  0  0  0  0  0  0
  184.3480  178.9150  142.3240 C   0  0  0  0  0  3  0  0  0  0  0  0
  185.8990  178.7040  138.9190 C   0  0  0  0  0  0  0  0  0  0  0  0
  185.6980  178.6280  140.3120 C   0  0  0  0  0  0  0  0  0  0  0  0
  185.0010  179.1400  138.1510 O   0  0  0  0  0  0  0  0  0  0  0  0
  190.1460  176.4120  138.8990 C   0  0  0  0  0  2  0  0  0  0  0  0
  191.0320  177.1480  139.8390 C   0  0  0  0  0  0  0  0  0  0  0  0
  190.5370  177.6700  140.9570 C   0  0  0  0  0  3  0  0  0  0  0  0
  188.0640  177.8200  139.0860 C   0  0  0  0  0  0  0  0  0  0  0  0
  189.1110  177.7870  141.3110 C   0  0  0  0  0  3  0  0  0  0  0  0
  188.0240  177.8690  140.5090 C   0  0  0  0  0  0  0  0  0  0  0  0
  192.4500  177.1540  139.6190 N   0  0  0  0  0  0  0  0  0  0  0  0
  193.2280  177.5030  140.5310 O   0  0  0  0  0  0  0  0  0  0  0  0
  192.9720  176.7530  138.4090 O   0  0  0  0  0  0  0  0  0  0  0  0
  185.2700  178.4240  144.5950 C   0  0  0  0  0  2  0  0  0  0  0  0
  187.4460  177.8040  147.5320 C   0  0  0  0  0  3  0  0  0  0  0  0
  187.5570  177.3720  144.6870 C   0  0  0  0  0  2  0  0  0  0  0  0
  191.0540  176.7530  147.1270 C   0  0  0  0  0  0  0  0  0  0  0  0
  189.8420  177.1520  147.7140 C   0  0  0  0  0  3  0  0  0  0  0  0
  188.7180  177.3860  146.9190 C   0  0  0  0  0  0  0  0  0  0  0  0
  189.9930  176.8040  144.9380 C   0  0  0  0  0  3  0  0  0  0  0  0
  188.7940  177.2160  145.5250 C   0  0  0  0  0  0  0  0  0  0  0  0
  191.1190  176.5810  145.7360 C   0  0  0  0  0  3  0  0  0  0  0  0
  186.6250  178.4370  145.2840 C   0  0  2  0  0  3  0  0  0  0  0  0
  186.4450  178.2530  146.7690 C   0  0  0  0  0  3  0  0  0  0  0  0
  192.2130  176.5180  147.9380 N   0  0  0  0  0  0  0  0  0  0  0  0
  192.5230  177.3730  148.9700 O   0  0  0  0  0  0  0  0  0  0  0  0
  192.9520  175.5370  147.7180 O   0  0  0  0  0  0  0  0  0  0  0  0
  1  5  1  0  0  0  0
  2 12  1  0  0  0  0
  2 15  2  0  0  0  0
  3  9  1  0  0  0  0
  3 15  1  0  0  0  0
  4 21  1  0  0  0  0
  5  4  2  0  0  0  0
  6  8  2  0  0  0  0
  7  6  1  0  0  0  0
  8  4  1  0  0  0  0
  9 10  1  0  0  0  0
 10  6  1  0  0  0  0
 10  1  2  0  0  0  0
 11  9  2  0  0  0  0
 12 13  1  0  0  0  0
 13 14  2  0  0  0  0
 14 16  1  0  0  0  0
 15 17  1  0  0  0  0
 17  1  1  0  0  0  0
 17 16  2  0  0  0  0
 18 13  1  0  0  0  0
 18 19  2  0  0  0  0
 20 18  2  0  0  0  0
 23 30  1  0  0  0  0
 23 28  1  0  0  0  0
 24 25  1  0  0  0  0
 24 32  1  0  0  0  0
 26 22  1  0  0  0  0
 26 25  2  0  0  0  0
 27 28  2  0  0  0  0
 27 29  1  0  0  0  0
 28 26  1  0  0  0  0
 29 24  2  0  0  0  0
 30 21  1  6  0  0  0
 30 31  1  0  0  0  0
 31 22  2  0  0  0  0
 32 33  2  0  0  0  0
 34 32  2  0  0  0  0
M  END
>  <MODEL>
3

>  <REMARK>
 VINA RESULT:     -10.9      1.902      7.438
  Name = 
  4 active torsions:
  status: ('A' for Active; 'I' for Inactive)
    1  A    between atoms: N_3  and  C_25
    2  A    between atoms: C_7  and  N_11
    3  A    between atoms: C_8  and  C_18
    4  A    between atoms: C_18  and  C_30
                            x       y       z     vdW  Elec       q    Type
                         _______ _______ _______ _____ _____    ______ ____

>  <TORSDO>
F 4

$$$$
=
 OpenBabel10262423213D

 34 38  0  0  1  0  0  0  0  0999 V2000
  187.0090  178.1220  144.6020 C   0  0  0  0  0  0  0  0  0  0  0  0
  188.9460  177.6120  147.6860 C   0  0  0  0  0  3  0  0  0  0  0  0
  186.7370  177.8510  147.3180 O   0  0  0  0  0  0  0  0  0  0  0  0
  186.0320  178.6570  142.4310 C   0  0  0  0  0  0  0  0  0  0  0  0
  187.1240  178.2760  143.2070 C   0  0  0  0  0  3  0  0  0  0  0  0
  184.6450  178.7320  144.4150 C   0  0  0  0  0  0  0  0  0  0  0  0
  183.3570  178.9820  144.9750 N   0  0  0  0  0  1  0  0  0  0  0  0
  184.7990  178.8870  143.0370 C   0  0  0  0  0  3  0  0  0  0  0  0
  185.6560  178.1420  146.6080 C   0  0  0  0  0  0  0  0  0  0  0  0
  185.7500  178.3440  145.2170 C   0  0  0  0  0  0  0  0  0  0  0  0
  184.5560  178.2540  147.2120 O   0  0  0  0  0  0  0  0  0  0  0  0
  190.4010  177.7270  147.3830 C   0  0  0  0  0  2  0  0  0  0  0  0
  190.8860  176.6450  146.4850 C   0  0  0  0  0  0  0  0  0  0  0  0
  190.3730  176.5040  145.2670 C   0  0  0  0  0  3  0  0  0  0  0  0
  187.9490  177.6960  146.7980 C   0  0  0  0  0  0  0  0  0  0  0  0
  189.1870  177.1960  144.7330 C   0  0  0  0  0  3  0  0  0  0  0  0
  188.1160  177.7070  145.3840 C   0  0  0  0  0  0  0  0  0  0  0  0
  192.0210  175.8580  146.8750 N   0  0  0  0  0  0  0  0  0  0  0  0
  192.4300  174.9360  146.1390 O   0  0  0  0  0  0  0  0  0  0  0  0
  192.6860  176.1230  148.0510 O   0  0  0  0  0  0  0  0  0  0  0  0
  186.1860  178.8390  140.9580 C   0  0  0  0  0  2  0  0  0  0  0  0
  188.2670  177.5570  138.1700 C   0  0  0  0  0  3  0  0  0  0  0  0
  188.6810  178.5020  140.8590 C   0  0  0  0  0  2  0  0  0  0  0  0
  191.9000  176.6490  138.6750 C   0  0  0  0  0  0  0  0  0  0  0  0
  190.6410  176.8130  138.0760 C   0  0  0  0  0  3  0  0  0  0  0  0
  189.5880  177.3830  138.7960 C   0  0  0  0  0  0  0  0  0  0  0  0
  191.0430  177.6530  140.7190 C   0  0  0  0  0  3  0  0  0  0  0  0
  189.7880  177.8000  140.1240 C   0  0  0  0  0  0  0  0  0  0  0  0
  192.0920  177.0720  140.0000 C   0  0  0  0  0  3  0  0  0  0  0  0
  187.3100  177.9700  140.4150 C   0  0  2  0  0  3  0  0  0  0  0  0
  187.2050  177.8780  138.9150 C   0  0  0  0  0  3  0  0  0  0  0  0
  192.9830  176.0590  137.9430 N   0  0  0  0  0  0  0  0  0  0  0  0
  192.9910  174.7080  137.6830 O   0  0  0  0  0  0  0  0  0  0  0  0
  193.9290  176.7620  137.5330 O   0  0  0  0  0  0  0  0  0  0  0  0
  1 10  1  0  0  0  0
  1 17  1  0  0  0  0
  4  8  2  0  0  0  0
  4  5  1  0  0  0  0
  5  1  2  0  0  0  0
  6  7  1  0  0  0  0
  6 10  2  0  0  0  0
  8  6  1  0  0  0  0
  9 11  2  0  0  0  0
  9  3  1  0  0  0  0
 10  9  1  0  0  0  0
 12  2  1  0  0  0  0
 13 18  1  0  0  0  0
 13 12  1  0  0  0  0
 14 13  2  0  0  0  0
 15  3  1  0  0  0  0
 15  2  2  0  0  0  0
 16 14  1  0  0  0  0
 16 17  2  0  0  0  0
 17 15  1  0  0  0  0
 18 20  2  0  0  0  0
 19 18  2  0  0  0  0
 21  4  1  0  0  0  0
 22 26  1  0  0  0  0
 22 31  2  0  0  0  0
 24 29  1  0  0  0  0
 25 24  2  0  0  0  0
 25 26  1  0  0  0  0
 26 28  2  0  0  0  0
 28 27  1  0  0  0  0
 28 23  1  0  0  0  0
 29 27  2  0  0  0  0
 30 23  1  0  0  0  0
 30 21  1  6  0  0  0
 31 30  1  0  0  0  0
 32 24  1  0  0  0  0
 33 32  2  0  0  0  0
 34 32  2  0  0  0  0
M  END
>  <MODEL>
4

>  <REMARK>
 VINA RESULT:     -10.7      3.377      6.434
  Name = 
  4 active torsions:
  status: ('A' for Active; 'I' for Inactive)
    1  A    between atoms: N_3  and  C_25
    2  A    between atoms: C_7  and  N_11
    3  A    between atoms: C_8  and  C_18
    4  A    between atoms: C_18  and  C_30
                            x       y       z     vdW  Elec       q    Type
                         _______ _______ _______ _____ _____    ______ ____

>  <TORSDO>
F 4

$$$$
=
 OpenBabel10262423213D

 34 38  0  0  1  0  0  0  0  0999 V2000
  182.9060  178.4020  141.5140 C   0  0  0  0  0  0  0  0  0  0  0  0
  183.3160  177.3930  138.0020 C   0  0  0  0  0  3  0  0  0  0  0  0
  181.4910  177.9040  139.2180 O   0  0  0  0  0  0  0  0  0  0  0  0
  182.9370  178.8430  143.9140 C   0  0  0  0  0  0  0  0  0  0  0  0
  183.6080  178.6500  142.7090 C   0  0  0  0  0  3  0  0  0  0  0  0
  180.8150  178.5620  142.7810 C   0  0  0  0  0  0  0  0  0  0  0  0
  179.3930  178.5250  142.8790 N   0  0  0  0  0  1  0  0  0  0  0  0
  181.5450  178.7950  143.9470 C   0  0  0  0  0  3  0  0  0  0  0  0
  180.8110  178.1560  140.3280 C   0  0  0  0  0  0  0  0  0  0  0  0
  181.4880  178.3650  141.5460 C   0  0  0  0  0  0  0  0  0  0  0  0
  179.5530  178.1780  140.2670 O   0  0  0  0  0  0  0  0  0  0  0  0
  184.7280  176.9740  137.7690 C   0  0  0  0  0  2  0  0  0  0  0  0
  185.6920  178.0950  137.9230 C   0  0  0  0  0  0  0  0  0  0  0  0
  185.7950  178.7360  139.0830 C   0  0  0  0  0  3  0  0  0  0  0  0
  182.8160  177.8630  139.1500 C   0  0  0  0  0  0  0  0  0  0  0  0
  184.8940  178.5980  140.2410 C   0  0  0  0  0  3  0  0  0  0  0  0
  183.5910  178.2340  140.2870 C   0  0  0  0  0  0  0  0  0  0  0  0
  186.6230  178.3780  136.8690 N   0  0  0  0  0  0  0  0  0  0  0  0
  186.4730  177.8640  135.7410 O   0  0  0  0  0  0  0  0  0  0  0  0
  187.6800  179.2350  137.0800 O   0  0  0  0  0  0  0  0  0  0  0  0
  183.7050  179.0790  145.1710 C   0  0  0  0  0  2  0  0  0  0  0  0
  187.0390  178.2170  143.7950 C   0  0  0  0  0  3  0  0  0  0  0  0
  185.8670  178.6430  146.3910 C   0  0  0  0  0  2  0  0  0  0  0  0
  189.8560  177.0570  146.0300 C   0  0  0  0  0  0  0  0  0  0  0  0
  189.1190  177.3880  144.8810 C   0  0  0  0  0  3  0  0  0  0  0  0
  187.8130  177.8700  144.9970 C   0  0  0  0  0  0  0  0  0  0  0  0
  187.9680  177.7190  147.4140 C   0  0  0  0  0  3  0  0  0  0  0  0
  187.2340  178.0320  146.2680 C   0  0  0  0  0  0  0  0  0  0  0  0
  189.2710  177.2260  147.2940 C   0  0  0  0  0  3  0  0  0  0  0  0
  184.9920  178.2680  145.1860 C   0  0  2  0  0  3  0  0  0  0  0  0
  185.7260  178.4520  143.8830 C   0  0  0  0  0  3  0  0  0  0  0  0
  191.1950  176.5560  145.9160 N   0  0  0  0  0  0  0  0  0  0  0  0
  191.6290  175.9950  144.7370 O   0  0  0  0  0  0  0  0  0  0  0  0
  191.9820  176.6220  146.8830 O   0  0  0  0  0  0  0  0  0  0  0  0
  1 10  2  0  0  0  0
  1  5  1  0  0  0  0
  2 15  2  0  0  0  0
  3  9  1  0  0  0  0
  4  8  1  0  0  0  0
  4 21  1  0  0  0  0
  5  4  2  0  0  0  0
  6  7  1  0  0  0  0
  6  8  2  0  0  0  0
  9 10  1  0  0  0  0
 10  6  1  0  0  0  0
 11  9  2  0  0  0  0
 12 13  1  0  0  0  0
 12  2  1  0  0  0  0
 13 14  2  0  0  0  0
 14 16  1  0  0  0  0
 15  3  1  0  0  0  0
 15 17  1  0  0  0  0
 16 17  2  0  0  0  0
 17  1  1  0  0  0  0
 18 20  2  0  0  0  0
 18 13  1  0  0  0  0
 19 18  2  0  0  0  0
 22 31  2  0  0  0  0
 22 26  1  0  0  0  0
 24 29  1  0  0  0  0
 25 26  1  0  0  0  0
 25 24  2  0  0  0  0
 26 28  2  0  0  0  0
 28 23  1  0  0  0  0
 28 27  1  0  0  0  0
 29 27  2  0  0  0  0
 30 21  1  6  0  0  0
 30 23  1  0  0  0  0
 31 30  1  0  0  0  0
 32 24  1  0  0  0  0
 32 34  2  0  0  0  0
 33 32  2  0  0  0  0
M  END
>  <MODEL>
5

>  <REMARK>
 VINA RESULT:     -10.4      2.487      7.965
  Name = 
  4 active torsions:
  status: ('A' for Active; 'I' for Inactive)
    1  A    between atoms: N_3  and  C_25
    2  A    between atoms: C_7  and  N_11
    3  A    between atoms: C_8  and  C_18
    4  A    between atoms: C_18  and  C_30
                            x       y       z     vdW  Elec       q    Type
                         _______ _______ _______ _____ _____    ______ ____

>  <TORSDO>
F 4

$$$$
=
 OpenBabel10262423213D

 34 38  0  0  1  0  0  0  0  0999 V2000
  189.0870  177.3730  143.8490 C   0  0  0  0  0  0  0  0  0  0  0  0
  191.7970  176.9030  141.4100 C   0  0  0  0  0  3  0  0  0  0  0  0
  191.6510  176.4320  143.6070 O   0  0  0  0  0  0  0  0  0  0  0  0
  187.1990  178.0000  145.2630 C   0  0  0  0  0  0  0  0  0  0  0  0
  187.7750  177.8620  144.0020 C   0  0  0  0  0  3  0  0  0  0  0  0
  189.2220  177.1470  146.2850 C   0  0  0  0  0  0  0  0  0  0  0  0
  189.9130  176.8020  147.4840 N   0  0  0  0  0  1  0  0  0  0  0  0
  187.9240  177.6460  146.3980 C   0  0  0  0  0  3  0  0  0  0  0  0
  191.1150  176.4770  144.8190 C   0  0  0  0  0  0  0  0  0  0  0  0
  189.8200  177.0020  145.0050 C   0  0  0  0  0  0  0  0  0  0  0  0
  191.7990  176.0630  145.7920 O   0  0  0  0  0  0  0  0  0  0  0  0
  191.4380  177.5810  140.1320 C   0  0  0  0  0  2  0  0  0  0  0  0
  190.2600  176.9630  139.4670 C   0  0  0  0  0  0  0  0  0  0  0  0
  189.0840  176.9240  140.0850 C   0  0  0  0  0  3  0  0  0  0  0  0
  191.0300  176.8280  142.5030 C   0  0  0  0  0  0  0  0  0  0  0  0
  188.8280  177.2590  141.4970 C   0  0  0  0  0  3  0  0  0  0  0  0
  189.6580  177.2080  142.5640 C   0  0  0  0  0  0  0  0  0  0  0  0
  190.3560  176.5560  138.0940 N   0  0  0  0  0  0  0  0  0  0  0  0
  190.5340  175.3540  137.8050 O   0  0  0  0  0  0  0  0  0  0  0  0
  190.2300  177.4780  137.0800 O   0  0  0  0  0  0  0  0  0  0  0  0
  185.8160  178.5450  145.3990 C   0  0  0  0  0  2  0  0  0  0  0  0
  182.6630  178.7300  143.4580 C   0  0  0  0  0  3  0  0  0  0  0  0
  185.4810  179.0350  142.9510 C   0  0  0  0  0  2  0  0  0  0  0  0
  182.6770  178.8960  139.6820 C   0  0  0  0  0  0  0  0  0  0  0  0
  182.2240  178.8100  141.0080 C   0  0  0  0  0  3  0  0  0  0  0  0
  183.1360  178.8210  142.0670 C   0  0  0  0  0  0  0  0  0  0  0  0
  184.9690  179.0260  140.4900 C   0  0  0  0  0  3  0  0  0  0  0  0
  184.5140  178.9240  141.8060 C   0  0  0  0  0  0  0  0  0  0  0  0
  184.0550  179.0040  139.4330 C   0  0  0  0  0  3  0  0  0  0  0  0
  184.9830  178.2370  144.1650 C   0  0  2  0  0  3  0  0  0  0  0  0
  183.5280  178.5050  144.4510 C   0  0  0  0  0  3  0  0  0  0  0  0
  181.7460  178.8790  138.5920 N   0  0  0  0  0  0  0  0  0  0  0  0
  180.8820  177.8210  138.4340 O   0  0  0  0  0  0  0  0  0  0  0  0
  181.7080  179.8230  137.7760 O   0  0  0  0  0  0  0  0  0  0  0  0
  1  5  2  0  0  0  0
  1 10  1  0  0  0  0
  2 15  2  0  0  0  0
  3  9  1  0  0  0  0
  4 21  1  0  0  0  0
  4  8  2  0  0  0  0
  5  4  1  0  0  0  0
  6  8  1  0  0  0  0
  6  7  1  0  0  0  0
  9 10  1  0  0  0  0
  9 11  2  0  0  0  0
 10  6  2  0  0  0  0
 12  2  1  0  0  0  0
 13 14  2  0  0  0  0
 13 12  1  0  0  0  0
 14 16  1  0  0  0  0
 15 17  1  0  0  0  0
 15  3  1  0  0  0  0
 16 17  2  0  0  0  0
 17  1  1  0  0  0  0
 18 13  1  0  0  0  0
 19 18  2  0  0  0  0
 20 18  2  0  0  0  0
 22 31  2  0  0  0  0
 23 30  1  0  0  0  0
 24 25  1  0  0  0  0
 25 26  2  0  0  0  0
 26 22  1  0  0  0  0
 27 28  2  0  0  0  0
 28 26  1  0  0  0  0
 28 23  1  0  0  0  0
 29 24  2  0  0  0  0
 29 27  1  0  0  0  0
 30 31  1  0  0  0  0
 30 21  1  1  0  0  0
 32 24  1  0  0  0  0
 33 32  2  0  0  0  0
 34 32  2  0  0  0  0
M  END
>  <MODEL>
6

>  <REMARK>
 VINA RESULT:     -10.3      1.224      1.531
  Name = 
  4 active torsions:
  status: ('A' for Active; 'I' for Inactive)
    1  A    between atoms: N_3  and  C_25
    2  A    between atoms: C_7  and  N_11
    3  A    between atoms: C_8  and  C_18
    4  A    between atoms: C_18  and  C_30
                            x       y       z     vdW  Elec       q    Type
                         _______ _______ _______ _____ _____    ______ ____

>  <TORSDO>
F 4

$$$$
=
 OpenBabel10262423213D

 34 38  0  0  1  0  0  0  0  0999 V2000
  184.1800  178.6650  142.5810 C   0  0  0  0  0  0  0  0  0  0  0  0
  184.9160  178.6460  146.1840 C   0  0  0  0  0  3  0  0  0  0  0  0
  182.9770  178.5460  145.0430 O   0  0  0  0  0  0  0  0  0  0  0  0
  184.0010  178.9070  140.1600 C   0  0  0  0  0  0  0  0  0  0  0  0
  184.7730  178.7370  141.3060 C   0  0  0  0  0  3  0  0  0  0  0  0
  181.9920  178.9220  141.5120 C   0  0  0  0  0  0  0  0  0  0  0  0
  180.5700  179.0270  141.5550 N   0  0  0  0  0  1  0  0  0  0  0  0
  182.6160  179.0020  140.2660 C   0  0  0  0  0  3  0  0  0  0  0  0
  182.2000  178.6320  143.9720 C   0  0  0  0  0  0  0  0  0  0  0  0
  182.7690  178.7500  142.6880 C   0  0  0  0  0  0  0  0  0  0  0  0
  180.9510  178.6300  144.1370 O   0  0  0  0  0  0  0  0  0  0  0  0
  186.3610  178.9430  146.3960 C   0  0  0  0  0  2  0  0  0  0  0  0
  187.2500  177.8810  145.8550 C   0  0  0  0  0  0  0  0  0  0  0  0
  187.2290  177.5850  144.5590 C   0  0  0  0  0  3  0  0  0  0  0  0
  184.3040  178.5280  145.0000 C   0  0  0  0  0  0  0  0  0  0  0  0
  186.2490  178.0650  143.5690 C   0  0  0  0  0  3  0  0  0  0  0  0
  184.9680  178.4650  143.7410 C   0  0  0  0  0  0  0  0  0  0  0  0
  188.2450  177.2900  146.7030 N   0  0  0  0  0  0  0  0  0  0  0  0
  189.3570  176.9640  146.2370 O   0  0  0  0  0  0  0  0  0  0  0  0
  187.9970  177.0960  148.0430 O   0  0  0  0  0  0  0  0  0  0  0  0
  184.6560  179.0070  138.8230 C   0  0  0  0  0  2  0  0  0  0  0  0
  187.4380  177.4420  136.9350 C   0  0  0  0  0  3  0  0  0  0  0  0
  187.0400  178.6110  139.5370 C   0  0  0  0  0  2  0  0  0  0  0  0
  190.6870  176.5090  138.6230 C   0  0  0  0  0  0  0  0  0  0  0  0
  189.6860  176.6450  137.6480 C   0  0  0  0  0  3  0  0  0  0  0  0
  188.4890  177.2980  137.9550 C   0  0  0  0  0  0  0  0  0  0  0  0
  189.2850  177.7050  140.2100 C   0  0  0  0  0  3  0  0  0  0  0  0
  188.2860  177.8260  139.2430 C   0  0  0  0  0  0  0  0  0  0  0  0
  190.4780  177.0430  139.9040 C   0  0  0  0  0  3  0  0  0  0  0  0
  185.8510  178.0710  138.7280 C   0  0  2  0  0  3  0  0  0  0  0  0
  186.2130  177.8500  137.2820 C   0  0  0  0  0  3  0  0  0  0  0  0
  191.9150  175.8350  138.3150 N   0  0  0  0  0  0  0  0  0  0  0  0
  191.9080  174.5030  137.9690 O   0  0  0  0  0  0  0  0  0  0  0  0
  193.0020  176.4460  138.3570 O   0  0  0  0  0  0  0  0  0  0  0  0
  1 10  1  0  0  0  0
  1 17  1  0  0  0  0
  2 12  1  0  0  0  0
  4  8  2  0  0  0  0
  4  5  1  0  0  0  0
  5  1  2  0  0  0  0
  6  7  1  0  0  0  0
  6 10  2  0  0  0  0
  8  6  1  0  0  0  0
  9 11  2  0  0  0  0
  9  3  1  0  0  0  0
 10  9  1  0  0  0  0
 13 12  1  0  0  0  0
 13 18  1  0  0  0  0
 14 13  2  0  0  0  0
 15  3  1  0  0  0  0
 15  2  2  0  0  0  0
 16 17  2  0  0  0  0
 16 14  1  0  0  0  0
 17 15  1  0  0  0  0
 18 20  2  0  0  0  0
 19 18  2  0  0  0  0
 21  4  1  0  0  0  0
 22 31  2  0  0  0  0
 22 26  1  0  0  0  0
 24 29  1  0  0  0  0
 25 26  1  0  0  0  0
 25 24  2  0  0  0  0
 26 28  2  0  0  0  0
 28 23  1  0  0  0  0
 28 27  1  0  0  0  0
 29 27  2  0  0  0  0
 30 21  1  6  0  0  0
 30 23  1  0  0  0  0
 31 30  1  0  0  0  0
 32 34  2  0  0  0  0
 32 24  1  0  0  0  0
 33 32  2  0  0  0  0
M  END
>  <MODEL>
7

>  <REMARK>
 VINA RESULT:     -10.0      2.553      7.360
  Name = 
  4 active torsions:
  status: ('A' for Active; 'I' for Inactive)
    1  A    between atoms: N_3  and  C_25
    2  A    between atoms: C_7  and  N_11
    3  A    between atoms: C_8  and  C_18
    4  A    between atoms: C_18  and  C_30
                            x       y       z     vdW  Elec       q    Type
                         _______ _______ _______ _____ _____    ______ ____

>  <TORSDO>
F 4

$$$$
=
 OpenBabel10262423213D

 34 38  0  0  1  0  0  0  0  0999 V2000
  186.8080  178.1400  144.3290 C   0  0  0  0  0  0  0  0  0  0  0  0
  183.3320  178.4880  143.1800 C   0  0  0  0  0  3  0  0  0  0  0  0
  184.2640  178.6320  145.2260 O   0  0  0  0  0  0  0  0  0  0  0  0
  189.1500  177.6510  144.8060 C   0  0  0  0  0  0  0  0  0  0  0  0
  188.1210  177.8760  143.8950 C   0  0  0  0  0  3  0  0  0  0  0  0
  187.5990  177.9590  146.6400 C   0  0  0  0  0  0  0  0  0  0  0  0
  187.3920  177.9840  148.0510 N   0  0  0  0  0  1  0  0  0  0  0  0
  188.8860  177.6890  146.1730 C   0  0  0  0  0  3  0  0  0  0  0  0
  185.2270  178.4980  146.1260 C   0  0  0  0  0  0  0  0  0  0  0  0
  186.5420  178.1900  145.7210 C   0  0  0  0  0  0  0  0  0  0  0  0
  184.9310  178.6270  147.3440 O   0  0  0  0  0  0  0  0  0  0  0  0
  183.2420  178.0920  141.7470 C   0  0  0  0  0  2  0  0  0  0  0  0
  183.9970  179.0050  140.8500 C   0  0  0  0  0  0  0  0  0  0  0  0
  185.3090  179.1580  140.9990 C   0  0  0  0  0  3  0  0  0  0  0  0
  184.4490  178.5290  143.9150 C   0  0  0  0  0  0  0  0  0  0  0  0
  186.1250  178.6610  142.1210 C   0  0  0  0  0  3  0  0  0  0  0  0
  185.7700  178.3960  143.4000 C   0  0  0  0  0  0  0  0  0  0  0  0
  183.3360  179.5970  139.7220 N   0  0  0  0  0  0  0  0  0  0  0  0
  182.1470  179.3130  139.4690 O   0  0  0  0  0  0  0  0  0  0  0  0
  183.9950  180.5000  138.9190 O   0  0  0  0  0  0  0  0  0  0  0  0
  190.5290  177.3480  144.3200 C   0  0  0  0  0  2  0  0  0  0  0  0
  192.1780  176.8570  141.0360 C   0  0  0  0  0  3  0  0  0  0  0  0
  189.4870  177.0040  142.0520 C   0  0  0  0  0  2  0  0  0  0  0  0
  190.2200  176.9860  137.8060 C   0  0  0  0  0  0  0  0  0  0  0  0
  191.2910  176.9040  138.7100 C   0  0  0  0  0  3  0  0  0  0  0  0
  191.0560  176.9440  140.0860 C   0  0  0  0  0  0  0  0  0  0  0  0
  188.6720  177.1280  139.6780 C   0  0  0  0  0  3  0  0  0  0  0  0
  189.7420  177.0610  140.5720 C   0  0  0  0  0  0  0  0  0  0  0  0
  188.9110  177.0980  138.3000 C   0  0  0  0  0  3  0  0  0  0  0  0
  190.6560  177.6260  142.8300 C   0  0  2  0  0  3  0  0  0  0  0  0
  191.9880  177.1290  142.3300 C   0  0  0  0  0  3  0  0  0  0  0  0
  190.4560  176.9520  136.3920 N   0  0  0  0  0  0  0  0  0  0  0  0
  189.5740  177.5560  135.5260 O   0  0  0  0  0  0  0  0  0  0  0  0
  191.4630  176.3760  135.9310 O   0  0  0  0  0  0  0  0  0  0  0  0
  1 10  1  0  0  0  0
  2 15  2  0  0  0  0
  3  9  1  0  0  0  0
  4  8  2  0  0  0  0
  5  1  2  0  0  0  0
  5  4  1  0  0  0  0
  6  7  1  0  0  0  0
  8  6  1  0  0  0  0
  9 11  2  0  0  0  0
 10  9  1  0  0  0  0
 10  6  2  0  0  0  0
 12  2  1  0  0  0  0
 13 14  2  0  0  0  0
 13 12  1  0  0  0  0
 14 16  1  0  0  0  0
 15  3  1  0  0  0  0
 16 17  2  0  0  0  0
 17 15  1  0  0  0  0
 17  1  1  0  0  0  0
 18 13  1  0  0  0  0
 19 18  2  0  0  0  0
 20 18  2  0  0  0  0
 21  4  1  0  0  0  0
 22 31  2  0  0  0  0
 23 30  1  0  0  0  0
 24 29  2  0  0  0  0
 24 25  1  0  0  0  0
 25 26  2  0  0  0  0
 26 28  1  0  0  0  0
 26 22  1  0  0  0  0
 27 28  2  0  0  0  0
 28 23  1  0  0  0  0
 29 27  1  0  0  0  0
 30 21  1  1  0  0  0
 31 30  1  0  0  0  0
 32 24  1  0  0  0  0
 33 32  2  0  0  0  0
 34 32  2  0  0  0  0
M  END
>  <MODEL>
8

>  <REMARK>
 VINA RESULT:     -10.0      2.359      6.500
  Name = 
  4 active torsions:
  status: ('A' for Active; 'I' for Inactive)
    1  A    between atoms: N_3  and  C_25
    2  A    between atoms: C_7  and  N_11
    3  A    between atoms: C_8  and  C_18
    4  A    between atoms: C_18  and  C_30
                            x       y       z     vdW  Elec       q    Type
                         _______ _______ _______ _____ _____    ______ ____

>  <TORSDO>
F 4

$$$$
=
 OpenBabel10262423213D

 34 38  0  0  1  0  0  0  0  0999 V2000
  188.7780  177.5050  145.5970 C   0  0  0  0  0  0  0  0  0  0  0  0
  185.4540  178.1840  147.0140 C   0  0  0  0  0  3  0  0  0  0  0  0
  187.5140  178.2230  147.9220 O   0  0  0  0  0  0  0  0  0  0  0  0
  190.8030  176.7980  144.4330 C   0  0  0  0  0  0  0  0  0  0  0  0
  189.4490  177.1260  144.4190 C   0  0  0  0  0  3  0  0  0  0  0  0
  190.8860  177.2320  146.8140 C   0  0  0  0  0  0  0  0  0  0  0  0
  191.6690  177.2640  148.0060 N   0  0  0  0  0  1  0  0  0  0  0  0
  191.5150  176.8480  145.6290 C   0  0  0  0  0  3  0  0  0  0  0  0
  188.8180  177.9920  147.9670 C   0  0  0  0  0  0  0  0  0  0  0  0
  189.5070  177.5680  146.8120 C   0  0  0  0  0  0  0  0  0  0  0  0
  189.4150  178.1370  149.0670 O   0  0  0  0  0  0  0  0  0  0  0  0
  184.4060  177.8100  146.0220 C   0  0  0  0  0  2  0  0  0  0  0  0
  184.4430  178.6580  144.8010 C   0  0  0  0  0  0  0  0  0  0  0  0
  185.5310  178.6880  144.0380 C   0  0  0  0  0  3  0  0  0  0  0  0
  186.7760  178.1150  146.8240 C   0  0  0  0  0  0  0  0  0  0  0  0
  186.8450  178.1070  144.3660 C   0  0  0  0  0  3  0  0  0  0  0  0
  187.4080  177.8650  145.5720 C   0  0  0  0  0  0  0  0  0  0  0  0
  183.2480  179.3180  144.3610 N   0  0  0  0  0  0  0  0  0  0  0  0
  183.2900  180.5030  143.9680 O   0  0  0  0  0  0  0  0  0  0  0  0
  182.0440  178.6490  144.3440 O   0  0  0  0  0  0  0  0  0  0  0  0
  191.4850  176.3730  143.1760 C   0  0  0  0  0  2  0  0  0  0  0  0
  191.3790  177.1010  139.5410 C   0  0  0  0  0  3  0  0  0  0  0  0
  189.4950  176.8420  141.7030 C   0  0  0  0  0  2  0  0  0  0  0  0
  188.2260  178.3400  137.8680 C   0  0  0  0  0  0  0  0  0  0  0  0
  189.5610  177.9570  138.0720 C   0  0  0  0  0  3  0  0  0  0  0  0
  189.9800  177.5030  139.3250 C   0  0  0  0  0  0  0  0  0  0  0  0
  187.7300  177.7890  140.1850 C   0  0  0  0  0  3  0  0  0  0  0  0
  189.0620  177.4240  140.3870 C   0  0  0  0  0  0  0  0  0  0  0  0
  187.3150  178.2530  138.9330 C   0  0  0  0  0  3  0  0  0  0  0  0
  190.9710  177.1630  141.9820 C   0  0  2  0  0  3  0  0  0  0  0  0
  191.8380  176.8930  140.7800 C   0  0  0  0  0  3  0  0  0  0  0  0
  187.7920  178.8130  136.5860 N   0  0  0  0  0  0  0  0  0  0  0  0
  187.1810  180.0400  136.4680 O   0  0  0  0  0  0  0  0  0  0  0  0
  187.9640  178.1190  135.5630 O   0  0  0  0  0  0  0  0  0  0  0  0
  1 10  1  0  0  0  0
  3  9  1  0  0  0  0
  4  8  2  0  0  0  0
  5  4  1  0  0  0  0
  5  1  2  0  0  0  0
  6  7  1  0  0  0  0
  8  6  1  0  0  0  0
  9 11  2  0  0  0  0
 10  6  2  0  0  0  0
 10  9  1  0  0  0  0
 12  2  1  0  0  0  0
 13 12  1  0  0  0  0
 14 16  1  0  0  0  0
 14 13  2  0  0  0  0
 15  2  2  0  0  0  0
 15  3  1  0  0  0  0
 16 17  2  0  0  0  0
 17  1  1  0  0  0  0
 17 15  1  0  0  0  0
 18 13  1  0  0  0  0
 19 18  2  0  0  0  0
 20 18  2  0  0  0  0
 21  4  1  0  0  0  0
 22 31  2  0  0  0  0
 23 30  1  0  0  0  0
 24 25  2  0  0  0  0
 24 29  1  0  0  0  0
 25 26  1  0  0  0  0
 26 22  1  0  0  0  0
 26 28  2  0  0  0  0
 27 28  1  0  0  0  0
 28 23  1  0  0  0  0
 29 27  2  0  0  0  0
 30 21  1  1  0  0  0
 31 30  1  0  0  0  0
 32 24  1  0  0  0  0
 33 32  2  0  0  0  0
 34 32  2  0  0  0  0
M  END
>  <MODEL>
9

>  <REMARK>
 VINA RESULT:      -9.9      3.014      6.121
  Name = 
  4 active torsions:
  status: ('A' for Active; 'I' for Inactive)
    1  A    between atoms: N_3  and  C_25
    2  A    between atoms: C_7  and  N_11
    3  A    between atoms: C_8  and  C_18
    4  A    between atoms: C_18  and  C_30
                            x       y       z     vdW  Elec       q    Type
                         _______ _______ _______ _____ _____    ______ ____

>  <TORSDO>
F 4

$$$$
