=
 OpenBabel10262420373D

 55 60  0  0  1  0  0  0  0  0999 V2000
  183.1090  178.9370  144.5520 C   0  0  0  0  0  3  0  0  0  0  0  0
  185.7870  178.1500  144.7450 C   0  0  0  0  0  0  0  0  0  0  0  0
  185.1550  178.1840  143.4970 C   0  0  0  0  0  3  0  0  0  0  0  0
  183.7390  178.9030  145.8000 C   0  0  0  0  0  3  0  0  0  0  0  0
  183.8180  178.5810  143.3980 C   0  0  0  0  0  0  0  0  0  0  0  0
  185.0770  178.5080  145.8970 C   0  0  0  0  0  3  0  0  0  0  0  0
  187.2110  177.7200  144.8400 C   0  0  0  0  0  2  0  0  0  0  0  0
  187.8480  177.9370  146.5320 S   0  0  0  0  0  0  0  0  0  0  0  0
  189.1020  176.6310  146.3470 C   0  0  0  0  0  2  0  0  0  0  0  0
  190.2830  176.9020  147.2650 C   0  0  0  0  0  2  0  0  0  0  0  0
  191.5880  176.5910  146.5520 C   0  0  0  0  0  2  0  0  0  0  0  0
  191.9870  175.2380  144.0800 O   0  0  0  0  0  0  0  0  0  0  0  0
  191.7860  176.4820  144.0390 C   0  0  0  0  0  0  0  0  0  0  0  0
  191.5980  177.2250  145.2430 N   0  0  0  0  0  2  0  0  0  0  0  0
  190.7700  178.1610  142.7150 O   0  0  0  0  0  0  0  0  0  0  0  0
  191.7880  177.1900  142.7250 C   0  0  2  0  0  3  0  0  0  0  0  0
  190.5070  176.9690  142.0190 C   0  0  2  0  0  3  0  0  0  0  0  0
  190.6800  177.2240  140.5340 C   0  0  0  0  0  2  0  0  0  0  0  0
  189.0400  176.7700  138.4810 C   0  0  2  0  0  3  0  0  0  0  0  0
  189.4660  178.2280  138.5860 C   0  0  0  0  0  2  0  0  0  0  0  0
  189.3270  177.3990  139.8430 C   0  0  2  0  0  0  0  0  0  0  0  0
  188.1090  179.2400  140.7680 O   0  0  0  0  0  1  0  0  0  0  0  0
  188.1260  177.8470  140.6580 C   0  0  0  0  0  2  0  0  0  0  0  0
  190.1980  175.9190  137.9540 C   0  0  1  0  0  3  0  0  0  0  0  0
  189.6840  174.6990  137.2570 C   0  0  0  0  0  0  0  0  0  0  0  0
  188.6410  174.7900  136.3420 O   0  0  0  0  0  0  0  0  0  0  0  0
  190.2550  173.5910  137.4430 O   0  0  0  0  0  1  0  0  0  0  0  0
  190.9730  176.6700  137.0640 O   0  0  0  0  0  0  0  0  0  0  0  0
  192.2950  176.3410  137.3720 C   0  0  0  0  0  1  0  0  0  0  0  0
  183.1500  178.6050  142.0680 C   0  0  0  0  0  2  0  0  0  0  0  0
  184.7580  178.8950  140.3040 C   0  0  0  0  0  2  0  0  0  0  0  0
  185.8040  179.0400  138.1120 O   0  0  0  0  0  1  0  0  0  0  0  0
  183.6110  178.0600  138.3020 C   0  0  0  0  0  0  0  0  0  0  0  0
  183.9670  177.9110  141.0810 N   0  0  0  0  0  0  0  0  0  0  0  0
  183.4720  177.9830  137.0510 O   0  0  0  0  0  0  0  0  0  0  0  0
  184.7880  178.5890  138.8830 N   0  0  0  0  0  0  0  0  0  0  0  0
  182.5640  177.5710  139.2300 C   0  0  1  0  0  3  0  0  0  0  0  0
  183.1840  177.0070  140.3800 O   0  0  0  0  0  0  0  0  0  0  0  0
  182.0090  179.9410  139.3070 O   0  0  0  0  0  0  0  0  0  0  0  0
  181.3970  181.8140  137.9700 C   0  0  0  0  0  2  0  0  0  0  0  0
  180.1860  178.5610  138.7220 C   0  0  2  0  0  3  0  0  0  0  0  0
  180.1200  179.8050  138.0370 O   0  0  0  0  0  0  0  0  0  0  0  0
  181.1840  180.5870  138.4170 C   0  0  0  0  0  0  0  0  0  0  0  0
  181.5000  178.6360  139.5640 C   0  0  1  0  0  3  0  0  0  0  0  0
  180.1080  177.4180  137.7170 C   0  0  0  0  0  2  0  0  0  0  0  0
  179.7300  176.1900  138.4030 N   0  0  0  0  0  2  0  0  0  0  0  0
  180.8480  174.7230  136.8090 C   0  0  0  0  0  3  0  0  0  0  0  0
  180.2930  172.3640  136.6690 C   0  0  0  0  0  0  0  0  0  0  0  0
  179.1700  173.7910  138.2790 C   0  0  0  0  0  3  0  0  0  0  0  0
  179.3580  172.5340  137.6990 C   0  0  0  0  0  3  0  0  0  0  0  0
  181.0380  173.4660  136.2290 C   0  0  0  0  0  3  0  0  0  0  0  0
  179.9150  174.8920  137.8350 C   0  0  0  0  0  0  0  0  0  0  0  0
  180.4950  171.0440  136.0540 C   0  0  0  0  0  0  0  0  0  0  0  0
  181.5710  170.7750  135.4560 O   0  0  0  0  0  0  0  0  0  0  0  0
  179.5000  170.0760  136.1300 O   0  0  0  0  0  1  0  0  0  0  0  0
  1  4  1  0  0  0  0
  2  7  1  0  0  0  0
  2  6  1  0  0  0  0
  3  2  2  0  0  0  0
  4  6  2  0  0  0  0
  5  3  1  0  0  0  0
  5  1  2  0  0  0  0
  7  8  1  0  0  0  0
  9  8  1  0  0  0  0
  9 10  1  0  0  0  0
 11 10  1  0  0  0  0
 13 12  2  0  0  0  0
 13 14  1  0  0  0  0
 14 11  1  0  0  0  0
 15 16  1  0  0  0  0
 16 13  1  1  0  0  0
 17 18  1  6  0  0  0
 17 15  1  0  0  0  0
 17 16  1  0  0  0  0
 19 24  1  6  0  0  0
 19 20  1  0  0  0  0
 19 21  1  0  0  0  0
 20 21  1  0  0  0  0
 21 18  1  1  0  0  0
 21 23  1  0  0  0  0
 23 22  1  0  0  0  0
 24 28  1  6  0  0  0
 25 27  1  0  0  0  0
 25 24  1  0  0  0  0
 26 25  2  0  0  0  0
 28 29  1  0  0  0  0
 30  5  1  0  0  0  0
 31 34  1  0  0  0  0
 32 36  1  0  0  0  0
 33 36  1  0  0  0  0
 34 30  1  0  0  0  0
 35 33  2  0  0  0  0
 36 31  1  0  0  0  0
 37 33  1  6  0  0  0
 37 44  1  0  0  0  0
 37 38  1  0  0  0  0
 38 34  1  0  0  0  0
 40 43  2  0  0  0  0
 41 45  1  6  0  0  0
 41 44  1  0  0  0  0
 42 43  1  0  0  0  0
 42 41  1  0  0  0  0
 43 39  1  0  0  0  0
 44 39  1  6  0  0  0
 45 46  1  0  0  0  0
 47 52  1  0  0  0  0
 48 50  2  0  0  0  0
 50 49  1  0  0  0  0
 51 48  1  0  0  0  0
 51 47  2  0  0  0  0
 52 49  2  0  0  0  0
 52 46  1  0  0  0  0
 53 55  1  0  0  0  0
 53 48  1  0  0  0  0
 54 53  2  0  0  0  0
M  END
>  <MODEL>
1

>  <REMARK>
 VINA RESULT:      -7.7      0.000      0.000
  Name = 
  20 active torsions:
  status: ('A' for Active; 'I' for Inactive)
    1  A    between atoms: C_1  and  C_53
    2  A    between atoms: C_2  and  N_28
    3  A    between atoms: C_2  and  C_44
    4  A    between atoms: C_3  and  C_53
    5  A    between atoms: O_6  and  C_53
    6  A    between atoms: C_8  and  N_22
    7  A    between atoms: C_8  and  C_35
    8  A    between atoms: C_10  and  C_32
    9  A    between atoms: C_16  and  C_36
   10  A    between atoms: C_20  and  C_42
   11  A    between atoms: C_25  and  C_38
   12  A    between atoms: C_26  and  C_45
   13  A    between atoms: C_27  and  C_54
   14  A    between atoms: C_29  and  C_38
   15  A    between atoms: C_29  and  C_50
   16  A    between atoms: N_33  and  C_36
   17  A    between atoms: N_33  and  C_52
   18  A    between atoms: C_35  and  C_43
   19  A    between atoms: C_43  and  S_51
   20  A    between atoms: S_51  and  C_54
                            x       y       z     vdW  Elec       q    Type
                         _______ _______ _______ _____ _____    ______ ____

>  <TORSDO>
F 20

$$$$
=
 OpenBabel10262420373D

 55 60  0  0  1  0  0  0  0  0999 V2000
  185.7220  176.8140  135.5130 C   0  0  0  0  0  3  0  0  0  0  0  0
  186.7510  174.2260  135.7770 C   0  0  0  0  0  0  0  0  0  0  0  0
  185.8110  174.7030  136.6970 C   0  0  0  0  0  3  0  0  0  0  0  0
  186.6620  176.3390  134.5940 C   0  0  0  0  0  3  0  0  0  0  0  0
  185.2930  175.9940  136.5640 C   0  0  0  0  0  0  0  0  0  0  0  0
  187.1770  175.0450  134.7250 C   0  0  0  0  0  3  0  0  0  0  0  0
  187.3010  172.8480  135.9310 C   0  0  0  0  0  2  0  0  0  0  0  0
  188.7650  172.6080  134.8740 S   0  0  0  0  0  0  0  0  0  0  0  0
  189.9110  173.2810  136.1170 C   0  0  0  0  0  2  0  0  0  0  0  0
  191.3400  173.2210  135.6030 C   0  0  0  0  0  2  0  0  0  0  0  0
  192.3200  173.2530  136.7630 C   0  0  0  0  0  2  0  0  0  0  0  0
  194.0490  175.5120  136.6800 O   0  0  0  0  0  0  0  0  0  0  0  0
  193.0350  175.5810  137.4260 C   0  0  0  0  0  0  0  0  0  0  0  0
  192.1370  174.4760  137.5290 N   0  0  0  0  0  2  0  0  0  0  0  0
  193.6910  176.8320  139.3240 O   0  0  0  0  0  0  0  0  0  0  0  0
  192.7950  176.8090  138.2400 C   0  0  2  0  0  3  0  0  0  0  0  0
  192.3720  176.4420  139.6110 C   0  0  2  0  0  3  0  0  0  0  0  0
  191.6500  177.6060  140.2610 C   0  0  0  0  0  2  0  0  0  0  0  0
  189.0120  177.2860  140.0440 C   0  0  2  0  0  3  0  0  0  0  0  0
  189.3970  178.3530  141.0600 C   0  0  0  0  0  2  0  0  0  0  0  0
  190.3080  177.1660  140.8440 C   0  0  2  0  0  0  0  0  0  0  0  0
  191.1590  176.7090  143.0340 O   0  0  0  0  0  1  0  0  0  0  0  0
  190.2860  176.2400  142.0490 C   0  0  0  0  0  2  0  0  0  0  0  0
  189.2280  177.8080  138.6220 C   0  0  1  0  0  3  0  0  0  0  0  0
  189.2070  176.6830  137.6360 C   0  0  0  0  0  0  0  0  0  0  0  0
  189.7430  176.8440  136.3630 O   0  0  0  0  0  0  0  0  0  0  0  0
  188.7710  175.5550  137.9900 O   0  0  0  0  0  1  0  0  0  0  0  0
  188.2260  178.7290  138.2970 O   0  0  0  0  0  0  0  0  0  0  0  0
  188.7870  179.5370  137.3060 C   0  0  0  0  0  1  0  0  0  0  0  0
  184.3010  176.4990  137.5540 C   0  0  0  0  0  2  0  0  0  0  0  0
  182.2860  175.3970  136.8430 C   0  0  0  0  0  2  0  0  0  0  0  0
  179.9680  174.6780  136.6630 O   0  0  0  0  0  1  0  0  0  0  0  0
  180.6700  175.8920  138.6220 C   0  0  0  0  0  0  0  0  0  0  0  0
  183.3410  175.4530  137.8830 N   0  0  0  0  0  0  0  0  0  0  0  0
  179.4910  175.9890  139.0580 O   0  0  0  0  0  0  0  0  0  0  0  0
  180.9570  175.2270  137.4070 N   0  0  0  0  0  0  0  0  0  0  0  0
  181.8220  176.4400  139.3760 C   0  0  1  0  0  3  0  0  0  0  0  0
  182.9450  175.5820  139.2050 O   0  0  0  0  0  0  0  0  0  0  0  0
  181.0680  178.4700  138.2620 O   0  0  0  0  0  0  0  0  0  0  0  0
  179.5540  180.3010  138.4270 C   0  0  0  0  0  2  0  0  0  0  0  0
  182.2290  178.8730  140.2770 C   0  0  2  0  0  3  0  0  0  0  0  0
  181.1940  179.8290  140.0890 O   0  0  0  0  0  0  0  0  0  0  0  0
  180.5540  179.5750  138.9000 C   0  0  0  0  0  0  0  0  0  0  0  0
  182.1200  177.9170  139.0460 C   0  0  1  0  0  3  0  0  0  0  0  0
  182.0760  178.2140  141.6430 C   0  0  0  0  0  2  0  0  0  0  0  0
  182.5600  179.1160  142.6780 N   0  0  0  0  0  2  0  0  0  0  0  0
  184.8520  178.3240  142.9230 C   0  0  0  0  0  3  0  0  0  0  0  0
  185.9080  178.1910  145.1050 C   0  0  0  0  0  0  0  0  0  0  0  0
  183.6300  179.0000  144.8970 C   0  0  0  0  0  3  0  0  0  0  0  0
  184.7370  178.6880  145.6900 C   0  0  0  0  0  3  0  0  0  0  0  0
  185.9600  178.0120  143.7160 C   0  0  0  0  0  3  0  0  0  0  0  0
  183.6840  178.8180  143.5080 C   0  0  0  0  0  0  0  0  0  0  0  0
  187.0760  177.8600  145.9350 C   0  0  0  0  0  0  0  0  0  0  0  0
  187.1060  178.1830  147.1530 O   0  0  0  0  0  1  0  0  0  0  0  0
  188.1590  177.1840  145.3850 O   0  0  0  0  0  0  0  0  0  0  0  0
  1  5  1  0  0  0  0
  2  7  1  0  0  0  0
  2  3  1  0  0  0  0
  4  6  1  0  0  0  0
  4  1  2  0  0  0  0
  5  3  2  0  0  0  0
  5 30  1  0  0  0  0
  6  2  2  0  0  0  0
  8  7  1  0  0  0  0
  8  9  1  0  0  0  0
 10  9  1  0  0  0  0
 10 11  1  0  0  0  0
 11 14  1  0  0  0  0
 12 13  2  0  0  0  0
 13 14  1  0  0  0  0
 15 17  1  0  0  0  0
 16 13  1  6  0  0  0
 16 15  1  0  0  0  0
 16 17  1  0  0  0  0
 17 18  1  1  0  0  0
 19 24  1  6  0  0  0
 19 21  1  0  0  0  0
 19 20  1  0  0  0  0
 21 18  1  6  0  0  0
 21 20  1  0  0  0  0
 21 23  1  0  0  0  0
 23 22  1  0  0  0  0
 24 25  1  6  0  0  0
 25 27  1  0  0  0  0
 26 25  2  0  0  0  0
 28 24  1  0  0  0  0
 29 28  1  0  0  0  0
 30 34  1  0  0  0  0
 31 36  1  0  0  0  0
 31 34  1  0  0  0  0
 32 36  1  0  0  0  0
 33 35  2  0  0  0  0
 34 38  1  0  0  0  0
 36 33  1  0  0  0  0
 37 33  1  6  0  0  0
 38 37  1  0  0  0  0
 39 43  1  0  0  0  0
 40 43  2  0  0  0  0
 41 45  1  1  0  0  0
 42 41  1  0  0  0  0
 43 42  1  0  0  0  0
 44 39  1  6  0  0  0
 44 37  1  0  0  0  0
 44 41  1  0  0  0  0
 45 46  1  0  0  0  0
 46 52  1  0  0  0  0
 47 52  2  0  0  0  0
 47 51  1  0  0  0  0
 48 50  1  0  0  0  0
 48 53  1  0  0  0  0
 49 50  2  0  0  0  0
 51 48  2  0  0  0  0
 52 49  1  0  0  0  0
 53 54  1  0  0  0  0
 55 53  2  0  0  0  0
M  END
>  <MODEL>
2

>  <REMARK>
 VINA RESULT:      -6.6      3.109      7.435
  Name = 
  20 active torsions:
  status: ('A' for Active; 'I' for Inactive)
    1  A    between atoms: C_1  and  C_53
    2  A    between atoms: C_2  and  N_28
    3  A    between atoms: C_2  and  C_44
    4  A    between atoms: C_3  and  C_53
    5  A    between atoms: O_6  and  C_53
    6  A    between atoms: C_8  and  N_22
    7  A    between atoms: C_8  and  C_35
    8  A    between atoms: C_10  and  C_32
    9  A    between atoms: C_16  and  C_36
   10  A    between atoms: C_20  and  C_42
   11  A    between atoms: C_25  and  C_38
   12  A    between atoms: C_26  and  C_45
   13  A    between atoms: C_27  and  C_54
   14  A    between atoms: C_29  and  C_38
   15  A    between atoms: C_29  and  C_50
   16  A    between atoms: N_33  and  C_36
   17  A    between atoms: N_33  and  C_52
   18  A    between atoms: C_35  and  C_43
   19  A    between atoms: C_43  and  S_51
   20  A    between atoms: S_51  and  C_54
                            x       y       z     vdW  Elec       q    Type
                         _______ _______ _______ _____ _____    ______ ____

>  <TORSDO>
F 20

$$$$
=
 OpenBabel10262420373D

 55 60  0  0  1  0  0  0  0  0999 V2000
  186.2400  177.7860  136.0160 C   0  0  0  0  0  3  0  0  0  0  0  0
  187.8210  175.4960  136.3000 C   0  0  0  0  0  0  0  0  0  0  0  0
  186.7330  175.7060  137.1540 C   0  0  0  0  0  3  0  0  0  0  0  0
  187.3280  177.5790  135.1630 C   0  0  0  0  0  3  0  0  0  0  0  0
  185.9390  176.8470  137.0110 C   0  0  0  0  0  0  0  0  0  0  0  0
  188.1190  176.4340  135.3050 C   0  0  0  0  0  3  0  0  0  0  0  0
  188.6650  174.2770  136.4640 C   0  0  0  0  0  2  0  0  0  0  0  0
  189.5690  173.8970  134.9300 S   0  0  0  0  0  0  0  0  0  0  0  0
  191.0710  174.7740  135.4660 C   0  0  0  0  0  2  0  0  0  0  0  0
  192.2330  173.8020  135.5890 C   0  0  0  0  0  2  0  0  0  0  0  0
  192.6470  173.6550  137.0430 C   0  0  0  0  0  2  0  0  0  0  0  0
  194.6770  175.4710  137.8690 O   0  0  0  0  0  0  0  0  0  0  0  0
  193.4810  175.7800  138.1190 C   0  0  0  0  0  0  0  0  0  0  0  0
  192.4140  174.9050  137.7500 N   0  0  0  0  0  2  0  0  0  0  0  0
  193.8420  177.0450  140.0860 O   0  0  0  0  0  0  0  0  0  0  0  0
  193.1790  177.0480  138.8460 C   0  0  2  0  0  3  0  0  0  0  0  0
  192.4670  176.7590  140.1110 C   0  0  2  0  0  3  0  0  0  0  0  0
  191.7210  177.9930  140.5820 C   0  0  0  0  0  2  0  0  0  0  0  0
  189.6580  177.2880  142.1160 C   0  0  2  0  0  3  0  0  0  0  0  0
  190.0000  176.2390  141.0680 C   0  0  0  0  0  2  0  0  0  0  0  0
  190.2320  177.7020  140.7630 C   0  0  2  0  0  0  0  0  0  0  0  0
  189.6780  177.8600  138.4400 O   0  0  0  0  0  1  0  0  0  0  0  0
  189.2420  178.2010  139.7230 C   0  0  0  0  0  2  0  0  0  0  0  0
  190.7020  177.2780  143.2350 C   0  0  1  0  0  3  0  0  0  0  0  0
  190.5520  178.4810  144.1110 C   0  0  0  0  0  0  0  0  0  0  0  0
  190.9650  179.7340  143.6740 O   0  0  0  0  0  0  0  0  0  0  0  0
  189.9720  178.3690  145.2250 O   0  0  0  0  0  1  0  0  0  0  0  0
  190.5580  176.1210  144.0080 O   0  0  0  0  0  0  0  0  0  0  0  0
  191.8300  175.5440  144.0350 C   0  0  0  0  0  1  0  0  0  0  0  0
  184.7890  177.0670  137.9300 C   0  0  0  0  0  2  0  0  0  0  0  0
  183.2610  175.8770  136.5060 C   0  0  0  0  0  2  0  0  0  0  0  0
  181.2300  175.0170  135.4780 O   0  0  0  0  0  1  0  0  0  0  0  0
  181.0790  176.1630  137.5920 C   0  0  0  0  0  0  0  0  0  0  0  0
  183.8630  175.9440  137.8590 N   0  0  0  0  0  0  0  0  0  0  0  0
  179.8190  176.1570  137.5730 O   0  0  0  0  0  0  0  0  0  0  0  0
  181.8370  175.5870  136.5440 N   0  0  0  0  0  0  0  0  0  0  0  0
  181.8340  176.7430  138.7280 C   0  0  1  0  0  3  0  0  0  0  0  0
  183.0100  175.9720  138.9510 O   0  0  0  0  0  0  0  0  0  0  0  0
  181.2590  178.8080  137.5720 O   0  0  0  0  0  0  0  0  0  0  0  0
  179.6360  180.5460  137.4400 C   0  0  0  0  0  2  0  0  0  0  0  0
  181.8350  179.1220  139.8390 C   0  0  2  0  0  3  0  0  0  0  0  0
  180.8220  180.0370  139.4420 O   0  0  0  0  0  0  0  0  0  0  0  0
  180.5270  179.8370  138.1140 C   0  0  0  0  0  0  0  0  0  0  0  0
  182.1090  178.2520  138.5700 C   0  0  1  0  0  3  0  0  0  0  0  0
  181.3810  178.3600  141.0780 C   0  0  0  0  0  2  0  0  0  0  0  0
  181.7350  179.1140  142.2720 N   0  0  0  0  0  2  0  0  0  0  0  0
  184.1080  178.5680  142.3880 C   0  0  0  0  0  3  0  0  0  0  0  0
  185.2270  178.2780  144.5230 C   0  0  0  0  0  0  0  0  0  0  0  0
  182.8670  178.8370  144.4460 C   0  0  0  0  0  3  0  0  0  0  0  0
  184.0210  178.5570  145.1810 C   0  0  0  0  0  3  0  0  0  0  0  0
  185.2640  178.2870  143.1220 C   0  0  0  0  0  3  0  0  0  0  0  0
  182.9060  178.8430  143.0450 C   0  0  0  0  0  0  0  0  0  0  0  0
  186.4450  177.9810  145.2910 C   0  0  0  0  0  0  0  0  0  0  0  0
  186.6810  178.5810  146.3740 O   0  0  0  0  0  1  0  0  0  0  0  0
  187.3490  177.0300  144.8320 O   0  0  0  0  0  0  0  0  0  0  0  0
  1  5  1  0  0  0  0
  2  7  1  0  0  0  0
  2  3  1  0  0  0  0
  4  6  1  0  0  0  0
  4  1  2  0  0  0  0
  5  3  2  0  0  0  0
  5 30  1  0  0  0  0
  6  2  2  0  0  0  0
  8  9  1  0  0  0  0
  8  7  1  0  0  0  0
  9 10  1  0  0  0  0
 10 11  1  0  0  0  0
 11 14  1  0  0  0  0
 12 13  2  0  0  0  0
 14 13  1  0  0  0  0
 15 17  1  0  0  0  0
 16 13  1  6  0  0  0
 16 15  1  0  0  0  0
 16 17  1  0  0  0  0
 17 18  1  1  0  0  0
 18 21  1  0  0  0  0
 19 24  1  1  0  0  0
 20 19  1  0  0  0  0
 21 23  1  6  0  0  0
 21 20  1  0  0  0  0
 21 19  1  0  0  0  0
 22 23  1  0  0  0  0
 24 28  1  1  0  0  0
 24 25  1  0  0  0  0
 25 27  1  0  0  0  0
 26 25  2  0  0  0  0
 28 29  1  0  0  0  0
 31 36  1  0  0  0  0
 31 34  1  0  0  0  0
 32 36  1  0  0  0  0
 34 30  1  0  0  0  0
 34 38  1  0  0  0  0
 35 33  2  0  0  0  0
 36 33  1  0  0  0  0
 37 33  1  6  0  0  0
 37 38  1  0  0  0  0
 39 43  1  0  0  0  0
 40 43  2  0  0  0  0
 41 45  1  1  0  0  0
 42 41  1  0  0  0  0
 43 42  1  0  0  0  0
 44 39  1  6  0  0  0
 44 37  1  0  0  0  0
 44 41  1  0  0  0  0
 45 46  1  0  0  0  0
 46 52  1  0  0  0  0
 47 52  2  0  0  0  0
 47 51  1  0  0  0  0
 48 50  1  0  0  0  0
 48 53  1  0  0  0  0
 49 50  2  0  0  0  0
 51 48  2  0  0  0  0
 52 49  1  0  0  0  0
 53 54  1  0  0  0  0
 55 53  2  0  0  0  0
M  END
>  <MODEL>
3

>  <REMARK>
 VINA RESULT:      -6.4      3.120      7.391
  Name = 
  20 active torsions:
  status: ('A' for Active; 'I' for Inactive)
    1  A    between atoms: C_1  and  C_53
    2  A    between atoms: C_2  and  N_28
    3  A    between atoms: C_2  and  C_44
    4  A    between atoms: C_3  and  C_53
    5  A    between atoms: O_6  and  C_53
    6  A    between atoms: C_8  and  N_22
    7  A    between atoms: C_8  and  C_35
    8  A    between atoms: C_10  and  C_32
    9  A    between atoms: C_16  and  C_36
   10  A    between atoms: C_20  and  C_42
   11  A    between atoms: C_25  and  C_38
   12  A    between atoms: C_26  and  C_45
   13  A    between atoms: C_27  and  C_54
   14  A    between atoms: C_29  and  C_38
   15  A    between atoms: C_29  and  C_50
   16  A    between atoms: N_33  and  C_36
   17  A    between atoms: N_33  and  C_52
   18  A    between atoms: C_35  and  C_43
   19  A    between atoms: C_43  and  S_51
   20  A    between atoms: S_51  and  C_54
                            x       y       z     vdW  Elec       q    Type
                         _______ _______ _______ _____ _____    ______ ____

>  <TORSDO>
F 20

$$$$
=
 OpenBabel10262420373D

 55 60  0  0  1  0  0  0  0  0999 V2000
  183.4100  179.0160  144.7170 C   0  0  0  0  0  3  0  0  0  0  0  0
  183.1970  178.5010  141.9750 C   0  0  0  0  0  0  0  0  0  0  0  0
  184.4570  178.5920  142.5750 C   0  0  0  0  0  3  0  0  0  0  0  0
  182.1500  178.9270  144.1190 C   0  0  0  0  0  3  0  0  0  0  0  0
  184.5660  178.8450  143.9450 C   0  0  0  0  0  0  0  0  0  0  0  0
  182.0420  178.6700  142.7480 C   0  0  0  0  0  3  0  0  0  0  0  0
  183.0920  178.2350  140.5110 C   0  0  0  0  0  2  0  0  0  0  0  0
  181.3530  178.2390  139.9690 S   0  0  0  0  0  0  0  0  0  0  0  0
  181.7420  177.5150  138.3450 C   0  0  0  0  0  2  0  0  0  0  0  0
  180.7060  176.4660  137.9750 C   0  0  0  0  0  2  0  0  0  0  0  0
  181.0350  175.1420  138.6420 C   0  0  0  0  0  2  0  0  0  0  0  0
  180.8870  173.3050  136.4730 O   0  0  0  0  0  0  0  0  0  0  0  0
  182.0330  173.6280  136.8870 C   0  0  0  0  0  0  0  0  0  0  0  0
  182.1790  174.5290  137.9850 N   0  0  0  0  0  2  0  0  0  0  0  0
  184.2080  172.7680  137.2460 O   0  0  0  0  0  0  0  0  0  0  0  0
  183.2460  173.0290  136.2550 C   0  0  2  0  0  3  0  0  0  0  0  0
  184.4180  173.9100  136.4550 C   0  0  2  0  0  3  0  0  0  0  0  0
  185.4850  173.5990  135.4230 C   0  0  0  0  0  2  0  0  0  0  0  0
  187.4930  175.2550  136.0000 C   0  0  2  0  0  3  0  0  0  0  0  0
  187.8360  174.2760  134.8860 C   0  0  0  0  0  2  0  0  0  0  0  0
  186.8850  173.8540  135.9830 C   0  0  2  0  0  0  0  0  0  0  0  0
  187.9040  171.6960  136.1450 O   0  0  0  0  0  1  0  0  0  0  0  0
  187.5270  172.8170  136.8880 C   0  0  0  0  0  2  0  0  0  0  0  0
  186.5390  176.3330  135.4810 C   0  0  1  0  0  3  0  0  0  0  0  0
  185.9880  177.1420  136.6130 C   0  0  0  0  0  0  0  0  0  0  0  0
  186.8070  177.5500  137.6590 O   0  0  0  0  0  1  0  0  0  0  0  0
  184.7870  177.5230  136.5760 O   0  0  0  0  0  0  0  0  0  0  0  0
  187.2150  177.1770  134.5940 O   0  0  0  0  0  0  0  0  0  0  0  0
  188.4700  177.3780  135.1710 C   0  0  0  0  0  1  0  0  0  0  0  0
  185.9120  178.9500  144.5730 C   0  0  0  0  0  2  0  0  0  0  0  0
  186.7330  178.1670  146.6920 C   0  0  0  0  0  2  0  0  0  0  0  0
  188.1410  177.2090  148.4310 O   0  0  0  0  0  1  0  0  0  0  0  0
  188.7470  176.8870  146.1210 C   0  0  0  0  0  0  0  0  0  0  0  0
  186.1900  177.7640  145.3730 N   0  0  0  0  0  0  0  0  0  0  0  0
  189.8510  176.3590  146.4230 O   0  0  0  0  0  0  0  0  0  0  0  0
  187.8440  177.3300  147.1160 N   0  0  0  0  0  0  0  0  0  0  0  0
  188.3220  177.0420  144.7100 C   0  0  1  0  0  3  0  0  0  0  0  0
  186.9140  176.8530  144.6210 O   0  0  0  0  0  0  0  0  0  0  0  0
  189.8820  178.9090  144.8220 O   0  0  0  0  0  0  0  0  0  0  0  0
  192.1410  179.5500  144.4210 C   0  0  0  0  0  2  0  0  0  0  0  0
  189.3800  178.2280  142.6190 C   0  0  2  0  0  3  0  0  0  0  0  0
  190.7290  178.6650  142.7200 O   0  0  0  0  0  0  0  0  0  0  0  0
  190.9790  179.0700  144.0080 C   0  0  0  0  0  0  0  0  0  0  0  0
  188.8080  178.3570  144.0680 C   0  0  1  0  0  3  0  0  0  0  0  0
  189.3370  176.8300  142.0130 C   0  0  0  0  0  2  0  0  0  0  0  0
  189.1650  176.9280  140.5710 N   0  0  0  0  0  2  0  0  0  0  0  0
  191.5300  177.0560  139.9930 C   0  0  0  0  0  3  0  0  0  0  0  0
  192.3410  176.2810  137.8400 C   0  0  0  0  0  0  0  0  0  0  0  0
  189.9820  176.1240  138.3860 C   0  0  0  0  0  3  0  0  0  0  0  0
  191.0330  175.9180  137.4900 C   0  0  0  0  0  3  0  0  0  0  0  0
  192.5830  176.8500  139.0980 C   0  0  0  0  0  3  0  0  0  0  0  0
  190.2270  176.6950  139.6430 C   0  0  0  0  0  0  0  0  0  0  0  0
  193.4510  176.0680  136.9000 C   0  0  0  0  0  0  0  0  0  0  0  0
  194.6260  175.9050  137.3260 O   0  0  0  0  0  1  0  0  0  0  0  0
  193.2160  176.0400  135.5310 O   0  0  0  0  0  0  0  0  0  0  0  0
  2  3  2  0  0  0  0
  2  6  1  0  0  0  0
  3  5  1  0  0  0  0
  4  1  1  0  0  0  0
  5 30  1  0  0  0  0
  5  1  2  0  0  0  0
  6  4  2  0  0  0  0
  7  2  1  0  0  0  0
  8  7  1  0  0  0  0
  9  8  1  0  0  0  0
 10  9  1  0  0  0  0
 10 11  1  0  0  0  0
 12 13  2  0  0  0  0
 13 14  1  0  0  0  0
 14 11  1  0  0  0  0
 16 17  1  0  0  0  0
 16 13  1  1  0  0  0
 16 15  1  0  0  0  0
 17 18  1  6  0  0  0
 17 15  1  0  0  0  0
 19 24  1  6  0  0  0
 20 21  1  0  0  0  0
 20 19  1  0  0  0  0
 21 18  1  6  0  0  0
 21 19  1  0  0  0  0
 21 23  1  0  0  0  0
 22 23  1  0  0  0  0
 24 28  1  6  0  0  0
 24 25  1  0  0  0  0
 25 26  1  0  0  0  0
 27 25  2  0  0  0  0
 28 29  1  0  0  0  0
 30 34  1  0  0  0  0
 31 36  1  0  0  0  0
 33 35  2  0  0  0  0
 33 36  1  0  0  0  0
 34 31  1  0  0  0  0
 36 32  1  0  0  0  0
 37 38  1  1  0  0  0
 37 33  1  0  0  0  0
 38 34  1  0  0  0  0
 41 45  1  1  0  0  0
 41 42  1  0  0  0  0
 41 44  1  0  0  0  0
 42 43  1  0  0  0  0
 43 40  2  0  0  0  0
 43 39  1  0  0  0  0
 44 37  1  0  0  0  0
 44 39  1  1  0  0  0
 46 45  1  0  0  0  0
 48 51  1  0  0  0  0
 49 52  2  0  0  0  0
 50 48  2  0  0  0  0
 50 49  1  0  0  0  0
 51 47  2  0  0  0  0
 52 47  1  0  0  0  0
 52 46  1  0  0  0  0
 53 54  1  0  0  0  0
 53 48  1  0  0  0  0
 55 53  2  0  0  0  0
M  END
>  <MODEL>
4

>  <REMARK>
 VINA RESULT:      -6.3      2.906      9.309
  Name = 
  20 active torsions:
  status: ('A' for Active; 'I' for Inactive)
    1  A    between atoms: C_1  and  C_53
    2  A    between atoms: C_2  and  N_28
    3  A    between atoms: C_2  and  C_44
    4  A    between atoms: C_3  and  C_53
    5  A    between atoms: O_6  and  C_53
    6  A    between atoms: C_8  and  N_22
    7  A    between atoms: C_8  and  C_35
    8  A    between atoms: C_10  and  C_32
    9  A    between atoms: C_16  and  C_36
   10  A    between atoms: C_20  and  C_42
   11  A    between atoms: C_25  and  C_38
   12  A    between atoms: C_26  and  C_45
   13  A    between atoms: C_27  and  C_54
   14  A    between atoms: C_29  and  C_38
   15  A    between atoms: C_29  and  C_50
   16  A    between atoms: N_33  and  C_36
   17  A    between atoms: N_33  and  C_52
   18  A    between atoms: C_35  and  C_43
   19  A    between atoms: C_43  and  S_51
   20  A    between atoms: S_51  and  C_54
                            x       y       z     vdW  Elec       q    Type
                         _______ _______ _______ _____ _____    ______ ____

>  <TORSDO>
F 20

$$$$
=
 OpenBabel10262420373D

 55 60  0  0  1  0  0  0  0  0999 V2000
  188.6970  177.0470  142.2780 C   0  0  0  0  0  3  0  0  0  0  0  0
  186.3440  178.5610  142.3230 C   0  0  0  0  0  0  0  0  0  0  0  0
  187.2930  178.7710  141.3170 C   0  0  0  0  0  3  0  0  0  0  0  0
  187.7500  176.8360  143.2850 C   0  0  0  0  0  3  0  0  0  0  0  0
  188.4670  178.0130  141.2900 C   0  0  0  0  0  0  0  0  0  0  0  0
  186.5740  177.5930  143.3080 C   0  0  0  0  0  3  0  0  0  0  0  0
  185.0970  179.3780  142.3460 C   0  0  0  0  0  2  0  0  0  0  0  0
  183.6520  178.3780  141.8680 S   0  0  0  0  0  0  0  0  0  0  0  0
  182.7980  178.6560  143.4510 C   0  0  0  0  0  2  0  0  0  0  0  0
  183.6720  179.4810  144.3830 C   0  0  0  0  0  2  0  0  0  0  0  0
  183.5110  179.0040  145.8160 C   0  0  0  0  0  2  0  0  0  0  0  0
  185.8520  179.6550  147.2980 O   0  0  0  0  0  0  0  0  0  0  0  0
  185.7180  178.4610  146.9130 C   0  0  0  0  0  0  0  0  0  0  0  0
  184.5770  178.0720  146.1480 N   0  0  0  0  0  2  0  0  0  0  0  0
  187.6730  177.9990  148.1630 O   0  0  0  0  0  0  0  0  0  0  0  0
  186.7810  177.4590  147.2200 C   0  0  2  0  0  3  0  0  0  0  0  0
  188.1090  177.9800  146.8270 C   0  0  2  0  0  3  0  0  0  0  0  0
  189.0850  176.8340  146.6490 C   0  0  0  0  0  2  0  0  0  0  0  0
  191.6700  177.2300  146.1280 C   0  0  2  0  0  3  0  0  0  0  0  0
  191.4280  176.0480  147.0550 C   0  0  0  0  0  2  0  0  0  0  0  0
  190.4910  177.2330  147.0980 C   0  0  2  0  0  0  0  0  0  0  0  0
  191.7680  177.5320  149.1000 O   0  0  0  0  0  1  0  0  0  0  0  0
  190.6670  178.0160  148.3890 C   0  0  0  0  0  2  0  0  0  0  0  0
  191.2710  176.8690  144.6950 C   0  0  1  0  0  3  0  0  0  0  0  0
  191.5410  178.0100  143.7660 C   0  0  0  0  0  0  0  0  0  0  0  0
  191.0760  179.2880  144.0560 O   0  0  0  0  0  1  0  0  0  0  0  0
  192.2640  177.8250  142.7500 O   0  0  0  0  0  0  0  0  0  0  0  0
  191.9880  175.7460  144.2710 O   0  0  0  0  0  0  0  0  0  0  0  0
  191.0660  174.9770  143.5570 C   0  0  0  0  0  1  0  0  0  0  0  0
  189.4770  178.2510  140.2220 C   0  0  0  0  0  2  0  0  0  0  0  0
  191.6890  177.6760  139.4770 C   0  0  0  0  0  2  0  0  0  0  0  0
  193.5510  176.6460  138.2950 O   0  0  0  0  0  1  0  0  0  0  0  0
  191.3620  175.6530  138.1270 C   0  0  0  0  0  0  0  0  0  0  0  0
  190.5240  177.2390  140.2830 N   0  0  0  0  0  0  0  0  0  0  0  0
  191.7380  174.8280  137.2510 O   0  0  0  0  0  0  0  0  0  0  0  0
  192.2570  176.5940  138.6890 N   0  0  0  0  0  0  0  0  0  0  0  0
  189.9710  175.6590  138.6380 C   0  0  1  0  0  3  0  0  0  0  0  0
  189.9830  175.9900  140.0220 O   0  0  0  0  0  0  0  0  0  0  0  0
  189.7620  177.4020  136.9510 O   0  0  0  0  0  0  0  0  0  0  0  0
  189.9060  177.8390  134.6140 C   0  0  0  0  0  2  0  0  0  0  0  0
  188.0660  175.7650  136.8340 C   0  0  2  0  0  3  0  0  0  0  0  0
  188.4110  176.2310  135.5360 O   0  0  0  0  0  0  0  0  0  0  0  0
  189.3850  177.1940  135.6450 C   0  0  0  0  0  0  0  0  0  0  0  0
  189.0180  176.5380  137.8030 C   0  0  1  0  0  3  0  0  0  0  0  0
  188.1690  174.2450  136.8780 C   0  0  0  0  0  2  0  0  0  0  0  0
  187.2720  173.6660  135.8870 N   0  0  0  0  0  2  0  0  0  0  0  0
  185.4510  172.6670  137.1630 C   0  0  0  0  0  3  0  0  0  0  0  0
  183.1320  173.0850  136.5800 C   0  0  0  0  0  0  0  0  0  0  0  0
  184.9190  174.1090  135.2970 C   0  0  0  0  0  3  0  0  0  0  0  0
  183.5560  173.9090  135.5300 C   0  0  0  0  0  3  0  0  0  0  0  0
  184.0890  172.4660  137.3970 C   0  0  0  0  0  3  0  0  0  0  0  0
  185.8730  173.4870  136.1140 C   0  0  0  0  0  0  0  0  0  0  0  0
  181.6990  172.8700  136.8290 C   0  0  0  0  0  0  0  0  0  0  0  0
  180.9000  173.8440  136.8450 O   0  0  0  0  0  0  0  0  0  0  0  0
  181.2100  171.5870  137.0470 O   0  0  0  0  0  1  0  0  0  0  0  0
  1  4  1  0  0  0  0
  2  7  1  0  0  0  0
  2  6  1  0  0  0  0
  3  2  2  0  0  0  0
  4  6  2  0  0  0  0
  5  3  1  0  0  0  0
  5  1  2  0  0  0  0
  8  7  1  0  0  0  0
  8  9  1  0  0  0  0
  9 10  1  0  0  0  0
 10 11  1  0  0  0  0
 11 14  1  0  0  0  0
 13 12  2  0  0  0  0
 14 13  1  0  0  0  0
 16 13  1  6  0  0  0
 16 15  1  0  0  0  0
 17 18  1  1  0  0  0
 17 16  1  0  0  0  0
 17 15  1  0  0  0  0
 19 24  1  6  0  0  0
 19 20  1  0  0  0  0
 19 21  1  0  0  0  0
 20 21  1  0  0  0  0
 21 18  1  6  0  0  0
 21 23  1  0  0  0  0
 23 22  1  0  0  0  0
 24 25  1  6  0  0  0
 25 26  1  0  0  0  0
 27 25  2  0  0  0  0
 28 24  1  0  0  0  0
 29 28  1  0  0  0  0
 30 34  1  0  0  0  0
 30  5  1  0  0  0  0
 31 34  1  0  0  0  0
 32 36  1  0  0  0  0
 33 36  1  0  0  0  0
 35 33  2  0  0  0  0
 36 31  1  0  0  0  0
 37 33  1  6  0  0  0
 37 38  1  0  0  0  0
 38 34  1  0  0  0  0
 40 43  2  0  0  0  0
 41 45  1  6  0  0  0
 41 44  1  0  0  0  0
 42 43  1  0  0  0  0
 42 41  1  0  0  0  0
 43 39  1  0  0  0  0
 44 39  1  6  0  0  0
 44 37  1  0  0  0  0
 46 52  1  0  0  0  0
 46 45  1  0  0  0  0
 47 51  1  0  0  0  0
 48 53  1  0  0  0  0
 48 51  2  0  0  0  0
 49 50  2  0  0  0  0
 49 52  1  0  0  0  0
 50 48  1  0  0  0  0
 52 47  2  0  0  0  0
 53 54  2  0  0  0  0
 53 55  1  0  0  0  0
M  END
>  <MODEL>
5

>  <REMARK>
 VINA RESULT:      -6.1      3.410      6.983
  Name = 
  20 active torsions:
  status: ('A' for Active; 'I' for Inactive)
    1  A    between atoms: C_1  and  C_53
    2  A    between atoms: C_2  and  N_28
    3  A    between atoms: C_2  and  C_44
    4  A    between atoms: C_3  and  C_53
    5  A    between atoms: O_6  and  C_53
    6  A    between atoms: C_8  and  N_22
    7  A    between atoms: C_8  and  C_35
    8  A    between atoms: C_10  and  C_32
    9  A    between atoms: C_16  and  C_36
   10  A    between atoms: C_20  and  C_42
   11  A    between atoms: C_25  and  C_38
   12  A    between atoms: C_26  and  C_45
   13  A    between atoms: C_27  and  C_54
   14  A    between atoms: C_29  and  C_38
   15  A    between atoms: C_29  and  C_50
   16  A    between atoms: N_33  and  C_36
   17  A    between atoms: N_33  and  C_52
   18  A    between atoms: C_35  and  C_43
   19  A    between atoms: C_43  and  S_51
   20  A    between atoms: S_51  and  C_54
                            x       y       z     vdW  Elec       q    Type
                         _______ _______ _______ _____ _____    ______ ____

>  <TORSDO>
F 20

$$$$
=
 OpenBabel10262420373D

 55 60  0  0  1  0  0  0  0  0999 V2000
  185.2560  177.9380  144.3810 C   0  0  0  0  0  3  0  0  0  0  0  0
  188.0350  178.0790  144.0920 C   0  0  0  0  0  0  0  0  0  0  0  0
  187.2160  178.0030  142.9610 C   0  0  0  0  0  3  0  0  0  0  0  0
  186.0720  178.0120  145.5130 C   0  0  0  0  0  3  0  0  0  0  0  0
  185.8280  177.9370  143.1020 C   0  0  0  0  0  0  0  0  0  0  0  0
  187.4620  178.0820  145.3700 C   0  0  0  0  0  3  0  0  0  0  0  0
  189.5160  178.1450  143.9310 C   0  0  0  0  0  2  0  0  0  0  0  0
  190.3210  176.6980  144.6890 S   0  0  0  0  0  0  0  0  0  0  0  0
  190.4280  175.7930  143.1140 C   0  0  0  0  0  2  0  0  0  0  0  0
  190.8960  176.7210  142.0040 C   0  0  0  0  0  2  0  0  0  0  0  0
  189.8680  176.7690  140.8870 C   0  0  0  0  0  2  0  0  0  0  0  0
  189.5640  178.1020  138.3910 O   0  0  0  0  0  0  0  0  0  0  0  0
  190.3000  177.0780  138.4200 C   0  0  0  0  0  0  0  0  0  0  0  0
  190.4790  176.3510  139.6360 N   0  0  0  0  0  2  0  0  0  0  0  0
  190.5450  175.2760  136.9070 O   0  0  0  0  0  0  0  0  0  0  0  0
  190.9520  176.5970  137.1670 C   0  0  2  0  0  3  0  0  0  0  0  0
  191.8290  175.4410  137.4540 C   0  0  2  0  0  3  0  0  0  0  0  0
  192.8550  175.2780  136.3490 C   0  0  0  0  0  2  0  0  0  0  0  0
  194.5620  173.2400  136.5430 C   0  0  2  0  0  3  0  0  0  0  0  0
  194.3010  173.6560  135.1030 C   0  0  0  0  0  2  0  0  0  0  0  0
  193.2040  173.8060  136.1330 C   0  0  2  0  0  0  0  0  0  0  0  0
  191.5620  172.9730  134.6050 O   0  0  0  0  0  1  0  0  0  0  0  0
  192.0890  172.8030  135.8870 C   0  0  0  0  0  2  0  0  0  0  0  0
  195.4590  174.2670  137.2360 C   0  0  1  0  0  3  0  0  0  0  0  0
  195.5850  173.9620  138.6960 C   0  0  0  0  0  0  0  0  0  0  0  0
  196.0290  174.9310  139.5880 O   0  0  0  0  0  1  0  0  0  0  0  0
  195.2100  172.8400  139.1300 O   0  0  0  0  0  0  0  0  0  0  0  0
  196.7290  174.2620  136.6500 O   0  0  0  0  0  0  0  0  0  0  0  0
  196.7400  175.3720  135.8020 C   0  0  0  0  0  1  0  0  0  0  0  0
  184.9640  177.8460  141.8930 C   0  0  0  0  0  2  0  0  0  0  0  0
  182.8800  178.7290  142.7040 C   0  0  0  0  0  2  0  0  0  0  0  0
  180.5600  179.4470  142.8550 O   0  0  0  0  0  1  0  0  0  0  0  0
  181.4930  178.9430  140.6910 C   0  0  0  0  0  0  0  0  0  0  0  0
  184.0540  178.9830  141.8360 N   0  0  0  0  0  0  0  0  0  0  0  0
  180.3760  179.0540  140.1170 O   0  0  0  0  0  0  0  0  0  0  0  0
  181.6300  179.1400  142.0860 N   0  0  0  0  0  0  0  0  0  0  0  0
  182.7270  178.6340  139.9310 C   0  0  1  0  0  3  0  0  0  0  0  0
  183.8230  179.3300  140.5140 O   0  0  0  0  0  0  0  0  0  0  0  0
  181.8470  176.3800  140.2120 O   0  0  0  0  0  0  0  0  0  0  0  0
  180.3440  174.7790  139.2920 C   0  0  0  0  0  2  0  0  0  0  0  0
  183.2050  176.6330  138.2980 C   0  0  2  0  0  3  0  0  0  0  0  0
  182.1490  175.7150  138.0520 O   0  0  0  0  0  0  0  0  0  0  0  0
  181.3930  175.5790  139.1910 C   0  0  0  0  0  0  0  0  0  0  0  0
  182.9780  177.1210  139.7660 C   0  0  1  0  0  3  0  0  0  0  0  0
  183.1980  177.7210  137.2310 C   0  0  0  0  0  2  0  0  0  0  0  0
  184.1920  177.4120  136.2120 N   0  0  0  0  0  2  0  0  0  0  0  0
  186.2040  176.2710  136.9820 C   0  0  0  0  0  3  0  0  0  0  0  0
  186.6700  173.9760  136.3410 C   0  0  0  0  0  0  0  0  0  0  0  0
  184.6490  175.0750  135.5680 C   0  0  0  0  0  3  0  0  0  0  0  0
  185.4730  173.9490  135.6130 C   0  0  0  0  0  3  0  0  0  0  0  0
  187.0290  175.1450  137.0280 C   0  0  0  0  0  3  0  0  0  0  0  0
  185.0120  176.2430  136.2540 C   0  0  0  0  0  0  0  0  0  0  0  0
  187.5420  172.7940  136.3910 C   0  0  0  0  0  0  0  0  0  0  0  0
  188.0470  172.3280  135.3340 O   0  0  0  0  0  0  0  0  0  0  0  0
  187.8210  172.1790  137.6060 O   0  0  0  0  0  1  0  0  0  0  0  0
  1  4  1  0  0  0  0
  2  6  1  0  0  0  0
  3  5  1  0  0  0  0
  3  2  2  0  0  0  0
  5  1  2  0  0  0  0
  6  4  2  0  0  0  0
  7  2  1  0  0  0  0
  7  8  1  0  0  0  0
  9  8  1  0  0  0  0
 10  9  1  0  0  0  0
 11 10  1  0  0  0  0
 12 13  2  0  0  0  0
 13 14  1  0  0  0  0
 14 11  1  0  0  0  0
 15 16  1  0  0  0  0
 15 17  1  0  0  0  0
 16 17  1  0  0  0  0
 16 13  1  1  0  0  0
 17 18  1  6  0  0  0
 19 24  1  1  0  0  0
 20 21  1  0  0  0  0
 20 19  1  0  0  0  0
 21 23  1  6  0  0  0
 21 18  1  0  0  0  0
 21 19  1  0  0  0  0
 22 23  1  0  0  0  0
 24 28  1  6  0  0  0
 24 25  1  0  0  0  0
 25 27  2  0  0  0  0
 25 26  1  0  0  0  0
 29 28  1  0  0  0  0
 30  5  1  0  0  0  0
 33 36  1  0  0  0  0
 34 30  1  0  0  0  0
 34 31  1  0  0  0  0
 35 33  2  0  0  0  0
 36 31  1  0  0  0  0
 36 32  1  0  0  0  0
 37 38  1  1  0  0  0
 37 33  1  0  0  0  0
 38 34  1  0  0  0  0
 41 45  1  6  0  0  0
 41 44  1  0  0  0  0
 42 41  1  0  0  0  0
 42 43  1  0  0  0  0
 43 40  2  0  0  0  0
 43 39  1  0  0  0  0
 44 37  1  0  0  0  0
 44 39  1  6  0  0  0
 46 52  1  0  0  0  0
 46 45  1  0  0  0  0
 47 51  1  0  0  0  0
 48 53  1  0  0  0  0
 48 51  2  0  0  0  0
 49 50  2  0  0  0  0
 49 52  1  0  0  0  0
 50 48  1  0  0  0  0
 52 47  2  0  0  0  0
 53 55  1  0  0  0  0
 54 53  2  0  0  0  0
M  END
>  <MODEL>
6

>  <REMARK>
 VINA RESULT:      -5.9      2.906      5.355
  Name = 
  20 active torsions:
  status: ('A' for Active; 'I' for Inactive)
    1  A    between atoms: C_1  and  C_53
    2  A    between atoms: C_2  and  N_28
    3  A    between atoms: C_2  and  C_44
    4  A    between atoms: C_3  and  C_53
    5  A    between atoms: O_6  and  C_53
    6  A    between atoms: C_8  and  N_22
    7  A    between atoms: C_8  and  C_35
    8  A    between atoms: C_10  and  C_32
    9  A    between atoms: C_16  and  C_36
   10  A    between atoms: C_20  and  C_42
   11  A    between atoms: C_25  and  C_38
   12  A    between atoms: C_26  and  C_45
   13  A    between atoms: C_27  and  C_54
   14  A    between atoms: C_29  and  C_38
   15  A    between atoms: C_29  and  C_50
   16  A    between atoms: N_33  and  C_36
   17  A    between atoms: N_33  and  C_52
   18  A    between atoms: C_35  and  C_43
   19  A    between atoms: C_43  and  S_51
   20  A    between atoms: S_51  and  C_54
                            x       y       z     vdW  Elec       q    Type
                         _______ _______ _______ _____ _____    ______ ____

>  <TORSDO>
F 20

$$$$
=
 OpenBabel10262420373D

 55 60  0  0  1  0  0  0  0  0999 V2000
  185.0910  178.9190  139.4920 C   0  0  0  0  0  3  0  0  0  0  0  0
  185.1190  178.6670  142.2780 C   0  0  0  0  0  0  0  0  0  0  0  0
  186.2020  178.2070  141.5220 C   0  0  0  0  0  3  0  0  0  0  0  0
  184.0070  179.3780  140.2450 C   0  0  0  0  0  3  0  0  0  0  0  0
  186.1920  178.3360  140.1310 C   0  0  0  0  0  0  0  0  0  0  0  0
  184.0200  179.2520  141.6380 C   0  0  0  0  0  3  0  0  0  0  0  0
  185.1380  178.5210  143.7620 C   0  0  0  0  0  2  0  0  0  0  0  0
  183.7220  179.3790  144.5210 S   0  0  0  0  0  0  0  0  0  0  0  0
  182.4970  178.2880  143.7340 C   0  0  0  0  0  2  0  0  0  0  0  0
  181.0900  178.8060  143.9880 C   0  0  0  0  0  2  0  0  0  0  0  0
  180.6450  179.7050  142.8480 C   0  0  0  0  0  2  0  0  0  0  0  0
  179.0320  177.3670  142.6800 O   0  0  0  0  0  0  0  0  0  0  0  0
  179.6030  177.7580  141.6260 C   0  0  0  0  0  0  0  0  0  0  0  0
  180.4430  178.9120  141.6450 N   0  0  0  0  0  2  0  0  0  0  0  0
  179.4400  175.6070  140.6520 O   0  0  0  0  0  0  0  0  0  0  0  0
  179.4370  176.9840  140.3610 C   0  0  2  0  0  3  0  0  0  0  0  0
  180.6260  176.1360  140.1170 C   0  0  2  0  0  3  0  0  0  0  0  0
  180.7060  175.7640  138.6490 C   0  0  0  0  0  2  0  0  0  0  0  0
  182.9220  175.5420  137.1820 C   0  0  2  0  0  3  0  0  0  0  0  0
  183.2080  175.8850  138.6370 C   0  0  0  0  0  2  0  0  0  0  0  0
  181.9380  176.3860  137.9890 C   0  0  2  0  0  0  0  0  0  0  0  0
  180.9000  178.3110  137.0180 O   0  0  0  0  0  1  0  0  0  0  0  0
  181.9930  177.8900  137.7800 C   0  0  0  0  0  2  0  0  0  0  0  0
  182.4990  174.0770  137.0580 C   0  0  1  0  0  3  0  0  0  0  0  0
  181.5760  173.8880  135.8950 C   0  0  0  0  0  0  0  0  0  0  0  0
  182.0260  174.0780  134.5940 O   0  0  0  0  0  0  0  0  0  0  0  0
  180.4020  173.4770  136.0950 O   0  0  0  0  0  1  0  0  0  0  0  0
  183.6280  173.2690  136.8900 O   0  0  0  0  0  0  0  0  0  0  0  0
  183.1950  171.9760  137.1920 C   0  0  0  0  0  1  0  0  0  0  0  0
  187.3450  177.8340  139.3330 C   0  0  0  0  0  2  0  0  0  0  0  0
  186.7520  178.1940  137.0310 C   0  0  0  0  0  2  0  0  0  0  0  0
  186.8160  178.2870  134.6000 O   0  0  0  0  0  1  0  0  0  0  0  0
  188.8610  177.8940  135.8130 C   0  0  0  0  0  0  0  0  0  0  0  0
  187.5630  178.6860  138.1700 N   0  0  0  0  0  0  0  0  0  0  0  0
  189.5130  177.6670  134.7580 O   0  0  0  0  0  0  0  0  0  0  0  0
  187.4840  178.2190  135.7750 N   0  0  0  0  0  0  0  0  0  0  0  0
  189.5090  177.8670  137.1450 C   0  0  1  0  0  3  0  0  0  0  0  0
  188.9230  178.8660  137.9720 O   0  0  0  0  0  0  0  0  0  0  0  0
  190.1220  175.5220  136.9080 O   0  0  0  0  0  0  0  0  0  0  0  0
  191.9520  174.0000  136.9750 C   0  0  0  0  0  2  0  0  0  0  0  0
  190.3450  176.3390  139.1110 C   0  0  2  0  0  3  0  0  0  0  0  0
  191.3550  175.3820  138.8200 O   0  0  0  0  0  0  0  0  0  0  0  0
  191.1830  174.9160  137.5390 C   0  0  0  0  0  0  0  0  0  0  0  0
  189.5210  176.4650  137.7890 C   0  0  1  0  0  3  0  0  0  0  0  0
  190.9860  177.6250  139.6160 C   0  0  0  0  0  2  0  0  0  0  0  0
  191.6990  177.3610  140.8580 N   0  0  0  0  0  2  0  0  0  0  0  0
  191.6900  176.7500  143.2180 C   0  0  0  0  0  3  0  0  0  0  0  0
  189.8410  177.3630  144.6670 C   0  0  0  0  0  0  0  0  0  0  0  0
  189.8230  178.0020  142.3260 C   0  0  0  0  0  3  0  0  0  0  0  0
  189.2160  177.9950  143.5840 C   0  0  0  0  0  3  0  0  0  0  0  0
  191.0830  176.7420  144.4770 C   0  0  0  0  0  3  0  0  0  0  0  0
  191.0650  177.3780  142.1390 C   0  0  0  0  0  0  0  0  0  0  0  0
  189.2060  177.3520  145.9930 C   0  0  0  0  0  0  0  0  0  0  0  0
  187.9600  177.5060  146.1070 O   0  0  0  0  0  0  0  0  0  0  0  0
  189.9740  177.1670  147.1370 O   0  0  0  0  0  1  0  0  0  0  0  0
  1  5  2  0  0  0  0
  1  4  1  0  0  0  0
  2  7  1  0  0  0  0
  3  2  2  0  0  0  0
  4  6  2  0  0  0  0
  5  3  1  0  0  0  0
  6  2  1  0  0  0  0
  7  8  1  0  0  0  0
  9 10  1  0  0  0  0
  9  8  1  0  0  0  0
 11 10  1  0  0  0  0
 13 14  1  0  0  0  0
 13 12  2  0  0  0  0
 14 11  1  0  0  0  0
 16 15  1  0  0  0  0
 16 13  1  1  0  0  0
 17 18  1  6  0  0  0
 17 16  1  0  0  0  0
 17 15  1  0  0  0  0
 19 24  1  1  0  0  0
 19 21  1  0  0  0  0
 19 20  1  0  0  0  0
 21 23  1  6  0  0  0
 21 20  1  0  0  0  0
 21 18  1  0  0  0  0
 22 23  1  0  0  0  0
 24 25  1  6  0  0  0
 25 27  1  0  0  0  0
 26 25  2  0  0  0  0
 28 24  1  0  0  0  0
 28 29  1  0  0  0  0
 30  5  1  0  0  0  0
 31 34  1  0  0  0  0
 32 36  1  0  0  0  0
 34 30  1  0  0  0  0
 35 33  2  0  0  0  0
 36 33  1  0  0  0  0
 36 31  1  0  0  0  0
 37 33  1  6  0  0  0
 37 44  1  0  0  0  0
 37 38  1  0  0  0  0
 38 34  1  0  0  0  0
 39 43  1  0  0  0  0
 40 43  2  0  0  0  0
 41 45  1  6  0  0  0
 42 41  1  0  0  0  0
 43 42  1  0  0  0  0
 44 39  1  6  0  0  0
 44 41  1  0  0  0  0
 45 46  1  0  0  0  0
 46 52  1  0  0  0  0
 47 51  1  0  0  0  0
 48 53  1  0  0  0  0
 49 50  2  0  0  0  0
 50 48  1  0  0  0  0
 51 48  2  0  0  0  0
 52 49  1  0  0  0  0
 52 47  2  0  0  0  0
 53 54  2  0  0  0  0
 53 55  1  0  0  0  0
M  END
>  <MODEL>
7

>  <REMARK>
 VINA RESULT:      -5.9      2.534      9.580
  Name = 
  20 active torsions:
  status: ('A' for Active; 'I' for Inactive)
    1  A    between atoms: C_1  and  C_53
    2  A    between atoms: C_2  and  N_28
    3  A    between atoms: C_2  and  C_44
    4  A    between atoms: C_3  and  C_53
    5  A    between atoms: O_6  and  C_53
    6  A    between atoms: C_8  and  N_22
    7  A    between atoms: C_8  and  C_35
    8  A    between atoms: C_10  and  C_32
    9  A    between atoms: C_16  and  C_36
   10  A    between atoms: C_20  and  C_42
   11  A    between atoms: C_25  and  C_38
   12  A    between atoms: C_26  and  C_45
   13  A    between atoms: C_27  and  C_54
   14  A    between atoms: C_29  and  C_38
   15  A    between atoms: C_29  and  C_50
   16  A    between atoms: N_33  and  C_36
   17  A    between atoms: N_33  and  C_52
   18  A    between atoms: C_35  and  C_43
   19  A    between atoms: C_43  and  S_51
   20  A    between atoms: S_51  and  C_54
                            x       y       z     vdW  Elec       q    Type
                         _______ _______ _______ _____ _____    ______ ____

>  <TORSDO>
F 20

$$$$
=
 OpenBabel10262420373D

 55 60  0  0  1  0  0  0  0  0999 V2000
  184.5960  178.5960  144.9600 C   0  0  0  0  0  3  0  0  0  0  0  0
  187.3380  178.0720  144.7670 C   0  0  0  0  0  0  0  0  0  0  0  0
  186.5090  177.8810  143.6570 C   0  0  0  0  0  3  0  0  0  0  0  0
  185.4230  178.7860  146.0710 C   0  0  0  0  0  3  0  0  0  0  0  0
  185.1400  178.1470  143.7500 C   0  0  0  0  0  0  0  0  0  0  0  0
  186.7940  178.5230  145.9760 C   0  0  0  0  0  3  0  0  0  0  0  0
  188.7970  177.7810  144.6590 C   0  0  0  0  0  2  0  0  0  0  0  0
  189.0980  176.3340  143.5950 S   0  0  0  0  0  0  0  0  0  0  0  0
  189.3790  177.3460  142.1090 C   0  0  0  0  0  2  0  0  0  0  0  0
  190.1660  176.5570  141.0760 C   0  0  0  0  0  2  0  0  0  0  0  0
  191.1990  177.4470  140.4060 C   0  0  0  0  0  2  0  0  0  0  0  0
  193.9310  177.2650  139.6300 O   0  0  0  0  0  0  0  0  0  0  0  0
  193.0720  176.7400  138.8700 C   0  0  0  0  0  0  0  0  0  0  0  0
  191.6820  176.8120  139.1900 N   0  0  0  0  0  2  0  0  0  0  0  0
  192.8380  174.8470  137.4690 O   0  0  0  0  0  0  0  0  0  0  0  0
  193.5070  176.0770  137.6050 C   0  0  2  0  0  3  0  0  0  0  0  0
  194.1740  174.7900  137.9020 C   0  0  2  0  0  3  0  0  0  0  0  0
  195.0480  174.3760  136.7330 C   0  0  0  0  0  2  0  0  0  0  0  0
  197.2700  173.0480  137.3710 C   0  0  2  0  0  3  0  0  0  0  0  0
  196.7970  172.7610  135.9530 C   0  0  0  0  0  2  0  0  0  0  0  0
  195.7810  173.0680  137.0300 C   0  0  2  0  0  0  0  0  0  0  0  0
  193.8380  171.7430  136.5870 O   0  0  0  0  0  1  0  0  0  0  0  0
  194.9800  171.8270  137.3880 C   0  0  0  0  0  2  0  0  0  0  0  0
  197.8890  174.4450  137.4490 C   0  0  1  0  0  3  0  0  0  0  0  0
  197.9500  174.9190  138.8670 C   0  0  0  0  0  0  0  0  0  0  0  0
  198.9390  175.8050  139.2780 O   0  0  0  0  0  0  0  0  0  0  0  0
  197.0480  174.5730  139.6760 O   0  0  0  0  0  1  0  0  0  0  0  0
  199.1800  174.4230  136.9120 O   0  0  0  0  0  0  0  0  0  0  0  0
  199.0160  173.9850  135.5960 C   0  0  0  0  0  1  0  0  0  0  0  0
  184.2630  177.9320  142.5660 C   0  0  0  0  0  2  0  0  0  0  0  0
  182.0420  178.7490  142.9900 C   0  0  0  0  0  2  0  0  0  0  0  0
  179.7260  179.4410  142.7120 O   0  0  0  0  0  1  0  0  0  0  0  0
  181.0840  179.0770  140.7550 C   0  0  0  0  0  0  0  0  0  0  0  0
  183.3620  179.0640  142.3930 N   0  0  0  0  0  0  0  0  0  0  0  0
  180.1030  179.2140  139.9750 O   0  0  0  0  0  0  0  0  0  0  0  0
  180.9350  179.1890  142.1580 N   0  0  0  0  0  0  0  0  0  0  0  0
  182.4520  178.8220  140.2430 C   0  0  1  0  0  3  0  0  0  0  0  0
  183.3950  179.4890  141.0740 O   0  0  0  0  0  0  0  0  0  0  0  0
  181.6260  176.5360  140.3950 O   0  0  0  0  0  0  0  0  0  0  0  0
  180.2320  174.9240  139.3320 C   0  0  0  0  0  2  0  0  0  0  0  0
  183.0890  176.8940  138.5770 C   0  0  2  0  0  3  0  0  0  0  0  0
  182.0780  175.9550  138.2370 O   0  0  0  0  0  0  0  0  0  0  0  0
  181.2590  175.7570  139.3220 C   0  0  0  0  0  0  0  0  0  0  0  0
  182.7590  177.3240  140.0440 C   0  0  1  0  0  3  0  0  0  0  0  0
  183.1120  178.0180  137.5480 C   0  0  0  0  0  2  0  0  0  0  0  0
  183.8640  177.5910  136.3760 N   0  0  0  0  0  2  0  0  0  0  0  0
  186.1570  177.7270  137.1920 C   0  0  0  0  0  3  0  0  0  0  0  0
  187.8000  176.0370  136.6070 C   0  0  0  0  0  0  0  0  0  0  0  0
  185.5220  175.8610  135.7900 C   0  0  0  0  0  3  0  0  0  0  0  0
  186.8220  175.3580  135.8680 C   0  0  0  0  0  3  0  0  0  0  0  0
  187.4590  177.2240  137.2710 C   0  0  0  0  0  3  0  0  0  0  0  0
  185.1840  177.0500  136.4530 C   0  0  0  0  0  0  0  0  0  0  0  0
  189.1710  175.5120  136.6920 C   0  0  0  0  0  0  0  0  0  0  0  0
  189.4080  174.4400  137.3110 O   0  0  0  0  0  1  0  0  0  0  0  0
  190.2200  176.1930  136.0860 O   0  0  0  0  0  0  0  0  0  0  0  0
  1  4  1  0  0  0  0
  2  6  1  0  0  0  0
  3  5  1  0  0  0  0
  3  2  2  0  0  0  0
  5  1  2  0  0  0  0
  6  4  2  0  0  0  0
  7  2  1  0  0  0  0
  8  7  1  0  0  0  0
  9  8  1  0  0  0  0
 10  9  1  0  0  0  0
 11 10  1  0  0  0  0
 13 14  1  0  0  0  0
 13 12  2  0  0  0  0
 14 11  1  0  0  0  0
 15 16  1  0  0  0  0
 15 17  1  0  0  0  0
 16 17  1  0  0  0  0
 16 13  1  1  0  0  0
 17 18  1  6  0  0  0
 19 24  1  6  0  0  0
 20 21  1  0  0  0  0
 20 19  1  0  0  0  0
 21 18  1  6  0  0  0
 21 19  1  0  0  0  0
 21 23  1  0  0  0  0
 22 23  1  0  0  0  0
 24 28  1  1  0  0  0
 24 25  1  0  0  0  0
 25 26  2  0  0  0  0
 25 27  1  0  0  0  0
 29 28  1  0  0  0  0
 30  5  1  0  0  0  0
 33 36  1  0  0  0  0
 34 30  1  0  0  0  0
 34 31  1  0  0  0  0
 35 33  2  0  0  0  0
 36 32  1  0  0  0  0
 36 31  1  0  0  0  0
 37 33  1  1  0  0  0
 37 38  1  0  0  0  0
 38 34  1  0  0  0  0
 41 45  1  6  0  0  0
 41 44  1  0  0  0  0
 42 41  1  0  0  0  0
 42 43  1  0  0  0  0
 43 40  2  0  0  0  0
 43 39  1  0  0  0  0
 44 37  1  0  0  0  0
 44 39  1  6  0  0  0
 46 52  1  0  0  0  0
 46 45  1  0  0  0  0
 47 51  1  0  0  0  0
 48 53  1  0  0  0  0
 48 51  2  0  0  0  0
 49 50  2  0  0  0  0
 49 52  1  0  0  0  0
 50 48  1  0  0  0  0
 52 47  2  0  0  0  0
 53 54  1  0  0  0  0
 55 53  2  0  0  0  0
M  END
>  <MODEL>
8

>  <REMARK>
 VINA RESULT:      -5.8      3.532      6.298
  Name = 
  20 active torsions:
  status: ('A' for Active; 'I' for Inactive)
    1  A    between atoms: C_1  and  C_53
    2  A    between atoms: C_2  and  N_28
    3  A    between atoms: C_2  and  C_44
    4  A    between atoms: C_3  and  C_53
    5  A    between atoms: O_6  and  C_53
    6  A    between atoms: C_8  and  N_22
    7  A    between atoms: C_8  and  C_35
    8  A    between atoms: C_10  and  C_32
    9  A    between atoms: C_16  and  C_36
   10  A    between atoms: C_20  and  C_42
   11  A    between atoms: C_25  and  C_38
   12  A    between atoms: C_26  and  C_45
   13  A    between atoms: C_27  and  C_54
   14  A    between atoms: C_29  and  C_38
   15  A    between atoms: C_29  and  C_50
   16  A    between atoms: N_33  and  C_36
   17  A    between atoms: N_33  and  C_52
   18  A    between atoms: C_35  and  C_43
   19  A    between atoms: C_43  and  S_51
   20  A    between atoms: S_51  and  C_54
                            x       y       z     vdW  Elec       q    Type
                         _______ _______ _______ _____ _____    ______ ____

>  <TORSDO>
F 20

$$$$
=
 OpenBabel10262420373D

 55 60  0  0  1  0  0  0  0  0999 V2000
  184.5000  178.5010  140.5160 C   0  0  0  0  0  3  0  0  0  0  0  0
  186.6690  178.2720  138.7650 C   0  0  0  0  0  0  0  0  0  0  0  0
  185.3910  177.8840  138.3510 C   0  0  0  0  0  3  0  0  0  0  0  0
  185.7770  178.8890  140.9320 C   0  0  0  0  0  3  0  0  0  0  0  0
  184.3050  178.0010  139.2220 C   0  0  0  0  0  0  0  0  0  0  0  0
  186.8620  178.7740  140.0570 C   0  0  0  0  0  3  0  0  0  0  0  0
  187.8220  178.1380  137.8280 C   0  0  0  0  0  2  0  0  0  0  0  0
  187.7480  176.5600  136.9230 S   0  0  0  0  0  0  0  0  0  0  0  0
  189.0210  175.7770  137.9620 C   0  0  0  0  0  2  0  0  0  0  0  0
  189.9460  176.8320  138.5470 C   0  0  0  0  0  2  0  0  0  0  0  0
  190.5990  176.3160  139.8170 C   0  0  0  0  0  2  0  0  0  0  0  0
  192.3320  176.7530  142.0320 O   0  0  0  0  0  0  0  0  0  0  0  0
  191.2620  177.4200  141.9870 C   0  0  0  0  0  0  0  0  0  0  0  0
  190.3390  177.2350  140.9140 N   0  0  0  0  0  2  0  0  0  0  0  0
  192.0200  178.4410  143.9830 O   0  0  0  0  0  0  0  0  0  0  0  0
  190.9380  178.3760  143.0860 C   0  0  2  0  0  3  0  0  0  0  0  0
  190.9140  177.6740  144.3890 C   0  0  2  0  0  3  0  0  0  0  0  0
  190.1100  178.4740  145.3960 C   0  0  0  0  0  2  0  0  0  0  0  0
  188.0020  177.4400  146.6600 C   0  0  2  0  0  3  0  0  0  0  0  0
  188.8180  178.3770  147.5400 C   0  0  0  0  0  2  0  0  0  0  0  0
  189.5120  177.5650  146.4700 C   0  0  2  0  0  0  0  0  0  0  0  0
  191.6320  176.9880  147.4210 O   0  0  0  0  0  1  0  0  0  0  0  0
  190.3740  176.4770  147.0910 C   0  0  0  0  0  2  0  0  0  0  0  0
  187.1980  178.2420  145.6350 C   0  0  1  0  0  3  0  0  0  0  0  0
  186.6330  177.3420  144.5820 C   0  0  0  0  0  0  0  0  0  0  0  0
  185.4260  177.6430  143.9620 O   0  0  0  0  0  0  0  0  0  0  0  0
  187.2990  176.3430  144.1980 O   0  0  0  0  0  1  0  0  0  0  0  0
  186.1540  178.9180  146.2750 O   0  0  0  0  0  0  0  0  0  0  0  0
  185.4510  177.9270  146.9640 C   0  0  0  0  0  1  0  0  0  0  0  0
  182.9490  177.5760  138.7770 C   0  0  0  0  0  2  0  0  0  0  0  0
  182.8350  179.9600  138.4940 C   0  0  0  0  0  2  0  0  0  0  0  0
  182.1020  182.2790  138.5760 O   0  0  0  0  0  1  0  0  0  0  0  0
  180.5470  180.5370  139.1690 C   0  0  0  0  0  0  0  0  0  0  0  0
  182.2970  178.6540  138.0450 N   0  0  0  0  0  0  0  0  0  0  0  0
  179.6770  181.3630  139.5570 O   0  0  0  0  0  0  0  0  0  0  0  0
  181.7960  180.9640  138.6580 N   0  0  0  0  0  0  0  0  0  0  0  0
  180.2960  179.0760  139.1970 C   0  0  1  0  0  3  0  0  0  0  0  0
  180.9230  178.4710  138.0720 O   0  0  0  0  0  0  0  0  0  0  0  0
  180.3600  179.2880  141.6230 O   0  0  0  0  0  0  0  0  0  0  0  0
  179.0250  179.2000  143.5930 C   0  0  0  0  0  2  0  0  0  0  0  0
  179.9180  177.0930  140.8770 C   0  0  2  0  0  3  0  0  0  0  0  0
  179.2130  177.3710  142.0790 O   0  0  0  0  0  0  0  0  0  0  0  0
  179.5100  178.6470  142.4930 C   0  0  0  0  0  0  0  0  0  0  0  0
  180.6750  178.4190  140.5400 C   0  0  1  0  0  3  0  0  0  0  0  0
  178.9440  176.5990  139.8140 C   0  0  0  0  0  2  0  0  0  0  0  0
  178.9630  175.1440  139.7720 N   0  0  0  0  0  2  0  0  0  0  0  0
  181.0410  174.6540  138.5940 C   0  0  0  0  0  3  0  0  0  0  0  0
  181.1220  172.9890  136.8290 C   0  0  0  0  0  0  0  0  0  0  0  0
  179.0390  173.4390  137.9910 C   0  0  0  0  0  3  0  0  0  0  0  0
  179.7570  172.7370  137.0200 C   0  0  0  0  0  3  0  0  0  0  0  0
  181.7600  173.9520  137.6240 C   0  0  0  0  0  3  0  0  0  0  0  0
  179.6800  174.4030  138.7830 C   0  0  0  0  0  0  0  0  0  0  0  0
  181.8820  172.2540  135.8080 C   0  0  0  0  0  0  0  0  0  0  0  0
  182.5970  172.8720  134.9750 O   0  0  0  0  0  0  0  0  0  0  0  0
  181.8220  170.8660  135.7540 O   0  0  0  0  0  1  0  0  0  0  0  0
  1  4  1  0  0  0  0
  2  6  1  0  0  0  0
  3  2  2  0  0  0  0
  3  5  1  0  0  0  0
  5  1  2  0  0  0  0
  6  4  2  0  0  0  0
  7  2  1  0  0  0  0
  8  7  1  0  0  0  0
  8  9  1  0  0  0  0
  9 10  1  0  0  0  0
 10 11  1  0  0  0  0
 11 14  1  0  0  0  0
 13 12  2  0  0  0  0
 14 13  1  0  0  0  0
 15 17  1  0  0  0  0
 16 13  1  6  0  0  0
 16 15  1  0  0  0  0
 16 17  1  0  0  0  0
 17 18  1  1  0  0  0
 19 24  1  6  0  0  0
 19 20  1  0  0  0  0
 21 18  1  6  0  0  0
 21 19  1  0  0  0  0
 21 23  1  0  0  0  0
 21 20  1  0  0  0  0
 23 22  1  0  0  0  0
 24 25  1  6  0  0  0
 24 28  1  0  0  0  0
 26 25  2  0  0  0  0
 27 25  1  0  0  0  0
 28 29  1  0  0  0  0
 30  5  1  0  0  0  0
 31 36  1  0  0  0  0
 32 36  1  0  0  0  0
 33 37  1  0  0  0  0
 33 35  2  0  0  0  0
 34 38  1  0  0  0  0
 34 31  1  0  0  0  0
 34 30  1  0  0  0  0
 36 33  1  0  0  0  0
 37 38  1  6  0  0  0
 37 44  1  0  0  0  0
 39 43  1  0  0  0  0
 41 45  1  6  0  0  0
 41 42  1  0  0  0  0
 42 43  1  0  0  0  0
 43 40  2  0  0  0  0
 44 41  1  0  0  0  0
 44 39  1  1  0  0  0
 46 45  1  0  0  0  0
 47 52  1  0  0  0  0
 48 50  2  0  0  0  0
 48 51  1  0  0  0  0
 49 52  2  0  0  0  0
 50 49  1  0  0  0  0
 51 47  2  0  0  0  0
 52 46  1  0  0  0  0
 53 48  1  0  0  0  0
 54 53  2  0  0  0  0
 55 53  1  0  0  0  0
M  END
>  <MODEL>
9

>  <REMARK>
 VINA RESULT:      -5.8      2.753      5.548
  Name = 
  20 active torsions:
  status: ('A' for Active; 'I' for Inactive)
    1  A    between atoms: C_1  and  C_53
    2  A    between atoms: C_2  and  N_28
    3  A    between atoms: C_2  and  C_44
    4  A    between atoms: C_3  and  C_53
    5  A    between atoms: O_6  and  C_53
    6  A    between atoms: C_8  and  N_22
    7  A    between atoms: C_8  and  C_35
    8  A    between atoms: C_10  and  C_32
    9  A    between atoms: C_16  and  C_36
   10  A    between atoms: C_20  and  C_42
   11  A    between atoms: C_25  and  C_38
   12  A    between atoms: C_26  and  C_45
   13  A    between atoms: C_27  and  C_54
   14  A    between atoms: C_29  and  C_38
   15  A    between atoms: C_29  and  C_50
   16  A    between atoms: N_33  and  C_36
   17  A    between atoms: N_33  and  C_52
   18  A    between atoms: C_35  and  C_43
   19  A    between atoms: C_43  and  S_51
   20  A    between atoms: S_51  and  C_54
                            x       y       z     vdW  Elec       q    Type
                         _______ _______ _______ _____ _____    ______ ____

>  <TORSDO>
F 20

$$$$
