=
 OpenBabel10262422003D

 30 35  0  0  1  0  0  0  0  0999 V2000
  188.5200  178.3310  141.2650 C   0  0  1  0  0  3  0  0  0  0  0  0
  189.4930  178.1130  137.5890 C   0  0  0  0  0  2  0  0  0  0  0  0
  186.2210  179.1720  139.7270 N   0  0  0  0  0  2  0  0  0  0  0  0
  187.4720  177.7300  142.2540 C   0  0  1  0  0  3  0  0  0  0  0  0
  189.8250  177.9270  141.6210 O   0  0  0  0  0  0  0  0  0  0  0  0
  187.0800  179.0200  146.6150 C   0  0  0  0  0  2  0  0  0  0  0  0
  189.3780  177.7690  143.9630 C   0  0  1  0  0  3  0  0  0  0  0  0
  185.0060  177.6070  143.1030 C   0  0  0  0  0  2  0  0  0  0  0  0
  184.0420  179.0050  140.7770 O   0  0  0  0  0  1  0  0  0  0  0  0
  190.1430  178.4930  142.8650 C   0  0  0  0  0  2  0  0  0  0  0  0
  187.8860  178.0200  143.7150 C   0  0  2  0  0  3  0  0  0  0  0  0
  188.5250  178.5660  136.4940 C   0  0  0  0  0  2  0  0  0  0  0  0
  185.4830  177.8070  144.5410 C   0  0  2  0  0  3  0  0  0  0  0  0
  185.6130  179.3400  146.3560 C   0  0  0  0  0  2  0  0  0  0  0  0
  189.2230  178.7950  138.9200 C   0  0  0  0  0  2  0  0  0  0  0  0
  186.8620  177.9240  139.3410 C   0  0  2  0  0  3  0  0  0  0  0  0
  187.0700  178.7090  136.9430 C   0  0  0  0  0  2  0  0  0  0  0  0
  188.3270  177.9130  139.7940 C   0  0  2  0  0  3  0  0  0  0  0  0
  185.8940  179.6020  142.0270 O   0  0  0  0  0  0  0  0  0  0  0  0
  185.4270  178.8830  140.9090 C   0  0  2  0  0  0  0  0  0  0  0  0
  186.0000  178.1930  142.1000 C   0  0  1  0  0  0  0  0  0  0  0  0
  185.3230  179.2100  144.9300 N   0  0  0  0  0  2  0  0  0  0  0  0
  187.3680  177.5860  146.1840 C   0  0  0  0  0  2  0  0  0  0  0  0
  186.6310  177.5760  137.8630 C   0  0  2  0  0  3  0  0  0  0  0  0
  185.1650  177.2660  137.6250 C   0  0  0  0  0  1  0  0  0  0  0  0
  186.9430  177.3380  144.7310 C   0  0  2  0  0  3  0  0  0  0  0  0
  189.7280  176.2830  143.9570 C   0  0  0  0  0  2  0  0  0  0  0  0
  191.1350  176.0810  144.4800 C   0  0  0  0  0  2  0  0  0  0  0  0
  191.2870  176.7910  145.8070 C   0  0  0  0  0  2  0  0  0  0  0  0
  192.0500  175.9040  146.7680 C   0  0  0  0  0  1  0  0  0  0  0  0
  1  5  1  1  0  0  0
  1  4  1  0  0  0  0
  2 15  1  0  0  0  0
  3 20  1  0  0  0  0
  4 11  1  0  0  0  0
  5 10  1  0  0  0  0
  8 13  1  0  0  0  0
  9 20  1  0  0  0  0
 10  7  1  0  0  0  0
 11  7  1  0  0  0  0
 11 26  1  0  0  0  0
 12 17  1  0  0  0  0
 12  2  1  0  0  0  0
 13 26  1  0  0  0  0
 13 22  1  0  0  0  0
 14  6  1  0  0  0  0
 15 18  1  0  0  0  0
 16  3  1  0  0  0  0
 16 18  1  0  0  0  0
 17 24  1  0  0  0  0
 18  1  1  0  0  0  0
 19 21  1  0  0  0  0
 20 19  1  0  0  0  0
 20 21  1  0  0  0  0
 21  4  1  0  0  0  0
 21  8  1  0  0  0  0
 22 14  1  0  0  0  0
 23  6  1  0  0  0  0
 24 16  1  0  0  0  0
 25 24  1  0  0  0  0
 26 23  1  0  0  0  0
 27  7  1  0  0  0  0
 27 28  1  0  0  0  0
 28 29  1  0  0  0  0
 29 30  1  0  0  0  0
M  END
>  <MODEL>
1

>  <REMARK>
 VINA RESULT:      -8.1      0.000      0.000
  Name = 
  3 active torsions:
  status: ('A' for Active; 'I' for Inactive)
    1  A    between atoms: C_6  and  C_8
    2  A    between atoms: C_6  and  C_21
    3  A    between atoms: C_9  and  C_21
                            x       y       z     vdW  Elec       q    Type
                         _______ _______ _______ _____ _____    ______ ____

>  <TORSDO>
F 3

$$$$
=
 OpenBabel10262422003D

 30 35  0  0  1  0  0  0  0  0999 V2000
  184.6330  178.7130  143.7320 C   0  0  1  0  0  3  0  0  0  0  0  0
  187.0470  177.6210  146.4680 C   0  0  0  0  0  2  0  0  0  0  0  0
  187.2840  178.7300  142.5810 N   0  0  0  0  0  2  0  0  0  0  0  0
  184.1640  178.2620  142.3130 C   0  0  1  0  0  3  0  0  0  0  0  0
  183.5690  178.6270  144.6550 O   0  0  0  0  0  0  0  0  0  0  0  0
  181.2490  180.6510  139.7360 C   0  0  0  0  0  2  0  0  0  0  0  0
  181.8490  179.0670  143.0550 C   0  0  1  0  0  3  0  0  0  0  0  0
  184.6640  178.0100  139.7630 C   0  0  0  0  0  2  0  0  0  0  0  0
  187.4660  178.5370  140.1710 O   0  0  0  0  0  1  0  0  0  0  0  0
  182.5860  179.5610  144.2920 C   0  0  0  0  0  2  0  0  0  0  0  0
  182.8710  179.0090  141.9140 C   0  0  2  0  0  3  0  0  0  0  0  0
  188.5560  177.5960  146.2170 C   0  0  0  0  0  2  0  0  0  0  0  0
  183.3300  178.6770  139.4270 C   0  0  2  0  0  3  0  0  0  0  0  0
  182.2890  180.6590  138.6230 C   0  0  0  0  0  2  0  0  0  0  0  0
  186.3250  178.6000  145.5580 C   0  0  0  0  0  2  0  0  0  0  0  0
  186.8800  177.5360  143.3060 C   0  0  2  0  0  3  0  0  0  0  0  0
  188.9630  177.6380  144.7420 C   0  0  0  0  0  2  0  0  0  0  0  0
  185.7830  177.8750  144.3230 C   0  0  2  0  0  3  0  0  0  0  0  0
  185.7270  179.7340  141.1150 O   0  0  0  0  0  0  0  0  0  0  0  0
  186.6320  178.6680  141.2830 C   0  0  2  0  0  0  0  0  0  0  0  0
  185.1660  178.4350  141.1430 C   0  0  1  0  0  0  0  0  0  0  0  0
  183.5420  180.0910  139.1130 N   0  0  0  0  0  2  0  0  0  0  0  0
  180.9960  179.2140  140.1820 C   0  0  0  0  0  2  0  0  0  0  0  0
  188.0770  176.7550  143.8700 C   0  0  2  0  0  3  0  0  0  0  0  0
  188.8980  176.1730  142.7360 C   0  0  0  0  0  1  0  0  0  0  0  0
  182.3020  178.5060  140.5680 C   0  0  2  0  0  3  0  0  0  0  0  0
  181.2070  177.7110  143.3310 C   0  0  0  0  0  2  0  0  0  0  0  0
  179.9640  177.8900  144.1790 C   0  0  0  0  0  2  0  0  0  0  0  0
  179.1380  179.0300  143.6270 C   0  0  0  0  0  2  0  0  0  0  0  0
  178.9310  180.0700  144.7070 C   0  0  0  0  0  1  0  0  0  0  0  0
  1 18  1  0  0  0  0
  1  5  1  1  0  0  0
  3 16  1  0  0  0  0
  4  1  1  0  0  0  0
  6 23  1  0  0  0  0
  7 27  1  0  0  0  0
  7 10  1  0  0  0  0
  8 21  1  0  0  0  0
  9 20  1  0  0  0  0
 10  5  1  0  0  0  0
 11  4  1  0  0  0  0
 11  7  1  0  0  0  0
 12  2  1  0  0  0  0
 13  8  1  0  0  0  0
 13 26  1  0  0  0  0
 14 22  1  0  0  0  0
 14  6  1  0  0  0  0
 15  2  1  0  0  0  0
 16 24  1  0  0  0  0
 16 18  1  0  0  0  0
 17 12  1  0  0  0  0
 18 15  1  0  0  0  0
 19 21  1  0  0  0  0
 19 20  1  0  0  0  0
 20  3  1  0  0  0  0
 21 20  1  0  0  0  0
 21  4  1  0  0  0  0
 22 13  1  0  0  0  0
 23 26  1  0  0  0  0
 24 17  1  0  0  0  0
 25 24  1  0  0  0  0
 26 11  1  0  0  0  0
 27 28  1  0  0  0  0
 29 28  1  0  0  0  0
 29 30  1  0  0  0  0
M  END
>  <MODEL>
2

>  <REMARK>
 VINA RESULT:      -8.0      3.096      7.278
  Name = 
  3 active torsions:
  status: ('A' for Active; 'I' for Inactive)
    1  A    between atoms: C_6  and  C_8
    2  A    between atoms: C_6  and  C_21
    3  A    between atoms: C_9  and  C_21
                            x       y       z     vdW  Elec       q    Type
                         _______ _______ _______ _____ _____    ______ ____

>  <TORSDO>
F 3

$$$$
=
 OpenBabel10262422003D

 30 35  0  0  1  0  0  0  0  0999 V2000
  186.4060  178.4610  142.4000 C   0  0  1  0  0  3  0  0  0  0  0  0
  184.4510  178.8090  139.1510 C   0  0  0  0  0  2  0  0  0  0  0  0
  183.8280  179.5800  143.0770 N   0  0  0  0  0  2  0  0  0  0  0  0
  186.3030  177.7310  143.7770 C   0  0  1  0  0  3  0  0  0  0  0  0
  187.5130  177.9800  141.6680 O   0  0  0  0  0  0  0  0  0  0  0  0
  189.2840  178.3210  147.1840 C   0  0  0  0  0  2  0  0  0  0  0  0
  188.8410  177.4610  143.5850 C   0  0  1  0  0  3  0  0  0  0  0  0
  185.1760  177.5230  146.1230 C   0  0  0  0  0  2  0  0  0  0  0  0
  183.0380  179.2920  145.3500 O   0  0  0  0  0  1  0  0  0  0  0  0
  188.6880  178.3340  142.3490 C   0  0  0  0  0  2  0  0  0  0  0  0
  187.6620  177.7770  144.5120 C   0  0  2  0  0  3  0  0  0  0  0  0
  183.0610  179.4490  139.1380 C   0  0  0  0  0  2  0  0  0  0  0  0
  186.5510  177.4840  146.7890 C   0  0  2  0  0  3  0  0  0  0  0  0
  188.1220  178.7060  148.0910 C   0  0  0  0  0  2  0  0  0  0  0  0
  185.2930  179.2770  140.3260 C   0  0  0  0  0  2  0  0  0  0  0  0
  183.8410  178.3970  142.2310 C   0  0  2  0  0  3  0  0  0  0  0  0
  182.3870  179.5480  140.5070 C   0  0  0  0  0  2  0  0  0  0  0  0
  185.1780  178.2850  141.4870 C   0  0  2  0  0  3  0  0  0  0  0  0
  185.2850  179.6460  144.9360 O   0  0  0  0  0  0  0  0  0  0  0  0
  184.0770  179.1220  144.4340 C   0  0  2  0  0  0  0  0  0  0  0  0
  185.2310  178.2410  144.7750 C   0  0  1  0  0  0  0  0  0  0  0  0
  186.8940  178.8100  147.3070 N   0  0  0  0  0  2  0  0  0  0  0  0
  188.9960  176.9680  146.5420 C   0  0  0  0  0  2  0  0  0  0  0  0
  182.5890  178.2920  141.3470 C   0  0  2  0  0  3  0  0  0  0  0  0
  181.3640  178.0520  142.2070 C   0  0  0  0  0  1  0  0  0  0  0  0
  187.6390  176.9620  145.8240 C   0  0  2  0  0  3  0  0  0  0  0  0
  188.8910  175.9880  143.1870 C   0  0  0  0  0  2  0  0  0  0  0  0
  190.3060  175.6010  142.8120 C   0  0  0  0  0  2  0  0  0  0  0  0
  191.2780  176.2560  143.7680 C   0  0  0  0  0  2  0  0  0  0  0  0
  192.0120  175.1880  144.5500 C   0  0  0  0  0  1  0  0  0  0  0  0
  1  5  1  6  0  0  0
  1  4  1  0  0  0  0
  2 15  1  0  0  0  0
  3 20  1  0  0  0  0
  4 11  1  0  0  0  0
  4 21  1  0  0  0  0
  5 10  1  0  0  0  0
  6 14  1  0  0  0  0
  7 11  1  0  0  0  0
  8 13  1  0  0  0  0
 10  7  1  0  0  0  0
 11 26  1  0  0  0  0
 12  2  1  0  0  0  0
 12 17  1  0  0  0  0
 13 22  1  0  0  0  0
 15 18  1  0  0  0  0
 16  3  1  0  0  0  0
 17 24  1  0  0  0  0
 18 16  1  0  0  0  0
 18  1  1  0  0  0  0
 20 21  1  0  0  0  0
 20 19  1  0  0  0  0
 20  9  1  0  0  0  0
 21 19  1  0  0  0  0
 21  8  1  0  0  0  0
 22 14  1  0  0  0  0
 23  6  1  0  0  0  0
 24 25  1  0  0  0  0
 24 16  1  0  0  0  0
 26 23  1  0  0  0  0
 26 13  1  0  0  0  0
 27  7  1  0  0  0  0
 28 27  1  0  0  0  0
 28 29  1  0  0  0  0
 29 30  1  0  0  0  0
M  END
>  <MODEL>
3

>  <REMARK>
 VINA RESULT:      -7.7      2.402      3.475
  Name = 
  3 active torsions:
  status: ('A' for Active; 'I' for Inactive)
    1  A    between atoms: C_6  and  C_8
    2  A    between atoms: C_6  and  C_21
    3  A    between atoms: C_9  and  C_21
                            x       y       z     vdW  Elec       q    Type
                         _______ _______ _______ _____ _____    ______ ____

>  <TORSDO>
F 3

$$$$
=
 OpenBabel10262422003D

 30 35  0  0  1  0  0  0  0  0999 V2000
  187.5460  178.4330  139.8860 C   0  0  1  0  0  3  0  0  0  0  0  0
  189.0900  177.8060  136.4610 C   0  0  0  0  0  2  0  0  0  0  0  0
  185.5240  179.0570  137.9170 N   0  0  0  0  0  2  0  0  0  0  0  0
  186.3520  177.9350  140.7600 C   0  0  1  0  0  3  0  0  0  0  0  0
  188.7760  178.0920  140.4880 O   0  0  0  0  0  0  0  0  0  0  0  0
  185.2780  179.7140  144.8250 C   0  0  0  0  0  2  0  0  0  0  0  0
  187.9630  178.1990  142.7330 C   0  0  1  0  0  3  0  0  0  0  0  0
  183.7820  177.8740  141.2170 C   0  0  0  0  0  2  0  0  0  0  0  0
  183.2060  178.9810  138.6210 O   0  0  0  0  0  1  0  0  0  0  0  0
  188.8960  178.8020  141.6930 C   0  0  0  0  0  2  0  0  0  0  0  0
  186.5300  178.3970  142.2250 C   0  0  2  0  0  3  0  0  0  0  0  0
  188.3090  178.1160  135.1820 C   0  0  0  0  0  2  0  0  0  0  0  0
  184.0260  178.2470  142.6800 C   0  0  2  0  0  3  0  0  0  0  0  0
  183.8720  179.9800  144.3010 C   0  0  0  0  0  2  0  0  0  0  0  0
  188.6140  178.6340  137.6440 C   0  0  0  0  0  2  0  0  0  0  0  0
  186.2130  177.7830  137.7850 C   0  0  2  0  0  3  0  0  0  0  0  0
  186.8020  178.2890  135.3750 C   0  0  0  0  0  2  0  0  0  0  0  0
  187.5870  177.8460  138.4620 C   0  0  2  0  0  3  0  0  0  0  0  0
  184.8380  179.7450  140.0710 O   0  0  0  0  0  0  0  0  0  0  0  0
  184.5510  178.8950  138.9850 C   0  0  2  0  0  0  0  0  0  0  0  0
  184.9250  178.3550  140.3230 C   0  0  1  0  0  0  0  0  0  0  0  0
  183.8110  179.6830  142.8730 N   0  0  0  0  0  2  0  0  0  0  0  0
  185.6260  178.2440  144.6150 C   0  0  0  0  0  2  0  0  0  0  0  0
  186.2180  177.2630  136.3400 C   0  0  2  0  0  3  0  0  0  0  0  0
  184.8080  176.9060  135.9110 C   0  0  0  0  0  1  0  0  0  0  0  0
  185.4350  177.8240  143.1510 C   0  0  2  0  0  3  0  0  0  0  0  0
  188.3040  176.7270  142.9560 C   0  0  0  0  0  2  0  0  0  0  0  0
  189.3230  176.5950  144.0680 C   0  0  0  0  0  2  0  0  0  0  0  0
  189.1680  177.7490  145.0340 C   0  0  0  0  0  2  0  0  0  0  0  0
  188.7820  177.2160  146.3970 C   0  0  0  0  0  1  0  0  0  0  0  0
  1  5  1  1  0  0  0
  1  4  1  0  0  0  0
  2 15  1  0  0  0  0
  3 20  1  0  0  0  0
  4 11  1  0  0  0  0
  5 10  1  0  0  0  0
  7 27  1  0  0  0  0
  8 13  1  0  0  0  0
  9 20  1  0  0  0  0
 10  7  1  0  0  0  0
 11  7  1  0  0  0  0
 11 26  1  0  0  0  0
 12 17  1  0  0  0  0
 12  2  1  0  0  0  0
 13 22  1  0  0  0  0
 13 26  1  0  0  0  0
 14  6  1  0  0  0  0
 15 18  1  0  0  0  0
 16  3  1  0  0  0  0
 16 18  1  0  0  0  0
 17 24  1  0  0  0  0
 18  1  1  0  0  0  0
 19 21  1  0  0  0  0
 20 19  1  0  0  0  0
 20 21  1  0  0  0  0
 21  4  1  0  0  0  0
 21  8  1  0  0  0  0
 22 14  1  0  0  0  0
 23  6  1  0  0  0  0
 24 16  1  0  0  0  0
 25 24  1  0  0  0  0
 26 23  1  0  0  0  0
 27 28  1  0  0  0  0
 28 29  1  0  0  0  0
 29 30  1  0  0  0  0
M  END
>  <MODEL>
4

>  <REMARK>
 VINA RESULT:      -7.3      1.566      2.086
  Name = 
  3 active torsions:
  status: ('A' for Active; 'I' for Inactive)
    1  A    between atoms: C_6  and  C_8
    2  A    between atoms: C_6  and  C_21
    3  A    between atoms: C_9  and  C_21
                            x       y       z     vdW  Elec       q    Type
                         _______ _______ _______ _____ _____    ______ ____

>  <TORSDO>
F 3

$$$$
=
 OpenBabel10262422003D

 30 35  0  0  1  0  0  0  0  0999 V2000
  189.8860  177.9670  142.4910 C   0  0  1  0  0  3  0  0  0  0  0  0
  192.8510  176.9060  140.3490 C   0  0  0  0  0  2  0  0  0  0  0  0
  189.0910  178.2760  139.7300 N   0  0  0  0  0  2  0  0  0  0  0  0
  188.3960  177.5710  142.7380 C   0  0  1  0  0  3  0  0  0  0  0  0
  190.6570  177.7360  143.6500 O   0  0  0  0  0  0  0  0  0  0  0  0
  185.5920  179.8700  145.5110 C   0  0  0  0  0  2  0  0  0  0  0  0
  188.8730  178.1330  145.1890 C   0  0  1  0  0  3  0  0  0  0  0  0
  185.9230  177.5240  141.9020 C   0  0  0  0  0  2  0  0  0  0  0  0
  186.7180  178.2530  139.2320 O   0  0  0  0  0  1  0  0  0  0  0  0
  190.2190  178.6060  144.6600 C   0  0  0  0  0  2  0  0  0  0  0  0
  187.8720  178.2330  144.0330 C   0  0  2  0  0  3  0  0  0  0  0  0
  192.7960  177.0210  138.8240 C   0  0  0  0  0  2  0  0  0  0  0  0
  185.4520  178.0990  143.2390 C   0  0  2  0  0  3  0  0  0  0  0  0
  184.6250  180.0350  144.3450 C   0  0  0  0  0  2  0  0  0  0  0  0
  191.9070  177.8780  141.0380 C   0  0  0  0  0  2  0  0  0  0  0  0
  189.6940  177.0090  140.1120 C   0  0  2  0  0  3  0  0  0  0  0  0
  191.3920  177.1900  138.2430 C   0  0  0  0  0  2  0  0  0  0  0  0
  190.5760  177.1900  141.3540 C   0  0  2  0  0  3  0  0  0  0  0  0
  187.4900  179.2390  141.1760 O   0  0  0  0  0  0  0  0  0  0  0  0
  187.7180  178.2430  140.2060 C   0  0  2  0  0  0  0  0  0  0  0  0
  187.3760  177.9000  141.6160 C   0  0  1  0  0  0  0  0  0  0  0  0
  185.2430  179.5430  143.1170 N   0  0  0  0  0  2  0  0  0  0  0  0
  185.9250  178.3920  145.6870 C   0  0  0  0  0  2  0  0  0  0  0  0
  190.3660  176.2960  138.9300 C   0  0  2  0  0  3  0  0  0  0  0  0
  189.3190  175.8560  137.9240 C   0  0  0  0  0  1  0  0  0  0  0  0
  186.4400  177.7710  144.3810 C   0  0  2  0  0  3  0  0  0  0  0  0
  188.9910  176.7140  145.7370 C   0  0  0  0  0  2  0  0  0  0  0  0
  189.4870  176.7500  147.1680 C   0  0  0  0  0  2  0  0  0  0  0  0
  188.3070  176.8740  148.1070 C   0  0  0  0  0  2  0  0  0  0  0  0
  188.3040  178.2530  148.7320 C   0  0  0  0  0  1  0  0  0  0  0  0
  1  4  1  0  0  0  0
  1  5  1  1  0  0  0
  2 15  1  0  0  0  0
  3 16  1  0  0  0  0
  3 20  1  0  0  0  0
  4 11  1  0  0  0  0
  5 10  1  0  0  0  0
  6 23  1  0  0  0  0
  7 27  1  0  0  0  0
  8 13  1  0  0  0  0
  9 20  1  0  0  0  0
 10  7  1  0  0  0  0
 11 26  1  0  0  0  0
 11  7  1  0  0  0  0
 12  2  1  0  0  0  0
 13 26  1  0  0  0  0
 14  6  1  0  0  0  0
 15 18  1  0  0  0  0
 16 18  1  0  0  0  0
 17 12  1  0  0  0  0
 17 24  1  0  0  0  0
 18  1  1  0  0  0  0
 19 21  1  0  0  0  0
 20 19  1  0  0  0  0
 20 21  1  0  0  0  0
 21  8  1  0  0  0  0
 21  4  1  0  0  0  0
 22 13  1  0  0  0  0
 22 14  1  0  0  0  0
 24 16  1  0  0  0  0
 25 24  1  0  0  0  0
 26 23  1  0  0  0  0
 27 28  1  0  0  0  0
 28 29  1  0  0  0  0
 29 30  1  0  0  0  0
M  END
>  <MODEL>
5

>  <REMARK>
 VINA RESULT:      -7.1      2.056      2.906
  Name = 
  3 active torsions:
  status: ('A' for Active; 'I' for Inactive)
    1  A    between atoms: C_6  and  C_8
    2  A    between atoms: C_6  and  C_21
    3  A    between atoms: C_9  and  C_21
                            x       y       z     vdW  Elec       q    Type
                         _______ _______ _______ _____ _____    ______ ____

>  <TORSDO>
F 3

$$$$
=
 OpenBabel10262422003D

 30 35  0  0  1  0  0  0  0  0999 V2000
  183.3360  178.8730  143.1600 C   0  0  1  0  0  3  0  0  0  0  0  0
  185.2440  178.2140  146.3900 C   0  0  0  0  0  2  0  0  0  0  0  0
  186.1520  179.0080  142.5250 N   0  0  0  0  0  2  0  0  0  0  0  0
  183.1780  178.2680  141.7290 C   0  0  1  0  0  3  0  0  0  0  0  0
  182.1220  178.7790  143.8740 O   0  0  0  0  0  0  0  0  0  0  0  0
  180.6660  180.1870  138.4360 C   0  0  0  0  0  2  0  0  0  0  0  0
  180.7170  178.9420  141.9470 C   0  0  1  0  0  3  0  0  0  0  0  0
  184.1740  177.8450  139.3530 C   0  0  0  0  0  2  0  0  0  0  0  0
  186.8060  178.6290  140.2210 O   0  0  0  0  0  1  0  0  0  0  0  0
  181.1690  179.5960  143.2440 C   0  0  0  0  0  2  0  0  0  0  0  0
  181.9410  178.8720  141.0260 C   0  0  2  0  0  3  0  0  0  0  0  0
  186.7720  178.2900  146.4260 C   0  0  0  0  0  2  0  0  0  0  0  0
  182.8900  178.3700  138.7130 C   0  0  2  0  0  3  0  0  0  0  0  0
  181.8980  180.1860  137.5390 C   0  0  0  0  0  2  0  0  0  0  0  0
  184.6490  179.0510  145.2700 C   0  0  0  0  0  2  0  0  0  0  0  0
  185.6930  177.8510  143.2760 C   0  0  2  0  0  3  0  0  0  0  0  0
  187.4500  178.2410  145.0560 C   0  0  0  0  0  2  0  0  0  0  0  0
  184.4020  178.1830  144.0330 C   0  0  2  0  0  3  0  0  0  0  0  0
  184.8450  179.7560  140.7040 O   0  0  0  0  0  0  0  0  0  0  0  0
  185.7670  178.7840  141.1410 C   0  0  2  0  0  0  0  0  0  0  0  0
  184.3740  178.4220  140.7540 C   0  0  1  0  0  0  0  0  0  0  0  0
  183.0680  179.7660  138.3060 N   0  0  0  0  0  2  0  0  0  0  0  0
  180.4250  178.7780  138.9650 C   0  0  0  0  0  2  0  0  0  0  0  0
  186.8070  177.2200  144.1250 C   0  0  2  0  0  3  0  0  0  0  0  0
  187.8660  176.6130  143.2260 C   0  0  0  0  0  1  0  0  0  0  0  0
  181.6750  178.2130  139.6540 C   0  0  2  0  0  3  0  0  0  0  0  0
  180.1220  177.5660  142.2300 C   0  0  0  0  0  2  0  0  0  0  0  0
  179.0070  177.2720  141.2480 C   0  0  0  0  0  2  0  0  0  0  0  0
  179.0400  175.8080  140.8700 C   0  0  0  0  0  2  0  0  0  0  0  0
  178.9310  175.6740  139.3660 C   0  0  0  0  0  1  0  0  0  0  0  0
  1  5  1  1  0  0  0
  1 18  1  0  0  0  0
  2 12  1  0  0  0  0
  3 16  1  0  0  0  0
  4  1  1  0  0  0  0
  6 23  1  0  0  0  0
  7 27  1  0  0  0  0
  7 10  1  0  0  0  0
  8 21  1  0  0  0  0
  9 20  1  0  0  0  0
 10  5  1  0  0  0  0
 11  4  1  0  0  0  0
 11  7  1  0  0  0  0
 13  8  1  0  0  0  0
 13 26  1  0  0  0  0
 14 22  1  0  0  0  0
 14  6  1  0  0  0  0
 15  2  1  0  0  0  0
 16 18  1  0  0  0  0
 16 24  1  0  0  0  0
 17 12  1  0  0  0  0
 18 15  1  0  0  0  0
 19 21  1  0  0  0  0
 19 20  1  0  0  0  0
 20  3  1  0  0  0  0
 21 20  1  0  0  0  0
 21  4  1  0  0  0  0
 22 13  1  0  0  0  0
 23 26  1  0  0  0  0
 24 17  1  0  0  0  0
 25 24  1  0  0  0  0
 26 11  1  0  0  0  0
 28 27  1  0  0  0  0
 29 28  1  0  0  0  0
 30 29  1  0  0  0  0
M  END
>  <MODEL>
6

>  <REMARK>
 VINA RESULT:      -7.1      3.503      7.997
  Name = 
  3 active torsions:
  status: ('A' for Active; 'I' for Inactive)
    1  A    between atoms: C_6  and  C_8
    2  A    between atoms: C_6  and  C_21
    3  A    between atoms: C_9  and  C_21
                            x       y       z     vdW  Elec       q    Type
                         _______ _______ _______ _____ _____    ______ ____

>  <TORSDO>
F 3

$$$$
=
 OpenBabel10262422003D

 30 35  0  0  1  0  0  0  0  0999 V2000
  185.2580  178.8250  141.2850 C   0  0  1  0  0  3  0  0  0  0  0  0
  183.7260  178.7750  144.7720 C   0  0  0  0  0  2  0  0  0  0  0  0
  187.4430  178.9470  143.1730 N   0  0  0  0  0  2  0  0  0  0  0  0
  186.2390  177.9870  140.4060 C   0  0  1  0  0  3  0  0  0  0  0  0
  183.9600  178.8110  140.7300 O   0  0  0  0  0  0  0  0  0  0  0  0
  187.6090  179.2480  136.2380 C   0  0  0  0  0  2  0  0  0  0  0  0
  184.6900  178.6050  138.4630 C   0  0  1  0  0  3  0  0  0  0  0  0
  188.6770  177.2090  139.8900 C   0  0  0  0  0  2  0  0  0  0  0  0
  189.6260  178.2140  142.4170 O   0  0  0  0  0  1  0  0  0  0  0  0
  183.9950  179.4790  139.4960 C   0  0  0  0  0  2  0  0  0  0  0  0
  186.1400  178.4240  138.9270 C   0  0  2  0  0  3  0  0  0  0  0  0
  184.6070  178.9080  146.0160 C   0  0  0  0  0  2  0  0  0  0  0  0
  188.4910  177.5770  138.4190 C   0  0  2  0  0  3  0  0  0  0  0  0
  189.0520  179.1400  136.7150 C   0  0  0  0  0  2  0  0  0  0  0  0
  184.3660  179.3950  143.5410 C   0  0  0  0  0  2  0  0  0  0  0  0
  186.4390  177.9160  143.3810 C   0  0  2  0  0  3  0  0  0  0  0  0
  186.0970  178.6550  145.7780 C   0  0  0  0  0  2  0  0  0  0  0  0
  185.1100  178.3260  142.7350 C   0  0  2  0  0  3  0  0  0  0  0  0
  188.2120  179.3390  140.9740 O   0  0  0  0  0  0  0  0  0  0  0  0
  188.2960  178.4850  142.0910 C   0  0  2  0  0  0  0  0  0  0  0  0
  187.7410  178.0170  140.7890 C   0  0  1  0  0  0  0  0  0  0  0  0
  189.0810  178.8910  138.1540 N   0  0  0  0  0  2  0  0  0  0  0  0
  186.8820  177.9380  136.5250 C   0  0  0  0  0  2  0  0  0  0  0  0
  186.3450  177.4730  144.8490 C   0  0  2  0  0  3  0  0  0  0  0  0
  187.6190  176.7610  145.2590 C   0  0  0  0  0  1  0  0  0  0  0  0
  187.0040  177.5380  138.0020 C   0  0  2  0  0  3  0  0  0  0  0  0
  183.9540  177.2760  138.3180 C   0  0  0  0  0  2  0  0  0  0  0  0
  183.2530  177.2170  136.9770 C   0  0  0  0  0  2  0  0  0  0  0  0
  183.6930  175.9760  136.2320 C   0  0  0  0  0  2  0  0  0  0  0  0
  184.3530  175.0160  137.1980 C   0  0  0  0  0  1  0  0  0  0  0  0
  1  5  1  6  0  0  0
  1 18  1  0  0  0  0
  2 12  1  0  0  0  0
  3 16  1  0  0  0  0
  4 21  1  0  0  0  0
  4  1  1  0  0  0  0
  6 23  1  0  0  0  0
  6 14  1  0  0  0  0
  7 11  1  0  0  0  0
  7 10  1  0  0  0  0
  8 21  1  0  0  0  0
 10  5  1  0  0  0  0
 11  4  1  0  0  0  0
 13  8  1  0  0  0  0
 14 22  1  0  0  0  0
 15  2  1  0  0  0  0
 16 24  1  0  0  0  0
 17 12  1  0  0  0  0
 18 16  1  0  0  0  0
 18 15  1  0  0  0  0
 19 20  1  0  0  0  0
 20  9  1  0  0  0  0
 20  3  1  0  0  0  0
 21 19  1  0  0  0  0
 21 20  1  0  0  0  0
 22 13  1  0  0  0  0
 23 26  1  0  0  0  0
 24 25  1  0  0  0  0
 24 17  1  0  0  0  0
 26 13  1  0  0  0  0
 26 11  1  0  0  0  0
 27  7  1  0  0  0  0
 28 27  1  0  0  0  0
 29 28  1  0  0  0  0
 29 30  1  0  0  0  0
M  END
>  <MODEL>
7

>  <REMARK>
 VINA RESULT:      -6.8      1.933      7.494
  Name = 
  3 active torsions:
  status: ('A' for Active; 'I' for Inactive)
    1  A    between atoms: C_6  and  C_8
    2  A    between atoms: C_6  and  C_21
    3  A    between atoms: C_9  and  C_21
                            x       y       z     vdW  Elec       q    Type
                         _______ _______ _______ _____ _____    ______ ____

>  <TORSDO>
F 3

$$$$
=
 OpenBabel10262422003D

 30 35  0  0  1  0  0  0  0  0999 V2000
  188.7520  177.1050  143.4500 C   0  0  1  0  0  3  0  0  0  0  0  0
  191.7850  176.3450  145.6240 C   0  0  0  0  0  2  0  0  0  0  0  0
  187.8070  176.8650  146.1720 N   0  0  0  0  0  2  0  0  0  0  0  0
  187.6400  178.1910  143.3010 C   0  0  1  0  0  3  0  0  0  0  0  0
  189.5820  177.0870  142.3090 O   0  0  0  0  0  0  0  0  0  0  0  0
  184.1810  177.8780  140.3370 C   0  0  0  0  0  2  0  0  0  0  0  0
  187.8790  177.7860  140.7840 C   0  0  1  0  0  3  0  0  0  0  0  0
  185.4580  179.3040  144.2070 C   0  0  0  0  0  2  0  0  0  0  0  0
  185.7150  177.9520  146.7370 O   0  0  0  0  0  1  0  0  0  0  0  0
  188.8180  176.6660  141.2080 C   0  0  0  0  0  2  0  0  0  0  0  0
  186.9110  178.0290  141.9470 C   0  0  2  0  0  3  0  0  0  0  0  0
  191.6280  176.0760  147.1220 C   0  0  0  0  0  2  0  0  0  0  0  0
  184.8200  179.1980  142.8220 C   0  0  2  0  0  3  0  0  0  0  0  0
  183.2110  178.0470  141.5000 C   0  0  0  0  0  2  0  0  0  0  0  0
  190.5180  176.0350  144.8440 C   0  0  0  0  0  2  0  0  0  0  0  0
  188.9530  177.7280  145.9380 C   0  0  2  0  0  3  0  0  0  0  0  0
  190.2920  176.5250  147.7180 C   0  0  0  0  0  2  0  0  0  0  0  0
  189.6870  177.3080  144.6580 C   0  0  2  0  0  3  0  0  0  0  0  0
  185.9940  176.9720  144.6610 O   0  0  0  0  0  0  0  0  0  0  0  0
  186.6330  177.6080  145.7430 C   0  0  2  0  0  0  0  0  0  0  0  0
  186.5470  178.2480  144.4000 C   0  0  1  0  0  0  0  0  0  0  0  0
  183.9440  178.0250  142.7630 N   0  0  0  0  0  2  0  0  0  0  0  0
  185.1830  179.0280  140.3440 C   0  0  0  0  0  2  0  0  0  0  0  0
  189.8420  177.8790  147.1820 C   0  0  2  0  0  3  0  0  0  0  0  0
  189.0940  178.6320  148.2660 C   0  0  0  0  0  1  0  0  0  0  0  0
  185.8840  179.1570  141.7030 C   0  0  2  0  0  3  0  0  0  0  0  0
  188.6790  179.0340  140.4210 C   0  0  0  0  0  2  0  0  0  0  0  0
  189.0590  178.9960  138.9550 C   0  0  0  0  0  2  0  0  0  0  0  0
  188.0030  178.2410  138.1790 C   0  0  0  0  0  2  0  0  0  0  0  0
  188.3560  178.2520  136.7070 C   0  0  0  0  0  1  0  0  0  0  0  0
  1  5  1  6  0  0  0
  1 18  1  0  0  0  0
  2 12  1  0  0  0  0
  4  1  1  0  0  0  0
  4 21  1  0  0  0  0
  6 23  1  0  0  0  0
  6 14  1  0  0  0  0
  7 10  1  0  0  0  0
  7 11  1  0  0  0  0
  8 21  1  0  0  0  0
 10  5  1  0  0  0  0
 11  4  1  0  0  0  0
 12 17  1  0  0  0  0
 13  8  1  0  0  0  0
 14 22  1  0  0  0  0
 15  2  1  0  0  0  0
 16  3  1  0  0  0  0
 16 24  1  0  0  0  0
 18 15  1  0  0  0  0
 18 16  1  0  0  0  0
 19 20  1  0  0  0  0
 20  3  1  0  0  0  0
 20  9  1  0  0  0  0
 21 19  1  0  0  0  0
 21 20  1  0  0  0  0
 22 13  1  0  0  0  0
 23 26  1  0  0  0  0
 24 17  1  0  0  0  0
 24 25  1  0  0  0  0
 26 11  1  0  0  0  0
 26 13  1  0  0  0  0
 27  7  1  0  0  0  0
 28 27  1  0  0  0  0
 29 28  1  0  0  0  0
 30 29  1  0  0  0  0
M  END
>  <MODEL>
8

>  <REMARK>
 VINA RESULT:      -6.6      1.905      6.468
  Name = 
  3 active torsions:
  status: ('A' for Active; 'I' for Inactive)
    1  A    between atoms: C_6  and  C_8
    2  A    between atoms: C_6  and  C_21
    3  A    between atoms: C_9  and  C_21
                            x       y       z     vdW  Elec       q    Type
                         _______ _______ _______ _____ _____    ______ ____

>  <TORSDO>
F 3

$$$$
=
 OpenBabel10262422003D

 30 35  0  0  1  0  0  0  0  0999 V2000
  181.9270  177.8730  140.5720 C   0  0  1  0  0  3  0  0  0  0  0  0
  182.6070  178.7450  144.2160 C   0  0  0  0  0  2  0  0  0  0  0  0
  184.4670  179.2510  140.6550 N   0  0  0  0  0  2  0  0  0  0  0  0
  182.5640  177.0480  139.4090 C   0  0  1  0  0  3  0  0  0  0  0  0
  180.6860  177.3190  140.9500 O   0  0  0  0  0  0  0  0  0  0  0  0
  180.8930  176.9580  135.1620 C   0  0  0  0  0  2  0  0  0  0  0  0
  180.1500  176.4720  138.7800 C   0  0  1  0  0  3  0  0  0  0  0  0
  184.4410  176.7870  137.6140 C   0  0  0  0  0  2  0  0  0  0  0  0
  186.0130  178.8740  138.8260 O   0  0  0  0  0  1  0  0  0  0  0  0
  179.7890  177.4600  139.8790 C   0  0  0  0  0  2  0  0  0  0  0  0
  181.5410  176.8570  138.2660 C   0  0  2  0  0  3  0  0  0  0  0  0
  183.8440  179.5560  144.6100 C   0  0  0  0  0  2  0  0  0  0  0  0
  183.3880  176.5150  136.5400 C   0  0  2  0  0  3  0  0  0  0  0  0
  182.2550  177.4100  134.6500 C   0  0  0  0  0  2  0  0  0  0  0  0
  182.1810  178.9990  142.7800 C   0  0  0  0  0  2  0  0  0  0  0  0
  184.2730  178.1530  141.5890 C   0  0  2  0  0  3  0  0  0  0  0  0
  184.9350  179.6230  143.5400 C   0  0  0  0  0  2  0  0  0  0  0  0
  182.7790  177.9350  141.8550 C   0  0  2  0  0  3  0  0  0  0  0  0
  183.7370  178.9710  138.4260 O   0  0  0  0  0  0  0  0  0  0  0  0
  184.7420  178.6520  139.3600 C   0  0  2  0  0  0  0  0  0  0  0  0
  183.8620  177.6040  138.7680 C   0  0  1  0  0  0  0  0  0  0  0  0
  183.1230  177.7370  135.7780 N   0  0  0  0  0  2  0  0  0  0  0  0
  181.0650  175.7130  136.0250 C   0  0  0  0  0  2  0  0  0  0  0  0
  185.1490  178.2850  142.8430 C   0  0  2  0  0  3  0  0  0  0  0  0
  186.6120  178.1320  142.4740 C   0  0  0  0  0  1  0  0  0  0  0  0
  182.0870  175.9420  137.1470 C   0  0  2  0  0  3  0  0  0  0  0  0
  180.1010  175.0450  139.3190 C   0  0  0  0  0  2  0  0  0  0  0  0
  178.9490  174.2920  138.6870 C   0  0  0  0  0  2  0  0  0  0  0  0
  179.4670  173.0240  138.0440 C   0  0  0  0  0  2  0  0  0  0  0  0
  178.9450  172.9300  136.6260 C   0  0  0  0  0  1  0  0  0  0  0  0
  1  5  1  1  0  0  0
  1 18  1  0  0  0  0
  2 12  1  0  0  0  0
  3 16  1  0  0  0  0
  4  1  1  0  0  0  0
  6 23  1  0  0  0  0
  7 27  1  0  0  0  0
  7 10  1  0  0  0  0
  8 21  1  0  0  0  0
  9 20  1  0  0  0  0
 10  5  1  0  0  0  0
 11  7  1  0  0  0  0
 11  4  1  0  0  0  0
 13 26  1  0  0  0  0
 13  8  1  0  0  0  0
 14  6  1  0  0  0  0
 14 22  1  0  0  0  0
 15  2  1  0  0  0  0
 16 18  1  0  0  0  0
 16 24  1  0  0  0  0
 17 12  1  0  0  0  0
 18 15  1  0  0  0  0
 19 21  1  0  0  0  0
 19 20  1  0  0  0  0
 20  3  1  0  0  0  0
 21 20  1  0  0  0  0
 21  4  1  0  0  0  0
 22 13  1  0  0  0  0
 23 26  1  0  0  0  0
 24 17  1  0  0  0  0
 25 24  1  0  0  0  0
 26 11  1  0  0  0  0
 28 27  1  0  0  0  0
 29 28  1  0  0  0  0
 30 29  1  0  0  0  0
M  END
>  <MODEL>
9

>  <REMARK>
 VINA RESULT:      -6.2      3.971      9.041
  Name = 
  3 active torsions:
  status: ('A' for Active; 'I' for Inactive)
    1  A    between atoms: C_6  and  C_8
    2  A    between atoms: C_6  and  C_21
    3  A    between atoms: C_9  and  C_21
                            x       y       z     vdW  Elec       q    Type
                         _______ _______ _______ _____ _____    ______ ____

>  <TORSDO>
F 3

$$$$
