=
 OpenBabel10262420073D

 27 31  0  0  1  0  0  0  0  0999 V2000
  187.0270  177.1790  143.7210 N   0  0  0  0  0  2  0  0  0  0  0  0
  185.3900  179.0120  144.3240 C   0  0  2  0  0  3  0  0  0  0  0  0
  186.9700  179.0580  141.4580 N   0  0  0  0  0  2  0  0  0  0  0  0
  182.7000  178.5760  142.1780 C   0  0  0  0  0  2  0  0  0  0  0  0
  184.4300  178.2270  143.5720 C   0  0  2  0  0  3  0  0  0  0  0  0
  184.5090  179.2140  140.3000 S   0  0  0  0  0  0  0  0  0  0  0  0
  190.0930  177.1490  140.8130 C   0  0  0  0  0  0  0  0  0  0  0  0
  191.1650  177.1600  139.8780 N   0  0  0  0  0  1  0  0  0  0  0  0
  185.0980  179.3890  142.9250 N   0  0  2  0  0  0  0  0  0  0  0  0
  186.8020  178.4160  144.4650 C   0  0  1  0  0  3  0  0  0  0  0  0
  182.8910  178.5880  140.8890 C   0  0  1  0  0  3  0  0  0  0  0  0
  187.9910  177.1340  142.6680 C   0  0  0  0  0  0  0  0  0  0  0  0
  185.5840  178.7050  141.7280 C   0  0  2  0  0  3  0  0  0  0  0  0
  189.0980  178.1270  140.7470 C   0  0  0  0  0  3  0  0  0  0  0  0
  182.9750  178.5380  143.4520 C   0  0  0  0  0  2  0  0  0  0  0  0
  190.0200  176.1430  141.7790 C   0  0  0  0  0  3  0  0  0  0  0  0
  188.9740  176.1410  142.7060 C   0  0  0  0  0  3  0  0  0  0  0  0
  188.0340  178.1220  141.6540 C   0  0  0  0  0  0  0  0  0  0  0  0
  187.8610  177.8580  148.5880 C   0  0  0  0  0  3  0  0  0  0  0  0
  187.1610  178.2300  145.9030 C   0  0  0  0  0  0  0  0  0  0  0  0
  188.3120  177.5080  146.2340 C   0  0  0  0  0  3  0  0  0  0  0  0
  188.6620  177.3210  147.5750 C   0  0  0  0  0  3  0  0  0  0  0  0
  186.7100  178.5790  148.2610 C   0  0  0  0  0  3  0  0  0  0  0  0
  186.3580  178.7660  146.9220 C   0  0  0  0  0  3  0  0  0  0  0  0
  180.6860  177.4720  140.6650 C   0  0  0  0  0  1  0  0  0  0  0  0
  182.7270  176.4160  139.7240 C   0  0  0  0  0  1  0  0  0  0  0  0
  182.0330  177.7310  140.0170 C   0  0  0  0  0  3  0  0  0  0  0  0
  1 10  1  0  0  0  0
  2 10  1  0  0  0  0
  3 18  1  0  0  0  0
  3 13  1  0  0  0  0
  4 15  1  0  0  0  0
  5  2  1  0  0  0  0
  6 11  1  0  0  0  0
  6 13  1  0  0  0  0
  7 16  1  0  0  0  0
  8  7  1  0  0  0  0
  9  5  1  0  0  0  0
  9  2  1  0  0  0  0
 10 20  1  0  0  0  0
 11  4  1  0  0  0  0
 12 17  1  0  0  0  0
 12  1  1  0  0  0  0
 13  9  1  0  0  0  0
 14  7  2  0  0  0  0
 14 18  1  0  0  0  0
 15  5  1  0  0  0  0
 16 17  2  0  0  0  0
 18 12  2  0  0  0  0
 20 21  2  0  0  0  0
 20 24  1  0  0  0  0
 21 22  1  0  0  0  0
 22 19  2  0  0  0  0
 23 19  1  0  0  0  0
 24 23  2  0  0  0  0
 26 27  1  0  0  0  0
 27 25  1  0  0  0  0
 27 11  1  0  0  0  0
M  END
>  <MODEL>
1

>  <REMARK>
 VINA RESULT:      -8.9      0.000      0.000
  Name = 
  2 active torsions:
  status: ('A' for Active; 'I' for Inactive)
    1  A    between atoms: C_9  and  C_15
    2  A    between atoms: C_16  and  C_17
                            x       y       z     vdW  Elec       q    Type
                         _______ _______ _______ _____ _____    ______ ____

>  <TORSDO>
F 2

$$$$
=
 OpenBabel10262420073D

 27 31  0  0  1  0  0  0  0  0999 V2000
  189.1940  175.9260  137.9940 N   0  0  0  0  0  2  0  0  0  0  0  0
  190.7870  177.4440  139.2420 C   0  0  2  0  0  3  0  0  0  0  0  0
  187.6570  178.2970  138.8120 N   0  0  0  0  0  2  0  0  0  0  0  0
  189.7170  177.3790  142.5400 C   0  0  0  0  0  2  0  0  0  0  0  0
  190.2590  176.8090  140.4340 C   0  0  2  0  0  3  0  0  0  0  0  0
  187.5410  178.5760  141.5200 S   0  0  0  0  0  0  0  0  0  0  0  0
  185.4710  176.8100  136.2000 C   0  0  0  0  0  0  0  0  0  0  0  0
  184.2490  177.1200  135.5410 N   0  0  0  0  0  1  0  0  0  0  0  0
  189.7310  178.1360  140.0110 N   0  0  2  0  0  0  0  0  0  0  0  0
  190.2550  176.9240  137.8940 C   0  0  1  0  0  3  0  0  0  0  0  0
  188.4930  177.7220  142.8310 C   0  0  1  0  0  3  0  0  0  0  0  0
  187.8890  176.2040  137.4810 C   0  0  0  0  0  0  0  0  0  0  0  0
  188.3080  177.8000  140.0150 C   0  0  2  0  0  3  0  0  0  0  0  0
  186.0170  177.7090  137.1190 C   0  0  0  0  0  3  0  0  0  0  0  0
  190.7520  177.0460  141.8210 C   0  0  0  0  0  2  0  0  0  0  0  0
  186.1110  175.5950  135.9470 C   0  0  0  0  0  3  0  0  0  0  0  0
  187.3190  175.2970  136.5830 C   0  0  0  0  0  3  0  0  0  0  0  0
  187.2140  177.4110  137.7800 C   0  0  0  0  0  0  0  0  0  0  0  0
  193.4870  175.4620  135.4740 C   0  0  0  0  0  3  0  0  0  0  0  0
  191.3710  176.4120  137.0430 C   0  0  0  0  0  0  0  0  0  0  0  0
  192.6700  176.3820  137.5610 C   0  0  0  0  0  3  0  0  0  0  0  0
  193.7270  175.9080  136.7770 C   0  0  0  0  0  3  0  0  0  0  0  0
  192.1910  175.4900  134.9530 C   0  0  0  0  0  3  0  0  0  0  0  0
  191.1330  175.9640  135.7340 C   0  0  0  0  0  3  0  0  0  0  0  0
  186.4360  177.6670  144.2180 C   0  0  0  0  0  1  0  0  0  0  0  0
  188.6450  177.1520  145.2290 C   0  0  0  0  0  1  0  0  0  0  0  0
  187.8020  177.0540  143.9740 C   0  0  0  0  0  3  0  0  0  0  0  0
  2  9  1  0  0  0  0
  2  5  1  0  0  0  0
  3 13  1  0  0  0  0
  4 11  1  0  0  0  0
  5 15  1  0  0  0  0
  6 11  1  0  0  0  0
  7 14  1  0  0  0  0
  8  7  1  0  0  0  0
  9 13  1  0  0  0  0
  9  5  1  0  0  0  0
 10  1  1  0  0  0  0
 10  2  1  0  0  0  0
 11 27  1  0  0  0  0
 12 18  1  0  0  0  0
 12  1  1  0  0  0  0
 13  6  1  0  0  0  0
 14 18  2  0  0  0  0
 15  4  1  0  0  0  0
 16  7  2  0  0  0  0
 16 17  1  0  0  0  0
 17 12  2  0  0  0  0
 18  3  1  0  0  0  0
 19 22  1  0  0  0  0
 20 21  1  0  0  0  0
 20 10  1  0  0  0  0
 22 21  2  0  0  0  0
 23 19  2  0  0  0  0
 23 24  1  0  0  0  0
 24 20  2  0  0  0  0
 27 25  1  0  0  0  0
 27 26  1  0  0  0  0
M  END
>  <MODEL>
2

>  <REMARK>
 VINA RESULT:      -7.5      3.845      8.079
  Name = 
  2 active torsions:
  status: ('A' for Active; 'I' for Inactive)
    1  A    between atoms: C_9  and  C_15
    2  A    between atoms: C_16  and  C_17
                            x       y       z     vdW  Elec       q    Type
                         _______ _______ _______ _____ _____    ______ ____

>  <TORSDO>
F 2

$$$$
=
 OpenBabel10262420073D

 27 31  0  0  1  0  0  0  0  0999 V2000
  186.6580  177.4340  142.5220 N   0  0  0  0  0  2  0  0  0  0  0  0
  185.6620  178.9400  140.7500 C   0  0  2  0  0  3  0  0  0  0  0  0
  188.8870  178.9220  141.3080 N   0  0  0  0  0  2  0  0  0  0  0  0
  186.7620  177.6420  137.7270 C   0  0  0  0  0  2  0  0  0  0  0  0
  186.0020  177.8700  139.8310 C   0  0  2  0  0  3  0  0  0  0  0  0
  189.1700  178.3840  138.6530 S   0  0  0  0  0  0  0  0  0  0  0  0
  190.4120  177.6550  144.4520 C   0  0  0  0  0  0  0  0  0  0  0  0
  191.6480  177.7650  145.1470 N   0  0  0  0  0  1  0  0  0  0  0  0
  186.9060  179.0470  139.9580 N   0  0  2  0  0  0  0  0  0  0  0  0
  185.9620  178.6860  142.2380 C   0  0  1  0  0  3  0  0  0  0  0  0
  188.0400  177.5140  137.5030 C   0  0  1  0  0  3  0  0  0  0  0  0
  187.9670  177.4500  143.0960 C   0  0  0  0  0  0  0  0  0  0  0  0
  188.1510  178.3220  140.2060 C   0  0  2  0  0  3  0  0  0  0  0  0
  190.2050  178.3790  143.2760 C   0  0  0  0  0  3  0  0  0  0  0  0
  185.6520  177.8430  138.3810 C   0  0  0  0  0  2  0  0  0  0  0  0
  189.4160  176.8020  144.9320 C   0  0  0  0  0  3  0  0  0  0  0  0
  188.1950  176.7060  144.2570 C   0  0  0  0  0  3  0  0  0  0  0  0
  188.9970  178.2720  142.5780 C   0  0  0  0  0  0  0  0  0  0  0  0
  182.3590  178.9700  144.5570 C   0  0  0  0  0  3  0  0  0  0  0  0
  184.7150  178.7840  143.0560 C   0  0  0  0  0  0  0  0  0  0  0  0
  183.4730  178.7970  142.4140 C   0  0  0  0  0  3  0  0  0  0  0  0
  182.2960  178.8910  143.1630 C   0  0  0  0  0  3  0  0  0  0  0  0
  183.5980  178.9560  145.2030 C   0  0  0  0  0  3  0  0  0  0  0  0
  184.7760  178.8640  144.4560 C   0  0  0  0  0  3  0  0  0  0  0  0
  187.6370  175.1610  136.8290 C   0  0  0  0  0  1  0  0  0  0  0  0
  189.9540  176.0330  137.0110 C   0  0  0  0  0  1  0  0  0  0  0  0
  188.5220  176.3810  136.6590 C   0  0  0  0  0  3  0  0  0  0  0  0
  1 12  1  0  0  0  0
  2 10  1  0  0  0  0
  3 18  1  0  0  0  0
  4 15  1  0  0  0  0
  5  9  1  0  0  0  0
  5  2  1  0  0  0  0
  6 13  1  0  0  0  0
  7 16  1  0  0  0  0
  7  8  1  0  0  0  0
  9 13  1  0  0  0  0
  9  2  1  0  0  0  0
 10  1  1  0  0  0  0
 10 20  1  0  0  0  0
 11  4  1  0  0  0  0
 11  6  1  0  0  0  0
 12 17  1  0  0  0  0
 13  3  1  0  0  0  0
 14  7  2  0  0  0  0
 15  5  1  0  0  0  0
 17 16  2  0  0  0  0
 18 12  2  0  0  0  0
 18 14  1  0  0  0  0
 19 23  1  0  0  0  0
 20 24  1  0  0  0  0
 21 20  2  0  0  0  0
 21 22  1  0  0  0  0
 22 19  2  0  0  0  0
 24 23  2  0  0  0  0
 27 25  1  0  0  0  0
 27 26  1  0  0  0  0
 27 11  1  0  0  0  0
M  END
>  <MODEL>
3

>  <REMARK>
 VINA RESULT:      -7.5      2.683      4.860
  Name = 
  2 active torsions:
  status: ('A' for Active; 'I' for Inactive)
    1  A    between atoms: C_9  and  C_15
    2  A    between atoms: C_16  and  C_17
                            x       y       z     vdW  Elec       q    Type
                         _______ _______ _______ _____ _____    ______ ____

>  <TORSDO>
F 2

$$$$
=
 OpenBabel10262420073D

 27 31  0  0  1  0  0  0  0  0999 V2000
  188.7740  176.8090  141.1320 N   0  0  0  0  0  2  0  0  0  0  0  0
  189.0880  177.9350  138.8880 C   0  0  2  0  0  3  0  0  0  0  0  0
  191.5150  177.8780  141.0830 N   0  0  0  0  0  2  0  0  0  0  0  0
  191.3610  175.9480  137.1800 C   0  0  0  0  0  2  0  0  0  0  0  0
  189.6750  176.6730  138.4800 C   0  0  2  0  0  3  0  0  0  0  0  0
  193.0320  176.7530  139.1210 S   0  0  0  0  0  0  0  0  0  0  0  0
  190.9790  177.2600  144.7090 C   0  0  0  0  0  0  0  0  0  0  0  0
  191.6810  177.4580  145.9300 N   0  0  0  0  0  1  0  0  0  0  0  0
  190.5600  177.8010  138.8820 N   0  0  2  0  0  0  0  0  0  0  0  0
  188.5340  178.0010  140.3220 C   0  0  1  0  0  3  0  0  0  0  0  0
  192.5320  175.7100  137.7000 C   0  0  1  0  0  3  0  0  0  0  0  0
  189.5840  176.8850  142.3060 C   0  0  0  0  0  0  0  0  0  0  0  0
  191.3650  177.0870  139.8710 C   0  0  2  0  0  3  0  0  0  0  0  0
  191.5260  177.7160  143.5080 C   0  0  0  0  0  3  0  0  0  0  0  0
  190.1220  176.3440  137.0950 C   0  0  0  0  0  2  0  0  0  0  0  0
  189.7560  176.5860  144.7080 C   0  0  0  0  0  3  0  0  0  0  0  0
  189.0590  176.4050  143.5100 C   0  0  0  0  0  3  0  0  0  0  0  0
  190.8500  177.5190  142.2980 C   0  0  0  0  0  0  0  0  0  0  0  0
  184.3520  178.9730  140.2660 C   0  0  0  0  0  3  0  0  0  0  0  0
  187.0790  178.3400  140.3160 C   0  0  0  0  0  0  0  0  0  0  0  0
  186.3740  178.3110  139.1080 C   0  0  0  0  0  3  0  0  0  0  0  0
  185.0120  178.6280  139.0830 C   0  0  0  0  0  3  0  0  0  0  0  0
  185.0530  179.0030  141.4740 C   0  0  0  0  0  3  0  0  0  0  0  0
  186.4140  178.6880  141.5020 C   0  0  0  0  0  3  0  0  0  0  0  0
  194.6130  174.3840  137.9680 C   0  0  0  0  0  1  0  0  0  0  0  0
  193.1880  174.0880  135.9570 C   0  0  0  0  0  1  0  0  0  0  0  0
  193.1900  174.3950  137.4410 C   0  0  0  0  0  3  0  0  0  0  0  0
  1 12  1  0  0  0  0
  2 10  1  0  0  0  0
  3 18  1  0  0  0  0
  4 11  1  0  0  0  0
  5  9  1  0  0  0  0
  5  2  1  0  0  0  0
  6 13  1  0  0  0  0
  7  8  1  0  0  0  0
  9  2  1  0  0  0  0
  9 13  1  0  0  0  0
 10  1  1  0  0  0  0
 11  6  1  0  0  0  0
 12 17  1  0  0  0  0
 13  3  1  0  0  0  0
 14  7  2  0  0  0  0
 15  4  1  0  0  0  0
 15  5  1  0  0  0  0
 16  7  1  0  0  0  0
 17 16  2  0  0  0  0
 18 12  2  0  0  0  0
 18 14  1  0  0  0  0
 19 23  1  0  0  0  0
 20 10  1  0  0  0  0
 20 24  1  0  0  0  0
 21 20  2  0  0  0  0
 22 21  1  0  0  0  0
 22 19  2  0  0  0  0
 23 24  2  0  0  0  0
 26 27  1  0  0  0  0
 27 11  1  0  0  0  0
 27 25  1  0  0  0  0
M  END
>  <MODEL>
4

>  <REMARK>
 VINA RESULT:      -7.2      3.517      7.552
  Name = 
  2 active torsions:
  status: ('A' for Active; 'I' for Inactive)
    1  A    between atoms: C_9  and  C_15
    2  A    between atoms: C_16  and  C_17
                            x       y       z     vdW  Elec       q    Type
                         _______ _______ _______ _____ _____    ______ ____

>  <TORSDO>
F 2

$$$$
=
 OpenBabel10262420073D

 27 31  0  0  1  0  0  0  0  0999 V2000
  187.9020  176.9990  142.9150 N   0  0  0  0  0  2  0  0  0  0  0  0
  187.6840  178.3520  140.7880 C   0  0  2  0  0  3  0  0  0  0  0  0
  190.5140  178.2630  142.4300 N   0  0  0  0  0  2  0  0  0  0  0  0
  189.6510  176.7050  138.4530 C   0  0  0  0  0  2  0  0  0  0  0  0
  188.2370  177.1800  140.1370 C   0  0  2  0  0  3  0  0  0  0  0  0
  191.6450  177.4420  140.0920 S   0  0  0  0  0  0  0  0  0  0  0  0
  190.7760  177.2670  146.0010 C   0  0  0  0  0  0  0  0  0  0  0  0
  191.7060  177.3990  147.0690 N   0  0  0  0  0  1  0  0  0  0  0  0
  189.1270  178.3260  140.4710 N   0  0  2  0  0  0  0  0  0  0  0  0
  187.4370  178.2420  142.3040 C   0  0  1  0  0  3  0  0  0  0  0  0
  190.9150  176.5040  138.6980 C   0  0  1  0  0  3  0  0  0  0  0  0
  188.9340  177.0210  143.9030 C   0  0  0  0  0  0  0  0  0  0  0  0
  190.1560  177.5810  141.1950 C   0  0  2  0  0  3  0  0  0  0  0  0
  191.0380  177.8730  144.7700 C   0  0  0  0  0  3  0  0  0  0  0  0
  188.4020  177.0170  138.6630 C   0  0  0  0  0  2  0  0  0  0  0  0
  189.6160  176.5090  146.1750 C   0  0  0  0  0  3  0  0  0  0  0  0
  188.6960  176.3930  145.1290 C   0  0  0  0  0  3  0  0  0  0  0  0
  190.1350  177.7440  143.7080 C   0  0  0  0  0  0  0  0  0  0  0  0
  183.3070  178.9040  143.2710 C   0  0  0  0  0  3  0  0  0  0  0  0
  185.9980  178.4730  142.6270 C   0  0  0  0  0  0  0  0  0  0  0  0
  185.6030  178.5710  143.9660 C   0  0  0  0  0  3  0  0  0  0  0  0
  184.2590  178.7850  144.2880 C   0  0  0  0  0  3  0  0  0  0  0  0
  183.6970  178.8070  141.9330 C   0  0  0  0  0  3  0  0  0  0  0  0
  185.0390  178.5920  141.6090 C   0  0  0  0  0  3  0  0  0  0  0  0
  192.9230  175.5910  137.5610 C   0  0  0  0  0  1  0  0  0  0  0  0
  190.6850  174.6020  137.1390 C   0  0  0  0  0  1  0  0  0  0  0  0
  191.5710  175.2710  138.1710 C   0  0  0  0  0  3  0  0  0  0  0  0
  1 12  1  0  0  0  0
  2 10  1  0  0  0  0
  3 18  1  0  0  0  0
  4 15  1  0  0  0  0
  4 11  1  0  0  0  0
  5  9  1  0  0  0  0
  5  2  1  0  0  0  0
  6 13  1  0  0  0  0
  7 16  1  0  0  0  0
  7  8  1  0  0  0  0
  9  2  1  0  0  0  0
  9 13  1  0  0  0  0
 10 20  1  0  0  0  0
 10  1  1  0  0  0  0
 11  6  1  0  0  0  0
 12 17  1  0  0  0  0
 13  3  1  0  0  0  0
 14  7  2  0  0  0  0
 15  5  1  0  0  0  0
 17 16  2  0  0  0  0
 18 12  2  0  0  0  0
 18 14  1  0  0  0  0
 19 22  1  0  0  0  0
 20 21  1  0  0  0  0
 21 22  2  0  0  0  0
 23 19  2  0  0  0  0
 24 23  1  0  0  0  0
 24 20  2  0  0  0  0
 25 27  1  0  0  0  0
 26 27  1  0  0  0  0
 27 11  1  0  0  0  0
M  END
>  <MODEL>
5

>  <REMARK>
 VINA RESULT:      -7.0      2.794      6.148
  Name = 
  2 active torsions:
  status: ('A' for Active; 'I' for Inactive)
    1  A    between atoms: C_9  and  C_15
    2  A    between atoms: C_16  and  C_17
                            x       y       z     vdW  Elec       q    Type
                         _______ _______ _______ _____ _____    ______ ____

>  <TORSDO>
F 2

$$$$
=
 OpenBabel10262420073D

 27 31  0  0  1  0  0  0  0  0999 V2000
  187.8320  177.0340  142.6990 N   0  0  0  0  0  2  0  0  0  0  0  0
  186.3590  178.7460  143.8400 C   0  0  2  0  0  3  0  0  0  0  0  0
  187.2640  179.1340  140.7180 N   0  0  0  0  0  2  0  0  0  0  0  0
  183.2630  178.4550  142.3030 C   0  0  0  0  0  2  0  0  0  0  0  0
  185.2610  178.0150  143.2380 C   0  0  2  0  0  3  0  0  0  0  0  0
  184.6070  179.3360  140.1540 S   0  0  0  0  0  0  0  0  0  0  0  0
  190.1770  177.3940  139.2020 C   0  0  0  0  0  0  0  0  0  0  0  0
  191.0150  177.5330  138.0610 N   0  0  0  0  0  1  0  0  0  0  0  0
  185.7620  179.2570  142.5880 N   0  0  2  0  0  0  0  0  0  0  0  0
  187.7710  178.1800  143.6020 C   0  0  1  0  0  3  0  0  0  0  0  0
  183.1640  178.6050  141.0130 C   0  0  1  0  0  3  0  0  0  0  0  0
  188.5390  177.1260  141.4610 C   0  0  0  0  0  0  0  0  0  0  0  0
  185.9750  178.7140  141.2470 C   0  0  2  0  0  3  0  0  0  0  0  0
  189.1870  178.3440  139.4610 C   0  0  0  0  0  3  0  0  0  0  0  0
  183.8140  178.2940  143.4740 C   0  0  0  0  0  2  0  0  0  0  0  0
  190.3260  176.2920  140.0470 C   0  0  0  0  0  3  0  0  0  0  0  0
  189.5120  176.1630  141.1750 C   0  0  0  0  0  3  0  0  0  0  0  0
  188.3500  178.2140  140.5750 C   0  0  0  0  0  0  0  0  0  0  0  0
  189.7290  177.2490  147.3080 C   0  0  0  0  0  3  0  0  0  0  0  0
  188.4400  177.8570  144.8970 C   0  0  0  0  0  0  0  0  0  0  0  0
  189.8350  177.7610  144.9430 C   0  0  0  0  0  3  0  0  0  0  0  0
  190.4790  177.4570  146.1470 C   0  0  0  0  0  3  0  0  0  0  0  0
  188.3350  177.3440  147.2670 C   0  0  0  0  0  3  0  0  0  0  0  0
  187.6900  177.6470  146.0650 C   0  0  0  0  0  3  0  0  0  0  0  0
  182.1340  178.1910  138.7940 C   0  0  0  0  0  1  0  0  0  0  0  0
  180.7630  178.0460  140.8590 C   0  0  0  0  0  1  0  0  0  0  0  0
  182.1380  177.8190  140.2640 C   0  0  0  0  0  3  0  0  0  0  0  0
  1 10  1  0  0  0  0
  3 13  1  0  0  0  0
  4 15  1  0  0  0  0
  5 15  1  0  0  0  0
  5  2  1  0  0  0  0
  6 11  1  0  0  0  0
  6 13  1  0  0  0  0
  7 14  2  0  0  0  0
  7 16  1  0  0  0  0
  8  7  1  0  0  0  0
  9  5  1  0  0  0  0
  9  2  1  0  0  0  0
 10  2  1  0  0  0  0
 10 20  1  0  0  0  0
 11  4  1  0  0  0  0
 12  1  1  0  0  0  0
 13  9  1  0  0  0  0
 14 18  1  0  0  0  0
 16 17  2  0  0  0  0
 17 12  1  0  0  0  0
 18  3  1  0  0  0  0
 18 12  2  0  0  0  0
 20 21  2  0  0  0  0
 20 24  1  0  0  0  0
 21 22  1  0  0  0  0
 22 19  2  0  0  0  0
 23 19  1  0  0  0  0
 24 23  2  0  0  0  0
 25 27  1  0  0  0  0
 27 26  1  0  0  0  0
 27 11  1  0  0  0  0
M  END
>  <MODEL>
6

>  <REMARK>
 VINA RESULT:      -6.9      1.124      1.559
  Name = 
  2 active torsions:
  status: ('A' for Active; 'I' for Inactive)
    1  A    between atoms: C_9  and  C_15
    2  A    between atoms: C_16  and  C_17
                            x       y       z     vdW  Elec       q    Type
                         _______ _______ _______ _____ _____    ______ ____

>  <TORSDO>
F 2

$$$$
=
 OpenBabel10262420073D

 27 31  0  0  1  0  0  0  0  0999 V2000
  190.4750  175.1920  138.1250 N   0  0  0  0  0  2  0  0  0  0  0  0
  191.8050  177.1120  139.0980 C   0  0  2  0  0  3  0  0  0  0  0  0
  188.6920  177.5310  138.1800 N   0  0  0  0  0  2  0  0  0  0  0  0
  190.3730  177.7380  142.1940 C   0  0  0  0  0  2  0  0  0  0  0  0
  191.1910  176.7340  140.3560 C   0  0  2  0  0  3  0  0  0  0  0  0
  188.2490  178.4390  140.7100 S   0  0  0  0  0  0  0  0  0  0  0  0
  186.9290  175.2570  135.8280 C   0  0  0  0  0  0  0  0  0  0  0  0
  185.7710  175.2810  135.0020 N   0  0  0  0  0  1  0  0  0  0  0  0
  190.6220  177.8630  139.5690 N   0  0  2  0  0  0  0  0  0  0  0  0
  191.4680  176.2340  137.8790 C   0  0  1  0  0  3  0  0  0  0  0  0
  189.1030  178.0200  142.2750 C   0  0  1  0  0  3  0  0  0  0  0  0
  189.2210  175.2120  137.4400 C   0  0  0  0  0  0  0  0  0  0  0  0
  189.2350  177.4030  139.5240 C   0  0  2  0  0  3  0  0  0  0  0  0
  187.3010  176.3980  136.5410 C   0  0  0  0  0  3  0  0  0  0  0  0
  191.5050  177.3440  141.6810 C   0  0  0  0  0  2  0  0  0  0  0  0
  187.6770  174.0840  135.9470 C   0  0  0  0  0  3  0  0  0  0  0  0
  188.8230  174.0650  136.7470 C   0  0  0  0  0  3  0  0  0  0  0  0
  188.4330  176.3850  137.3640 C   0  0  0  0  0  0  0  0  0  0  0  0
  195.0250  174.5040  136.2080 C   0  0  0  0  0  3  0  0  0  0  0  0
  192.7070  175.6430  137.2890 C   0  0  0  0  0  0  0  0  0  0  0  0
  193.0970  174.3540  137.6660 C   0  0  0  0  0  3  0  0  0  0  0  0
  194.2550  173.7850  137.1270 C   0  0  0  0  0  3  0  0  0  0  0  0
  194.6380  175.7930  135.8290 C   0  0  0  0  0  3  0  0  0  0  0  0
  193.4820  176.3630  136.3670 C   0  0  0  0  0  3  0  0  0  0  0  0
  189.1270  177.8290  144.7490 C   0  0  0  0  0  1  0  0  0  0  0  0
  187.9770  176.1150  143.3710 C   0  0  0  0  0  1  0  0  0  0  0  0
  188.3350  177.5830  143.4790 C   0  0  0  0  0  3  0  0  0  0  0  0
  2  9  1  0  0  0  0
  2  5  1  0  0  0  0
  3 13  1  0  0  0  0
  4 11  1  0  0  0  0
  5 15  1  0  0  0  0
  6 11  1  0  0  0  0
  7 16  2  0  0  0  0
  7 14  1  0  0  0  0
  8  7  1  0  0  0  0
  9  5  1  0  0  0  0
 10  1  1  0  0  0  0
 10  2  1  0  0  0  0
 11 27  1  0  0  0  0
 12  1  1  0  0  0  0
 13  9  1  0  0  0  0
 13  6  1  0  0  0  0
 14 18  2  0  0  0  0
 15  4  1  0  0  0  0
 16 17  1  0  0  0  0
 17 12  2  0  0  0  0
 18 12  1  0  0  0  0
 18  3  1  0  0  0  0
 19 22  1  0  0  0  0
 20 21  1  0  0  0  0
 20 10  1  0  0  0  0
 22 21  2  0  0  0  0
 23 19  2  0  0  0  0
 23 24  1  0  0  0  0
 24 20  2  0  0  0  0
 26 27  1  0  0  0  0
 27 25  1  0  0  0  0
M  END
>  <MODEL>
7

>  <REMARK>
 VINA RESULT:      -6.8      4.300      8.470
  Name = 
  2 active torsions:
  status: ('A' for Active; 'I' for Inactive)
    1  A    between atoms: C_9  and  C_15
    2  A    between atoms: C_16  and  C_17
                            x       y       z     vdW  Elec       q    Type
                         _______ _______ _______ _____ _____    ______ ____

>  <TORSDO>
F 2

$$$$
=
 OpenBabel10262420073D

 27 31  0  0  1  0  0  0  0  0999 V2000
  188.3380  177.0350  140.2310 N   0  0  0  0  0  2  0  0  0  0  0  0
  187.2410  178.7430  141.7410 C   0  0  2  0  0  3  0  0  0  0  0  0
  186.9140  178.9300  138.4890 N   0  0  0  0  0  2  0  0  0  0  0  0
  183.8350  178.1460  141.4710 C   0  0  0  0  0  2  0  0  0  0  0  0
  186.0650  177.9020  141.6260 C   0  0  2  0  0  3  0  0  0  0  0  0
  184.2260  178.9290  138.9330 S   0  0  0  0  0  0  0  0  0  0  0  0
  189.2120  177.2480  136.1020 C   0  0  0  0  0  0  0  0  0  0  0  0
  189.5640  177.3440  134.7270 N   0  0  0  0  0  1  0  0  0  0  0  0
  186.1890  179.1160  140.7710 N   0  0  2  0  0  0  0  0  0  0  0  0
  188.5130  178.2450  141.0300 C   0  0  1  0  0  3  0  0  0  0  0  0
  183.2610  178.1860  140.3010 C   0  0  1  0  0  3  0  0  0  0  0  0
  188.5370  177.0680  138.8160 C   0  0  0  0  0  0  0  0  0  0  0  0
  185.9450  178.4790  139.4770 C   0  0  2  0  0  3  0  0  0  0  0  0
  188.3080  178.1570  136.6560 C   0  0  0  0  0  3  0  0  0  0  0  0
  184.7860  178.1140  142.3630 C   0  0  0  0  0  2  0  0  0  0  0  0
  189.7510  176.2290  136.8900 C   0  0  0  0  0  3  0  0  0  0  0  0
  189.4170  176.1450  138.2450 C   0  0  0  0  0  3  0  0  0  0  0  0
  187.9470  178.0680  138.0050 C   0  0  0  0  0  0  0  0  0  0  0  0
  191.7110  177.7570  143.8530 C   0  0  0  0  0  3  0  0  0  0  0  0
  189.6320  178.0680  142.0030 C   0  0  0  0  0  0  0  0  0  0  0  0
  189.4810  178.5330  143.3130 C   0  0  0  0  0  3  0  0  0  0  0  0
  190.5190  178.3780  144.2380 C   0  0  0  0  0  3  0  0  0  0  0  0
  191.8660  177.2910  142.5450 C   0  0  0  0  0  3  0  0  0  0  0  0
  190.8300  177.4450  141.6200 C   0  0  0  0  0  3  0  0  0  0  0  0
  182.5690  175.9730  139.4160 C   0  0  0  0  0  1  0  0  0  0  0  0
  181.1140  177.9600  139.1020 C   0  0  0  0  0  1  0  0  0  0  0  0
  182.1050  177.2820  140.0270 C   0  0  0  0  0  3  0  0  0  0  0  0
  1 10  1  0  0  0  0
  3 13  1  0  0  0  0
  4 15  1  0  0  0  0
  5  2  1  0  0  0  0
  5 15  1  0  0  0  0
  6 13  1  0  0  0  0
  6 11  1  0  0  0  0
  7 14  2  0  0  0  0
  7 16  1  0  0  0  0
  8  7  1  0  0  0  0
  9  5  1  0  0  0  0
  9  2  1  0  0  0  0
 10  2  1  0  0  0  0
 10 20  1  0  0  0  0
 11  4  1  0  0  0  0
 12  1  1  0  0  0  0
 13  9  1  0  0  0  0
 14 18  1  0  0  0  0
 16 17  2  0  0  0  0
 17 12  1  0  0  0  0
 18  3  1  0  0  0  0
 18 12  2  0  0  0  0
 19 22  1  0  0  0  0
 20 21  1  0  0  0  0
 21 22  2  0  0  0  0
 23 19  2  0  0  0  0
 24 20  2  0  0  0  0
 24 23  1  0  0  0  0
 25 27  1  0  0  0  0
 26 27  1  0  0  0  0
 27 11  1  0  0  0  0
M  END
>  <MODEL>
8

>  <REMARK>
 VINA RESULT:      -6.6      2.628      3.971
  Name = 
  2 active torsions:
  status: ('A' for Active; 'I' for Inactive)
    1  A    between atoms: C_9  and  C_15
    2  A    between atoms: C_16  and  C_17
                            x       y       z     vdW  Elec       q    Type
                         _______ _______ _______ _____ _____    ______ ____

>  <TORSDO>
F 2

$$$$
=
 OpenBabel10262420073D

 27 31  0  0  1  0  0  0  0  0999 V2000
  186.6970  178.9240  141.8440 N   0  0  0  0  0  2  0  0  0  0  0  0
  185.0040  177.9070  143.4260 C   0  0  2  0  0  3  0  0  0  0  0  0
  187.9300  176.5080  142.9840 N   0  0  0  0  0  2  0  0  0  0  0  0
  186.3370  178.3490  146.5980 C   0  0  0  0  0  2  0  0  0  0  0  0
  185.7150  178.6390  144.4560 C   0  0  2  0  0  3  0  0  0  0  0  0
  188.2230  176.6700  145.6880 S   0  0  0  0  0  0  0  0  0  0  0  0
  190.0910  177.1730  140.0350 C   0  0  0  0  0  0  0  0  0  0  0  0
  191.1970  176.5680  139.3760 N   0  0  0  0  0  1  0  0  0  0  0  0
  186.0060  177.1940  144.2460 N   0  0  2  0  0  0  0  0  0  0  0  0
  185.4960  178.1040  141.9800 C   0  0  1  0  0  3  0  0  0  0  0  0
  187.5160  177.8700  146.8770 C   0  0  1  0  0  3  0  0  0  0  0  0
  187.9010  178.3610  141.3180 C   0  0  0  0  0  0  0  0  0  0  0  0
  187.4580  177.2950  144.1140 C   0  0  2  0  0  3  0  0  0  0  0  0
  189.4960  176.5380  141.1270 C   0  0  0  0  0  3  0  0  0  0  0  0
  185.3060  178.7180  145.8880 C   0  0  0  0  0  2  0  0  0  0  0  0
  189.6190  178.4150  139.6060 C   0  0  0  0  0  3  0  0  0  0  0  0
  188.5230  179.0030  140.2440 C   0  0  0  0  0  3  0  0  0  0  0  0
  188.4130  177.1280  141.7890 C   0  0  0  0  0  0  0  0  0  0  0  0
  182.3270  179.6220  139.5130 C   0  0  0  0  0  3  0  0  0  0  0  0
  184.4030  178.6370  141.1140 C   0  0  0  0  0  0  0  0  0  0  0  0
  183.0740  178.5090  141.5310 C   0  0  0  0  0  3  0  0  0  0  0  0
  182.0360  179.0010  140.7310 C   0  0  0  0  0  3  0  0  0  0  0  0
  183.6530  179.7520  139.0930 C   0  0  0  0  0  3  0  0  0  0  0  0
  184.6910  179.2610  139.8900 C   0  0  0  0  0  3  0  0  0  0  0  0
  189.8490  178.2530  147.6310 C   0  0  0  0  0  1  0  0  0  0  0  0
  187.9830  178.2780  149.2680 C   0  0  0  0  0  1  0  0  0  0  0  0
  188.3880  178.6010  147.8440 C   0  0  0  0  0  3  0  0  0  0  0  0
  1 10  1  0  0  0  0
  2  9  1  0  0  0  0
  2  5  1  0  0  0  0
  3 13  1  0  0  0  0
  4 11  1  0  0  0  0
  5 15  1  0  0  0  0
  6 11  1  0  0  0  0
  7 14  1  0  0  0  0
  8  7  1  0  0  0  0
  9  5  1  0  0  0  0
 10  2  1  0  0  0  0
 11 27  1  0  0  0  0
 12 18  1  0  0  0  0
 12  1  1  0  0  0  0
 13  9  1  0  0  0  0
 13  6  1  0  0  0  0
 14 18  2  0  0  0  0
 15  4  1  0  0  0  0
 16  7  2  0  0  0  0
 16 17  1  0  0  0  0
 17 12  2  0  0  0  0
 18  3  1  0  0  0  0
 19 22  1  0  0  0  0
 20 21  1  0  0  0  0
 20 10  1  0  0  0  0
 22 21  2  0  0  0  0
 23 19  2  0  0  0  0
 23 24  1  0  0  0  0
 24 20  2  0  0  0  0
 25 27  1  0  0  0  0
 27 26  1  0  0  0  0
M  END
>  <MODEL>
9

>  <REMARK>
 VINA RESULT:      -6.4      1.830      6.170
  Name = 
  2 active torsions:
  status: ('A' for Active; 'I' for Inactive)
    1  A    between atoms: C_9  and  C_15
    2  A    between atoms: C_16  and  C_17
                            x       y       z     vdW  Elec       q    Type
                         _______ _______ _______ _____ _____    ______ ____

>  <TORSDO>
F 2

$$$$
