=
 OpenBabel10262419573D

 25 28  0  0  1  0  0  0  0  0999 V2000
  189.1250  177.1140  144.0060 C   0  0  0  0  0  0  0  0  0  0  0  0
  188.1090  177.5680  144.8770 C   0  0  0  0  0  0  0  0  0  0  0  0
  190.7610  177.2410  145.7370 C   0  0  0  0  0  3  0  0  0  0  0  0
  188.9680  176.8250  142.6200 N   0  0  0  0  0  0  0  0  0  0  0  0
  185.7760  178.4650  144.8960 N   0  0  0  0  0  0  0  0  0  0  0  0
  191.1680  176.6400  139.8970 O   0  0  0  0  0  0  0  0  0  0  0  0
  189.7870  177.6300  146.5990 N   0  0  0  0  0  0  0  0  0  0  0  0
  190.1290  176.1620  142.0440 C   0  0  1  0  0  3  0  0  0  0  0  0
  190.2700  176.8670  140.7480 C   0  0  0  0  0  0  0  0  0  0  0  0
  187.6010  178.0110  147.2680 C   0  0  0  0  0  0  0  0  0  0  0  0
  188.1270  178.2130  148.6560 C   0  0  0  0  0  1  0  0  0  0  0  0
  186.9360  177.8710  144.3020 C   0  0  0  0  0  3  0  0  0  0  0  0
  189.1980  177.8330  140.5790 C   0  0  0  0  0  3  0  0  0  0  0  0
  190.4160  176.9510  144.4320 C   0  0  0  0  0  0  0  0  0  0  0  0
  191.5640  176.4630  143.1530 S   0  0  0  0  0  0  0  0  0  0  0  0
  186.1420  177.8800  147.2250 C   0  0  0  0  0  3  0  0  0  0  0  0
  188.4700  177.7890  141.6870 C   0  0  0  0  0  3  0  0  0  0  0  0
  185.3380  178.0710  146.1930 C   0  0  0  0  0  3  0  0  0  0  0  0
  188.4670  177.7700  146.2520 C   0  0  0  0  0  0  0  0  0  0  0  0
  183.3960  179.1260  144.6560 C   0  0  0  0  0  1  0  0  0  0  0  0
  184.7610  179.0170  143.9810 C   0  0  2  0  0  3  0  0  0  0  0  0
  184.6120  178.1600  142.7230 C   0  0  0  0  0  2  0  0  0  0  0  0
  184.6920  179.0020  141.4960 C   0  0  0  0  0  0  0  0  0  0  0  0
  183.6490  178.9950  140.5800 O   0  0  0  0  0  0  0  0  0  0  0  0
  185.7160  179.7000  141.2780 O   0  0  0  0  0  1  0  0  0  0  0  0
  1 14  2  0  0  0  0
  1  2  1  0  0  0  0
  2 19  1  0  0  0  0
  3  7  2  0  0  0  0
  4  1  1  0  0  0  0
  5 18  1  0  0  0  0
  6  9  2  0  0  0  0
  8  9  1  6  0  0  0
  8  4  1  0  0  0  0
  8 15  1  0  0  0  0
 10 11  1  0  0  0  0
 12  2  2  0  0  0  0
 12  5  1  0  0  0  0
 13  9  1  0  0  0  0
 13 17  2  0  0  0  0
 14  3  1  0  0  0  0
 15 14  1  0  0  0  0
 16 10  1  0  0  0  0
 17  4  1  0  0  0  0
 18 16  2  0  0  0  0
 19  7  1  0  0  0  0
 19 10  2  0  0  0  0
 21 20  1  1  0  0  0
 21  5  1  0  0  0  0
 22 21  1  0  0  0  0
 23 22  1  0  0  0  0
 24 23  2  0  0  0  0
 25 23  1  0  0  0  0
M  END
>  <MODEL>
1

>  <REMARK>
 VINA RESULT:      -9.2      0.000      0.000
  Name = 
  3 active torsions:
  status: ('A' for Active; 'I' for Inactive)
    1  A    between atoms: C_2  and  C_15
    2  A    between atoms: N_6  and  C_25
    3  A    between atoms: C_15  and  C_25
                            x       y       z     vdW  Elec       q    Type
                         _______ _______ _______ _____ _____    ______ ____

>  <TORSDO>
F 3

$$$$
=
 OpenBabel10262419573D

 25 28  0  0  1  0  0  0  0  0999 V2000
  187.4040  178.0810  145.2690 C   0  0  0  0  0  0  0  0  0  0  0  0
  188.6810  177.6660  144.8270 C   0  0  0  0  0  0  0  0  0  0  0  0
  187.8310  177.2770  147.4730 C   0  0  0  0  0  3  0  0  0  0  0  0
  186.3950  178.6750  144.4600 N   0  0  0  0  0  0  0  0  0  0  0  0
  190.0240  177.2650  142.7570 N   0  0  0  0  0  0  0  0  0  0  0  0
  182.9120  178.9790  144.7280 O   0  0  0  0  0  0  0  0  0  0  0  0
  189.0790  176.9190  147.0790 N   0  0  0  0  0  0  0  0  0  0  0  0
  185.2810  179.2000  145.2370 C   0  0  1  0  0  3  0  0  0  0  0  0
  184.1160  178.7640  144.4310 C   0  0  0  0  0  0  0  0  0  0  0  0
  190.8860  176.8480  145.6290 C   0  0  0  0  0  0  0  0  0  0  0  0
  191.6850  176.2640  146.7520 C   0  0  0  0  0  1  0  0  0  0  0  0
  188.8930  177.7270  143.5040 C   0  0  0  0  0  3  0  0  0  0  0  0
  184.5600  178.0860  143.2260 C   0  0  0  0  0  3  0  0  0  0  0  0
  186.9960  177.8920  146.5630 C   0  0  0  0  0  0  0  0  0  0  0  0
  185.3150  178.3980  146.8910 S   0  0  0  0  0  0  0  0  0  0  0  0
  191.7170  177.2720  144.4980 C   0  0  0  0  0  3  0  0  0  0  0  0
  185.8850  178.0420  143.2810 C   0  0  0  0  0  3  0  0  0  0  0  0
  191.3480  177.4610  143.2430 C   0  0  0  0  0  3  0  0  0  0  0  0
  189.5690  177.1180  145.8130 C   0  0  0  0  0  0  0  0  0  0  0  0
  191.1640  177.3740  140.5560 C   0  0  0  0  0  1  0  0  0  0  0  0
  189.8540  177.1260  141.2990 C   0  0  2  0  0  3  0  0  0  0  0  0
  188.8010  178.0950  140.7610 C   0  0  0  0  0  2  0  0  0  0  0  0
  188.7320  178.0300  139.2740 C   0  0  0  0  0  0  0  0  0  0  0  0
  189.0160  179.1570  138.5150 O   0  0  0  0  0  0  0  0  0  0  0  0
  188.3910  176.9600  138.7060 O   0  0  0  0  0  1  0  0  0  0  0  0
  1 14  2  0  0  0  0
  2  1  1  0  0  0  0
  2 19  1  0  0  0  0
  4  8  1  0  0  0  0
  4  1  1  0  0  0  0
  5 18  1  0  0  0  0
  5 12  1  0  0  0  0
  7  3  2  0  0  0  0
  8  9  1  6  0  0  0
  8 15  1  0  0  0  0
  9  6  2  0  0  0  0
 10 19  2  0  0  0  0
 10 11  1  0  0  0  0
 12  2  2  0  0  0  0
 13 17  2  0  0  0  0
 13  9  1  0  0  0  0
 14 15  1  0  0  0  0
 14  3  1  0  0  0  0
 16 10  1  0  0  0  0
 17  4  1  0  0  0  0
 18 16  2  0  0  0  0
 19  7  1  0  0  0  0
 21 20  1  6  0  0  0
 21  5  1  0  0  0  0
 22 21  1  0  0  0  0
 23 22  1  0  0  0  0
 24 23  2  0  0  0  0
 25 23  1  0  0  0  0
M  END
>  <MODEL>
2

>  <REMARK>
 VINA RESULT:      -9.0      2.253      5.303
  Name = 
  3 active torsions:
  status: ('A' for Active; 'I' for Inactive)
    1  A    between atoms: C_2  and  C_15
    2  A    between atoms: N_6  and  C_25
    3  A    between atoms: C_15  and  C_25
                            x       y       z     vdW  Elec       q    Type
                         _______ _______ _______ _____ _____    ______ ____

>  <TORSDO>
F 3

$$$$
=
 OpenBabel10262419573D

 25 28  0  0  1  0  0  0  0  0999 V2000
  187.3870  177.8640  143.2020 C   0  0  0  0  0  0  0  0  0  0  0  0
  188.7480  177.5430  143.4060 C   0  0  0  0  0  0  0  0  0  0  0  0
  187.8180  178.5700  140.9650 C   0  0  0  0  0  3  0  0  0  0  0  0
  186.3530  177.7680  144.1760 N   0  0  0  0  0  0  0  0  0  0  0  0
  190.4070  177.0130  145.2000 N   0  0  0  0  0  0  0  0  0  0  0  0
  183.2010  179.2600  144.5490 O   0  0  0  0  0  0  0  0  0  0  0  0
  189.1190  178.2200  141.1280 N   0  0  0  0  0  0  0  0  0  0  0  0
  185.0230  177.9470  143.6110 C   0  0  1  0  0  3  0  0  0  0  0  0
  184.3770  178.8180  144.6210 C   0  0  0  0  0  0  0  0  0  0  0  0
  190.9110  177.2380  142.2220 C   0  0  0  0  0  0  0  0  0  0  0  0
  191.7130  177.4600  140.9780 C   0  0  0  0  0  1  0  0  0  0  0  0
  189.0990  177.2510  144.6670 C   0  0  0  0  0  3  0  0  0  0  0  0
  185.2820  179.0610  145.7320 C   0  0  0  0  0  3  0  0  0  0  0  0
  186.9370  178.3600  142.0070 C   0  0  0  0  0  0  0  0  0  0  0  0
  185.2050  178.7910  141.9880 S   0  0  0  0  0  0  0  0  0  0  0  0
  191.5750  176.3450  143.1780 C   0  0  0  0  0  3  0  0  0  0  0  0
  186.4200  178.4470  145.4350 C   0  0  0  0  0  3  0  0  0  0  0  0
  191.3580  176.2370  144.4770 C   0  0  0  0  0  3  0  0  0  0  0  0
  189.6280  177.6770  142.2810 C   0  0  0  0  0  0  0  0  0  0  0  0
  191.6580  176.1320  147.1520 C   0  0  0  0  0  1  0  0  0  0  0  0
  190.5570  177.0680  146.6650 C   0  0  2  0  0  3  0  0  0  0  0  0
  189.2550  176.6970  147.3770 C   0  0  0  0  0  2  0  0  0  0  0  0
  188.8280  177.7860  148.3000 C   0  0  0  0  0  0  0  0  0  0  0  0
  187.4990  177.8820  148.6940 O   0  0  0  0  0  0  0  0  0  0  0  0
  189.6650  178.6340  148.7030 O   0  0  0  0  0  1  0  0  0  0  0  0
  1  2  1  0  0  0  0
  1  4  1  0  0  0  0
  2 12  2  0  0  0  0
  3  7  2  0  0  0  0
  3 14  1  0  0  0  0
  4 17  1  0  0  0  0
  5 21  1  0  0  0  0
  6  9  2  0  0  0  0
  7 19  1  0  0  0  0
  8 15  1  6  0  0  0
  8  4  1  0  0  0  0
  8  9  1  0  0  0  0
  9 13  1  0  0  0  0
 10 19  2  0  0  0  0
 10 16  1  0  0  0  0
 11 10  1  0  0  0  0
 12  5  1  0  0  0  0
 14  1  2  0  0  0  0
 15 14  1  0  0  0  0
 16 18  2  0  0  0  0
 17 13  2  0  0  0  0
 18  5  1  0  0  0  0
 19  2  1  0  0  0  0
 21 20  1  1  0  0  0
 21 22  1  0  0  0  0
 22 23  1  0  0  0  0
 23 24  2  0  0  0  0
 23 25  1  0  0  0  0
M  END
>  <MODEL>
3

>  <REMARK>
 VINA RESULT:      -9.0      3.072      6.405
  Name = 
  3 active torsions:
  status: ('A' for Active; 'I' for Inactive)
    1  A    between atoms: C_2  and  C_15
    2  A    between atoms: N_6  and  C_25
    3  A    between atoms: C_15  and  C_25
                            x       y       z     vdW  Elec       q    Type
                         _______ _______ _______ _____ _____    ______ ____

>  <TORSDO>
F 3

$$$$
=
 OpenBabel10262419573D

 25 28  0  0  1  0  0  0  0  0999 V2000
  189.3640  177.4060  142.8080 C   0  0  0  0  0  0  0  0  0  0  0  0
  188.4560  177.6720  143.8580 C   0  0  0  0  0  0  0  0  0  0  0  0
  191.2260  177.5530  144.2900 C   0  0  0  0  0  3  0  0  0  0  0  0
  189.0230  177.2250  141.4370 N   0  0  0  0  0  0  0  0  0  0  0  0
  186.0800  178.3100  144.3030 N   0  0  0  0  0  0  0  0  0  0  0  0
  190.7900  177.5170  138.4220 O   0  0  0  0  0  0  0  0  0  0  0  0
  190.3640  177.7590  145.3190 N   0  0  0  0  0  0  0  0  0  0  0  0
  190.1390  176.7430  140.6350 C   0  0  1  0  0  3  0  0  0  0  0  0
  190.0150  177.5700  139.4110 C   0  0  0  0  0  0  0  0  0  0  0  0
  188.2800  177.8450  146.3300 C   0  0  0  0  0  0  0  0  0  0  0  0
  188.9910  177.9780  147.6410 C   0  0  0  0  0  1  0  0  0  0  0  0
  187.1850  177.8980  143.4910 C   0  0  0  0  0  3  0  0  0  0  0  0
  188.8450  178.4290  139.4980 C   0  0  0  0  0  3  0  0  0  0  0  0
  190.7140  177.3450  143.0260 C   0  0  0  0  0  0  0  0  0  0  0  0
  191.6930  177.0960  141.5520 S   0  0  0  0  0  0  0  0  0  0  0  0
  186.8490  177.5640  146.4820 C   0  0  0  0  0  3  0  0  0  0  0  0
  188.3030  178.2100  140.6890 C   0  0  0  0  0  3  0  0  0  0  0  0
  185.8830  177.7590  145.6010 C   0  0  0  0  0  3  0  0  0  0  0  0
  188.9990  177.7880  145.1810 C   0  0  0  0  0  0  0  0  0  0  0  0
  183.6660  178.8430  144.5150 C   0  0  0  0  0  1  0  0  0  0  0  0
  184.8910  178.8300  143.6040 C   0  0  2  0  0  3  0  0  0  0  0  0
  184.5620  178.0020  142.3620 C   0  0  0  0  0  2  0  0  0  0  0  0
  184.2660  178.8860  141.1990 C   0  0  0  0  0  0  0  0  0  0  0  0
  182.9950  178.8970  140.6400 O   0  0  0  0  0  0  0  0  0  0  0  0
  185.1750  179.6050  140.7080 O   0  0  0  0  0  1  0  0  0  0  0  0
  1 14  2  0  0  0  0
  1  2  1  0  0  0  0
  2 19  1  0  0  0  0
  3  7  2  0  0  0  0
  4  1  1  0  0  0  0
  5 18  1  0  0  0  0
  6  9  2  0  0  0  0
  8  9  1  6  0  0  0
  8  4  1  0  0  0  0
  8 15  1  0  0  0  0
  9 13  1  0  0  0  0
 10 16  1  0  0  0  0
 10 11  1  0  0  0  0
 12  2  2  0  0  0  0
 12  5  1  0  0  0  0
 13 17  2  0  0  0  0
 14  3  1  0  0  0  0
 15 14  1  0  0  0  0
 17  4  1  0  0  0  0
 18 16  2  0  0  0  0
 19  7  1  0  0  0  0
 19 10  2  0  0  0  0
 21  5  1  0  0  0  0
 21 20  1  1  0  0  0
 22 21  1  0  0  0  0
 23 22  1  0  0  0  0
 24 23  2  0  0  0  0
 25 23  1  0  0  0  0
M  END
>  <MODEL>
4

>  <REMARK>
 VINA RESULT:      -8.9      1.054      1.168
  Name = 
  3 active torsions:
  status: ('A' for Active; 'I' for Inactive)
    1  A    between atoms: C_2  and  C_15
    2  A    between atoms: N_6  and  C_25
    3  A    between atoms: C_15  and  C_25
                            x       y       z     vdW  Elec       q    Type
                         _______ _______ _______ _____ _____    ______ ____

>  <TORSDO>
F 3

$$$$
=
 OpenBabel10262419573D

 25 28  0  0  1  0  0  0  0  0999 V2000
  187.7080  177.6860  145.7390 C   0  0  0  0  0  0  0  0  0  0  0  0
  186.9210  178.0280  144.6160 C   0  0  0  0  0  0  0  0  0  0  0  0
  186.1200  178.6540  147.2320 C   0  0  0  0  0  3  0  0  0  0  0  0
  188.9840  177.0540  145.7020 N   0  0  0  0  0  0  0  0  0  0  0  0
  187.0100  178.2220  142.1250 N   0  0  0  0  0  0  0  0  0  0  0  0
  191.6840  176.8670  147.9320 O   0  0  0  0  0  0  0  0  0  0  0  0
  185.3290  178.9460  146.1680 N   0  0  0  0  0  0  0  0  0  0  0  0
  189.4420  176.6250  147.0160 C   0  0  1  0  0  3  0  0  0  0  0  0
  190.8690  177.0240  146.9860 C   0  0  0  0  0  0  0  0  0  0  0  0
  184.6740  178.8490  143.9470 C   0  0  0  0  0  0  0  0  0  0  0  0
  183.3920  179.5010  144.3620 C   0  0  0  0  0  1  0  0  0  0  0  0
  187.5000  177.8530  143.4190 C   0  0  0  0  0  3  0  0  0  0  0  0
  191.2080  177.5900  145.6910 C   0  0  0  0  0  3  0  0  0  0  0  0
  187.3100  177.9890  147.0140 C   0  0  0  0  0  0  0  0  0  0  0  0
  188.4910  177.5580  148.2820 S   0  0  0  0  0  0  0  0  0  0  0  0
  184.6260  178.3120  142.5830 C   0  0  0  0  0  3  0  0  0  0  0  0
  190.0900  177.6020  144.9780 C   0  0  0  0  0  3  0  0  0  0  0  0
  185.6400  178.0310  141.7840 C   0  0  0  0  0  3  0  0  0  0  0  0
  185.6440  178.6310  144.8700 C   0  0  0  0  0  0  0  0  0  0  0  0
  187.2890  178.2390  139.6600 C   0  0  0  0  0  1  0  0  0  0  0  0
  187.9830  178.2460  141.0190 C   0  0  2  0  0  3  0  0  0  0  0  0
  188.9360  177.0520  141.0830 C   0  0  0  0  0  2  0  0  0  0  0  0
  190.3110  177.4490  140.6660 C   0  0  0  0  0  0  0  0  0  0  0  0
  191.3210  177.5510  141.6140 O   0  0  0  0  0  1  0  0  0  0  0  0
  190.5500  177.7170  139.4610 O   0  0  0  0  0  0  0  0  0  0  0  0
  1 14  2  0  0  0  0
  2 19  1  0  0  0  0
  2  1  1  0  0  0  0
  4  1  1  0  0  0  0
  4  8  1  0  0  0  0
  5 12  1  0  0  0  0
  7  3  2  0  0  0  0
  8  9  1  6  0  0  0
  8 15  1  0  0  0  0
  9  6  2  0  0  0  0
 10 11  1  0  0  0  0
 10 19  2  0  0  0  0
 12  2  2  0  0  0  0
 13  9  1  0  0  0  0
 14  3  1  0  0  0  0
 14 15  1  0  0  0  0
 16 10  1  0  0  0  0
 17 13  2  0  0  0  0
 17  4  1  0  0  0  0
 18  5  1  0  0  0  0
 18 16  2  0  0  0  0
 19  7  1  0  0  0  0
 21 20  1  6  0  0  0
 21 22  1  0  0  0  0
 21  5  1  0  0  0  0
 23 22  1  0  0  0  0
 23 24  1  0  0  0  0
 25 23  2  0  0  0  0
M  END
>  <MODEL>
5

>  <REMARK>
 VINA RESULT:      -8.6      2.435      5.019
  Name = 
  3 active torsions:
  status: ('A' for Active; 'I' for Inactive)
    1  A    between atoms: C_2  and  C_15
    2  A    between atoms: N_6  and  C_25
    3  A    between atoms: C_15  and  C_25
                            x       y       z     vdW  Elec       q    Type
                         _______ _______ _______ _____ _____    ______ ____

>  <TORSDO>
F 3

$$$$
=
 OpenBabel10262419573D

 25 28  0  0  1  0  0  0  0  0999 V2000
  189.5460  177.2910  141.4650 C   0  0  0  0  0  0  0  0  0  0  0  0
  188.7960  177.4910  142.6460 C   0  0  0  0  0  0  0  0  0  0  0  0
  191.6020  177.4880  142.6570 C   0  0  0  0  0  3  0  0  0  0  0  0
  189.0120  177.1250  140.1560 N   0  0  0  0  0  0  0  0  0  0  0  0
  186.4900  178.0120  143.4580 N   0  0  0  0  0  0  0  0  0  0  0  0
  190.2920  177.5640  136.9210 O   0  0  0  0  0  0  0  0  0  0  0  0
  190.8970  177.6320  143.8080 N   0  0  0  0  0  0  0  0  0  0  0  0
  190.0130  176.7120  139.1830 C   0  0  1  0  0  3  0  0  0  0  0  0
  189.6730  177.5600  138.0160 C   0  0  0  0  0  0  0  0  0  0  0  0
  188.9870  177.6020  145.1200 C   0  0  0  0  0  0  0  0  0  0  0  0
  189.8800  177.7370  146.3140 C   0  0  0  0  0  1  0  0  0  0  0  0
  187.4770  177.6680  142.4800 C   0  0  0  0  0  3  0  0  0  0  0  0
  188.4950  178.3620  138.3010 C   0  0  0  0  0  3  0  0  0  0  0  0
  190.9160  177.2860  141.4770 C   0  0  0  0  0  0  0  0  0  0  0  0
  191.6710  177.1140  139.8680 S   0  0  0  0  0  0  0  0  0  0  0  0
  187.6080  177.2530  145.4770 C   0  0  0  0  0  3  0  0  0  0  0  0
  188.1470  178.0930  139.5520 C   0  0  0  0  0  3  0  0  0  0  0  0
  186.5140  177.4240  144.7560 C   0  0  0  0  0  3  0  0  0  0  0  0
  189.5270  177.6020  143.8760 C   0  0  0  0  0  0  0  0  0  0  0  0
  185.2880  178.9920  141.5220 C   0  0  0  0  0  1  0  0  0  0  0  0
  185.1890  178.4930  142.9610 C   0  0  2  0  0  3  0  0  0  0  0  0
  184.6380  179.6250  143.8300 C   0  0  0  0  0  2  0  0  0  0  0  0
  183.5360  179.1330  144.7030 C   0  0  0  0  0  0  0  0  0  0  0  0
  183.7340  179.0150  146.0730 O   0  0  0  0  0  1  0  0  0  0  0  0
  182.4330  178.7990  144.1970 O   0  0  0  0  0  0  0  0  0  0  0  0
  1 14  2  0  0  0  0
  1  2  1  0  0  0  0
  2 19  1  0  0  0  0
  3  7  2  0  0  0  0
  4  1  1  0  0  0  0
  5 18  1  0  0  0  0
  6  9  2  0  0  0  0
  7 19  1  0  0  0  0
  8  9  1  6  0  0  0
  8 15  1  0  0  0  0
  8  4  1  0  0  0  0
  9 13  1  0  0  0  0
 10 16  1  0  0  0  0
 10 11  1  0  0  0  0
 12  2  2  0  0  0  0
 12  5  1  0  0  0  0
 13 17  2  0  0  0  0
 14  3  1  0  0  0  0
 15 14  1  0  0  0  0
 17  4  1  0  0  0  0
 18 16  2  0  0  0  0
 19 10  2  0  0  0  0
 21 20  1  6  0  0  0
 21  5  1  0  0  0  0
 21 22  1  0  0  0  0
 22 23  1  0  0  0  0
 23 24  1  0  0  0  0
 25 23  2  0  0  0  0
M  END
>  <MODEL>
6

>  <REMARK>
 VINA RESULT:      -8.6      2.103      2.928
  Name = 
  3 active torsions:
  status: ('A' for Active; 'I' for Inactive)
    1  A    between atoms: C_2  and  C_15
    2  A    between atoms: N_6  and  C_25
    3  A    between atoms: C_15  and  C_25
                            x       y       z     vdW  Elec       q    Type
                         _______ _______ _______ _____ _____    ______ ____

>  <TORSDO>
F 3

$$$$
=
 OpenBabel10262419573D

 25 28  0  0  1  0  0  0  0  0999 V2000
  187.3690  177.7720  145.2750 C   0  0  0  0  0  0  0  0  0  0  0  0
  186.3980  178.1370  144.3160 C   0  0  0  0  0  0  0  0  0  0  0  0
  185.9750  178.5060  147.0650 C   0  0  0  0  0  3  0  0  0  0  0  0
  188.6610  177.2420  144.9940 N   0  0  0  0  0  0  0  0  0  0  0  0
  186.0860  178.5210  141.8650 N   0  0  0  0  0  0  0  0  0  0  0  0
  191.6810  177.0940  146.7700 O   0  0  0  0  0  0  0  0  0  0  0  0
  185.0120  178.8150  146.1610 N   0  0  0  0  0  0  0  0  0  0  0  0
  189.3440  176.7530  146.1830 C   0  0  1  0  0  3  0  0  0  0  0  0
  190.7210  177.2590  145.9730 C   0  0  0  0  0  0  0  0  0  0  0  0
  184.0270  178.8340  144.0630 C   0  0  0  0  0  0  0  0  0  0  0  0
  182.7860  179.3560  144.7180 C   0  0  0  0  0  1  0  0  0  0  0  0
  186.7940  178.0950  143.0350 C   0  0  0  0  0  3  0  0  0  0  0  0
  190.8190  177.9430  144.6950 C   0  0  0  0  0  3  0  0  0  0  0  0
  187.1560  177.9500  146.6160 C   0  0  0  0  0  0  0  0  0  0  0  0
  188.5440  177.5160  147.6520 S   0  0  0  0  0  0  0  0  0  0  0  0
  183.8010  178.3980  142.6810 C   0  0  0  0  0  3  0  0  0  0  0  0
  189.6050  177.9240  144.1610 C   0  0  0  0  0  3  0  0  0  0  0  0
  184.6940  178.2530  141.7180 C   0  0  0  0  0  3  0  0  0  0  0  0
  185.1400  178.6220  144.8080 C   0  0  0  0  0  0  0  0  0  0  0  0
  186.0910  178.2530  139.3990 C   0  0  0  0  0  1  0  0  0  0  0  0
  186.8720  178.6990  140.6310 C   0  0  2  0  0  3  0  0  0  0  0  0
  188.1840  177.9160  140.6840 C   0  0  0  0  0  2  0  0  0  0  0  0
  188.8490  177.9080  139.3500 C   0  0  0  0  0  0  0  0  0  0  0  0
  189.0560  179.1010  138.6690 O   0  0  0  0  0  0  0  0  0  0  0  0
  189.2000  176.8190  138.8280 O   0  0  0  0  0  1  0  0  0  0  0  0
  1 14  2  0  0  0  0
  2 19  1  0  0  0  0
  2  1  1  0  0  0  0
  4  1  1  0  0  0  0
  4  8  1  0  0  0  0
  5 12  1  0  0  0  0
  7  3  2  0  0  0  0
  8  9  1  6  0  0  0
  8 15  1  0  0  0  0
  9  6  2  0  0  0  0
 10 11  1  0  0  0  0
 10 19  2  0  0  0  0
 12  2  2  0  0  0  0
 13  9  1  0  0  0  0
 14  3  1  0  0  0  0
 14 15  1  0  0  0  0
 16 10  1  0  0  0  0
 17 13  2  0  0  0  0
 17  4  1  0  0  0  0
 18  5  1  0  0  0  0
 18 16  2  0  0  0  0
 19  7  1  0  0  0  0
 21 20  1  6  0  0  0
 21 22  1  0  0  0  0
 21  5  1  0  0  0  0
 23 22  1  0  0  0  0
 24 23  2  0  0  0  0
 25 23  1  0  0  0  0
M  END
>  <MODEL>
7

>  <REMARK>
 VINA RESULT:      -8.5      2.333      4.579
  Name = 
  3 active torsions:
  status: ('A' for Active; 'I' for Inactive)
    1  A    between atoms: C_2  and  C_15
    2  A    between atoms: N_6  and  C_25
    3  A    between atoms: C_15  and  C_25
                            x       y       z     vdW  Elec       q    Type
                         _______ _______ _______ _____ _____    ______ ____

>  <TORSDO>
F 3

$$$$
=
 OpenBabel10262419573D

 25 28  0  0  1  0  0  0  0  0999 V2000
  189.6450  177.1750  143.0480 C   0  0  0  0  0  0  0  0  0  0  0  0
  189.1920  177.3250  144.3780 C   0  0  0  0  0  0  0  0  0  0  0  0
  191.9190  177.0840  143.7610 C   0  0  0  0  0  3  0  0  0  0  0  0
  188.8270  177.1810  141.8830 N   0  0  0  0  0  0  0  0  0  0  0  0
  187.1810  177.9590  145.7220 N   0  0  0  0  0  0  0  0  0  0  0  0
  189.4180  177.8150  138.4850 O   0  0  0  0  0  0  0  0  0  0  0  0
  191.4970  177.1760  145.0480 N   0  0  0  0  0  0  0  0  0  0  0  0
  189.5460  176.7790  140.6820 C   0  0  1  0  0  3  0  0  0  0  0  0
  189.0520  177.7600  139.6870 C   0  0  0  0  0  0  0  0  0  0  0  0
  189.9220  177.1830  146.7480 C   0  0  0  0  0  0  0  0  0  0  0  0
  191.0600  177.1280  147.7190 C   0  0  0  0  0  1  0  0  0  0  0  0
  187.8930  177.6270  144.5250 C   0  0  0  0  0  3  0  0  0  0  0  0
  188.0530  178.6280  140.2870 C   0  0  0  0  0  3  0  0  0  0  0  0
  190.9770  177.0530  142.7530 C   0  0  0  0  0  0  0  0  0  0  0  0
  191.3460  176.9720  141.0080 S   0  0  0  0  0  0  0  0  0  0  0  0
  188.6230  176.9190  147.3770 C   0  0  0  0  0  3  0  0  0  0  0  0
  187.9570  178.2710  141.5610 C   0  0  0  0  0  3  0  0  0  0  0  0
  187.4230  177.2500  146.9340 C   0  0  0  0  0  3  0  0  0  0  0  0
  190.1780  177.2560  145.4180 C   0  0  0  0  0  0  0  0  0  0  0  0
  184.9320  178.2530  146.7270 C   0  0  0  0  0  1  0  0  0  0  0  0
  185.8600  178.5930  145.5650 C   0  0  2  0  0  3  0  0  0  0  0  0
  185.1830  178.1660  144.2620 C   0  0  0  0  0  2  0  0  0  0  0  0
  184.6110  179.3440  143.5520 C   0  0  0  0  0  0  0  0  0  0  0  0
  185.1490  179.7530  142.3380 O   0  0  0  0  0  0  0  0  0  0  0  0
  183.6560  179.9850  144.0630 O   0  0  0  0  0  1  0  0  0  0  0  0
  1  2  1  0  0  0  0
  2 12  2  0  0  0  0
  2 19  1  0  0  0  0
  3  7  2  0  0  0  0
  4  1  1  0  0  0  0
  5 18  1  0  0  0  0
  6  9  2  0  0  0  0
  7 19  1  0  0  0  0
  8  9  1  6  0  0  0
  8 15  1  0  0  0  0
  8  4  1  0  0  0  0
  9 13  1  0  0  0  0
 10 16  1  0  0  0  0
 10 11  1  0  0  0  0
 12  5  1  0  0  0  0
 13 17  2  0  0  0  0
 14  1  2  0  0  0  0
 14  3  1  0  0  0  0
 15 14  1  0  0  0  0
 17  4  1  0  0  0  0
 18 16  2  0  0  0  0
 19 10  2  0  0  0  0
 21  5  1  0  0  0  0
 21 20  1  1  0  0  0
 22 21  1  0  0  0  0
 23 25  1  0  0  0  0
 23 22  1  0  0  0  0
 24 23  2  0  0  0  0
M  END
>  <MODEL>
8

>  <REMARK>
 VINA RESULT:      -8.4      1.495      2.107
  Name = 
  3 active torsions:
  status: ('A' for Active; 'I' for Inactive)
    1  A    between atoms: C_2  and  C_15
    2  A    between atoms: N_6  and  C_25
    3  A    between atoms: C_15  and  C_25
                            x       y       z     vdW  Elec       q    Type
                         _______ _______ _______ _____ _____    ______ ____

>  <TORSDO>
F 3

$$$$
=
 OpenBabel10262419573D

 25 28  0  0  1  0  0  0  0  0999 V2000
  187.3200  178.3260  141.7000 C   0  0  0  0  0  0  0  0  0  0  0  0
  186.9160  178.2670  143.0530 C   0  0  0  0  0  0  0  0  0  0  0  0
  185.0590  178.4860  140.9610 C   0  0  0  0  0  3  0  0  0  0  0  0
  188.6590  178.2310  141.2260 N   0  0  0  0  0  0  0  0  0  0  0  0
  187.7500  177.7140  145.3440 N   0  0  0  0  0  0  0  0  0  0  0  0
  190.1070  177.3620  138.1520 O   0  0  0  0  0  0  0  0  0  0  0  0
  184.6560  178.4820  142.2570 N   0  0  0  0  0  0  0  0  0  0  0  0
  188.7840  178.5530  139.8110 C   0  0  1  0  0  3  0  0  0  0  0  0
  189.7140  177.4990  139.3390 C   0  0  0  0  0  0  0  0  0  0  0  0
  184.9600  178.5830  144.5520 C   0  0  0  0  0  0  0  0  0  0  0  0
  183.4740  178.7160  144.6810 C   0  0  0  0  0  1  0  0  0  0  0  0
  187.8760  177.9660  143.9400 C   0  0  0  0  0  3  0  0  0  0  0  0
  190.1410  176.6680  140.4520 C   0  0  0  0  0  3  0  0  0  0  0  0
  186.4100  178.4380  140.6830 C   0  0  0  0  0  0  0  0  0  0  0  0
  187.1190  178.3970  139.0450 S   0  0  0  0  0  0  0  0  0  0  0  0
  185.6690  178.8800  145.8010 C   0  0  0  0  0  3  0  0  0  0  0  0
  189.5020  177.1130  141.5260 C   0  0  0  0  0  3  0  0  0  0  0  0
  186.8880  178.5090  146.1520 C   0  0  0  0  0  3  0  0  0  0  0  0
  185.5150  178.4180  143.3250 C   0  0  0  0  0  0  0  0  0  0  0  0
  188.7150  177.0470  147.5300 C   0  0  0  0  0  1  0  0  0  0  0  0
  188.8880  177.0590  146.0140 C   0  0  2  0  0  3  0  0  0  0  0  0
  190.2100  177.7530  145.6830 C   0  0  0  0  0  2  0  0  0  0  0  0
  191.3220  176.7650  145.6090 C   0  0  0  0  0  0  0  0  0  0  0  0
  192.1140  176.5250  146.7250 O   0  0  0  0  0  1  0  0  0  0  0  0
  191.5610  176.1650  144.5290 O   0  0  0  0  0  0  0  0  0  0  0  0
  1  2  1  0  0  0  0
  2 19  1  0  0  0  0
  2 12  2  0  0  0  0
  3  7  2  0  0  0  0
  4 17  1  0  0  0  0
  4  1  1  0  0  0  0
  5 21  1  0  0  0  0
  5 18  1  0  0  0  0
  6  9  2  0  0  0  0
  7 19  1  0  0  0  0
  8 15  1  6  0  0  0
  8  4  1  0  0  0  0
  9  8  1  0  0  0  0
  9 13  1  0  0  0  0
 10 11  1  0  0  0  0
 10 16  1  0  0  0  0
 12  5  1  0  0  0  0
 13 17  2  0  0  0  0
 14  3  1  0  0  0  0
 14  1  2  0  0  0  0
 15 14  1  0  0  0  0
 16 18  2  0  0  0  0
 19 10  2  0  0  0  0
 21 20  1  1  0  0  0
 22 21  1  0  0  0  0
 23 22  1  0  0  0  0
 23 24  1  0  0  0  0
 25 23  2  0  0  0  0
M  END
>  <MODEL>
9

>  <REMARK>
 VINA RESULT:      -8.4      2.588      5.079
  Name = 
  3 active torsions:
  status: ('A' for Active; 'I' for Inactive)
    1  A    between atoms: C_2  and  C_15
    2  A    between atoms: N_6  and  C_25
    3  A    between atoms: C_15  and  C_25
                            x       y       z     vdW  Elec       q    Type
                         _______ _______ _______ _____ _____    ______ ____

>  <TORSDO>
F 3

$$$$
