=
 OpenBabel10262420583D

 28 29  0  0  1  0  0  0  0  0999 V2000
  188.3200  177.3610  144.4140 C   0  0  0  0  0  2  0  0  0  0  0  0
  189.8370  177.7110  142.3900 C   0  0  2  0  0  0  0  0  0  0  0  0
  191.4250  178.1830  144.3110 C   0  0  0  0  0  0  0  0  0  0  0  0
  190.7680  179.1700  142.9770 S   0  0  0  0  0  0  0  0  0  0  0  0
  192.4010  178.5480  144.9470 O   0  0  0  0  0  0  0  0  0  0  0  0
  190.7420  176.8880  144.5940 C   0  0  2  0  0  3  0  0  0  0  0  0
  189.1900  175.3700  143.2110 C   0  0  0  0  0  1  0  0  0  0  0  0
  191.7290  175.7280  144.4860 C   0  0  0  0  0  1  0  0  0  0  0  0
  188.5580  178.2130  141.7300 C   0  0  0  0  0  1  0  0  0  0  0  0
  189.5290  176.8050  143.6360 C   0  0  1  0  0  0  0  0  0  0  0  0
  190.6150  176.9970  141.2640 C   0  0  0  0  0  2  0  0  0  0  0  0
  189.9850  177.0800  139.8800 C   0  0  0  0  0  2  0  0  0  0  0  0
  190.5510  176.0680  139.0060 N   0  0  0  0  0  2  0  0  0  0  0  0
  191.7710  176.2800  138.3480 C   0  0  0  0  0  0  0  0  0  0  0  0
  192.8190  176.4640  137.7830 C   0  0  0  0  0  3  0  0  0  0  0  0
  188.5610  177.4720  145.9220 C   0  0  0  0  0  2  0  0  0  0  0  0
  187.2640  177.3730  146.7280 C   0  0  1  0  0  3  0  0  0  0  0  0
  187.2080  178.4200  147.8310 C   0  0  0  0  0  2  0  0  0  0  0  0
  188.0430  178.0490  148.8850 O   0  0  0  0  0  1  0  0  0  0  0  0
  186.0310  177.4850  145.8390 C   0  0  0  0  0  2  0  0  0  0  0  0
  185.3160  178.8170  146.0300 C   0  0  0  0  0  2  0  0  0  0  0  0
  182.4510  179.2020  143.4800 C   0  0  0  0  0  2  0  0  0  0  0  0
  184.6050  179.2490  144.7580 C   0  0  2  0  0  3  0  0  0  0  0  0
  184.6160  179.0140  142.2890 C   0  0  0  0  0  0  0  0  0  0  0  0
  183.1670  178.7210  144.7410 C   0  0  0  0  0  2  0  0  0  0  0  0
  185.3790  178.7270  143.5470 C   0  0  0  0  0  2  0  0  0  0  0  0
  185.1920  179.4480  141.3050 O   0  0  0  0  0  0  0  0  0  0  0  0
  183.1550  178.6850  142.2270 C   0  0  0  0  0  2  0  0  0  0  0  0
  1 16  1  0  0  0  0
  2  9  1  6  0  0  0
  2  4  1  0  0  0  0
  2 10  1  0  0  0  0
  3  6  1  0  0  0  0
  3  5  2  0  0  0  0
  4  3  1  0  0  0  0
  6  8  1  6  0  0  0
 10  7  1  6  0  0  0
 10  1  1  0  0  0  0
 10  6  1  0  0  0  0
 11  2  1  0  0  0  0
 12 11  1  0  0  0  0
 13 12  1  0  0  0  0
 14 13  1  0  0  0  0
 15 14  3  0  0  0  0
 16 17  1  0  0  0  0
 17 20  1  6  0  0  0
 17 18  1  0  0  0  0
 18 19  1  0  0  0  0
 20 21  1  0  0  0  0
 22 25  1  0  0  0  0
 23 21  1  1  0  0  0
 24 26  1  0  0  0  0
 25 23  1  0  0  0  0
 26 23  1  0  0  0  0
 27 24  2  0  0  0  0
 28 24  1  0  0  0  0
 28 22  1  0  0  0  0
M  END
>  <MODEL>
1

>  <REMARK>
 VINA RESULT:      -6.9      0.000      0.000
  Name = 
  11 active torsions:
  status: ('A' for Active; 'I' for Inactive)
    1  A    between atoms: C_1  and  C_11
    2  A    between atoms: C_5  and  C_25
    3  A    between atoms: N_6  and  C_8
    4  A    between atoms: N_6  and  C_22
    5  A    between atoms: C_8  and  C_11
    6  A    between atoms: C_9  and  C_18
    7  A    between atoms: C_10  and  C_17
    8  A    between atoms: C_10  and  C_25
    9  A    between atoms: C_14  and  C_18
   10  A    between atoms: C_14  and  C_25
   11  A    between atoms: C_17  and  C_27
                            x       y       z     vdW  Elec       q    Type
                         _______ _______ _______ _____ _____    ______ ____

>  <TORSDO>
F 11

$$$$
=
 OpenBabel10262420583D

 28 29  0  0  1  0  0  0  0  0999 V2000
  188.2260  177.5050  144.4950 C   0  0  0  0  0  2  0  0  0  0  0  0
  189.5920  177.8690  142.3690 C   0  0  2  0  0  0  0  0  0  0  0  0
  191.3410  178.2260  144.1710 C   0  0  0  0  0  0  0  0  0  0  0  0
  190.6180  179.2770  142.9230 S   0  0  0  0  0  0  0  0  0  0  0  0
  192.3770  178.5370  144.7380 O   0  0  0  0  0  0  0  0  0  0  0  0
  190.6370  176.9460  144.4680 C   0  0  2  0  0  3  0  0  0  0  0  0
  188.9280  175.5260  143.1680 C   0  0  0  0  0  1  0  0  0  0  0  0
  191.5700  175.7580  144.2480 C   0  0  0  0  0  1  0  0  0  0  0  0
  188.2840  178.4350  141.8270 C   0  0  0  0  0  1  0  0  0  0  0  0
  189.3510  176.9340  143.6080 C   0  0  1  0  0  0  0  0  0  0  0  0
  190.2540  177.1670  141.1640 C   0  0  0  0  0  2  0  0  0  0  0  0
  189.9870  177.8060  139.8070 C   0  0  0  0  0  2  0  0  0  0  0  0
  189.3060  176.8670  138.9330 N   0  0  0  0  0  2  0  0  0  0  0  0
  188.1460  177.2350  138.2380 C   0  0  0  0  0  0  0  0  0  0  0  0
  187.1480  177.5500  137.6410 C   0  0  0  0  0  3  0  0  0  0  0  0
  188.4240  177.2250  145.9880 C   0  0  0  0  0  2  0  0  0  0  0  0
  187.2290  177.6810  146.8280 C   0  0  1  0  0  3  0  0  0  0  0  0
  187.6620  178.1540  148.2080 C   0  0  0  0  0  2  0  0  0  0  0  0
  189.0530  178.1100  148.3130 O   0  0  0  0  0  1  0  0  0  0  0  0
  186.4260  178.7730  146.1310 C   0  0  0  0  0  2  0  0  0  0  0  0
  184.9260  178.5650  146.2970 C   0  0  0  0  0  2  0  0  0  0  0  0
  184.5780  178.1070  142.4850 C   0  0  0  0  0  2  0  0  0  0  0  0
  184.2620  178.2490  144.9660 C   0  0  2  0  0  3  0  0  0  0  0  0
  182.4440  178.9440  143.4290 C   0  0  0  0  0  0  0  0  0  0  0  0
  185.2430  178.4730  143.8120 C   0  0  0  0  0  2  0  0  0  0  0  0
  183.0270  179.1330  144.7970 C   0  0  0  0  0  2  0  0  0  0  0  0
  181.2390  178.8270  143.2840 O   0  0  0  0  0  0  0  0  0  0  0  0
  183.3500  178.9820  142.2360 C   0  0  0  0  0  2  0  0  0  0  0  0
  1 16  1  0  0  0  0
  2  9  1  6  0  0  0
  2  4  1  0  0  0  0
  2 10  1  0  0  0  0
  3  6  1  0  0  0  0
  3  5  2  0  0  0  0
  4  3  1  0  0  0  0
  6  8  1  6  0  0  0
 10  7  1  6  0  0  0
 10  6  1  0  0  0  0
 10  1  1  0  0  0  0
 11  2  1  0  0  0  0
 12 11  1  0  0  0  0
 13 12  1  0  0  0  0
 14 13  1  0  0  0  0
 15 14  3  0  0  0  0
 17 16  1  6  0  0  0
 17 18  1  0  0  0  0
 18 19  1  0  0  0  0
 20 21  1  0  0  0  0
 20 17  1  0  0  0  0
 22 25  1  0  0  0  0
 23 21  1  1  0  0  0
 24 26  1  0  0  0  0
 25 23  1  0  0  0  0
 26 23  1  0  0  0  0
 27 24  2  0  0  0  0
 28 22  1  0  0  0  0
 28 24  1  0  0  0  0
M  END
>  <MODEL>
2

>  <REMARK>
 VINA RESULT:      -6.5      1.359      1.904
  Name = 
  11 active torsions:
  status: ('A' for Active; 'I' for Inactive)
    1  A    between atoms: C_1  and  C_11
    2  A    between atoms: C_5  and  C_25
    3  A    between atoms: N_6  and  C_8
    4  A    between atoms: N_6  and  C_22
    5  A    between atoms: C_8  and  C_11
    6  A    between atoms: C_9  and  C_18
    7  A    between atoms: C_10  and  C_17
    8  A    between atoms: C_10  and  C_25
    9  A    between atoms: C_14  and  C_18
   10  A    between atoms: C_14  and  C_25
   11  A    between atoms: C_17  and  C_27
                            x       y       z     vdW  Elec       q    Type
                         _______ _______ _______ _____ _____    ______ ____

>  <TORSDO>
F 11

$$$$
=
 OpenBabel10262420583D

 28 29  0  0  1  0  0  0  0  0999 V2000
  183.2730  177.9910  141.0680 C   0  0  0  0  0  2  0  0  0  0  0  0
  182.3250  179.0590  138.9520 C   0  0  2  0  0  0  0  0  0  0  0  0
  181.6400  176.6350  138.6560 C   0  0  0  0  0  0  0  0  0  0  0  0
  182.7220  177.7330  137.7580 S   0  0  0  0  0  0  0  0  0  0  0  0
  181.2400  175.5940  138.1580 O   0  0  0  0  0  0  0  0  0  0  0  0
  181.2310  177.0580  140.0260 C   0  0  2  0  0  3  0  0  0  0  0  0
  181.1880  179.3320  141.2330 C   0  0  0  0  0  1  0  0  0  0  0  0
  179.7100  177.1400  140.1300 C   0  0  0  0  0  1  0  0  0  0  0  0
  183.5470  179.9630  139.0630 C   0  0  0  0  0  1  0  0  0  0  0  0
  181.9790  178.3800  140.3250 C   0  0  1  0  0  0  0  0  0  0  0  0
  181.2060  179.9650  138.3930 C   0  0  0  0  0  2  0  0  0  0  0  0
  181.5560  181.4440  138.2870 C   0  0  0  0  0  2  0  0  0  0  0  0
  180.7350  182.0840  137.2730 N   0  0  0  0  0  2  0  0  0  0  0  0
  180.9740  183.4080  136.8790 C   0  0  0  0  0  0  0  0  0  0  0  0
  181.1780  184.5460  136.5390 C   0  0  0  0  0  3  0  0  0  0  0  0
  183.3830  178.6060  142.4670 C   0  0  0  0  0  2  0  0  0  0  0  0
  184.8200  178.6040  142.9920 C   0  0  1  0  0  3  0  0  0  0  0  0
  185.7680  179.3110  142.0330 C   0  0  0  0  0  2  0  0  0  0  0  0
  186.7630  178.4290  141.6090 O   0  0  0  0  0  1  0  0  0  0  0  0
  184.9210  179.2280  144.3790 C   0  0  0  0  0  2  0  0  0  0  0  0
  185.3020  178.1980  145.4350 C   0  0  0  0  0  2  0  0  0  0  0  0
  189.0900  177.5120  145.2280 C   0  0  0  0  0  2  0  0  0  0  0  0
  186.7770  178.2920  145.7910 C   0  0  2  0  0  3  0  0  0  0  0  0
  188.4260  177.8550  147.5910 C   0  0  0  0  0  0  0  0  0  0  0  0
  187.6060  177.3720  144.8910 C   0  0  0  0  0  2  0  0  0  0  0  0
  186.9650  177.9130  147.2600 C   0  0  0  0  0  2  0  0  0  0  0  0
  188.8430  178.3490  148.6250 O   0  0  0  0  0  0  0  0  0  0  0  0
  189.3550  177.1130  146.6780 C   0  0  0  0  0  2  0  0  0  0  0  0
  1 16  1  0  0  0  0
  2  9  1  1  0  0  0
  2 10  1  0  0  0  0
  3  6  1  0  0  0  0
  4  3  1  0  0  0  0
  4  2  1  0  0  0  0
  5  3  2  0  0  0  0
  6  8  1  6  0  0  0
  6 10  1  0  0  0  0
 10  1  1  0  0  0  0
 10  7  1  1  0  0  0
 11  2  1  0  0  0  0
 12 11  1  0  0  0  0
 13 12  1  0  0  0  0
 14 13  1  0  0  0  0
 15 14  3  0  0  0  0
 16 17  1  0  0  0  0
 17 18  1  6  0  0  0
 17 20  1  0  0  0  0
 19 18  1  0  0  0  0
 20 21  1  0  0  0  0
 22 28  1  0  0  0  0
 23 21  1  6  0  0  0
 23 26  1  0  0  0  0
 24 27  2  0  0  0  0
 25 22  1  0  0  0  0
 25 23  1  0  0  0  0
 26 24  1  0  0  0  0
 28 24  1  0  0  0  0
M  END
>  <MODEL>
3

>  <REMARK>
 VINA RESULT:      -6.5      4.395      8.682
  Name = 
  11 active torsions:
  status: ('A' for Active; 'I' for Inactive)
    1  A    between atoms: C_1  and  C_11
    2  A    between atoms: C_5  and  C_25
    3  A    between atoms: N_6  and  C_8
    4  A    between atoms: N_6  and  C_22
    5  A    between atoms: C_8  and  C_11
    6  A    between atoms: C_9  and  C_18
    7  A    between atoms: C_10  and  C_17
    8  A    between atoms: C_10  and  C_25
    9  A    between atoms: C_14  and  C_18
   10  A    between atoms: C_14  and  C_25
   11  A    between atoms: C_17  and  C_27
                            x       y       z     vdW  Elec       q    Type
                         _______ _______ _______ _____ _____    ______ ____

>  <TORSDO>
F 11

$$$$
=
 OpenBabel10262420583D

 28 29  0  0  1  0  0  0  0  0999 V2000
  183.9770  177.9610  141.1750 C   0  0  0  0  0  2  0  0  0  0  0  0
  182.9630  178.6690  138.9410 C   0  0  2  0  0  0  0  0  0  0  0  0
  183.2190  176.1650  138.6200 C   0  0  0  0  0  0  0  0  0  0  0  0
  183.9390  177.5940  137.8290 S   0  0  0  0  0  0  0  0  0  0  0  0
  183.2730  175.0610  138.1020 O   0  0  0  0  0  0  0  0  0  0  0  0
  182.5320  176.3880  139.9240 C   0  0  2  0  0  3  0  0  0  0  0  0
  181.5480  178.4740  141.0700 C   0  0  0  0  0  1  0  0  0  0  0  0
  181.0790  175.9250  139.8500 C   0  0  0  0  0  1  0  0  0  0  0  0
  183.7660  179.9440  139.1730 C   0  0  0  0  0  1  0  0  0  0  0  0
  182.7240  177.8820  140.2800 C   0  0  1  0  0  0  0  0  0  0  0  0
  181.6690  179.1320  138.2380 C   0  0  0  0  0  2  0  0  0  0  0  0
  181.5630  180.6310  137.9880 C   0  0  0  0  0  2  0  0  0  0  0  0
  180.2010  181.0840  138.2130 N   0  0  0  0  0  2  0  0  0  0  0  0
  179.7090  181.2810  139.5110 C   0  0  0  0  0  0  0  0  0  0  0  0
  179.2870  181.4500  140.6270 C   0  0  0  0  0  3  0  0  0  0  0  0
  183.6950  178.5220  142.5720 C   0  0  0  0  0  2  0  0  0  0  0  0
  184.9690  178.9890  143.2790 C   0  0  1  0  0  3  0  0  0  0  0  0
  184.6820  179.4650  144.6960 C   0  0  0  0  0  2  0  0  0  0  0  0
  183.3810  179.1200  145.0600 O   0  0  0  0  0  1  0  0  0  0  0  0
  186.0390  177.9030  143.3010 C   0  0  0  0  0  2  0  0  0  0  0  0
  186.4600  177.5530  144.7230 C   0  0  0  0  0  2  0  0  0  0  0  0
  190.2010  177.2600  145.6070 C   0  0  0  0  0  2  0  0  0  0  0  0
  187.8640  176.9690  144.7540 C   0  0  2  0  0  3  0  0  0  0  0  0
  189.8030  176.3600  143.3330 C   0  0  0  0  0  0  0  0  0  0  0  0
  188.8070  177.8810  145.5440 C   0  0  0  0  0  2  0  0  0  0  0  0
  188.3680  176.7930  143.3220 C   0  0  0  0  0  2  0  0  0  0  0  0
  190.1820  175.4690  142.5910 O   0  0  0  0  0  0  0  0  0  0  0  0
  190.7800  177.0870  144.2040 C   0  0  0  0  0  2  0  0  0  0  0  0
  1 16  1  0  0  0  0
  2  9  1  1  0  0  0
  2 10  1  0  0  0  0
  3  6  1  0  0  0  0
  4  3  1  0  0  0  0
  4  2  1  0  0  0  0
  5  3  2  0  0  0  0
  6  8  1  6  0  0  0
  6 10  1  0  0  0  0
 10  7  1  1  0  0  0
 10  1  1  0  0  0  0
 11  2  1  0  0  0  0
 12 13  1  0  0  0  0
 12 11  1  0  0  0  0
 13 14  1  0  0  0  0
 14 15  3  0  0  0  0
 17 16  1  1  0  0  0
 17 20  1  0  0  0  0
 17 18  1  0  0  0  0
 18 19  1  0  0  0  0
 20 21  1  0  0  0  0
 23 21  1  6  0  0  0
 23 25  1  0  0  0  0
 24 28  1  0  0  0  0
 25 22  1  0  0  0  0
 26 24  1  0  0  0  0
 26 23  1  0  0  0  0
 27 24  2  0  0  0  0
 28 22  1  0  0  0  0
M  END
>  <MODEL>
4

>  <REMARK>
 VINA RESULT:      -6.4      4.052      8.228
  Name = 
  11 active torsions:
  status: ('A' for Active; 'I' for Inactive)
    1  A    between atoms: C_1  and  C_11
    2  A    between atoms: C_5  and  C_25
    3  A    between atoms: N_6  and  C_8
    4  A    between atoms: N_6  and  C_22
    5  A    between atoms: C_8  and  C_11
    6  A    between atoms: C_9  and  C_18
    7  A    between atoms: C_10  and  C_17
    8  A    between atoms: C_10  and  C_25
    9  A    between atoms: C_14  and  C_18
   10  A    between atoms: C_14  and  C_25
   11  A    between atoms: C_17  and  C_27
                            x       y       z     vdW  Elec       q    Type
                         _______ _______ _______ _____ _____    ______ ____

>  <TORSDO>
F 11

$$$$
=
 OpenBabel10262420583D

 28 29  0  0  1  0  0  0  0  0999 V2000
  182.7280  178.5710  141.8660 C   0  0  0  0  0  2  0  0  0  0  0  0
  180.7850  178.1890  140.2540 C   0  0  2  0  0  0  0  0  0  0  0  0
  181.9840  180.1390  139.1620 C   0  0  0  0  0  0  0  0  0  0  0  0
  180.3680  179.9310  139.8890 S   0  0  0  0  0  0  0  0  0  0  0  0
  182.2340  181.0880  138.4360 O   0  0  0  0  0  0  0  0  0  0  0  0
  183.0010  179.0900  139.4620 C   0  0  2  0  0  3  0  0  0  0  0  0
  182.8400  176.6570  140.2870 C   0  0  0  0  0  1  0  0  0  0  0  0
  183.5210  178.4630  138.1710 C   0  0  0  0  0  1  0  0  0  0  0  0
  180.0340  177.7900  141.5200 C   0  0  0  0  0  1  0  0  0  0  0  0
  182.3410  178.0990  140.4500 C   0  0  1  0  0  0  0  0  0  0  0  0
  180.2300  177.2630  139.1510 C   0  0  0  0  0  2  0  0  0  0  0  0
  179.1560  176.2810  139.6010 C   0  0  0  0  0  2  0  0  0  0  0  0
  179.7000  174.9350  139.6690 N   0  0  0  0  0  2  0  0  0  0  0  0
  179.5660  174.1580  140.8280 C   0  0  0  0  0  0  0  0  0  0  0  0
  179.4500  173.4900  141.8240 C   0  0  0  0  0  3  0  0  0  0  0  0
  184.2360  178.5370  142.1310 C   0  0  0  0  0  2  0  0  0  0  0  0
  184.6050  179.1700  143.4750 C   0  0  1  0  0  3  0  0  0  0  0  0
  183.3790  179.3800  144.3510 C   0  0  0  0  0  2  0  0  0  0  0  0
  183.6870  179.0860  145.6800 O   0  0  0  0  0  1  0  0  0  0  0  0
  185.6480  178.3490  144.2240 C   0  0  0  0  0  2  0  0  0  0  0  0
  186.4920  177.5060  143.2760 C   0  0  0  0  0  2  0  0  0  0  0  0
  189.1660  177.1270  146.0270 C   0  0  0  0  0  2  0  0  0  0  0  0
  187.8020  177.0910  143.9260 C   0  0  2  0  0  3  0  0  0  0  0  0
  190.2620  177.3830  143.8180 C   0  0  0  0  0  0  0  0  0  0  0  0
  187.8660  177.5920  145.3720 C   0  0  0  0  0  2  0  0  0  0  0  0
  188.9680  177.6540  143.1140 C   0  0  0  0  0  2  0  0  0  0  0  0
  191.2310  176.9820  143.1940 O   0  0  0  0  0  0  0  0  0  0  0  0
  190.3770  177.6860  145.2810 C   0  0  0  0  0  2  0  0  0  0  0  0
  1 16  1  0  0  0  0
  2 10  1  0  0  0  0
  2  9  1  1  0  0  0
  3  6  1  0  0  0  0
  3  4  1  0  0  0  0
  4  2  1  0  0  0  0
  5  3  2  0  0  0  0
  6  8  1  6  0  0  0
  6 10  1  0  0  0  0
 10  7  1  6  0  0  0
 10  1  1  0  0  0  0
 11 12  1  0  0  0  0
 11  2  1  0  0  0  0
 12 13  1  0  0  0  0
 13 14  1  0  0  0  0
 14 15  3  0  0  0  0
 17 16  1  6  0  0  0
 17 20  1  0  0  0  0
 17 18  1  0  0  0  0
 18 19  1  0  0  0  0
 21 20  1  0  0  0  0
 23 21  1  6  0  0  0
 23 25  1  0  0  0  0
 24 28  1  0  0  0  0
 25 22  1  0  0  0  0
 26 24  1  0  0  0  0
 26 23  1  0  0  0  0
 27 24  2  0  0  0  0
 28 22  1  0  0  0  0
M  END
>  <MODEL>
5

>  <REMARK>
 VINA RESULT:      -6.4      4.192      8.460
  Name = 
  11 active torsions:
  status: ('A' for Active; 'I' for Inactive)
    1  A    between atoms: C_1  and  C_11
    2  A    between atoms: C_5  and  C_25
    3  A    between atoms: N_6  and  C_8
    4  A    between atoms: N_6  and  C_22
    5  A    between atoms: C_8  and  C_11
    6  A    between atoms: C_9  and  C_18
    7  A    between atoms: C_10  and  C_17
    8  A    between atoms: C_10  and  C_25
    9  A    between atoms: C_14  and  C_18
   10  A    between atoms: C_14  and  C_25
   11  A    between atoms: C_17  and  C_27
                            x       y       z     vdW  Elec       q    Type
                         _______ _______ _______ _____ _____    ______ ____

>  <TORSDO>
F 11

$$$$
=
 OpenBabel10262420583D

 28 29  0  0  1  0  0  0  0  0999 V2000
  188.6430  177.2670  139.3700 C   0  0  0  0  0  2  0  0  0  0  0  0
  189.7660  176.3760  137.2570 C   0  0  2  0  0  0  0  0  0  0  0  0
  187.4090  175.4750  137.0060 C   0  0  0  0  0  0  0  0  0  0  0  0
  189.0100  174.7130  137.2080 S   0  0  0  0  0  0  0  0  0  0  0  0
  186.4470  174.8320  136.6130 O   0  0  0  0  0  0  0  0  0  0  0  0
  187.3080  176.9300  137.3140 C   0  0  2  0  0  3  0  0  0  0  0  0
  189.0430  178.8260  137.4770 C   0  0  0  0  0  1  0  0  0  0  0  0
  186.7990  177.7010  136.0980 C   0  0  0  0  0  1  0  0  0  0  0  0
  191.0000  176.2970  138.1490 C   0  0  0  0  0  1  0  0  0  0  0  0
  188.6970  177.3730  137.8330 C   0  0  1  0  0  0  0  0  0  0  0  0
  190.3050  176.7610  135.8620 C   0  0  0  0  0  2  0  0  0  0  0  0
  190.4310  175.6100  134.8710 C   0  0  0  0  0  2  0  0  0  0  0  0
  191.8250  175.2390  134.7050 N   0  0  0  0  0  2  0  0  0  0  0  0
  192.3890  174.1910  135.4460 C   0  0  0  0  0  0  0  0  0  0  0  0
  192.8730  173.2890  136.0810 C   0  0  0  0  0  3  0  0  0  0  0  0
  188.6970  178.6240  140.0780 C   0  0  0  0  0  2  0  0  0  0  0  0
  187.9130  178.6250  141.3930 C   0  0  1  0  0  3  0  0  0  0  0  0
  186.4120  178.5610  141.1500 C   0  0  0  0  0  2  0  0  0  0  0  0
  185.8110  179.7510  141.5620 O   0  0  0  0  0  1  0  0  0  0  0  0
  188.3410  177.4880  142.3130 C   0  0  0  0  0  2  0  0  0  0  0  0
  187.2570  177.1420  143.3260 C   0  0  0  0  0  2  0  0  0  0  0  0
  188.8200  177.8760  146.7730 C   0  0  0  0  0  2  0  0  0  0  0  0
  187.4910  177.8530  144.6490 C   0  0  2  0  0  3  0  0  0  0  0  0
  186.4160  178.4800  146.7940 C   0  0  0  0  0  0  0  0  0  0  0  0
  188.5610  177.1250  145.4680 C   0  0  0  0  0  2  0  0  0  0  0  0
  186.1770  177.9170  145.4260 C   0  0  0  0  0  2  0  0  0  0  0  0
  185.6580  179.3160  147.2570 O   0  0  0  0  0  0  0  0  0  0  0  0
  187.5490  177.9470  147.6170 C   0  0  0  0  0  2  0  0  0  0  0  0
  1 16  1  0  0  0  0
  2 10  1  0  0  0  0
  2  9  1  1  0  0  0
  3  4  1  0  0  0  0
  3  6  1  0  0  0  0
  4  2  1  0  0  0  0
  5  3  2  0  0  0  0
  6  8  1  6  0  0  0
  6 10  1  0  0  0  0
 10  7  1  6  0  0  0
 10  1  1  0  0  0  0
 11  2  1  0  0  0  0
 12 11  1  0  0  0  0
 13 12  1  0  0  0  0
 13 14  1  0  0  0  0
 14 15  3  0  0  0  0
 17 16  1  6  0  0  0
 17 20  1  0  0  0  0
 18 17  1  0  0  0  0
 18 19  1  0  0  0  0
 20 21  1  0  0  0  0
 22 28  1  0  0  0  0
 23 21  1  6  0  0  0
 23 26  1  0  0  0  0
 23 25  1  0  0  0  0
 24 27  2  0  0  0  0
 24 28  1  0  0  0  0
 25 22  1  0  0  0  0
 26 24  1  0  0  0  0
M  END
>  <MODEL>
6

>  <REMARK>
 VINA RESULT:      -6.2      3.135      6.233
  Name = 
  11 active torsions:
  status: ('A' for Active; 'I' for Inactive)
    1  A    between atoms: C_1  and  C_11
    2  A    between atoms: C_5  and  C_25
    3  A    between atoms: N_6  and  C_8
    4  A    between atoms: N_6  and  C_22
    5  A    between atoms: C_8  and  C_11
    6  A    between atoms: C_9  and  C_18
    7  A    between atoms: C_10  and  C_17
    8  A    between atoms: C_10  and  C_25
    9  A    between atoms: C_14  and  C_18
   10  A    between atoms: C_14  and  C_25
   11  A    between atoms: C_17  and  C_27
                            x       y       z     vdW  Elec       q    Type
                         _______ _______ _______ _____ _____    ______ ____

>  <TORSDO>
F 11

$$$$
=
 OpenBabel10262420583D

 28 29  0  0  1  0  0  0  0  0999 V2000
  183.8650  178.1940  141.1580 C   0  0  0  0  0  2  0  0  0  0  0  0
  182.8710  178.8270  138.8930 C   0  0  2  0  0  0  0  0  0  0  0  0
  183.1480  176.3170  138.6500 C   0  0  0  0  0  0  0  0  0  0  0  0
  183.8660  177.7270  137.8240 S   0  0  0  0  0  0  0  0  0  0  0  0
  183.2150  175.1980  138.1650 O   0  0  0  0  0  0  0  0  0  0  0  0
  182.4450  176.5740  139.9390 C   0  0  2  0  0  3  0  0  0  0  0  0
  181.4350  178.6850  141.0120 C   0  0  0  0  0  1  0  0  0  0  0  0
  180.9960  176.0980  139.8640 C   0  0  0  0  0  1  0  0  0  0  0  0
  183.6620  180.1150  139.0950 C   0  0  0  0  0  1  0  0  0  0  0  0
  182.6230  178.0790  140.2520 C   0  0  1  0  0  0  0  0  0  0  0  0
  181.5820  179.2590  138.1630 C   0  0  0  0  0  2  0  0  0  0  0  0
  181.5440  178.9580  136.6700 C   0  0  0  0  0  2  0  0  0  0  0  0
  180.5780  179.8160  136.0060 N   0  0  0  0  0  2  0  0  0  0  0  0
  180.5040  181.1850  136.2990 C   0  0  0  0  0  0  0  0  0  0  0  0
  180.4420  182.3620  136.5510 C   0  0  0  0  0  3  0  0  0  0  0  0
  183.5310  178.5370  142.6130 C   0  0  0  0  0  2  0  0  0  0  0  0
  184.7370  179.0980  143.3690 C   0  0  1  0  0  3  0  0  0  0  0  0
  184.4390  179.2690  144.8520 C   0  0  0  0  0  2  0  0  0  0  0  0
  183.0620  179.3730  145.0530 O   0  0  0  0  0  1  0  0  0  0  0  0
  185.9790  178.2340  143.1840 C   0  0  0  0  0  2  0  0  0  0  0  0
  186.2860  177.4100  144.4290 C   0  0  0  0  0  2  0  0  0  0  0  0
  190.1120  177.4820  144.8930 C   0  0  0  0  0  2  0  0  0  0  0  0
  187.6300  177.7940  145.0260 C   0  0  2  0  0  3  0  0  0  0  0  0
  188.9940  177.6950  147.0950 C   0  0  0  0  0  0  0  0  0  0  0  0
  188.7650  177.0520  144.3150 C   0  0  0  0  0  2  0  0  0  0  0  0
  187.6300  177.4630  146.5180 C   0  0  0  0  0  2  0  0  0  0  0  0
  189.1210  178.2640  148.1660 O   0  0  0  0  0  0  0  0  0  0  0  0
  190.1930  177.1470  146.3820 C   0  0  0  0  0  2  0  0  0  0  0  0
  1 16  1  0  0  0  0
  2  9  1  1  0  0  0
  2 10  1  0  0  0  0
  3  6  1  0  0  0  0
  4  3  1  0  0  0  0
  4  2  1  0  0  0  0
  5  3  2  0  0  0  0
  6  8  1  6  0  0  0
  6 10  1  0  0  0  0
 10  7  1  1  0  0  0
 10  1  1  0  0  0  0
 11  2  1  0  0  0  0
 12 11  1  0  0  0  0
 13 14  1  0  0  0  0
 13 12  1  0  0  0  0
 14 15  3  0  0  0  0
 17 16  1  6  0  0  0
 17 18  1  0  0  0  0
 18 19  1  0  0  0  0
 20 17  1  0  0  0  0
 20 21  1  0  0  0  0
 22 28  1  0  0  0  0
 23 21  1  6  0  0  0
 23 26  1  0  0  0  0
 24 27  2  0  0  0  0
 25 22  1  0  0  0  0
 25 23  1  0  0  0  0
 26 24  1  0  0  0  0
 28 24  1  0  0  0  0
M  END
>  <MODEL>
7

>  <REMARK>
 VINA RESULT:      -6.1      4.208      8.224
  Name = 
  11 active torsions:
  status: ('A' for Active; 'I' for Inactive)
    1  A    between atoms: C_1  and  C_11
    2  A    between atoms: C_5  and  C_25
    3  A    between atoms: N_6  and  C_8
    4  A    between atoms: N_6  and  C_22
    5  A    between atoms: C_8  and  C_11
    6  A    between atoms: C_9  and  C_18
    7  A    between atoms: C_10  and  C_17
    8  A    between atoms: C_10  and  C_25
    9  A    between atoms: C_14  and  C_18
   10  A    between atoms: C_14  and  C_25
   11  A    between atoms: C_17  and  C_27
                            x       y       z     vdW  Elec       q    Type
                         _______ _______ _______ _____ _____    ______ ____

>  <TORSDO>
F 11

$$$$
=
 OpenBabel10262420583D

 28 29  0  0  1  0  0  0  0  0999 V2000
  183.2560  177.8760  140.6590 C   0  0  0  0  0  2  0  0  0  0  0  0
  181.4790  177.5490  138.8550 C   0  0  2  0  0  0  0  0  0  0  0  0
  180.0820  177.4840  140.9710 C   0  0  0  0  0  0  0  0  0  0  0  0
  180.4470  176.2940  139.6920 S   0  0  0  0  0  0  0  0  0  0  0  0
  179.1490  177.3190  141.7410 O   0  0  0  0  0  0  0  0  0  0  0  0
  180.9510  178.6940  141.0370 C   0  0  2  0  0  3  0  0  0  0  0  0
  182.5090  179.8450  139.3410 C   0  0  0  0  0  1  0  0  0  0  0  0
  180.1130  179.9640  140.9060 C   0  0  0  0  0  1  0  0  0  0  0  0
  182.5980  176.8140  138.1240 C   0  0  0  0  0  1  0  0  0  0  0  0
  182.0430  178.5180  139.9550 C   0  0  1  0  0  0  0  0  0  0  0  0
  180.6700  178.2530  137.7440 C   0  0  0  0  0  2  0  0  0  0  0  0
  181.4300  178.5180  136.4510 C   0  0  0  0  0  2  0  0  0  0  0  0
  180.8140  179.6110  135.7190 N   0  0  0  0  0  2  0  0  0  0  0  0
  180.6840  180.8840  136.2920 C   0  0  0  0  0  0  0  0  0  0  0  0
  180.5730  181.9770  136.7860 C   0  0  0  0  0  3  0  0  0  0  0  0
  183.4540  178.3610  142.0990 C   0  0  0  0  0  2  0  0  0  0  0  0
  184.9290  178.3930  142.5040 C   0  0  1  0  0  3  0  0  0  0  0  0
  185.7940  179.0220  141.4210 C   0  0  0  0  0  2  0  0  0  0  0  0
  187.1190  178.6100  141.5700 O   0  0  0  0  0  1  0  0  0  0  0  0
  185.1400  179.1190  143.8270 C   0  0  0  0  0  2  0  0  0  0  0  0
  185.3350  178.1440  144.9820 C   0  0  0  0  0  2  0  0  0  0  0  0
  189.1220  177.5520  145.3910 C   0  0  0  0  0  2  0  0  0  0  0  0
  186.7280  178.2650  145.5780 C   0  0  2  0  0  3  0  0  0  0  0  0
  188.0700  177.8290  147.6180 C   0  0  0  0  0  0  0  0  0  0  0  0
  187.7180  177.3840  144.8110 C   0  0  0  0  0  2  0  0  0  0  0  0
  186.6820  177.8590  147.0510 C   0  0  0  0  0  2  0  0  0  0  0  0
  188.2970  178.3100  148.7150 O   0  0  0  0  0  0  0  0  0  0  0  0
  189.1560  177.1290  146.8580 C   0  0  0  0  0  2  0  0  0  0  0  0
  1 16  1  0  0  0  0
  2  9  1  6  0  0  0
  2  4  1  0  0  0  0
  2 10  1  0  0  0  0
  3  6  1  0  0  0  0
  3  5  2  0  0  0  0
  4  3  1  0  0  0  0
  6  8  1  6  0  0  0
 10  7  1  6  0  0  0
 10  1  1  0  0  0  0
 10  6  1  0  0  0  0
 11  2  1  0  0  0  0
 12 11  1  0  0  0  0
 13 14  1  0  0  0  0
 13 12  1  0  0  0  0
 14 15  3  0  0  0  0
 16 17  1  0  0  0  0
 17 18  1  6  0  0  0
 17 20  1  0  0  0  0
 18 19  1  0  0  0  0
 20 21  1  0  0  0  0
 22 28  1  0  0  0  0
 23 21  1  6  0  0  0
 23 26  1  0  0  0  0
 24 27  2  0  0  0  0
 25 22  1  0  0  0  0
 25 23  1  0  0  0  0
 26 24  1  0  0  0  0
 28 24  1  0  0  0  0
M  END
>  <MODEL>
8

>  <REMARK>
 VINA RESULT:      -6.1      4.404      8.739
  Name = 
  11 active torsions:
  status: ('A' for Active; 'I' for Inactive)
    1  A    between atoms: C_1  and  C_11
    2  A    between atoms: C_5  and  C_25
    3  A    between atoms: N_6  and  C_8
    4  A    between atoms: N_6  and  C_22
    5  A    between atoms: C_8  and  C_11
    6  A    between atoms: C_9  and  C_18
    7  A    between atoms: C_10  and  C_17
    8  A    between atoms: C_10  and  C_25
    9  A    between atoms: C_14  and  C_18
   10  A    between atoms: C_14  and  C_25
   11  A    between atoms: C_17  and  C_27
                            x       y       z     vdW  Elec       q    Type
                         _______ _______ _______ _____ _____    ______ ____

>  <TORSDO>
F 11

$$$$
=
 OpenBabel10262420583D

 28 29  0  0  1  0  0  0  0  0999 V2000
  189.6240  177.6810  145.5410 C   0  0  0  0  0  2  0  0  0  0  0  0
  191.0330  176.9450  143.5430 C   0  0  2  0  0  0  0  0  0  0  0  0
  188.6900  176.8820  142.5720 C   0  0  0  0  0  0  0  0  0  0  0  0
  189.9350  175.6410  142.8820 S   0  0  0  0  0  0  0  0  0  0  0  0
  187.7470  176.6600  141.8290 O   0  0  0  0  0  0  0  0  0  0  0  0
  188.8690  178.2010  143.2430 C   0  0  2  0  0  3  0  0  0  0  0  0
  190.9000  179.3970  144.2780 C   0  0  0  0  0  1  0  0  0  0  0  0
  188.9200  179.3240  142.2100 C   0  0  0  0  0  1  0  0  0  0  0  0
  191.9140  176.3090  144.6130 C   0  0  0  0  0  1  0  0  0  0  0  0
  190.1240  178.0800  144.1390 C   0  0  1  0  0  0  0  0  0  0  0  0
  192.0120  177.4250  142.4510 C   0  0  0  0  0  2  0  0  0  0  0  0
  191.5570  177.1890  141.0160 C   0  0  0  0  0  2  0  0  0  0  0  0
  192.6800  177.3140  140.1030 N   0  0  0  0  0  2  0  0  0  0  0  0
  192.6090  176.8140  138.7960 C   0  0  0  0  0  0  0  0  0  0  0  0
  192.5480  176.3860  137.6710 C   0  0  0  0  0  3  0  0  0  0  0  0
  188.1390  177.3060  145.5770 C   0  0  0  0  0  2  0  0  0  0  0  0
  187.4480  177.7890  146.8540 C   0  0  1  0  0  3  0  0  0  0  0  0
  188.4560  178.1490  147.9360 C   0  0  0  0  0  2  0  0  0  0  0  0
  187.8880  177.9680  149.1970 O   0  0  0  0  0  1  0  0  0  0  0  0
  186.5240  178.9710  146.5890 C   0  0  0  0  0  2  0  0  0  0  0  0
  185.0820  178.5250  146.3750 C   0  0  0  0  0  2  0  0  0  0  0  0
  182.5030  179.2330  143.5990 C   0  0  0  0  0  2  0  0  0  0  0  0
  184.5220  179.0760  145.0730 C   0  0  2  0  0  3  0  0  0  0  0  0
  184.7610  178.9930  142.6060 C   0  0  0  0  0  0  0  0  0  0  0  0
  183.0670  178.6350  144.8870 C   0  0  0  0  0  2  0  0  0  0  0  0
  185.3810  178.5860  143.9090 C   0  0  0  0  0  2  0  0  0  0  0  0
  185.4520  179.4530  141.7130 O   0  0  0  0  0  0  0  0  0  0  0  0
  183.2980  178.7540  142.3860 C   0  0  0  0  0  2  0  0  0  0  0  0
  1 16  1  0  0  0  0
  2 10  1  0  0  0  0
  2  9  1  1  0  0  0
  3  4  1  0  0  0  0
  3  6  1  0  0  0  0
  4  2  1  0  0  0  0
  5  3  2  0  0  0  0
  6  8  1  6  0  0  0
  6 10  1  0  0  0  0
 10  7  1  1  0  0  0
 10  1  1  0  0  0  0
 11  2  1  0  0  0  0
 12 11  1  0  0  0  0
 13 12  1  0  0  0  0
 14 13  1  0  0  0  0
 15 14  3  0  0  0  0
 17 16  1  6  0  0  0
 17 18  1  0  0  0  0
 18 19  1  0  0  0  0
 20 17  1  0  0  0  0
 21 20  1  0  0  0  0
 22 25  1  0  0  0  0
 23 21  1  1  0  0  0
 24 26  1  0  0  0  0
 25 23  1  0  0  0  0
 26 23  1  0  0  0  0
 27 24  2  0  0  0  0
 28 24  1  0  0  0  0
 28 22  1  0  0  0  0
M  END
>  <MODEL>
9

>  <REMARK>
 VINA RESULT:      -6.1      1.687      2.448
  Name = 
  11 active torsions:
  status: ('A' for Active; 'I' for Inactive)
    1  A    between atoms: C_1  and  C_11
    2  A    between atoms: C_5  and  C_25
    3  A    between atoms: N_6  and  C_8
    4  A    between atoms: N_6  and  C_22
    5  A    between atoms: C_8  and  C_11
    6  A    between atoms: C_9  and  C_18
    7  A    between atoms: C_10  and  C_17
    8  A    between atoms: C_10  and  C_25
    9  A    between atoms: C_14  and  C_18
   10  A    between atoms: C_14  and  C_25
   11  A    between atoms: C_17  and  C_27
                            x       y       z     vdW  Elec       q    Type
                         _______ _______ _______ _____ _____    ______ ____

>  <TORSDO>
F 11

$$$$
