=
 OpenBabel10262421483D

 30 32  0  0  1  0  0  0  0  0999 V2000
  190.9660  176.6960  144.1000 C   0  0  0  0  0  0  0  0  0  0  0  0
  191.6110  176.3530  145.3290 N   0  0  0  0  0  0  0  0  0  0  0  0
  191.5840  176.5380  143.0130 O   0  0  0  0  0  0  0  0  0  0  0  0
  189.1800  177.8360  145.4460 C   0  0  2  0  0  3  0  0  0  0  0  0
  190.9330  176.5040  146.5810 C   0  0  0  0  0  3  0  0  0  0  0  0
  189.5230  177.1430  144.1150 C   0  0  1  0  0  3  0  0  0  0  0  0
  189.7730  177.1540  146.6520 C   0  0  0  0  0  2  0  0  0  0  0  0
  185.7680  178.4990  147.0130 C   0  0  0  0  0  3  0  0  0  0  0  0
  184.9340  178.4000  145.8980 C   0  0  0  0  0  3  0  0  0  0  0  0
  187.1470  178.3140  146.8810 C   0  0  0  0  0  0  0  0  0  0  0  0
  186.8470  177.9250  144.5030 C   0  0  0  0  0  3  0  0  0  0  0  0
  188.0050  178.4340  148.0950 C   0  0  0  0  0  1  0  0  0  0  0  0
  185.4690  178.1120  144.6350 C   0  0  0  0  0  0  0  0  0  0  0  0
  187.6970  178.0220  145.6170 C   0  0  0  0  0  0  0  0  0  0  0  0
  185.5420  179.7760  142.2050 O   0  0  0  0  0  0  0  0  0  0  0  0
  184.7030  178.8410  142.3010 C   0  0  0  0  0  0  0  0  0  0  0  0
  184.6440  178.0100  143.4660 N   0  0  0  0  0  2  0  0  0  0  0  0
  183.7580  178.5920  141.1820 C   0  0  0  0  0  1  0  0  0  0  0  0
  188.6870  177.6160  141.8500 C   0  0  0  0  0  3  0  0  0  0  0  0
  189.2260  178.0730  142.9760 C   0  0  0  0  0  3  0  0  0  0  0  0
  188.3970  178.5540  140.7290 C   0  0  0  0  0  2  0  0  0  0  0  0
  189.3180  178.2790  139.5460 C   0  0  2  0  0  3  0  0  0  0  0  0
  189.0660  179.2040  138.5340 O   0  0  0  0  0  1  0  0  0  0  0  0
  189.6620  175.0440  137.3730 C   0  0  0  0  0  2  0  0  0  0  0  0
  189.1730  176.8570  138.9920 C   0  0  1  0  0  3  0  0  0  0  0  0
  188.3270  175.7050  137.0850 C   0  0  2  0  0  0  0  0  0  0  0  0
  188.0660  176.7760  138.0450 N   0  0  0  0  0  2  0  0  0  0  0  0
  190.6950  176.2520  138.2160 S   0  0  0  0  0  0  0  0  0  0  0  0
  187.3140  174.7520  137.1670 O   0  0  0  0  0  1  0  0  0  0  0  0
  188.3490  176.2870  135.6870 C   0  0  0  0  0  1  0  0  0  0  0  0
  1  6  1  0  0  0  0
  1  2  1  0  0  0  0
  2  5  2  0  0  0  0
  3  1  2  0  0  0  0
  4 14  1  1  0  0  0
  4  7  1  0  0  0  0
  5  7  1  0  0  0  0
  6 20  1  6  0  0  0
  6  4  1  0  0  0  0
  9  8  2  0  0  0  0
 10  8  1  0  0  0  0
 10 12  1  0  0  0  0
 11 13  2  0  0  0  0
 11 14  1  0  0  0  0
 13  9  1  0  0  0  0
 14 10  2  0  0  0  0
 15 16  2  0  0  0  0
 16 17  1  0  0  0  0
 17 13  1  0  0  0  0
 18 16  1  0  0  0  0
 19 20  2  0  0  0  0
 21 19  1  0  0  0  0
 22 23  1  6  0  0  0
 22 21  1  0  0  0  0
 24 28  1  0  0  0  0
 25 22  1  6  0  0  0
 26 30  1  6  0  0  0
 26 29  1  0  0  0  0
 26 24  1  0  0  0  0
 26 27  1  0  0  0  0
 27 25  1  0  0  0  0
 28 25  1  0  0  0  0
M  END
>  <MODEL>
1

>  <REMARK>
 VINA RESULT:      -9.7      0.000      0.000
  Name = 
  6 active torsions:
  status: ('A' for Active; 'I' for Inactive)
    1  A    between atoms: C_1  and  C_4
    2  A    between atoms: C_4  and  C_27
    3  A    between atoms: C_5  and  C_22
    4  A    between atoms: C_8  and  C_27
    5  A    between atoms: N_16  and  C_25
    6  A    between atoms: C_19  and  C_29
                            x       y       z     vdW  Elec       q    Type
                         _______ _______ _______ _____ _____    ______ ____

>  <TORSDO>
F 6

$$$$
=
 OpenBabel10262421483D

 30 32  0  0  1  0  0  0  0  0999 V2000
  191.0850  176.4100  144.6010 C   0  0  0  0  0  0  0  0  0  0  0  0
  191.6420  176.3020  145.9130 N   0  0  0  0  0  0  0  0  0  0  0  0
  191.7740  176.0590  143.6060 O   0  0  0  0  0  0  0  0  0  0  0  0
  189.2190  177.7670  145.5920 C   0  0  2  0  0  3  0  0  0  0  0  0
  190.8820  176.6740  147.0670 C   0  0  0  0  0  3  0  0  0  0  0  0
  189.6470  176.8440  144.4360 C   0  0  1  0  0  3  0  0  0  0  0  0
  189.7240  177.3200  146.9400 C   0  0  0  0  0  2  0  0  0  0  0  0
  185.6920  178.5220  146.8280 C   0  0  0  0  0  3  0  0  0  0  0  0
  184.9570  178.3860  145.6490 C   0  0  0  0  0  3  0  0  0  0  0  0
  187.0750  178.3190  146.8240 C   0  0  0  0  0  0  0  0  0  0  0  0
  186.9780  177.8400  144.4460 C   0  0  0  0  0  3  0  0  0  0  0  0
  187.8250  178.4790  148.1030 C   0  0  0  0  0  1  0  0  0  0  0  0
  185.5960  178.0440  144.4500 C   0  0  0  0  0  0  0  0  0  0  0  0
  187.7290  177.9730  145.6260 C   0  0  0  0  0  0  0  0  0  0  0  0
  185.6990  179.7810  142.0720 O   0  0  0  0  0  0  0  0  0  0  0  0
  184.9460  178.7720  142.0800 C   0  0  0  0  0  0  0  0  0  0  0  0
  184.8760  177.9030  143.2180 N   0  0  0  0  0  2  0  0  0  0  0  0
  184.1150  178.4730  140.8850 C   0  0  0  0  0  1  0  0  0  0  0  0
  189.1000  176.8680  142.0380 C   0  0  0  0  0  3  0  0  0  0  0  0
  189.4340  177.5490  143.1290 C   0  0  0  0  0  3  0  0  0  0  0  0
  188.8910  177.5840  140.7480 C   0  0  0  0  0  2  0  0  0  0  0  0
  189.7920  177.0080  139.6620 C   0  0  2  0  0  3  0  0  0  0  0  0
  191.0620  177.5750  139.7610 O   0  0  0  0  0  1  0  0  0  0  0  0
  187.9140  178.4430  136.5440 C   0  0  0  0  0  2  0  0  0  0  0  0
  189.2400  177.2240  138.2480 C   0  0  1  0  0  3  0  0  0  0  0  0
  187.1720  177.2260  137.0630 C   0  0  2  0  0  0  0  0  0  0  0  0
  187.9690  176.5290  138.0730 N   0  0  0  0  0  2  0  0  0  0  0  0
  189.0480  178.9790  137.8350 S   0  0  0  0  0  0  0  0  0  0  0  0
  186.9090  176.3600  136.0030 O   0  0  0  0  0  1  0  0  0  0  0  0
  185.8610  177.6650  137.6820 C   0  0  0  0  0  1  0  0  0  0  0  0
  1  2  1  0  0  0  0
  2  5  2  0  0  0  0
  3  1  2  0  0  0  0
  4 14  1  1  0  0  0
  4  7  1  0  0  0  0
  6 20  1  6  0  0  0
  6  1  1  0  0  0  0
  6  4  1  0  0  0  0
  7  5  1  0  0  0  0
  9  8  2  0  0  0  0
 10  8  1  0  0  0  0
 10 12  1  0  0  0  0
 11 13  2  0  0  0  0
 11 14  1  0  0  0  0
 13  9  1  0  0  0  0
 14 10  2  0  0  0  0
 15 16  2  0  0  0  0
 16 17  1  0  0  0  0
 17 13  1  0  0  0  0
 18 16  1  0  0  0  0
 19 20  2  0  0  0  0
 21 19  1  0  0  0  0
 22 23  1  6  0  0  0
 22 21  1  0  0  0  0
 24 26  1  0  0  0  0
 24 28  1  0  0  0  0
 25 22  1  1  0  0  0
 26 30  1  1  0  0  0
 26 27  1  0  0  0  0
 27 25  1  0  0  0  0
 28 25  1  0  0  0  0
 29 26  1  0  0  0  0
M  END
>  <MODEL>
2

>  <REMARK>
 VINA RESULT:      -9.5      1.273      1.428
  Name = 
  6 active torsions:
  status: ('A' for Active; 'I' for Inactive)
    1  A    between atoms: C_1  and  C_4
    2  A    between atoms: C_4  and  C_27
    3  A    between atoms: C_5  and  C_22
    4  A    between atoms: C_8  and  C_27
    5  A    between atoms: N_16  and  C_25
    6  A    between atoms: C_19  and  C_29
                            x       y       z     vdW  Elec       q    Type
                         _______ _______ _______ _____ _____    ______ ____

>  <TORSDO>
F 6

$$$$
=
 OpenBabel10262421483D

 30 32  0  0  1  0  0  0  0  0999 V2000
  189.9500  176.7540  145.2780 C   0  0  0  0  0  0  0  0  0  0  0  0
  190.0230  176.6910  146.7050 N   0  0  0  0  0  0  0  0  0  0  0  0
  190.9420  176.3910  144.5920 O   0  0  0  0  0  0  0  0  0  0  0  0
  187.8430  178.0970  145.5250 C   0  0  2  0  0  3  0  0  0  0  0  0
  188.9090  177.0780  147.5150 C   0  0  0  0  0  3  0  0  0  0  0  0
  188.6520  177.1540  144.6170 C   0  0  1  0  0  3  0  0  0  0  0  0
  187.8590  177.6970  146.9780 C   0  0  0  0  0  2  0  0  0  0  0  0
  184.1160  178.8950  145.4310 C   0  0  0  0  0  3  0  0  0  0  0  0
  183.8160  178.6280  144.0930 C   0  0  0  0  0  3  0  0  0  0  0  0
  185.4180  178.7220  145.9090 C   0  0  0  0  0  0  0  0  0  0  0  0
  186.1160  178.0100  143.6960 C   0  0  0  0  0  3  0  0  0  0  0  0
  185.6990  179.0230  147.3420 C   0  0  0  0  0  1  0  0  0  0  0  0
  184.8150  178.1830  143.2170 C   0  0  0  0  0  0  0  0  0  0  0  0
  186.4300  178.2740  145.0390 C   0  0  0  0  0  0  0  0  0  0  0  0
  185.6170  179.7530  140.8560 O   0  0  0  0  0  0  0  0  0  0  0  0
  184.9470  178.6960  140.7090 C   0  0  0  0  0  0  0  0  0  0  0  0
  184.5460  177.9060  141.8360 N   0  0  0  0  0  2  0  0  0  0  0  0
  184.5690  178.2560  139.3420 C   0  0  0  0  0  1  0  0  0  0  0  0
  188.9050  177.1110  142.1700 C   0  0  0  0  0  3  0  0  0  0  0  0
  188.8940  177.8200  143.2940 C   0  0  0  0  0  3  0  0  0  0  0  0
  189.1460  177.7890  140.8640 C   0  0  0  0  0  2  0  0  0  0  0  0
  190.2100  177.0480  140.0630 C   0  0  2  0  0  3  0  0  0  0  0  0
  191.4740  177.5040  140.4360 O   0  0  0  0  0  1  0  0  0  0  0  0
  188.7800  177.8620  136.5140 C   0  0  0  0  0  2  0  0  0  0  0  0
  190.0340  177.2000  138.5480 C   0  0  1  0  0  3  0  0  0  0  0  0
  188.6940  176.3680  136.7620 C   0  0  2  0  0  0  0  0  0  0  0  0
  189.4320  176.0030  137.9700 N   0  0  0  0  0  2  0  0  0  0  0  0
  189.0550  178.6600  138.1030 S   0  0  0  0  0  0  0  0  0  0  0  0
  189.2300  175.6880  135.6690 O   0  0  0  0  0  1  0  0  0  0  0  0
  187.2420  175.9710  136.9280 C   0  0  0  0  0  1  0  0  0  0  0  0
  1  2  1  0  0  0  0
  2  5  2  0  0  0  0
  3  1  2  0  0  0  0
  4 14  1  6  0  0  0
  4  7  1  0  0  0  0
  6 20  1  6  0  0  0
  6  1  1  0  0  0  0
  6  4  1  0  0  0  0
  7  5  1  0  0  0  0
  8 10  1  0  0  0  0
  9  8  2  0  0  0  0
 10 12  1  0  0  0  0
 11 14  1  0  0  0  0
 13 11  2  0  0  0  0
 13  9  1  0  0  0  0
 14 10  2  0  0  0  0
 16 15  2  0  0  0  0
 16 17  1  0  0  0  0
 17 13  1  0  0  0  0
 18 16  1  0  0  0  0
 19 20  2  0  0  0  0
 21 19  1  0  0  0  0
 22 23  1  1  0  0  0
 22 21  1  0  0  0  0
 24 26  1  0  0  0  0
 24 28  1  0  0  0  0
 25 22  1  1  0  0  0
 26 30  1  1  0  0  0
 26 27  1  0  0  0  0
 27 25  1  0  0  0  0
 28 25  1  0  0  0  0
 29 26  1  0  0  0  0
M  END
>  <MODEL>
3

>  <REMARK>
 VINA RESULT:      -9.2      1.518      1.896
  Name = 
  6 active torsions:
  status: ('A' for Active; 'I' for Inactive)
    1  A    between atoms: C_1  and  C_4
    2  A    between atoms: C_4  and  C_27
    3  A    between atoms: C_5  and  C_22
    4  A    between atoms: C_8  and  C_27
    5  A    between atoms: N_16  and  C_25
    6  A    between atoms: C_19  and  C_29
                            x       y       z     vdW  Elec       q    Type
                         _______ _______ _______ _____ _____    ______ ____

>  <TORSDO>
F 6

$$$$
=
 OpenBabel10262421483D

 30 32  0  0  1  0  0  0  0  0999 V2000
  185.0830  178.8250  144.4760 C   0  0  0  0  0  0  0  0  0  0  0  0
  184.5050  178.9810  145.7740 N   0  0  0  0  0  0  0  0  0  0  0  0
  184.3900  179.0850  143.4550 O   0  0  0  0  0  0  0  0  0  0  0  0
  186.9980  177.6170  145.5600 C   0  0  2  0  0  3  0  0  0  0  0  0
  185.2680  178.7120  146.9540 C   0  0  0  0  0  3  0  0  0  0  0  0
  186.5410  178.4510  144.3490 C   0  0  1  0  0  3  0  0  0  0  0  0
  186.4560  178.1150  146.8750 C   0  0  0  0  0  2  0  0  0  0  0  0
  190.5300  176.9610  146.8370 C   0  0  0  0  0  3  0  0  0  0  0  0
  191.2840  177.2110  145.6880 C   0  0  0  0  0  3  0  0  0  0  0  0
  189.1390  177.0940  146.8100 C   0  0  0  0  0  0  0  0  0  0  0  0
  189.2650  177.7320  144.4710 C   0  0  0  0  0  3  0  0  0  0  0  0
  188.3700  176.8130  148.0560 C   0  0  0  0  0  1  0  0  0  0  0  0
  190.6550  177.5980  144.4970 C   0  0  0  0  0  0  0  0  0  0  0  0
  188.4960  177.4850  145.6200 C   0  0  0  0  0  0  0  0  0  0  0  0
  190.6080  176.0850  141.9700 O   0  0  0  0  0  0  0  0  0  0  0  0
  191.3530  177.0940  142.0830 C   0  0  0  0  0  0  0  0  0  0  0  0
  191.3960  177.8560  143.2960 N   0  0  0  0  0  2  0  0  0  0  0  0
  192.2010  177.5070  140.9360 C   0  0  0  0  0  1  0  0  0  0  0  0
  187.4350  178.2530  142.0660 C   0  0  0  0  0  3  0  0  0  0  0  0
  186.8030  177.6840  143.0870 C   0  0  0  0  0  3  0  0  0  0  0  0
  187.6880  177.4760  140.8200 C   0  0  0  0  0  2  0  0  0  0  0  0
  188.1210  178.4010  139.6880 C   0  0  2  0  0  3  0  0  0  0  0  0
  187.0310  178.6660  138.8600 O   0  0  0  0  0  1  0  0  0  0  0  0
  190.2790  176.9310  136.7750 C   0  0  0  0  0  2  0  0  0  0  0  0
  189.2750  177.8310  138.8560 C   0  0  1  0  0  3  0  0  0  0  0  0
  189.9260  175.8240  137.7500 C   0  0  2  0  0  0  0  0  0  0  0  0
  189.3280  176.3770  138.9640 N   0  0  0  0  0  2  0  0  0  0  0  0
  189.1850  178.3190  137.1120 S   0  0  0  0  0  0  0  0  0  0  0  0
  191.0810  175.1180  138.0840 O   0  0  0  0  0  1  0  0  0  0  0  0
  188.9390  174.8780  137.0970 C   0  0  0  0  0  1  0  0  0  0  0  0
  1  2  1  0  0  0  0
  2  5  2  0  0  0  0
  3  1  2  0  0  0  0
  4 14  1  1  0  0  0
  4  7  1  0  0  0  0
  6 20  1  6  0  0  0
  6  1  1  0  0  0  0
  6  4  1  0  0  0  0
  7  5  1  0  0  0  0
  9  8  2  0  0  0  0
 10  8  1  0  0  0  0
 10 12  1  0  0  0  0
 11 13  2  0  0  0  0
 11 14  1  0  0  0  0
 13  9  1  0  0  0  0
 14 10  2  0  0  0  0
 15 16  2  0  0  0  0
 16 17  1  0  0  0  0
 17 13  1  0  0  0  0
 18 16  1  0  0  0  0
 19 20  2  0  0  0  0
 21 19  1  0  0  0  0
 22 23  1  6  0  0  0
 22 21  1  0  0  0  0
 24 28  1  0  0  0  0
 24 26  1  0  0  0  0
 25 27  1  0  0  0  0
 25 22  1  1  0  0  0
 26 30  1  6  0  0  0
 26 29  1  0  0  0  0
 26 27  1  0  0  0  0
 28 25  1  0  0  0  0
M  END
>  <MODEL>
4

>  <REMARK>
 VINA RESULT:      -9.2      1.721      4.426
  Name = 
  6 active torsions:
  status: ('A' for Active; 'I' for Inactive)
    1  A    between atoms: C_1  and  C_4
    2  A    between atoms: C_4  and  C_27
    3  A    between atoms: C_5  and  C_22
    4  A    between atoms: C_8  and  C_27
    5  A    between atoms: N_16  and  C_25
    6  A    between atoms: C_19  and  C_29
                            x       y       z     vdW  Elec       q    Type
                         _______ _______ _______ _____ _____    ______ ____

>  <TORSDO>
F 6

$$$$
=
 OpenBabel10262421483D

 30 32  0  0  1  0  0  0  0  0999 V2000
  185.0710  178.9200  140.5750 C   0  0  0  0  0  0  0  0  0  0  0  0
  183.6460  178.9920  140.6750 N   0  0  0  0  0  0  0  0  0  0  0  0
  185.6210  179.0940  139.4540 O   0  0  0  0  0  0  0  0  0  0  0  0
  185.1060  177.9670  142.8970 C   0  0  2  0  0  3  0  0  0  0  0  0
  182.9890  178.8170  141.9340 C   0  0  0  0  0  3  0  0  0  0  0  0
  185.8970  178.7410  141.8270 C   0  0  1  0  0  3  0  0  0  0  0  0
  183.6610  178.3820  142.9980 C   0  0  0  0  0  2  0  0  0  0  0  0
  185.7280  178.5980  146.6050 C   0  0  0  0  0  3  0  0  0  0  0  0
  187.0250  178.1020  146.7500 C   0  0  0  0  0  3  0  0  0  0  0  0
  185.0960  178.5650  145.3590 C   0  0  0  0  0  0  0  0  0  0  0  0
  187.0760  177.5340  144.4040 C   0  0  0  0  0  3  0  0  0  0  0  0
  183.7080  179.1000  145.2460 C   0  0  0  0  0  1  0  0  0  0  0  0
  187.7070  177.5670  145.6500 C   0  0  0  0  0  0  0  0  0  0  0  0
  185.7720  178.0310  144.2450 C   0  0  0  0  0  0  0  0  0  0  0  0
  190.2130  178.7130  144.6050 O   0  0  0  0  0  0  0  0  0  0  0  0
  190.2360  177.6230  145.2360 C   0  0  0  0  0  0  0  0  0  0  0  0
  189.0370  177.0410  145.7630 N   0  0  0  0  0  2  0  0  0  0  0  0
  191.5320  176.9290  145.4440 C   0  0  0  0  0  1  0  0  0  0  0  0
  188.2950  178.7010  141.2770 C   0  0  0  0  0  3  0  0  0  0  0  0
  187.1810  178.0220  141.5370 C   0  0  0  0  0  3  0  0  0  0  0  0
  189.5630  177.9710  140.9920 C   0  0  0  0  0  2  0  0  0  0  0  0
  189.8260  177.9170  139.4920 C   0  0  2  0  0  3  0  0  0  0  0  0
  189.1310  178.9470  138.8590 O   0  0  0  0  0  1  0  0  0  0  0  0
  189.5890  174.8090  137.1290 C   0  0  0  0  0  2  0  0  0  0  0  0
  189.4400  176.5730  138.8640 C   0  0  1  0  0  3  0  0  0  0  0  0
  188.3700  175.6890  136.9270 C   0  0  2  0  0  0  0  0  0  0  0  0
  188.3090  176.7260  137.9560 N   0  0  0  0  0  2  0  0  0  0  0  0
  190.8250  175.7840  138.0000 S   0  0  0  0  0  0  0  0  0  0  0  0
  187.2200  174.9040  136.9920 O   0  0  0  0  0  1  0  0  0  0  0  0
  188.4470  176.3450  135.5640 C   0  0  0  0  0  1  0  0  0  0  0  0
  1  2  1  0  0  0  0
  1  6  1  0  0  0  0
  2  5  2  0  0  0  0
  3  1  2  0  0  0  0
  4  7  1  0  0  0  0
  4 14  1  1  0  0  0
  5  7  1  0  0  0  0
  6 20  1  6  0  0  0
  6  4  1  0  0  0  0
  8  9  1  0  0  0  0
 10  8  2  0  0  0  0
 11 13  1  0  0  0  0
 12 10  1  0  0  0  0
 13 17  1  0  0  0  0
 13  9  2  0  0  0  0
 14 11  2  0  0  0  0
 14 10  1  0  0  0  0
 15 16  2  0  0  0  0
 16 18  1  0  0  0  0
 16 17  1  0  0  0  0
 19 20  2  0  0  0  0
 21 19  1  0  0  0  0
 22 23  1  6  0  0  0
 22 21  1  0  0  0  0
 24 28  1  0  0  0  0
 25 22  1  6  0  0  0
 26 30  1  6  0  0  0
 26 29  1  0  0  0  0
 26 24  1  0  0  0  0
 26 27  1  0  0  0  0
 27 25  1  0  0  0  0
 28 25  1  0  0  0  0
M  END
>  <MODEL>
5

>  <REMARK>
 VINA RESULT:      -9.1      1.389      4.560
  Name = 
  6 active torsions:
  status: ('A' for Active; 'I' for Inactive)
    1  A    between atoms: C_1  and  C_4
    2  A    between atoms: C_4  and  C_27
    3  A    between atoms: C_5  and  C_22
    4  A    between atoms: C_8  and  C_27
    5  A    between atoms: N_16  and  C_25
    6  A    between atoms: C_19  and  C_29
                            x       y       z     vdW  Elec       q    Type
                         _______ _______ _______ _____ _____    ______ ____

>  <TORSDO>
F 6

$$$$
=
 OpenBabel10262421483D

 30 32  0  0  1  0  0  0  0  0999 V2000
  184.4910  178.9790  144.4160 C   0  0  0  0  0  0  0  0  0  0  0  0
  184.1390  178.8730  145.7980 N   0  0  0  0  0  0  0  0  0  0  0  0
  183.6710  179.4880  143.6070 O   0  0  0  0  0  0  0  0  0  0  0  0
  186.4490  177.4780  144.8820 C   0  0  2  0  0  3  0  0  0  0  0  0
  185.0530  178.3160  146.7480 C   0  0  0  0  0  3  0  0  0  0  0  0
  185.8770  178.5770  143.9680 C   0  0  1  0  0  3  0  0  0  0  0  0
  186.1620  177.6990  146.3450 C   0  0  0  0  0  2  0  0  0  0  0  0
  190.2080  177.2360  145.4750 C   0  0  0  0  0  3  0  0  0  0  0  0
  190.6560  176.8360  144.2140 C   0  0  0  0  0  3  0  0  0  0  0  0
  188.8460  177.4520  145.7030 C   0  0  0  0  0  0  0  0  0  0  0  0
  188.3850  176.8660  143.3930 C   0  0  0  0  0  3  0  0  0  0  0  0
  188.4080  177.8740  147.0650 C   0  0  0  0  0  1  0  0  0  0  0  0
  189.7460  176.6480  143.1650 C   0  0  0  0  0  0  0  0  0  0  0  0
  187.9220  177.2690  144.6560 C   0  0  0  0  0  0  0  0  0  0  0  0
  189.4710  178.0960  140.6130 O   0  0  0  0  0  0  0  0  0  0  0  0
  190.0130  176.9590  140.6350 C   0  0  0  0  0  0  0  0  0  0  0  0
  190.1680  176.2300  141.8590 N   0  0  0  0  0  2  0  0  0  0  0  0
  190.5060  176.3630  139.3670 C   0  0  0  0  0  1  0  0  0  0  0  0
  185.9820  178.9550  141.5400 C   0  0  0  0  0  3  0  0  0  0  0  0
  185.8750  178.0950  142.5480 C   0  0  0  0  0  3  0  0  0  0  0  0
  185.9790  178.4590  140.1340 C   0  0  0  0  0  2  0  0  0  0  0  0
  184.6490  178.7700  139.4570 C   0  0  2  0  0  3  0  0  0  0  0  0
  184.4200  180.1450  139.4910 O   0  0  0  0  0  1  0  0  0  0  0  0
  181.2850  176.8560  140.0240 C   0  0  0  0  0  2  0  0  0  0  0  0
  183.4660  178.0340  140.0940 C   0  0  1  0  0  3  0  0  0  0  0  0
  181.1270  178.2960  140.4730 C   0  0  2  0  0  0  0  0  0  0  0  0
  182.4240  178.9720  140.4980 N   0  0  0  0  0  2  0  0  0  0  0  0
  182.7660  176.7640  139.0060 S   0  0  0  0  0  0  0  0  0  0  0  0
  180.5680  178.3210  141.7500 O   0  0  0  0  0  1  0  0  0  0  0  0
  180.2070  179.0220  139.5140 C   0  0  0  0  0  1  0  0  0  0  0  0
  1  2  1  0  0  0  0
  2  5  2  0  0  0  0
  3  1  2  0  0  0  0
  4 14  1  1  0  0  0
  4  7  1  0  0  0  0
  6 20  1  6  0  0  0
  6  1  1  0  0  0  0
  6  4  1  0  0  0  0
  7  5  1  0  0  0  0
  8 10  1  0  0  0  0
  9  8  2  0  0  0  0
 10 12  1  0  0  0  0
 11 14  1  0  0  0  0
 13 11  2  0  0  0  0
 13  9  1  0  0  0  0
 14 10  2  0  0  0  0
 15 16  2  0  0  0  0
 16 17  1  0  0  0  0
 17 13  1  0  0  0  0
 18 16  1  0  0  0  0
 19 20  2  0  0  0  0
 21 19  1  0  0  0  0
 22 23  1  1  0  0  0
 22 21  1  0  0  0  0
 24 26  1  0  0  0  0
 25 22  1  6  0  0  0
 25 27  1  0  0  0  0
 26 30  1  6  0  0  0
 26 27  1  0  0  0  0
 26 29  1  0  0  0  0
 28 24  1  0  0  0  0
 28 25  1  0  0  0  0
M  END
>  <MODEL>
6

>  <REMARK>
 VINA RESULT:      -9.1      2.726      5.861
  Name = 
  6 active torsions:
  status: ('A' for Active; 'I' for Inactive)
    1  A    between atoms: C_1  and  C_4
    2  A    between atoms: C_4  and  C_27
    3  A    between atoms: C_5  and  C_22
    4  A    between atoms: C_8  and  C_27
    5  A    between atoms: N_16  and  C_25
    6  A    between atoms: C_19  and  C_29
                            x       y       z     vdW  Elec       q    Type
                         _______ _______ _______ _____ _____    ______ ____

>  <TORSDO>
F 6

$$$$
=
 OpenBabel10262421483D

 30 32  0  0  1  0  0  0  0  0999 V2000
  185.1130  178.8980  140.5330 C   0  0  0  0  0  0  0  0  0  0  0  0
  183.6850  178.8450  140.5600 N   0  0  0  0  0  0  0  0  0  0  0  0
  185.7030  179.1130  139.4400 O   0  0  0  0  0  0  0  0  0  0  0  0
  185.1120  177.9670  142.8640 C   0  0  2  0  0  3  0  0  0  0  0  0
  182.9810  178.6200  141.7850 C   0  0  0  0  0  3  0  0  0  0  0  0
  185.8860  178.8010  141.8270 C   0  0  1  0  0  3  0  0  0  0  0  0
  183.6330  178.2530  142.8870 C   0  0  0  0  0  2  0  0  0  0  0  0
  185.5540  178.8600  146.5440 C   0  0  0  0  0  3  0  0  0  0  0  0
  186.8020  178.2950  146.8120 C   0  0  0  0  0  3  0  0  0  0  0  0
  184.9970  178.7650  145.2660 C   0  0  0  0  0  0  0  0  0  0  0  0
  186.9530  177.5330  144.5260 C   0  0  0  0  0  3  0  0  0  0  0  0
  183.6590  179.3780  145.0220 C   0  0  0  0  0  1  0  0  0  0  0  0
  187.5100  177.6270  145.8040 C   0  0  0  0  0  0  0  0  0  0  0  0
  185.6990  178.0990  144.2430 C   0  0  0  0  0  0  0  0  0  0  0  0
  190.1580  178.5810  144.9330 O   0  0  0  0  0  0  0  0  0  0  0  0
  190.0620  177.5170  145.6000 C   0  0  0  0  0  0  0  0  0  0  0  0
  188.7910  177.0280  146.0440 N   0  0  0  0  0  2  0  0  0  0  0  0
  191.2920  176.7540  145.9360 C   0  0  0  0  0  1  0  0  0  0  0  0
  188.3410  178.9330  141.7430 C   0  0  0  0  0  3  0  0  0  0  0  0
  187.2420  178.1970  141.6110 C   0  0  0  0  0  3  0  0  0  0  0  0
  189.6810  178.3170  141.5260 C   0  0  0  0  0  2  0  0  0  0  0  0
  189.5530  177.0160  140.7420 C   0  0  2  0  0  3  0  0  0  0  0  0
  190.2440  176.0030  141.4050 O   0  0  0  0  0  1  0  0  0  0  0  0
  189.8860  176.8100  136.8500 C   0  0  0  0  0  2  0  0  0  0  0  0
  190.0640  177.1320  139.3020 C   0  0  1  0  0  3  0  0  0  0  0  0
  190.7750  175.7600  137.4880 C   0  0  2  0  0  0  0  0  0  0  0  0
  190.8560  175.9640  138.9340 N   0  0  0  0  0  2  0  0  0  0  0  0
  188.7240  177.3730  138.1040 S   0  0  0  0  0  0  0  0  0  0  0  0
  192.0520  175.8400  136.9360 O   0  0  0  0  0  1  0  0  0  0  0  0
  190.2010  174.3850  137.2130 C   0  0  0  0  0  1  0  0  0  0  0  0
  1  2  1  0  0  0  0
  1  6  1  0  0  0  0
  2  5  2  0  0  0  0
  3  1  2  0  0  0  0
  4  7  1  0  0  0  0
  4 14  1  1  0  0  0
  5  7  1  0  0  0  0
  6 20  1  6  0  0  0
  6  4  1  0  0  0  0
  8  9  1  0  0  0  0
 10  8  2  0  0  0  0
 11 13  1  0  0  0  0
 12 10  1  0  0  0  0
 13 17  1  0  0  0  0
 13  9  2  0  0  0  0
 14 11  2  0  0  0  0
 14 10  1  0  0  0  0
 15 16  2  0  0  0  0
 16 18  1  0  0  0  0
 16 17  1  0  0  0  0
 20 19  2  0  0  0  0
 21 19  1  0  0  0  0
 22 23  1  1  0  0  0
 22 21  1  0  0  0  0
 24 26  1  0  0  0  0
 24 28  1  0  0  0  0
 25 22  1  1  0  0  0
 26 30  1  6  0  0  0
 26 27  1  0  0  0  0
 27 25  1  0  0  0  0
 28 25  1  0  0  0  0
 29 26  1  0  0  0  0
M  END
>  <MODEL>
7

>  <REMARK>
 VINA RESULT:      -9.0      1.953      4.862
  Name = 
  6 active torsions:
  status: ('A' for Active; 'I' for Inactive)
    1  A    between atoms: C_1  and  C_4
    2  A    between atoms: C_4  and  C_27
    3  A    between atoms: C_5  and  C_22
    4  A    between atoms: C_8  and  C_27
    5  A    between atoms: N_16  and  C_25
    6  A    between atoms: C_19  and  C_29
                            x       y       z     vdW  Elec       q    Type
                         _______ _______ _______ _____ _____    ______ ____

>  <TORSDO>
F 6

$$$$
=
 OpenBabel10262421483D

 30 32  0  0  1  0  0  0  0  0999 V2000
  186.5170  178.3990  147.2180 C   0  0  0  0  0  0  0  0  0  0  0  0
  187.3180  178.2070  148.3860 N   0  0  0  0  0  2  0  0  0  0  0  0
  185.3080  178.7340  147.3460 O   0  0  0  0  0  0  0  0  0  0  0  0
  188.3560  177.3370  145.8790 C   0  0  2  0  0  3  0  0  0  0  0  0
  188.6980  177.8440  148.2790 C   0  0  0  0  0  3  0  0  0  0  0  0
  187.1560  178.3010  145.8530 C   0  0  1  0  0  3  0  0  0  0  0  0
  189.2160  177.4770  147.1080 C   0  0  0  0  0  3  0  0  0  0  0  0
  191.3200  177.2380  143.4840 C   0  0  0  0  0  3  0  0  0  0  0  0
  190.7120  177.6140  142.2850 C   0  0  0  0  0  3  0  0  0  0  0  0
  190.5680  177.1490  144.6580 C   0  0  0  0  0  0  0  0  0  0  0  0
  188.5910  177.8190  143.4190 C   0  0  0  0  0  3  0  0  0  0  0  0
  191.2530  176.7390  145.9180 C   0  0  0  0  0  1  0  0  0  0  0  0
  189.3420  177.9070  142.2450 C   0  0  0  0  0  0  0  0  0  0  0  0
  189.1910  177.4430  144.6320 C   0  0  0  0  0  0  0  0  0  0  0  0
  189.6270  176.7150  139.5650 O   0  0  0  0  0  0  0  0  0  0  0  0
  188.8480  177.6890  139.7400 C   0  0  0  0  0  0  0  0  0  0  0  0
  188.6820  178.2880  141.0300 N   0  0  0  0  0  2  0  0  0  0  0  0
  188.0820  178.2250  138.5850 C   0  0  0  0  0  1  0  0  0  0  0  0
  185.4070  178.7220  144.1750 C   0  0  0  0  0  3  0  0  0  0  0  0
  186.1700  177.8440  144.8180 C   0  0  0  0  0  3  0  0  0  0  0  0
  184.4330  178.2510  143.1490 C   0  0  0  0  0  2  0  0  0  0  0  0
  184.9930  178.4500  141.7460 C   0  0  2  0  0  3  0  0  0  0  0  0
  185.4760  179.7520  141.6180 O   0  0  0  0  0  1  0  0  0  0  0  0
  182.3780  178.8510  138.8640 C   0  0  0  0  0  2  0  0  0  0  0  0
  183.9640  178.1720  140.6440 C   0  0  1  0  0  3  0  0  0  0  0  0
  181.6570  178.5130  140.1560 C   0  0  2  0  0  0  0  0  0  0  0  0
  182.6130  178.1250  141.1920 N   0  0  0  0  0  2  0  0  0  0  0  0
  184.0430  179.3790  139.2940 S   0  0  0  0  0  0  0  0  0  0  0  0
  180.7700  177.4620  139.9270 O   0  0  0  0  0  1  0  0  0  0  0  0
  180.8790  179.7250  140.6270 C   0  0  0  0  0  1  0  0  0  0  0  0
  1  3  2  0  0  0  0
  1  2  1  0  0  0  0
  4 14  1  6  0  0  0
  4  7  1  0  0  0  0
  5  2  1  0  0  0  0
  6 20  1  6  0  0  0
  6  4  1  0  0  0  0
  6  1  1  0  0  0  0
  7  5  2  0  0  0  0
  8 10  1  0  0  0  0
  9  8  2  0  0  0  0
 10 12  1  0  0  0  0
 11 14  1  0  0  0  0
 13  9  1  0  0  0  0
 13 11  2  0  0  0  0
 14 10  2  0  0  0  0
 15 16  2  0  0  0  0
 16 17  1  0  0  0  0
 17 13  1  0  0  0  0
 18 16  1  0  0  0  0
 19 20  2  0  0  0  0
 21 19  1  0  0  0  0
 22 23  1  1  0  0  0
 22 21  1  0  0  0  0
 24 28  1  0  0  0  0
 24 26  1  0  0  0  0
 25 27  1  0  0  0  0
 25 22  1  1  0  0  0
 26 30  1  1  0  0  0
 26 27  1  0  0  0  0
 28 25  1  0  0  0  0
 29 26  1  0  0  0  0
M  END
>  <MODEL>
8

>  <REMARK>
 VINA RESULT:      -9.0      2.679      5.533
  Name = 
  6 active torsions:
  status: ('A' for Active; 'I' for Inactive)
    1  A    between atoms: C_1  and  C_4
    2  A    between atoms: C_4  and  C_27
    3  A    between atoms: C_5  and  C_22
    4  A    between atoms: C_8  and  C_27
    5  A    between atoms: N_16  and  C_25
    6  A    between atoms: C_19  and  C_29
                            x       y       z     vdW  Elec       q    Type
                         _______ _______ _______ _____ _____    ______ ____

>  <TORSDO>
F 6

$$$$
=
 OpenBabel10262421483D

 30 32  0  0  1  0  0  0  0  0999 V2000
  184.3020  178.7140  145.1730 C   0  0  0  0  0  0  0  0  0  0  0  0
  184.5070  178.6420  146.5860 N   0  0  0  0  0  2  0  0  0  0  0  0
  183.1630  179.0190  144.7280 O   0  0  0  0  0  0  0  0  0  0  0  0
  186.5340  177.6040  144.8740 C   0  0  2  0  0  3  0  0  0  0  0  0
  185.7910  178.3160  147.1270 C   0  0  0  0  0  3  0  0  0  0  0  0
  185.4750  178.5250  144.2400 C   0  0  1  0  0  3  0  0  0  0  0  0
  186.7680  177.8710  146.3380 C   0  0  0  0  0  3  0  0  0  0  0  0
  190.2500  177.4150  144.0410 C   0  0  0  0  0  3  0  0  0  0  0  0
  190.2330  177.6610  142.6670 C   0  0  0  0  0  3  0  0  0  0  0  0
  189.0580  177.3990  144.7700 C   0  0  0  0  0  0  0  0  0  0  0  0
  187.8290  177.8800  142.7320 C   0  0  0  0  0  3  0  0  0  0  0  0
  189.1180  177.1270  146.2350 C   0  0  0  0  0  1  0  0  0  0  0  0
  189.0210  177.8950  142.0030 C   0  0  0  0  0  0  0  0  0  0  0  0
  187.8330  177.6350  144.1150 C   0  0  0  0  0  0  0  0  0  0  0  0
  190.3050  176.3720  139.8320 O   0  0  0  0  0  0  0  0  0  0  0  0
  189.6060  177.3840  139.5610 C   0  0  0  0  0  0  0  0  0  0  0  0
  188.9630  178.1440  140.5920 N   0  0  0  0  0  2  0  0  0  0  0  0
  189.4400  177.7970  138.1440 C   0  0  0  0  0  1  0  0  0  0  0  0
  184.4870  178.7310  141.9970 C   0  0  0  0  0  3  0  0  0  0  0  0
  185.0410  177.9540  142.9230 C   0  0  0  0  0  3  0  0  0  0  0  0
  184.0630  178.1480  140.6930 C   0  0  0  0  0  2  0  0  0  0  0  0
  184.8510  178.7680  139.5450 C   0  0  2  0  0  3  0  0  0  0  0  0
  184.5520  180.1270  139.4540 O   0  0  0  0  0  1  0  0  0  0  0  0
  184.1260  176.1280  136.7510 C   0  0  0  0  0  2  0  0  0  0  0  0
  184.5820  178.0890  138.1970 C   0  0  1  0  0  3  0  0  0  0  0  0
  185.5830  176.5440  136.6850 C   0  0  2  0  0  0  0  0  0  0  0  0
  185.8290  177.6950  137.5520 N   0  0  0  0  0  2  0  0  0  0  0  0
  183.4830  176.6540  138.3460 S   0  0  0  0  0  0  0  0  0  0  0  0
  185.9080  176.8770  135.3700 O   0  0  0  0  0  1  0  0  0  0  0  0
  186.4550  175.3890  137.1330 C   0  0  0  0  0  1  0  0  0  0  0  0
  1  2  1  0  0  0  0
  2  5  1  0  0  0  0
  3  1  2  0  0  0  0
  4 14  1  6  0  0  0
  4  7  1  0  0  0  0
  6 20  1  6  0  0  0
  6  4  1  0  0  0  0
  6  1  1  0  0  0  0
  7  5  2  0  0  0  0
  8 10  1  0  0  0  0
  9  8  2  0  0  0  0
 10 12  1  0  0  0  0
 11 14  1  0  0  0  0
 13  9  1  0  0  0  0
 13 11  2  0  0  0  0
 14 10  2  0  0  0  0
 16 15  2  0  0  0  0
 16 17  1  0  0  0  0
 17 13  1  0  0  0  0
 18 16  1  0  0  0  0
 19 20  2  0  0  0  0
 21 19  1  0  0  0  0
 22 23  1  6  0  0  0
 22 21  1  0  0  0  0
 24 28  1  0  0  0  0
 25 28  1  0  0  0  0
 25 22  1  1  0  0  0
 26 24  1  0  0  0  0
 26 30  1  1  0  0  0
 26 27  1  0  0  0  0
 27 25  1  0  0  0  0
 29 26  1  0  0  0  0
M  END
>  <MODEL>
9

>  <REMARK>
 VINA RESULT:      -9.0      2.465      4.972
  Name = 
  6 active torsions:
  status: ('A' for Active; 'I' for Inactive)
    1  A    between atoms: C_1  and  C_4
    2  A    between atoms: C_4  and  C_27
    3  A    between atoms: C_5  and  C_22
    4  A    between atoms: C_8  and  C_27
    5  A    between atoms: N_16  and  C_25
    6  A    between atoms: C_19  and  C_29
                            x       y       z     vdW  Elec       q    Type
                         _______ _______ _______ _____ _____    ______ ____

>  <TORSDO>
F 6

$$$$
