=
 OpenBabel10262419473D

 25 27  0  0  1  0  0  0  0  0999 V2000
  186.9790  177.9530  145.3640 N   0  0  0  0  0  0  0  0  0  0  0  0
  188.1710  177.5220  144.8950 C   0  0  0  0  0  0  0  0  0  0  0  0
  188.8260  177.8400  148.4580 C   0  0  0  0  0  1  0  0  0  0  0  0
  188.3420  177.7850  147.0530 C   0  0  0  0  0  0  0  0  0  0  0  0
  190.3700  176.9560  145.7360 C   0  0  0  0  0  0  0  0  0  0  0  0
  191.5230  176.7950  147.0480 Cl  0  0  0  0  0  0  0  0  0  0  0  0
  188.5300  177.1970  143.5860 C   0  0  0  0  0  3  0  0  0  0  0  0
  187.0850  178.1160  146.6800 N   0  0  0  0  0  0  0  0  0  0  0  0
  190.7550  176.6290  144.4250 C   0  0  0  0  0  3  0  0  0  0  0  0
  189.8420  176.7460  143.3540 C   0  0  0  0  0  0  0  0  0  0  0  0
  189.0570  177.4000  145.9330 C   0  0  0  0  0  0  0  0  0  0  0  0
  185.7790  178.2310  144.6090 C   0  0  0  0  0  0  0  0  0  0  0  0
  183.4770  178.8010  143.0910 C   0  0  0  0  0  3  0  0  0  0  0  0
  184.5900  178.6640  145.2410 C   0  0  0  0  0  0  0  0  0  0  0  0
  183.4510  178.9440  144.4790 C   0  0  0  0  0  3  0  0  0  0  0  0
  184.6440  178.3740  142.4560 C   0  0  0  0  0  3  0  0  0  0  0  0
  184.5090  178.7970  146.6570 N   0  0  0  0  0  1  0  0  0  0  0  0
  185.7840  178.0920  143.2110 C   0  0  0  0  0  3  0  0  0  0  0  0
  190.2720  176.3850  141.9610 C   0  0  0  0  0  2  0  0  0  0  0  0
  190.6630  177.5420  141.1420 N   0  0  0  0  0  0  0  0  0  0  0  0
  192.0010  177.4960  140.9320 O   0  0  0  0  0  1  0  0  0  0  0  0
  190.0080  177.4780  139.8390 C   0  0  0  0  0  2  0  0  0  0  0  0
  189.0330  179.0780  138.3350 O   0  0  0  0  0  1  0  0  0  0  0  0
  187.6170  178.2010  140.0450 C   0  0  0  0  0  1  0  0  0  0  0  0
  189.0200  178.6250  139.6550 C   0  0  1  0  0  3  0  0  0  0  0  0
  1  8  1  0  0  0  0
  2  1  1  0  0  0  0
  2 11  1  0  0  0  0
  4  3  1  0  0  0  0
  5 11  2  0  0  0  0
  5  6  1  0  0  0  0
  7  2  2  0  0  0  0
  8  4  2  0  0  0  0
  9  5  1  0  0  0  0
 10  7  1  0  0  0  0
 10  9  2  0  0  0  0
 11  4  1  0  0  0  0
 12 14  1  0  0  0  0
 12  1  1  0  0  0  0
 13 15  1  0  0  0  0
 14 17  1  0  0  0  0
 15 14  2  0  0  0  0
 16 13  2  0  0  0  0
 16 18  1  0  0  0  0
 18 12  2  0  0  0  0
 19 10  1  0  0  0  0
 20 19  1  0  0  0  0
 21 20  1  0  0  0  0
 22 20  1  0  0  0  0
 23 25  1  0  0  0  0
 25 22  1  0  0  0  0
 25 24  1  6  0  0  0
M  END
>  <MODEL>
1

>  <REMARK>
 VINA RESULT:      -9.5      0.000      0.000
  Name = 
  5 active torsions:
  status: ('A' for Active; 'I' for Inactive)
    1  A    between atoms: N_1  and  C_5
    2  A    between atoms: C_2  and  N_15
    3  A    between atoms: C_2  and  C_21
    4  A    between atoms: C_6  and  N_15
    5  A    between atoms: C_6  and  C_23
                            x       y       z     vdW  Elec       q    Type
                         _______ _______ _______ _____ _____    ______ ____

>  <TORSDO>
F 5

$$$$
=
 OpenBabel10262419473D

 25 27  0  0  1  0  0  0  0  0999 V2000
  187.7370  177.9330  144.4580 N   0  0  0  0  0  0  0  0  0  0  0  0
  186.6950  178.1990  143.6390 C   0  0  0  0  0  0  0  0  0  0  0  0
  185.1140  178.2160  146.9140 C   0  0  0  0  0  1  0  0  0  0  0  0
  185.9580  178.1600  145.6900 C   0  0  0  0  0  0  0  0  0  0  0  0
  184.3210  178.6500  143.7900 C   0  0  0  0  0  0  0  0  0  0  0  0
  182.8470  178.8490  144.7190 Cl  0  0  0  0  0  0  0  0  0  0  0  0
  186.6880  178.3440  142.2510 C   0  0  0  0  0  3  0  0  0  0  0  0
  187.2860  177.9070  145.7090 N   0  0  0  0  0  0  0  0  0  0  0  0
  184.2900  178.7940  142.3930 C   0  0  0  0  0  3  0  0  0  0  0  0
  185.4650  178.6440  141.6250 C   0  0  0  0  0  0  0  0  0  0  0  0
  185.5540  178.3530  144.3820 C   0  0  0  0  0  0  0  0  0  0  0  0
  189.1120  177.6850  144.0880 C   0  0  0  0  0  0  0  0  0  0  0  0
  191.7970  177.2640  143.3530 C   0  0  0  0  0  3  0  0  0  0  0  0
  189.4940  176.5070  143.4030 C   0  0  0  0  0  0  0  0  0  0  0  0
  190.8300  176.3070  143.0430 C   0  0  0  0  0  3  0  0  0  0  0  0
  191.4320  178.4290  144.0280 C   0  0  0  0  0  3  0  0  0  0  0  0
  188.5450  175.4910  143.0920 N   0  0  0  0  0  1  0  0  0  0  0  0
  190.1010  178.6360  144.3910 C   0  0  0  0  0  3  0  0  0  0  0  0
  185.4100  178.8090  140.1330 C   0  0  0  0  0  2  0  0  0  0  0  0
  184.1000  179.2470  139.6320 N   0  0  0  0  0  0  0  0  0  0  0  0
  184.2450  180.4500  139.0240 O   0  0  0  0  0  1  0  0  0  0  0  0
  183.6030  178.3040  138.6340 C   0  0  0  0  0  2  0  0  0  0  0  0
  182.8300  176.3990  139.8760 O   0  0  0  0  0  1  0  0  0  0  0  0
  181.5240  178.3910  140.0320 C   0  0  0  0  0  1  0  0  0  0  0  0
  182.4060  177.5180  139.1590 C   0  0  1  0  0  3  0  0  0  0  0  0
  1  8  1  0  0  0  0
  2 11  1  0  0  0  0
  2  1  1  0  0  0  0
  4  8  2  0  0  0  0
  4  3  1  0  0  0  0
  5 11  2  0  0  0  0
  5  6  1  0  0  0  0
  7  2  2  0  0  0  0
  9  5  1  0  0  0  0
 10  7  1  0  0  0  0
 10  9  2  0  0  0  0
 11  4  1  0  0  0  0
 12 18  1  0  0  0  0
 12  1  1  0  0  0  0
 13 16  1  0  0  0  0
 14 12  2  0  0  0  0
 15 13  2  0  0  0  0
 15 14  1  0  0  0  0
 16 18  2  0  0  0  0
 17 14  1  0  0  0  0
 19 10  1  0  0  0  0
 20 19  1  0  0  0  0
 21 20  1  0  0  0  0
 22 25  1  0  0  0  0
 22 20  1  0  0  0  0
 25 23  1  0  0  0  0
 25 24  1  1  0  0  0
M  END
>  <MODEL>
2

>  <REMARK>
 VINA RESULT:      -8.9      3.404      5.906
  Name = 
  5 active torsions:
  status: ('A' for Active; 'I' for Inactive)
    1  A    between atoms: N_1  and  C_5
    2  A    between atoms: C_2  and  N_15
    3  A    between atoms: C_2  and  C_21
    4  A    between atoms: C_6  and  N_15
    5  A    between atoms: C_6  and  C_23
                            x       y       z     vdW  Elec       q    Type
                         _______ _______ _______ _____ _____    ______ ____

>  <TORSDO>
F 5

$$$$
=
 OpenBabel10262419473D

 25 27  0  0  1  0  0  0  0  0999 V2000
  186.9990  177.7580  142.5330 N   0  0  0  0  0  0  0  0  0  0  0  0
  186.6180  177.9180  143.8200 C   0  0  0  0  0  0  0  0  0  0  0  0
  183.5790  178.7720  142.0130 C   0  0  0  0  0  1  0  0  0  0  0  0
  184.9160  178.3890  142.5400 C   0  0  0  0  0  0  0  0  0  0  0  0
  184.6440  178.5400  145.0770 C   0  0  0  0  0  0  0  0  0  0  0  0
  182.9680  179.0480  145.1610 Cl  0  0  0  0  0  0  0  0  0  0  0  0
  187.3590  177.7100  144.9840 C   0  0  0  0  0  3  0  0  0  0  0  0
  185.9610  178.0480  141.7530 N   0  0  0  0  0  0  0  0  0  0  0  0
  185.3730  178.3430  146.2620 C   0  0  0  0  0  3  0  0  0  0  0  0
  186.7230  177.9290  146.2190 C   0  0  0  0  0  0  0  0  0  0  0  0
  185.3060  178.3130  143.8650 C   0  0  0  0  0  0  0  0  0  0  0  0
  188.3000  177.3700  142.0370 C   0  0  0  0  0  0  0  0  0  0  0  0
  190.8580  176.6190  141.1330 C   0  0  0  0  0  3  0  0  0  0  0  0
  188.8010  177.8620  140.8090 C   0  0  0  0  0  0  0  0  0  0  0  0
  190.0720  177.4810  140.3680 C   0  0  0  0  0  3  0  0  0  0  0  0
  190.3740  176.1280  142.3460 C   0  0  0  0  0  3  0  0  0  0  0  0
  188.0230  178.7220  139.9820 N   0  0  0  0  0  1  0  0  0  0  0  0
  189.1060  176.5010  142.7930 C   0  0  0  0  0  3  0  0  0  0  0  0
  187.4810  177.7170  147.4980 C   0  0  0  0  0  2  0  0  0  0  0  0
  188.9330  177.9080  147.3650 N   0  0  0  0  0  0  0  0  0  0  0  0
  189.3810  178.6040  148.4380 O   0  0  0  0  0  1  0  0  0  0  0  0
  189.6100  176.6140  147.3620 C   0  0  0  0  0  2  0  0  0  0  0  0
  191.7900  175.6570  147.6780 O   0  0  0  0  0  1  0  0  0  0  0  0
  191.4740  177.0000  145.7310 C   0  0  0  0  0  1  0  0  0  0  0  0
  191.1170  176.7760  147.1890 C   0  0  1  0  0  3  0  0  0  0  0  0
  1  2  1  0  0  0  0
  2 11  2  0  0  0  0
  2  7  1  0  0  0  0
  3  4  1  0  0  0  0
  4 11  1  0  0  0  0
  5  6  1  0  0  0  0
  5  9  2  0  0  0  0
  7 10  2  0  0  0  0
  8  1  1  0  0  0  0
  8  4  2  0  0  0  0
 10  9  1  0  0  0  0
 10 19  1  0  0  0  0
 11  5  1  0  0  0  0
 12  1  1  0  0  0  0
 12 18  1  0  0  0  0
 13 16  1  0  0  0  0
 14 12  2  0  0  0  0
 15 14  1  0  0  0  0
 15 13  2  0  0  0  0
 16 18  2  0  0  0  0
 17 14  1  0  0  0  0
 20 19  1  0  0  0  0
 20 21  1  0  0  0  0
 22 20  1  0  0  0  0
 25 24  1  6  0  0  0
 25 22  1  0  0  0  0
 25 23  1  0  0  0  0
M  END
>  <MODEL>
3

>  <REMARK>
 VINA RESULT:      -8.9      3.453      6.464
  Name = 
  5 active torsions:
  status: ('A' for Active; 'I' for Inactive)
    1  A    between atoms: N_1  and  C_5
    2  A    between atoms: C_2  and  N_15
    3  A    between atoms: C_2  and  C_21
    4  A    between atoms: C_6  and  N_15
    5  A    between atoms: C_6  and  C_23
                            x       y       z     vdW  Elec       q    Type
                         _______ _______ _______ _____ _____    ______ ____

>  <TORSDO>
F 5

$$$$
=
 OpenBabel10262419473D

 25 27  0  0  1  0  0  0  0  0999 V2000
  186.8630  177.8600  144.7180 N   0  0  0  0  0  0  0  0  0  0  0  0
  187.9460  177.5680  143.9640 C   0  0  0  0  0  0  0  0  0  0  0  0
  189.2560  177.2400  147.3410 C   0  0  0  0  0  1  0  0  0  0  0  0
  188.5180  177.4300  146.0640 C   0  0  0  0  0  0  0  0  0  0  0  0
  190.2640  176.9370  144.2640 C   0  0  0  0  0  0  0  0  0  0  0  0
  191.6430  176.5760  145.2860 Cl  0  0  0  0  0  0  0  0  0  0  0  0
  188.0540  177.5070  142.5740 C   0  0  0  0  0  3  0  0  0  0  0  0
  187.2130  177.7780  145.9980 N   0  0  0  0  0  0  0  0  0  0  0  0
  190.3970  176.8760  142.8660 C   0  0  0  0  0  3  0  0  0  0  0  0
  189.3000  177.1570  142.0230 C   0  0  0  0  0  0  0  0  0  0  0  0
  189.0110  177.2880  144.7800 C   0  0  0  0  0  0  0  0  0  0  0  0
  185.5420  178.2290  144.2630 C   0  0  0  0  0  0  0  0  0  0  0  0
  182.9950  178.9780  143.3240 C   0  0  0  0  0  3  0  0  0  0  0  0
  184.5510  178.6900  145.1620 C   0  0  0  0  0  0  0  0  0  0  0  0
  183.2890  179.0580  144.6860 C   0  0  0  0  0  3  0  0  0  0  0  0
  183.9640  178.5260  142.4280 C   0  0  0  0  0  3  0  0  0  0  0  0
  184.7970  178.7610  146.5630 N   0  0  0  0  0  1  0  0  0  0  0  0
  185.2260  178.1550  142.8960 C   0  0  0  0  0  3  0  0  0  0  0  0
  189.4620  177.0790  140.5320 C   0  0  0  0  0  2  0  0  0  0  0  0
  188.4960  177.8980  139.7870 N   0  0  0  0  0  0  0  0  0  0  0  0
  189.0830  179.0750  139.4600 O   0  0  0  0  0  1  0  0  0  0  0  0
  188.1250  177.2280  138.5440 C   0  0  0  0  0  2  0  0  0  0  0  0
  186.1650  178.5610  138.9390 O   0  0  0  0  0  1  0  0  0  0  0  0
  187.0650  178.5940  136.7280 C   0  0  0  0  0  1  0  0  0  0  0  0
  186.8170  177.7790  137.9840 C   0  0  1  0  0  3  0  0  0  0  0  0
  1  8  1  0  0  0  0
  2  1  1  0  0  0  0
  2 11  1  0  0  0  0
  4  3  1  0  0  0  0
  5 11  2  0  0  0  0
  5  6  1  0  0  0  0
  7  2  2  0  0  0  0
  8  4  2  0  0  0  0
  9  5  1  0  0  0  0
 10  7  1  0  0  0  0
 10  9  2  0  0  0  0
 11  4  1  0  0  0  0
 12  1  1  0  0  0  0
 12 14  1  0  0  0  0
 13 15  1  0  0  0  0
 14 17  1  0  0  0  0
 15 14  2  0  0  0  0
 16 18  1  0  0  0  0
 16 13  2  0  0  0  0
 18 12  2  0  0  0  0
 19 10  1  0  0  0  0
 20 19  1  0  0  0  0
 21 20  1  0  0  0  0
 22 20  1  0  0  0  0
 25 24  1  6  0  0  0
 25 22  1  0  0  0  0
 25 23  1  0  0  0  0
M  END
>  <MODEL>
4

>  <REMARK>
 VINA RESULT:      -8.7      1.416      1.747
  Name = 
  5 active torsions:
  status: ('A' for Active; 'I' for Inactive)
    1  A    between atoms: N_1  and  C_5
    2  A    between atoms: C_2  and  N_15
    3  A    between atoms: C_2  and  C_21
    4  A    between atoms: C_6  and  N_15
    5  A    between atoms: C_6  and  C_23
                            x       y       z     vdW  Elec       q    Type
                         _______ _______ _______ _____ _____    ______ ____

>  <TORSDO>
F 5

$$$$
=
 OpenBabel10262419473D

 25 27  0  0  1  0  0  0  0  0999 V2000
  186.1270  178.2530  144.6940 N   0  0  0  0  0  0  0  0  0  0  0  0
  186.4260  178.3140  143.3770 C   0  0  0  0  0  0  0  0  0  0  0  0
  182.8350  178.8920  143.3730 C   0  0  0  0  0  1  0  0  0  0  0  0
  184.2820  178.6380  143.6070 C   0  0  0  0  0  0  0  0  0  0  0  0
  185.3020  178.6880  141.2650 C   0  0  0  0  0  0  0  0  0  0  0  0
  183.8560  179.0000  140.3220 Cl  0  0  0  0  0  0  0  0  0  0  0  0
  187.6690  178.1900  142.7550 C   0  0  0  0  0  3  0  0  0  0  0  0
  184.8190  178.4480  144.8330 N   0  0  0  0  0  0  0  0  0  0  0  0
  186.5430  178.5610  140.6170 C   0  0  0  0  0  3  0  0  0  0  0  0
  187.7210  178.3150  141.3550 C   0  0  0  0  0  0  0  0  0  0  0  0
  185.2850  178.5600  142.6580 C   0  0  0  0  0  0  0  0  0  0  0  0
  187.0280  177.9950  145.7940 C   0  0  0  0  0  0  0  0  0  0  0  0
  188.7890  177.4290  147.9160 C   0  0  0  0  0  3  0  0  0  0  0  0
  186.7920  178.5240  147.0840 C   0  0  0  0  0  0  0  0  0  0  0  0
  187.6730  178.2390  148.1320 C   0  0  0  0  0  3  0  0  0  0  0  0
  189.0320  176.9020  146.6480 C   0  0  0  0  0  3  0  0  0  0  0  0
  185.6810  179.3770  147.3440 N   0  0  0  0  0  1  0  0  0  0  0  0
  188.1580  177.1830  145.5980 C   0  0  0  0  0  3  0  0  0  0  0  0
  189.0380  178.1890  140.6430 C   0  0  0  0  0  2  0  0  0  0  0  0
  189.8420  177.0400  141.0820 N   0  0  0  0  0  0  0  0  0  0  0  0
  190.2000  176.3150  139.9930 O   0  0  0  0  0  1  0  0  0  0  0  0
  191.0670  177.5030  141.7270 C   0  0  0  0  0  2  0  0  0  0  0  0
  191.6800  176.1290  143.6010 O   0  0  0  0  0  1  0  0  0  0  0  0
  191.6100  178.4860  143.9680 C   0  0  0  0  0  1  0  0  0  0  0  0
  191.0120  177.2990  143.2380 C   0  0  1  0  0  3  0  0  0  0  0  0
  1  8  1  0  0  0  0
  1 12  1  0  0  0  0
  2  1  1  0  0  0  0
  3  4  1  0  0  0  0
  4  8  2  0  0  0  0
  5 11  1  0  0  0  0
  6  5  1  0  0  0  0
  7  2  1  0  0  0  0
  9  5  2  0  0  0  0
  9 10  1  0  0  0  0
 10  7  2  0  0  0  0
 11  2  2  0  0  0  0
 11  4  1  0  0  0  0
 12 14  1  0  0  0  0
 13 15  1  0  0  0  0
 14 17  1  0  0  0  0
 14 15  2  0  0  0  0
 16 13  2  0  0  0  0
 18 12  2  0  0  0  0
 18 16  1  0  0  0  0
 19 20  1  0  0  0  0
 19 10  1  0  0  0  0
 20 22  1  0  0  0  0
 21 20  1  0  0  0  0
 22 25  1  0  0  0  0
 25 23  1  0  0  0  0
 25 24  1  1  0  0  0
M  END
>  <MODEL>
5

>  <REMARK>
 VINA RESULT:      -8.7      2.535      4.906
  Name = 
  5 active torsions:
  status: ('A' for Active; 'I' for Inactive)
    1  A    between atoms: N_1  and  C_5
    2  A    between atoms: C_2  and  N_15
    3  A    between atoms: C_2  and  C_21
    4  A    between atoms: C_6  and  N_15
    5  A    between atoms: C_6  and  C_23
                            x       y       z     vdW  Elec       q    Type
                         _______ _______ _______ _____ _____    ______ ____

>  <TORSDO>
F 5

$$$$
=
 OpenBabel10262419473D

 25 27  0  0  1  0  0  0  0  0999 V2000
  188.0740  177.6340  145.3060 N   0  0  0  0  0  0  0  0  0  0  0  0
  187.7080  177.8200  144.0180 C   0  0  0  0  0  0  0  0  0  0  0  0
  184.6200  178.5380  145.8010 C   0  0  0  0  0  1  0  0  0  0  0  0
  185.9740  178.2040  145.2840 C   0  0  0  0  0  0  0  0  0  0  0  0
  185.7460  178.4570  142.7510 C   0  0  0  0  0  0  0  0  0  0  0  0
  184.0580  178.9230  142.6550 Cl  0  0  0  0  0  0  0  0  0  0  0  0
  188.4840  177.7120  142.8640 C   0  0  0  0  0  3  0  0  0  0  0  0
  187.0150  177.8650  146.0770 N   0  0  0  0  0  0  0  0  0  0  0  0
  186.5070  178.3480  141.5750 C   0  0  0  0  0  3  0  0  0  0  0  0
  187.8690  177.9800  141.6280 C   0  0  0  0  0  0  0  0  0  0  0  0
  186.3880  178.1850  143.9640 C   0  0  0  0  0  0  0  0  0  0  0  0
  189.3660  177.2270  145.8080 C   0  0  0  0  0  0  0  0  0  0  0  0
  191.8870  176.3870  146.7400 C   0  0  0  0  0  3  0  0  0  0  0  0
  189.6370  177.1690  147.1960 C   0  0  0  0  0  0  0  0  0  0  0  0
  190.8920  176.7520  147.6490 C   0  0  0  0  0  3  0  0  0  0  0  0
  191.6310  176.4400  145.3700 C   0  0  0  0  0  3  0  0  0  0  0  0
  188.6620  177.5590  148.1580 N   0  0  0  0  0  1  0  0  0  0  0  0
  190.3810  176.8560  144.9100 C   0  0  0  0  0  3  0  0  0  0  0  0
  188.6660  177.8760  140.3590 C   0  0  0  0  0  2  0  0  0  0  0  0
  188.0330  178.5330  139.2060 N   0  0  0  0  0  0  0  0  0  0  0  0
  188.9380  179.3580  138.6230 O   0  0  0  0  0  1  0  0  0  0  0  0
  187.6420  177.5350  138.2140 C   0  0  0  0  0  2  0  0  0  0  0  0
  185.6900  178.9360  138.2190 O   0  0  0  0  0  1  0  0  0  0  0  0
  186.0060  177.5320  136.3150 C   0  0  0  0  0  1  0  0  0  0  0  0
  186.1790  177.6940  137.8130 C   0  0  1  0  0  3  0  0  0  0  0  0
  1 12  1  0  0  0  0
  1  8  1  0  0  0  0
  2  1  1  0  0  0  0
  4  3  1  0  0  0  0
  4  8  2  0  0  0  0
  5 11  2  0  0  0  0
  6  5  1  0  0  0  0
  7  2  2  0  0  0  0
  9 10  2  0  0  0  0
  9  5  1  0  0  0  0
 10  7  1  0  0  0  0
 11  2  1  0  0  0  0
 11  4  1  0  0  0  0
 12 14  1  0  0  0  0
 13 15  1  0  0  0  0
 14 15  2  0  0  0  0
 14 17  1  0  0  0  0
 16 13  2  0  0  0  0
 18 16  1  0  0  0  0
 18 12  2  0  0  0  0
 19 10  1  0  0  0  0
 20 19  1  0  0  0  0
 21 20  1  0  0  0  0
 22 20  1  0  0  0  0
 25 24  1  6  0  0  0
 25 22  1  0  0  0  0
 25 23  1  0  0  0  0
M  END
>  <MODEL>
6

>  <REMARK>
 VINA RESULT:      -8.5      2.531      4.897
  Name = 
  5 active torsions:
  status: ('A' for Active; 'I' for Inactive)
    1  A    between atoms: N_1  and  C_5
    2  A    between atoms: C_2  and  N_15
    3  A    between atoms: C_2  and  C_21
    4  A    between atoms: C_6  and  N_15
    5  A    between atoms: C_6  and  C_23
                            x       y       z     vdW  Elec       q    Type
                         _______ _______ _______ _____ _____    ______ ____

>  <TORSDO>
F 5

$$$$
=
 OpenBabel10262419473D

 25 27  0  0  1  0  0  0  0  0999 V2000
  185.7960  178.2960  144.5500 N   0  0  0  0  0  0  0  0  0  0  0  0
  185.9710  178.3900  143.2120 C   0  0  0  0  0  0  0  0  0  0  0  0
  182.3850  178.8980  143.5490 C   0  0  0  0  0  1  0  0  0  0  0  0
  183.8520  178.6680  143.6450 C   0  0  0  0  0  0  0  0  0  0  0  0
  184.6530  178.7860  141.2200 C   0  0  0  0  0  0  0  0  0  0  0  0
  183.1210  179.0890  140.4210 Cl  0  0  0  0  0  0  0  0  0  0  0  0
  187.1540  178.3030  142.4770 C   0  0  0  0  0  3  0  0  0  0  0  0
  184.5020  178.4630  144.8120 N   0  0  0  0  0  0  0  0  0  0  0  0
  185.8300  178.6960  140.4590 C   0  0  0  0  0  3  0  0  0  0  0  0
  187.0760  178.4580  141.0810 C   0  0  0  0  0  0  0  0  0  0  0  0
  184.7650  178.6290  142.6070 C   0  0  0  0  0  0  0  0  0  0  0  0
  186.7980  178.0340  145.5570 C   0  0  0  0  0  0  0  0  0  0  0  0
  188.7600  177.4610  147.4930 C   0  0  0  0  0  3  0  0  0  0  0  0
  186.6250  178.4460  146.8990 C   0  0  0  0  0  0  0  0  0  0  0  0
  187.6060  178.1580  147.8530 C   0  0  0  0  0  3  0  0  0  0  0  0
  188.9410  177.0490  146.1730 C   0  0  0  0  0  3  0  0  0  0  0  0
  185.4760  179.1840  147.3060 N   0  0  0  0  0  1  0  0  0  0  0  0
  187.9670  177.3340  145.2150 C   0  0  0  0  0  3  0  0  0  0  0  0
  188.3230  178.3720  140.2490 C   0  0  0  0  0  2  0  0  0  0  0  0
  188.0810  178.4800  138.8040 N   0  0  0  0  0  0  0  0  0  0  0  0
  188.9450  179.3860  138.2830 O   0  0  0  0  0  1  0  0  0  0  0  0
  188.3400  177.1980  138.1550 C   0  0  0  0  0  2  0  0  0  0  0  0
  187.6770  177.2970  135.8480 O   0  0  0  0  0  1  0  0  0  0  0  0
  186.9660  175.3900  137.0930 C   0  0  0  0  0  1  0  0  0  0  0  0
  187.2720  176.8760  137.1140 C   0  0  1  0  0  3  0  0  0  0  0  0
  1  8  1  0  0  0  0
  1 12  1  0  0  0  0
  2  1  1  0  0  0  0
  3  4  1  0  0  0  0
  4  8  2  0  0  0  0
  5 11  2  0  0  0  0
  6  5  1  0  0  0  0
  7  2  2  0  0  0  0
  9 10  2  0  0  0  0
  9  5  1  0  0  0  0
 10  7  1  0  0  0  0
 11  2  1  0  0  0  0
 11  4  1  0  0  0  0
 12 14  1  0  0  0  0
 13 15  1  0  0  0  0
 14 17  1  0  0  0  0
 14 15  2  0  0  0  0
 16 13  2  0  0  0  0
 18 12  2  0  0  0  0
 18 16  1  0  0  0  0
 19 10  1  0  0  0  0
 20 19  1  0  0  0  0
 21 20  1  0  0  0  0
 22 20  1  0  0  0  0
 23 25  1  0  0  0  0
 25 24  1  6  0  0  0
 25 22  1  0  0  0  0
M  END
>  <MODEL>
7

>  <REMARK>
 VINA RESULT:      -8.3      2.858      4.956
  Name = 
  5 active torsions:
  status: ('A' for Active; 'I' for Inactive)
    1  A    between atoms: N_1  and  C_5
    2  A    between atoms: C_2  and  N_15
    3  A    between atoms: C_2  and  C_21
    4  A    between atoms: C_6  and  N_15
    5  A    between atoms: C_6  and  C_23
                            x       y       z     vdW  Elec       q    Type
                         _______ _______ _______ _____ _____    ______ ____

>  <TORSDO>
F 5

$$$$
=
 OpenBabel10262419473D

 25 27  0  0  1  0  0  0  0  0999 V2000
  185.5000  178.4510  144.0530 N   0  0  0  0  0  0  0  0  0  0  0  0
  186.7360  177.9210  144.1880 C   0  0  0  0  0  0  0  0  0  0  0  0
  185.9740  178.9540  147.5910 C   0  0  0  0  0  1  0  0  0  0  0  0
  186.0740  178.6180  146.1460 C   0  0  0  0  0  0  0  0  0  0  0  0
  188.3700  177.5150  145.9280 C   0  0  0  0  0  0  0  0  0  0  0  0
  188.9000  177.6120  147.5970 Cl  0  0  0  0  0  0  0  0  0  0  0  0
  187.5450  177.3310  143.2160 C   0  0  0  0  0  3  0  0  0  0  0  0
  185.0990  178.8790  145.2470 N   0  0  0  0  0  0  0  0  0  0  0  0
  189.2040  176.9230  144.9650 C   0  0  0  0  0  3  0  0  0  0  0  0
  188.7970  176.8290  143.6160 C   0  0  0  0  0  0  0  0  0  0  0  0
  187.1310  178.0040  145.4980 C   0  0  0  0  0  0  0  0  0  0  0  0
  184.7210  178.5830  142.8430 C   0  0  0  0  0  0  0  0  0  0  0  0
  183.2480  178.8800  140.4620 C   0  0  0  0  0  3  0  0  0  0  0  0
  183.3090  178.6640  142.8770 C   0  0  0  0  0  0  0  0  0  0  0  0
  182.5860  178.8100  141.6890 C   0  0  0  0  0  3  0  0  0  0  0  0
  184.6400  178.8010  140.4170 C   0  0  0  0  0  3  0  0  0  0  0  0
  182.5900  178.5700  144.1030 N   0  0  0  0  0  1  0  0  0  0  0  0
  185.3680  178.6540  141.5980 C   0  0  0  0  0  3  0  0  0  0  0  0
  189.7020  176.1860  142.6040 C   0  0  0  0  0  2  0  0  0  0  0  0
  190.3920  177.1460  141.7320 N   0  0  0  0  0  0  0  0  0  0  0  0
  191.6810  177.2550  142.1380 O   0  0  0  0  0  1  0  0  0  0  0  0
  190.4020  176.6570  140.3560 C   0  0  0  0  0  2  0  0  0  0  0  0
  189.8400  177.2190  138.0890 O   0  0  0  0  0  1  0  0  0  0  0  0
  188.6570  178.3720  139.8120 C   0  0  0  0  0  1  0  0  0  0  0  0
  189.9670  177.7420  139.3770 C   0  0  1  0  0  3  0  0  0  0  0  0
  1  2  1  0  0  0  0
  1  8  1  0  0  0  0
  2 11  1  0  0  0  0
  4  3  1  0  0  0  0
  5  6  1  0  0  0  0
  7 10  1  0  0  0  0
  7  2  2  0  0  0  0
  8  4  2  0  0  0  0
  9  5  1  0  0  0  0
 10  9  2  0  0  0  0
 11  5  2  0  0  0  0
 11  4  1  0  0  0  0
 12 14  1  0  0  0  0
 12  1  1  0  0  0  0
 13 15  1  0  0  0  0
 14 17  1  0  0  0  0
 15 14  2  0  0  0  0
 16 13  2  0  0  0  0
 16 18  1  0  0  0  0
 18 12  2  0  0  0  0
 19 10  1  0  0  0  0
 20 21  1  0  0  0  0
 20 19  1  0  0  0  0
 22 20  1  0  0  0  0
 23 25  1  0  0  0  0
 25 24  1  1  0  0  0
 25 22  1  0  0  0  0
M  END
>  <MODEL>
8

>  <REMARK>
 VINA RESULT:      -8.3      1.600      2.076
  Name = 
  5 active torsions:
  status: ('A' for Active; 'I' for Inactive)
    1  A    between atoms: N_1  and  C_5
    2  A    between atoms: C_2  and  N_15
    3  A    between atoms: C_2  and  C_21
    4  A    between atoms: C_6  and  N_15
    5  A    between atoms: C_6  and  C_23
                            x       y       z     vdW  Elec       q    Type
                         _______ _______ _______ _____ _____    ______ ____

>  <TORSDO>
F 5

$$$$
=
 OpenBabel10262419473D

 25 27  0  0  1  0  0  0  0  0999 V2000
  189.3710  177.9420  141.6720 N   0  0  0  0  0  0  0  0  0  0  0  0
  188.0330  178.1000  141.5550 C   0  0  0  0  0  0  0  0  0  0  0  0
  189.1280  178.2970  138.0920 C   0  0  0  0  0  1  0  0  0  0  0  0
  188.9080  178.1890  139.5600 C   0  0  0  0  0  0  0  0  0  0  0  0
  186.3760  178.4230  139.8200 C   0  0  0  0  0  0  0  0  0  0  0  0
  185.9270  178.6260  138.1370 Cl  0  0  0  0  0  0  0  0  0  0  0  0
  187.0610  178.0910  142.5560 C   0  0  0  0  0  3  0  0  0  0  0  0
  189.9040  178.0000  140.4540 N   0  0  0  0  0  0  0  0  0  0  0  0
  185.3810  178.4230  140.8120 C   0  0  0  0  0  3  0  0  0  0  0  0
  185.7180  178.2570  142.1730 C   0  0  0  0  0  0  0  0  0  0  0  0
  187.7020  178.2550  140.2340 C   0  0  0  0  0  0  0  0  0  0  0  0
  190.1390  177.7690  142.8830 C   0  0  0  0  0  0  0  0  0  0  0  0
  191.6770  177.4790  145.2240 C   0  0  0  0  0  3  0  0  0  0  0  0
  190.4140  176.4840  143.4080 C   0  0  0  0  0  0  0  0  0  0  0  0
  191.1770  176.3510  144.5720 C   0  0  0  0  0  3  0  0  0  0  0  0
  191.4130  178.7510  144.7150 C   0  0  0  0  0  3  0  0  0  0  0  0
  189.9010  175.3070  142.7930 N   0  0  0  0  0  1  0  0  0  0  0  0
  190.6510  178.8930  143.5540 C   0  0  0  0  0  3  0  0  0  0  0  0
  184.6380  178.2530  143.2170 C   0  0  0  0  0  2  0  0  0  0  0  0
  184.7290  179.3700  144.1680 N   0  0  0  0  0  0  0  0  0  0  0  0
  183.6700  180.1940  143.9750 O   0  0  0  0  0  1  0  0  0  0  0  0
  184.6560  178.8690  145.5380 C   0  0  0  0  0  2  0  0  0  0  0  0
  185.8030  179.4370  147.5700 O   0  0  0  0  0  1  0  0  0  0  0  0
  186.7630  177.7060  146.2360 C   0  0  0  0  0  1  0  0  0  0  0  0
  185.9940  179.0130  146.2550 C   0  0  1  0  0  3  0  0  0  0  0  0
  1 12  1  0  0  0  0
  2  1  1  0  0  0  0
  2  7  1  0  0  0  0
  3  4  1  0  0  0  0
  4 11  1  0  0  0  0
  4  8  2  0  0  0  0
  5 11  1  0  0  0  0
  5  9  2  0  0  0  0
  6  5  1  0  0  0  0
  8  1  1  0  0  0  0
  9 10  1  0  0  0  0
 10  7  2  0  0  0  0
 10 19  1  0  0  0  0
 11  2  2  0  0  0  0
 12 14  2  0  0  0  0
 12 18  1  0  0  0  0
 14 15  1  0  0  0  0
 15 13  2  0  0  0  0
 16 13  1  0  0  0  0
 17 14  1  0  0  0  0
 18 16  2  0  0  0  0
 19 20  1  0  0  0  0
 20 22  1  0  0  0  0
 21 20  1  0  0  0  0
 22 25  1  0  0  0  0
 25 24  1  1  0  0  0
 25 23  1  0  0  0  0
M  END
>  <MODEL>
9

>  <REMARK>
 VINA RESULT:      -8.2      3.646      7.132
  Name = 
  5 active torsions:
  status: ('A' for Active; 'I' for Inactive)
    1  A    between atoms: N_1  and  C_5
    2  A    between atoms: C_2  and  N_15
    3  A    between atoms: C_2  and  C_21
    4  A    between atoms: C_6  and  N_15
    5  A    between atoms: C_6  and  C_23
                            x       y       z     vdW  Elec       q    Type
                         _______ _______ _______ _____ _____    ______ ____

>  <TORSDO>
F 5

$$$$
