=
 OpenBabel10262422203D

 43 49  0  0  1  0  0  0  0  0999 V2000
  191.6260  176.3290  147.3150 C   0  0  0  0  0  0  0  0  0  0  0  0
  187.6950  177.7760  144.5070 C   0  0  0  0  0  0  0  0  0  0  0  0
  188.4820  177.6270  141.8090 C   0  0  0  0  0  0  0  0  0  0  0  0
  189.4590  177.0910  146.5500 C   0  0  0  0  0  0  0  0  0  0  0  0
  192.0660  176.2400  145.9910 C   0  0  0  0  0  3  0  0  0  0  0  0
  192.5440  175.9720  148.4280 C   0  0  0  0  0  1  0  0  0  0  0  0
  189.8940  177.0040  145.2070 C   0  0  0  0  0  0  0  0  0  0  0  0
  190.3230  176.7530  147.5940 C   0  0  0  0  0  3  0  0  0  0  0  0
  191.2060  176.5750  144.9420 C   0  0  0  0  0  3  0  0  0  0  0  0
  189.3800  177.2780  142.8240 C   0  0  0  0  0  3  0  0  0  0  0  0
  189.0040  177.3490  144.1720 C   0  0  0  0  0  0  0  0  0  0  0  0
  187.3200  177.8480  145.8130 N   0  0  0  0  0  0  0  0  0  0  0  0
  186.7850  178.1230  143.4970 C   0  0  0  0  0  0  0  0  0  0  0  0
  187.1930  178.0480  142.1560 C   0  0  0  0  0  3  0  0  0  0  0  0
  188.1630  177.5190  146.8260 C   0  0  0  0  0  3  0  0  0  0  0  0
  188.8760  177.5510  140.4290 N   0  0  0  0  0  0  0  0  0  0  0  0
  189.7300  176.5070  139.8980 C   0  0  0  0  0  2  0  0  0  0  0  0
  188.4740  178.5190  139.4280 C   0  0  0  0  0  2  0  0  0  0  0  0
  189.7950  176.7490  138.4030 C   0  0  1  0  0  3  0  0  0  0  0  0
  189.2290  178.1450  138.1670 C   0  0  0  0  0  2  0  0  0  0  0  0
  191.2380  176.6700  137.9340 C   0  0  0  0  0  2  0  0  0  0  0  0
  191.3350  176.0180  136.5550 C   0  0  2  0  0  3  0  0  0  0  0  0
  192.4130  174.4120  135.1060 C   0  0  0  0  0  2  0  0  0  0  0  0
  189.9910  174.8200  136.2810 S   0  0  0  0  0  0  0  0  0  0  0  0
  192.6710  175.3310  136.2850 C   0  0  1  0  0  0  0  0  0  0  0  0
  193.7030  176.3750  135.8940 C   0  0  0  0  0  1  0  0  0  0  0  0
  191.0830  173.7170  135.3290 C   0  0  0  0  0  2  0  0  0  0  0  0
  193.1580  174.5200  137.4990 C   0  0  0  0  0  2  0  0  0  0  0  0
  194.5630  174.1590  137.3710 N   0  0  0  0  0  0  0  0  0  0  0  0
  196.0320  172.2110  137.2990 C   0  0  0  0  0  3  0  0  0  0  0  0
  196.6910  174.1670  138.5550 C   0  0  0  0  0  2  0  0  0  0  0  0
  196.9320  172.8680  137.9500 N   0  0  0  0  0  0  0  0  0  0  0  0
  195.1970  174.4800  138.6460 C   0  0  0  0  0  2  0  0  0  0  0  0
  194.6120  172.7080  137.2100 C   0  0  0  0  0  2  0  0  0  0  0  0
  185.4990  178.5590  143.8650 O   0  0  0  0  0  0  0  0  0  0  0  0
  183.1710  178.2100  140.9650 C   0  0  0  0  0  3  0  0  0  0  0  0
  181.9690  178.5920  141.5670 C   0  0  0  0  0  0  0  0  0  0  0  0
  183.1350  178.9550  143.6570 C   0  0  0  0  0  3  0  0  0  0  0  0
  184.3510  178.1970  141.7110 C   0  0  0  0  0  3  0  0  0  0  0  0
  184.3440  178.5740  143.0650 C   0  0  0  0  0  0  0  0  0  0  0  0
  181.9520  178.9700  142.9120 C   0  0  0  0  0  3  0  0  0  0  0  0
  179.9440  179.7260  141.1460 O   0  0  0  0  0  1  0  0  0  0  0  0
  180.7130  178.6270  140.7680 C   0  0  0  0  0  2  0  0  0  0  0  0
  1  8  1  0  0  0  0
  1  6  1  0  0  0  0
  2 12  1  0  0  0  0
  3 14  2  0  0  0  0
  3 10  1  0  0  0  0
  4 15  1  0  0  0  0
  4  8  2  0  0  0  0
  5  1  2  0  0  0  0
  7  4  1  0  0  0  0
  9  7  2  0  0  0  0
  9  5  1  0  0  0  0
 10 11  2  0  0  0  0
 11  2  1  0  0  0  0
 11  7  1  0  0  0  0
 12 15  2  0  0  0  0
 13 35  1  0  0  0  0
 13  2  2  0  0  0  0
 14 13  1  0  0  0  0
 16  3  1  0  0  0  0
 17 16  1  0  0  0  0
 18 16  1  0  0  0  0
 19 21  1  1  0  0  0
 19 17  1  0  0  0  0
 20 19  1  0  0  0  0
 20 18  1  0  0  0  0
 22 21  1  1  0  0  0
 23 27  1  0  0  0  0
 23 25  1  0  0  0  0
 24 22  1  0  0  0  0
 25 26  1  6  0  0  0
 25 22  1  0  0  0  0
 25 28  1  0  0  0  0
 27 24  1  0  0  0  0
 29 28  1  0  0  0  0
 29 33  1  0  0  0  0
 30 32  2  0  0  0  0
 31 33  1  0  0  0  0
 32 31  1  0  0  0  0
 34 30  1  0  0  0  0
 34 29  1  0  0  0  0
 36 37  2  0  0  0  0
 36 39  1  0  0  0  0
 37 41  1  0  0  0  0
 39 40  2  0  0  0  0
 40 38  1  0  0  0  0
 40 35  1  0  0  0  0
 41 38  2  0  0  0  0
 43 42  1  0  0  0  0
 43 37  1  0  0  0  0
M  END
>  <MODEL>
1

>  <REMARK>
 VINA RESULT:      -9.9      0.000      0.000
  Name = 
  8 active torsions:
  status: ('A' for Active; 'I' for Inactive)
    1  A    between atoms: O_1  and  C_34
    2  A    between atoms: O_1  and  C_35
    3  A    between atoms: N_2  and  C_13
    4  A    between atoms: C_3  and  C_4
    5  A    between atoms: C_3  and  C_12
    6  A    between atoms: N_11  and  C_14
    7  A    between atoms: C_14  and  C_22
    8  A    between atoms: C_19  and  C_37
                            x       y       z     vdW  Elec       q    Type
                         _______ _______ _______ _____ _____    ______ ____

>  <TORSDO>
F 8

$$$$
=
 OpenBabel10262422203D

 43 49  0  0  1  0  0  0  0  0999 V2000
  191.1340  176.6260  146.7640 C   0  0  0  0  0  0  0  0  0  0  0  0
  189.2150  177.8660  142.2690 C   0  0  0  0  0  0  0  0  0  0  0  0
  186.4380  178.1890  142.5940 C   0  0  0  0  0  0  0  0  0  0  0  0
  190.8350  177.1740  144.4250 C   0  0  0  0  0  0  0  0  0  0  0  0
  189.7600  176.7720  146.9770 C   0  0  0  0  0  3  0  0  0  0  0  0
  192.0260  176.2560  147.8940 C   0  0  0  0  0  1  0  0  0  0  0  0
  189.4440  177.3250  144.6300 C   0  0  0  0  0  0  0  0  0  0  0  0
  191.6710  176.8280  145.4890 C   0  0  0  0  0  3  0  0  0  0  0  0
  188.9180  177.1200  145.9170 C   0  0  0  0  0  3  0  0  0  0  0  0
  187.2390  177.8420  143.6880 C   0  0  0  0  0  3  0  0  0  0  0  0
  188.6220  177.6760  143.5410 C   0  0  0  0  0  0  0  0  0  0  0  0
  190.5580  177.7070  142.1160 N   0  0  0  0  0  0  0  0  0  0  0  0
  188.4220  178.2200  141.1660 C   0  0  0  0  0  0  0  0  0  0  0  0
  187.0380  178.3720  141.3420 C   0  0  0  0  0  3  0  0  0  0  0  0
  191.3680  177.3700  143.1530 C   0  0  0  0  0  3  0  0  0  0  0  0
  185.0200  178.3570  142.7530 N   0  0  0  0  0  0  0  0  0  0  0  0
  184.0730  178.2300  141.6630 C   0  0  0  0  0  2  0  0  0  0  0  0
  184.3900  178.6870  144.0160 C   0  0  0  0  0  2  0  0  0  0  0  0
  182.7010  178.3740  142.2910 C   0  0  1  0  0  3  0  0  0  0  0  0
  182.9250  178.9170  143.6980 C   0  0  0  0  0  2  0  0  0  0  0  0
  181.8620  179.3400  141.4720 C   0  0  0  0  0  2  0  0  0  0  0  0
  180.5880  178.6680  140.9600 C   0  0  2  0  0  3  0  0  0  0  0  0
  179.0010  178.3560  139.1650 C   0  0  0  0  0  2  0  0  0  0  0  0
  180.8740  176.9230  140.5260 S   0  0  0  0  0  0  0  0  0  0  0  0
  179.9480  179.3750  139.7680 C   0  0  1  0  0  0  0  0  0  0  0  0
  179.1530  180.5710  140.2610 C   0  0  0  0  0  1  0  0  0  0  0  0
  179.7090  177.0140  139.1300 C   0  0  0  0  0  2  0  0  0  0  0  0
  180.9940  179.8150  138.7290 C   0  0  0  0  0  2  0  0  0  0  0  0
  180.5620  181.0020  138.0050 N   0  0  0  0  0  0  0  0  0  0  0  0
  180.3680  181.8860  135.7380 C   0  0  0  0  0  3  0  0  0  0  0  0
  181.1590  183.3120  137.5210 C   0  0  0  0  0  2  0  0  0  0  0  0
  180.6810  183.0610  136.1720 N   0  0  0  0  0  0  0  0  0  0  0  0
  181.5840  182.0210  138.2210 C   0  0  0  0  0  2  0  0  0  0  0  0
  180.5780  180.6580  136.5860 C   0  0  0  0  0  2  0  0  0  0  0  0
  189.0400  178.3850  139.9130 O   0  0  0  0  0  0  0  0  0  0  0  0
  190.2530  175.5770  137.7680 C   0  0  0  0  0  3  0  0  0  0  0  0
  189.2330  175.5390  136.8130 C   0  0  0  0  0  0  0  0  0  0  0  0
  188.1300  177.3860  137.9220 C   0  0  0  0  0  3  0  0  0  0  0  0
  190.2070  176.5170  138.8010 C   0  0  0  0  0  3  0  0  0  0  0  0
  189.1450  177.4340  138.8840 C   0  0  0  0  0  0  0  0  0  0  0  0
  188.1740  176.4470  136.8880 C   0  0  0  0  0  3  0  0  0  0  0  0
  188.0000  174.1760  135.3350 O   0  0  0  0  0  1  0  0  0  0  0  0
  189.2920  174.5520  135.7000 C   0  0  0  0  0  2  0  0  0  0  0  0
  1  5  1  0  0  0  0
  1  6  1  0  0  0  0
  2 11  1  0  0  0  0
  3 16  1  0  0  0  0
  3 10  1  0  0  0  0
  4  7  2  0  0  0  0
  4  8  1  0  0  0  0
  7  9  1  0  0  0  0
  8  1  2  0  0  0  0
  9  5  2  0  0  0  0
 11 10  2  0  0  0  0
 11  7  1  0  0  0  0
 12  2  1  0  0  0  0
 12 15  2  0  0  0  0
 13 14  1  0  0  0  0
 13  2  2  0  0  0  0
 14  3  2  0  0  0  0
 15  4  1  0  0  0  0
 16 18  1  0  0  0  0
 17 19  1  0  0  0  0
 17 16  1  0  0  0  0
 19 21  1  6  0  0  0
 19 20  1  0  0  0  0
 20 18  1  0  0  0  0
 22 21  1  6  0  0  0
 23 25  1  0  0  0  0
 24 22  1  0  0  0  0
 25 26  1  1  0  0  0
 25 22  1  0  0  0  0
 27 23  1  0  0  0  0
 27 24  1  0  0  0  0
 28 25  1  0  0  0  0
 29 33  1  0  0  0  0
 29 28  1  0  0  0  0
 30 32  2  0  0  0  0
 30 34  1  0  0  0  0
 31 33  1  0  0  0  0
 32 31  1  0  0  0  0
 34 29  1  0  0  0  0
 35 13  1  0  0  0  0
 36 39  1  0  0  0  0
 37 41  1  0  0  0  0
 37 36  2  0  0  0  0
 38 40  1  0  0  0  0
 39 40  2  0  0  0  0
 40 35  1  0  0  0  0
 41 38  2  0  0  0  0
 42 43  1  0  0  0  0
 43 37  1  0  0  0  0
M  END
>  <MODEL>
2

>  <REMARK>
 VINA RESULT:      -9.9      3.808      9.784
  Name = 
  8 active torsions:
  status: ('A' for Active; 'I' for Inactive)
    1  A    between atoms: O_1  and  C_34
    2  A    between atoms: O_1  and  C_35
    3  A    between atoms: N_2  and  C_13
    4  A    between atoms: C_3  and  C_4
    5  A    between atoms: C_3  and  C_12
    6  A    between atoms: N_11  and  C_14
    7  A    between atoms: C_14  and  C_22
    8  A    between atoms: C_19  and  C_37
                            x       y       z     vdW  Elec       q    Type
                         _______ _______ _______ _____ _____    ______ ____

>  <TORSDO>
F 8

$$$$
=
 OpenBabel10262422203D

 43 49  0  0  1  0  0  0  0  0999 V2000
  191.3730  176.3790  146.9900 C   0  0  0  0  0  0  0  0  0  0  0  0
  187.2780  177.8840  144.4610 C   0  0  0  0  0  0  0  0  0  0  0  0
  187.9480  177.9490  141.7270 C   0  0  0  0  0  0  0  0  0  0  0  0
  189.1520  177.1190  146.3730 C   0  0  0  0  0  0  0  0  0  0  0  0
  191.7550  176.3970  145.6450 C   0  0  0  0  0  3  0  0  0  0  0  0
  192.3500  175.9770  148.0350 C   0  0  0  0  0  1  0  0  0  0  0  0
  189.5290  177.1400  145.0100 C   0  0  0  0  0  0  0  0  0  0  0  0
  190.0710  176.7390  147.3530 C   0  0  0  0  0  3  0  0  0  0  0  0
  190.8400  176.7740  144.6600 C   0  0  0  0  0  3  0  0  0  0  0  0
  188.9000  177.5610  142.6770 C   0  0  0  0  0  3  0  0  0  0  0  0
  188.5820  177.5250  144.0410 C   0  0  0  0  0  0  0  0  0  0  0  0
  186.9590  177.8540  145.7840 N   0  0  0  0  0  0  0  0  0  0  0  0
  186.3130  178.2700  143.5170 C   0  0  0  0  0  0  0  0  0  0  0  0
  186.6630  178.3020  142.1590 C   0  0  0  0  0  3  0  0  0  0  0  0
  187.8560  177.4840  146.7340 C   0  0  0  0  0  3  0  0  0  0  0  0
  188.2820  177.9820  140.3310 N   0  0  0  0  0  0  0  0  0  0  0  0
  187.3190  178.2660  139.2850 C   0  0  0  0  0  2  0  0  0  0  0  0
  189.6120  177.7190  139.8200 C   0  0  0  0  0  2  0  0  0  0  0  0
  188.1120  178.3070  137.9940 C   0  0  1  0  0  3  0  0  0  0  0  0
  189.4790  177.7080  138.3090 C   0  0  0  0  0  2  0  0  0  0  0  0
  187.4010  177.4880  136.9310 C   0  0  0  0  0  2  0  0  0  0  0  0
  188.1870  176.2210  136.5930 C   0  0  2  0  0  3  0  0  0  0  0  0
  188.2990  174.1220  135.4020 C   0  0  0  0  0  2  0  0  0  0  0  0
  189.5220  176.5540  135.4010 S   0  0  0  0  0  0  0  0  0  0  0  0
  187.3250  175.0780  136.0630 C   0  0  1  0  0  0  0  0  0  0  0  0
  186.6450  174.3800  137.2280 C   0  0  0  0  0  1  0  0  0  0  0  0
  189.2910  174.9380  134.5940 C   0  0  0  0  0  2  0  0  0  0  0  0
  186.2810  175.5680  135.0450 C   0  0  0  0  0  2  0  0  0  0  0  0
  184.9240  175.3710  135.5350 N   0  0  0  0  0  0  0  0  0  0  0  0
  182.8080  174.3220  134.9170 C   0  0  0  0  0  3  0  0  0  0  0  0
  182.8120  176.5160  135.9310 C   0  0  0  0  0  2  0  0  0  0  0  0
  182.1660  175.3010  135.4620 N   0  0  0  0  0  0  0  0  0  0  0  0
  184.2330  176.6480  135.3840 C   0  0  0  0  0  2  0  0  0  0  0  0
  184.2840  174.4180  134.6310 C   0  0  0  0  0  2  0  0  0  0  0  0
  185.0320  178.6360  143.9690 O   0  0  0  0  0  0  0  0  0  0  0  0
  182.5630  178.2750  141.1900 C   0  0  0  0  0  3  0  0  0  0  0  0
  181.3910  178.6500  141.8520 C   0  0  0  0  0  0  0  0  0  0  0  0
  182.6590  179.0200  143.8810 C   0  0  0  0  0  3  0  0  0  0  0  0
  183.7800  178.2680  141.8760 C   0  0  0  0  0  3  0  0  0  0  0  0
  183.8390  178.6450  143.2280 C   0  0  0  0  0  0  0  0  0  0  0  0
  181.4400  179.0280  143.1960 C   0  0  0  0  0  3  0  0  0  0  0  0
  179.1930  177.8030  141.7180 O   0  0  0  0  0  1  0  0  0  0  0  0
  180.0970  178.6790  141.1170 C   0  0  0  0  0  2  0  0  0  0  0  0
  1  8  1  0  0  0  0
  1  6  1  0  0  0  0
  2 12  1  0  0  0  0
  3 14  2  0  0  0  0
  3 10  1  0  0  0  0
  4 15  1  0  0  0  0
  4  8  2  0  0  0  0
  5  1  2  0  0  0  0
  7  4  1  0  0  0  0
  9  7  2  0  0  0  0
  9  5  1  0  0  0  0
 10 11  2  0  0  0  0
 11  2  1  0  0  0  0
 11  7  1  0  0  0  0
 12 15  2  0  0  0  0
 13 35  1  0  0  0  0
 13  2  2  0  0  0  0
 14 13  1  0  0  0  0
 16  3  1  0  0  0  0
 17 16  1  0  0  0  0
 18 16  1  0  0  0  0
 19 21  1  6  0  0  0
 19 20  1  0  0  0  0
 19 17  1  0  0  0  0
 20 18  1  0  0  0  0
 22 21  1  6  0  0  0
 23 25  1  0  0  0  0
 24 22  1  0  0  0  0
 25 22  1  0  0  0  0
 25 26  1  1  0  0  0
 27 24  1  0  0  0  0
 27 23  1  0  0  0  0
 28 29  1  0  0  0  0
 28 25  1  0  0  0  0
 30 32  2  0  0  0  0
 32 31  1  0  0  0  0
 33 29  1  0  0  0  0
 33 31  1  0  0  0  0
 34 30  1  0  0  0  0
 34 29  1  0  0  0  0
 36 37  2  0  0  0  0
 36 39  1  0  0  0  0
 37 41  1  0  0  0  0
 39 40  2  0  0  0  0
 40 38  1  0  0  0  0
 40 35  1  0  0  0  0
 41 38  2  0  0  0  0
 43 42  1  0  0  0  0
 43 37  1  0  0  0  0
M  END
>  <MODEL>
3

>  <REMARK>
 VINA RESULT:      -9.8      3.365      5.259
  Name = 
  8 active torsions:
  status: ('A' for Active; 'I' for Inactive)
    1  A    between atoms: O_1  and  C_34
    2  A    between atoms: O_1  and  C_35
    3  A    between atoms: N_2  and  C_13
    4  A    between atoms: C_3  and  C_4
    5  A    between atoms: C_3  and  C_12
    6  A    between atoms: N_11  and  C_14
    7  A    between atoms: C_14  and  C_22
    8  A    between atoms: C_19  and  C_37
                            x       y       z     vdW  Elec       q    Type
                         _______ _______ _______ _____ _____    ______ ____

>  <TORSDO>
F 8

$$$$
=
 OpenBabel10262422203D

 43 49  0  0  1  0  0  0  0  0999 V2000
  191.1870  176.5320  146.8070 C   0  0  0  0  0  0  0  0  0  0  0  0
  188.9340  177.8770  142.5000 C   0  0  0  0  0  0  0  0  0  0  0  0
  186.2030  178.2650  143.0590 C   0  0  0  0  0  0  0  0  0  0  0  0
  190.7090  177.1160  144.5070 C   0  0  0  0  0  0  0  0  0  0  0  0
  189.8390  176.7090  147.1350 C   0  0  0  0  0  3  0  0  0  0  0  0
  192.1590  176.1240  147.8550 C   0  0  0  0  0  1  0  0  0  0  0  0
  189.3440  177.3000  144.8290 C   0  0  0  0  0  0  0  0  0  0  0  0
  191.6210  176.7360  145.4940 C   0  0  0  0  0  3  0  0  0  0  0  0
  188.9220  177.0910  146.1530 C   0  0  0  0  0  3  0  0  0  0  0  0
  187.0830  177.8840  144.0790 C   0  0  0  0  0  3  0  0  0  0  0  0
  188.4450  177.6850  143.8160 C   0  0  0  0  0  0  0  0  0  0  0  0
  190.2560  177.6860  142.2350 N   0  0  0  0  0  0  0  0  0  0  0  0
  188.0620  178.2640  141.4710 C   0  0  0  0  0  0  0  0  0  0  0  0
  186.7020  178.4490  141.7640 C   0  0  0  0  0  3  0  0  0  0  0  0
  191.1400  177.3150  143.1970 C   0  0  0  0  0  3  0  0  0  0  0  0
  184.8080  178.4660  143.3380 N   0  0  0  0  0  0  0  0  0  0  0  0
  183.7780  178.4400  142.3180 C   0  0  0  0  0  2  0  0  0  0  0  0
  184.2870  178.7330  144.6640 C   0  0  0  0  0  2  0  0  0  0  0  0
  182.4630  178.5850  143.0580 C   0  0  1  0  0  3  0  0  0  0  0  0
  182.8120  179.0280  144.4750 C   0  0  0  0  0  2  0  0  0  0  0  0
  181.6010  179.6290  142.3680 C   0  0  0  0  0  2  0  0  0  0  0  0
  180.3590  178.9930  141.7420 C   0  0  2  0  0  3  0  0  0  0  0  0
  179.3770  177.7610  139.9100 C   0  0  0  0  0  2  0  0  0  0  0  0
  179.9250  177.4230  142.5560 S   0  0  0  0  0  0  0  0  0  0  0  0
  180.4740  178.7550  140.2390 C   0  0  1  0  0  0  0  0  0  0  0  0
  180.2120  180.0570  139.5030 C   0  0  0  0  0  1  0  0  0  0  0  0
  179.3700  176.6890  140.9840 C   0  0  0  0  0  2  0  0  0  0  0  0
  181.8490  178.1830  139.8490 C   0  0  0  0  0  2  0  0  0  0  0  0
  181.7960  177.4900  138.5700 N   0  0  0  0  0  0  0  0  0  0  0  0
  182.5320  175.4300  137.4860 C   0  0  0  0  0  3  0  0  0  0  0  0
  182.6650  177.5290  136.2960 C   0  0  0  0  0  2  0  0  0  0  0  0
  182.7250  176.0790  136.3870 N   0  0  0  0  0  0  0  0  0  0  0  0
  182.7160  178.1850  137.6760 C   0  0  0  0  0  2  0  0  0  0  0  0
  182.3320  176.1500  138.7950 C   0  0  0  0  0  2  0  0  0  0  0  0
  188.5780  178.4300  140.1730 O   0  0  0  0  0  0  0  0  0  0  0  0
  186.6820  177.3340  137.1470 C   0  0  0  0  0  3  0  0  0  0  0  0
  187.5390  176.3400  136.6660 C   0  0  0  0  0  0  0  0  0  0  0  0
  189.0430  176.7450  138.5200 C   0  0  0  0  0  3  0  0  0  0  0  0
  187.0090  178.0340  138.3110 C   0  0  0  0  0  3  0  0  0  0  0  0
  188.1920  177.7420  139.0100 C   0  0  0  0  0  0  0  0  0  0  0  0
  188.7170  176.0420  137.3560 C   0  0  0  0  0  3  0  0  0  0  0  0
  185.8950  175.9220  135.0270 O   0  0  0  0  0  1  0  0  0  0  0  0
  187.1820  175.5780  135.4390 C   0  0  0  0  0  2  0  0  0  0  0  0
  1  5  1  0  0  0  0
  1  6  1  0  0  0  0
  2 11  1  0  0  0  0
  3 16  1  0  0  0  0
  3 10  1  0  0  0  0
  4  7  2  0  0  0  0
  4  8  1  0  0  0  0
  7  9  1  0  0  0  0
  8  1  2  0  0  0  0
  9  5  2  0  0  0  0
 11 10  2  0  0  0  0
 11  7  1  0  0  0  0
 12  2  1  0  0  0  0
 12 15  2  0  0  0  0
 13 14  1  0  0  0  0
 13  2  2  0  0  0  0
 14  3  2  0  0  0  0
 15  4  1  0  0  0  0
 16 18  1  0  0  0  0
 17 19  1  0  0  0  0
 17 16  1  0  0  0  0
 19 21  1  6  0  0  0
 19 20  1  0  0  0  0
 20 18  1  0  0  0  0
 22 21  1  1  0  0  0
 22 24  1  0  0  0  0
 23 25  1  0  0  0  0
 23 27  1  0  0  0  0
 25 26  1  6  0  0  0
 25 22  1  0  0  0  0
 27 24  1  0  0  0  0
 28 25  1  0  0  0  0
 29 34  1  0  0  0  0
 29 28  1  0  0  0  0
 30 34  1  0  0  0  0
 31 32  1  0  0  0  0
 31 33  1  0  0  0  0
 32 30  2  0  0  0  0
 33 29  1  0  0  0  0
 35 13  1  0  0  0  0
 36 39  1  0  0  0  0
 37 36  2  0  0  0  0
 37 41  1  0  0  0  0
 38 40  1  0  0  0  0
 39 40  2  0  0  0  0
 40 35  1  0  0  0  0
 41 38  2  0  0  0  0
 42 43  1  0  0  0  0
 43 37  1  0  0  0  0
M  END
>  <MODEL>
4

>  <REMARK>
 VINA RESULT:      -9.6      4.213      8.792
  Name = 
  8 active torsions:
  status: ('A' for Active; 'I' for Inactive)
    1  A    between atoms: O_1  and  C_34
    2  A    between atoms: O_1  and  C_35
    3  A    between atoms: N_2  and  C_13
    4  A    between atoms: C_3  and  C_4
    5  A    between atoms: C_3  and  C_12
    6  A    between atoms: N_11  and  C_14
    7  A    between atoms: C_14  and  C_22
    8  A    between atoms: C_19  and  C_37
                            x       y       z     vdW  Elec       q    Type
                         _______ _______ _______ _____ _____    ______ ____

>  <TORSDO>
F 8

$$$$
=
 OpenBabel10262422203D

 43 49  0  0  1  0  0  0  0  0999 V2000
  191.6740  176.3810  147.2840 C   0  0  0  0  0  0  0  0  0  0  0  0
  187.5730  177.8710  144.7550 C   0  0  0  0  0  0  0  0  0  0  0  0
  188.2240  177.8780  142.0170 C   0  0  0  0  0  0  0  0  0  0  0  0
  189.4540  177.1280  146.6690 C   0  0  0  0  0  0  0  0  0  0  0  0
  192.0470  176.3710  145.9370 C   0  0  0  0  0  3  0  0  0  0  0  0
  192.6550  175.9920  148.3310 C   0  0  0  0  0  1  0  0  0  0  0  0
  189.8220  177.1190  145.3030 C   0  0  0  0  0  0  0  0  0  0  0  0
  190.3780  176.7580  147.6500 C   0  0  0  0  0  3  0  0  0  0  0  0
  191.1280  176.7370  144.9510 C   0  0  0  0  0  3  0  0  0  0  0  0
  189.1800  177.5010  142.9670 C   0  0  0  0  0  3  0  0  0  0  0  0
  188.8720  177.4940  144.3330 C   0  0  0  0  0  0  0  0  0  0  0  0
  187.2630  177.8680  146.0810 N   0  0  0  0  0  0  0  0  0  0  0  0
  186.6050  178.2460  143.8110 C   0  0  0  0  0  0  0  0  0  0  0  0
  186.9450  178.2490  142.4500 C   0  0  0  0  0  3  0  0  0  0  0  0
  188.1640  177.5090  147.0320 C   0  0  0  0  0  3  0  0  0  0  0  0
  188.5490  177.8820  140.6170 N   0  0  0  0  0  0  0  0  0  0  0  0
  187.5510  177.8870  139.5650 C   0  0  0  0  0  2  0  0  0  0  0  0
  189.9070  177.8650  140.1110 C   0  0  0  0  0  2  0  0  0  0  0  0
  188.3230  178.0020  138.2660 C   0  0  1  0  0  3  0  0  0  0  0  0
  189.7840  177.7220  138.6060 C   0  0  0  0  0  2  0  0  0  0  0  0
  187.8010  176.9810  137.2690 C   0  0  0  0  0  2  0  0  0  0  0  0
  186.4620  177.4210  136.6790 C   0  0  2  0  0  3  0  0  0  0  0  0
  184.2570  176.8170  135.8960 C   0  0  0  0  0  2  0  0  0  0  0  0
  185.4040  178.2160  137.9310 S   0  0  0  0  0  0  0  0  0  0  0  0
  185.6760  176.2950  136.0120 C   0  0  1  0  0  0  0  0  0  0  0  0
  186.2370  176.0460  134.6230 C   0  0  0  0  0  1  0  0  0  0  0  0
  183.8960  177.5040  137.1990 C   0  0  0  0  0  2  0  0  0  0  0  0
  185.7040  175.0010  136.8440 C   0  0  0  0  0  2  0  0  0  0  0  0
  186.1260  173.8600  136.0440 N   0  0  0  0  0  0  0  0  0  0  0  0
  185.4230  171.6080  135.4160 C   0  0  0  0  0  3  0  0  0  0  0  0
  187.7410  172.0400  135.9460 C   0  0  0  0  0  2  0  0  0  0  0  0
  186.6540  171.2210  135.4360 N   0  0  0  0  0  0  0  0  0  0  0  0
  187.2210  173.2220  136.7670 C   0  0  0  0  0  2  0  0  0  0  0  0
  185.0070  172.9220  136.0260 C   0  0  0  0  0  2  0  0  0  0  0  0
  185.3300  178.6300  144.2650 O   0  0  0  0  0  0  0  0  0  0  0  0
  181.7360  179.0030  143.3180 C   0  0  0  0  0  3  0  0  0  0  0  0
  181.7970  178.6330  141.9710 C   0  0  0  0  0  0  0  0  0  0  0  0
  184.1790  178.2580  142.1850 C   0  0  0  0  0  3  0  0  0  0  0  0
  182.8970  179.0040  144.0940 C   0  0  0  0  0  3  0  0  0  0  0  0
  184.1300  178.6270  143.5340 C   0  0  0  0  0  0  0  0  0  0  0  0
  183.0180  178.2550  141.4070 C   0  0  0  0  0  3  0  0  0  0  0  0
  180.4790  177.4080  140.4460 O   0  0  0  0  0  1  0  0  0  0  0  0
  180.5570  178.6100  141.1480 C   0  0  0  0  0  2  0  0  0  0  0  0
  1  8  1  0  0  0  0
  1  6  1  0  0  0  0
  2 12  1  0  0  0  0
  3 14  2  0  0  0  0
  3 10  1  0  0  0  0
  4 15  1  0  0  0  0
  4  8  2  0  0  0  0
  5  1  2  0  0  0  0
  7  4  1  0  0  0  0
  9  7  2  0  0  0  0
  9  5  1  0  0  0  0
 10 11  2  0  0  0  0
 11  2  1  0  0  0  0
 11  7  1  0  0  0  0
 12 15  2  0  0  0  0
 13 35  1  0  0  0  0
 13  2  2  0  0  0  0
 14 13  1  0  0  0  0
 16  3  1  0  0  0  0
 17 16  1  0  0  0  0
 18 16  1  0  0  0  0
 19 21  1  6  0  0  0
 19 20  1  0  0  0  0
 19 17  1  0  0  0  0
 20 18  1  0  0  0  0
 22 21  1  1  0  0  0
 22 24  1  0  0  0  0
 23 25  1  0  0  0  0
 23 27  1  0  0  0  0
 25 26  1  6  0  0  0
 25 22  1  0  0  0  0
 25 28  1  0  0  0  0
 27 24  1  0  0  0  0
 29 33  1  0  0  0  0
 29 28  1  0  0  0  0
 30 32  2  0  0  0  0
 30 34  1  0  0  0  0
 31 33  1  0  0  0  0
 32 31  1  0  0  0  0
 34 29  1  0  0  0  0
 36 39  1  0  0  0  0
 37 36  2  0  0  0  0
 38 40  1  0  0  0  0
 40 39  2  0  0  0  0
 40 35  1  0  0  0  0
 41 37  1  0  0  0  0
 41 38  2  0  0  0  0
 42 43  1  0  0  0  0
 43 37  1  0  0  0  0
M  END
>  <MODEL>
5

>  <REMARK>
 VINA RESULT:      -9.2      3.593      4.784
  Name = 
  8 active torsions:
  status: ('A' for Active; 'I' for Inactive)
    1  A    between atoms: O_1  and  C_34
    2  A    between atoms: O_1  and  C_35
    3  A    between atoms: N_2  and  C_13
    4  A    between atoms: C_3  and  C_4
    5  A    between atoms: C_3  and  C_12
    6  A    between atoms: N_11  and  C_14
    7  A    between atoms: C_14  and  C_22
    8  A    between atoms: C_19  and  C_37
                            x       y       z     vdW  Elec       q    Type
                         _______ _______ _______ _____ _____    ______ ____

>  <TORSDO>
F 8

$$$$
=
 OpenBabel10262422203D

 43 49  0  0  1  0  0  0  0  0999 V2000
  188.9770  177.1670  146.3450 C   0  0  0  0  0  0  0  0  0  0  0  0
  186.2230  178.3770  142.2980 C   0  0  0  0  0  0  0  0  0  0  0  0
  187.8100  177.9060  140.0220 C   0  0  0  0  0  0  0  0  0  0  0  0
  187.2100  177.8870  144.8560 C   0  0  0  0  0  0  0  0  0  0  0  0
  189.8060  176.9190  145.2470 C   0  0  0  0  0  3  0  0  0  0  0  0
  189.4750  176.9170  147.7230 C   0  0  0  0  0  1  0  0  0  0  0  0
  188.0400  177.6390  143.7380 C   0  0  0  0  0  0  0  0  0  0  0  0
  187.6800  177.6500  146.1500 C   0  0  0  0  0  3  0  0  0  0  0  0
  189.3420  177.1530  143.9500 C   0  0  0  0  0  3  0  0  0  0  0  0
  188.3200  177.6540  141.3010 C   0  0  0  0  0  3  0  0  0  0  0  0
  187.5430  177.8850  142.4440 C   0  0  0  0  0  0  0  0  0  0  0  0
  185.4590  178.6050  143.4020 N   0  0  0  0  0  0  0  0  0  0  0  0
  185.6990  178.6290  141.0210 C   0  0  0  0  0  0  0  0  0  0  0  0
  186.5030  178.3940  139.8960 C   0  0  0  0  0  3  0  0  0  0  0  0
  185.9190  178.3740  144.6590 C   0  0  0  0  0  3  0  0  0  0  0  0
  188.6140  177.6660  138.8560 N   0  0  0  0  0  0  0  0  0  0  0  0
  189.4690  176.5060  138.7000 C   0  0  0  0  0  2  0  0  0  0  0  0
  188.6660  178.5670  137.7210 C   0  0  0  0  0  2  0  0  0  0  0  0
  190.0360  176.5990  137.2970 C   0  0  1  0  0  3  0  0  0  0  0  0
  189.7380  178.0110  136.8030 C   0  0  0  0  0  2  0  0  0  0  0  0
  191.5340  176.3500  137.3340 C   0  0  0  0  0  2  0  0  0  0  0  0
  192.0460  175.8640  135.9780 C   0  0  2  0  0  3  0  0  0  0  0  0
  193.6960  174.6220  134.7220 C   0  0  0  0  0  2  0  0  0  0  0  0
  191.0470  174.4830  135.3370 S   0  0  0  0  0  0  0  0  0  0  0  0
  193.5150  175.4510  135.9790 C   0  0  1  0  0  0  0  0  0  0  0  0
  194.3860  176.6920  135.8940 C   0  0  0  0  0  1  0  0  0  0  0  0
  192.5080  173.6870  134.5960 C   0  0  0  0  0  2  0  0  0  0  0  0
  193.8800  174.6220  137.2240 C   0  0  0  0  0  2  0  0  0  0  0  0
  195.1560  175.0370  137.7870 N   0  0  0  0  0  0  0  0  0  0  0  0
  197.5150  174.4100  137.8290 C   0  0  0  0  0  3  0  0  0  0  0  0
  196.4290  175.1400  139.8600 C   0  0  0  0  0  2  0  0  0  0  0  0
  197.5900  174.7830  139.0630 N   0  0  0  0  0  0  0  0  0  0  0  0
  195.1270  174.6810  139.2020 C   0  0  0  0  0  2  0  0  0  0  0  0
  196.1840  174.2180  137.1500 C   0  0  0  0  0  2  0  0  0  0  0  0
  184.3900  179.1330  140.9130 O   0  0  0  0  0  0  0  0  0  0  0  0
  182.0060  176.5100  139.7320 C   0  0  0  0  0  3  0  0  0  0  0  0
  180.8160  176.9930  140.2830 C   0  0  0  0  0  0  0  0  0  0  0  0
  182.0170  178.8780  141.2160 C   0  0  0  0  0  3  0  0  0  0  0  0
  183.2000  177.2090  139.9280 C   0  0  0  0  0  3  0  0  0  0  0  0
  183.2150  178.4030  140.6700 C   0  0  0  0  0  0  0  0  0  0  0  0
  180.8210  178.1800  141.0210 C   0  0  0  0  0  3  0  0  0  0  0  0
  178.9890  175.8850  141.2820 O   0  0  0  0  0  1  0  0  0  0  0  0
  179.5400  176.2620  140.0580 C   0  0  0  0  0  2  0  0  0  0  0  0
  1  6  1  0  0  0  0
  2 11  1  0  0  0  0
  2 12  1  0  0  0  0
  3 10  1  0  0  0  0
  4  8  2  0  0  0  0
  5  1  2  0  0  0  0
  7  9  2  0  0  0  0
  7  4  1  0  0  0  0
  8  1  1  0  0  0  0
  9  5  1  0  0  0  0
 10 11  2  0  0  0  0
 11  7  1  0  0  0  0
 12 15  2  0  0  0  0
 13  2  2  0  0  0  0
 14  3  2  0  0  0  0
 14 13  1  0  0  0  0
 15  4  1  0  0  0  0
 16  3  1  0  0  0  0
 17 16  1  0  0  0  0
 18 16  1  0  0  0  0
 19 21  1  1  0  0  0
 19 17  1  0  0  0  0
 20 19  1  0  0  0  0
 20 18  1  0  0  0  0
 22 25  1  0  0  0  0
 22 21  1  1  0  0  0
 23 25  1  0  0  0  0
 24 22  1  0  0  0  0
 25 26  1  6  0  0  0
 25 28  1  0  0  0  0
 27 23  1  0  0  0  0
 27 24  1  0  0  0  0
 28 29  1  0  0  0  0
 29 33  1  0  0  0  0
 30 32  2  0  0  0  0
 32 31  1  0  0  0  0
 33 31  1  0  0  0  0
 34 29  1  0  0  0  0
 34 30  1  0  0  0  0
 35 13  1  0  0  0  0
 36 39  2  0  0  0  0
 36 37  1  0  0  0  0
 37 41  2  0  0  0  0
 39 40  1  0  0  0  0
 40 35  1  0  0  0  0
 40 38  2  0  0  0  0
 41 38  1  0  0  0  0
 43 37  1  0  0  0  0
 43 42  1  0  0  0  0
M  END
>  <MODEL>
6

>  <REMARK>
 VINA RESULT:      -9.1      1.633      2.265
  Name = 
  8 active torsions:
  status: ('A' for Active; 'I' for Inactive)
    1  A    between atoms: O_1  and  C_34
    2  A    between atoms: O_1  and  C_35
    3  A    between atoms: N_2  and  C_13
    4  A    between atoms: C_3  and  C_4
    5  A    between atoms: C_3  and  C_12
    6  A    between atoms: N_11  and  C_14
    7  A    between atoms: C_14  and  C_22
    8  A    between atoms: C_19  and  C_37
                            x       y       z     vdW  Elec       q    Type
                         _______ _______ _______ _____ _____    ______ ____

>  <TORSDO>
F 8

$$$$
=
 OpenBabel10262422203D

 43 49  0  0  1  0  0  0  0  0999 V2000
  181.2960  179.2240  142.4140 C   0  0  0  0  0  0  0  0  0  0  0  0
  185.8870  178.3790  144.3230 C   0  0  0  0  0  0  0  0  0  0  0  0
  187.6220  177.8790  142.1640 C   0  0  0  0  0  0  0  0  0  0  0  0
  183.1890  178.9200  143.8920 C   0  0  0  0  0  0  0  0  0  0  0  0
  182.1170  178.9800  141.3090 C   0  0  0  0  0  3  0  0  0  0  0  0
  179.8520  179.5140  142.2180 C   0  0  0  0  0  1  0  0  0  0  0  0
  184.0280  178.6730  142.7800 C   0  0  0  0  0  0  0  0  0  0  0  0
  181.8330  179.1950  143.7050 C   0  0  0  0  0  3  0  0  0  0  0  0
  183.4750  178.7070  141.4890 C   0  0  0  0  0  3  0  0  0  0  0  0
  186.2690  178.1510  141.9320 C   0  0  0  0  0  3  0  0  0  0  0  0
  185.3920  178.4000  142.9960 C   0  0  0  0  0  0  0  0  0  0  0  0
  185.0430  178.6190  145.3640 N   0  0  0  0  0  0  0  0  0  0  0  0
  187.2430  178.1130  144.5680 C   0  0  0  0  0  0  0  0  0  0  0  0
  188.0950  177.8610  143.4830 C   0  0  0  0  0  3  0  0  0  0  0  0
  183.7240  178.8850  145.1780 C   0  0  0  0  0  3  0  0  0  0  0  0
  188.5140  177.6260  141.0670 N   0  0  0  0  0  0  0  0  0  0  0  0
  188.0690  177.4500  139.6990 C   0  0  0  0  0  2  0  0  0  0  0  0
  189.9510  177.5030  141.2160 C   0  0  0  0  0  2  0  0  0  0  0  0
  189.3300  177.3190  138.8690 C   0  0  1  0  0  3  0  0  0  0  0  0
  190.4730  177.0900  139.8530 C   0  0  0  0  0  2  0  0  0  0  0  0
  189.1980  176.1390  137.9200 C   0  0  0  0  0  2  0  0  0  0  0  0
  188.7350  176.5940  136.5360 C   0  0  2  0  0  3  0  0  0  0  0  0
  187.0320  176.5700  134.8220 C   0  0  0  0  0  2  0  0  0  0  0  0
  188.1900  178.3310  136.5460 S   0  0  0  0  0  0  0  0  0  0  0  0
  187.6270  175.7320  135.9370 C   0  0  1  0  0  0  0  0  0  0  0  0
  188.2350  174.4700  135.3500 C   0  0  0  0  0  1  0  0  0  0  0  0
  186.8790  177.9930  135.3280 C   0  0  0  0  0  2  0  0  0  0  0  0
  186.5470  175.3770  136.9740 C   0  0  0  0  0  2  0  0  0  0  0  0
  185.5430  174.4840  136.4160 N   0  0  0  0  0  0  0  0  0  0  0  0
  183.1420  174.0430  136.4700 C   0  0  0  0  0  3  0  0  0  0  0  0
  184.7040  172.2000  136.5040 C   0  0  0  0  0  2  0  0  0  0  0  0
  183.3750  172.7760  136.3860 N   0  0  0  0  0  0  0  0  0  0  0  0
  185.7040  173.1980  137.0870 C   0  0  0  0  0  2  0  0  0  0  0  0
  184.2400  175.0190  136.8040 C   0  0  0  0  0  2  0  0  0  0  0  0
  187.6970  178.0830  145.8990 O   0  0  0  0  0  0  0  0  0  0  0  0
  190.4190  176.8670  148.1500 C   0  0  0  0  0  3  0  0  0  0  0  0
  191.3810  176.5090  147.2020 C   0  0  0  0  0  0  0  0  0  0  0  0
  189.8910  177.2160  145.4290 C   0  0  0  0  0  3  0  0  0  0  0  0
  189.1930  177.3940  147.7360 C   0  0  0  0  0  3  0  0  0  0  0  0
  188.9200  177.5770  146.3700 C   0  0  0  0  0  0  0  0  0  0  0  0
  191.1190  176.6890  145.8410 C   0  0  0  0  0  3  0  0  0  0  0  0
  193.0440  176.5180  148.8750 O   0  0  0  0  0  1  0  0  0  0  0  0
  192.6960  175.9680  147.6420 C   0  0  0  0  0  2  0  0  0  0  0  0
  1  8  1  0  0  0  0
  2 13  1  0  0  0  0
  2 12  1  0  0  0  0
  3 14  1  0  0  0  0
  4 15  1  0  0  0  0
  5  9  1  0  0  0  0
  5  1  2  0  0  0  0
  6  1  1  0  0  0  0
  7 11  1  0  0  0  0
  7  4  1  0  0  0  0
  8  4  2  0  0  0  0
  9  7  2  0  0  0  0
 10  3  2  0  0  0  0
 10 11  1  0  0  0  0
 11  2  2  0  0  0  0
 13 35  1  0  0  0  0
 14 13  2  0  0  0  0
 15 12  2  0  0  0  0
 16 18  1  0  0  0  0
 16  3  1  0  0  0  0
 17 16  1  0  0  0  0
 19 21  1  6  0  0  0
 19 17  1  0  0  0  0
 19 20  1  0  0  0  0
 20 18  1  0  0  0  0
 22 24  1  0  0  0  0
 22 21  1  1  0  0  0
 23 27  1  0  0  0  0
 23 25  1  0  0  0  0
 25 26  1  6  0  0  0
 25 22  1  0  0  0  0
 25 28  1  0  0  0  0
 27 24  1  0  0  0  0
 29 34  1  0  0  0  0
 29 28  1  0  0  0  0
 29 33  1  0  0  0  0
 30 34  1  0  0  0  0
 31 33  1  0  0  0  0
 32 30  2  0  0  0  0
 32 31  1  0  0  0  0
 35 40  1  0  0  0  0
 37 43  1  0  0  0  0
 37 36  2  0  0  0  0
 38 41  2  0  0  0  0
 38 40  1  0  0  0  0
 39 36  1  0  0  0  0
 40 39  2  0  0  0  0
 41 37  1  0  0  0  0
 43 42  1  0  0  0  0
M  END
>  <MODEL>
7

>  <REMARK>
 VINA RESULT:      -9.0      3.675      7.991
  Name = 
  8 active torsions:
  status: ('A' for Active; 'I' for Inactive)
    1  A    between atoms: O_1  and  C_34
    2  A    between atoms: O_1  and  C_35
    3  A    between atoms: N_2  and  C_13
    4  A    between atoms: C_3  and  C_4
    5  A    between atoms: C_3  and  C_12
    6  A    between atoms: N_11  and  C_14
    7  A    between atoms: C_14  and  C_22
    8  A    between atoms: C_19  and  C_37
                            x       y       z     vdW  Elec       q    Type
                         _______ _______ _______ _____ _____    ______ ____

>  <TORSDO>
F 8

$$$$
=
 OpenBabel10262422203D

 43 49  0  0  1  0  0  0  0  0999 V2000
  188.6960  177.5170  146.7810 C   0  0  0  0  0  0  0  0  0  0  0  0
  187.4840  178.3150  141.9520 C   0  0  0  0  0  0  0  0  0  0  0  0
  184.6750  178.3840  141.7850 C   0  0  0  0  0  0  0  0  0  0  0  0
  188.7600  177.9040  144.3920 C   0  0  0  0  0  0  0  0  0  0  0  0
  187.2990  177.5400  146.7500 C   0  0  0  0  0  3  0  0  0  0  0  0
  189.4080  177.2970  148.0680 C   0  0  0  0  0  1  0  0  0  0  0  0
  187.3470  177.9300  144.3510 C   0  0  0  0  0  0  0  0  0  0  0  0
  189.4270  177.7000  145.6030 C   0  0  0  0  0  3  0  0  0  0  0  0
  186.6260  177.7450  145.5430 C   0  0  0  0  0  3  0  0  0  0  0  0
  185.3020  178.1770  143.0190 C   0  0  0  0  0  3  0  0  0  0  0  0
  186.6990  178.1390  143.1180 C   0  0  0  0  0  0  0  0  0  0  0  0
  188.8420  178.2800  142.0370 N   0  0  0  0  0  0  0  0  0  0  0  0
  186.8660  178.5290  140.7100 C   0  0  0  0  0  0  0  0  0  0  0  0
  185.4650  178.5560  140.6410 C   0  0  0  0  0  3  0  0  0  0  0  0
  189.4860  178.0800  143.2160 C   0  0  0  0  0  3  0  0  0  0  0  0
  183.2420  178.4220  141.6930 N   0  0  0  0  0  0  0  0  0  0  0  0
  182.4980  177.8840  140.5710 C   0  0  0  0  0  2  0  0  0  0  0  0
  182.3900  179.0170  142.7040 C   0  0  0  0  0  2  0  0  0  0  0  0
  181.0350  178.0350  140.9350 C   0  0  1  0  0  3  0  0  0  0  0  0
  180.9850  178.9740  142.1360 C   0  0  0  0  0  2  0  0  0  0  0  0
  180.2740  178.6270  139.7610 C   0  0  0  0  0  2  0  0  0  0  0  0
  179.3160  177.6040  139.1520 C   0  0  2  0  0  3  0  0  0  0  0  0
  178.9310  175.8470  137.5380 C   0  0  0  0  0  2  0  0  0  0  0  0
  179.0960  176.1590  140.2380 S   0  0  0  0  0  0  0  0  0  0  0  0
  179.7240  177.1200  137.7630 C   0  0  1  0  0  0  0  0  0  0  0  0
  179.3160  178.1570  136.7310 C   0  0  0  0  0  1  0  0  0  0  0  0
  178.9750  175.0290  138.8150 C   0  0  0  0  0  2  0  0  0  0  0  0
  181.2330  176.8340  137.6720 C   0  0  0  0  0  2  0  0  0  0  0  0
  181.5090  175.6910  136.8120 N   0  0  0  0  0  0  0  0  0  0  0  0
  182.9520  173.7290  136.6560 C   0  0  0  0  0  3  0  0  0  0  0  0
  182.5030  175.0510  134.6840 C   0  0  0  0  0  2  0  0  0  0  0  0
  183.0160  173.8800  135.3750 N   0  0  0  0  0  0  0  0  0  0  0  0
  182.2280  176.2040  135.6500 C   0  0  0  0  0  2  0  0  0  0  0  0
  182.4260  174.8240  137.5470 C   0  0  0  0  0  2  0  0  0  0  0  0
  187.6740  178.6850  139.5690 O   0  0  0  0  0  0  0  0  0  0  0  0
  186.8460  177.6490  136.0780 C   0  0  0  0  0  3  0  0  0  0  0  0
  187.5630  176.4510  136.0000 C   0  0  0  0  0  0  0  0  0  0  0  0
  188.3140  176.7560  138.2810 C   0  0  0  0  0  3  0  0  0  0  0  0
  186.8690  178.4000  137.2550 C   0  0  0  0  0  3  0  0  0  0  0  0
  187.6020  177.9580  138.3700 C   0  0  0  0  0  0  0  0  0  0  0  0
  188.2920  176.0020  137.1040 C   0  0  0  0  0  3  0  0  0  0  0  0
  186.5170  174.6760  134.8500 O   0  0  0  0  0  1  0  0  0  0  0  0
  187.5220  175.6380  134.7540 C   0  0  0  0  0  2  0  0  0  0  0  0
  1  6  1  0  0  0  0
  2 12  1  0  0  0  0
  2 11  1  0  0  0  0
  3 10  1  0  0  0  0
  4  8  1  0  0  0  0
  5  1  1  0  0  0  0
  7  4  2  0  0  0  0
  7  9  1  0  0  0  0
  8  1  2  0  0  0  0
  9  5  2  0  0  0  0
 10 11  2  0  0  0  0
 11  7  1  0  0  0  0
 12 15  2  0  0  0  0
 13  2  2  0  0  0  0
 14 13  1  0  0  0  0
 14  3  2  0  0  0  0
 15  4  1  0  0  0  0
 16  3  1  0  0  0  0
 16 18  1  0  0  0  0
 17 19  1  0  0  0  0
 17 16  1  0  0  0  0
 19 21  1  6  0  0  0
 19 20  1  0  0  0  0
 20 18  1  0  0  0  0
 22 21  1  1  0  0  0
 22 24  1  0  0  0  0
 23 25  1  0  0  0  0
 23 27  1  0  0  0  0
 25 26  1  6  0  0  0
 25 22  1  0  0  0  0
 27 24  1  0  0  0  0
 28 25  1  0  0  0  0
 29 34  1  0  0  0  0
 29 28  1  0  0  0  0
 30 34  1  0  0  0  0
 31 32  1  0  0  0  0
 31 33  1  0  0  0  0
 32 30  2  0  0  0  0
 33 29  1  0  0  0  0
 35 13  1  0  0  0  0
 36 39  1  0  0  0  0
 37 36  2  0  0  0  0
 37 41  1  0  0  0  0
 38 40  1  0  0  0  0
 39 40  2  0  0  0  0
 40 35  1  0  0  0  0
 41 38  2  0  0  0  0
 43 42  1  0  0  0  0
 43 37  1  0  0  0  0
M  END
>  <MODEL>
8

>  <REMARK>
 VINA RESULT:      -9.0      4.499      8.911
  Name = 
  8 active torsions:
  status: ('A' for Active; 'I' for Inactive)
    1  A    between atoms: O_1  and  C_34
    2  A    between atoms: O_1  and  C_35
    3  A    between atoms: N_2  and  C_13
    4  A    between atoms: C_3  and  C_4
    5  A    between atoms: C_3  and  C_12
    6  A    between atoms: N_11  and  C_14
    7  A    between atoms: C_14  and  C_22
    8  A    between atoms: C_19  and  C_37
                            x       y       z     vdW  Elec       q    Type
                         _______ _______ _______ _____ _____    ______ ____

>  <TORSDO>
F 8

$$$$
=
 OpenBabel10262422203D

 43 49  0  0  1  0  0  0  0  0999 V2000
  187.8430  177.6660  147.3770 C   0  0  0  0  0  0  0  0  0  0  0  0
  186.3760  178.5570  142.6350 C   0  0  0  0  0  0  0  0  0  0  0  0
  188.4970  177.8150  140.9390 C   0  0  0  0  0  0  0  0  0  0  0  0
  186.5960  178.2910  145.3980 C   0  0  0  0  0  0  0  0  0  0  0  0
  188.9250  177.2860  146.5780 C   0  0  0  0  0  3  0  0  0  0  0  0
  187.9290  177.5380  148.8550 C   0  0  0  0  0  1  0  0  0  0  0  0
  187.6850  177.9080  144.5810 C   0  0  0  0  0  0  0  0  0  0  0  0
  186.6790  178.1670  146.7870 C   0  0  0  0  0  3  0  0  0  0  0  0
  188.8480  177.4040  145.1880 C   0  0  0  0  0  3  0  0  0  0  0  0
  188.6220  177.6740  142.3260 C   0  0  0  0  0  3  0  0  0  0  0  0
  187.5760  178.0400  143.1830 C   0  0  0  0  0  0  0  0  0  0  0  0
  185.3540  178.9170  143.4590 N   0  0  0  0  0  0  0  0  0  0  0  0
  186.2380  178.6980  141.2450 C   0  0  0  0  0  0  0  0  0  0  0  0
  187.3050  178.3280  140.4130 C   0  0  0  0  0  3  0  0  0  0  0  0
  185.4390  178.7960  144.8090 C   0  0  0  0  0  3  0  0  0  0  0  0
  189.5740  177.4360  140.0680 N   0  0  0  0  0  0  0  0  0  0  0  0
  189.4030  176.5770  138.9120 C   0  0  0  0  0  2  0  0  0  0  0  0
  190.9470  177.8590  140.2620 C   0  0  0  0  0  2  0  0  0  0  0  0
  190.7550  176.5320  138.2290 C   0  0  1  0  0  3  0  0  0  0  0  0
  191.7590  177.1150  139.2190 C   0  0  0  0  0  2  0  0  0  0  0  0
  191.1100  175.0940  137.8910 C   0  0  0  0  0  2  0  0  0  0  0  0
  190.4460  174.6530  136.5870 C   0  0  2  0  0  3  0  0  0  0  0  0
  190.5050  173.2620  134.6120 C   0  0  0  0  0  2  0  0  0  0  0  0
  189.0410  173.5350  136.8920 S   0  0  0  0  0  0  0  0  0  0  0  0
  191.3990  173.9900  135.5970 C   0  0  1  0  0  0  0  0  0  0  0  0
  192.1880  175.0610  134.8650 C   0  0  0  0  0  1  0  0  0  0  0  0
  189.4060  172.5660  135.3940 C   0  0  0  0  0  2  0  0  0  0  0  0
  192.3510  172.9980  136.2890 C   0  0  0  0  0  2  0  0  0  0  0  0
  193.7400  173.2600  135.9420 N   0  0  0  0  0  0  0  0  0  0  0  0
  195.7460  172.1340  135.1240 C   0  0  0  0  0  3  0  0  0  0  0  0
  195.9230  173.7700  136.8930 C   0  0  0  0  0  2  0  0  0  0  0  0
  196.4740  172.8840  135.8800 N   0  0  0  0  0  0  0  0  0  0  0  0
  194.4610  173.4410  137.1980 C   0  0  0  0  0  2  0  0  0  0  0  0
  194.2530  172.0460  135.3130 C   0  0  0  0  0  2  0  0  0  0  0  0
  185.0390  179.2290  140.7350 O   0  0  0  0  0  0  0  0  0  0  0  0
  182.8100  178.2060  137.9180 C   0  0  0  0  0  3  0  0  0  0  0  0
  182.1490  177.1240  138.5070 C   0  0  0  0  0  0  0  0  0  0  0  0
  183.4020  177.4770  140.5490 C   0  0  0  0  0  3  0  0  0  0  0  0
  183.7680  178.9170  138.6430 C   0  0  0  0  0  3  0  0  0  0  0  0
  184.0700  178.5610  139.9690 C   0  0  0  0  0  0  0  0  0  0  0  0
  182.4420  176.7640  139.8250 C   0  0  0  0  0  3  0  0  0  0  0  0
  179.9900  176.1750  138.5460 O   0  0  0  0  0  1  0  0  0  0  0  0
  181.1120  176.3790  137.7440 C   0  0  0  0  0  2  0  0  0  0  0  0
  1  6  1  0  0  0  0
  2 11  1  0  0  0  0
  2 12  1  0  0  0  0
  3 10  1  0  0  0  0
  4  8  2  0  0  0  0
  5  1  2  0  0  0  0
  7  9  2  0  0  0  0
  7  4  1  0  0  0  0
  8  1  1  0  0  0  0
  9  5  1  0  0  0  0
 10 11  2  0  0  0  0
 11  7  1  0  0  0  0
 12 15  2  0  0  0  0
 13  2  2  0  0  0  0
 14  3  2  0  0  0  0
 14 13  1  0  0  0  0
 15  4  1  0  0  0  0
 16 18  1  0  0  0  0
 16  3  1  0  0  0  0
 17 16  1  0  0  0  0
 19 21  1  1  0  0  0
 19 17  1  0  0  0  0
 19 20  1  0  0  0  0
 20 18  1  0  0  0  0
 22 24  1  0  0  0  0
 22 21  1  1  0  0  0
 23 27  1  0  0  0  0
 23 25  1  0  0  0  0
 25 26  1  6  0  0  0
 25 28  1  0  0  0  0
 25 22  1  0  0  0  0
 27 24  1  0  0  0  0
 29 28  1  0  0  0  0
 29 33  1  0  0  0  0
 30 34  1  0  0  0  0
 30 32  2  0  0  0  0
 31 33  1  0  0  0  0
 32 31  1  0  0  0  0
 34 29  1  0  0  0  0
 35 13  1  0  0  0  0
 36 37  2  0  0  0  0
 36 39  1  0  0  0  0
 37 41  1  0  0  0  0
 39 40  2  0  0  0  0
 40 38  1  0  0  0  0
 40 35  1  0  0  0  0
 41 38  2  0  0  0  0
 43 37  1  0  0  0  0
 43 42  1  0  0  0  0
M  END
>  <MODEL>
9

>  <REMARK>
 VINA RESULT:      -9.0      2.009      2.726
  Name = 
  8 active torsions:
  status: ('A' for Active; 'I' for Inactive)
    1  A    between atoms: O_1  and  C_34
    2  A    between atoms: O_1  and  C_35
    3  A    between atoms: N_2  and  C_13
    4  A    between atoms: C_3  and  C_4
    5  A    between atoms: C_3  and  C_12
    6  A    between atoms: N_11  and  C_14
    7  A    between atoms: C_14  and  C_22
    8  A    between atoms: C_19  and  C_37
                            x       y       z     vdW  Elec       q    Type
                         _______ _______ _______ _____ _____    ______ ____

>  <TORSDO>
F 8

$$$$
