=
 OpenBabel10262421133D

 32 36  0  0  1  0  0  0  0  0999 V2000
  186.0700  178.3630  141.8760 C   0  0  2  0  0  3  0  0  0  0  0  0
  187.0890  178.0810  144.4790 C   0  0  0  0  0  0  0  0  0  0  0  0
  185.5650  178.5420  140.5820 C   0  0  0  0  0  3  0  0  0  0  0  0
  185.1460  178.5200  143.0440 C   0  0  0  0  0  0  0  0  0  0  0  0
  184.9360  178.5030  145.5060 C   0  0  0  0  0  3  0  0  0  0  0  0
  189.5340  177.1360  147.2690 C   0  0  0  0  0  2  0  0  0  0  0  0
  185.7080  178.3690  144.3410 C   0  0  0  0  0  0  0  0  0  0  0  0
  187.3940  177.8700  148.2970 C   0  0  0  0  0  2  0  0  0  0  0  0
  186.8570  178.0920  146.9110 C   0  0  0  0  0  0  0  0  0  0  0  0
  183.7770  178.8180  142.7780 C   0  0  0  0  0  0  0  0  0  0  0  0
  185.4980  178.3610  146.7700 C   0  0  0  0  0  3  0  0  0  0  0  0
  183.3520  178.9710  141.4470 C   0  0  0  0  0  3  0  0  0  0  0  0
  187.8860  177.9440  143.3400 C   0  0  0  0  0  3  0  0  0  0  0  0
  187.3930  178.0720  142.0820 N   0  0  0  0  0  0  0  0  0  0  0  0
  187.6640  177.9310  145.7620 C   0  0  0  0  0  0  0  0  0  0  0  0
  182.9180  178.9520  143.7480 N   0  0  0  0  0  2  0  0  0  0  0  0
  184.2250  178.8390  140.3730 C   0  0  0  0  0  3  0  0  0  0  0  0
  188.9120  177.9920  148.3600 C   0  0  0  0  0  2  0  0  0  0  0  0
  189.1540  177.7050  145.9060 C   0  0  0  0  0  2  0  0  0  0  0  0
  190.3080  176.8770  140.0460 C   0  0  0  0  0  0  0  0  0  0  0  0
  191.3650  176.0350  140.1550 F   0  0  0  0  0  0  0  0  0  0  0  0
  188.3170  177.8980  140.9930 C   0  0  0  0  0  0  0  0  0  0  0  0
  190.1180  177.6000  138.8670 C   0  0  0  0  0  3  0  0  0  0  0  0
  188.1420  178.6280  139.8080 C   0  0  0  0  0  3  0  0  0  0  0  0
  189.4130  177.0260  141.1120 C   0  0  0  0  0  0  0  0  0  0  0  0
  189.6220  176.3390  142.2640 F   0  0  0  0  0  0  0  0  0  0  0  0
  189.0330  178.4830  138.7420 C   0  0  0  0  0  0  0  0  0  0  0  0
  187.8640  178.8520  136.5950 C   0  0  0  0  0  1  0  0  0  0  0  0
  188.8210  179.2230  137.5770 O   0  0  0  0  0  0  0  0  0  0  0  0
  181.5040  179.2570  143.5690 C   0  0  0  0  0  2  0  0  0  0  0  0
  180.6710  178.1570  144.1900 C   0  0  0  0  0  2  0  0  0  0  0  0
  179.6540  177.7920  143.3100 O   0  0  0  0  0  1  0  0  0  0  0  0
  1  3  1  1  0  0  0
  1 14  1  0  0  0  0
  1  4  1  0  0  0  0
  2 15  1  0  0  0  0
  4  7  2  0  0  0  0
  5 11  2  0  0  0  0
  6 18  1  0  0  0  0
  7  2  1  0  0  0  0
  7  5  1  0  0  0  0
  8 18  1  0  0  0  0
  9  8  1  0  0  0  0
 10  4  1  0  0  0  0
 10 16  1  0  0  0  0
 11  9  1  0  0  0  0
 12 10  2  0  0  0  0
 13  2  2  0  0  0  0
 14 13  1  0  0  0  0
 15 19  1  0  0  0  0
 15  9  2  0  0  0  0
 17  3  2  0  0  0  0
 17 12  1  0  0  0  0
 19  6  1  0  0  0  0
 20 21  1  0  0  0  0
 20 25  1  0  0  0  0
 22 25  2  0  0  0  0
 22 14  1  0  0  0  0
 23 20  2  0  0  0  0
 24 22  1  0  0  0  0
 25 26  1  0  0  0  0
 27 23  1  0  0  0  0
 27 24  2  0  0  0  0
 28 29  1  0  0  0  0
 29 27  1  0  0  0  0
 30 16  1  0  0  0  0
 30 31  1  0  0  0  0
 32 31  1  0  0  0  0
M  END
>  <MODEL>
1

>  <REMARK>
 VINA RESULT:     -10.6      0.000      0.000
  Name = 
  4 active torsions:
  status: ('A' for Active; 'I' for Inactive)
    1  A    between atoms: C_13  and  C_18
    2  A    between atoms: O_15  and  C_26
    3  A    between atoms: C_16  and  N_27
    4  A    between atoms: C_18  and  N_29
                            x       y       z     vdW  Elec       q    Type
                         _______ _______ _______ _____ _____    ______ ____

>  <TORSDO>
F 4

$$$$
=
 OpenBabel10262421133D

 32 36  0  0  1  0  0  0  0  0999 V2000
  188.0300  177.8140  141.3780 C   0  0  2  0  0  3  0  0  0  0  0  0
  189.3000  177.2530  143.8200 C   0  0  0  0  0  0  0  0  0  0  0  0
  187.4060  178.1310  140.1650 C   0  0  0  0  0  3  0  0  0  0  0  0
  187.2900  178.0520  142.6580 C   0  0  0  0  0  0  0  0  0  0  0  0
  187.3800  177.9450  145.1260 C   0  0  0  0  0  3  0  0  0  0  0  0
  191.8860  175.8100  146.2460 C   0  0  0  0  0  2  0  0  0  0  0  0
  187.9740  177.7530  143.8680 C   0  0  0  0  0  0  0  0  0  0  0  0
  190.0290  176.8090  147.5600 C   0  0  0  0  0  2  0  0  0  0  0  0
  189.3700  177.1790  146.2610 C   0  0  0  0  0  0  0  0  0  0  0  0
  185.9630  178.5670  142.5790 C   0  0  0  0  0  0  0  0  0  0  0  0
  188.0630  177.6570  146.3030 C   0  0  0  0  0  3  0  0  0  0  0  0
  185.4090  178.8480  141.3180 C   0  0  0  0  0  3  0  0  0  0  0  0
  189.9220  177.0520  142.5850 C   0  0  0  0  0  3  0  0  0  0  0  0
  189.3060  177.3160  141.4050 N   0  0  0  0  0  0  0  0  0  0  0  0
  189.9960  176.9530  145.0140 C   0  0  0  0  0  0  0  0  0  0  0  0
  185.2600  178.7820  143.6540 N   0  0  0  0  0  2  0  0  0  0  0  0
  186.1140  178.6380  140.1370 C   0  0  0  0  0  3  0  0  0  0  0  0
  191.5440  176.6960  147.4330 C   0  0  0  0  0  2  0  0  0  0  0  0
  191.4380  176.4960  144.9600 C   0  0  0  0  0  2  0  0  0  0  0  0
  192.1530  177.0030  138.9820 C   0  0  0  0  0  0  0  0  0  0  0  0
  193.4950  177.1840  138.9410 F   0  0  0  0  0  0  0  0  0  0  0  0
  190.0520  177.0570  140.2030 C   0  0  0  0  0  0  0  0  0  0  0  0
  191.4770  176.5740  137.8380 C   0  0  0  0  0  3  0  0  0  0  0  0
  189.3820  176.6370  139.0450 C   0  0  0  0  0  3  0  0  0  0  0  0
  191.4440  177.2490  140.1640 C   0  0  0  0  0  0  0  0  0  0  0  0
  192.1070  177.6920  141.2630 F   0  0  0  0  0  0  0  0  0  0  0  0
  190.0850  176.3900  137.8620 C   0  0  0  0  0  0  0  0  0  0  0  0
  187.9620  175.9180  136.6840 C   0  0  0  0  0  1  0  0  0  0  0  0
  189.3820  175.9670  136.7320 O   0  0  0  0  0  0  0  0  0  0  0  0
  183.9000  179.3070  143.6650 C   0  0  0  0  0  2  0  0  0  0  0  0
  183.2030  178.8660  144.9340 C   0  0  0  0  0  2  0  0  0  0  0  0
  184.0780  178.9880  146.0120 O   0  0  0  0  0  1  0  0  0  0  0  0
  1  3  1  1  0  0  0
  1 14  1  0  0  0  0
  1  4  1  0  0  0  0
  2  7  1  0  0  0  0
  2 15  1  0  0  0  0
  4  7  2  0  0  0  0
  5 11  2  0  0  0  0
  6 18  1  0  0  0  0
  7  5  1  0  0  0  0
  9 11  1  0  0  0  0
  9  8  1  0  0  0  0
 10  4  1  0  0  0  0
 10 16  1  0  0  0  0
 12 10  2  0  0  0  0
 13  2  2  0  0  0  0
 14 13  1  0  0  0  0
 15  9  2  0  0  0  0
 16 30  1  0  0  0  0
 17  3  2  0  0  0  0
 17 12  1  0  0  0  0
 18  8  1  0  0  0  0
 19 15  1  0  0  0  0
 19  6  1  0  0  0  0
 20 25  1  0  0  0  0
 21 20  1  0  0  0  0
 22 14  1  0  0  0  0
 23 27  1  0  0  0  0
 23 20  2  0  0  0  0
 24 22  1  0  0  0  0
 25 22  2  0  0  0  0
 25 26  1  0  0  0  0
 27 24  2  0  0  0  0
 28 29  1  0  0  0  0
 29 27  1  0  0  0  0
 30 31  1  0  0  0  0
 31 32  1  0  0  0  0
M  END
>  <MODEL>
2

>  <REMARK>
 VINA RESULT:     -10.6      1.992      2.646
  Name = 
  4 active torsions:
  status: ('A' for Active; 'I' for Inactive)
    1  A    between atoms: C_13  and  C_18
    2  A    between atoms: O_15  and  C_26
    3  A    between atoms: C_16  and  N_27
    4  A    between atoms: C_18  and  N_29
                            x       y       z     vdW  Elec       q    Type
                         _______ _______ _______ _____ _____    ______ ____

>  <TORSDO>
F 4

$$$$
=
 OpenBabel10262421133D

 32 36  0  0  0  0  0  0  0  0999 V2000
  188.6240  177.7370  142.9770 C   0  0  0  0  0  0  0  0  0  0  0  0
  185.8640  178.2580  142.9460 C   0  0  0  0  0  0  0  0  0  0  0  0
  190.0070  177.5150  142.9870 C   0  0  0  0  0  3  0  0  0  0  0  0
  187.9280  177.9140  141.6620 C   0  0  0  0  0  0  0  0  0  0  0  0
  185.7790  178.3660  140.5270 C   0  0  0  0  0  3  0  0  0  0  0  0
  182.2700  178.5250  144.2400 C   0  0  0  0  0  2  0  0  0  0  0  0
  186.5310  178.1750  141.6980 C   0  0  0  0  0  0  0  0  0  0  0  0
  182.2690  178.9330  141.7890 C   0  0  0  0  0  2  0  0  0  0  0  0
  183.7580  178.7260  141.8000 C   0  0  0  0  0  0  0  0  0  0  0  0
  188.7080  177.8180  140.4730 C   0  0  0  0  0  0  0  0  0  0  0  0
  184.4140  178.6300  140.5760 C   0  0  0  0  0  3  0  0  0  0  0  0
  190.0900  177.5820  140.5740 C   0  0  0  0  0  3  0  0  0  0  0  0
  186.5820  178.0760  144.1310 C   0  0  0  0  0  3  0  0  0  0  0  0
  187.9140  177.8160  144.1460 N   0  0  0  0  0  0  0  0  0  0  0  0
  184.4750  178.5210  143.0000 C   0  0  0  0  0  0  0  0  0  0  0  0
  188.1610  177.9470  139.2980 N   0  0  0  0  0  0  0  0  0  0  0  0
  190.7270  177.4370  141.8030 C   0  0  0  0  0  3  0  0  0  0  0  0
  181.7390  179.4200  143.1330 C   0  0  0  0  0  2  0  0  0  0  0  0
  183.7840  178.6880  144.3360 C   0  0  0  0  0  2  0  0  0  0  0  0
  188.4270  177.6690  147.8590 C   0  0  0  0  0  0  0  0  0  0  0  0
  187.7250  177.8530  149.0040 F   0  0  0  0  0  0  0  0  0  0  0  0
  188.5350  177.6400  145.4310 C   0  0  0  0  0  0  0  0  0  0  0  0
  189.7770  177.3190  147.9230 C   0  0  0  0  0  3  0  0  0  0  0  0
  189.8930  177.2990  145.5070 C   0  0  0  0  0  3  0  0  0  0  0  0
  187.8030  177.8350  146.6160 C   0  0  0  0  0  0  0  0  0  0  0  0
  186.4980  178.2020  146.5650 F   0  0  0  0  0  0  0  0  0  0  0  0
  190.5190  177.1330  146.7460 C   0  0  0  0  0  0  0  0  0  0  0  0
  192.3650  175.6880  147.5330 C   0  0  0  0  0  1  0  0  0  0  0  0
  191.8720  176.7870  146.7790 O   0  0  0  0  0  0  0  0  0  0  0  0
  188.8820  177.8640  138.0330 C   0  0  0  0  0  2  0  0  0  0  0  0
  188.8280  179.2070  137.3370 C   0  0  0  0  0  2  0  0  0  0  0  0
  187.5360  179.4330  136.8640 O   0  0  0  0  0  1  0  0  0  0  0  0
  1  3  2  0  0  0  0
  1 14  1  0  0  0  0
  2 15  1  0  0  0  0
  2 13  2  0  0  0  0
  4  7  2  0  0  0  0
  4  1  1  0  0  0  0
  5 11  2  0  0  0  0
  5  7  1  0  0  0  0
  6 19  1  0  0  0  0
  7  2  1  0  0  0  0
  8  9  1  0  0  0  0
  8 18  1  0  0  0  0
  9 15  2  0  0  0  0
 10 12  1  0  0  0  0
 10  4  1  0  0  0  0
 11  9  1  0  0  0  0
 12 17  2  0  0  0  0
 13 14  1  0  0  0  0
 14 22  1  0  0  0  0
 15 19  1  0  0  0  0
 16 10  2  0  0  0  0
 17  3  1  0  0  0  0
 18  6  1  0  0  0  0
 20 23  1  0  0  0  0
 20 21  1  0  0  0  0
 22 24  2  0  0  0  0
 22 25  1  0  0  0  0
 24 27  1  0  0  0  0
 25 20  2  0  0  0  0
 26 25  1  0  0  0  0
 27 29  1  0  0  0  0
 27 23  2  0  0  0  0
 29 28  1  0  0  0  0
 30 16  1  0  0  0  0
 31 30  1  0  0  0  0
 32 31  1  0  0  0  0
M  END
>  <MODEL>
3

>  <REMARK>
 VINA RESULT:     -10.5      2.901      7.056
  Name = 
  4 active torsions:
  status: ('A' for Active; 'I' for Inactive)
    1  A    between atoms: C_13  and  C_18
    2  A    between atoms: O_15  and  C_26
    3  A    between atoms: C_16  and  N_27
    4  A    between atoms: C_18  and  N_29
                            x       y       z     vdW  Elec       q    Type
                         _______ _______ _______ _____ _____    ______ ____

>  <TORSDO>
F 4

$$$$
=
 OpenBabel10262421133D

 32 36  0  0  1  0  0  0  0  0999 V2000
  189.6630  177.2350  142.9140 C   0  0  2  0  0  3  0  0  0  0  0  0
  187.0200  177.9330  143.5620 C   0  0  0  0  0  0  0  0  0  0  0  0
  190.9720  176.8500  142.5970 C   0  0  0  0  0  3  0  0  0  0  0  0
  189.2750  177.3720  144.3540 C   0  0  0  0  0  0  0  0  0  0  0  0
  187.4520  177.8730  145.9450 C   0  0  0  0  0  3  0  0  0  0  0  0
  183.4460  179.2130  143.0690 C   0  0  0  0  0  2  0  0  0  0  0  0
  187.9270  177.7260  144.6320 C   0  0  0  0  0  0  0  0  0  0  0  0
  183.8350  178.8460  145.4950 C   0  0  0  0  0  2  0  0  0  0  0  0
  185.2310  178.4030  145.1580 C   0  0  0  0  0  0  0  0  0  0  0  0
  190.2740  177.1280  145.3420 C   0  0  0  0  0  0  0  0  0  0  0  0
  186.1280  178.2120  146.2050 C   0  0  0  0  0  3  0  0  0  0  0  0
  191.5670  176.7570  144.9360 C   0  0  0  0  0  3  0  0  0  0  0  0
  187.4590  177.7920  142.2440 C   0  0  0  0  0  3  0  0  0  0  0  0
  188.7380  177.4630  141.9290 N   0  0  0  0  0  0  0  0  0  0  0  0
  185.6750  178.2830  143.8220 C   0  0  0  0  0  0  0  0  0  0  0  0
  190.0060  177.2440  146.6110 N   0  0  0  0  0  2  0  0  0  0  0  0
  191.9090  176.6170  143.5940 C   0  0  0  0  0  3  0  0  0  0  0  0
  182.8600  178.6280  144.3430 C   0  0  0  0  0  2  0  0  0  0  0  0
  184.6920  178.4240  142.6800 C   0  0  0  0  0  2  0  0  0  0  0  0
  188.5750  177.8320  138.2000 C   0  0  0  0  0  0  0  0  0  0  0  0
  187.7900  178.4050  137.2540 F   0  0  0  0  0  0  0  0  0  0  0  0
  189.0650  177.3590  140.5330 C   0  0  0  0  0  0  0  0  0  0  0  0
  189.7100  177.1160  137.8160 C   0  0  0  0  0  3  0  0  0  0  0  0
  190.1970  176.6330  140.1350 C   0  0  0  0  0  3  0  0  0  0  0  0
  188.2470  177.9530  139.5550 C   0  0  0  0  0  0  0  0  0  0  0  0
  187.1260  178.6280  139.9160 F   0  0  0  0  0  0  0  0  0  0  0  0
  190.5280  176.5100  138.7830 C   0  0  0  0  0  0  0  0  0  0  0  0
  192.7930  176.3780  137.7990 C   0  0  0  0  0  1  0  0  0  0  0  0
  191.6670  175.7820  138.4290 O   0  0  0  0  0  0  0  0  0  0  0  0
  190.9630  177.0150  147.6860 C   0  0  0  0  0  2  0  0  0  0  0  0
  191.5610  175.6320  147.5390 C   0  0  0  0  0  2  0  0  0  0  0  0
  192.8550  175.6290  148.0570 O   0  0  0  0  0  1  0  0  0  0  0  0
  1  3  1  1  0  0  0
  1  4  1  0  0  0  0
  2 15  1  0  0  0  0
  2  7  1  0  0  0  0
  3 17  2  0  0  0  0
  4  7  2  0  0  0  0
  4 10  1  0  0  0  0
  5 11  2  0  0  0  0
  6 18  1  0  0  0  0
  7  5  1  0  0  0  0
  9  8  1  0  0  0  0
  9 11  1  0  0  0  0
 10 16  1  0  0  0  0
 12 10  2  0  0  0  0
 13  2  2  0  0  0  0
 14 13  1  0  0  0  0
 14  1  1  0  0  0  0
 15  9  2  0  0  0  0
 16 30  1  0  0  0  0
 17 12  1  0  0  0  0
 18  8  1  0  0  0  0
 19  6  1  0  0  0  0
 19 15  1  0  0  0  0
 20 25  1  0  0  0  0
 21 20  1  0  0  0  0
 22 14  1  0  0  0  0
 23 20  2  0  0  0  0
 23 27  1  0  0  0  0
 24 22  1  0  0  0  0
 25 26  1  0  0  0  0
 25 22  2  0  0  0  0
 27 24  2  0  0  0  0
 28 29  1  0  0  0  0
 29 27  1  0  0  0  0
 31 30  1  0  0  0  0
 31 32  1  0  0  0  0
M  END
>  <MODEL>
4

>  <REMARK>
 VINA RESULT:     -10.4      3.205      5.899
  Name = 
  4 active torsions:
  status: ('A' for Active; 'I' for Inactive)
    1  A    between atoms: C_13  and  C_18
    2  A    between atoms: O_15  and  C_26
    3  A    between atoms: C_16  and  N_27
    4  A    between atoms: C_18  and  N_29
                            x       y       z     vdW  Elec       q    Type
                         _______ _______ _______ _____ _____    ______ ____

>  <TORSDO>
F 4

$$$$
=
 OpenBabel10262421133D

 32 36  0  0  0  0  0  0  0  0999 V2000
  187.9050  177.7820  143.7290 C   0  0  0  0  0  0  0  0  0  0  0  0
  189.4540  177.4860  141.4040 C   0  0  0  0  0  0  0  0  0  0  0  0
  187.1170  177.8950  144.8820 C   0  0  0  0  0  3  0  0  0  0  0  0
  187.2720  178.0240  142.3930 C   0  0  0  0  0  0  0  0  0  0  0  0
  187.6060  178.0540  139.9440 C   0  0  0  0  0  3  0  0  0  0  0  0
  192.5810  177.1280  139.2240 C   0  0  0  0  0  2  0  0  0  0  0  0
  188.0970  177.8620  141.2460 C   0  0  0  0  0  0  0  0  0  0  0  0
  190.6040  177.4120  137.7450 C   0  0  0  0  0  2  0  0  0  0  0  0
  189.7510  177.5020  138.9800 C   0  0  0  0  0  0  0  0  0  0  0  0
  185.8940  178.3880  142.3610 C   0  0  0  0  0  0  0  0  0  0  0  0
  188.4210  177.8840  138.8290 C   0  0  0  0  0  3  0  0  0  0  0  0
  185.1810  178.4890  143.5670 C   0  0  0  0  0  3  0  0  0  0  0  0
  189.9730  177.2840  142.6850 C   0  0  0  0  0  3  0  0  0  0  0  0
  189.2270  177.4350  143.8090 N   0  0  0  0  0  0  0  0  0  0  0  0
  190.2870  177.3180  140.2740 C   0  0  0  0  0  0  0  0  0  0  0  0
  185.2880  178.6270  141.2330 N   0  0  0  0  0  0  0  0  0  0  0  0
  185.7770  178.2450  144.8010 C   0  0  0  0  0  3  0  0  0  0  0  0
  191.8810  176.6120  137.9780 C   0  0  0  0  0  2  0  0  0  0  0  0
  191.7130  176.8380  140.4440 C   0  0  0  0  0  2  0  0  0  0  0  0
  191.6640  176.1970  146.3790 C   0  0  0  0  0  0  0  0  0  0  0  0
  192.7860  175.4400  146.4550 F   0  0  0  0  0  0  0  0  0  0  0  0
  189.8830  177.2060  145.0690 C   0  0  0  0  0  0  0  0  0  0  0  0
  191.1240  176.7520  147.5410 C   0  0  0  0  0  3  0  0  0  0  0  0
  189.3430  177.7500  146.2430 C   0  0  0  0  0  3  0  0  0  0  0  0
  191.0450  176.4180  145.1430 C   0  0  0  0  0  0  0  0  0  0  0  0
  191.5620  175.8510  144.0230 F   0  0  0  0  0  0  0  0  0  0  0  0
  189.9570  177.5310  147.4790 C   0  0  0  0  0  0  0  0  0  0  0  0
  187.9920  178.0850  148.8760 C   0  0  0  0  0  1  0  0  0  0  0  0
  189.3910  178.0950  148.6260 O   0  0  0  0  0  0  0  0  0  0  0  0
  183.8860  179.0030  141.1070 C   0  0  0  0  0  2  0  0  0  0  0  0
  183.5720  179.2920  139.6550 C   0  0  0  0  0  2  0  0  0  0  0  0
  184.5550  180.1240  139.1240 O   0  0  0  0  0  1  0  0  0  0  0  0
  1 14  1  0  0  0  0
  1  3  2  0  0  0  0
  2 13  2  0  0  0  0
  4  1  1  0  0  0  0
  5  7  1  0  0  0  0
  6 19  1  0  0  0  0
  7  2  1  0  0  0  0
  7  4  2  0  0  0  0
  8 18  1  0  0  0  0
  8  9  1  0  0  0  0
  9 15  2  0  0  0  0
 10  4  1  0  0  0  0
 10 12  1  0  0  0  0
 11  9  1  0  0  0  0
 11  5  2  0  0  0  0
 12 17  2  0  0  0  0
 13 14  1  0  0  0  0
 14 22  1  0  0  0  0
 15 19  1  0  0  0  0
 15  2  1  0  0  0  0
 16 10  2  0  0  0  0
 17  3  1  0  0  0  0
 18  6  1  0  0  0  0
 20 21  1  0  0  0  0
 20 23  1  0  0  0  0
 22 25  1  0  0  0  0
 22 24  2  0  0  0  0
 24 27  1  0  0  0  0
 25 20  2  0  0  0  0
 26 25  1  0  0  0  0
 27 23  2  0  0  0  0
 27 29  1  0  0  0  0
 29 28  1  0  0  0  0
 30 16  1  0  0  0  0
 31 30  1  0  0  0  0
 32 31  1  0  0  0  0
M  END
>  <MODEL>
5

>  <REMARK>
 VINA RESULT:     -10.0      2.700      6.585
  Name = 
  4 active torsions:
  status: ('A' for Active; 'I' for Inactive)
    1  A    between atoms: C_13  and  C_18
    2  A    between atoms: O_15  and  C_26
    3  A    between atoms: C_16  and  N_27
    4  A    between atoms: C_18  and  N_29
                            x       y       z     vdW  Elec       q    Type
                         _______ _______ _______ _____ _____    ______ ____

>  <TORSDO>
F 4

$$$$
=
 OpenBabel10262421133D

 32 36  0  0  0  0  0  0  0  0999 V2000
  187.2600  178.0330  141.5480 C   0  0  0  0  0  0  0  0  0  0  0  0
  188.8170  177.4530  143.8130 C   0  0  0  0  0  0  0  0  0  0  0  0
  186.4800  178.2840  140.4120 C   0  0  0  0  0  3  0  0  0  0  0  0
  188.7100  177.7040  141.3730 C   0  0  0  0  0  0  0  0  0  0  0  0
  190.8210  177.0880  142.5020 C   0  0  0  0  0  3  0  0  0  0  0  0
  189.8010  177.2480  147.5070 C   0  0  0  0  0  2  0  0  0  0  0  0
  189.4570  177.4170  142.5480 C   0  0  0  0  0  0  0  0  0  0  0  0
  191.7540  176.5830  146.1220 C   0  0  0  0  0  2  0  0  0  0  0  0
  190.9110  176.8220  144.9010 C   0  0  0  0  0  0  0  0  0  0  0  0
  189.2390  177.6900  140.0490 C   0  0  0  0  0  0  0  0  0  0  0  0
  191.5390  176.8010  143.6580 C   0  0  0  0  0  3  0  0  0  0  0  0
  188.3860  177.9650  138.9650 C   0  0  0  0  0  3  0  0  0  0  0  0
  187.4600  177.7740  143.8950 C   0  0  0  0  0  3  0  0  0  0  0  0
  186.7090  178.0630  142.8020 N   0  0  0  0  0  0  0  0  0  0  0  0
  189.5440  177.1680  144.9910 C   0  0  0  0  0  0  0  0  0  0  0  0
  190.4950  177.4260  139.8290 N   0  0  0  0  0  0  0  0  0  0  0  0
  187.0370  178.2530  139.1410 C   0  0  0  0  0  3  0  0  0  0  0  0
  190.9180  176.2290  147.3470 C   0  0  0  0  0  2  0  0  0  0  0  0
  188.8390  177.1280  146.3300 C   0  0  0  0  0  2  0  0  0  0  0  0
  183.5110  179.0390  144.5020 C   0  0  0  0  0  0  0  0  0  0  0  0
  183.0610  179.3770  145.7350 F   0  0  0  0  0  0  0  0  0  0  0  0
  185.3250  178.3870  143.0220 C   0  0  0  0  0  0  0  0  0  0  0  0
  182.6180  178.9860  143.4300 C   0  0  0  0  0  3  0  0  0  0  0  0
  184.4180  178.3280  141.9550 C   0  0  0  0  0  3  0  0  0  0  0  0
  184.8630  178.7360  144.3040 C   0  0  0  0  0  0  0  0  0  0  0  0
  185.7170  178.7630  145.3580 F   0  0  0  0  0  0  0  0  0  0  0  0
  183.0670  178.6280  142.1490 C   0  0  0  0  0  0  0  0  0  0  0  0
  180.9080  179.1640  141.0670 C   0  0  0  0  0  1  0  0  0  0  0  0
  182.1960  178.5630  141.0590 O   0  0  0  0  0  0  0  0  0  0  0  0
  191.1180  177.3900  138.5120 C   0  0  0  0  0  2  0  0  0  0  0  0
  191.8070  176.0560  138.3190 C   0  0  0  0  0  2  0  0  0  0  0  0
  190.8590  175.0350  138.3410 O   0  0  0  0  0  1  0  0  0  0  0  0
  1 14  1  0  0  0  0
  2 13  2  0  0  0  0
  2 15  1  0  0  0  0
  3  1  2  0  0  0  0
  4  1  1  0  0  0  0
  4  7  2  0  0  0  0
  5  7  1  0  0  0  0
  5 11  2  0  0  0  0
  7  2  1  0  0  0  0
  8 18  1  0  0  0  0
  9 15  2  0  0  0  0
  9  8  1  0  0  0  0
 10  4  1  0  0  0  0
 11  9  1  0  0  0  0
 12 17  2  0  0  0  0
 12 10  1  0  0  0  0
 14 22  1  0  0  0  0
 14 13  1  0  0  0  0
 15 19  1  0  0  0  0
 16 10  2  0  0  0  0
 17  3  1  0  0  0  0
 18  6  1  0  0  0  0
 19  6  1  0  0  0  0
 20 21  1  0  0  0  0
 22 25  2  0  0  0  0
 23 20  2  0  0  0  0
 24 27  2  0  0  0  0
 24 22  1  0  0  0  0
 25 20  1  0  0  0  0
 25 26  1  0  0  0  0
 27 23  1  0  0  0  0
 29 28  1  0  0  0  0
 29 27  1  0  0  0  0
 30 16  1  0  0  0  0
 31 32  1  0  0  0  0
 31 30  1  0  0  0  0
M  END
>  <MODEL>
6

>  <REMARK>
 VINA RESULT:     -10.0      2.548      6.436
  Name = 
  4 active torsions:
  status: ('A' for Active; 'I' for Inactive)
    1  A    between atoms: C_13  and  C_18
    2  A    between atoms: O_15  and  C_26
    3  A    between atoms: C_16  and  N_27
    4  A    between atoms: C_18  and  N_29
                            x       y       z     vdW  Elec       q    Type
                         _______ _______ _______ _____ _____    ______ ____

>  <TORSDO>
F 4

$$$$
=
 OpenBabel10262421133D

 32 36  0  0  1  0  0  0  0  0999 V2000
  185.4100  178.3460  143.9370 C   0  0  2  0  0  3  0  0  0  0  0  0
  187.8100  177.8530  142.5630 C   0  0  0  0  0  0  0  0  0  0  0  0
  184.2240  178.6290  144.6270 C   0  0  0  0  0  3  0  0  0  0  0  0
  186.6600  178.0860  144.7200 C   0  0  0  0  0  0  0  0  0  0  0  0
  189.0800  177.5950  144.6100 C   0  0  0  0  0  3  0  0  0  0  0  0
  190.1410  177.0110  139.6450 C   0  0  0  0  0  2  0  0  0  0  0  0
  187.8490  177.8420  143.9800 C   0  0  0  0  0  0  0  0  0  0  0  0
  191.4710  177.0550  141.7430 C   0  0  0  0  0  2  0  0  0  0  0  0
  190.2070  177.3890  142.4840 C   0  0  0  0  0  0  0  0  0  0  0  0
  186.5760  178.1100  146.1430 C   0  0  0  0  0  0  0  0  0  0  0  0
  190.2390  177.3650  143.8750 C   0  0  0  0  0  3  0  0  0  0  0  0
  185.3420  178.3920  146.7540 C   0  0  0  0  0  3  0  0  0  0  0  0
  186.6030  178.0990  141.9040 C   0  0  0  0  0  3  0  0  0  0  0  0
  185.4410  178.3290  142.5680 N   0  0  0  0  0  0  0  0  0  0  0  0
  188.9840  177.6150  141.8120 C   0  0  0  0  0  0  0  0  0  0  0  0
  187.6230  177.8770  146.8810 N   0  0  0  0  0  2  0  0  0  0  0  0
  184.1920  178.6490  146.0150 C   0  0  0  0  0  3  0  0  0  0  0  0
  191.4280  177.5030  140.2860 C   0  0  0  0  0  2  0  0  0  0  0  0
  188.9540  177.7080  140.3020 C   0  0  0  0  0  2  0  0  0  0  0  0
  183.2150  179.1180  139.6530 C   0  0  0  0  0  0  0  0  0  0  0  0
  183.3120  179.4330  138.3380 F   0  0  0  0  0  0  0  0  0  0  0  0
  184.2650  178.5590  141.7720 C   0  0  0  0  0  0  0  0  0  0  0  0
  181.9570  179.0310  140.2530 C   0  0  0  0  0  3  0  0  0  0  0  0
  182.9970  178.4840  142.3670 C   0  0  0  0  0  3  0  0  0  0  0  0
  184.3710  178.8880  140.4090 C   0  0  0  0  0  0  0  0  0  0  0  0
  185.5890  179.0020  139.8230 F   0  0  0  0  0  0  0  0  0  0  0  0
  181.8410  178.7150  141.6160 C   0  0  0  0  0  0  0  0  0  0  0  0
  180.4480  178.6240  143.6570 C   0  0  0  0  0  1  0  0  0  0  0  0
  180.5970  178.6250  142.2440 O   0  0  0  0  0  0  0  0  0  0  0  0
  187.6280  177.8830  148.3390 C   0  0  0  0  0  2  0  0  0  0  0  0
  189.0100  178.2510  148.8350 C   0  0  0  0  0  2  0  0  0  0  0  0
  189.9680  177.5630  148.0930 O   0  0  0  0  0  1  0  0  0  0  0  0
  1  3  1  6  0  0  0
  1  4  1  0  0  0  0
  2  7  1  0  0  0  0
  3 17  2  0  0  0  0
  4 10  1  0  0  0  0
  6 18  1  0  0  0  0
  6 19  1  0  0  0  0
  7  5  1  0  0  0  0
  7  4  2  0  0  0  0
  8  9  1  0  0  0  0
  9 11  1  0  0  0  0
 10 12  2  0  0  0  0
 10 16  1  0  0  0  0
 11  5  2  0  0  0  0
 13  2  2  0  0  0  0
 13 14  1  0  0  0  0
 14  1  1  0  0  0  0
 15  9  2  0  0  0  0
 15  2  1  0  0  0  0
 16 30  1  0  0  0  0
 17 12  1  0  0  0  0
 18  8  1  0  0  0  0
 19 15  1  0  0  0  0
 20 23  2  0  0  0  0
 20 25  1  0  0  0  0
 21 20  1  0  0  0  0
 22 24  1  0  0  0  0
 22 14  1  0  0  0  0
 23 27  1  0  0  0  0
 25 22  2  0  0  0  0
 26 25  1  0  0  0  0
 27 29  1  0  0  0  0
 27 24  2  0  0  0  0
 29 28  1  0  0  0  0
 30 31  1  0  0  0  0
 32 31  1  0  0  0  0
M  END
>  <MODEL>
7

>  <REMARK>
 VINA RESULT:     -10.0      2.913      6.461
  Name = 
  4 active torsions:
  status: ('A' for Active; 'I' for Inactive)
    1  A    between atoms: C_13  and  C_18
    2  A    between atoms: O_15  and  C_26
    3  A    between atoms: C_16  and  N_27
    4  A    between atoms: C_18  and  N_29
                            x       y       z     vdW  Elec       q    Type
                         _______ _______ _______ _____ _____    ______ ____

>  <TORSDO>
F 4

$$$$
=
 OpenBabel10262421133D

 32 36  0  0  0  0  0  0  0  0999 V2000
  186.4590  178.0950  144.2650 C   0  0  0  0  0  0  0  0  0  0  0  0
  186.9830  178.2030  141.5070 C   0  0  0  0  0  0  0  0  0  0  0  0
  186.1820  178.0060  145.6350 C   0  0  0  0  0  3  0  0  0  0  0  0
  185.3520  178.4600  143.3240 C   0  0  0  0  0  0  0  0  0  0  0  0
  184.7030  178.8220  140.9670 C   0  0  0  0  0  3  0  0  0  0  0  0
  189.0150  178.3410  138.2660 C   0  0  0  0  0  2  0  0  0  0  0  0
  185.6650  178.5010  141.9380 C   0  0  0  0  0  0  0  0  0  0  0  0
  186.6140  178.6720  137.7170 C   0  0  0  0  0  2  0  0  0  0  0  0
  186.3090  178.5460  139.1840 C   0  0  0  0  0  0  0  0  0  0  0  0
  184.0650  178.7290  143.8770 C   0  0  0  0  0  0  0  0  0  0  0  0
  185.0200  178.8510  139.6120 C   0  0  0  0  0  3  0  0  0  0  0  0
  183.8780  178.6260  145.2660 C   0  0  0  0  0  3  0  0  0  0  0  0
  187.9630  177.8770  142.4470 C   0  0  0  0  0  3  0  0  0  0  0  0
  187.7130  177.8330  143.7800 N   0  0  0  0  0  0  0  0  0  0  0  0
  187.3100  178.2370  140.1320 C   0  0  0  0  0  0  0  0  0  0  0  0
  183.0640  179.0650  143.1150 N   0  0  0  0  0  0  0  0  0  0  0  0
  184.9110  178.2700  146.1260 C   0  0  0  0  0  3  0  0  0  0  0  0
  187.8920  177.9390  137.3240 C   0  0  0  0  0  2  0  0  0  0  0  0
  188.6960  177.8400  139.6700 C   0  0  0  0  0  2  0  0  0  0  0  0
  190.9790  176.4570  145.0080 C   0  0  0  0  0  0  0  0  0  0  0  0
  192.0550  175.7810  144.5360 F   0  0  0  0  0  0  0  0  0  0  0  0
  188.8110  177.4930  144.6440 C   0  0  0  0  0  0  0  0  0  0  0  0
  190.9250  176.8170  146.3560 C   0  0  0  0  0  3  0  0  0  0  0  0
  188.7620  177.8400  146.0020 C   0  0  0  0  0  3  0  0  0  0  0  0
  189.9240  176.7890  144.1500 C   0  0  0  0  0  0  0  0  0  0  0  0
  189.9750  176.4110  142.8480 F   0  0  0  0  0  0  0  0  0  0  0  0
  189.8130  177.5090  146.8620 C   0  0  0  0  0  0  0  0  0  0  0  0
  188.5010  178.2280  148.8310 C   0  0  0  0  0  1  0  0  0  0  0  0
  189.7280  177.8780  148.2070 O   0  0  0  0  0  0  0  0  0  0  0  0
  181.7180  179.3560  143.5930 C   0  0  0  0  0  2  0  0  0  0  0  0
  180.7620  179.3770  142.4200 C   0  0  0  0  0  2  0  0  0  0  0  0
  180.0550  180.5790  142.4190 O   0  0  0  0  0  1  0  0  0  0  0  0
  1  3  2  0  0  0  0
  2  7  1  0  0  0  0
  2 13  2  0  0  0  0
  3 17  1  0  0  0  0
  4 10  1  0  0  0  0
  4  1  1  0  0  0  0
  5  7  1  0  0  0  0
  6 19  1  0  0  0  0
  7  4  2  0  0  0  0
  8  9  1  0  0  0  0
  9 11  1  0  0  0  0
  9 15  2  0  0  0  0
 10 12  1  0  0  0  0
 11  5  2  0  0  0  0
 12 17  2  0  0  0  0
 13 14  1  0  0  0  0
 14  1  1  0  0  0  0
 14 22  1  0  0  0  0
 15  2  1  0  0  0  0
 16 30  1  0  0  0  0
 16 10  2  0  0  0  0
 18  8  1  0  0  0  0
 18  6  1  0  0  0  0
 19 15  1  0  0  0  0
 20 23  1  0  0  0  0
 21 20  1  0  0  0  0
 22 24  2  0  0  0  0
 23 27  2  0  0  0  0
 24 27  1  0  0  0  0
 25 22  1  0  0  0  0
 25 20  2  0  0  0  0
 26 25  1  0  0  0  0
 27 29  1  0  0  0  0
 29 28  1  0  0  0  0
 31 30  1  0  0  0  0
 32 31  1  0  0  0  0
M  END
>  <MODEL>
8

>  <REMARK>
 VINA RESULT:     -10.0      2.342      5.959
  Name = 
  4 active torsions:
  status: ('A' for Active; 'I' for Inactive)
    1  A    between atoms: C_13  and  C_18
    2  A    between atoms: O_15  and  C_26
    3  A    between atoms: C_16  and  N_27
    4  A    between atoms: C_18  and  N_29
                            x       y       z     vdW  Elec       q    Type
                         _______ _______ _______ _____ _____    ______ ____

>  <TORSDO>
F 4

$$$$
=
 OpenBabel10262421133D

 32 36  0  0  1  0  0  0  0  0999 V2000
  186.1710  178.1570  144.2900 C   0  0  2  0  0  3  0  0  0  0  0  0
  187.9970  177.8010  142.1850 C   0  0  0  0  0  0  0  0  0  0  0  0
  185.2730  178.3720  145.3430 C   0  0  0  0  0  3  0  0  0  0  0  0
  187.6080  177.8770  144.6080 C   0  0  0  0  0  0  0  0  0  0  0  0
  189.8620  177.4450  143.6910 C   0  0  0  0  0  3  0  0  0  0  0  0
  189.2590  177.1900  138.6230 C   0  0  0  0  0  2  0  0  0  0  0  0
  188.4930  177.7040  143.5100 C   0  0  0  0  0  0  0  0  0  0  0  0
  191.1970  177.1340  140.1760 C   0  0  0  0  0  2  0  0  0  0  0  0
  190.2400  177.3940  141.3060 C   0  0  0  0  0  0  0  0  0  0  0  0
  187.9890  177.8120  145.9810 C   0  0  0  0  0  0  0  0  0  0  0  0
  190.7210  177.2860  142.6080 C   0  0  0  0  0  3  0  0  0  0  0  0
  187.0200  178.0290  146.9750 C   0  0  0  0  0  3  0  0  0  0  0  0
  186.6420  178.0600  141.9690 C   0  0  0  0  0  3  0  0  0  0  0  0
  185.7570  178.2250  142.9860 N   0  0  0  0  0  0  0  0  0  0  0  0
  188.8660  177.6350  141.0820 C   0  0  0  0  0  0  0  0  0  0  0  0
  189.2190  177.5570  146.3250 N   0  0  0  0  0  2  0  0  0  0  0  0
  185.6920  178.3060  146.6640 C   0  0  0  0  0  3  0  0  0  0  0  0
  190.6840  177.6690  138.8440 C   0  0  0  0  0  2  0  0  0  0  0  0
  188.3480  177.8190  139.6720 C   0  0  0  0  0  2  0  0  0  0  0  0
  182.6720  178.8790  140.9560 C   0  0  0  0  0  0  0  0  0  0  0  0
  182.3010  179.0180  139.6600 F   0  0  0  0  0  0  0  0  0  0  0  0
  184.3870  178.4770  142.6300 C   0  0  0  0  0  0  0  0  0  0  0  0
  181.7150  178.9990  141.9660 C   0  0  0  0  0  3  0  0  0  0  0  0
  183.4200  178.6100  143.6370 C   0  0  0  0  0  3  0  0  0  0  0  0
  184.0080  178.6230  141.2830 C   0  0  0  0  0  0  0  0  0  0  0  0
  184.9350  178.5360  140.2960 F   0  0  0  0  0  0  0  0  0  0  0  0
  182.0840  178.8660  143.3140 C   0  0  0  0  0  0  0  0  0  0  0  0
  179.7830  178.6270  144.1890 C   0  0  0  0  0  1  0  0  0  0  0  0
  181.1500  178.9850  144.3450 O   0  0  0  0  0  0  0  0  0  0  0  0
  189.6960  177.4730  147.7000 C   0  0  0  0  0  2  0  0  0  0  0  0
  191.0870  176.8770  147.7130 C   0  0  0  0  0  2  0  0  0  0  0  0
  191.6810  177.0550  146.4650 O   0  0  0  0  0  1  0  0  0  0  0  0
  1  4  1  0  0  0  0
  1  3  1  6  0  0  0
  2  7  1  0  0  0  0
  3 17  2  0  0  0  0
  4 10  1  0  0  0  0
  6 18  1  0  0  0  0
  6 19  1  0  0  0  0
  7  5  1  0  0  0  0
  7  4  2  0  0  0  0
  8  9  1  0  0  0  0
  9 11  1  0  0  0  0
 10 16  1  0  0  0  0
 10 12  2  0  0  0  0
 11  5  2  0  0  0  0
 13  2  2  0  0  0  0
 13 14  1  0  0  0  0
 14  1  1  0  0  0  0
 15  9  2  0  0  0  0
 15  2  1  0  0  0  0
 16 30  1  0  0  0  0
 17 12  1  0  0  0  0
 18  8  1  0  0  0  0
 19 15  1  0  0  0  0
 20 25  2  0  0  0  0
 20 23  1  0  0  0  0
 21 20  1  0  0  0  0
 22 14  1  0  0  0  0
 22 24  2  0  0  0  0
 23 27  2  0  0  0  0
 25 22  1  0  0  0  0
 26 25  1  0  0  0  0
 27 24  1  0  0  0  0
 27 29  1  0  0  0  0
 28 29  1  0  0  0  0
 30 31  1  0  0  0  0
 32 31  1  0  0  0  0
M  END
>  <MODEL>
9

>  <REMARK>
 VINA RESULT:      -9.7      2.770      7.226
  Name = 
  4 active torsions:
  status: ('A' for Active; 'I' for Inactive)
    1  A    between atoms: C_13  and  C_18
    2  A    between atoms: O_15  and  C_26
    3  A    between atoms: C_16  and  N_27
    4  A    between atoms: C_18  and  N_29
                            x       y       z     vdW  Elec       q    Type
                         _______ _______ _______ _____ _____    ______ ____

>  <TORSDO>
F 4

$$$$
