=
 OpenBabel10262423263D

 34 39  0  0  1  0  0  0  0  0999 V2000
  184.9140  178.8550  141.6320 C   0  0  0  0  0  0  0  0  0  0  0  0
  185.4070  178.1060  137.9750 C   0  0  0  0  0  2  0  0  0  0  0  0
  183.3800  178.3900  139.3840 C   0  0  0  0  0  3  0  0  0  0  0  0
  184.3170  178.9990  143.6930 C   0  0  0  0  0  0  0  0  0  0  0  0
  185.4190  178.9270  142.8840 N   0  0  0  0  0  2  0  0  0  0  0  0
  181.6780  178.8050  143.3520 C   0  0  0  0  0  3  0  0  0  0  0  0
  180.7900  178.5960  142.1170 C   0  0  0  0  0  3  0  0  0  0  0  0
  183.1260  178.9490  142.9630 C   0  0  0  0  0  0  0  0  0  0  0  0
  182.7210  178.6050  140.6040 C   0  0  0  0  0  0  0  0  0  0  0  0
  183.5100  178.8670  141.6790 C   0  0  0  0  0  0  0  0  0  0  0  0
  181.2690  178.4940  140.8530 C   0  0  0  0  0  3  0  0  0  0  0  0
  186.6510  178.8290  137.7610 N   0  0  0  0  0  2  0  0  0  0  0  0
  187.7610  177.9690  138.1680 C   0  0  2  0  0  3  0  0  0  0  0  0
  187.6690  177.5710  139.6480 C   0  0  0  0  0  2  0  0  0  0  0  0
  184.8060  178.4310  139.3160 C   0  0  0  0  0  0  0  0  0  0  0  0
  187.0420  178.6780  140.4850 C   0  0  0  0  0  2  0  0  0  0  0  0
  185.5750  178.6220  140.4660 N   0  0  0  0  0  0  0  0  0  0  0  0
  189.0750  178.6860  137.8940 C   0  0  0  0  0  2  0  0  0  0  0  0
  190.1770  177.7370  137.8770 N   0  0  0  0  0  2  0  0  0  0  0  0
  189.9830  176.8790  136.7210 C   0  0  0  0  0  1  0  0  0  0  0  0
  184.4010  178.9940  145.1820 C   0  0  0  0  0  2  0  0  0  0  0  0
  187.0120  178.2210  147.7180 C   0  0  0  0  0  3  0  0  0  0  0  0
  186.5600  177.7660  144.9100 C   0  0  0  0  0  2  0  0  0  0  0  0
  190.3790  176.8610  146.6840 C   0  0  0  0  0  0  0  0  0  0  0  0
  189.3360  177.3660  147.4730 C   0  0  0  0  0  3  0  0  0  0  0  0
  188.1080  177.6920  146.8920 C   0  0  0  0  0  0  0  0  0  0  0  0
  188.9440  176.9900  144.7250 C   0  0  0  0  0  3  0  0  0  0  0  0
  187.9120  177.5080  145.5110 C   0  0  0  0  0  0  0  0  0  0  0  0
  190.1750  176.6760  145.3080 C   0  0  0  0  0  3  0  0  0  0  0  0
  185.8480  178.9080  145.6410 C   0  0  2  0  0  3  0  0  0  0  0  0
  185.9290  178.7500  147.1410 C   0  0  0  0  0  3  0  0  0  0  0  0
  191.6740  176.5250  147.2990 C   0  0  0  0  0  0  0  0  0  0  0  0
  192.1130  177.1960  148.2700 O   0  0  0  0  0  1  0  0  0  0  0  0
  192.4260  175.4630  146.8090 O   0  0  0  0  0  0  0  0  0  0  0  0
  1 10  2  0  0  0  0
  1  5  1  0  0  0  0
  2 15  1  0  0  0  0
  3  9  1  0  0  0  0
  4 21  1  0  0  0  0
  5  4  1  0  0  0  0
  7  6  2  0  0  0  0
  8  6  1  0  0  0  0
  8  4  2  0  0  0  0
  9 11  2  0  0  0  0
  9 10  1  0  0  0  0
 10  8  1  0  0  0  0
 11  7  1  0  0  0  0
 12  2  1  0  0  0  0
 12 13  1  0  0  0  0
 13 18  1  1  0  0  0
 13 14  1  0  0  0  0
 14 16  1  0  0  0  0
 15  3  2  0  0  0  0
 15 17  1  0  0  0  0
 17 16  1  0  0  0  0
 17  1  1  0  0  0  0
 19 18  1  0  0  0  0
 20 19  1  0  0  0  0
 23 28  1  0  0  0  0
 23 30  1  0  0  0  0
 24 32  1  0  0  0  0
 24 25  1  0  0  0  0
 26 25  2  0  0  0  0
 26 22  1  0  0  0  0
 27 29  1  0  0  0  0
 27 28  2  0  0  0  0
 28 26  1  0  0  0  0
 29 24  2  0  0  0  0
 30 21  1  6  0  0  0
 30 31  1  0  0  0  0
 31 22  2  0  0  0  0
 32 33  1  0  0  0  0
 34 32  2  0  0  0  0
M  END
>  <MODEL>
1

>  <REMARK>
 VINA RESULT:     -11.1      0.000      0.000
  Name = 
  5 active torsions:
  status: ('A' for Active; 'I' for Inactive)
    1  A    between atoms: C_3  and  N_13
    2  A    between atoms: C_3  and  C_25
    3  A    between atoms: C_7  and  C_11
    4  A    between atoms: C_8  and  C_18
    5  A    between atoms: C_18  and  C_30
                            x       y       z     vdW  Elec       q    Type
                         _______ _______ _______ _____ _____    ______ ____

>  <TORSDO>
F 5

$$$$
=
 OpenBabel10262423263D

 34 39  0  0  1  0  0  0  0  0999 V2000
  188.8690  177.4000  142.8330 C   0  0  0  0  0  0  0  0  0  0  0  0
  191.4280  177.0210  140.0970 C   0  0  0  0  0  2  0  0  0  0  0  0
  191.5390  176.7500  142.5650 C   0  0  0  0  0  3  0  0  0  0  0  0
  187.7270  177.7970  144.6110 C   0  0  0  0  0  0  0  0  0  0  0  0
  187.6640  177.8540  143.2450 N   0  0  0  0  0  0  0  0  0  0  0  0
  189.6140  177.2600  146.4190 C   0  0  0  0  0  3  0  0  0  0  0  0
  191.0900  176.8490  146.3080 C   0  0  0  0  0  3  0  0  0  0  0  0
  188.9670  177.3340  145.0610 C   0  0  0  0  0  0  0  0  0  0  0  0
  190.9930  176.7960  143.8560 C   0  0  0  0  0  0  0  0  0  0  0  0
  189.6680  177.0830  143.9430 C   0  0  2  0  0  3  0  0  0  0  0  0
  191.7280  176.6450  145.1290 C   0  0  0  0  0  3  0  0  0  0  0  0
  190.5510  176.5730  139.0260 N   0  0  0  0  0  2  0  0  0  0  0  0
  189.9440  177.7490  138.4040 C   0  0  2  0  0  3  0  0  0  0  0  0
  189.1210  178.5710  139.4060 C   0  0  0  0  0  2  0  0  0  0  0  0
  190.7200  177.0170  141.4250 C   0  0  0  0  0  0  0  0  0  0  0  0
  188.4730  177.6810  140.4580 C   0  0  0  0  0  2  0  0  0  0  0  0
  189.3820  177.3900  141.5730 N   0  0  0  0  0  0  0  0  0  0  0  0
  189.0700  177.3030  137.2420 C   0  0  0  0  0  2  0  0  0  0  0  0
  188.1260  178.3510  136.8860 N   0  0  0  0  0  2  0  0  0  0  0  0
  186.8620  177.7020  136.5830 C   0  0  0  0  0  1  0  0  0  0  0  0
  186.6370  178.3010  145.4960 C   0  0  0  0  0  2  0  0  0  0  0  0
  183.0040  179.0220  145.1320 C   0  0  0  0  0  3  0  0  0  0  0  0
  185.2760  178.5770  143.4180 C   0  0  0  0  0  2  0  0  0  0  0  0
  181.2990  178.7520  141.7740 C   0  0  0  0  0  0  0  0  0  0  0  0
  181.5020  178.9270  143.1490 C   0  0  0  0  0  3  0  0  0  0  0  0
  182.7880  178.8370  143.6890 C   0  0  0  0  0  0  0  0  0  0  0  0
  183.6890  178.4140  141.4750 C   0  0  0  0  0  3  0  0  0  0  0  0
  183.8870  178.5750  142.8490 C   0  0  0  0  0  0  0  0  0  0  0  0
  182.4000  178.4940  140.9410 C   0  0  0  0  0  3  0  0  0  0  0  0
  185.2750  178.0660  144.8620 C   0  0  2  0  0  3  0  0  0  0  0  0
  184.1810  178.7080  145.6820 C   0  0  0  0  0  3  0  0  0  0  0  0
  179.9420  178.8400  141.2110 C   0  0  0  0  0  0  0  0  0  0  0  0
  179.6640  179.7110  140.3450 O   0  0  0  0  0  0  0  0  0  0  0  0
  178.9510  177.9600  141.6330 O   0  0  0  0  0  1  0  0  0  0  0  0
  1  5  2  0  0  0  0
  2 15  1  0  0  0  0
  3  9  1  0  0  0  0
  4  8  2  0  0  0  0
  4 21  1  0  0  0  0
  5  4  1  0  0  0  0
  7  6  2  0  0  0  0
  8  6  1  0  0  0  0
  9 10  1  0  0  0  0
  9 11  2  0  0  0  0
 10  1  1  6  0  0  0
 10  8  1  0  0  0  0
 11  7  1  0  0  0  0
 12  2  1  0  0  0  0
 13 18  1  6  0  0  0
 13 12  1  0  0  0  0
 13 14  1  0  0  0  0
 14 16  1  0  0  0  0
 15 17  1  0  0  0  0
 15  3  2  0  0  0  0
 16 17  1  0  0  0  0
 17  1  1  0  0  0  0
 19 18  1  0  0  0  0
 20 19  1  0  0  0  0
 22 31  2  0  0  0  0
 23 30  1  0  0  0  0
 24 25  1  0  0  0  0
 25 26  2  0  0  0  0
 26 22  1  0  0  0  0
 27 28  2  0  0  0  0
 28 23  1  0  0  0  0
 28 26  1  0  0  0  0
 29 27  1  0  0  0  0
 29 24  2  0  0  0  0
 30 21  1  1  0  0  0
 30 31  1  0  0  0  0
 32 34  1  0  0  0  0
 32 24  1  0  0  0  0
 33 32  2  0  0  0  0
M  END
>  <MODEL>
2

>  <REMARK>
 VINA RESULT:     -10.6      3.956      7.300
  Name = 
  5 active torsions:
  status: ('A' for Active; 'I' for Inactive)
    1  A    between atoms: C_3  and  N_13
    2  A    between atoms: C_3  and  C_25
    3  A    between atoms: C_7  and  C_11
    4  A    between atoms: C_8  and  C_18
    5  A    between atoms: C_18  and  C_30
                            x       y       z     vdW  Elec       q    Type
                         _______ _______ _______ _____ _____    ______ ____

>  <TORSDO>
F 5

$$$$
=
 OpenBabel10262423263D

 34 39  0  0  1  0  0  0  0  0999 V2000
  186.7920  177.9400  143.8860 C   0  0  0  0  0  0  0  0  0  0  0  0
  187.5560  177.7420  147.5680 C   0  0  0  0  0  2  0  0  0  0  0  0
  185.4780  178.2340  146.2970 C   0  0  0  0  0  3  0  0  0  0  0  0
  186.1170  178.3880  141.8940 C   0  0  0  0  0  0  0  0  0  0  0  0
  187.2290  178.0330  142.6100 N   0  0  0  0  0  0  0  0  0  0  0  0
  183.6100  179.0880  142.4760 C   0  0  0  0  0  2  0  0  0  0  0  0
  182.8330  179.2150  143.7940 C   0  0  0  0  0  3  0  0  0  0  0  0
  184.9940  178.5420  142.7110 C   0  0  0  0  0  0  0  0  0  0  0  0
  184.7520  178.4440  145.1150 C   0  0  0  0  0  0  0  0  0  0  0  0
  185.4250  178.2530  143.9500 C   0  0  0  0  0  0  0  0  0  0  0  0
  183.3600  178.9280  145.0100 C   0  0  0  0  0  3  0  0  0  0  0  0
  188.6000  176.7300  147.5290 N   0  0  0  0  0  2  0  0  0  0  0  0
  189.8690  177.3880  147.2200 C   0  0  2  0  0  3  0  0  0  0  0  0
  189.8300  178.1100  145.8660 C   0  0  0  0  0  2  0  0  0  0  0  0
  186.8550  177.8610  146.2410 C   0  0  0  0  0  0  0  0  0  0  0  0
  188.9350  177.3820  144.8720 C   0  0  0  0  0  2  0  0  0  0  0  0
  187.5240  177.7590  145.0180 N   0  0  0  0  0  0  0  0  0  0  0  0
  190.9840  176.3530  147.2360 C   0  0  0  0  0  2  0  0  0  0  0  0
  192.1200  176.8420  148.0020 N   0  0  0  0  0  2  0  0  0  0  0  0
  192.9250  175.6870  148.3570 C   0  0  0  0  0  1  0  0  0  0  0  0
  186.1560  178.6990  140.4350 C   0  0  0  0  0  2  0  0  0  0  0  0
  188.1010  177.6970  137.4250 C   0  0  0  0  0  3  0  0  0  0  0  0
  188.6070  178.2720  140.2020 C   0  0  0  0  0  2  0  0  0  0  0  0
  191.6980  176.5890  137.7190 C   0  0  0  0  0  0  0  0  0  0  0  0
  190.4380  176.8770  137.1790 C   0  0  0  0  0  3  0  0  0  0  0  0
  189.4240  177.3910  137.9910 C   0  0  0  0  0  0  0  0  0  0  0  0
  190.9280  177.3550  139.8950 C   0  0  0  0  0  3  0  0  0  0  0  0
  189.6680  177.6270  139.3570 C   0  0  0  0  0  0  0  0  0  0  0  0
  191.9360  176.8300  139.0820 C   0  0  0  0  0  3  0  0  0  0  0  0
  187.2090  177.8570  139.7320 C   0  0  2  0  0  3  0  0  0  0  0  0
  187.0690  177.9620  138.2320 C   0  0  0  0  0  3  0  0  0  0  0  0
  192.7620  176.0400  136.8620 C   0  0  0  0  0  0  0  0  0  0  0  0
  192.5460  175.0280  136.1440 O   0  0  0  0  0  0  0  0  0  0  0  0
  194.0180  176.6360  136.8370 O   0  0  0  0  0  1  0  0  0  0  0  0
  1 10  1  0  0  0  0
  1 17  1  0  0  0  0
  4  5  1  0  0  0  0
  4  8  2  0  0  0  0
  5  1  2  0  0  0  0
  6  8  1  0  0  0  0
  6  7  1  0  0  0  0
  7 11  2  0  0  0  0
  8 10  1  0  0  0  0
  9  3  1  0  0  0  0
 10  9  2  0  0  0  0
 11  9  1  0  0  0  0
 12  2  1  0  0  0  0
 13 18  1  6  0  0  0
 13 12  1  0  0  0  0
 14 13  1  0  0  0  0
 15  3  2  0  0  0  0
 15  2  1  0  0  0  0
 16 17  1  0  0  0  0
 16 14  1  0  0  0  0
 17 15  1  0  0  0  0
 18 19  1  0  0  0  0
 19 20  1  0  0  0  0
 21  4  1  0  0  0  0
 22 26  1  0  0  0  0
 22 31  2  0  0  0  0
 24 29  1  0  0  0  0
 25 24  2  0  0  0  0
 25 26  1  0  0  0  0
 26 28  2  0  0  0  0
 28 27  1  0  0  0  0
 28 23  1  0  0  0  0
 29 27  2  0  0  0  0
 30 23  1  0  0  0  0
 30 21  1  1  0  0  0
 31 30  1  0  0  0  0
 32 24  1  0  0  0  0
 33 32  2  0  0  0  0
 34 32  1  0  0  0  0
M  END
>  <MODEL>
3

>  <REMARK>
 VINA RESULT:     -10.5      3.446      7.575
  Name = 
  5 active torsions:
  status: ('A' for Active; 'I' for Inactive)
    1  A    between atoms: C_3  and  N_13
    2  A    between atoms: C_3  and  C_25
    3  A    between atoms: C_7  and  C_11
    4  A    between atoms: C_8  and  C_18
    5  A    between atoms: C_18  and  C_30
                            x       y       z     vdW  Elec       q    Type
                         _______ _______ _______ _____ _____    ______ ____

>  <TORSDO>
F 5

$$$$
=
 OpenBabel10262423263D

 34 39  0  0  1  0  0  0  0  0999 V2000
  187.8920  177.5900  144.2920 C   0  0  0  0  0  0  0  0  0  0  0  0
  191.3940  176.8940  143.0980 C   0  0  0  0  0  2  0  0  0  0  0  0
  190.3980  177.1410  145.3610 C   0  0  0  0  0  3  0  0  0  0  0  0
  186.0840  178.2350  145.2610 C   0  0  0  0  0  0  0  0  0  0  0  0
  186.6340  178.0090  144.0280 N   0  0  0  0  0  0  0  0  0  0  0  0
  186.9700  178.2480  147.7770 C   0  0  0  0  0  3  0  0  0  0  0  0
  188.3380  177.9560  148.4120 C   0  0  0  0  0  3  0  0  0  0  0  0
  186.9920  177.9860  146.2940 C   0  0  0  0  0  0  0  0  0  0  0  0
  189.3370  177.3980  146.2420 C   0  0  0  0  0  0  0  0  0  0  0  0
  188.1130  177.5770  145.6780 C   0  0  2  0  0  3  0  0  0  0  0  0
  189.4300  177.5750  147.7060 C   0  0  0  0  0  3  0  0  0  0  0  0
  191.0780  176.1610  141.8810 N   0  0  0  0  0  2  0  0  0  0  0  0
  190.8220  177.1270  140.8140 C   0  0  2  0  0  3  0  0  0  0  0  0
  189.6480  178.0590  141.1490 C   0  0  0  0  0  2  0  0  0  0  0  0
  190.1720  177.0960  143.9510 C   0  0  0  0  0  0  0  0  0  0  0  0
  188.5920  177.3460  141.9840 C   0  0  0  0  0  2  0  0  0  0  0  0
  188.9100  177.3700  143.4170 N   0  0  0  0  0  0  0  0  0  0  0  0
  190.5490  176.3780  139.5180 C   0  0  0  0  0  2  0  0  0  0  0  0
  189.7420  177.1930  138.6220 N   0  0  0  0  0  2  0  0  0  0  0  0
  190.2090  176.9320  137.2720 C   0  0  0  0  0  1  0  0  0  0  0  0
  184.7200  178.8090  145.4490 C   0  0  0  0  0  2  0  0  0  0  0  0
  181.5230  179.0030  143.5540 C   0  0  0  0  0  3  0  0  0  0  0  0
  184.3420  178.8400  142.9790 C   0  0  0  0  0  2  0  0  0  0  0  0
  181.4390  178.4140  139.8250 C   0  0  0  0  0  0  0  0  0  0  0  0
  181.0210  178.6490  141.1420 C   0  0  0  0  0  3  0  0  0  0  0  0
  181.9600  178.7540  142.1710 C   0  0  0  0  0  0  0  0  0  0  0  0
  183.7530  178.4090  140.5730 C   0  0  0  0  0  3  0  0  0  0  0  0
  183.3330  178.6290  141.8870 C   0  0  0  0  0  0  0  0  0  0  0  0
  182.8100  178.2930  139.5480 C   0  0  0  0  0  3  0  0  0  0  0  0
  183.7910  178.3690  144.3290 C   0  0  2  0  0  3  0  0  0  0  0  0
  182.3860  178.8700  144.5660 C   0  0  0  0  0  3  0  0  0  0  0  0
  180.4460  178.2960  138.7450 C   0  0  0  0  0  0  0  0  0  0  0  0
  179.7480  177.2550  138.6280 O   0  0  0  0  0  1  0  0  0  0  0  0
  180.2710  179.3380  137.8400 O   0  0  0  0  0  0  0  0  0  0  0  0
  2 15  1  0  0  0  0
  3  9  1  0  0  0  0
  4 21  1  0  0  0  0
  4  8  2  0  0  0  0
  5  1  2  0  0  0  0
  5  4  1  0  0  0  0
  6  7  2  0  0  0  0
  8  6  1  0  0  0  0
  9 11  2  0  0  0  0
 10  1  1  6  0  0  0
 10  9  1  0  0  0  0
 10  8  1  0  0  0  0
 11  7  1  0  0  0  0
 12  2  1  0  0  0  0
 13 18  1  6  0  0  0
 13 14  1  0  0  0  0
 13 12  1  0  0  0  0
 14 16  1  0  0  0  0
 15  3  2  0  0  0  0
 16 17  1  0  0  0  0
 17 15  1  0  0  0  0
 17  1  1  0  0  0  0
 19 18  1  0  0  0  0
 20 19  1  0  0  0  0
 22 31  2  0  0  0  0
 23 30  1  0  0  0  0
 24 25  1  0  0  0  0
 25 26  2  0  0  0  0
 26 22  1  0  0  0  0
 27 28  2  0  0  0  0
 28 26  1  0  0  0  0
 28 23  1  0  0  0  0
 29 24  2  0  0  0  0
 29 27  1  0  0  0  0
 30 31  1  0  0  0  0
 30 21  1  1  0  0  0
 32 24  1  0  0  0  0
 33 32  1  0  0  0  0
 34 32  2  0  0  0  0
M  END
>  <MODEL>
4

>  <REMARK>
 VINA RESULT:     -10.3      4.115      7.643
  Name = 
  5 active torsions:
  status: ('A' for Active; 'I' for Inactive)
    1  A    between atoms: C_3  and  N_13
    2  A    between atoms: C_3  and  C_25
    3  A    between atoms: C_7  and  C_11
    4  A    between atoms: C_8  and  C_18
    5  A    between atoms: C_18  and  C_30
                            x       y       z     vdW  Elec       q    Type
                         _______ _______ _______ _____ _____    ______ ____

>  <TORSDO>
F 5

$$$$
=
 OpenBabel10262423263D

 34 39  0  0  1  0  0  0  0  0999 V2000
  187.8130  177.5910  144.0680 C   0  0  0  0  0  0  0  0  0  0  0  0
  191.2010  177.0930  142.5020 C   0  0  0  0  0  2  0  0  0  0  0  0
  190.4270  177.1950  144.8610 C   0  0  0  0  0  3  0  0  0  0  0  0
  186.0890  178.1180  145.2400 C   0  0  0  0  0  0  0  0  0  0  0  0
  186.5210  177.9700  143.9490 N   0  0  0  0  0  0  0  0  0  0  0  0
  187.2210  178.0500  147.6550 C   0  0  0  0  0  3  0  0  0  0  0  0
  188.6550  177.7850  148.1370 C   0  0  0  0  0  3  0  0  0  0  0  0
  187.1040  177.8580  146.1660 C   0  0  0  0  0  0  0  0  0  0  0  0
  189.4510  177.3690  145.8540 C   0  0  0  0  0  0  0  0  0  0  0  0
  188.1720  177.5240  145.4230 C   0  0  2  0  0  3  0  0  0  0  0  0
  189.6840  177.4810  147.3090 C   0  0  0  0  0  3  0  0  0  0  0  0
  190.7910  176.4050  141.2880 N   0  0  0  0  0  2  0  0  0  0  0  0
  190.3950  177.4080  140.3000 C   0  0  2  0  0  3  0  0  0  0  0  0
  189.2280  178.2750  140.7950 C   0  0  0  0  0  2  0  0  0  0  0  0
  190.0630  177.2060  143.4810 C   0  0  0  0  0  0  0  0  0  0  0  0
  188.2870  177.4820  141.6930 C   0  0  0  0  0  2  0  0  0  0  0  0
  188.7460  177.4530  143.0870 N   0  0  0  0  0  0  0  0  0  0  0  0
  190.0210  176.7090  139.0020 C   0  0  0  0  0  2  0  0  0  0  0  0
  190.9530  175.6270  138.7220 N   0  0  0  0  0  2  0  0  0  0  0  0
  191.9270  176.1380  137.7730 C   0  0  0  0  0  1  0  0  0  0  0  0
  184.7310  178.6260  145.5900 C   0  0  0  0  0  2  0  0  0  0  0  0
  183.7450  178.1960  142.0270 C   0  0  0  0  0  3  0  0  0  0  0  0
  182.4740  178.8280  144.5350 C   0  0  0  0  0  2  0  0  0  0  0  0
  180.3060  179.1970  140.8310 C   0  0  0  0  0  0  0  0  0  0  0  0
  181.6350  178.7520  140.8290 C   0  0  0  0  0  3  0  0  0  0  0  0
  182.3500  178.6640  142.0260 C   0  0  0  0  0  0  0  0  0  0  0  0
  180.4050  179.4480  143.2480 C   0  0  0  0  0  3  0  0  0  0  0  0
  181.7340  179.0180  143.2420 C   0  0  0  0  0  0  0  0  0  0  0  0
  179.6960  179.5450  142.0470 C   0  0  0  0  0  3  0  0  0  0  0  0
  183.9770  179.0550  144.3400 C   0  0  2  0  0  3  0  0  0  0  0  0
  184.5000  178.3320  143.1220 C   0  0  0  0  0  3  0  0  0  0  0  0
  179.5580  179.2950  139.5670 C   0  0  0  0  0  0  0  0  0  0  0  0
  179.4780  180.3930  138.9550 O   0  0  0  0  0  0  0  0  0  0  0  0
  178.9320  178.1730  139.0360 O   0  0  0  0  0  1  0  0  0  0  0  0
  2 15  1  0  0  0  0
  3  9  1  0  0  0  0
  4 21  1  0  0  0  0
  4  8  2  0  0  0  0
  5  1  2  0  0  0  0
  5  4  1  0  0  0  0
  6  7  2  0  0  0  0
  8  6  1  0  0  0  0
  9 11  2  0  0  0  0
 10  1  1  6  0  0  0
 10  9  1  0  0  0  0
 10  8  1  0  0  0  0
 11  7  1  0  0  0  0
 12  2  1  0  0  0  0
 13 18  1  6  0  0  0
 13 14  1  0  0  0  0
 13 12  1  0  0  0  0
 14 16  1  0  0  0  0
 15  3  2  0  0  0  0
 16 17  1  0  0  0  0
 17 15  1  0  0  0  0
 17  1  1  0  0  0  0
 19 18  1  0  0  0  0
 20 19  1  0  0  0  0
 22 31  2  0  0  0  0
 24 29  1  0  0  0  0
 25 24  2  0  0  0  0
 25 26  1  0  0  0  0
 26 22  1  0  0  0  0
 26 28  2  0  0  0  0
 28 27  1  0  0  0  0
 28 23  1  0  0  0  0
 29 27  2  0  0  0  0
 30 23  1  0  0  0  0
 30 21  1  1  0  0  0
 31 30  1  0  0  0  0
 32 24  1  0  0  0  0
 33 32  2  0  0  0  0
 34 32  1  0  0  0  0
M  END
>  <MODEL>
5

>  <REMARK>
 VINA RESULT:     -10.1      4.343      7.796
  Name = 
  5 active torsions:
  status: ('A' for Active; 'I' for Inactive)
    1  A    between atoms: C_3  and  N_13
    2  A    between atoms: C_3  and  C_25
    3  A    between atoms: C_7  and  C_11
    4  A    between atoms: C_8  and  C_18
    5  A    between atoms: C_18  and  C_30
                            x       y       z     vdW  Elec       q    Type
                         _______ _______ _______ _____ _____    ______ ____

>  <TORSDO>
F 5

$$$$
=
 OpenBabel10262423263D

 34 39  0  0  1  0  0  0  0  0999 V2000
  186.9840  177.9700  138.8530 C   0  0  0  0  0  0  0  0  0  0  0  0
  189.4970  176.2980  136.6030 C   0  0  0  0  0  2  0  0  0  0  0  0
  187.0740  176.7900  136.3580 C   0  0  0  0  0  3  0  0  0  0  0  0
  185.2860  178.6190  140.0010 C   0  0  0  0  0  0  0  0  0  0  0  0
  186.6380  178.4190  140.0800 N   0  0  0  0  0  2  0  0  0  0  0  0
  183.3810  178.1290  138.1980 C   0  0  0  0  0  3  0  0  0  0  0  0
  183.4000  177.5220  136.7880 C   0  0  0  0  0  3  0  0  0  0  0  0
  184.7770  178.2780  138.7440 C   0  0  0  0  0  0  0  0  0  0  0  0
  185.8410  177.2750  136.8190 C   0  0  0  0  0  0  0  0  0  0  0  0
  185.8460  177.8810  138.0350 C   0  0  0  0  0  0  0  0  0  0  0  0
  184.5300  177.1200  136.1560 C   0  0  0  0  0  3  0  0  0  0  0  0
  190.6870  177.0340  137.0050 N   0  0  0  0  0  2  0  0  0  0  0  0
  191.2310  176.4080  138.2090 C   0  0  2  0  0  3  0  0  0  0  0  0
  190.2260  176.4210  139.3700 C   0  0  0  0  0  2  0  0  0  0  0  0
  188.2480  176.9260  137.1600 C   0  0  0  0  0  0  0  0  0  0  0  0
  189.3400  177.6600  139.3270 C   0  0  0  0  0  2  0  0  0  0  0  0
  188.1850  177.4830  138.4390 N   0  0  0  0  0  0  0  0  0  0  0  0
  192.5100  177.1270  138.6100 C   0  0  0  0  0  2  0  0  0  0  0  0
  193.6090  176.7270  137.7450 N   0  0  0  0  0  2  0  0  0  0  0  0
  193.6530  175.2750  137.7540 C   0  0  0  0  0  1  0  0  0  0  0  0
  184.4550  179.0270  141.1710 C   0  0  0  0  0  2  0  0  0  0  0  0
  184.8880  179.0070  144.8670 C   0  0  0  0  0  3  0  0  0  0  0  0
  186.1970  177.8900  142.5570 C   0  0  0  0  0  2  0  0  0  0  0  0
  188.0310  177.6320  146.4450 C   0  0  0  0  0  0  0  0  0  0  0  0
  186.7810  178.2480  146.2940 C   0  0  0  0  0  3  0  0  0  0  0  0
  186.2010  178.3620  145.0280 C   0  0  0  0  0  0  0  0  0  0  0  0
  188.1070  177.2250  144.0490 C   0  0  0  0  0  3  0  0  0  0  0  0
  186.8690  177.8520  143.8990 C   0  0  0  0  0  0  0  0  0  0  0  0
  188.6900  177.1220  145.3160 C   0  0  0  0  0  3  0  0  0  0  0  0
  185.3060  179.1290  142.4270 C   0  0  2  0  0  3  0  0  0  0  0  0
  184.4410  179.3280  143.6490 C   0  0  0  0  0  3  0  0  0  0  0  0
  188.6420  177.5200  147.7800 C   0  0  0  0  0  0  0  0  0  0  0  0
  187.9300  177.5800  148.8170 O   0  0  0  0  0  1  0  0  0  0  0  0
  190.0160  177.3470  147.9070 O   0  0  0  0  0  0  0  0  0  0  0  0
  1  5  1  0  0  0  0
  2 12  1  0  0  0  0
  2 15  1  0  0  0  0
  3  9  1  0  0  0  0
  3 15  2  0  0  0  0
  4  5  1  0  0  0  0
  4 21  1  0  0  0  0
  6  8  1  0  0  0  0
  7  6  2  0  0  0  0
  8  4  2  0  0  0  0
  9 10  1  0  0  0  0
 10  8  1  0  0  0  0
 10  1  2  0  0  0  0
 11  7  1  0  0  0  0
 11  9  2  0  0  0  0
 12 13  1  0  0  0  0
 13 18  1  1  0  0  0
 13 14  1  0  0  0  0
 15 17  1  0  0  0  0
 16 14  1  0  0  0  0
 17  1  1  0  0  0  0
 17 16  1  0  0  0  0
 19 20  1  0  0  0  0
 19 18  1  0  0  0  0
 22 26  1  0  0  0  0
 23 28  1  0  0  0  0
 24 32  1  0  0  0  0
 25 24  1  0  0  0  0
 26 25  2  0  0  0  0
 27 29  1  0  0  0  0
 28 27  2  0  0  0  0
 28 26  1  0  0  0  0
 29 24  2  0  0  0  0
 30 21  1  6  0  0  0
 30 23  1  0  0  0  0
 30 31  1  0  0  0  0
 31 22  2  0  0  0  0
 32 34  2  0  0  0  0
 32 33  1  0  0  0  0
M  END
>  <MODEL>
6

>  <REMARK>
 VINA RESULT:      -9.7      1.877      3.861
  Name = 
  5 active torsions:
  status: ('A' for Active; 'I' for Inactive)
    1  A    between atoms: C_3  and  N_13
    2  A    between atoms: C_3  and  C_25
    3  A    between atoms: C_7  and  C_11
    4  A    between atoms: C_8  and  C_18
    5  A    between atoms: C_18  and  C_30
                            x       y       z     vdW  Elec       q    Type
                         _______ _______ _______ _____ _____    ______ ____

>  <TORSDO>
F 5

$$$$
=
 OpenBabel10262423263D

 34 39  0  0  1  0  0  0  0  0999 V2000
  192.1440  175.3110  137.6900 C   0  0  0  0  0  0  0  0  0  0  0  0
  194.4180  172.5690  136.4720 C   0  0  0  0  0  2  0  0  0  0  0  0
  191.9930  173.0120  136.1680 C   0  0  0  0  0  3  0  0  0  0  0  0
  190.5660  176.5620  138.4440 C   0  0  0  0  0  0  0  0  0  0  0  0
  191.9160  176.3480  138.5260 N   0  0  0  0  0  2  0  0  0  0  0  0
  188.5010  175.3310  137.2870 C   0  0  0  0  0  3  0  0  0  0  0  0
  188.3840  174.0850  136.3970 C   0  0  0  0  0  3  0  0  0  0  0  0
  189.9420  175.6540  137.5830 C   0  0  0  0  0  0  0  0  0  0  0  0
  190.8140  173.7390  136.3910 C   0  0  0  0  0  0  0  0  0  0  0  0
  190.9370  174.8840  137.1130 C   0  0  0  0  0  0  0  0  0  0  0  0
  189.4470  173.3460  135.9920 C   0  0  0  0  0  3  0  0  0  0  0  0
  195.6520  173.3310  136.3550 N   0  0  0  0  0  2  0  0  0  0  0  0
  196.2890  173.3830  137.6710 C   0  0  2  0  0  3  0  0  0  0  0  0
  195.3900  174.0530  138.7200 C   0  0  0  0  0  2  0  0  0  0  0  0
  193.2350  173.4690  136.7040 C   0  0  0  0  0  0  0  0  0  0  0  0
  194.5270  175.1440  138.1000 C   0  0  0  0  0  2  0  0  0  0  0  0
  193.2950  174.6080  137.5110 N   0  0  0  0  0  0  0  0  0  0  0  0
  197.6110  174.1250  137.5550 C   0  0  0  0  0  2  0  0  0  0  0  0
  197.7970  175.0100  138.6950 N   0  0  0  0  0  2  0  0  0  0  0  0
  199.1800  174.8780  139.1180 C   0  0  0  0  0  1  0  0  0  0  0  0
  189.8500  177.5630  139.2860 C   0  0  0  0  0  2  0  0  0  0  0  0
  191.2620  177.6520  142.7280 C   0  0  0  0  0  3  0  0  0  0  0  0
  188.6680  177.7750  141.4780 C   0  0  0  0  0  2  0  0  0  0  0  0
  189.0190  177.3790  145.7530 C   0  0  0  0  0  0  0  0  0  0  0  0
  190.1680  177.4660  144.9560 C   0  0  0  0  0  3  0  0  0  0  0  0
  190.0560  177.5600  143.5670 C   0  0  0  0  0  0  0  0  0  0  0  0
  187.6380  177.5030  143.7550 C   0  0  0  0  0  3  0  0  0  0  0  0
  188.7850  177.5740  142.9620 C   0  0  0  0  0  0  0  0  0  0  0  0
  187.7540  177.3980  145.1440 C   0  0  0  0  0  3  0  0  0  0  0  0
  189.8590  177.1460  140.7480 C   0  0  2  0  0  3  0  0  0  0  0  0
  191.1720  177.5060  141.4020 C   0  0  0  0  0  3  0  0  0  0  0  0
  189.1410  177.2730  147.2160 C   0  0  0  0  0  0  0  0  0  0  0  0
  190.2700  177.1240  147.7540 O   0  0  0  0  0  0  0  0  0  0  0  0
  188.0070  177.3350  148.0190 O   0  0  0  0  0  1  0  0  0  0  0  0
  1  5  1  0  0  0  0
  2 15  1  0  0  0  0
  3  9  1  0  0  0  0
  3 15  2  0  0  0  0
  4  5  1  0  0  0  0
  4 21  1  0  0  0  0
  6  8  1  0  0  0  0
  7  6  2  0  0  0  0
  8  4  2  0  0  0  0
  9 10  1  0  0  0  0
 10  8  1  0  0  0  0
 10  1  2  0  0  0  0
 11  9  2  0  0  0  0
 11  7  1  0  0  0  0
 12  2  1  0  0  0  0
 12 13  1  0  0  0  0
 13 18  1  6  0  0  0
 13 14  1  0  0  0  0
 15 17  1  0  0  0  0
 16 14  1  0  0  0  0
 17  1  1  0  0  0  0
 17 16  1  0  0  0  0
 18 19  1  0  0  0  0
 19 20  1  0  0  0  0
 22 26  1  0  0  0  0
 23 28  1  0  0  0  0
 24 32  1  0  0  0  0
 25 24  2  0  0  0  0
 26 25  1  0  0  0  0
 27 29  2  0  0  0  0
 28 26  2  0  0  0  0
 28 27  1  0  0  0  0
 29 24  1  0  0  0  0
 30 21  1  6  0  0  0
 30 31  1  0  0  0  0
 30 23  1  0  0  0  0
 31 22  2  0  0  0  0
 32 33  2  0  0  0  0
 32 34  1  0  0  0  0
M  END
>  <MODEL>
7

>  <REMARK>
 VINA RESULT:      -9.2      4.310      7.970
  Name = 
  5 active torsions:
  status: ('A' for Active; 'I' for Inactive)
    1  A    between atoms: C_3  and  N_13
    2  A    between atoms: C_3  and  C_25
    3  A    between atoms: C_7  and  C_11
    4  A    between atoms: C_8  and  C_18
    5  A    between atoms: C_18  and  C_30
                            x       y       z     vdW  Elec       q    Type
                         _______ _______ _______ _____ _____    ______ ____

>  <TORSDO>
F 5

$$$$
=
 OpenBabel10262423263D

 34 39  0  0  1  0  0  0  0  0999 V2000
  184.0310  178.2780  139.6440 C   0  0  0  0  0  0  0  0  0  0  0  0
  185.1950  176.9400  136.3220 C   0  0  0  0  0  2  0  0  0  0  0  0
  182.9530  177.1310  137.3750 C   0  0  0  0  0  3  0  0  0  0  0  0
  183.1040  178.7070  141.5350 C   0  0  0  0  0  0  0  0  0  0  0  0
  184.3180  178.6740  140.9030 N   0  0  0  0  0  2  0  0  0  0  0  0
  180.6070  177.9950  140.9200 C   0  0  0  0  0  3  0  0  0  0  0  0
  179.9640  177.4020  139.6580 C   0  0  0  0  0  3  0  0  0  0  0  0
  182.0620  178.3120  140.6910 C   0  0  0  0  0  0  0  0  0  0  0  0
  182.0870  177.4570  138.4300 C   0  0  0  0  0  0  0  0  0  0  0  0
  182.6510  178.0540  139.5130 C   0  0  0  0  0  0  0  0  0  0  0  0
  180.6450  177.1450  138.5150 C   0  0  0  0  0  3  0  0  0  0  0  0
  186.3390  177.8140  136.1130 N   0  0  0  0  0  2  0  0  0  0  0  0
  187.4850  177.2540  136.8300 C   0  0  2  0  0  3  0  0  0  0  0  0
  187.2210  177.1370  138.3380 C   0  0  0  0  0  2  0  0  0  0  0  0
  184.3500  177.4060  137.4770 C   0  0  0  0  0  0  0  0  0  0  0  0
  186.3160  178.2570  138.8330 C   0  0  0  0  0  2  0  0  0  0  0  0
  184.8940  177.9440  138.6460 N   0  0  0  0  0  0  0  0  0  0  0  0
  188.7070  178.1230  136.5730 C   0  0  0  0  0  2  0  0  0  0  0  0
  189.6610  177.9920  137.6640 N   0  0  0  0  0  2  0  0  0  0  0  0
  190.6360  176.9940  137.2600 C   0  0  0  0  0  1  0  0  0  0  0  0
  182.9530  179.0030  142.9900 C   0  0  0  0  0  2  0  0  0  0  0  0
  185.1480  178.6210  145.9700 C   0  0  0  0  0  3  0  0  0  0  0  0
  185.1750  177.8750  143.1870 C   0  0  0  0  0  2  0  0  0  0  0  0
  188.6890  177.3570  145.6230 C   0  0  0  0  0  0  0  0  0  0  0  0
  187.5130  177.8760  146.1820 C   0  0  0  0  0  3  0  0  0  0  0  0
  186.3840  178.0770  145.3850 C   0  0  0  0  0  0  0  0  0  0  0  0
  187.5860  177.2190  143.4600 C   0  0  0  0  0  3  0  0  0  0  0  0
  186.4210  177.7510  144.0170 C   0  0  0  0  0  0  0  0  0  0  0  0
  188.7180  177.0300  144.2580 C   0  0  0  0  0  3  0  0  0  0  0  0
  184.3090  179.0410  143.6760 C   0  0  2  0  0  3  0  0  0  0  0  0
  184.1520  179.0320  145.1780 C   0  0  0  0  0  3  0  0  0  0  0  0
  189.8800  177.1540  146.4640 C   0  0  0  0  0  0  0  0  0  0  0  0
  189.8120  177.3000  147.7140 O   0  0  0  0  0  1  0  0  0  0  0  0
  191.0930  176.7990  145.8850 O   0  0  0  0  0  0  0  0  0  0  0  0
  1  5  1  0  0  0  0
  2 15  1  0  0  0  0
  3 15  2  0  0  0  0
  3  9  1  0  0  0  0
  4 21  1  0  0  0  0
  5  4  1  0  0  0  0
  7  6  2  0  0  0  0
  8  6  1  0  0  0  0
  8  4  2  0  0  0  0
  9 11  2  0  0  0  0
  9 10  1  0  0  0  0
 10  1  2  0  0  0  0
 10  8  1  0  0  0  0
 11  7  1  0  0  0  0
 12  2  1  0  0  0  0
 12 13  1  0  0  0  0
 13 18  1  1  0  0  0
 13 14  1  0  0  0  0
 14 16  1  0  0  0  0
 15 17  1  0  0  0  0
 17 16  1  0  0  0  0
 17  1  1  0  0  0  0
 18 19  1  0  0  0  0
 20 19  1  0  0  0  0
 23 30  1  0  0  0  0
 23 28  1  0  0  0  0
 24 25  1  0  0  0  0
 24 32  1  0  0  0  0
 26 22  1  0  0  0  0
 26 25  2  0  0  0  0
 27 28  2  0  0  0  0
 27 29  1  0  0  0  0
 28 26  1  0  0  0  0
 29 24  2  0  0  0  0
 30 21  1  6  0  0  0
 30 31  1  0  0  0  0
 31 22  2  0  0  0  0
 32 33  1  0  0  0  0
 34 32  2  0  0  0  0
M  END
>  <MODEL>
8

>  <REMARK>
 VINA RESULT:      -9.2      1.411      2.207
  Name = 
  5 active torsions:
  status: ('A' for Active; 'I' for Inactive)
    1  A    between atoms: C_3  and  N_13
    2  A    between atoms: C_3  and  C_25
    3  A    between atoms: C_7  and  C_11
    4  A    between atoms: C_8  and  C_18
    5  A    between atoms: C_18  and  C_30
                            x       y       z     vdW  Elec       q    Type
                         _______ _______ _______ _____ _____    ______ ____

>  <TORSDO>
F 5

$$$$
=
 OpenBabel10262423263D

 34 39  0  0  1  0  0  0  0  0999 V2000
  185.5970  177.9640  138.2910 C   0  0  0  0  0  0  0  0  0  0  0  0
  182.0020  178.0500  137.1740 C   0  0  0  0  0  2  0  0  0  0  0  0
  183.9960  176.8100  136.3590 C   0  0  0  0  0  3  0  0  0  0  0  0
  187.7350  177.9070  138.5120 C   0  0  0  0  0  0  0  0  0  0  0  0
  186.6080  178.5120  139.0000 N   0  0  0  0  0  2  0  0  0  0  0  0
  188.2930  176.2360  136.5080 C   0  0  0  0  0  3  0  0  0  0  0  0
  187.4270  175.5380  135.4490 C   0  0  0  0  0  3  0  0  0  0  0  0
  187.4420  177.0020  137.4870 C   0  0  0  0  0  0  0  0  0  0  0  0
  185.3600  176.4810  136.3740 C   0  0  0  0  0  0  0  0  0  0  0  0
  186.1060  177.0410  137.3620 C   0  0  0  0  0  0  0  0  0  0  0  0
  186.0780  175.6580  135.3800 C   0  0  0  0  0  3  0  0  0  0  0  0
  181.3700  178.3010  138.4600 N   0  0  0  0  0  2  0  0  0  0  0  0
  181.4070  179.7400  138.7190 C   0  0  2  0  0  3  0  0  0  0  0  0
  182.8430  180.2830  138.7580 C   0  0  0  0  0  2  0  0  0  0  0  0
  183.4580  177.7050  137.3340 C   0  0  0  0  0  0  0  0  0  0  0  0
  183.8140  179.2490  139.3130 C   0  0  0  0  0  2  0  0  0  0  0  0
  184.2840  178.3190  138.2790 N   0  0  0  0  0  0  0  0  0  0  0  0
  180.6960  180.0290  140.0320 C   0  0  0  0  0  2  0  0  0  0  0  0
  180.4960  178.7980  140.7820 N   0  0  0  0  0  2  0  0  0  0  0  0
  181.1420  178.9730  142.0710 C   0  0  0  0  0  1  0  0  0  0  0  0
  189.1120  178.2820  138.9450 C   0  0  0  0  0  2  0  0  0  0  0  0
  191.5020  177.4070  141.6600 C   0  0  0  0  0  3  0  0  0  0  0  0
  188.7900  178.3490  141.4230 C   0  0  0  0  0  2  0  0  0  0  0  0
  190.3440  177.1000  145.2410 C   0  0  0  0  0  0  0  0  0  0  0  0
  191.1600  177.0670  144.1020 C   0  0  0  0  0  3  0  0  0  0  0  0
  190.6470  177.4400  142.8570 C   0  0  0  0  0  0  0  0  0  0  0  0
  188.4960  177.9040  143.8800 C   0  0  0  0  0  3  0  0  0  0  0  0
  189.3080  177.8560  142.7440 C   0  0  0  0  0  0  0  0  0  0  0  0
  189.0100  177.5200  145.1220 C   0  0  0  0  0  3  0  0  0  0  0  0
  189.4650  177.6110  140.2630 C   0  0  2  0  0  3  0  0  0  0  0  0
  190.9620  177.5330  140.4430 C   0  0  0  0  0  3  0  0  0  0  0  0
  190.8870  176.7000  146.5490 C   0  0  0  0  0  0  0  0  0  0  0  0
  190.1380  176.6390  147.5600 O   0  0  0  0  0  1  0  0  0  0  0  0
  192.2350  176.3860  146.6810 O   0  0  0  0  0  0  0  0  0  0  0  0
  1  5  1  0  0  0  0
  2 15  1  0  0  0  0
  2 12  1  0  0  0  0
  3  9  1  0  0  0  0
  3 15  2  0  0  0  0
  4 21  1  0  0  0  0
  4  5  1  0  0  0  0
  6  8  1  0  0  0  0
  7  6  2  0  0  0  0
  8  4  2  0  0  0  0
  9 10  1  0  0  0  0
 10  8  1  0  0  0  0
 10  1  2  0  0  0  0
 11  7  1  0  0  0  0
 11  9  2  0  0  0  0
 12 13  1  0  0  0  0
 13 14  1  0  0  0  0
 13 18  1  1  0  0  0
 14 16  1  0  0  0  0
 15 17  1  0  0  0  0
 17  1  1  0  0  0  0
 17 16  1  0  0  0  0
 18 19  1  0  0  0  0
 19 20  1  0  0  0  0
 22 26  1  0  0  0  0
 23 28  1  0  0  0  0
 24 32  1  0  0  0  0
 25 24  2  0  0  0  0
 26 25  1  0  0  0  0
 27 29  2  0  0  0  0
 28 26  2  0  0  0  0
 28 27  1  0  0  0  0
 29 24  1  0  0  0  0
 30 21  1  6  0  0  0
 30 31  1  0  0  0  0
 30 23  1  0  0  0  0
 31 22  2  0  0  0  0
 32 34  2  0  0  0  0
 32 33  1  0  0  0  0
M  END
>  <MODEL>
9

>  <REMARK>
 VINA RESULT:      -9.2      2.311      5.920
  Name = 
  5 active torsions:
  status: ('A' for Active; 'I' for Inactive)
    1  A    between atoms: C_3  and  N_13
    2  A    between atoms: C_3  and  C_25
    3  A    between atoms: C_7  and  C_11
    4  A    between atoms: C_8  and  C_18
    5  A    between atoms: C_18  and  C_30
                            x       y       z     vdW  Elec       q    Type
                         _______ _______ _______ _____ _____    ______ ____

>  <TORSDO>
F 5

$$$$
