=
 OpenBabel10262422533D

 37 42  0  0  1  0  0  0  0  0999 V2000
  182.5600  177.0660  138.7910 C   0  0  1  0  0  0  0  0  0  0  0  0
  181.5750  175.1530  137.1240 C   0  0  1  0  0  0  0  0  0  0  0  0
  184.9650  175.5700  135.7960 C   0  0  2  0  0  3  0  0  0  0  0  0
  181.3410  178.0300  139.0050 C   0  0  2  0  0  0  0  0  0  0  0  0
  183.4370  173.2960  136.8850 C   0  0  0  0  0  2  0  0  0  0  0  0
  185.2100  176.9450  136.4140 C   0  0  2  0  0  3  0  0  0  0  0  0
  181.8590  179.3880  139.4350 C   0  0  0  0  0  0  0  0  0  0  0  0
  179.9210  177.0570  137.1000 C   0  0  0  0  0  2  0  0  0  0  0  0
  183.5280  175.3310  135.3220 C   0  0  0  0  0  2  0  0  0  0  0  0
  186.7210  177.2510  136.3600 C   0  0  2  0  0  3  0  0  0  0  0  0
  185.3160  172.6910  138.2000 O   0  0  0  0  0  1  0  0  0  0  0  0
  180.4980  177.5170  139.9990 O   0  0  0  0  0  1  0  0  0  0  0  0
  182.1420  175.6080  138.5010 C   0  0  0  0  0  2  0  0  0  0  0  0
  186.9310  174.8810  137.2760 C   0  0  0  0  0  2  0  0  0  0  0  0
  180.5150  178.2950  137.7370 C   0  0  0  0  0  2  0  0  0  0  0  0
  184.6990  173.7790  137.5790 C   0  0  1  0  0  3  0  0  0  0  0  0
  181.0100  176.3340  136.3320 C   0  0  0  0  0  2  0  0  0  0  0  0
  183.2500  179.8220  139.0600 C   0  0  0  0  0  2  0  0  0  0  0  0
  184.7520  176.9770  137.7400 O   0  0  0  0  0  0  0  0  0  0  0  0
  185.6480  174.4120  136.5620 C   0  0  1  0  0  3  0  0  0  0  0  0
  183.5130  177.6290  137.7080 C   0  0  2  0  0  3  0  0  0  0  0  0
  182.6670  174.4590  136.2520 C   0  0  2  0  0  3  0  0  0  0  0  0
  183.6920  179.1660  137.7490 C   0  0  0  0  0  2  0  0  0  0  0  0
  181.1520  180.1450  140.0810 O   0  0  0  0  0  0  0  0  0  0  0  0
  183.3290  176.9550  140.1130 C   0  0  0  0  0  1  0  0  0  0  0  0
  187.6320  176.0160  136.5290 C   0  0  0  0  0  2  0  0  0  0  0  0
  186.8870  179.5760  136.8980 O   0  0  0  0  0  0  0  0  0  0  0  0
  187.1200  178.3890  137.2580 C   0  0  0  0  0  0  0  0  0  0  0  0
  189.2140  177.8350  138.5120 C   0  0  0  0  0  3  0  0  0  0  0  0
  187.8420  178.1340  138.5200 C   0  0  0  0  0  0  0  0  0  0  0  0
  187.1660  178.2060  139.7470 C   0  0  0  0  0  3  0  0  0  0  0  0
  186.9930  178.0740  142.4690 Cl  0  0  0  0  0  0  0  0  0  0  0  0
  189.2130  177.6820  140.9270 C   0  0  0  0  0  3  0  0  0  0  0  0
  187.8490  177.9800  140.9460 C   0  0  0  0  0  0  0  0  0  0  0  0
  189.8960  177.6080  139.7100 C   0  0  0  0  0  3  0  0  0  0  0  0
  180.2140  174.0040  138.6510 C   0  0  0  0  0  1  0  0  0  0  0  0
  180.4760  174.2620  137.2930 O   0  0  0  0  0  0  0  0  0  0  0  0
  1  4  1  0  0  0  0
  1 25  1  1  0  0  0
  2 37  1  1  0  0  0
  2 13  1  0  0  0  0
  3  9  1  1  0  0  0
  3  6  1  0  0  0  0
  3 20  1  0  0  0  0
  4  7  1  0  0  0  0
  4 12  1  1  0  0  0
  5 16  1  0  0  0  0
  6 19  1  1  0  0  0
  7 24  2  0  0  0  0
  8 15  1  0  0  0  0
 10  6  1  0  0  0  0
 10 26  1  0  0  0  0
 10 28  1  1  0  0  0
 13  1  1  0  0  0  0
 15  4  1  0  0  0  0
 16 11  1  6  0  0  0
 17  8  1  0  0  0  0
 17  2  1  0  0  0  0
 18  7  1  0  0  0  0
 20 14  1  1  0  0  0
 20 16  1  0  0  0  0
 21 19  1  0  0  0  0
 21 23  1  1  0  0  0
 21  1  1  0  0  0  0
 22  9  1  1  0  0  0
 22  5  1  0  0  0  0
 22  2  1  0  0  0  0
 23 18  1  0  0  0  0
 26 14  1  0  0  0  0
 27 28  2  0  0  0  0
 28 30  1  0  0  0  0
 29 30  2  0  0  0  0
 29 35  1  0  0  0  0
 30 31  1  0  0  0  0
 31 34  2  0  0  0  0
 33 34  1  0  0  0  0
 34 32  1  0  0  0  0
 35 33  2  0  0  0  0
 37 36  1  0  0  0  0
M  END
>  <MODEL>
1

>  <REMARK>
 VINA RESULT:      -5.8      0.000      0.000
  Name = 
  3 active torsions:
  status: ('A' for Active; 'I' for Inactive)
    1  A    between atoms: C_3  and  O_32
    2  A    between atoms: C_6  and  C_31
    3  A    between atoms: C_14  and  C_31
                            x       y       z     vdW  Elec       q    Type
                         _______ _______ _______ _____ _____    ______ ____

>  <TORSDO>
F 3

$$$$
=
 OpenBabel10262422533D

 37 42  0  0  1  0  0  0  0  0999 V2000
  187.1970  177.3480  137.0420 C   0  0  1  0  0  0  0  0  0  0  0  0
  186.0910  175.1750  135.8310 C   0  0  1  0  0  0  0  0  0  0  0  0
  183.4060  176.1480  138.1270 C   0  0  2  0  0  3  0  0  0  0  0  0
  188.7010  176.9420  137.2250 C   0  0  2  0  0  0  0  0  0  0  0  0
  183.6070  175.8140  135.2040 C   0  0  0  0  0  2  0  0  0  0  0  0
  184.2870  176.9750  139.0610 C   0  0  2  0  0  3  0  0  0  0  0  0
  189.3020  177.7750  138.3390 C   0  0  0  0  0  0  0  0  0  0  0  0
  188.3490  174.4550  136.6950 C   0  0  0  0  0  2  0  0  0  0  0  0
  184.0820  174.8970  137.5560 C   0  0  0  0  0  2  0  0  0  0  0  0
  183.3800  177.8550  139.9470 C   0  0  2  0  0  3  0  0  0  0  0  0
  182.4780  177.8790  134.9130 O   0  0  0  0  0  1  0  0  0  0  0  0
  189.4050  177.1760  136.0370 O   0  0  0  0  0  1  0  0  0  0  0  0
  186.5250  176.6720  135.8280 C   0  0  0  0  0  2  0  0  0  0  0  0
  182.2340  178.3830  137.7310 C   0  0  0  0  0  2  0  0  0  0  0  0
  188.9130  175.4820  137.6530 C   0  0  0  0  0  2  0  0  0  0  0  0
  183.2870  177.1730  135.8050 C   0  0  1  0  0  3  0  0  0  0  0  0
  186.8480  174.3750  136.8940 C   0  0  0  0  0  2  0  0  0  0  0  0
  188.4230  178.3460  139.4180 C   0  0  0  0  0  2  0  0  0  0  0  0
  185.1730  177.7740  138.3230 O   0  0  0  0  0  0  0  0  0  0  0  0
  182.5700  176.9990  137.1430 C   0  0  1  0  0  3  0  0  0  0  0  0
  186.4080  177.1150  138.3540 C   0  0  2  0  0  3  0  0  0  0  0  0
  184.5630  175.0190  136.1000 C   0  0  2  0  0  3  0  0  0  0  0  0
  187.1920  177.4640  139.6430 C   0  0  0  0  0  2  0  0  0  0  0  0
  190.5050  177.9850  138.3770 O   0  0  0  0  0  0  0  0  0  0  0  0
  187.1370  178.8400  136.6910 C   0  0  0  0  0  1  0  0  0  0  0  0
  182.0930  178.3510  139.2540 C   0  0  0  0  0  2  0  0  0  0  0  0
  184.5620  179.9350  139.9500 O   0  0  0  0  0  0  0  0  0  0  0  0
  184.1310  178.9640  140.6310 C   0  0  0  0  0  0  0  0  0  0  0  0
  183.5010  179.3520  143.0220 C   0  0  0  0  0  3  0  0  0  0  0  0
  184.4290  178.8910  142.0750 C   0  0  0  0  0  0  0  0  0  0  0  0
  185.6410  178.3400  142.5170 C   0  0  0  0  0  3  0  0  0  0  0  0
  187.4360  177.5640  144.4230 Cl  0  0  0  0  0  0  0  0  0  0  0  0
  184.9930  178.7180  144.8190 C   0  0  0  0  0  3  0  0  0  0  0  0
  185.9210  178.2540  143.8840 C   0  0  0  0  0  0  0  0  0  0  0  0
  183.7830  179.2680  144.3880 C   0  0  0  0  0  3  0  0  0  0  0  0
  186.0780  173.1820  134.5940 C   0  0  0  0  0  1  0  0  0  0  0  0
  186.4160  174.5470  134.5940 O   0  0  0  0  0  0  0  0  0  0  0  0
  1 25  1  6  0  0  0
  1  4  1  0  0  0  0
  1 21  1  0  0  0  0
  2 37  1  6  0  0  0
  2 22  1  0  0  0  0
  2 17  1  0  0  0  0
  3  9  1  6  0  0  0
  3  6  1  0  0  0  0
  4 12  1  6  0  0  0
  4 15  1  0  0  0  0
  4  7  1  0  0  0  0
  5 16  1  0  0  0  0
  6 19  1  6  0  0  0
  6 10  1  0  0  0  0
  7 24  2  0  0  0  0
  7 18  1  0  0  0  0
  8 17  1  0  0  0  0
  8 15  1  0  0  0  0
 10 28  1  6  0  0  0
 13  2  1  0  0  0  0
 13  1  1  0  0  0  0
 14 26  1  0  0  0  0
 16 11  1  6  0  0  0
 16 20  1  0  0  0  0
 18 23  1  0  0  0  0
 19 21  1  0  0  0  0
 20 14  1  1  0  0  0
 20  3  1  0  0  0  0
 21 23  1  1  0  0  0
 22  5  1  1  0  0  0
 22  9  1  0  0  0  0
 26 10  1  0  0  0  0
 27 28  2  0  0  0  0
 28 30  1  0  0  0  0
 29 35  1  0  0  0  0
 30 31  1  0  0  0  0
 30 29  2  0  0  0  0
 31 34  2  0  0  0  0
 34 32  1  0  0  0  0
 34 33  1  0  0  0  0
 35 33  2  0  0  0  0
 37 36  1  0  0  0  0
M  END
>  <MODEL>
2

>  <REMARK>
 VINA RESULT:      -5.8      2.392      5.726
  Name = 
  3 active torsions:
  status: ('A' for Active; 'I' for Inactive)
    1  A    between atoms: C_3  and  O_32
    2  A    between atoms: C_6  and  C_31
    3  A    between atoms: C_14  and  C_31
                            x       y       z     vdW  Elec       q    Type
                         _______ _______ _______ _____ _____    ______ ____

>  <TORSDO>
F 3

$$$$
=
 OpenBabel10262422533D

 37 42  0  0  1  0  0  0  0  0999 V2000
  186.4380  176.1610  135.8930 C   0  0  1  0  0  0  0  0  0  0  0  0
  186.0520  173.4800  135.6250 C   0  0  1  0  0  0  0  0  0  0  0  0
  183.3680  174.3500  137.9640 C   0  0  2  0  0  3  0  0  0  0  0  0
  187.9990  176.3080  135.9140 C   0  0  2  0  0  0  0  0  0  0  0  0
  183.4610  173.0950  135.2970 C   0  0  0  0  0  2  0  0  0  0  0  0
  183.9810  175.6710  138.4250 C   0  0  2  0  0  3  0  0  0  0  0  0
  188.3600  177.6160  136.5920 C   0  0  0  0  0  0  0  0  0  0  0  0
  188.4760  173.8080  136.2420 C   0  0  0  0  0  2  0  0  0  0  0  0
  184.3860  173.2380  137.6890 C   0  0  0  0  0  2  0  0  0  0  0  0
  182.8950  176.4940  139.1490 C   0  0  2  0  0  3  0  0  0  0  0  0
  181.6790  174.4970  134.6010 O   0  0  0  0  0  1  0  0  0  0  0  0
  188.4940  176.3110  134.6040 O   0  0  0  0  0  1  0  0  0  0  0  0
  185.9500  174.9380  135.0870 C   0  0  0  0  0  2  0  0  0  0  0  0
  181.4810  175.8540  137.1260 C   0  0  0  0  0  2  0  0  0  0  0  0
  188.7250  175.2210  136.7210 C   0  0  0  0  0  2  0  0  0  0  0  0
  182.7420  174.4180  135.5020 C   0  0  1  0  0  3  0  0  0  0  0  0
  187.1100  173.3620  136.7250 C   0  0  0  0  0  2  0  0  0  0  0  0
  187.4190  178.2390  137.5860 C   0  0  0  0  0  2  0  0  0  0  0  0
  184.4870  176.3870  137.3290 O   0  0  0  0  0  0  0  0  0  0  0  0
  182.2240  174.5170  136.9370 C   0  0  1  0  0  3  0  0  0  0  0  0
  185.8710  176.1770  137.3350 C   0  0  2  0  0  3  0  0  0  0  0  0
  184.6910  172.9820  136.2030 C   0  0  2  0  0  3  0  0  0  0  0  0
  186.5800  177.1680  138.2900 C   0  0  0  0  0  2  0  0  0  0  0  0
  189.4190  178.1710  136.3440 O   0  0  0  0  0  0  0  0  0  0  0  0
  185.8490  177.3490  135.1210 C   0  0  0  0  0  1  0  0  0  0  0  0
  181.4700  176.3130  138.5850 C   0  0  0  0  0  2  0  0  0  0  0  0
  183.0870  178.7430  138.3570 O   0  0  0  0  0  0  0  0  0  0  0  0
  183.2710  177.9410  139.3140 C   0  0  0  0  0  0  0  0  0  0  0  0
  185.2190  178.9380  140.5270 C   0  0  0  0  0  3  0  0  0  0  0  0
  183.9180  178.4130  140.5540 C   0  0  0  0  0  0  0  0  0  0  0  0
  183.2270  178.3590  141.7730 C   0  0  0  0  0  3  0  0  0  0  0  0
  182.9560  178.7470  144.4630 Cl  0  0  0  0  0  0  0  0  0  0  0  0
  185.1250  179.3380  142.9130 C   0  0  0  0  0  3  0  0  0  0  0  0
  183.8290  178.8200  142.9480 C   0  0  0  0  0  0  0  0  0  0  0  0
  185.8210  179.3970  141.7020 C   0  0  0  0  0  3  0  0  0  0  0  0
  186.5050  171.2520  135.0450 C   0  0  0  0  0  1  0  0  0  0  0  0
  186.4810  172.5870  134.6010 O   0  0  0  0  0  0  0  0  0  0  0  0
  1 25  1  6  0  0  0
  1  4  1  0  0  0  0
  1 21  1  0  0  0  0
  2 37  1  6  0  0  0
  2 22  1  0  0  0  0
  2 17  1  0  0  0  0
  3  9  1  6  0  0  0
  3  6  1  0  0  0  0
  4 12  1  6  0  0  0
  4  7  1  0  0  0  0
  4 15  1  0  0  0  0
  5 16  1  0  0  0  0
  6 19  1  6  0  0  0
  6 10  1  0  0  0  0
  7 18  1  0  0  0  0
  8 15  1  0  0  0  0
  8 17  1  0  0  0  0
 10 28  1  6  0  0  0
 13  2  1  0  0  0  0
 13  1  1  0  0  0  0
 14 26  1  0  0  0  0
 16 11  1  6  0  0  0
 16 20  1  0  0  0  0
 18 23  1  0  0  0  0
 19 21  1  0  0  0  0
 20 14  1  6  0  0  0
 20  3  1  0  0  0  0
 21 23  1  1  0  0  0
 22  5  1  6  0  0  0
 22  9  1  0  0  0  0
 24  7  2  0  0  0  0
 26 10  1  0  0  0  0
 27 28  2  0  0  0  0
 28 30  1  0  0  0  0
 29 30  2  0  0  0  0
 29 35  1  0  0  0  0
 30 31  1  0  0  0  0
 31 34  2  0  0  0  0
 33 34  1  0  0  0  0
 34 32  1  0  0  0  0
 35 33  2  0  0  0  0
 37 36  1  0  0  0  0
M  END
>  <MODEL>
3

>  <REMARK>
 VINA RESULT:      -5.5      2.174      5.510
  Name = 
  3 active torsions:
  status: ('A' for Active; 'I' for Inactive)
    1  A    between atoms: C_3  and  O_32
    2  A    between atoms: C_6  and  C_31
    3  A    between atoms: C_14  and  C_31
                            x       y       z     vdW  Elec       q    Type
                         _______ _______ _______ _____ _____    ______ ____

>  <TORSDO>
F 3

$$$$
=
 OpenBabel10262422533D

 37 42  0  0  1  0  0  0  0  0999 V2000
  186.4090  177.7250  137.1750 C   0  0  1  0  0  0  0  0  0  0  0  0
  184.7010  175.9250  136.0550 C   0  0  1  0  0  0  0  0  0  0  0  0
  182.9570  176.7040  139.1830 C   0  0  2  0  0  3  0  0  0  0  0  0
  187.8270  177.1540  136.8240 C   0  0  2  0  0  0  0  0  0  0  0  0
  182.2610  176.8970  136.3240 C   0  0  0  0  0  2  0  0  0  0  0  0
  184.1790  177.2590  139.9130 C   0  0  2  0  0  3  0  0  0  0  0  0
  188.8370  177.7080  137.8100 C   0  0  0  0  0  0  0  0  0  0  0  0
  186.9830  174.8510  136.0670 C   0  0  0  0  0  2  0  0  0  0  0  0
  183.2530  175.5220  138.2530 C   0  0  0  0  0  2  0  0  0  0  0  0
  183.7010  178.0410  141.1540 C   0  0  2  0  0  3  0  0  0  0  0  0
  181.4050  179.0760  136.7030 O   0  0  0  0  0  1  0  0  0  0  0  0
  188.1860  177.5360  135.5260 O   0  0  0  0  0  1  0  0  0  0  0  0
  185.3260  177.3500  136.1400 C   0  0  0  0  0  2  0  0  0  0  0  0
  182.0560  179.0730  139.5020 C   0  0  0  0  0  2  0  0  0  0  0  0
  187.9410  175.6270  136.9450 C   0  0  0  0  0  2  0  0  0  0  0  0
  182.3260  178.1450  137.1880 C   0  0  1  0  0  3  0  0  0  0  0  0
  185.6070  174.8760  136.7030 C   0  0  0  0  0  2  0  0  0  0  0  0
  188.3960  178.1500  139.1790 C   0  0  0  0  0  2  0  0  0  0  0  0
  184.9210  178.0940  139.0640 O   0  0  0  0  0  0  0  0  0  0  0  0
  182.0050  177.7960  138.6410 C   0  0  1  0  0  3  0  0  0  0  0  0
  186.0050  177.3290  138.6170 C   0  0  2  0  0  3  0  0  0  0  0  0
  183.3080  175.8650  136.7550 C   0  0  2  0  0  3  0  0  0  0  0  0
  187.1670  177.3600  139.6380 C   0  0  0  0  0  2  0  0  0  0  0  0
  190.0160  177.7950  137.5060 O   0  0  0  0  0  0  0  0  0  0  0  0
  186.4660  179.2560  137.0840 C   0  0  0  0  0  1  0  0  0  0  0  0
  182.3550  178.7740  140.9720 C   0  0  0  0  0  2  0  0  0  0  0  0
  185.3250  179.7910  140.9930 O   0  0  0  0  0  0  0  0  0  0  0  0
  184.7690  178.9300  141.7300 C   0  0  0  0  0  0  0  0  0  0  0  0
  184.4460  179.2370  144.1920 C   0  0  0  0  0  3  0  0  0  0  0  0
  185.2200  178.7570  143.1250 C   0  0  0  0  0  0  0  0  0  0  0  0
  186.4230  178.0900  143.3980 C   0  0  0  0  0  3  0  0  0  0  0  0
  188.3510  177.0760  145.0450 Cl  0  0  0  0  0  0  0  0  0  0  0  0
  186.0720  178.3930  145.7740 C   0  0  0  0  0  3  0  0  0  0  0  0
  186.8480  177.9100  144.7180 C   0  0  0  0  0  0  0  0  0  0  0  0
  184.8710  179.0580  145.5120 C   0  0  0  0  0  3  0  0  0  0  0  0
  183.8710  174.2880  134.5940 C   0  0  0  0  0  1  0  0  0  0  0  0
  184.5630  175.5080  134.7000 O   0  0  0  0  0  0  0  0  0  0  0  0
  1 25  1  6  0  0  0
  1 21  1  0  0  0  0
  2 37  1  6  0  0  0
  2 13  1  0  0  0  0
  2 17  1  0  0  0  0
  2 22  1  0  0  0  0
  3  9  1  6  0  0  0
  3  6  1  0  0  0  0
  4 12  1  6  0  0  0
  4 15  1  0  0  0  0
  4  1  1  0  0  0  0
  4  7  1  0  0  0  0
  5 16  1  0  0  0  0
  6 19  1  6  0  0  0
  6 10  1  0  0  0  0
  7 18  1  0  0  0  0
  8 17  1  0  0  0  0
  8 15  1  0  0  0  0
 10 28  1  6  0  0  0
 13  1  1  0  0  0  0
 14 26  1  0  0  0  0
 16 11  1  6  0  0  0
 16 20  1  0  0  0  0
 18 23  1  0  0  0  0
 20  3  1  0  0  0  0
 20 14  1  1  0  0  0
 21 19  1  0  0  0  0
 21 23  1  1  0  0  0
 22  5  1  1  0  0  0
 22  9  1  0  0  0  0
 24  7  2  0  0  0  0
 26 10  1  0  0  0  0
 27 28  2  0  0  0  0
 28 30  1  0  0  0  0
 29 35  1  0  0  0  0
 30 31  1  0  0  0  0
 30 29  2  0  0  0  0
 31 34  2  0  0  0  0
 34 32  1  0  0  0  0
 34 33  1  0  0  0  0
 35 33  2  0  0  0  0
 36 37  1  0  0  0  0
M  END
>  <MODEL>
4

>  <REMARK>
 VINA RESULT:      -5.5      2.489      5.614
  Name = 
  3 active torsions:
  status: ('A' for Active; 'I' for Inactive)
    1  A    between atoms: C_3  and  O_32
    2  A    between atoms: C_6  and  C_31
    3  A    between atoms: C_14  and  C_31
                            x       y       z     vdW  Elec       q    Type
                         _______ _______ _______ _____ _____    ______ ____

>  <TORSDO>
F 3

$$$$
=
 OpenBabel10262422533D

 37 42  0  0  1  0  0  0  0  0999 V2000
  182.8130  177.6400  138.8640 C   0  0  1  0  0  0  0  0  0  0  0  0
  180.7300  178.1470  137.1860 C   0  0  1  0  0  0  0  0  0  0  0  0
  182.8510  176.0420  135.0640 C   0  0  2  0  0  3  0  0  0  0  0  0
  183.0210  179.0020  139.6130 C   0  0  2  0  0  0  0  0  0  0  0  0
  180.0760  175.8580  136.0440 C   0  0  0  0  0  2  0  0  0  0  0  0
  184.1370  176.2600  135.8590 C   0  0  2  0  0  3  0  0  0  0  0  0
  184.4380  179.0550  140.1510 C   0  0  0  0  0  0  0  0  0  0  0  0
  181.5410  180.3810  138.0330 C   0  0  0  0  0  2  0  0  0  0  0  0
  181.9380  177.2710  134.9810 C   0  0  0  0  0  2  0  0  0  0  0  0
  185.1640  175.1870  135.4410 C   0  0  2  0  0  3  0  0  0  0  0  0
  180.4510  173.5860  136.6120 O   0  0  0  0  0  1  0  0  0  0  0  0
  182.1160  179.1040  140.6770 O   0  0  0  0  0  1  0  0  0  0  0  0
  181.3550  177.4110  138.4080 C   0  0  0  0  0  2  0  0  0  0  0  0
  183.1900  173.6030  135.7430 C   0  0  0  0  0  2  0  0  0  0  0  0
  182.8830  180.2430  138.7190 C   0  0  0  0  0  2  0  0  0  0  0  0
  181.1020  174.8080  136.4340 C   0  0  1  0  0  3  0  0  0  0  0  0
  181.4950  179.4300  136.8530 C   0  0  0  0  0  2  0  0  0  0  0  0
  185.5280  178.2530  139.4930 C   0  0  0  0  0  2  0  0  0  0  0  0
  183.8820  176.1810  137.2370 O   0  0  0  0  0  0  0  0  0  0  0  0
  182.1660  174.6840  135.3440 C   0  0  1  0  0  3  0  0  0  0  0  0
  183.8210  177.5030  137.6960 C   0  0  2  0  0  3  0  0  0  0  0  0
  180.7160  177.2440  135.9140 C   0  0  2  0  0  3  0  0  0  0  0  0
  185.2360  178.0510  138.0040 C   0  0  0  0  0  2  0  0  0  0  0  0
  184.7100  179.7530  141.1150 O   0  0  0  0  0  0  0  0  0  0  0  0
  183.0540  176.4970  139.8590 C   0  0  0  0  0  1  0  0  0  0  0  0
  184.5520  173.8170  135.0820 C   0  0  0  0  0  2  0  0  0  0  0  0
  186.3310  174.1230  137.2380 O   0  0  0  0  0  0  0  0  0  0  0  0
  186.3120  175.0710  136.4050 C   0  0  0  0  0  0  0  0  0  0  0  0
  187.6230  176.9020  135.3140 C   0  0  0  0  0  3  0  0  0  0  0  0
  187.3770  176.0930  136.4340 C   0  0  0  0  0  0  0  0  0  0  0  0
  188.1440  176.2790  137.5930 C   0  0  0  0  0  3  0  0  0  0  0  0
  190.0930  177.4780  139.0840 Cl  0  0  0  0  0  0  0  0  0  0  0  0
  189.3830  178.0550  136.5110 C   0  0  0  0  0  3  0  0  0  0  0  0
  189.1440  177.2560  137.6310 C   0  0  0  0  0  0  0  0  0  0  0  0
  188.6230  177.8780  135.3510 C   0  0  0  0  0  3  0  0  0  0  0  0
  178.9520  178.0920  138.7160 C   0  0  0  0  0  1  0  0  0  0  0  0
  179.4000  178.5730  137.4730 O   0  0  0  0  0  0  0  0  0  0  0  0
  1  4  1  0  0  0  0
  1 25  1  1  0  0  0
  2 37  1  1  0  0  0
  2 13  1  0  0  0  0
  3  9  1  1  0  0  0
  3 20  1  0  0  0  0
  3  6  1  0  0  0  0
  4  7  1  0  0  0  0
  4 12  1  1  0  0  0
  5 16  1  0  0  0  0
  6 19  1  1  0  0  0
  7 24  2  0  0  0  0
  8 15  1  0  0  0  0
 10  6  1  0  0  0  0
 10 28  1  1  0  0  0
 13  1  1  0  0  0  0
 15  4  1  0  0  0  0
 16 11  1  6  0  0  0
 17  2  1  0  0  0  0
 17  8  1  0  0  0  0
 18  7  1  0  0  0  0
 19 21  1  0  0  0  0
 20 14  1  1  0  0  0
 20 16  1  0  0  0  0
 21 23  1  1  0  0  0
 21  1  1  0  0  0  0
 22  9  1  1  0  0  0
 22  5  1  0  0  0  0
 22  2  1  0  0  0  0
 23 18  1  0  0  0  0
 26 10  1  0  0  0  0
 26 14  1  0  0  0  0
 28 30  1  0  0  0  0
 28 27  2  0  0  0  0
 29 35  2  0  0  0  0
 29 30  1  0  0  0  0
 30 31  2  0  0  0  0
 31 34  1  0  0  0  0
 33 34  2  0  0  0  0
 34 32  1  0  0  0  0
 35 33  1  0  0  0  0
 37 36  1  0  0  0  0
M  END
>  <MODEL>
5

>  <REMARK>
 VINA RESULT:      -5.3      1.855      3.379
  Name = 
  3 active torsions:
  status: ('A' for Active; 'I' for Inactive)
    1  A    between atoms: C_3  and  O_32
    2  A    between atoms: C_6  and  C_31
    3  A    between atoms: C_14  and  C_31
                            x       y       z     vdW  Elec       q    Type
                         _______ _______ _______ _____ _____    ______ ____

>  <TORSDO>
F 3

$$$$
=
 OpenBabel10262422533D

 37 42  0  0  1  0  0  0  0  0999 V2000
  183.9260  176.1730  136.1860 C   0  0  1  0  0  0  0  0  0  0  0  0
  183.1050  173.6220  135.7050 C   0  0  1  0  0  0  0  0  0  0  0  0
  180.6520  174.6950  138.2080 C   0  0  2  0  0  3  0  0  0  0  0  0
  185.4900  176.0660  136.1610 C   0  0  2  0  0  0  0  0  0  0  0  0
  180.4780  173.6870  135.4420 C   0  0  0  0  0  2  0  0  0  0  0  0
  181.4810  175.8550  138.7560 C   0  0  2  0  0  3  0  0  0  0  0  0
  186.0740  177.2330  136.9340 C   0  0  0  0  0  0  0  0  0  0  0  0
  185.5630  173.5020  136.2570 C   0  0  0  0  0  2  0  0  0  0  0  0
  181.4690  173.4640  137.8010 C   0  0  0  0  0  2  0  0  0  0  0  0
  180.5600  176.7720  139.5880 C   0  0  2  0  0  3  0  0  0  0  0  0
  178.9320  175.4120  134.9350 O   0  0  0  0  0  1  0  0  0  0  0  0
  185.9490  176.1080  134.8380 O   0  0  0  0  0  1  0  0  0  0  0  0
  183.2280  175.1200  135.2970 C   0  0  0  0  0  2  0  0  0  0  0  0
  179.0150  176.5500  137.5720 C   0  0  0  0  0  2  0  0  0  0  0  0
  186.0490  174.8090  136.8450 C   0  0  0  0  0  2  0  0  0  0  0  0
  179.9880  175.0840  135.7860 C   0  0  1  0  0  3  0  0  0  0  0  0
  184.1550  173.2380  136.7510 C   0  0  0  0  0  2  0  0  0  0  0  0
  185.2690  177.9060  138.0120 C   0  0  0  0  0  2  0  0  0  0  0  0
  182.0710  176.5760  137.7070 O   0  0  0  0  0  0  0  0  0  0  0  0
  179.5270  175.1350  137.2420 C   0  0  1  0  0  3  0  0  0  0  0  0
  183.4030  176.1490  137.6440 C   0  0  2  0  0  3  0  0  0  0  0  0
  181.6950  173.2980  136.2890 C   0  0  2  0  0  3  0  0  0  0  0  0
  184.2850  176.9240  138.6530 C   0  0  0  0  0  2  0  0  0  0  0  0
  187.2030  177.6320  136.6950 O   0  0  0  0  0  0  0  0  0  0  0  0
  183.5200  177.5040  135.5400 C   0  0  0  0  0  1  0  0  0  0  0  0
  179.1120  176.8720  139.0640 C   0  0  0  0  0  2  0  0  0  0  0  0
  181.2150  178.9790  138.9380 O   0  0  0  0  0  0  0  0  0  0  0  0
  181.1690  178.1190  139.8610 C   0  0  0  0  0  0  0  0  0  0  0  0
  180.9770  178.7570  142.2730 C   0  0  0  0  0  3  0  0  0  0  0  0
  181.7780  178.4170  141.1720 C   0  0  0  0  0  0  0  0  0  0  0  0
  183.1690  178.3450  141.3360 C   0  0  0  0  0  3  0  0  0  0  0  0
  185.4870  178.5170  142.7710 Cl  0  0  0  0  0  0  0  0  0  0  0  0
  182.9450  178.9510  143.6690 C   0  0  0  0  0  3  0  0  0  0  0  0
  183.7500  178.6120  142.5800 C   0  0  0  0  0  0  0  0  0  0  0  0
  181.5570  179.0250  143.5160 C   0  0  0  0  0  3  0  0  0  0  0  0
  183.1080  171.4180  134.9000 C   0  0  0  0  0  1  0  0  0  0  0  0
  183.3600  172.7680  134.5940 O   0  0  0  0  0  0  0  0  0  0  0  0
  1 25  1  6  0  0  0
  1 21  1  0  0  0  0
  2 37  1  6  0  0  0
  2 22  1  0  0  0  0
  2 17  1  0  0  0  0
  3  9  1  6  0  0  0
  3  6  1  0  0  0  0
  4 12  1  6  0  0  0
  4  1  1  0  0  0  0
  4 15  1  0  0  0  0
  4  7  1  0  0  0  0
  5 16  1  0  0  0  0
  6 19  1  6  0  0  0
  6 10  1  0  0  0  0
  7 18  1  0  0  0  0
  8 17  1  0  0  0  0
  8 15  1  0  0  0  0
 10 28  1  6  0  0  0
 13  2  1  0  0  0  0
 13  1  1  0  0  0  0
 14 26  1  0  0  0  0
 16 11  1  6  0  0  0
 16 20  1  0  0  0  0
 18 23  1  0  0  0  0
 20 14  1  1  0  0  0
 20  3  1  0  0  0  0
 21 19  1  0  0  0  0
 21 23  1  1  0  0  0
 22  5  1  6  0  0  0
 22  9  1  0  0  0  0
 24  7  2  0  0  0  0
 26 10  1  0  0  0  0
 27 28  2  0  0  0  0
 28 30  1  0  0  0  0
 29 35  1  0  0  0  0
 30 31  1  0  0  0  0
 30 29  2  0  0  0  0
 31 34  2  0  0  0  0
 34 32  1  0  0  0  0
 34 33  1  0  0  0  0
 35 33  2  0  0  0  0
 37 36  1  0  0  0  0
M  END
>  <MODEL>
6

>  <REMARK>
 VINA RESULT:      -5.0      2.214      5.628
  Name = 
  3 active torsions:
  status: ('A' for Active; 'I' for Inactive)
    1  A    between atoms: C_3  and  O_32
    2  A    between atoms: C_6  and  C_31
    3  A    between atoms: C_14  and  C_31
                            x       y       z     vdW  Elec       q    Type
                         _______ _______ _______ _____ _____    ______ ____

>  <TORSDO>
F 3

$$$$
=
 OpenBabel10262422533D

 37 42  0  0  1  0  0  0  0  0999 V2000
  183.1770  175.9070  136.4510 C   0  0  1  0  0  0  0  0  0  0  0  0
  180.7930  174.6940  136.9610 C   0  0  1  0  0  0  0  0  0  0  0  0
  180.9810  177.0800  139.7370 C   0  0  2  0  0  3  0  0  0  0  0  0
  184.0880  174.7310  135.9540 C   0  0  2  0  0  0  0  0  0  0  0  0
  179.0620  176.5990  137.5500 C   0  0  0  0  0  2  0  0  0  0  0  0
  182.4910  177.2970  139.6580 C   0  0  2  0  0  3  0  0  0  0  0  0
  185.5410  175.1170  136.1560 C   0  0  0  0  0  0  0  0  0  0  0  0
  182.5020  172.8570  136.7030 C   0  0  0  0  0  2  0  0  0  0  0  0
  180.5270  175.6480  139.4330 C   0  0  0  0  0  2  0  0  0  0  0  0
  182.8510  178.5620  140.4640 C   0  0  2  0  0  3  0  0  0  0  0  0
  178.9950  178.9310  137.1260 O   0  0  0  0  0  1  0  0  0  0  0  0
  183.8550  174.4920  134.5940 O   0  0  0  0  0  1  0  0  0  0  0  0
  181.6780  175.6870  136.1500 C   0  0  0  0  0  2  0  0  0  0  0  0
  180.8880  179.5740  139.1890 C   0  0  0  0  0  2  0  0  0  0  0  0
  183.9070  173.4190  136.7310 C   0  0  0  0  0  2  0  0  0  0  0  0
  179.8050  177.9200  137.6460 C   0  0  1  0  0  3  0  0  0  0  0  0
  181.6440  173.6410  137.6750 C   0  0  0  0  0  2  0  0  0  0  0  0
  185.9190  176.1170  137.2140 C   0  0  0  0  0  2  0  0  0  0  0  0
  182.8980  177.4370  138.3220 O   0  0  0  0  0  0  0  0  0  0  0  0
  180.1520  178.2220  139.1040 C   0  0  1  0  0  3  0  0  0  0  0  0
  183.4370  176.1990  137.9500 C   0  0  2  0  0  3  0  0  0  0  0  0
  179.9310  175.4330  138.0310 C   0  0  2  0  0  3  0  0  0  0  0  0
  184.9210  176.0870  138.3750 C   0  0  0  0  0  2  0  0  0  0  0  0
  186.4170  174.6160  135.4680 O   0  0  0  0  0  0  0  0  0  0  0  0
  183.5180  177.1630  135.6390 C   0  0  0  0  0  1  0  0  0  0  0  0
  181.7810  179.6740  140.4270 C   0  0  0  0  0  2  0  0  0  0  0  0
  184.4050  179.8210  139.1500 O   0  0  0  0  0  0  0  0  0  0  0  0
  184.2300  179.0780  140.1560 C   0  0  0  0  0  0  0  0  0  0  0  0
  186.6760  178.6210  140.4190 C   0  0  0  0  0  3  0  0  0  0  0  0
  185.3880  178.6660  140.9730 C   0  0  0  0  0  0  0  0  0  0  0  0
  185.2130  178.3320  142.3240 C   0  0  0  0  0  3  0  0  0  0  0  0
  186.0770  177.5420  144.7920 Cl  0  0  0  0  0  0  0  0  0  0  0  0
  187.5870  177.9120  142.5470 C   0  0  0  0  0  3  0  0  0  0  0  0
  186.3090  177.9560  143.1070 C   0  0  0  0  0  0  0  0  0  0  0  0
  187.7710  178.2440  141.2010 C   0  0  0  0  0  3  0  0  0  0  0  0
  179.0420  173.1390  136.8180 C   0  0  0  0  0  1  0  0  0  0  0  0
  179.9350  173.9540  136.0980 O   0  0  0  0  0  0  0  0  0  0  0  0
  1 25  1  6  0  0  0
  1 21  1  0  0  0  0
  2 37  1  6  0  0  0
  2 17  1  0  0  0  0
  2 22  1  0  0  0  0
  3  9  1  6  0  0  0
  4 12  1  6  0  0  0
  4  7  1  0  0  0  0
  4  1  1  0  0  0  0
  4 15  1  0  0  0  0
  5 16  1  0  0  0  0
  6 19  1  6  0  0  0
  6  3  1  0  0  0  0
  6 10  1  0  0  0  0
  7 18  1  0  0  0  0
  8 15  1  0  0  0  0
  8 17  1  0  0  0  0
 10 28  1  6  0  0  0
 13  1  1  0  0  0  0
 13  2  1  0  0  0  0
 14 26  1  0  0  0  0
 16 11  1  1  0  0  0
 16 20  1  0  0  0  0
 18 23  1  0  0  0  0
 20 14  1  6  0  0  0
 20  3  1  0  0  0  0
 21 19  1  0  0  0  0
 21 23  1  6  0  0  0
 22  5  1  6  0  0  0
 22  9  1  0  0  0  0
 24  7  2  0  0  0  0
 26 10  1  0  0  0  0
 27 28  2  0  0  0  0
 28 30  1  0  0  0  0
 29 30  2  0  0  0  0
 29 35  1  0  0  0  0
 30 31  1  0  0  0  0
 31 34  2  0  0  0  0
 33 34  1  0  0  0  0
 34 32  1  0  0  0  0
 35 33  2  0  0  0  0
 37 36  1  0  0  0  0
M  END
>  <MODEL>
7

>  <REMARK>
 VINA RESULT:      -5.0      1.908      4.908
  Name = 
  3 active torsions:
  status: ('A' for Active; 'I' for Inactive)
    1  A    between atoms: C_3  and  O_32
    2  A    between atoms: C_6  and  C_31
    3  A    between atoms: C_14  and  C_31
                            x       y       z     vdW  Elec       q    Type
                         _______ _______ _______ _____ _____    ______ ____

>  <TORSDO>
F 3

$$$$
=
 OpenBabel10262422533D

 37 42  0  0  1  0  0  0  0  0999 V2000
  185.3050  176.1130  136.1070 C   0  0  1  0  0  0  0  0  0  0  0  0
  183.2280  174.3960  135.7160 C   0  0  1  0  0  0  0  0  0  0  0  0
  181.9070  176.5040  138.4080 C   0  0  2  0  0  3  0  0  0  0  0  0
  186.5700  175.2000  135.9520 C   0  0  2  0  0  0  0  0  0  0  0  0
  181.0200  175.8440  135.6740 C   0  0  0  0  0  2  0  0  0  0  0  0
  183.2620  177.0320  138.8760 C   0  0  2  0  0  3  0  0  0  0  0  0
  187.7380  175.8540  136.6630 C   0  0  0  0  0  0  0  0  0  0  0  0
  185.2870  172.9800  136.0600 C   0  0  0  0  0  2  0  0  0  0  0  0
  181.9190  175.0430  137.9430 C   0  0  0  0  0  2  0  0  0  0  0  0
  183.0290  178.2640  139.7750 C   0  0  2  0  0  3  0  0  0  0  0  0
  180.5830  178.1420  135.2850 O   0  0  0  0  0  1  0  0  0  0  0  0
  186.8810  175.0440  134.5950 O   0  0  0  0  0  1  0  0  0  0  0  0
  184.0920  175.6200  135.2880 C   0  0  0  0  0  2  0  0  0  0  0  0
  181.4530  178.9660  137.8970 C   0  0  0  0  0  2  0  0  0  0  0  0
  186.4320  173.8120  136.5950 C   0  0  0  0  0  2  0  0  0  0  0  0
  181.3680  177.2750  136.0470 C   0  0  1  0  0  3  0  0  0  0  0  0
  183.9930  173.4780  136.6730 C   0  0  0  0  0  2  0  0  0  0  0  0
  187.4940  176.8080  137.8000 C   0  0  0  0  0  2  0  0  0  0  0  0
  184.0630  177.3740  137.7760 O   0  0  0  0  0  0  0  0  0  0  0  0
  181.1140  177.5060  137.5360 C   0  0  1  0  0  3  0  0  0  0  0  0
  184.9590  176.3120  137.6030 C   0  0  2  0  0  3  0  0  0  0  0  0
  181.9080  174.8410  136.4180 C   0  0  2  0  0  3  0  0  0  0  0  0
  186.1910  176.4680  138.5290 C   0  0  0  0  0  2  0  0  0  0  0  0
  188.8860  175.6080  136.3270 O   0  0  0  0  0  0  0  0  0  0  0  0
  185.6150  177.4810  135.4870 C   0  0  0  0  0  1  0  0  0  0  0  0
  181.8170  179.1310  139.3730 C   0  0  0  0  0  2  0  0  0  0  0  0
  184.5660  179.9950  139.1680 O   0  0  0  0  0  0  0  0  0  0  0  0
  184.2760  179.0770  139.9860 C   0  0  0  0  0  0  0  0  0  0  0  0
  184.7130  178.5720  142.3970 C   0  0  0  0  0  3  0  0  0  0  0  0
  185.1990  178.7660  141.0950 C   0  0  0  0  0  0  0  0  0  0  0  0
  186.5750  178.6410  140.8530 C   0  0  0  0  0  3  0  0  0  0  0  0
  189.1650  178.1760  141.5810 Cl  0  0  0  0  0  0  0  0  0  0  0  0
  186.9590  178.1420  143.1900 C   0  0  0  0  0  3  0  0  0  0  0  0
  187.4510  178.3300  141.8970 C   0  0  0  0  0  0  0  0  0  0  0  0
  185.5900  178.2630  143.4410 C   0  0  0  0  0  3  0  0  0  0  0  0
  182.0600  172.5130  134.9440 C   0  0  0  0  0  1  0  0  0  0  0  0
  182.9090  173.5790  134.5940 O   0  0  0  0  0  0  0  0  0  0  0  0
  1 25  1  6  0  0  0
  1 21  1  0  0  0  0
  2 37  1  6  0  0  0
  2 22  1  0  0  0  0
  2 17  1  0  0  0  0
  3  9  1  6  0  0  0
  3  6  1  0  0  0  0
  4 12  1  6  0  0  0
  4  1  1  0  0  0  0
  4 15  1  0  0  0  0
  4  7  1  0  0  0  0
  5 16  1  0  0  0  0
  6 19  1  6  0  0  0
  6 10  1  0  0  0  0
  7 18  1  0  0  0  0
  8 15  1  0  0  0  0
  8 17  1  0  0  0  0
 10 28  1  6  0  0  0
 13  2  1  0  0  0  0
 13  1  1  0  0  0  0
 14 26  1  0  0  0  0
 16 11  1  6  0  0  0
 16 20  1  0  0  0  0
 18 23  1  0  0  0  0
 20 14  1  1  0  0  0
 20  3  1  0  0  0  0
 21 19  1  0  0  0  0
 21 23  1  1  0  0  0
 22  5  1  6  0  0  0
 22  9  1  0  0  0  0
 24  7  2  0  0  0  0
 26 10  1  0  0  0  0
 27 28  2  0  0  0  0
 28 30  1  0  0  0  0
 29 35  1  0  0  0  0
 30 29  2  0  0  0  0
 31 30  1  0  0  0  0
 31 34  2  0  0  0  0
 32 34  1  0  0  0  0
 33 35  2  0  0  0  0
 34 33  1  0  0  0  0
 37 36  1  0  0  0  0
M  END
>  <MODEL>
8

>  <REMARK>
 VINA RESULT:      -4.9      2.069      5.078
  Name = 
  3 active torsions:
  status: ('A' for Active; 'I' for Inactive)
    1  A    between atoms: C_3  and  O_32
    2  A    between atoms: C_6  and  C_31
    3  A    between atoms: C_14  and  C_31
                            x       y       z     vdW  Elec       q    Type
                         _______ _______ _______ _____ _____    ______ ____

>  <TORSDO>
F 3

$$$$
=
 OpenBabel10262422533D

 37 42  0  0  1  0  0  0  0  0999 V2000
  181.8860  175.8770  138.2310 C   0  0  1  0  0  0  0  0  0  0  0  0
  182.3360  174.9240  135.7210 C   0  0  1  0  0  0  0  0  0  0  0  0
  185.3140  176.9970  136.2350 C   0  0  2  0  0  3  0  0  0  0  0  0
  180.3420  176.1550  138.2480 C   0  0  2  0  0  0  0  0  0  0  0  0
  184.8580  174.1490  135.6240 C   0  0  0  0  0  2  0  0  0  0  0  0
  184.7270  177.8420  137.3640 C   0  0  2  0  0  3  0  0  0  0  0  0
  180.0370  177.1700  139.3330 C   0  0  0  0  0  0  0  0  0  0  0  0
  180.0260  175.9390  135.7100 C   0  0  0  0  0  2  0  0  0  0  0  0
  184.3130  176.6110  135.1410 C   0  0  0  0  0  2  0  0  0  0  0  0
  185.8770  178.5810  138.0790 C   0  0  2  0  0  3  0  0  0  0  0  0
  186.4490  173.5620  137.2820 O   0  0  0  0  0  1  0  0  0  0  0  0
  179.6480  174.9670  138.5140 O   0  0  0  0  0  1  0  0  0  0  0  0
  182.2920  174.7410  137.2680 C   0  0  0  0  0  2  0  0  0  0  0  0
  186.9830  176.2830  138.0330 C   0  0  0  0  0  2  0  0  0  0  0  0
  179.7970  176.7730  136.9520 C   0  0  0  0  0  2  0  0  0  0  0  0
  185.5440  174.5600  136.9160 C   0  0  1  0  0  3  0  0  0  0  0  0
  181.4690  176.1030  135.2720 C   0  0  0  0  0  2  0  0  0  0  0  0
  181.0960  178.1400  139.7810 C   0  0  0  0  0  2  0  0  0  0  0  0
  184.0260  177.0330  138.2710 O   0  0  0  0  0  0  0  0  0  0  0  0
  186.2750  175.8880  136.7230 C   0  0  1  0  0  3  0  0  0  0  0  0
  182.6700  177.1850  137.9590 C   0  0  2  0  0  3  0  0  0  0  0  0
  183.7900  175.1660  135.2110 C   0  0  2  0  0  3  0  0  0  0  0  0
  182.0780  178.4400  138.6460 C   0  0  0  0  0  2  0  0  0  0  0  0
  178.9310  177.2150  139.8460 O   0  0  0  0  0  0  0  0  0  0  0  0
  182.2960  175.3360  139.6070 C   0  0  0  0  0  1  0  0  0  0  0  0
  187.2030  177.7930  138.1440 C   0  0  0  0  0  2  0  0  0  0  0  0
  184.6440  180.0900  139.4670 O   0  0  0  0  0  0  0  0  0  0  0  0
  185.4710  179.1380  139.4160 C   0  0  0  0  0  0  0  0  0  0  0  0
  185.2860  178.2850  141.7610 C   0  0  0  0  0  3  0  0  0  0  0  0
  186.0840  178.6320  140.6590 C   0  0  0  0  0  0  0  0  0  0  0  0
  187.4750  178.4740  140.7470 C   0  0  0  0  0  3  0  0  0  0  0  0
  189.7960  177.7870  142.0110 Cl  0  0  0  0  0  0  0  0  0  0  0  0
  187.2580  177.6400  143.0090 C   0  0  0  0  0  3  0  0  0  0  0  0
  188.0590  177.9800  141.9170 C   0  0  0  0  0  0  0  0  0  0  0  0
  185.8700  177.7930  142.9310 C   0  0  0  0  0  3  0  0  0  0  0  0
  181.4470  172.7660  135.9610 C   0  0  0  0  0  1  0  0  0  0  0  0
  181.7890  173.7880  135.0570 O   0  0  0  0  0  0  0  0  0  0  0  0
  1  4  1  0  0  0  0
  1 25  1  1  0  0  0
  2 37  1  6  0  0  0
  2 13  1  0  0  0  0
  3  9  1  1  0  0  0
  3 20  1  0  0  0  0
  3  6  1  0  0  0  0
  4 12  1  1  0  0  0
  4  7  1  0  0  0  0
  5 16  1  0  0  0  0
  6 10  1  0  0  0  0
  6 19  1  1  0  0  0
  7 18  1  0  0  0  0
  7 24  2  0  0  0  0
  8 15  1  0  0  0  0
 10 26  1  0  0  0  0
 10 28  1  1  0  0  0
 13  1  1  0  0  0  0
 14 26  1  0  0  0  0
 15  4  1  0  0  0  0
 16 11  1  6  0  0  0
 17  8  1  0  0  0  0
 17  2  1  0  0  0  0
 20 16  1  0  0  0  0
 20 14  1  1  0  0  0
 21  1  1  0  0  0  0
 21 19  1  0  0  0  0
 21 23  1  1  0  0  0
 22  9  1  1  0  0  0
 22  5  1  0  0  0  0
 22  2  1  0  0  0  0
 23 18  1  0  0  0  0
 28 27  2  0  0  0  0
 28 30  1  0  0  0  0
 29 35  1  0  0  0  0
 30 31  1  0  0  0  0
 30 29  2  0  0  0  0
 31 34  2  0  0  0  0
 34 32  1  0  0  0  0
 34 33  1  0  0  0  0
 35 33  2  0  0  0  0
 37 36  1  0  0  0  0
M  END
>  <MODEL>
9

>  <REMARK>
 VINA RESULT:      -4.8      1.626      2.440
  Name = 
  3 active torsions:
  status: ('A' for Active; 'I' for Inactive)
    1  A    between atoms: C_3  and  O_32
    2  A    between atoms: C_6  and  C_31
    3  A    between atoms: C_14  and  C_31
                            x       y       z     vdW  Elec       q    Type
                         _______ _______ _______ _____ _____    ______ ____

>  <TORSDO>
F 3

$$$$
