=
 OpenBabel10262420483D

 28 31  0  0  1  0  0  0  0  0999 V2000
  185.6570  178.3440  144.8430 C   0  0  0  0  0  0  0  0  0  0  0  0
  182.3170  179.2660  142.4620 O   0  0  0  0  0  1  0  0  0  0  0  0
  187.2300  178.6560  141.4730 N   0  0  2  0  0  0  0  0  0  0  0  0
  184.6670  178.6860  142.6320 C   0  0  0  0  0  0  0  0  0  0  0  0
  187.0780  177.9850  142.7670 C   0  0  0  0  0  2  0  0  0  0  0  0
  183.3000  178.8930  144.6240 C   0  0  0  0  0  3  0  0  0  0  0  0
  184.8090  178.7980  141.1350 C   0  0  0  0  0  2  0  0  0  0  0  0
  183.4280  178.9500  143.2360 C   0  0  0  0  0  0  0  0  0  0  0  0
  186.1180  178.1810  140.6430 C   0  0  0  0  0  2  0  0  0  0  0  0
  184.4050  178.5890  145.4200 C   0  0  0  0  0  3  0  0  0  0  0  0
  185.7900  178.3890  143.4370 C   0  0  0  0  0  0  0  0  0  0  0  0
  189.0590  176.9950  141.5800 C   0  0  0  0  0  2  0  0  0  0  0  0
  189.2780  176.8700  138.8080 C   0  0  0  0  0  2  0  0  0  0  0  0
  191.2910  177.3330  140.3290 C   0  0  0  0  0  0  0  0  0  0  0  0
  188.5010  178.2310  140.8640 C   0  0  1  0  0  3  0  0  0  0  0  0
  188.4230  179.0840  138.6170 F   0  0  0  0  0  0  0  0  0  0  0  0
  190.6630  177.2560  139.0410 N   0  0  0  0  0  2  0  0  0  0  0  0
  188.3120  177.9230  139.3600 C   0  0  1  0  0  3  0  0  0  0  0  0
  192.5030  177.6650  140.3860 O   0  0  0  0  0  0  0  0  0  0  0  0
  190.5870  177.0140  141.6250 C   0  0  0  0  0  2  0  0  0  0  0  0
  186.7960  178.0250  145.7290 C   0  0  0  0  0  0  0  0  0  0  0  0
  187.8820  177.3040  145.2120 C   0  0  0  0  0  3  0  0  0  0  0  0
  187.9090  178.0970  147.8920 C   0  0  0  0  0  0  0  0  0  0  0  0
  188.9750  176.9900  146.0220 C   0  0  0  0  0  3  0  0  0  0  0  0
  185.7210  179.0780  147.6430 O   0  0  0  0  0  1  0  0  0  0  0  0
  186.8060  178.4080  147.0870 C   0  0  0  0  0  0  0  0  0  0  0  0
  187.9310  178.4700  149.1950 F   0  0  0  0  0  0  0  0  0  0  0  0
  188.9890  177.3900  147.3600 C   0  0  0  0  0  3  0  0  0  0  0  0
  1 10  1  0  0  0  0
  1 21  1  0  0  0  0
  2  8  1  0  0  0  0
  3  9  1  6  0  0  0
  3  5  1  0  0  0  0
  4  8  2  0  0  0  0
  4 11  1  0  0  0  0
  5 11  1  0  0  0  0
  6 10  2  0  0  0  0
  7  4  1  0  0  0  0
  8  6  1  0  0  0  0
  9  7  1  0  0  0  0
 11  1  2  0  0  0  0
 12 20  1  0  0  0  0
 13 17  1  0  0  0  0
 13 18  1  0  0  0  0
 14 19  2  0  0  0  0
 14 20  1  0  0  0  0
 15  3  1  0  0  0  0
 15 12  1  1  0  0  0
 17 14  1  0  0  0  0
 18 16  1  6  0  0  0
 18 15  1  0  0  0  0
 21 26  1  0  0  0  0
 22 21  2  0  0  0  0
 22 24  1  0  0  0  0
 23 27  1  0  0  0  0
 24 28  2  0  0  0  0
 26 25  1  0  0  0  0
 26 23  2  0  0  0  0
 28 23  1  0  0  0  0
M  END
>  <MODEL>
1

>  <REMARK>
 VINA RESULT:     -10.9      0.000      0.000
  Name = 
  2 active torsions:
  status: ('A' for Active; 'I' for Inactive)
    1  A    between atoms: C_1  and  C_2
    2  A    between atoms: N_10  and  C_13
                            x       y       z     vdW  Elec       q    Type
                         _______ _______ _______ _____ _____    ______ ____

>  <TORSDO>
F 2

$$$$
=
 OpenBabel10262420483D

 28 31  0  0  1  0  0  0  0  0999 V2000
  186.1600  178.2450  145.4610 C   0  0  0  0  0  0  0  0  0  0  0  0
  188.5640  177.8990  148.8930 O   0  0  0  0  0  1  0  0  0  0  0  0
  189.3090  176.8660  144.0080 N   0  0  2  0  0  0  0  0  0  0  0  0
  188.3390  177.7970  146.4790 C   0  0  0  0  0  0  0  0  0  0  0  0
  188.1660  177.7820  143.9710 C   0  0  0  0  0  2  0  0  0  0  0  0
  186.4390  178.3710  147.8710 C   0  0  0  0  0  3  0  0  0  0  0  0
  189.7800  177.3690  146.3570 C   0  0  0  0  0  2  0  0  0  0  0  0
  187.7840  178.0200  147.7480 C   0  0  0  0  0  0  0  0  0  0  0  0
  190.2820  177.4780  144.9180 C   0  0  0  0  0  2  0  0  0  0  0  0
  185.6350  178.4860  146.7370 C   0  0  0  0  0  3  0  0  0  0  0  0
  187.5240  177.9010  145.3290 C   0  0  0  0  0  0  0  0  0  0  0  0
  189.2060  177.7670  141.7070 C   0  0  0  0  0  2  0  0  0  0  0  0
  191.9730  177.6880  141.4180 C   0  0  0  0  0  2  0  0  0  0  0  0
  190.3800  176.6020  139.7260 C   0  0  0  0  0  0  0  0  0  0  0  0
  189.8950  176.7830  142.6600 C   0  0  1  0  0  3  0  0  0  0  0  0
  192.1120  175.9190  143.0050 F   0  0  0  0  0  0  0  0  0  0  0  0
  191.6880  176.8440  140.2660 N   0  0  0  0  0  2  0  0  0  0  0  0
  191.4130  177.0740  142.7050 C   0  0  1  0  0  3  0  0  0  0  0  0
  190.2780  175.8620  138.7130 O   0  0  0  0  0  0  0  0  0  0  0  0
  189.1170  177.2060  140.2880 C   0  0  0  0  0  2  0  0  0  0  0  0
  185.2680  178.3810  144.2900 C   0  0  0  0  0  0  0  0  0  0  0  0
  185.7700  178.0930  143.0130 C   0  0  0  0  0  3  0  0  0  0  0  0
  183.1150  178.9210  143.2920 C   0  0  0  0  0  0  0  0  0  0  0  0
  184.9530  178.2080  141.8870 C   0  0  0  0  0  3  0  0  0  0  0  0
  183.4210  179.1610  145.6710 O   0  0  0  0  0  1  0  0  0  0  0  0
  183.9330  178.8160  144.4240 C   0  0  0  0  0  0  0  0  0  0  0  0
  181.8280  179.3290  143.4140 F   0  0  0  0  0  0  0  0  0  0  0  0
  183.6250  178.6190  142.0280 C   0  0  0  0  0  3  0  0  0  0  0  0
  1 10  1  0  0  0  0
  3  5  1  6  0  0  0
  3  9  1  0  0  0  0
  4  8  2  0  0  0  0
  5 11  1  0  0  0  0
  7  4  1  0  0  0  0
  8  6  1  0  0  0  0
  8  2  1  0  0  0  0
  9  7  1  0  0  0  0
 10  6  2  0  0  0  0
 11  1  2  0  0  0  0
 11  4  1  0  0  0  0
 13 18  1  0  0  0  0
 14 17  1  0  0  0  0
 14 20  1  0  0  0  0
 15 12  1  6  0  0  0
 15 18  1  0  0  0  0
 15  3  1  0  0  0  0
 17 13  1  0  0  0  0
 18 16  1  6  0  0  0
 19 14  2  0  0  0  0
 20 12  1  0  0  0  0
 21 26  1  0  0  0  0
 21  1  1  0  0  0  0
 22 21  2  0  0  0  0
 23 27  1  0  0  0  0
 23 26  2  0  0  0  0
 24 28  2  0  0  0  0
 24 22  1  0  0  0  0
 26 25  1  0  0  0  0
 28 23  1  0  0  0  0
M  END
>  <MODEL>
2

>  <REMARK>
 VINA RESULT:     -10.8      2.541      4.799
  Name = 
  2 active torsions:
  status: ('A' for Active; 'I' for Inactive)
    1  A    between atoms: C_1  and  C_2
    2  A    between atoms: N_10  and  C_13
                            x       y       z     vdW  Elec       q    Type
                         _______ _______ _______ _____ _____    ______ ____

>  <TORSDO>
F 2

$$$$
=
 OpenBabel10262420483D

 28 31  0  0  1  0  0  0  0  0999 V2000
  187.3590  177.8960  144.8870 C   0  0  0  0  0  0  0  0  0  0  0  0
  183.4100  178.9600  145.8580 O   0  0  0  0  0  1  0  0  0  0  0  0
  186.0940  179.0900  141.5850 N   0  0  2  0  0  0  0  0  0  0  0  0
  185.1260  178.6030  144.1810 C   0  0  0  0  0  0  0  0  0  0  0  0
  186.8510  178.1440  142.4100 C   0  0  0  0  0  2  0  0  0  0  0  0
  185.6000  178.2320  146.5290 C   0  0  0  0  0  3  0  0  0  0  0  0
  184.1730  179.0510  143.1020 C   0  0  0  0  0  2  0  0  0  0  0  0
  184.7100  178.6010  145.5210 C   0  0  0  0  0  0  0  0  0  0  0  0
  184.6880  178.6930  141.7080 C   0  0  0  0  0  2  0  0  0  0  0  0
  186.9130  177.8790  146.2150 C   0  0  0  0  0  3  0  0  0  0  0  0
  186.4590  178.2580  143.8610 C   0  0  0  0  0  0  0  0  0  0  0  0
  187.5980  177.8620  140.0530 C   0  0  0  0  0  2  0  0  0  0  0  0
  185.6730  177.7570  138.0460 C   0  0  0  0  0  2  0  0  0  0  0  0
  188.0400  178.6580  137.6380 C   0  0  0  0  0  0  0  0  0  0  0  0
  186.5160  178.9410  140.1830 C   0  0  1  0  0  3  0  0  0  0  0  0
  184.6500  179.7340  138.8910 F   0  0  0  0  0  0  0  0  0  0  0  0
  186.6800  178.4330  137.2390 N   0  0  0  0  0  2  0  0  0  0  0  0
  185.3110  178.5840  139.2830 C   0  0  1  0  0  3  0  0  0  0  0  0
  188.8120  179.2420  136.8340 O   0  0  0  0  0  0  0  0  0  0  0  0
  188.6100  178.2100  138.9620 C   0  0  0  0  0  2  0  0  0  0  0  0
  188.7590  177.5140  144.6050 C   0  0  0  0  0  0  0  0  0  0  0  0
  189.7970  178.3300  145.0740 C   0  0  0  0  0  3  0  0  0  0  0  0
  190.4130  176.0250  143.6190 C   0  0  0  0  0  0  0  0  0  0  0  0
  191.1300  177.9960  144.8280 C   0  0  0  0  0  3  0  0  0  0  0  0
  188.0650  175.5590  143.3310 O   0  0  0  0  0  1  0  0  0  0  0  0
  189.0730  176.3610  143.8550 C   0  0  0  0  0  0  0  0  0  0  0  0
  190.7230  174.9130  142.9080 F   0  0  0  0  0  0  0  0  0  0  0  0
  191.4370  176.8410  144.1030 C   0  0  0  0  0  3  0  0  0  0  0  0
  1 10  1  0  0  0  0
  3  9  1  6  0  0  0
  3  5  1  0  0  0  0
  4  8  2  0  0  0  0
  5 11  1  0  0  0  0
  7  4  1  0  0  0  0
  8  2  1  0  0  0  0
  8  6  1  0  0  0  0
  9  7  1  0  0  0  0
 10  6  2  0  0  0  0
 11  4  1  0  0  0  0
 11  1  2  0  0  0  0
 13 18  1  0  0  0  0
 14 20  1  0  0  0  0
 15 12  1  1  0  0  0
 15  3  1  0  0  0  0
 17 14  1  0  0  0  0
 17 13  1  0  0  0  0
 18 16  1  6  0  0  0
 18 15  1  0  0  0  0
 19 14  2  0  0  0  0
 20 12  1  0  0  0  0
 21  1  1  0  0  0  0
 21 22  1  0  0  0  0
 23 26  1  0  0  0  0
 23 28  2  0  0  0  0
 24 22  2  0  0  0  0
 25 26  1  0  0  0  0
 26 21  2  0  0  0  0
 27 23  1  0  0  0  0
 28 24  1  0  0  0  0
M  END
>  <MODEL>
3

>  <REMARK>
 VINA RESULT:     -10.7      2.635      3.593
  Name = 
  2 active torsions:
  status: ('A' for Active; 'I' for Inactive)
    1  A    between atoms: C_1  and  C_2
    2  A    between atoms: N_10  and  C_13
                            x       y       z     vdW  Elec       q    Type
                         _______ _______ _______ _____ _____    ______ ____

>  <TORSDO>
F 2

$$$$
=
 OpenBabel10262420483D

 28 31  0  0  1  0  0  0  0  0999 V2000
  187.5130  178.0390  145.6700 C   0  0  0  0  0  0  0  0  0  0  0  0
  183.4540  179.1320  145.7710 O   0  0  0  0  0  1  0  0  0  0  0  0
  186.7440  178.3230  142.0290 N   0  0  2  0  0  0  0  0  0  0  0  0
  185.4040  178.4490  144.4980 C   0  0  0  0  0  0  0  0  0  0  0  0
  187.3760  177.6440  143.1630 C   0  0  0  0  0  2  0  0  0  0  0  0
  185.5260  178.6910  146.9080 C   0  0  0  0  0  3  0  0  0  0  0  0
  184.6190  178.5730  143.2180 C   0  0  0  0  0  2  0  0  0  0  0  0
  184.7930  178.7590  145.7230 C   0  0  0  0  0  0  0  0  0  0  0  0
  185.3390  177.9060  142.0460 C   0  0  0  0  0  2  0  0  0  0  0  0
  186.8740  178.3310  146.8820 C   0  0  0  0  0  3  0  0  0  0  0  0
  186.7720  178.0950  144.4680 C   0  0  0  0  0  0  0  0  0  0  0  0
  186.8270  178.6240  139.5760 C   0  0  0  0  0  2  0  0  0  0  0  0
  189.5800  178.2200  139.4930 C   0  0  0  0  0  2  0  0  0  0  0  0
  187.9480  176.8970  138.0200 C   0  0  0  0  0  0  0  0  0  0  0  0
  187.3710  177.8510  140.7830 C   0  0  1  0  0  3  0  0  0  0  0  0
  189.4690  176.9000  141.4710 F   0  0  0  0  0  0  0  0  0  0  0  0
  189.2530  177.1440  138.5670 N   0  0  0  0  0  2  0  0  0  0  0  0
  188.9080  178.0020  140.8520 C   0  0  1  0  0  3  0  0  0  0  0  0
  187.8080  175.9400  137.2160 O   0  0  0  0  0  0  0  0  0  0  0  0
  186.7350  177.7360  138.3350 C   0  0  0  0  0  2  0  0  0  0  0  0
  188.9410  177.6610  145.6940 C   0  0  0  0  0  0  0  0  0  0  0  0
  189.7800  178.0970  144.6590 C   0  0  0  0  0  3  0  0  0  0  0  0
  190.8370  176.5270  146.7150 C   0  0  0  0  0  0  0  0  0  0  0  0
  191.1350  177.7610  144.6540 C   0  0  0  0  0  3  0  0  0  0  0  0
  188.6580  176.3620  147.7330 O   0  0  0  0  0  1  0  0  0  0  0  0
  189.4750  176.8540  146.7200 C   0  0  0  0  0  0  0  0  0  0  0  0
  191.3600  175.7600  147.7030 F   0  0  0  0  0  0  0  0  0  0  0  0
  191.6630  176.9790  145.6840 C   0  0  0  0  0  3  0  0  0  0  0  0
  1 21  1  0  0  0  0
  1 10  1  0  0  0  0
  3  9  1  6  0  0  0
  3  5  1  0  0  0  0
  4  8  2  0  0  0  0
  5 11  1  0  0  0  0
  7  4  1  0  0  0  0
  8  2  1  0  0  0  0
  8  6  1  0  0  0  0
  9  7  1  0  0  0  0
 10  6  2  0  0  0  0
 11  4  1  0  0  0  0
 11  1  2  0  0  0  0
 13 18  1  0  0  0  0
 14 20  1  0  0  0  0
 14 17  1  0  0  0  0
 15 12  1  6  0  0  0
 15 18  1  0  0  0  0
 15  3  1  0  0  0  0
 17 13  1  0  0  0  0
 18 16  1  6  0  0  0
 19 14  2  0  0  0  0
 20 12  1  0  0  0  0
 21 26  1  0  0  0  0
 22 21  2  0  0  0  0
 23 26  2  0  0  0  0
 23 27  1  0  0  0  0
 24 22  1  0  0  0  0
 24 28  2  0  0  0  0
 26 25  1  0  0  0  0
 28 23  1  0  0  0  0
M  END
>  <MODEL>
4

>  <REMARK>
 VINA RESULT:     -10.4      2.229      3.021
  Name = 
  2 active torsions:
  status: ('A' for Active; 'I' for Inactive)
    1  A    between atoms: C_1  and  C_2
    2  A    between atoms: N_10  and  C_13
                            x       y       z     vdW  Elec       q    Type
                         _______ _______ _______ _____ _____    ______ ____

>  <TORSDO>
F 2

$$$$
=
 OpenBabel10262420483D

 28 31  0  0  1  0  0  0  0  0999 V2000
  188.0240  177.5890  145.1020 C   0  0  0  0  0  0  0  0  0  0  0  0
  191.9140  176.5870  146.3420 O   0  0  0  0  0  1  0  0  0  0  0  0
  189.6220  176.7110  141.8460 N   0  0  2  0  0  0  0  0  0  0  0  0
  190.3380  177.0190  144.5480 C   0  0  0  0  0  0  0  0  0  0  0  0
  188.7580  177.5610  142.6690 C   0  0  0  0  0  2  0  0  0  0  0  0
  189.6450  177.1820  146.8660 C   0  0  0  0  0  3  0  0  0  0  0  0
  191.4000  176.6940  143.5290 C   0  0  0  0  0  2  0  0  0  0  0  0
  190.6350  176.9270  145.9170 C   0  0  0  0  0  0  0  0  0  0  0  0
  190.9940  177.1450  142.1260 C   0  0  0  0  0  2  0  0  0  0  0  0
  188.3510  177.5130  146.4620 C   0  0  0  0  0  3  0  0  0  0  0  0
  189.0250  177.3430  144.1370 C   0  0  0  0  0  0  0  0  0  0  0  0
  188.6040  178.3040  140.2510 C   0  0  0  0  0  2  0  0  0  0  0  0
  190.5550  177.8180  138.3270 C   0  0  0  0  0  2  0  0  0  0  0  0
  188.0470  177.6410  137.8200 C   0  0  0  0  0  0  0  0  0  0  0  0
  189.3190  176.9580  140.4270 C   0  0  1  0  0  3  0  0  0  0  0  0
  190.9230  175.6400  139.2150 F   0  0  0  0  0  0  0  0  0  0  0  0
  189.4290  177.4540  137.4790 N   0  0  0  0  0  2  0  0  0  0  0  0
  190.6110  176.9370  139.5790 C   0  0  1  0  0  3  0  0  0  0  0  0
  187.1720  177.2970  136.9850 O   0  0  0  0  0  0  0  0  0  0  0  0
  187.5800  178.2530  139.1180 C   0  0  0  0  0  2  0  0  0  0  0  0
  186.6400  177.9450  144.7250 C   0  0  0  0  0  0  0  0  0  0  0  0
  186.2750  177.9250  143.3710 C   0  0  0  0  0  3  0  0  0  0  0  0
  184.3800  178.6450  145.2940 C   0  0  0  0  0  0  0  0  0  0  0  0
  184.9750  178.2530  142.9810 C   0  0  0  0  0  3  0  0  0  0  0  0
  186.0300  178.4070  147.0360 O   0  0  0  0  0  1  0  0  0  0  0  0
  185.6850  178.3260  145.6900 C   0  0  0  0  0  0  0  0  0  0  0  0
  183.4540  179.0030  146.2170 F   0  0  0  0  0  0  0  0  0  0  0  0
  184.0280  178.6090  143.9440 C   0  0  0  0  0  3  0  0  0  0  0  0
  1 10  1  0  0  0  0
  3  9  1  6  0  0  0
  3  5  1  0  0  0  0
  4  8  2  0  0  0  0
  5 11  1  0  0  0  0
  7  4  1  0  0  0  0
  8  2  1  0  0  0  0
  8  6  1  0  0  0  0
  9  7  1  0  0  0  0
 10  6  2  0  0  0  0
 11  4  1  0  0  0  0
 11  1  2  0  0  0  0
 13 18  1  0  0  0  0
 14 20  1  0  0  0  0
 15 12  1  1  0  0  0
 15  3  1  0  0  0  0
 17 14  1  0  0  0  0
 17 13  1  0  0  0  0
 18 16  1  6  0  0  0
 18 15  1  0  0  0  0
 19 14  2  0  0  0  0
 20 12  1  0  0  0  0
 21  1  1  0  0  0  0
 21 26  1  0  0  0  0
 22 21  2  0  0  0  0
 23 26  2  0  0  0  0
 23 27  1  0  0  0  0
 24 22  1  0  0  0  0
 24 28  2  0  0  0  0
 26 25  1  0  0  0  0
 28 23  1  0  0  0  0
M  END
>  <MODEL>
5

>  <REMARK>
 VINA RESULT:     -10.4      2.456      4.744
  Name = 
  2 active torsions:
  status: ('A' for Active; 'I' for Inactive)
    1  A    between atoms: C_1  and  C_2
    2  A    between atoms: N_10  and  C_13
                            x       y       z     vdW  Elec       q    Type
                         _______ _______ _______ _____ _____    ______ ____

>  <TORSDO>
F 2

$$$$
=
 OpenBabel10262420483D

 28 31  0  0  1  0  0  0  0  0999 V2000
  186.7250  178.2730  141.6140 C   0  0  0  0  0  0  0  0  0  0  0  0
  183.1130  179.0650  143.6130 O   0  0  0  0  0  1  0  0  0  0  0  0
  187.5850  177.2550  145.1000 N   0  0  2  0  0  0  0  0  0  0  0  0
  185.4590  178.4520  143.6990 C   0  0  0  0  0  0  0  0  0  0  0  0
  187.9110  177.9140  143.8320 C   0  0  0  0  0  2  0  0  0  0  0  0
  184.3820  178.9190  141.5770 C   0  0  0  0  0  3  0  0  0  0  0  0
  185.3670  178.2880  145.1950 C   0  0  0  0  0  2  0  0  0  0  0  0
  184.3170  178.8100  142.9670 C   0  0  0  0  0  0  0  0  0  0  0  0
  186.7500  178.2060  145.8410 C   0  0  0  0  0  2  0  0  0  0  0  0
  185.5770  178.6560  140.9070 C   0  0  0  0  0  3  0  0  0  0  0  0
  186.6670  178.1730  143.0210 C   0  0  0  0  0  0  0  0  0  0  0  0
  189.9950  177.7980  145.2190 C   0  0  0  0  0  2  0  0  0  0  0  0
  189.9620  177.8970  148.0010 C   0  0  0  0  0  2  0  0  0  0  0  0
  191.6300  176.4510  146.6940 C   0  0  0  0  0  0  0  0  0  0  0  0
  188.8300  177.0220  145.8480 C   0  0  1  0  0  3  0  0  0  0  0  0
  188.1140  176.3970  148.0570 F   0  0  0  0  0  0  0  0  0  0  0  0
  190.9930  176.8730  147.9100 N   0  0  0  0  0  2  0  0  0  0  0  0
  188.6650  177.4360  147.3290 C   0  0  1  0  0  3  0  0  0  0  0  0
  192.5200  175.5650  146.7610 O   0  0  0  0  0  0  0  0  0  0  0  0
  191.3100  177.0290  145.3370 C   0  0  0  0  0  2  0  0  0  0  0  0
  187.9670  178.0070  140.8580 C   0  0  0  0  0  0  0  0  0  0  0  0
  189.1080  177.5770  141.5500 C   0  0  0  0  0  3  0  0  0  0  0  0
  189.2300  177.9230  138.7800 C   0  0  0  0  0  0  0  0  0  0  0  0
  190.2960  177.3130  140.8660 C   0  0  0  0  0  3  0  0  0  0  0  0
  186.9400  178.6750  138.7540 O   0  0  0  0  0  1  0  0  0  0  0  0
  188.0380  178.1980  139.4620 C   0  0  0  0  0  0  0  0  0  0  0  0
  189.3040  178.0950  137.4370 F   0  0  0  0  0  0  0  0  0  0  0  0
  190.3550  177.4830  139.4810 C   0  0  0  0  0  3  0  0  0  0  0  0
  1 11  1  0  0  0  0
  3  5  1  6  0  0  0
  3  9  1  0  0  0  0
  3 15  1  0  0  0  0
  4  7  1  0  0  0  0
  6  8  2  0  0  0  0
  7  9  1  0  0  0  0
  8  2  1  0  0  0  0
  8  4  1  0  0  0  0
 10  6  1  0  0  0  0
 10  1  2  0  0  0  0
 11  4  2  0  0  0  0
 11  5  1  0  0  0  0
 12 20  1  0  0  0  0
 14 19  2  0  0  0  0
 14 17  1  0  0  0  0
 15 12  1  6  0  0  0
 15 18  1  0  0  0  0
 17 13  1  0  0  0  0
 18 13  1  0  0  0  0
 18 16  1  1  0  0  0
 20 14  1  0  0  0  0
 21 22  1  0  0  0  0
 21  1  1  0  0  0  0
 23 26  1  0  0  0  0
 23 28  2  0  0  0  0
 24 22  2  0  0  0  0
 25 26  1  0  0  0  0
 26 21  2  0  0  0  0
 27 23  1  0  0  0  0
 28 24  1  0  0  0  0
M  END
>  <MODEL>
6

>  <REMARK>
 VINA RESULT:     -10.2      2.617      6.199
  Name = 
  2 active torsions:
  status: ('A' for Active; 'I' for Inactive)
    1  A    between atoms: C_1  and  C_2
    2  A    between atoms: N_10  and  C_13
                            x       y       z     vdW  Elec       q    Type
                         _______ _______ _______ _____ _____    ______ ____

>  <TORSDO>
F 2

$$$$
=
 OpenBabel10262420483D

 28 31  0  0  1  0  0  0  0  0999 V2000
  184.1750  178.7010  142.9560 C   0  0  0  0  0  0  0  0  0  0  0  0
  184.9350  178.5100  147.0860 O   0  0  0  0  0  1  0  0  0  0  0  0
  187.5740  177.1610  142.9990 N   0  0  2  0  0  0  0  0  0  0  0  0
  185.7190  178.2640  144.8030 C   0  0  0  0  0  0  0  0  0  0  0  0
  186.5920  178.1000  142.4510 C   0  0  0  0  0  2  0  0  0  0  0  0
  183.4430  178.9680  145.2570 C   0  0  0  0  0  3  0  0  0  0  0  0
  187.0600  177.7960  145.3070 C   0  0  0  0  0  2  0  0  0  0  0  0
  184.7010  178.5780  145.7170 C   0  0  0  0  0  0  0  0  0  0  0  0
  188.1140  177.8050  144.2010 C   0  0  0  0  0  2  0  0  0  0  0  0
  183.1830  179.0310  143.8880 C   0  0  0  0  0  3  0  0  0  0  0  0
  185.4540  178.3170  143.4150 C   0  0  0  0  0  0  0  0  0  0  0  0
  188.6650  178.1290  141.0020 C   0  0  0  0  0  2  0  0  0  0  0  0
  191.2040  177.4050  141.8840 C   0  0  0  0  0  2  0  0  0  0  0  0
  190.3240  176.7790  139.5570 C   0  0  0  0  0  0  0  0  0  0  0  0
  188.6580  176.9820  142.0200 C   0  0  1  0  0  3  0  0  0  0  0  0
  190.2810  175.6070  143.1420 F   0  0  0  0  0  0  0  0  0  0  0  0
  191.2850  176.6880  140.6190 N   0  0  0  0  0  2  0  0  0  0  0  0
  190.0300  176.9030  142.7290 C   0  0  1  0  0  3  0  0  0  0  0  0
  190.5250  176.1150  138.5080 O   0  0  0  0  0  0  0  0  0  0  0  0
  189.0910  177.6480  139.6160 C   0  0  0  0  0  2  0  0  0  0  0  0
  183.8510  178.7850  141.5160 C   0  0  0  0  0  0  0  0  0  0  0  0
  184.8710  179.0890  140.6040 C   0  0  0  0  0  3  0  0  0  0  0  0
  182.2710  178.6690  139.6680 C   0  0  0  0  0  0  0  0  0  0  0  0
  184.5990  179.1730  139.2370 C   0  0  0  0  0  3  0  0  0  0  0  0
  181.4920  178.3420  141.9260 O   0  0  0  0  0  1  0  0  0  0  0  0
  182.5370  178.5920  141.0420 C   0  0  0  0  0  0  0  0  0  0  0  0
  181.0130  178.4750  139.2030 F   0  0  0  0  0  0  0  0  0  0  0  0
  183.3000  178.9600  138.7700 C   0  0  0  0  0  3  0  0  0  0  0  0
  1 11  2  0  0  0  0
  1 10  1  0  0  0  0
  3  5  1  6  0  0  0
  3  9  1  0  0  0  0
  4  7  1  0  0  0  0
  4  8  2  0  0  0  0
  5 11  1  0  0  0  0
  6  8  1  0  0  0  0
  8  2  1  0  0  0  0
  9  7  1  0  0  0  0
 10  6  2  0  0  0  0
 11  4  1  0  0  0  0
 13 18  1  0  0  0  0
 14 20  1  0  0  0  0
 14 17  1  0  0  0  0
 15 12  1  6  0  0  0
 15 18  1  0  0  0  0
 15  3  1  0  0  0  0
 17 13  1  0  0  0  0
 18 16  1  6  0  0  0
 19 14  2  0  0  0  0
 20 12  1  0  0  0  0
 21  1  1  0  0  0  0
 22 21  2  0  0  0  0
 23 26  2  0  0  0  0
 24 22  1  0  0  0  0
 26 21  1  0  0  0  0
 26 25  1  0  0  0  0
 27 23  1  0  0  0  0
 28 24  2  0  0  0  0
 28 23  1  0  0  0  0
M  END
>  <MODEL>
7

>  <REMARK>
 VINA RESULT:     -10.2      2.298      5.285
  Name = 
  2 active torsions:
  status: ('A' for Active; 'I' for Inactive)
    1  A    between atoms: C_1  and  C_2
    2  A    between atoms: N_10  and  C_13
                            x       y       z     vdW  Elec       q    Type
                         _______ _______ _______ _____ _____    ______ ____

>  <TORSDO>
F 2

$$$$
=
 OpenBabel10262420483D

 28 31  0  0  1  0  0  0  0  0999 V2000
  189.0160  177.4350  145.5510 C   0  0  0  0  0  0  0  0  0  0  0  0
  187.1310  178.1520  149.2390 O   0  0  0  0  0  1  0  0  0  0  0  0
  185.8360  179.0420  144.4420 N   0  0  2  0  0  0  0  0  0  0  0  0
  187.0400  178.1310  146.8150 C   0  0  0  0  0  0  0  0  0  0  0  0
  186.8790  178.0220  144.3080 C   0  0  0  0  0  2  0  0  0  0  0  0
  189.0510  177.4390  147.9810 C   0  0  0  0  0  3  0  0  0  0  0  0
  185.6390  178.6860  146.8570 C   0  0  0  0  0  2  0  0  0  0  0  0
  187.7380  177.9100  148.0120 C   0  0  0  0  0  0  0  0  0  0  0  0
  184.9420  178.5640  145.5020 C   0  0  0  0  0  2  0  0  0  0  0  0
  189.6830  177.2010  146.7610 C   0  0  0  0  0  3  0  0  0  0  0  0
  187.6830  177.9010  145.5780 C   0  0  0  0  0  0  0  0  0  0  0  0
  185.6850  178.1780  142.1300 C   0  0  0  0  0  2  0  0  0  0  0  0
  182.9020  178.1600  142.1850 C   0  0  0  0  0  2  0  0  0  0  0  0
  184.2360  179.3270  140.3300 C   0  0  0  0  0  0  0  0  0  0  0  0
  185.0850  179.1230  143.1790 C   0  0  1  0  0  3  0  0  0  0  0  0
  182.8990  179.9000  143.8100 F   0  0  0  0  0  0  0  0  0  0  0  0
  183.0140  179.0300  141.0220 N   0  0  0  0  0  2  0  0  0  0  0  0
  183.5950  178.7760  143.4040 C   0  0  1  0  0  3  0  0  0  0  0  0
  184.1870  180.0850  139.3260 O   0  0  0  0  0  0  0  0  0  0  0  0
  185.5790  178.7620  140.7220 C   0  0  0  0  0  2  0  0  0  0  0  0
  189.7290  177.1660  144.2850 C   0  0  0  0  0  0  0  0  0  0  0  0
  189.5040  175.9520  143.6200 C   0  0  0  0  0  3  0  0  0  0  0  0
  191.2950  177.8030  142.5340 C   0  0  0  0  0  0  0  0  0  0  0  0
  190.1590  175.6680  142.4200 C   0  0  0  0  0  3  0  0  0  0  0  0
  190.9320  179.2790  144.4050 O   0  0  0  0  0  1  0  0  0  0  0  0
  190.6470  178.0890  143.7420 C   0  0  0  0  0  0  0  0  0  0  0  0
  192.1710  178.6900  142.0010 F   0  0  0  0  0  0  0  0  0  0  0  0
  191.0510  176.5950  141.8760 C   0  0  0  0  0  3  0  0  0  0  0  0
  1 11  2  0  0  0  0
  1 10  1  0  0  0  0
  3  5  1  6  0  0  0
  3  9  1  0  0  0  0
  4  7  1  0  0  0  0
  4  8  2  0  0  0  0
  5 11  1  0  0  0  0
  6  8  1  0  0  0  0
  8  2  1  0  0  0  0
  9  7  1  0  0  0  0
 10  6  2  0  0  0  0
 11  4  1  0  0  0  0
 13 18  1  0  0  0  0
 14 20  1  0  0  0  0
 14 17  1  0  0  0  0
 15 12  1  6  0  0  0
 15 18  1  0  0  0  0
 15  3  1  0  0  0  0
 17 13  1  0  0  0  0
 18 16  1  6  0  0  0
 19 14  2  0  0  0  0
 20 12  1  0  0  0  0
 21  1  1  0  0  0  0
 22 21  2  0  0  0  0
 23 26  2  0  0  0  0
 24 22  1  0  0  0  0
 26 21  1  0  0  0  0
 26 25  1  0  0  0  0
 27 23  1  0  0  0  0
 28 24  2  0  0  0  0
 28 23  1  0  0  0  0
M  END
>  <MODEL>
8

>  <REMARK>
 VINA RESULT:     -10.1      2.920      5.846
  Name = 
  2 active torsions:
  status: ('A' for Active; 'I' for Inactive)
    1  A    between atoms: C_1  and  C_2
    2  A    between atoms: N_10  and  C_13
                            x       y       z     vdW  Elec       q    Type
                         _______ _______ _______ _____ _____    ______ ____

>  <TORSDO>
F 2

$$$$
=
 OpenBabel10262420483D

 28 31  0  0  1  0  0  0  0  0999 V2000
  185.6810  178.6010  141.4860 C   0  0  0  0  0  0  0  0  0  0  0  0
  187.8320  178.2560  137.8910 O   0  0  0  0  0  1  0  0  0  0  0  0
  189.1690  178.2250  142.7590 N   0  0  2  0  0  0  0  0  0  0  0  0
  187.7800  178.1470  140.3140 C   0  0  0  0  0  0  0  0  0  0  0  0
  187.7360  177.9240  142.8180 C   0  0  0  0  0  2  0  0  0  0  0  0
  185.7710  178.6660  139.0590 C   0  0  0  0  0  3  0  0  0  0  0  0
  189.2600  177.8630  140.3390 C   0  0  0  0  0  2  0  0  0  0  0  0
  187.1310  178.3570  139.0880 C   0  0  0  0  0  0  0  0  0  0  0  0
  189.7160  177.3610  141.7090 C   0  0  0  0  0  2  0  0  0  0  0  0
  185.0510  178.7840  140.2480 C   0  0  0  0  0  3  0  0  0  0  0  0
  187.0550  178.2770  141.5210 C   0  0  0  0  0  0  0  0  0  0  0  0
  188.9410  176.8130  144.7760 C   0  0  0  0  0  2  0  0  0  0  0  0
  191.6790  176.3330  144.9030 C   0  0  0  0  0  2  0  0  0  0  0  0
  190.3430  177.2260  146.9030 C   0  0  0  0  0  0  0  0  0  0  0  0
  189.7830  177.8670  144.0470 C   0  0  1  0  0  3  0  0  0  0  0  0
  192.1160  178.3890  143.7840 F   0  0  0  0  0  0  0  0  0  0  0  0
  191.5750  176.9010  146.2400 N   0  0  0  0  0  2  0  0  0  0  0  0
  191.2210  177.3360  143.8400 C   0  0  1  0  0  3  0  0  0  0  0  0
  190.3970  177.6970  148.0680 O   0  0  0  0  0  0  0  0  0  0  0  0
  188.9810  177.0110  146.2910 C   0  0  0  0  0  2  0  0  0  0  0  0
  184.8740  178.7350  142.7170 C   0  0  0  0  0  0  0  0  0  0  0  0
  185.5280  178.9110  143.9450 C   0  0  0  0  0  3  0  0  0  0  0  0
  182.7360  178.8100  143.8780 C   0  0  0  0  0  0  0  0  0  0  0  0
  184.7960  179.0440  145.1270 C   0  0  0  0  0  3  0  0  0  0  0  0
  182.7900  178.4400  141.4960 O   0  0  0  0  0  1  0  0  0  0  0  0
  183.4660  178.6670  142.6900 C   0  0  0  0  0  0  0  0  0  0  0  0
  181.3820  178.7560  143.8580 F   0  0  0  0  0  0  0  0  0  0  0  0
  183.4010  178.9970  145.0910 C   0  0  0  0  0  3  0  0  0  0  0  0
  1 11  1  0  0  0  0
  1 21  1  0  0  0  0
  2  8  1  0  0  0  0
  3  9  1  6  0  0  0
  3  5  1  0  0  0  0
  3 15  1  0  0  0  0
  4  7  1  0  0  0  0
  4 11  2  0  0  0  0
  6  8  2  0  0  0  0
  6 10  1  0  0  0  0
  7  9  1  0  0  0  0
  8  4  1  0  0  0  0
 10  1  2  0  0  0  0
 11  5  1  0  0  0  0
 12 20  1  0  0  0  0
 13 17  1  0  0  0  0
 14 19  2  0  0  0  0
 15 12  1  6  0  0  0
 17 14  1  0  0  0  0
 18 16  1  1  0  0  0
 18 15  1  0  0  0  0
 18 13  1  0  0  0  0
 20 14  1  0  0  0  0
 21 22  1  0  0  0  0
 22 24  2  0  0  0  0
 23 28  2  0  0  0  0
 25 26  1  0  0  0  0
 26 21  2  0  0  0  0
 26 23  1  0  0  0  0
 27 23  1  0  0  0  0
 28 24  1  0  0  0  0
M  END
>  <MODEL>
9

>  <REMARK>
 VINA RESULT:      -9.9      3.009      5.406
  Name = 
  2 active torsions:
  status: ('A' for Active; 'I' for Inactive)
    1  A    between atoms: C_1  and  C_2
    2  A    between atoms: N_10  and  C_13
                            x       y       z     vdW  Elec       q    Type
                         _______ _______ _______ _____ _____    ______ ____

>  <TORSDO>
F 2

$$$$
