=
 OpenBabel10262423223D

 34 39  0  0  1  0  0  0  0  0999 V2000
  186.2510  178.1350  143.6520 C   0  0  0  0  0  0  0  0  0  0  0  0
  188.9790  177.9700  146.2080 C   0  0  0  0  0  3  0  0  0  0  0  0
  186.5860  177.8400  146.5890 C   0  0  0  0  0  2  0  0  0  0  0  0
  184.5920  178.7020  141.9620 C   0  0  0  0  0  0  0  0  0  0  0  0
  185.9000  178.2660  142.2960 C   0  0  0  0  0  3  0  0  0  0  0  0
  184.0660  178.8290  144.2920 C   0  0  0  0  0  0  0  0  0  0  0  0
  183.3540  178.9930  145.4260 N   0  0  0  0  0  0  0  0  0  0  0  0
  183.6440  178.9830  142.9740 C   0  0  0  0  0  3  0  0  0  0  0  0
  185.3670  178.3520  145.8820 C   0  0  0  0  0  0  0  0  0  0  0  0
  185.3040  178.4330  144.5590 N   0  0  0  0  0  0  0  0  0  0  0  0
  184.1780  178.6850  146.4330 N   0  0  0  0  0  0  0  0  0  0  0  0
  190.2440  178.1100  145.4320 C   0  0  0  0  0  2  0  0  0  0  0  0
  190.5350  176.8830  144.6280 C   0  0  0  0  0  0  0  0  0  0  0  0
  189.7320  176.4940  143.6380 C   0  0  0  0  0  3  0  0  0  0  0  0
  187.7790  177.8080  145.6480 C   0  0  0  0  0  0  0  0  0  0  0  0
  188.4180  177.0830  143.3150 C   0  0  0  0  0  3  0  0  0  0  0  0
  187.5670  177.6910  144.1590 C   0  0  0  0  0  0  0  0  0  0  0  0
  191.8260  176.1530  144.8210 C   0  0  2  0  0  3  0  0  0  0  0  0
  191.8380  174.9320  144.0340 N   0  0  0  0  0  1  0  0  0  0  0  0
  192.0430  175.8220  146.2860 C   0  0  0  0  0  1  0  0  0  0  0  0
  184.2030  178.8520  140.5160 C   0  0  0  0  0  2  0  0  0  0  0  0
  183.7990  176.2520  137.8450 C   0  0  0  0  0  2  0  0  0  0  0  0
  182.3040  177.4320  140.0940 C   0  0  0  0  0  2  0  0  0  0  0  0
  180.7440  174.0010  138.0050 C   0  0  0  0  0  0  0  0  0  0  0  0
  181.9530  174.5820  137.5960 C   0  0  0  0  0  3  0  0  0  0  0  0
  182.4730  175.6900  138.2720 C   0  0  0  0  0  0  0  0  0  0  0  0
  180.5820  175.6400  139.7930 C   0  0  0  0  0  3  0  0  0  0  0  0
  181.7920  176.2080  139.3910 C   0  0  0  0  0  0  0  0  0  0  0  0
  180.0620  174.5390  139.1060 C   0  0  0  0  0  3  0  0  0  0  0  0
  183.7440  177.6080  139.8820 N   0  0  0  0  0  0  0  0  0  0  0  0
  184.0340  177.6360  138.4460 C   0  0  0  0  0  2  0  0  0  0  0  0
  180.2150  172.8690  137.3020 N   0  0  0  0  0  0  0  0  0  0  0  0
  180.3590  171.7160  137.7580 O   0  0  0  0  0  0  0  0  0  0  0  0
  179.5410  173.0410  136.1150 O   0  0  0  0  0  0  0  0  0  0  0  0
  1 17  1  0  0  0  0
  1 10  1  0  0  0  0
  4  5  1  0  0  0  0
  4  8  2  0  0  0  0
  5  1  2  0  0  0  0
  6 10  1  0  0  0  0
  6  7  2  0  0  0  0
  7 11  1  0  0  0  0
  8  6  1  0  0  0  0
  9 11  2  0  0  0  0
  9  3  1  0  0  0  0
 10  9  1  0  0  0  0
 12  2  1  0  0  0  0
 13 18  1  0  0  0  0
 13 12  1  0  0  0  0
 14 13  2  0  0  0  0
 15  2  2  0  0  0  0
 15  3  1  0  0  0  0
 16 14  1  0  0  0  0
 16 17  2  0  0  0  0
 17 15  1  0  0  0  0
 18 20  1  1  0  0  0
 19 18  1  0  0  0  0
 21  4  1  0  0  0  0
 22 26  1  0  0  0  0
 22 31  1  0  0  0  0
 24 29  1  0  0  0  0
 25 24  2  0  0  0  0
 25 26  1  0  0  0  0
 26 28  2  0  0  0  0
 28 27  1  0  0  0  0
 28 23  1  0  0  0  0
 29 27  2  0  0  0  0
 30 23  1  0  0  0  0
 30 21  1  0  0  0  0
 31 30  1  0  0  0  0
 32 33  2  0  0  0  0
 32 24  1  0  0  0  0
 34 32  2  0  0  0  0
M  END
>  <MODEL>
1

>  <REMARK>
 VINA RESULT:     -10.2      0.000      0.000
  Name = 
  4 active torsions:
  status: ('A' for Active; 'I' for Inactive)
    1  A    between atoms: C_3  and  C_25
    2  A    between atoms: C_7  and  N_11
    3  A    between atoms: C_8  and  C_18
    4  A    between atoms: C_18  and  N_30
                            x       y       z     vdW  Elec       q    Type
                         _______ _______ _______ _____ _____    ______ ____

>  <TORSDO>
F 4

$$$$
=
 OpenBabel10262423223D

 34 39  0  0  1  0  0  0  0  0999 V2000
  188.9060  177.4780  144.3860 C   0  0  0  0  0  0  0  0  0  0  0  0
  192.0160  177.1120  142.3370 C   0  0  0  0  0  3  0  0  0  0  0  0
  191.6230  176.2910  144.5870 C   0  0  0  0  0  2  0  0  0  0  0  0
  187.0140  178.1700  145.7530 C   0  0  0  0  0  0  0  0  0  0  0  0
  187.5920  177.9740  144.4730 C   0  0  0  0  0  3  0  0  0  0  0  0
  189.0290  177.3680  146.7600 C   0  0  0  0  0  0  0  0  0  0  0  0
  189.9030  176.9630  147.7050 N   0  0  0  0  0  0  0  0  0  0  0  0
  187.7360  177.8550  146.9280 C   0  0  0  0  0  3  0  0  0  0  0  0
  190.7480  176.7050  145.7320 C   0  0  0  0  0  0  0  0  0  0  0  0
  189.5360  177.2140  145.5430 N   0  0  0  0  0  0  0  0  0  0  0  0
  190.9900  176.5370  147.0520 N   0  0  0  0  0  0  0  0  0  0  0  0
  191.7160  177.8050  141.0520 C   0  0  0  0  0  2  0  0  0  0  0  0
  190.7390  177.0320  140.2250 C   0  0  0  0  0  0  0  0  0  0  0  0
  189.4900  176.8220  140.6390 C   0  0  0  0  0  3  0  0  0  0  0  0
  191.1040  176.8670  143.2800 C   0  0  0  0  0  0  0  0  0  0  0  0
  188.9600  177.1530  141.9760 C   0  0  0  0  0  3  0  0  0  0  0  0
  189.6440  177.2160  143.1310 C   0  0  0  0  0  0  0  0  0  0  0  0
  191.1060  176.6110  138.8370 C   0  0  2  0  0  3  0  0  0  0  0  0
  190.5970  175.2780  138.5630 N   0  0  0  0  0  1  0  0  0  0  0  0
  192.6110  176.6350  138.6470 C   0  0  0  0  0  1  0  0  0  0  0  0
  185.6120  178.7050  145.8630 C   0  0  0  0  0  2  0  0  0  0  0  0
  184.6080  178.7410  142.2500 C   0  0  0  0  0  2  0  0  0  0  0  0
  183.3960  178.8780  144.9330 C   0  0  0  0  0  2  0  0  0  0  0  0
  180.9040  178.5450  141.4340 C   0  0  0  0  0  0  0  0  0  0  0  0
  182.2970  178.6210  141.2990 C   0  0  0  0  0  3  0  0  0  0  0  0
  183.1160  178.7210  142.4270 C   0  0  0  0  0  0  0  0  0  0  0  0
  181.1510  178.6510  143.8490 C   0  0  0  0  0  3  0  0  0  0  0  0
  182.5390  178.7140  143.7120 C   0  0  0  0  0  0  0  0  0  0  0  0
  180.3370  178.5630  142.7170 C   0  0  0  0  0  3  0  0  0  0  0  0
  184.7790  178.4620  144.6760 N   0  0  0  0  0  0  0  0  0  0  0  0
  185.3110  179.1980  143.5260 C   0  0  0  0  0  2  0  0  0  0  0  0
  180.0710  178.4500  140.2700 N   0  0  0  0  0  0  0  0  0  0  0  0
  179.1240  177.6380  140.2330 O   0  0  0  0  0  0  0  0  0  0  0  0
  180.3090  179.2530  139.1790 O   0  0  0  0  0  0  0  0  0  0  0  0
  1  5  2  0  0  0  0
  1 10  1  0  0  0  0
  2 15  2  0  0  0  0
  3  9  1  0  0  0  0
  4 21  1  0  0  0  0
  4  8  2  0  0  0  0
  5  4  1  0  0  0  0
  6  8  1  0  0  0  0
  6  7  2  0  0  0  0
  9 11  2  0  0  0  0
 10  9  1  0  0  0  0
 10  6  1  0  0  0  0
 11  7  1  0  0  0  0
 12  2  1  0  0  0  0
 13 14  2  0  0  0  0
 13 12  1  0  0  0  0
 14 16  1  0  0  0  0
 15  3  1  0  0  0  0
 16 17  2  0  0  0  0
 17 15  1  0  0  0  0
 17  1  1  0  0  0  0
 18 20  1  1  0  0  0
 18 13  1  0  0  0  0
 19 18  1  0  0  0  0
 22 26  1  0  0  0  0
 22 31  1  0  0  0  0
 24 29  1  0  0  0  0
 25 24  2  0  0  0  0
 25 26  1  0  0  0  0
 26 28  2  0  0  0  0
 28 27  1  0  0  0  0
 28 23  1  0  0  0  0
 29 27  2  0  0  0  0
 30 23  1  0  0  0  0
 30 21  1  0  0  0  0
 31 30  1  0  0  0  0
 32 24  1  0  0  0  0
 33 32  2  0  0  0  0
 34 32  2  0  0  0  0
M  END
>  <MODEL>
2

>  <REMARK>
 VINA RESULT:     -10.0      3.129      5.307
  Name = 
  4 active torsions:
  status: ('A' for Active; 'I' for Inactive)
    1  A    between atoms: C_3  and  C_25
    2  A    between atoms: C_7  and  N_11
    3  A    between atoms: C_8  and  C_18
    4  A    between atoms: C_18  and  N_30
                            x       y       z     vdW  Elec       q    Type
                         _______ _______ _______ _____ _____    ______ ____

>  <TORSDO>
F 4

$$$$
=
 OpenBabel10262423223D

 34 39  0  0  1  0  0  0  0  0999 V2000
  186.4290  178.1780  144.0660 C   0  0  0  0  0  0  0  0  0  0  0  0
  188.0080  178.1720  147.4590 C   0  0  0  0  0  3  0  0  0  0  0  0
  185.6430  178.0510  146.9290 C   0  0  0  0  0  2  0  0  0  0  0  0
  185.5270  178.6390  141.8520 C   0  0  0  0  0  0  0  0  0  0  0  0
  186.6100  178.2300  142.6720 C   0  0  0  0  0  3  0  0  0  0  0  0
  184.1750  178.8950  143.8080 C   0  0  0  0  0  0  0  0  0  0  0  0
  183.0950  179.1200  144.5840 N   0  0  0  0  0  0  0  0  0  0  0  0
  184.2760  178.9720  142.4220 C   0  0  0  0  0  3  0  0  0  0  0  0
  184.7830  178.5150  145.7920 C   0  0  0  0  0  0  0  0  0  0  0  0
  185.2180  178.5220  144.5370 N   0  0  0  0  0  0  0  0  0  0  0  0
  183.4800  178.8740  145.8410 N   0  0  0  0  0  0  0  0  0  0  0  0
  189.4730  178.2750  147.2030 C   0  0  0  0  0  2  0  0  0  0  0  0
  190.0220  177.0050  146.6340 C   0  0  0  0  0  0  0  0  0  0  0  0
  189.6380  176.5570  145.4390 C   0  0  0  0  0  3  0  0  0  0  0  0
  187.0990  177.9720  146.5020 C   0  0  0  0  0  0  0  0  0  0  0  0
  188.5490  177.1190  144.6180 C   0  0  0  0  0  3  0  0  0  0  0  0
  187.4550  177.7700  145.0500 C   0  0  0  0  0  0  0  0  0  0  0  0
  191.1360  176.2940  147.3330 C   0  0  2  0  0  3  0  0  0  0  0  0
  191.8660  177.2150  148.1870 N   0  0  0  0  0  1  0  0  0  0  0  0
  192.0840  175.6610  146.3300 C   0  0  0  0  0  1  0  0  0  0  0  0
  185.7060  178.7050  140.3590 C   0  0  0  0  0  2  0  0  0  0  0  0
  188.5800  178.0370  138.0450 C   0  0  0  0  0  2  0  0  0  0  0  0
  187.8990  177.8710  140.9070 C   0  0  0  0  0  2  0  0  0  0  0  0
  191.9430  177.1870  139.5880 C   0  0  0  0  0  0  0  0  0  0  0  0
  190.9360  177.4590  138.6520 C   0  0  0  0  0  3  0  0  0  0  0  0
  189.6220  177.6910  139.0690 C   0  0  0  0  0  0  0  0  0  0  0  0
  190.3120  177.3990  141.3770 C   0  0  0  0  0  3  0  0  0  0  0  0
  189.3140  177.6820  140.4430 C   0  0  0  0  0  0  0  0  0  0  0  0
  191.6220  177.1570  140.9530 C   0  0  0  0  0  3  0  0  0  0  0  0
  187.1030  178.6000  139.9140 N   0  0  0  0  0  0  0  0  0  0  0  0
  187.1710  177.9110  138.6230 C   0  0  0  0  0  2  0  0  0  0  0  0
  193.2870  176.9440  139.1510 N   0  0  0  0  0  0  0  0  0  0  0  0
  193.5460  176.8180  137.9370 O   0  0  0  0  0  0  0  0  0  0  0  0
  194.3090  176.8470  140.0680 O   0  0  0  0  0  0  0  0  0  0  0  0
  1 10  1  0  0  0  0
  1 17  1  0  0  0  0
  4  8  2  0  0  0  0
  4  5  1  0  0  0  0
  5  1  2  0  0  0  0
  6 10  1  0  0  0  0
  6  7  2  0  0  0  0
  7 11  1  0  0  0  0
  8  6  1  0  0  0  0
  9 11  2  0  0  0  0
  9  3  1  0  0  0  0
 10  9  1  0  0  0  0
 12  2  1  0  0  0  0
 13 12  1  0  0  0  0
 13 18  1  0  0  0  0
 14 13  2  0  0  0  0
 15  3  1  0  0  0  0
 15  2  2  0  0  0  0
 16 17  2  0  0  0  0
 16 14  1  0  0  0  0
 17 15  1  0  0  0  0
 18 20  1  6  0  0  0
 18 19  1  0  0  0  0
 21  4  1  0  0  0  0
 22 31  1  0  0  0  0
 22 26  1  0  0  0  0
 24 29  1  0  0  0  0
 25 26  1  0  0  0  0
 25 24  2  0  0  0  0
 26 28  2  0  0  0  0
 28 23  1  0  0  0  0
 28 27  1  0  0  0  0
 29 27  2  0  0  0  0
 30 21  1  0  0  0  0
 30 23  1  0  0  0  0
 31 30  1  0  0  0  0
 32 24  1  0  0  0  0
 32 34  2  0  0  0  0
 33 32  2  0  0  0  0
M  END
>  <MODEL>
3

>  <REMARK>
 VINA RESULT:     -10.0      4.872      6.330
  Name = 
  4 active torsions:
  status: ('A' for Active; 'I' for Inactive)
    1  A    between atoms: C_3  and  C_25
    2  A    between atoms: C_7  and  N_11
    3  A    between atoms: C_8  and  C_18
    4  A    between atoms: C_18  and  N_30
                            x       y       z     vdW  Elec       q    Type
                         _______ _______ _______ _____ _____    ______ ____

>  <TORSDO>
F 4

$$$$
=
 OpenBabel10262423223D

 34 39  0  0  1  0  0  0  0  0999 V2000
  183.8140  178.6710  141.3910 C   0  0  0  0  0  0  0  0  0  0  0  0
  184.2090  177.6430  137.8150 C   0  0  0  0  0  3  0  0  0  0  0  0
  182.3350  178.8140  138.8180 C   0  0  0  0  0  2  0  0  0  0  0  0
  183.4940  178.8760  143.7960 C   0  0  0  0  0  0  0  0  0  0  0  0
  184.3610  178.6960  142.6870 C   0  0  0  0  0  3  0  0  0  0  0  0
  181.6390  179.0130  142.2940 C   0  0  0  0  0  0  0  0  0  0  0  0
  180.3790  179.1870  141.8450 N   0  0  0  0  0  0  0  0  0  0  0  0
  182.1030  179.0490  143.6050 C   0  0  0  0  0  3  0  0  0  0  0  0
  181.7360  178.8840  140.1900 C   0  0  0  0  0  0  0  0  0  0  0  0
  182.4830  178.8270  141.2870 N   0  0  0  0  0  0  0  0  0  0  0  0
  180.4420  179.1110  140.5110 N   0  0  0  0  0  0  0  0  0  0  0  0
  185.5300  176.9540  137.7540 C   0  0  0  0  0  2  0  0  0  0  0  0
  186.6610  177.9230  137.8970 C   0  0  0  0  0  0  0  0  0  0  0  0
  186.8440  178.6160  139.0200 C   0  0  0  0  0  3  0  0  0  0  0  0
  183.7670  178.3110  138.8820 C   0  0  0  0  0  0  0  0  0  0  0  0
  185.9140  178.6620  140.1650 C   0  0  0  0  0  3  0  0  0  0  0  0
  184.5810  178.4960  140.1390 C   0  0  0  0  0  0  0  0  0  0  0  0
  187.7050  178.0130  136.8300 C   0  0  2  0  0  3  0  0  0  0  0  0
  188.5960  179.1310  137.0890 N   0  0  0  0  0  1  0  0  0  0  0  0
  187.0650  178.1730  135.4630 C   0  0  0  0  0  1  0  0  0  0  0  0
  184.0630  178.9000  145.1890 C   0  0  0  0  0  2  0  0  0  0  0  0
  187.3730  177.4110  144.2470 C   0  0  0  0  0  2  0  0  0  0  0  0
  185.9000  178.3180  146.6340 C   0  0  0  0  0  2  0  0  0  0  0  0
  190.0440  177.1750  146.9360 C   0  0  0  0  0  0  0  0  0  0  0  0
  189.3800  177.0870  145.7040 C   0  0  0  0  0  3  0  0  0  0  0  0
  188.0380  177.4630  145.5930 C   0  0  0  0  0  0  0  0  0  0  0  0
  188.0130  178.0410  147.9490 C   0  0  0  0  0  3  0  0  0  0  0  0
  187.3570  177.9640  146.7190 C   0  0  0  0  0  0  0  0  0  0  0  0
  189.3510  177.6540  148.0570 C   0  0  0  0  0  3  0  0  0  0  0  0
  185.5060  178.6320  145.2560 N   0  0  0  0  0  0  0  0  0  0  0  0
  185.8540  177.5140  144.3750 C   0  0  0  0  0  2  0  0  0  0  0  0
  191.4190  176.7820  147.0420 N   0  0  0  0  0  0  0  0  0  0  0  0
  192.0740  177.0380  148.0730 O   0  0  0  0  0  0  0  0  0  0  0  0
  192.0320  176.1140  146.0070 O   0  0  0  0  0  0  0  0  0  0  0  0
  1  5  2  0  0  0  0
  2 15  2  0  0  0  0
  3 15  1  0  0  0  0
  3  9  1  0  0  0  0
  4 21  1  0  0  0  0
  5  4  1  0  0  0  0
  6  8  1  0  0  0  0
  7  6  2  0  0  0  0
  8  4  2  0  0  0  0
  9 11  2  0  0  0  0
  9 10  1  0  0  0  0
 10  1  1  0  0  0  0
 10  6  1  0  0  0  0
 11  7  1  0  0  0  0
 12  2  1  0  0  0  0
 12 13  1  0  0  0  0
 13 14  2  0  0  0  0
 14 16  1  0  0  0  0
 15 17  1  0  0  0  0
 17 16  2  0  0  0  0
 17  1  1  0  0  0  0
 18 20  1  6  0  0  0
 18 19  1  0  0  0  0
 18 13  1  0  0  0  0
 21 30  1  0  0  0  0
 22 31  1  0  0  0  0
 22 26  1  0  0  0  0
 23 28  1  0  0  0  0
 24 32  1  0  0  0  0
 24 29  1  0  0  0  0
 25 24  2  0  0  0  0
 26 25  1  0  0  0  0
 26 28  2  0  0  0  0
 27 29  2  0  0  0  0
 28 27  1  0  0  0  0
 30 23  1  0  0  0  0
 31 30  1  0  0  0  0
 32 33  2  0  0  0  0
 34 32  2  0  0  0  0
M  END
>  <MODEL>
4

>  <REMARK>
 VINA RESULT:      -9.9      4.507      8.896
  Name = 
  4 active torsions:
  status: ('A' for Active; 'I' for Inactive)
    1  A    between atoms: C_3  and  C_25
    2  A    between atoms: C_7  and  N_11
    3  A    between atoms: C_8  and  C_18
    4  A    between atoms: C_18  and  N_30
                            x       y       z     vdW  Elec       q    Type
                         _______ _______ _______ _____ _____    ______ ____

>  <TORSDO>
F 4

$$$$
=
 OpenBabel10262423223D

 34 39  0  0  1  0  0  0  0  0999 V2000
  189.5190  177.2610  144.7550 C   0  0  0  0  0  0  0  0  0  0  0  0
  191.9830  176.9770  141.9530 C   0  0  0  0  0  3  0  0  0  0  0  0
  192.0560  175.8570  144.1050 C   0  0  0  0  0  2  0  0  0  0  0  0
  188.1000  177.8780  146.6350 C   0  0  0  0  0  0  0  0  0  0  0  0
  188.3280  177.8350  145.2350 C   0  0  0  0  0  3  0  0  0  0  0  0
  190.1980  176.7840  146.9850 C   0  0  0  0  0  0  0  0  0  0  0  0
  191.2230  176.1770  147.6170 N   0  0  0  0  0  0  0  0  0  0  0  0
  189.0450  177.3360  147.5370 C   0  0  0  0  0  3  0  0  0  0  0  0
  191.5350  176.1580  145.4780 C   0  0  0  0  0  0  0  0  0  0  0  0
  190.3770  176.7790  145.6700 N   0  0  0  0  0  0  0  0  0  0  0  0
  192.0670  175.7740  146.6600 N   0  0  0  0  0  0  0  0  0  0  0  0
  191.4610  177.8780  140.8860 C   0  0  0  0  0  2  0  0  0  0  0  0
  190.2340  177.3130  140.2420 C   0  0  0  0  0  0  0  0  0  0  0  0
  189.1070  177.1380  140.9310 C   0  0  0  0  0  3  0  0  0  0  0  0
  191.3040  176.6620  143.0570 C   0  0  0  0  0  0  0  0  0  0  0  0
  188.9540  177.3010  142.3890 C   0  0  0  0  0  3  0  0  0  0  0  0
  189.8990  177.1380  143.3300 C   0  0  0  0  0  0  0  0  0  0  0  0
  190.2060  177.0810  138.7650 C   0  0  2  0  0  3  0  0  0  0  0  0
  188.8650  176.7260  138.3350 N   0  0  0  0  0  1  0  0  0  0  0  0
  191.1780  175.9830  138.3750 C   0  0  0  0  0  1  0  0  0  0  0  0
  186.8330  178.4930  147.1650 C   0  0  0  0  0  2  0  0  0  0  0  0
  183.4470  179.0030  145.6370 C   0  0  0  0  0  2  0  0  0  0  0  0
  186.1480  178.0880  144.8910 C   0  0  0  0  0  2  0  0  0  0  0  0
  183.1250  178.6400  141.8710 C   0  0  0  0  0  0  0  0  0  0  0  0
  182.8180  178.8650  143.2200 C   0  0  0  0  0  3  0  0  0  0  0  0
  183.7930  178.6970  144.2080 C   0  0  0  0  0  0  0  0  0  0  0  0
  185.4070  178.0920  142.5000 C   0  0  0  0  0  3  0  0  0  0  0  0
  185.1030  178.3290  143.8410 C   0  0  0  0  0  0  0  0  0  0  0  0
  184.4260  178.2510  141.5180 C   0  0  0  0  0  3  0  0  0  0  0  0
  185.8370  178.8070  146.1310 N   0  0  0  0  0  0  0  0  0  0  0  0
  184.4960  178.4390  146.5940 C   0  0  0  0  0  2  0  0  0  0  0  0
  182.1170  178.8090  140.8650 N   0  0  0  0  0  0  0  0  0  0  0  0
  182.4350  178.9910  139.6720 O   0  0  0  0  0  0  0  0  0  0  0  0
  180.7840  178.7700  141.2050 O   0  0  0  0  0  0  0  0  0  0  0  0
  1  5  2  0  0  0  0
  1 10  1  0  0  0  0
  2 15  2  0  0  0  0
  3  9  1  0  0  0  0
  4 21  1  0  0  0  0
  4  8  2  0  0  0  0
  5  4  1  0  0  0  0
  6  8  1  0  0  0  0
  6  7  2  0  0  0  0
  9 10  1  0  0  0  0
  9 11  2  0  0  0  0
 10  6  1  0  0  0  0
 11  7  1  0  0  0  0
 12  2  1  0  0  0  0
 13 12  1  0  0  0  0
 13 14  2  0  0  0  0
 14 16  1  0  0  0  0
 15 17  1  0  0  0  0
 15  3  1  0  0  0  0
 16 17  2  0  0  0  0
 17  1  1  0  0  0  0
 18 20  1  1  0  0  0
 18 13  1  0  0  0  0
 19 18  1  0  0  0  0
 22 31  1  0  0  0  0
 23 30  1  0  0  0  0
 24 25  1  0  0  0  0
 25 26  2  0  0  0  0
 26 22  1  0  0  0  0
 27 28  2  0  0  0  0
 28 26  1  0  0  0  0
 28 23  1  0  0  0  0
 29 24  2  0  0  0  0
 29 27  1  0  0  0  0
 30 31  1  0  0  0  0
 30 21  1  0  0  0  0
 32 34  2  0  0  0  0
 32 24  1  0  0  0  0
 33 32  2  0  0  0  0
M  END
>  <MODEL>
5

>  <REMARK>
 VINA RESULT:      -9.5      3.466      6.344
  Name = 
  4 active torsions:
  status: ('A' for Active; 'I' for Inactive)
    1  A    between atoms: C_3  and  C_25
    2  A    between atoms: C_7  and  N_11
    3  A    between atoms: C_8  and  C_18
    4  A    between atoms: C_18  and  N_30
                            x       y       z     vdW  Elec       q    Type
                         _______ _______ _______ _____ _____    ______ ____

>  <TORSDO>
F 4

$$$$
=
 OpenBabel10262423223D

 34 39  0  0  1  0  0  0  0  0999 V2000
  185.3580  178.3790  142.5540 C   0  0  0  0  0  0  0  0  0  0  0  0
  185.3890  178.7110  146.2810 C   0  0  0  0  0  3  0  0  0  0  0  0
  183.4670  178.3390  144.8460 C   0  0  0  0  0  2  0  0  0  0  0  0
  185.4260  178.6290  140.1330 C   0  0  0  0  0  0  0  0  0  0  0  0
  186.0960  178.3690  141.3570 C   0  0  0  0  0  3  0  0  0  0  0  0
  183.3720  178.8660  141.3360 C   0  0  0  0  0  0  0  0  0  0  0  0
  182.0560  179.0320  141.5820 N   0  0  0  0  0  0  0  0  0  0  0  0
  184.0330  178.8740  140.1110 C   0  0  0  0  0  3  0  0  0  0  0  0
  183.1280  178.6570  143.4210 C   0  0  0  0  0  0  0  0  0  0  0  0
  184.0410  178.6330  142.4580 N   0  0  0  0  0  0  0  0  0  0  0  0
  181.9010  178.8930  142.9030 N   0  0  0  0  0  0  0  0  0  0  0  0
  186.8190  178.9370  146.6380 C   0  0  0  0  0  2  0  0  0  0  0  0
  187.6320  177.6940  146.4580 C   0  0  0  0  0  0  0  0  0  0  0  0
  187.8060  177.1460  145.2550 C   0  0  0  0  0  3  0  0  0  0  0  0
  184.9720  178.3740  145.0600 C   0  0  0  0  0  0  0  0  0  0  0  0
  187.1200  177.5570  144.0150 C   0  0  0  0  0  3  0  0  0  0  0  0
  185.9080  178.1250  143.9040 C   0  0  0  0  0  0  0  0  0  0  0  0
  188.3990  177.1310  147.6110 C   0  0  2  0  0  3  0  0  0  0  0  0
  188.3070  178.0160  148.7590 N   0  0  0  0  0  1  0  0  0  0  0  0
  189.8560  176.9230  147.2380 C   0  0  0  0  0  1  0  0  0  0  0  0
  186.2020  178.6270  138.8440 C   0  0  0  0  0  2  0  0  0  0  0  0
  189.8040  177.7390  139.3850 C   0  0  0  0  0  2  0  0  0  0  0  0
  187.5550  177.0690  137.6020 C   0  0  0  0  0  2  0  0  0  0  0  0
  191.2380  174.8430  137.3920 C   0  0  0  0  0  0  0  0  0  0  0  0
  191.1150  175.9130  138.2890 C   0  0  0  0  0  3  0  0  0  0  0  0
  189.9230  176.6370  138.3720 C   0  0  0  0  0  0  0  0  0  0  0  0
  188.9490  175.2120  136.6660 C   0  0  0  0  0  3  0  0  0  0  0  0
  188.8250  176.2690  137.5700 C   0  0  0  0  0  0  0  0  0  0  0  0
  190.1480  174.4980  136.5800 C   0  0  0  0  0  3  0  0  0  0  0  0
  187.4120  177.7940  138.8700 N   0  0  0  0  0  0  0  0  0  0  0  0
  188.5950  178.6270  139.1000 C   0  0  0  0  0  2  0  0  0  0  0  0
  192.4680  174.1090  137.3100 N   0  0  0  0  0  0  0  0  0  0  0  0
  193.4650  174.4670  137.9690 O   0  0  0  0  0  0  0  0  0  0  0  0
  192.5620  173.0000  136.5000 O   0  0  0  0  0  0  0  0  0  0  0  0
  1 17  1  0  0  0  0
  2 12  1  0  0  0  0
  3 15  1  0  0  0  0
  4  5  1  0  0  0  0
  5  1  2  0  0  0  0
  6  7  2  0  0  0  0
  6 10  1  0  0  0  0
  7 11  1  0  0  0  0
  8  4  2  0  0  0  0
  8  6  1  0  0  0  0
  9  3  1  0  0  0  0
 10  1  1  0  0  0  0
 10  9  1  0  0  0  0
 11  9  2  0  0  0  0
 13 12  1  0  0  0  0
 13 18  1  0  0  0  0
 14 13  2  0  0  0  0
 15  2  2  0  0  0  0
 16 14  1  0  0  0  0
 17 16  2  0  0  0  0
 17 15  1  0  0  0  0
 18 20  1  6  0  0  0
 18 19  1  0  0  0  0
 21 30  1  0  0  0  0
 21  4  1  0  0  0  0
 23 30  1  0  0  0  0
 24 25  1  0  0  0  0
 25 26  2  0  0  0  0
 26 22  1  0  0  0  0
 27 28  2  0  0  0  0
 28 23  1  0  0  0  0
 28 26  1  0  0  0  0
 29 27  1  0  0  0  0
 29 24  2  0  0  0  0
 30 31  1  0  0  0  0
 31 22  1  0  0  0  0
 32 24  1  0  0  0  0
 32 33  2  0  0  0  0
 34 32  2  0  0  0  0
M  END
>  <MODEL>
6

>  <REMARK>
 VINA RESULT:      -9.5      4.568      6.265
  Name = 
  4 active torsions:
  status: ('A' for Active; 'I' for Inactive)
    1  A    between atoms: C_3  and  C_25
    2  A    between atoms: C_7  and  N_11
    3  A    between atoms: C_8  and  C_18
    4  A    between atoms: C_18  and  N_30
                            x       y       z     vdW  Elec       q    Type
                         _______ _______ _______ _____ _____    ______ ____

>  <TORSDO>
F 4

$$$$
=
 OpenBabel10262423223D

 34 39  0  0  1  0  0  0  0  0999 V2000
  186.7740  178.1750  144.1650 C   0  0  0  0  0  0  0  0  0  0  0  0
  188.1820  178.2000  147.6310 C   0  0  0  0  0  3  0  0  0  0  0  0
  185.8440  178.1380  146.9870 C   0  0  0  0  0  2  0  0  0  0  0  0
  185.9970  178.6120  141.8990 C   0  0  0  0  0  0  0  0  0  0  0  0
  187.0250  178.1890  142.7810 C   0  0  0  0  0  3  0  0  0  0  0  0
  184.5580  178.9540  143.7790 C   0  0  0  0  0  0  0  0  0  0  0  0
  183.4490  179.2290  144.4960 N   0  0  0  0  0  0  0  0  0  0  0  0
  184.7300  178.9950  142.3980 C   0  0  0  0  0  3  0  0  0  0  0  0
  185.0560  178.6020  145.7990 C   0  0  0  0  0  0  0  0  0  0  0  0
  185.5520  178.5660  144.5680 N   0  0  0  0  0  0  0  0  0  0  0  0
  183.7640  179.0010  145.7750 N   0  0  0  0  0  0  0  0  0  0  0  0
  189.6610  178.2520  147.4470 C   0  0  0  0  0  2  0  0  0  0  0  0
  190.1970  176.9530  146.9340 C   0  0  0  0  0  0  0  0  0  0  0  0
  189.8580  176.4900  145.7310 C   0  0  0  0  0  3  0  0  0  0  0  0
  187.3160  178.0060  146.6360 C   0  0  0  0  0  0  0  0  0  0  0  0
  188.8290  177.0660  144.8450 C   0  0  0  0  0  3  0  0  0  0  0  0
  187.7370  177.7590  145.2080 C   0  0  0  0  0  0  0  0  0  0  0  0
  191.2520  176.2250  147.7030 C   0  0  2  0  0  3  0  0  0  0  0  0
  192.0560  177.1620  148.4690 N   0  0  0  0  0  1  0  0  0  0  0  0
  192.1440  175.4260  146.7700 C   0  0  0  0  0  1  0  0  0  0  0  0
  186.2510  178.6370  140.4160 C   0  0  0  0  0  2  0  0  0  0  0  0
  189.8960  177.7610  140.3250 C   0  0  0  0  0  2  0  0  0  0  0  0
  187.5550  177.8770  138.5390 C   0  0  0  0  0  2  0  0  0  0  0  0
  191.2590  176.1560  137.1650 C   0  0  0  0  0  0  0  0  0  0  0  0
  191.1710  176.6940  138.4570 C   0  0  0  0  0  3  0  0  0  0  0  0
  189.9720  177.2470  138.9160 C   0  0  0  0  0  0  0  0  0  0  0  0
  188.9230  176.7130  136.7940 C   0  0  0  0  0  3  0  0  0  0  0  0
  188.8350  177.2360  138.0860 C   0  0  0  0  0  0  0  0  0  0  0  0
  190.1270  176.1710  136.3370 C   0  0  0  0  0  3  0  0  0  0  0  0
  187.4760  177.9380  140.0020 N   0  0  0  0  0  0  0  0  0  0  0  0
  188.6550  178.6270  140.5330 C   0  0  0  0  0  2  0  0  0  0  0  0
  192.4940  175.5960  136.7000 N   0  0  0  0  0  0  0  0  0  0  0  0
  193.0160  176.0020  135.6420 O   0  0  0  0  0  0  0  0  0  0  0  0
  193.1200  174.6030  137.4180 O   0  0  0  0  0  0  0  0  0  0  0  0
  1 10  1  0  0  0  0
  1 17  1  0  0  0  0
  4  8  2  0  0  0  0
  4  5  1  0  0  0  0
  5  1  2  0  0  0  0
  6  7  2  0  0  0  0
  6 10  1  0  0  0  0
  7 11  1  0  0  0  0
  8  6  1  0  0  0  0
  9  3  1  0  0  0  0
 10  9  1  0  0  0  0
 11  9  2  0  0  0  0
 12  2  1  0  0  0  0
 13 12  1  0  0  0  0
 13 18  1  0  0  0  0
 14 13  2  0  0  0  0
 15  3  1  0  0  0  0
 15  2  2  0  0  0  0
 16 17  2  0  0  0  0
 16 14  1  0  0  0  0
 17 15  1  0  0  0  0
 18 20  1  6  0  0  0
 18 19  1  0  0  0  0
 21  4  1  0  0  0  0
 22 31  1  0  0  0  0
 23 30  1  0  0  0  0
 24 25  1  0  0  0  0
 25 26  2  0  0  0  0
 26 22  1  0  0  0  0
 27 28  2  0  0  0  0
 28 23  1  0  0  0  0
 28 26  1  0  0  0  0
 29 27  1  0  0  0  0
 29 24  2  0  0  0  0
 30 21  1  0  0  0  0
 30 31  1  0  0  0  0
 32 24  1  0  0  0  0
 32 34  2  0  0  0  0
 33 32  2  0  0  0  0
M  END
>  <MODEL>
7

>  <REMARK>
 VINA RESULT:      -9.5      4.828      6.000
  Name = 
  4 active torsions:
  status: ('A' for Active; 'I' for Inactive)
    1  A    between atoms: C_3  and  C_25
    2  A    between atoms: C_7  and  N_11
    3  A    between atoms: C_8  and  C_18
    4  A    between atoms: C_18  and  N_30
                            x       y       z     vdW  Elec       q    Type
                         _______ _______ _______ _____ _____    ______ ____

>  <TORSDO>
F 4

$$$$
=
 OpenBabel10262423223D

 34 39  0  0  1  0  0  0  0  0999 V2000
  187.3240  178.0760  140.7810 C   0  0  0  0  0  0  0  0  0  0  0  0
  189.1730  176.6930  137.8360 C   0  0  0  0  0  3  0  0  0  0  0  0
  187.3700  178.3180  137.8190 C   0  0  0  0  0  2  0  0  0  0  0  0
  185.9250  178.5450  142.7180 C   0  0  0  0  0  0  0  0  0  0  0  0
  187.1560  178.0910  142.1770 C   0  0  0  0  0  3  0  0  0  0  0  0
  185.1280  178.9500  140.5000 C   0  0  0  0  0  0  0  0  0  0  0  0
  184.3270  179.3520  139.4920 N   0  0  0  0  0  0  0  0  0  0  0  0
  184.8860  178.9950  141.8700 C   0  0  0  0  0  3  0  0  0  0  0  0
  186.2100  178.6280  138.7170 C   0  0  0  0  0  0  0  0  0  0  0  0
  186.2890  178.5040  140.0370 N   0  0  0  0  0  0  0  0  0  0  0  0
  185.0150  179.1530  138.3630 N   0  0  0  0  0  0  0  0  0  0  0  0
  190.1580  175.7350  138.4130 C   0  0  0  0  0  2  0  0  0  0  0  0
  191.2610  176.4480  139.1300 C   0  0  0  0  0  0  0  0  0  0  0  0
  191.0230  177.1770  140.2200 C   0  0  0  0  0  3  0  0  0  0  0  0
  188.4300  177.5270  138.5670 C   0  0  0  0  0  0  0  0  0  0  0  0
  189.6910  177.5160  140.7550 C   0  0  0  0  0  3  0  0  0  0  0  0
  188.5430  177.6380  140.0670 C   0  0  0  0  0  0  0  0  0  0  0  0
  192.6820  176.2230  138.7240 C   0  0  2  0  0  3  0  0  0  0  0  0
  193.5580  177.1560  139.4130 N   0  0  0  0  0  1  0  0  0  0  0  0
  192.8440  176.3800  137.2230 C   0  0  0  0  0  1  0  0  0  0  0  0
  185.7280  178.5620  144.2090 C   0  0  0  0  0  2  0  0  0  0  0  0
  187.6180  177.3160  147.1980 C   0  0  0  0  0  2  0  0  0  0  0  0
  188.1050  178.2520  144.4470 C   0  0  0  0  0  2  0  0  0  0  0  0
  191.3210  176.5870  146.7810 C   0  0  0  0  0  0  0  0  0  0  0  0
  190.0420  176.7160  147.3400 C   0  0  0  0  0  3  0  0  0  0  0  0
  188.9890  177.2470  146.5890 C   0  0  0  0  0  0  0  0  0  0  0  0
  190.4840  177.5120  144.6960 C   0  0  0  0  0  3  0  0  0  0  0  0
  189.2080  177.6270  145.2510 C   0  0  0  0  0  0  0  0  0  0  0  0
  191.5350  176.9900  145.4550 C   0  0  0  0  0  3  0  0  0  0  0  0
  186.7860  177.8770  144.9660 N   0  0  0  0  0  0  0  0  0  0  0  0
  186.6960  178.2240  146.3870 C   0  0  0  0  0  2  0  0  0  0  0  0
  192.3970  176.0470  147.5610 N   0  0  0  0  0  0  0  0  0  0  0  0
  192.9760  175.0010  147.2040 O   0  0  0  0  0  0  0  0  0  0  0  0
  192.8040  176.6790  148.7140 O   0  0  0  0  0  0  0  0  0  0  0  0
  1  5  2  0  0  0  0
  2 12  1  0  0  0  0
  2 15  2  0  0  0  0
  3 15  1  0  0  0  0
  3  9  1  0  0  0  0
  4 21  1  0  0  0  0
  5  4  1  0  0  0  0
  6  8  1  0  0  0  0
  7  6  2  0  0  0  0
  8  4  2  0  0  0  0
  9 10  1  0  0  0  0
 10  6  1  0  0  0  0
 10  1  1  0  0  0  0
 11  9  2  0  0  0  0
 11  7  1  0  0  0  0
 12 13  1  0  0  0  0
 13 14  2  0  0  0  0
 14 16  1  0  0  0  0
 15 17  1  0  0  0  0
 17 16  2  0  0  0  0
 17  1  1  0  0  0  0
 18 20  1  6  0  0  0
 18 13  1  0  0  0  0
 18 19  1  0  0  0  0
 21 30  1  0  0  0  0
 23 30  1  0  0  0  0
 23 28  1  0  0  0  0
 24 25  1  0  0  0  0
 24 32  1  0  0  0  0
 26 22  1  0  0  0  0
 26 25  2  0  0  0  0
 27 28  2  0  0  0  0
 27 29  1  0  0  0  0
 28 26  1  0  0  0  0
 29 24  2  0  0  0  0
 30 31  1  0  0  0  0
 31 22  1  0  0  0  0
 32 34  2  0  0  0  0
 33 32  2  0  0  0  0
M  END
>  <MODEL>
8

>  <REMARK>
 VINA RESULT:      -9.5      5.234      8.915
  Name = 
  4 active torsions:
  status: ('A' for Active; 'I' for Inactive)
    1  A    between atoms: C_3  and  C_25
    2  A    between atoms: C_7  and  N_11
    3  A    between atoms: C_8  and  C_18
    4  A    between atoms: C_18  and  N_30
                            x       y       z     vdW  Elec       q    Type
                         _______ _______ _______ _____ _____    ______ ____

>  <TORSDO>
F 4

$$$$
=
 OpenBabel10262423223D

 34 39  0  0  1  0  0  0  0  0999 V2000
  188.7050  177.6290  141.1980 C   0  0  0  0  0  0  0  0  0  0  0  0
  187.9140  177.6740  144.8550 C   0  0  0  0  0  3  0  0  0  0  0  0
  190.0530  178.1220  143.8000 C   0  0  0  0  0  2  0  0  0  0  0  0
  189.1780  177.1290  138.8620 C   0  0  0  0  0  0  0  0  0  0  0  0
  188.2410  177.4300  139.8850 C   0  0  0  0  0  3  0  0  0  0  0  0
  190.9410  177.2580  140.4730 C   0  0  0  0  0  0  0  0  0  0  0  0
  192.1840  177.2740  140.9960 N   0  0  0  0  0  0  0  0  0  0  0  0
  190.5600  177.0480  139.1500 C   0  0  0  0  0  3  0  0  0  0  0  0
  190.7160  177.7040  142.5220 C   0  0  0  0  0  0  0  0  0  0  0  0
  190.0300  177.5220  141.4000 N   0  0  0  0  0  0  0  0  0  0  0  0
  192.0410  177.5630  142.2930 N   0  0  0  0  0  0  0  0  0  0  0  0
  186.4690  177.3190  144.9430 C   0  0  0  0  0  2  0  0  0  0  0  0
  185.5990  178.4330  144.4510 C   0  0  0  0  0  0  0  0  0  0  0  0
  185.6340  178.8320  143.1800 C   0  0  0  0  0  3  0  0  0  0  0  0
  188.5480  177.9330  143.7100 C   0  0  0  0  0  0  0  0  0  0  0  0
  186.6030  178.3810  142.1630 C   0  0  0  0  0  3  0  0  0  0  0  0
  187.8590  177.9510  142.3680 C   0  0  0  0  0  0  0  0  0  0  0  0
  184.5540  179.0150  145.3490 C   0  0  2  0  0  3  0  0  0  0  0  0
  184.6200  178.4020  146.6640 N   0  0  0  0  0  1  0  0  0  0  0  0
  183.1690  178.8220  144.7590 C   0  0  0  0  0  1  0  0  0  0  0  0
  188.6960  176.9080  137.4540 C   0  0  0  0  0  2  0  0  0  0  0  0
  188.2940  173.5800  135.7750 C   0  0  0  0  0  2  0  0  0  0  0  0
  186.6930  175.5940  137.2130 C   0  0  0  0  0  2  0  0  0  0  0  0
  184.9660  171.7900  136.1550 C   0  0  0  0  0  0  0  0  0  0  0  0
  186.2860  172.0890  135.7880 C   0  0  0  0  0  3  0  0  0  0  0  0
  186.8590  173.3160  136.1330 C   0  0  0  0  0  0  0  0  0  0  0  0
  184.7970  173.9580  137.2390 C   0  0  0  0  0  3  0  0  0  0  0  0
  186.1150  174.2480  136.8830 C   0  0  0  0  0  0  0  0  0  0  0  0
  184.2260  172.7340  136.8820 C   0  0  0  0  0  3  0  0  0  0  0  0
  188.1590  175.5640  137.2030 N   0  0  0  0  0  0  0  0  0  0  0  0
  188.6350  175.0630  135.9110 C   0  0  0  0  0  2  0  0  0  0  0  0
  184.3840  170.5310  135.7910 N   0  0  0  0  0  0  0  0  0  0  0  0
  183.3080  170.1580  136.3020 O   0  0  0  0  0  0  0  0  0  0  0  0
  185.0070  169.7180  134.8720 O   0  0  0  0  0  0  0  0  0  0  0  0
  1 10  1  0  0  0  0
  1 17  1  0  0  0  0
  2 12  1  0  0  0  0
  4  8  2  0  0  0  0
  4  5  1  0  0  0  0
  5  1  2  0  0  0  0
  6  7  2  0  0  0  0
  6 10  1  0  0  0  0
  7 11  1  0  0  0  0
  8  6  1  0  0  0  0
  9  3  1  0  0  0  0
 10  9  1  0  0  0  0
 11  9  2  0  0  0  0
 13 12  1  0  0  0  0
 13 18  1  0  0  0  0
 14 13  2  0  0  0  0
 15  3  1  0  0  0  0
 15  2  2  0  0  0  0
 16 17  2  0  0  0  0
 16 14  1  0  0  0  0
 17 15  1  0  0  0  0
 18 20  1  6  0  0  0
 18 19  1  0  0  0  0
 21  4  1  0  0  0  0
 22 31  1  0  0  0  0
 22 26  1  0  0  0  0
 24 29  1  0  0  0  0
 25 26  1  0  0  0  0
 25 24  2  0  0  0  0
 26 28  2  0  0  0  0
 28 23  1  0  0  0  0
 28 27  1  0  0  0  0
 29 27  2  0  0  0  0
 30 23  1  0  0  0  0
 30 21  1  0  0  0  0
 31 30  1  0  0  0  0
 32 24  1  0  0  0  0
 32 33  2  0  0  0  0
 34 32  2  0  0  0  0
M  END
>  <MODEL>
9

>  <REMARK>
 VINA RESULT:      -9.3      3.509      5.874
  Name = 
  4 active torsions:
  status: ('A' for Active; 'I' for Inactive)
    1  A    between atoms: C_3  and  C_25
    2  A    between atoms: C_7  and  N_11
    3  A    between atoms: C_8  and  C_18
    4  A    between atoms: C_18  and  N_30
                            x       y       z     vdW  Elec       q    Type
                         _______ _______ _______ _____ _____    ______ ____

>  <TORSDO>
F 4

$$$$
