=
 OpenBabel10262419493D

 25 28  0  0  1  0  0  0  0  0999 V2000
  187.1820  177.8410  145.3910 C   0  0  0  0  0  0  0  0  0  0  0  0
  188.4820  177.4340  145.0430 C   0  0  0  0  0  0  0  0  0  0  0  0
  187.7490  177.7600  147.7630 C   0  0  0  0  0  3  0  0  0  0  0  0
  186.1060  178.1350  144.5350 C   0  0  0  0  0  0  0  0  0  0  0  0
  183.7630  178.7960  143.1680 C   0  0  0  0  0  3  0  0  0  0  0  0
  189.0460  177.3540  147.4260 C   0  0  0  0  0  3  0  0  0  0  0  0
  184.9570  178.5110  145.2270 C   0  0  0  0  0  0  0  0  0  0  0  0
  183.7750  178.8450  144.5690 C   0  0  0  0  0  3  0  0  0  0  0  0
  190.7150  176.7850  145.7110 C   0  0  0  0  0  0  0  0  0  0  0  0
  191.7660  176.5060  146.7320 C   0  0  0  0  0  1  0  0  0  0  0  0
  188.8520  177.2730  143.7460 N   0  0  0  0  0  0  0  0  0  0  0  0
  184.9160  178.4200  142.4550 C   0  0  0  0  0  3  0  0  0  0  0  0
  186.8410  177.9960  146.7350 C   0  0  0  0  0  0  0  0  0  0  0  0
  185.2360  178.4890  146.8880 S   0  0  0  0  0  0  0  0  0  0  0  0
  191.0260  176.6410  144.3960 N   0  0  0  0  0  0  0  0  0  0  0  0
  186.0970  178.0870  143.1370 C   0  0  0  0  0  3  0  0  0  0  0  0
  190.1110  176.8810  143.4200 C   0  0  0  0  0  0  0  0  0  0  0  0
  189.4210  177.1900  146.0760 C   0  0  0  0  0  0  0  0  0  0  0  0
  190.5630  176.6800  141.7050 S   0  0  0  0  0  0  0  0  0  0  0  0
  189.1340  177.6630  141.1380 C   0  0  0  0  0  2  0  0  0  0  0  0
  188.7330  177.3280  139.6970 C   0  0  2  0  0  3  0  0  0  0  0  0
  189.9460  176.7590  138.9630 C   0  0  0  0  0  1  0  0  0  0  0  0
  188.1730  178.4920  138.9950 N   0  0  0  0  0  0  0  0  0  0  0  0
  186.9470  178.0840  138.3240 C   0  0  0  0  0  1  0  0  0  0  0  0
  189.0820  178.8710  137.9210 C   0  0  0  0  0  1  0  0  0  0  0  0
  1 13  1  0  0  0  0
  2  1  2  0  0  0  0
  2 18  1  0  0  0  0
  4  7  1  0  0  0  0
  4  1  1  0  0  0  0
  5  8  1  0  0  0  0
  6  3  1  0  0  0  0
  7 14  1  0  0  0  0
  8  7  2  0  0  0  0
  9 18  1  0  0  0  0
  9 10  1  0  0  0  0
 11  2  1  0  0  0  0
 12 16  1  0  0  0  0
 12  5  2  0  0  0  0
 13 14  1  0  0  0  0
 13  3  2  0  0  0  0
 15  9  2  0  0  0  0
 16  4  2  0  0  0  0
 17 11  2  0  0  0  0
 17 15  1  0  0  0  0
 18  6  2  0  0  0  0
 19 17  1  0  0  0  0
 20 19  1  0  0  0  0
 21 22  1  6  0  0  0
 21 20  1  0  0  0  0
 23 21  1  0  0  0  0
 24 23  1  0  0  0  0
 25 23  1  0  0  0  0
M  END
>  <MODEL>
1

>  <REMARK>
 VINA RESULT:      -9.9      0.000      0.000
  Name = 
  4 active torsions:
  status: ('A' for Active; 'I' for Inactive)
    1  A    between atoms: N_2  and  C_21
    2  A    between atoms: S_6  and  C_15
    3  A    between atoms: S_6  and  C_23
    4  A    between atoms: C_15  and  C_21
                            x       y       z     vdW  Elec       q    Type
                         _______ _______ _______ _____ _____    ______ ____

>  <TORSDO>
F 4

$$$$
=
 OpenBabel10262419493D

 25 28  0  0  1  0  0  0  0  0999 V2000
  185.9610  178.3660  144.5190 C   0  0  0  0  0  0  0  0  0  0  0  0
  186.0550  178.4460  143.1180 C   0  0  0  0  0  0  0  0  0  0  0  0
  183.5800  178.8960  144.4270 C   0  0  0  0  0  3  0  0  0  0  0  0
  186.9790  178.0760  145.4430 C   0  0  0  0  0  0  0  0  0  0  0  0
  188.7210  177.5390  147.5580 C   0  0  0  0  0  3  0  0  0  0  0  0
  183.6650  178.9770  143.0320 C   0  0  0  0  0  3  0  0  0  0  0  0
  186.5270  178.0800  146.7600 C   0  0  0  0  0  0  0  0  0  0  0  0
  187.3750  177.8160  147.8340 C   0  0  0  0  0  3  0  0  0  0  0  0
  185.0040  178.8280  140.9740 C   0  0  0  0  0  0  0  0  0  0  0  0
  183.8300  179.1470  140.1090 C   0  0  0  0  0  1  0  0  0  0  0  0
  187.2320  178.2330  142.4740 N   0  0  0  0  0  0  0  0  0  0  0  0
  189.1930  177.5300  146.2320 C   0  0  0  0  0  3  0  0  0  0  0  0
  184.7340  178.5910  145.1440 C   0  0  0  0  0  0  0  0  0  0  0  0
  184.8820  178.4390  146.8170 S   0  0  0  0  0  0  0  0  0  0  0  0
  186.2080  178.6050  140.3850 N   0  0  0  0  0  0  0  0  0  0  0  0
  188.3220  177.7990  145.1650 C   0  0  0  0  0  3  0  0  0  0  0  0
  187.3120  178.3100  141.1200 C   0  0  0  0  0  0  0  0  0  0  0  0
  184.8910  178.7540  142.3710 C   0  0  0  0  0  0  0  0  0  0  0  0
  188.8750  178.0230  140.3060 S   0  0  0  0  0  0  0  0  0  0  0  0
  189.7810  178.0120  141.8890 C   0  0  0  0  0  2  0  0  0  0  0  0
  190.5310  176.6950  142.1200 C   0  0  2  0  0  3  0  0  0  0  0  0
  189.5810  175.6890  142.7680 C   0  0  0  0  0  1  0  0  0  0  0  0
  191.7470  176.8860  142.9230 N   0  0  0  0  0  0  0  0  0  0  0  0
  191.7270  175.9400  144.0300 C   0  0  0  0  0  1  0  0  0  0  0  0
  191.6920  178.2000  143.5500 C   0  0  0  0  0  1  0  0  0  0  0  0
  1 13  2  0  0  0  0
  1  4  1  0  0  0  0
  2  1  1  0  0  0  0
  3 13  1  0  0  0  0
  4  7  1  0  0  0  0
  5  8  1  0  0  0  0
  6  3  2  0  0  0  0
  7 14  1  0  0  0  0
  7  8  2  0  0  0  0
  9 18  1  0  0  0  0
 10  9  1  0  0  0  0
 11  2  1  0  0  0  0
 12  5  2  0  0  0  0
 13 14  1  0  0  0  0
 15  9  2  0  0  0  0
 15 17  1  0  0  0  0
 16  4  2  0  0  0  0
 16 12  1  0  0  0  0
 17 11  2  0  0  0  0
 18  6  1  0  0  0  0
 18  2  2  0  0  0  0
 19 17  1  0  0  0  0
 19 20  1  0  0  0  0
 20 21  1  0  0  0  0
 21 22  1  1  0  0  0
 21 23  1  0  0  0  0
 23 25  1  0  0  0  0
 23 24  1  0  0  0  0
M  END
>  <MODEL>
2

>  <REMARK>
 VINA RESULT:      -9.4      1.703      5.124
  Name = 
  4 active torsions:
  status: ('A' for Active; 'I' for Inactive)
    1  A    between atoms: N_2  and  C_21
    2  A    between atoms: S_6  and  C_15
    3  A    between atoms: S_6  and  C_23
    4  A    between atoms: C_15  and  C_21
                            x       y       z     vdW  Elec       q    Type
                         _______ _______ _______ _____ _____    ______ ____

>  <TORSDO>
F 4

$$$$
=
 OpenBabel10262419493D

 25 28  0  0  1  0  0  0  0  0999 V2000
  187.6010  177.7760  145.5790 C   0  0  0  0  0  0  0  0  0  0  0  0
  186.7340  178.0930  144.5180 C   0  0  0  0  0  0  0  0  0  0  0  0
  185.8280  178.1950  147.2040 C   0  0  0  0  0  3  0  0  0  0  0  0
  188.9490  177.3860  145.5120 C   0  0  0  0  0  0  0  0  0  0  0  0
  191.6130  176.5900  145.7760 C   0  0  0  0  0  3  0  0  0  0  0  0
  184.9580  178.5120  146.1540 C   0  0  0  0  0  3  0  0  0  0  0  0
  189.5040  177.1480  146.7670 C   0  0  0  0  0  0  0  0  0  0  0  0
  190.8290  176.7510  146.9270 C   0  0  0  0  0  3  0  0  0  0  0  0
  184.5470  178.7760  143.7430 C   0  0  0  0  0  0  0  0  0  0  0  0
  183.1260  179.1760  143.9630 C   0  0  0  0  0  1  0  0  0  0  0  0
  187.1500  178.0490  143.2260 N   0  0  0  0  0  0  0  0  0  0  0  0
  191.0670  176.8260  144.5000 C   0  0  0  0  0  3  0  0  0  0  0  0
  187.1360  177.8330  146.8940 C   0  0  0  0  0  0  0  0  0  0  0  0
  188.3590  177.4110  147.9760 S   0  0  0  0  0  0  0  0  0  0  0  0
  185.0190  178.7140  142.4700 N   0  0  0  0  0  0  0  0  0  0  0  0
  189.7290  177.2260  144.3610 C   0  0  0  0  0  3  0  0  0  0  0  0
  186.3040  178.3540  142.2080 C   0  0  0  0  0  0  0  0  0  0  0  0
  185.3980  178.4630  144.8140 C   0  0  0  0  0  0  0  0  0  0  0  0
  186.8830  178.2860  140.5210 S   0  0  0  0  0  0  0  0  0  0  0  0
  188.6170  178.0790  141.0490 C   0  0  0  0  0  2  0  0  0  0  0  0
  189.5630  177.8610  139.8620 C   0  0  2  0  0  3  0  0  0  0  0  0
  188.7350  177.5540  138.6160 C   0  0  0  0  0  1  0  0  0  0  0  0
  190.5490  176.8030  140.1300 N   0  0  0  0  0  0  0  0  0  0  0  0
  191.6720  177.3860  140.8510 C   0  0  0  0  0  1  0  0  0  0  0  0
  191.1080  176.3540  138.8610 C   0  0  0  0  0  1  0  0  0  0  0  0
  1 13  2  0  0  0  0
  2 18  2  0  0  0  0
  2  1  1  0  0  0  0
  4  1  1  0  0  0  0
  4  7  1  0  0  0  0
  5  8  1  0  0  0  0
  6  3  2  0  0  0  0
  7  8  2  0  0  0  0
  7 14  1  0  0  0  0
  9 10  1  0  0  0  0
  9 18  1  0  0  0  0
 11  2  1  0  0  0  0
 12  5  2  0  0  0  0
 13  3  1  0  0  0  0
 13 14  1  0  0  0  0
 15  9  2  0  0  0  0
 16 12  1  0  0  0  0
 16  4  2  0  0  0  0
 17 15  1  0  0  0  0
 17 11  2  0  0  0  0
 18  6  1  0  0  0  0
 19 20  1  0  0  0  0
 19 17  1  0  0  0  0
 21 22  1  6  0  0  0
 21 23  1  0  0  0  0
 21 20  1  0  0  0  0
 23 24  1  0  0  0  0
 25 23  1  0  0  0  0
M  END
>  <MODEL>
3

>  <REMARK>
 VINA RESULT:      -9.4      1.832      4.732
  Name = 
  4 active torsions:
  status: ('A' for Active; 'I' for Inactive)
    1  A    between atoms: N_2  and  C_21
    2  A    between atoms: S_6  and  C_15
    3  A    between atoms: S_6  and  C_23
    4  A    between atoms: C_15  and  C_21
                            x       y       z     vdW  Elec       q    Type
                         _______ _______ _______ _____ _____    ______ ____

>  <TORSDO>
F 4

$$$$
=
 OpenBabel10262419493D

 25 28  0  0  1  0  0  0  0  0999 V2000
  187.5550  177.8000  145.5420 C   0  0  0  0  0  0  0  0  0  0  0  0
  186.6350  178.1260  144.5300 C   0  0  0  0  0  0  0  0  0  0  0  0
  185.8510  178.1440  147.2560 C   0  0  0  0  0  3  0  0  0  0  0  0
  188.9060  177.4390  145.4040 C   0  0  0  0  0  0  0  0  0  0  0  0
  191.5940  176.6910  145.5270 C   0  0  0  0  0  3  0  0  0  0  0  0
  184.9280  178.4690  146.2540 C   0  0  0  0  0  3  0  0  0  0  0  0
  189.5220  177.1820  146.6270 C   0  0  0  0  0  0  0  0  0  0  0  0
  190.8610  176.8070  146.7170 C   0  0  0  0  0  3  0  0  0  0  0  0
  184.4030  178.7840  143.8720 C   0  0  0  0  0  0  0  0  0  0  0  0
  182.9860  179.1500  144.1650 C   0  0  0  0  0  1  0  0  0  0  0  0
  186.9920  178.1220  143.2200 N   0  0  0  0  0  0  0  0  0  0  0  0
  190.9860  176.9470  144.2840 C   0  0  0  0  0  3  0  0  0  0  0  0
  187.1500  177.8150  146.8770 C   0  0  0  0  0  0  0  0  0  0  0  0
  188.4280  177.3910  147.8920 S   0  0  0  0  0  0  0  0  0  0  0  0
  184.8180  178.7620  142.5780 N   0  0  0  0  0  0  0  0  0  0  0  0
  189.6360  177.3230  144.2160 C   0  0  0  0  0  3  0  0  0  0  0  0
  186.0950  178.4350  142.2490 C   0  0  0  0  0  0  0  0  0  0  0  0
  185.3080  178.4620  144.8950 C   0  0  0  0  0  0  0  0  0  0  0  0
  186.5980  178.4200  140.5360 S   0  0  0  0  0  0  0  0  0  0  0  0
  188.3420  178.1100  140.9760 C   0  0  0  0  0  2  0  0  0  0  0  0
  189.0430  177.1980  139.9630 C   0  0  2  0  0  3  0  0  0  0  0  0
  190.5500  177.4300  140.0450 C   0  0  0  0  0  1  0  0  0  0  0  0
  188.5390  177.4010  138.5960 N   0  0  0  0  0  0  0  0  0  0  0  0
  188.9560  176.2740  137.7750 C   0  0  0  0  0  1  0  0  0  0  0  0
  189.2100  178.5580  138.0180 C   0  0  0  0  0  1  0  0  0  0  0  0
  1 13  2  0  0  0  0
  2 18  2  0  0  0  0
  2  1  1  0  0  0  0
  4  1  1  0  0  0  0
  4  7  1  0  0  0  0
  5  8  1  0  0  0  0
  6  3  2  0  0  0  0
  7  8  2  0  0  0  0
  7 14  1  0  0  0  0
  9 10  1  0  0  0  0
  9 18  1  0  0  0  0
 11  2  1  0  0  0  0
 12  5  2  0  0  0  0
 13  3  1  0  0  0  0
 13 14  1  0  0  0  0
 15  9  2  0  0  0  0
 16 12  1  0  0  0  0
 16  4  2  0  0  0  0
 17 15  1  0  0  0  0
 17 11  2  0  0  0  0
 18  6  1  0  0  0  0
 19 20  1  0  0  0  0
 19 17  1  0  0  0  0
 21 22  1  6  0  0  0
 21 20  1  0  0  0  0
 23 21  1  0  0  0  0
 24 23  1  0  0  0  0
 25 23  1  0  0  0  0
M  END
>  <MODEL>
4

>  <REMARK>
 VINA RESULT:      -9.2      1.758      4.569
  Name = 
  4 active torsions:
  status: ('A' for Active; 'I' for Inactive)
    1  A    between atoms: N_2  and  C_21
    2  A    between atoms: S_6  and  C_15
    3  A    between atoms: S_6  and  C_23
    4  A    between atoms: C_15  and  C_21
                            x       y       z     vdW  Elec       q    Type
                         _______ _______ _______ _____ _____    ______ ____

>  <TORSDO>
F 4

$$$$
=
 OpenBabel10262419493D

 25 28  0  0  1  0  0  0  0  0999 V2000
  189.4710  177.4270  144.5070 C   0  0  0  0  0  0  0  0  0  0  0  0
  189.1010  177.6290  143.1660 C   0  0  0  0  0  0  0  0  0  0  0  0
  191.6900  176.6760  143.8220 C   0  0  0  0  0  3  0  0  0  0  0  0
  188.6990  177.6400  145.6620 C   0  0  0  0  0  0  0  0  0  0  0  0
  187.4880  177.9410  148.1610 C   0  0  0  0  0  3  0  0  0  0  0  0
  191.3300  176.8750  142.4840 C   0  0  0  0  0  3  0  0  0  0  0  0
  189.3890  177.3340  146.8340 C   0  0  0  0  0  0  0  0  0  0  0  0
  188.8080  177.4750  148.0920 C   0  0  0  0  0  3  0  0  0  0  0  0
  189.6580  177.5580  140.8130 C   0  0  0  0  0  0  0  0  0  0  0  0
  190.5870  177.2890  139.6780 C   0  0  0  0  0  1  0  0  0  0  0  0
  187.8650  178.0850  142.8330 N   0  0  0  0  0  0  0  0  0  0  0  0
  186.7780  178.2550  146.9860 C   0  0  0  0  0  3  0  0  0  0  0  0
  190.7490  176.9570  144.8090 C   0  0  0  0  0  0  0  0  0  0  0  0
  190.9470  176.7990  146.4770 S   0  0  0  0  0  0  0  0  0  0  0  0
  188.4080  178.0160  140.5410 N   0  0  0  0  0  0  0  0  0  0  0  0
  187.3820  178.1060  145.7280 C   0  0  0  0  0  3  0  0  0  0  0  0
  187.5180  178.2800  141.5340 C   0  0  0  0  0  0  0  0  0  0  0  0
  190.0450  177.3500  142.1470 C   0  0  0  0  0  0  0  0  0  0  0  0
  185.8860  178.8810  141.1320 S   0  0  0  0  0  0  0  0  0  0  0  0
  185.2170  178.3600  142.7470 C   0  0  0  0  0  2  0  0  0  0  0  0
  183.6870  178.2680  142.7390 C   0  0  2  0  0  3  0  0  0  0  0  0
  183.1840  178.4700  141.3110 C   0  0  0  0  0  1  0  0  0  0  0  0
  183.0710  179.2250  143.6700 N   0  0  0  0  0  0  0  0  0  0  0  0
  183.6010  178.9830  145.0040 C   0  0  0  0  0  1  0  0  0  0  0  0
  181.6480  178.9300  143.7700 C   0  0  0  0  0  1  0  0  0  0  0  0
  1 13  2  0  0  0  0
  1  4  1  0  0  0  0
  2  1  1  0  0  0  0
  3 13  1  0  0  0  0
  4 16  2  0  0  0  0
  4  7  1  0  0  0  0
  6  3  2  0  0  0  0
  7  8  2  0  0  0  0
  8  5  1  0  0  0  0
  9 18  1  0  0  0  0
 10  9  1  0  0  0  0
 11  2  1  0  0  0  0
 12  5  2  0  0  0  0
 13 14  1  0  0  0  0
 14  7  1  0  0  0  0
 15  9  2  0  0  0  0
 15 17  1  0  0  0  0
 16 12  1  0  0  0  0
 17 11  2  0  0  0  0
 18  6  1  0  0  0  0
 18  2  2  0  0  0  0
 19 17  1  0  0  0  0
 19 20  1  0  0  0  0
 21 22  1  6  0  0  0
 21 20  1  0  0  0  0
 21 23  1  0  0  0  0
 23 25  1  0  0  0  0
 23 24  1  0  0  0  0
M  END
>  <MODEL>
5

>  <REMARK>
 VINA RESULT:      -9.0      2.186      5.414
  Name = 
  4 active torsions:
  status: ('A' for Active; 'I' for Inactive)
    1  A    between atoms: N_2  and  C_21
    2  A    between atoms: S_6  and  C_15
    3  A    between atoms: S_6  and  C_23
    4  A    between atoms: C_15  and  C_21
                            x       y       z     vdW  Elec       q    Type
                         _______ _______ _______ _____ _____    ______ ____

>  <TORSDO>
F 4

$$$$
=
 OpenBabel10262419493D

 25 28  0  0  1  0  0  0  0  0999 V2000
  186.1290  178.3160  144.4770 C   0  0  0  0  0  0  0  0  0  0  0  0
  186.0850  178.4710  143.0800 C   0  0  0  0  0  0  0  0  0  0  0  0
  183.7420  178.8010  144.6440 C   0  0  0  0  0  3  0  0  0  0  0  0
  187.2370  177.9990  145.2810 C   0  0  0  0  0  0  0  0  0  0  0  0
  189.1850  177.3890  147.1860 C   0  0  0  0  0  3  0  0  0  0  0  0
  183.6890  178.9560  143.2540 C   0  0  0  0  0  3  0  0  0  0  0  0
  186.9150  177.9260  146.6340 C   0  0  0  0  0  0  0  0  0  0  0  0
  187.8680  177.6240  147.6050 C   0  0  0  0  0  3  0  0  0  0  0  0
  184.8240  178.9420  141.0710 C   0  0  0  0  0  0  0  0  0  0  0  0
  183.5660  179.2810  140.3420 C   0  0  0  0  0  1  0  0  0  0  0  0
  187.1960  178.3160  142.3140 N   0  0  0  0  0  0  0  0  0  0  0  0
  189.5250  177.4590  145.8220 C   0  0  0  0  0  3  0  0  0  0  0  0
  184.9650  178.4830  145.2280 C   0  0  0  0  0  0  0  0  0  0  0  0
  185.2780  178.2470  146.8690 S   0  0  0  0  0  0  0  0  0  0  0  0
  185.9680  178.7750  140.3570 N   0  0  0  0  0  0  0  0  0  0  0  0
  188.5500  177.7650  144.8600 C   0  0  0  0  0  3  0  0  0  0  0  0
  187.1430  178.4640  140.9650 C   0  0  0  0  0  0  0  0  0  0  0  0
  184.8490  178.7930  142.4660 C   0  0  0  0  0  0  0  0  0  0  0  0
  188.6230  178.2530  139.9900 S   0  0  0  0  0  0  0  0  0  0  0  0
  189.1940  176.8630  141.0240 C   0  0  0  0  0  2  0  0  0  0  0  0
  190.7230  176.7580  141.0630 C   0  0  2  0  0  3  0  0  0  0  0  0
  191.2410  177.5000  142.2940 C   0  0  0  0  0  1  0  0  0  0  0  0
  191.3430  177.2610  139.8280 N   0  0  0  0  0  0  0  0  0  0  0  0
  191.3140  176.2020  138.8290 C   0  0  0  0  0  1  0  0  0  0  0  0
  192.7570  177.5030  140.0800 C   0  0  0  0  0  1  0  0  0  0  0  0
  1 13  2  0  0  0  0
  1  4  1  0  0  0  0
  2  1  1  0  0  0  0
  3 13  1  0  0  0  0
  4  7  1  0  0  0  0
  5  8  1  0  0  0  0
  6  3  2  0  0  0  0
  7 14  1  0  0  0  0
  7  8  2  0  0  0  0
  9 18  1  0  0  0  0
 10  9  1  0  0  0  0
 11  2  1  0  0  0  0
 12  5  2  0  0  0  0
 13 14  1  0  0  0  0
 15 17  1  0  0  0  0
 15  9  2  0  0  0  0
 16  4  2  0  0  0  0
 16 12  1  0  0  0  0
 17 11  2  0  0  0  0
 18  2  2  0  0  0  0
 18  6  1  0  0  0  0
 19 17  1  0  0  0  0
 19 20  1  0  0  0  0
 20 21  1  0  0  0  0
 21 22  1  1  0  0  0
 23 25  1  0  0  0  0
 23 21  1  0  0  0  0
 24 23  1  0  0  0  0
M  END
>  <MODEL>
6

>  <REMARK>
 VINA RESULT:      -9.0      1.798      4.847
  Name = 
  4 active torsions:
  status: ('A' for Active; 'I' for Inactive)
    1  A    between atoms: N_2  and  C_21
    2  A    between atoms: S_6  and  C_15
    3  A    between atoms: S_6  and  C_23
    4  A    between atoms: C_15  and  C_21
                            x       y       z     vdW  Elec       q    Type
                         _______ _______ _______ _____ _____    ______ ____

>  <TORSDO>
F 4

$$$$
=
 OpenBabel10262419493D

 25 28  0  0  1  0  0  0  0  0999 V2000
  186.8270  177.9420  144.5880 C   0  0  0  0  0  0  0  0  0  0  0  0
  187.9910  177.6650  143.8480 C   0  0  0  0  0  0  0  0  0  0  0  0
  188.0190  177.5530  146.6820 C   0  0  0  0  0  3  0  0  0  0  0  0
  185.5550  178.2920  144.1050 C   0  0  0  0  0  0  0  0  0  0  0  0
  182.9160  179.0050  143.5290 C   0  0  0  0  0  3  0  0  0  0  0  0
  189.1820  177.2760  145.9540 C   0  0  0  0  0  3  0  0  0  0  0  0
  184.6300  178.4960  145.1260 C   0  0  0  0  0  0  0  0  0  0  0  0
  183.3080  178.8510  144.8670 C   0  0  0  0  0  3  0  0  0  0  0  0
  190.3320  177.0590  143.7900 C   0  0  0  0  0  0  0  0  0  0  0  0
  191.6250  176.6980  144.4390 C   0  0  0  0  0  1  0  0  0  0  0  0
  187.9970  177.7150  142.4910 N   0  0  0  0  0  0  0  0  0  0  0  0
  183.8400  178.8030  142.4860 C   0  0  0  0  0  3  0  0  0  0  0  0
  186.8610  177.8800  145.9810 C   0  0  0  0  0  0  0  0  0  0  0  0
  185.3500  178.2510  146.6300 S   0  0  0  0  0  0  0  0  0  0  0  0
  190.2770  177.1240  142.4340 N   0  0  0  0  0  0  0  0  0  0  0  0
  185.1670  178.4450  142.7700 C   0  0  0  0  0  3  0  0  0  0  0  0
  189.1270  177.4490  141.7860 C   0  0  0  0  0  0  0  0  0  0  0  0
  189.1790  177.3310  144.5440 C   0  0  0  0  0  0  0  0  0  0  0  0
  189.0990  177.5240  140.0020 S   0  0  0  0  0  0  0  0  0  0  0  0
  190.5420  176.4160  139.8610 C   0  0  0  0  0  2  0  0  0  0  0  0
  191.1060  176.3750  138.4370 C   0  0  2  0  0  3  0  0  0  0  0  0
  190.1550  177.1230  137.5040 C   0  0  0  0  0  1  0  0  0  0  0  0
  191.3440  175.0000  137.9760 N   0  0  0  0  0  0  0  0  0  0  0  0
  192.4400  175.0140  137.0180 C   0  0  0  0  0  1  0  0  0  0  0  0
  190.1840  174.5540  137.2150 C   0  0  0  0  0  1  0  0  0  0  0  0
  1 13  2  0  0  0  0
  2 18  2  0  0  0  0
  2  1  1  0  0  0  0
  4  1  1  0  0  0  0
  4  7  1  0  0  0  0
  5  8  1  0  0  0  0
  6  3  2  0  0  0  0
  7 14  1  0  0  0  0
  8  7  2  0  0  0  0
  9 10  1  0  0  0  0
  9 18  1  0  0  0  0
 11  2  1  0  0  0  0
 12 16  1  0  0  0  0
 12  5  2  0  0  0  0
 13 14  1  0  0  0  0
 13  3  1  0  0  0  0
 15  9  2  0  0  0  0
 16  4  2  0  0  0  0
 17 15  1  0  0  0  0
 17 11  2  0  0  0  0
 18  6  1  0  0  0  0
 19 17  1  0  0  0  0
 20 19  1  0  0  0  0
 21 22  1  6  0  0  0
 21 20  1  0  0  0  0
 23 21  1  0  0  0  0
 24 23  1  0  0  0  0
 25 23  1  0  0  0  0
M  END
>  <MODEL>
7

>  <REMARK>
 VINA RESULT:      -8.9      1.700      2.367
  Name = 
  4 active torsions:
  status: ('A' for Active; 'I' for Inactive)
    1  A    between atoms: N_2  and  C_21
    2  A    between atoms: S_6  and  C_15
    3  A    between atoms: S_6  and  C_23
    4  A    between atoms: C_15  and  C_21
                            x       y       z     vdW  Elec       q    Type
                         _______ _______ _______ _____ _____    ______ ____

>  <TORSDO>
F 4

$$$$
=
 OpenBabel10262419493D

 25 28  0  0  1  0  0  0  0  0999 V2000
  186.5640  178.2070  144.6690 C   0  0  0  0  0  0  0  0  0  0  0  0
  186.6630  178.2590  143.2670 C   0  0  0  0  0  0  0  0  0  0  0  0
  184.2350  178.9310  144.5690 C   0  0  0  0  0  3  0  0  0  0  0  0
  187.5550  177.8460  145.5970 C   0  0  0  0  0  0  0  0  0  0  0  0
  189.2490  177.1950  147.7200 C   0  0  0  0  0  3  0  0  0  0  0  0
  184.3250  178.9860  143.1730 C   0  0  0  0  0  3  0  0  0  0  0  0
  187.1060  177.9060  146.9140 C   0  0  0  0  0  0  0  0  0  0  0  0
  187.9300  177.5870  147.9920 C   0  0  0  0  0  3  0  0  0  0  0  0
  185.6460  178.6980  141.1170 C   0  0  0  0  0  0  0  0  0  0  0  0
  184.5020  179.1010  140.2480 C   0  0  0  0  0  1  0  0  0  0  0  0
  187.8180  177.9400  142.6260 N   0  0  0  0  0  0  0  0  0  0  0  0
  189.7170  177.1290  146.3950 C   0  0  0  0  0  3  0  0  0  0  0  0
  185.3600  178.5420  145.2900 C   0  0  0  0  0  0  0  0  0  0  0  0
  185.4960  178.4010  146.9650 S   0  0  0  0  0  0  0  0  0  0  0  0
  186.8270  178.3680  140.5320 N   0  0  0  0  0  0  0  0  0  0  0  0
  188.8700  177.4540  145.3240 C   0  0  0  0  0  3  0  0  0  0  0  0
  187.9030  177.9910  141.2720 C   0  0  0  0  0  0  0  0  0  0  0  0
  185.5280  178.6520  142.5150 C   0  0  0  0  0  0  0  0  0  0  0  0
  189.4360  177.5650  140.4620 S   0  0  0  0  0  0  0  0  0  0  0  0
  189.0550  178.6230  139.0250 C   0  0  0  0  0  2  0  0  0  0  0  0
  189.0680  177.8400  137.7080 C   0  0  2  0  0  3  0  0  0  0  0  0
  188.3130  178.6390  136.6470 C   0  0  0  0  0  1  0  0  0  0  0  0
  188.5130  176.4870  137.8640 N   0  0  0  0  0  0  0  0  0  0  0  0
  189.3270  175.5590  137.0920 C   0  0  0  0  0  1  0  0  0  0  0  0
  187.1980  176.4470  137.2370 C   0  0  0  0  0  1  0  0  0  0  0  0
  1 13  2  0  0  0  0
  1  4  1  0  0  0  0
  2  1  1  0  0  0  0
  3 13  1  0  0  0  0
  4  7  1  0  0  0  0
  5  8  1  0  0  0  0
  6  3  2  0  0  0  0
  7 14  1  0  0  0  0
  7  8  2  0  0  0  0
  9 18  1  0  0  0  0
 10  9  1  0  0  0  0
 11  2  1  0  0  0  0
 12  5  2  0  0  0  0
 13 14  1  0  0  0  0
 15  9  2  0  0  0  0
 15 17  1  0  0  0  0
 16  4  2  0  0  0  0
 16 12  1  0  0  0  0
 17 11  2  0  0  0  0
 18  6  1  0  0  0  0
 18  2  2  0  0  0  0
 19 17  1  0  0  0  0
 20 19  1  0  0  0  0
 21 22  1  6  0  0  0
 21 23  1  0  0  0  0
 21 20  1  0  0  0  0
 24 23  1  0  0  0  0
 25 23  1  0  0  0  0
M  END
>  <MODEL>
8

>  <REMARK>
 VINA RESULT:      -8.9      1.452      4.529
  Name = 
  4 active torsions:
  status: ('A' for Active; 'I' for Inactive)
    1  A    between atoms: N_2  and  C_21
    2  A    between atoms: S_6  and  C_15
    3  A    between atoms: S_6  and  C_23
    4  A    between atoms: C_15  and  C_21
                            x       y       z     vdW  Elec       q    Type
                         _______ _______ _______ _____ _____    ______ ____

>  <TORSDO>
F 4

$$$$
=
 OpenBabel10262419493D

 25 28  0  0  1  0  0  0  0  0999 V2000
  187.4860  177.8560  145.6550 C   0  0  0  0  0  0  0  0  0  0  0  0
  186.6830  178.1470  144.5370 C   0  0  0  0  0  0  0  0  0  0  0  0
  185.6200  178.3130  147.1610 C   0  0  0  0  0  3  0  0  0  0  0  0
  188.8350  177.4670  145.6770 C   0  0  0  0  0  0  0  0  0  0  0  0
  191.4790  176.6800  146.1170 C   0  0  0  0  0  3  0  0  0  0  0  0
  184.8140  178.6040  146.0540 C   0  0  0  0  0  3  0  0  0  0  0  0
  189.3140  177.2590  146.9680 C   0  0  0  0  0  0  0  0  0  0  0  0
  190.6280  176.8670  147.2160 C   0  0  0  0  0  3  0  0  0  0  0  0
  184.5460  178.8090  143.6170 C   0  0  0  0  0  0  0  0  0  0  0  0
  183.1160  179.2130  143.7420 C   0  0  0  0  0  1  0  0  0  0  0  0
  187.1750  178.0730  143.2730 N   0  0  0  0  0  0  0  0  0  0  0  0
  191.0090  176.8840  144.8060 C   0  0  0  0  0  3  0  0  0  0  0  0
  186.9430  177.9440  146.9370 C   0  0  0  0  0  0  0  0  0  0  0  0
  188.1000  177.5490  148.1000 S   0  0  0  0  0  0  0  0  0  0  0  0
  185.0940  178.7170  142.3770 N   0  0  0  0  0  0  0  0  0  0  0  0
  189.6820  177.2790  144.5790 C   0  0  0  0  0  3  0  0  0  0  0  0
  186.3910  178.3530  142.2000 C   0  0  0  0  0  0  0  0  0  0  0  0
  185.3330  178.5230  144.7440 C   0  0  0  0  0  0  0  0  0  0  0  0
  187.0700  178.2440  140.5520 S   0  0  0  0  0  0  0  0  0  0  0  0
  185.4990  178.7770  139.7920 C   0  0  0  0  0  2  0  0  0  0  0  0
  185.3800  178.3310  138.3300 C   0  0  2  0  0  3  0  0  0  0  0  0
  184.1650  177.4170  138.1870 C   0  0  0  0  0  1  0  0  0  0  0  0
  186.6080  177.6780  137.8510 N   0  0  0  0  0  0  0  0  0  0  0  0
  187.2540  178.5550  136.8850 C   0  0  0  0  0  1  0  0  0  0  0  0
  186.2390  176.4890  137.0930 C   0  0  0  0  0  1  0  0  0  0  0  0
  1  4  1  0  0  0  0
  1 13  2  0  0  0  0
  2 18  2  0  0  0  0
  2  1  1  0  0  0  0
  4  7  1  0  0  0  0
  5  8  1  0  0  0  0
  6  3  2  0  0  0  0
  7  8  2  0  0  0  0
  7 14  1  0  0  0  0
  9 10  1  0  0  0  0
  9 18  1  0  0  0  0
 11  2  1  0  0  0  0
 12  5  2  0  0  0  0
 13  3  1  0  0  0  0
 13 14  1  0  0  0  0
 15  9  2  0  0  0  0
 16 12  1  0  0  0  0
 16  4  2  0  0  0  0
 17 15  1  0  0  0  0
 17 11  2  0  0  0  0
 18  6  1  0  0  0  0
 19 17  1  0  0  0  0
 20 19  1  0  0  0  0
 21 22  1  1  0  0  0
 21 20  1  0  0  0  0
 23 21  1  0  0  0  0
 24 23  1  0  0  0  0
 25 23  1  0  0  0  0
M  END
>  <MODEL>
9

>  <REMARK>
 VINA RESULT:      -8.8      2.064      4.858
  Name = 
  4 active torsions:
  status: ('A' for Active; 'I' for Inactive)
    1  A    between atoms: N_2  and  C_21
    2  A    between atoms: S_6  and  C_15
    3  A    between atoms: S_6  and  C_23
    4  A    between atoms: C_15  and  C_21
                            x       y       z     vdW  Elec       q    Type
                         _______ _______ _______ _____ _____    ______ ____

>  <TORSDO>
F 4

$$$$
