=
 OpenBabel10262420593D

 28 30  0  0  1  0  0  0  0  0999 V2000
  186.5390  177.4290  144.9980 N   0  0  0  0  0  2  0  0  0  0  0  0
  189.0210  176.6200  145.8790 C   0  0  0  0  0  1  0  0  0  0  0  0
  189.0250  177.5480  144.6700 C   0  0  1  0  0  0  0  0  0  0  0  0
  183.2990  178.4400  143.9400 C   0  0  0  0  0  2  0  0  0  0  0  0
  191.9540  177.1760  142.4480 C   0  0  0  0  0  1  0  0  0  0  0  0
  189.8210  178.8020  144.9920 C   0  0  0  0  0  2  0  0  0  0  0  0
  188.6600  176.5340  142.4800 C   0  0  0  0  0  2  0  0  0  0  0  0
  187.4130  178.6010  141.7480 C   0  0  2  0  0  3  0  0  0  0  0  0
  189.7240  176.8650  143.5090 C   0  0  1  0  0  3  0  0  0  0  0  0
  184.9270  179.0410  142.2240 C   0  0  0  0  0  2  0  0  0  0  0  0
  187.4650  177.4380  142.7510 C   0  0  2  0  0  3  0  0  0  0  0  0
  185.3000  179.5840  144.7680 C   0  0  0  0  0  2  0  0  0  0  0  0
  186.3230  179.6450  142.0510 C   0  0  0  0  0  2  0  0  0  0  0  0
  184.4850  178.9720  143.6610 C   0  0  0  0  0  0  0  0  0  0  0  0
  190.7050  177.8750  142.9490 C   0  0  1  0  0  3  0  0  0  0  0  0
  185.9000  178.5340  145.7120 C   0  0  0  0  0  2  0  0  0  0  0  0
  187.6280  177.9510  144.1750 C   0  0  1  0  0  3  0  0  0  0  0  0
  191.0490  178.7870  144.1020 C   0  0  0  0  0  2  0  0  0  0  0  0
  187.3830  178.1150  140.2870 C   0  0  1  0  0  3  0  0  0  0  0  0
  185.6780  177.7580  138.9140 C   0  0  0  0  0  1  0  0  0  0  0  0
  186.3840  178.7750  139.5610 O   0  0  0  0  0  0  0  0  0  0  0  0
  188.7480  178.2860  139.6140 C   0  0  1  0  0  3  0  0  0  0  0  0
  189.1720  176.9970  138.9890 C   0  0  0  0  0  3  0  0  0  0  0  0
  190.3630  176.4770  139.2490 C   0  0  0  0  0  3  0  0  0  0  0  0
  190.7400  175.2780  138.6600 O   0  0  0  0  0  1  0  0  0  0  0  0
  188.6790  179.2780  138.6310 O   0  0  0  0  0  0  0  0  0  0  0  0
  188.9910  178.6240  137.4370 C   0  0  0  0  0  2  0  0  0  0  0  0
  187.9520  178.9640  136.3890 C   0  0  0  0  0  1  0  0  0  0  0  0
  1 16  1  0  0  0  0
  3  6  1  0  0  0  0
  3  2  1  1  0  0  0
  8 19  1  6  0  0  0
  8 13  1  0  0  0  0
  8 11  1  0  0  0  0
  9  7  1  6  0  0  0
  9  3  1  0  0  0  0
 10 14  1  0  0  0  0
 11  7  1  6  0  0  0
 11 17  1  0  0  0  0
 12 16  1  0  0  0  0
 13 10  1  0  0  0  0
 14  4  2  0  0  0  0
 14 12  1  0  0  0  0
 15  5  1  1  0  0  0
 15  9  1  0  0  0  0
 15 18  1  0  0  0  0
 17  3  1  0  0  0  0
 17  1  1  1  0  0  0
 18  6  1  0  0  0  0
 19 21  1  6  0  0  0
 20 21  1  0  0  0  0
 22 23  1  6  0  0  0
 22 19  1  0  0  0  0
 23 24  2  0  0  0  0
 25 24  1  0  0  0  0
 26 22  1  0  0  0  0
 27 26  1  0  0  0  0
 28 27  1  0  0  0  0
M  END
>  <MODEL>
1

>  <REMARK>
 VINA RESULT:      -7.1      0.000      0.000
  Name = 
  6 active torsions:
  status: ('A' for Active; 'I' for Inactive)
    1  A    between atoms: C_9  and  O_12
    2  A    between atoms: C_9  and  C_13
    3  A    between atoms: C_9  and  C_14
    4  A    between atoms: C_10  and  C_13
    5  A    between atoms: O_12  and  C_15
    6  A    between atoms: C_13  and  O_24
                            x       y       z     vdW  Elec       q    Type
                         _______ _______ _______ _____ _____    ______ ____

>  <TORSDO>
F 6

$$$$
=
 OpenBabel10262420593D

 28 30  0  0  1  0  0  0  0  0999 V2000
  187.0040  177.4570  140.8300 N   0  0  0  0  0  2  0  0  0  0  0  0
  184.5790  177.8450  142.0750 C   0  0  0  0  0  1  0  0  0  0  0  0
  185.8010  178.2980  142.8650 C   0  0  1  0  0  0  0  0  0  0  0  0
  190.0910  176.9360  139.1420 C   0  0  0  0  0  2  0  0  0  0  0  0
  185.3670  178.2660  146.5340 C   0  0  0  0  0  1  0  0  0  0  0  0
  185.6870  179.7820  143.1780 C   0  0  0  0  0  2  0  0  0  0  0  0
  187.0080  176.5960  144.1300 C   0  0  0  0  0  2  0  0  0  0  0  0
  189.1760  177.7870  143.6360 C   0  0  2  0  0  3  0  0  0  0  0  0
  185.8450  177.5670  144.1940 C   0  0  1  0  0  3  0  0  0  0  0  0
  190.5360  177.4890  141.4770 C   0  0  0  0  0  2  0  0  0  0  0  0
  187.9500  177.0810  143.0370 C   0  0  2  0  0  3  0  0  0  0  0  0
  188.8740  178.8840  139.9950 C   0  0  0  0  0  2  0  0  0  0  0  0
  190.0970  178.4430  142.5910 C   0  0  0  0  0  2  0  0  0  0  0  0
  189.8140  177.7230  140.1780 C   0  0  0  0  0  0  0  0  0  0  0  0
  186.0950  178.6220  145.2530 C   0  0  1  0  0  3  0  0  0  0  0  0
  187.4140  178.4440  139.8310 C   0  0  0  0  0  2  0  0  0  0  0  0
  187.1420  178.0330  142.1650 C   0  0  1  0  0  3  0  0  0  0  0  0
  185.5410  179.9060  144.6820 C   0  0  0  0  0  2  0  0  0  0  0  0
  189.9410  176.8930  144.6280 C   0  0  1  0  0  3  0  0  0  0  0  0
  190.9350  175.0880  143.8060 C   0  0  0  0  0  1  0  0  0  0  0  0
  191.1450  176.4430  144.0710 O   0  0  0  0  0  0  0  0  0  0  0  0
  190.1930  177.6190  145.9540 C   0  0  1  0  0  3  0  0  0  0  0  0
  189.1830  177.1900  146.9680 C   0  0  0  0  0  3  0  0  0  0  0  0
  188.7690  178.0270  147.9080 C   0  0  0  0  0  3  0  0  0  0  0  0
  187.8290  177.6110  148.8410 O   0  0  0  0  0  1  0  0  0  0  0  0
  191.4770  177.3280  146.4250 O   0  0  0  0  0  0  0  0  0  0  0  0
  191.2940  176.3130  147.3660 C   0  0  0  0  0  2  0  0  0  0  0  0
  192.6210  175.6400  147.6470 C   0  0  0  0  0  1  0  0  0  0  0  0
  3  2  1  6  0  0  0
  3  6  1  0  0  0  0
  3  9  1  0  0  0  0
  4 14  2  0  0  0  0
  6 18  1  0  0  0  0
  8 19  1  6  0  0  0
  9  7  1  6  0  0  0
  9 15  1  0  0  0  0
 10 13  1  0  0  0  0
 11  8  1  0  0  0  0
 11  7  1  1  0  0  0
 12 14  1  0  0  0  0
 13  8  1  0  0  0  0
 14 10  1  0  0  0  0
 15  5  1  1  0  0  0
 16 12  1  0  0  0  0
 16  1  1  0  0  0  0
 17  1  1  6  0  0  0
 17  3  1  0  0  0  0
 17 11  1  0  0  0  0
 18 15  1  0  0  0  0
 19 21  1  6  0  0  0
 19 22  1  0  0  0  0
 20 21  1  0  0  0  0
 22 26  1  0  0  0  0
 22 23  1  1  0  0  0
 23 24  2  0  0  0  0
 24 25  1  0  0  0  0
 26 27  1  0  0  0  0
 27 28  1  0  0  0  0
M  END
>  <MODEL>
2

>  <REMARK>
 VINA RESULT:      -6.1      3.069      6.705
  Name = 
  6 active torsions:
  status: ('A' for Active; 'I' for Inactive)
    1  A    between atoms: C_9  and  O_12
    2  A    between atoms: C_9  and  C_13
    3  A    between atoms: C_9  and  C_14
    4  A    between atoms: C_10  and  C_13
    5  A    between atoms: O_12  and  C_15
    6  A    between atoms: C_13  and  O_24
                            x       y       z     vdW  Elec       q    Type
                         _______ _______ _______ _____ _____    ______ ____

>  <TORSDO>
F 6

$$$$
=
 OpenBabel10262420593D

 28 30  0  0  1  0  0  0  0  0999 V2000
  187.6250  177.0220  146.3930 N   0  0  0  0  0  2  0  0  0  0  0  0
  190.1780  176.3330  145.6210 C   0  0  0  0  0  1  0  0  0  0  0  0
  189.4860  177.3720  144.7460 C   0  0  1  0  0  0  0  0  0  0  0  0
  184.3430  177.8650  147.4700 C   0  0  0  0  0  2  0  0  0  0  0  0
  190.6470  177.4560  141.2400 C   0  0  0  0  0  1  0  0  0  0  0  0
  190.3110  178.6490  144.7210 C   0  0  0  0  0  2  0  0  0  0  0  0
  187.9580  176.5490  143.0310 C   0  0  0  0  0  2  0  0  0  0  0  0
  186.4920  178.5700  143.3900 C   0  0  2  0  0  3  0  0  0  0  0  0
  189.4130  176.8640  143.3180 C   0  0  1  0  0  3  0  0  0  0  0  0
  184.7070  178.7600  145.2290 C   0  0  0  0  0  2  0  0  0  0  0  0
  187.1160  177.3230  144.0350 C   0  0  2  0  0  3  0  0  0  0  0  0
  186.4480  179.0810  147.1700 C   0  0  0  0  0  2  0  0  0  0  0  0
  185.7530  179.4890  144.3810 C   0  0  0  0  0  2  0  0  0  0  0  0
  185.1570  178.5160  146.6430 C   0  0  0  0  0  0  0  0  0  0  0  0
  189.8930  177.9990  142.4370 C   0  0  1  0  0  3  0  0  0  0  0  0
  187.4890  177.9960  147.4750 C   0  0  0  0  0  2  0  0  0  0  0  0
  188.0500  177.7070  145.1750 C   0  0  1  0  0  3  0  0  0  0  0  0
  190.8190  178.8190  143.3030 C   0  0  0  0  0  2  0  0  0  0  0  0
  185.6460  178.2280  142.1500 C   0  0  1  0  0  3  0  0  0  0  0  0
  183.6160  177.4640  141.6840 C   0  0  0  0  0  1  0  0  0  0  0  0
  184.2860  178.4650  142.3910 O   0  0  0  0  0  0  0  0  0  0  0  0
  186.1230  179.0040  140.9180 C   0  0  1  0  0  3  0  0  0  0  0  0
  186.6030  178.0510  139.8720 C   0  0  0  0  0  3  0  0  0  0  0  0
  187.8260  178.1540  139.3720 C   0  0  0  0  0  3  0  0  0  0  0  0
  188.2550  177.2590  138.4010 O   0  0  0  0  0  1  0  0  0  0  0  0
  185.0770  179.7740  140.4000 O   0  0  0  0  0  0  0  0  0  0  0  0
  184.8100  179.2210  139.1460 C   0  0  0  0  0  2  0  0  0  0  0  0
  183.3750  179.5150  138.7600 C   0  0  0  0  0  1  0  0  0  0  0  0
  1 16  1  0  0  0  0
  3 17  1  0  0  0  0
  3  2  1  1  0  0  0
  6  3  1  0  0  0  0
  8 19  1  6  0  0  0
  8 11  1  0  0  0  0
  8 13  1  0  0  0  0
  9  7  1  6  0  0  0
  9  3  1  0  0  0  0
 10 14  1  0  0  0  0
 11  7  1  6  0  0  0
 11 17  1  0  0  0  0
 12 16  1  0  0  0  0
 13 10  1  0  0  0  0
 14 12  1  0  0  0  0
 14  4  2  0  0  0  0
 15  5  1  6  0  0  0
 15 18  1  0  0  0  0
 15  9  1  0  0  0  0
 17  1  1  1  0  0  0
 18  6  1  0  0  0  0
 19 21  1  1  0  0  0
 20 21  1  0  0  0  0
 22 23  1  6  0  0  0
 22 19  1  0  0  0  0
 24 23  2  0  0  0  0
 25 24  1  0  0  0  0
 26 22  1  0  0  0  0
 27 26  1  0  0  0  0
 28 27  1  0  0  0  0
M  END
>  <MODEL>
3

>  <REMARK>
 VINA RESULT:      -5.7      1.621      2.682
  Name = 
  6 active torsions:
  status: ('A' for Active; 'I' for Inactive)
    1  A    between atoms: C_9  and  O_12
    2  A    between atoms: C_9  and  C_13
    3  A    between atoms: C_9  and  C_14
    4  A    between atoms: C_10  and  C_13
    5  A    between atoms: O_12  and  C_15
    6  A    between atoms: C_13  and  O_24
                            x       y       z     vdW  Elec       q    Type
                         _______ _______ _______ _____ _____    ______ ____

>  <TORSDO>
F 6

$$$$
=
 OpenBabel10262420593D

 28 30  0  0  1  0  0  0  0  0999 V2000
  191.8020  176.3270  137.8900 N   0  0  0  0  0  2  0  0  0  0  0  0
  192.0340  177.6950  140.2690 C   0  0  0  0  0  1  0  0  0  0  0  0
  190.6500  177.1300  139.9700 C   0  0  1  0  0  0  0  0  0  0  0  0
  191.5960  174.5620  134.8090 C   0  0  0  0  0  2  0  0  0  0  0  0
  187.8590  178.9700  141.5430 C   0  0  0  0  0  1  0  0  0  0  0  0
  190.2360  176.1780  141.0800 C   0  0  0  0  0  2  0  0  0  0  0  0
  189.1990  178.4430  138.5120 C   0  0  0  0  0  2  0  0  0  0  0  0
  188.2540  176.3080  137.5570 C   0  0  2  0  0  3  0  0  0  0  0  0
  189.6360  178.2580  139.9520 C   0  0  1  0  0  3  0  0  0  0  0  0
  189.3430  174.9590  135.6600 C   0  0  0  0  0  2  0  0  0  0  0  0
  189.5190  177.1530  137.7680 C   0  0  2  0  0  3  0  0  0  0  0  0
  191.2660  173.9980  137.1700 C   0  0  0  0  0  2  0  0  0  0  0  0
  188.5210  174.9170  136.9500 C   0  0  0  0  0  2  0  0  0  0  0  0
  190.7740  174.5400  135.8550 C   0  0  0  0  0  0  0  0  0  0  0  0
  188.4700  177.7970  140.8030 C   0  0  1  0  0  3  0  0  0  0  0  0
  192.2600  174.9380  137.8650 C   0  0  0  0  0  2  0  0  0  0  0  0
  190.5390  176.4080  138.6190 C   0  0  1  0  0  3  0  0  0  0  0  0
  189.0540  176.8120  141.7870 C   0  0  0  0  0  2  0  0  0  0  0  0
  187.1500  177.0800  136.8130 C   0  0  1  0  0  3  0  0  0  0  0  0
  187.2310  177.8440  134.7320 C   0  0  0  0  0  1  0  0  0  0  0  0
  187.0670  176.6730  135.4760 O   0  0  0  0  0  0  0  0  0  0  0  0
  185.7950  176.9270  137.5130 C   0  0  1  0  0  3  0  0  0  0  0  0
  185.2560  178.2730  137.8760 C   0  0  0  0  0  3  0  0  0  0  0  0
  185.0580  178.6040  139.1440 C   0  0  0  0  0  3  0  0  0  0  0  0
  184.5570  179.8590  139.4620 O   0  0  0  0  0  1  0  0  0  0  0  0
  184.8890  176.2760  136.6700 O   0  0  0  0  0  0  0  0  0  0  0  0
  184.2450  175.3430  137.4850 C   0  0  0  0  0  2  0  0  0  0  0  0
  184.9290  173.9990  137.3500 C   0  0  0  0  0  1  0  0  0  0  0  0
  3  2  1  1  0  0  0
  3  6  1  0  0  0  0
  4 14  2  0  0  0  0
  6 18  1  0  0  0  0
  8 19  1  6  0  0  0
  8 11  1  0  0  0  0
  9  7  1  6  0  0  0
  9  3  1  0  0  0  0
  9 15  1  0  0  0  0
 10 14  1  0  0  0  0
 10 13  1  0  0  0  0
 11  7  1  1  0  0  0
 11 17  1  0  0  0  0
 12 16  1  0  0  0  0
 13  8  1  0  0  0  0
 14 12  1  0  0  0  0
 15  5  1  1  0  0  0
 15 18  1  0  0  0  0
 16  1  1  0  0  0  0
 17  1  1  6  0  0  0
 17  3  1  0  0  0  0
 19 21  1  6  0  0  0
 19 22  1  0  0  0  0
 20 21  1  0  0  0  0
 22 23  1  6  0  0  0
 23 24  2  0  0  0  0
 24 25  1  0  0  0  0
 26 27  1  0  0  0  0
 26 22  1  0  0  0  0
 28 27  1  0  0  0  0
M  END
>  <MODEL>
4

>  <REMARK>
 VINA RESULT:      -5.7      3.338      6.750
  Name = 
  6 active torsions:
  status: ('A' for Active; 'I' for Inactive)
    1  A    between atoms: C_9  and  O_12
    2  A    between atoms: C_9  and  C_13
    3  A    between atoms: C_9  and  C_14
    4  A    between atoms: C_10  and  C_13
    5  A    between atoms: O_12  and  C_15
    6  A    between atoms: C_13  and  O_24
                            x       y       z     vdW  Elec       q    Type
                         _______ _______ _______ _____ _____    ______ ____

>  <TORSDO>
F 6

$$$$
=
 OpenBabel10262420593D

 28 30  0  0  1  0  0  0  0  0999 V2000
  186.2330  178.9650  145.0070 N   0  0  0  0  0  2  0  0  0  0  0  0
  184.1740  179.9920  143.4920 C   0  0  0  0  0  1  0  0  0  0  0  0
  184.9780  178.8750  142.8350 C   0  0  1  0  0  0  0  0  0  0  0  0
  188.8570  177.6860  147.0380 C   0  0  0  0  0  2  0  0  0  0  0  0
  185.0170  178.9690  139.1420 C   0  0  0  0  0  1  0  0  0  0  0  0
  184.0550  177.7190  142.4850 C   0  0  0  0  0  2  0  0  0  0  0  0
  187.0700  179.4980  141.7430 C   0  0  0  0  0  2  0  0  0  0  0  0
  188.0780  177.2980  142.4550 C   0  0  2  0  0  3  0  0  0  0  0  0
  185.5730  179.3780  141.5330 C   0  0  1  0  0  3  0  0  0  0  0  0
  189.1310  176.8610  144.7570 C   0  0  0  0  0  2  0  0  0  0  0  0
  187.4380  178.6130  142.9260 C   0  0  2  0  0  3  0  0  0  0  0  0
  186.8290  176.7630  146.0190 C   0  0  0  0  0  2  0  0  0  0  0  0
  188.3350  176.2830  143.5840 C   0  0  0  0  0  2  0  0  0  0  0  0
  188.2810  177.1540  145.9630 C   0  0  0  0  0  0  0  0  0  0  0  0
  185.2680  178.3220  140.4900 C   0  0  1  0  0  3  0  0  0  0  0  0
  185.8880  177.9750  146.0270 C   0  0  0  0  0  2  0  0  0  0  0  0
  186.1450  178.3500  143.6850 C   0  0  1  0  0  3  0  0  0  0  0  0
  184.0170  177.6270  140.9720 C   0  0  0  0  0  2  0  0  0  0  0  0
  189.3160  177.5320  141.5710 C   0  0  1  0  0  3  0  0  0  0  0  0
  191.3860  177.8720  142.2920 C   0  0  0  0  0  1  0  0  0  0  0  0
  190.4350  176.8690  142.0900 O   0  0  0  0  0  0  0  0  0  0  0  0
  189.0550  177.1070  140.1220 C   0  0  1  0  0  3  0  0  0  0  0  0
  189.3690  178.2370  139.1960 C   0  0  0  0  0  3  0  0  0  0  0  0
  188.4890  178.6330  138.2880 C   0  0  0  0  0  3  0  0  0  0  0  0
  188.7980  179.6850  137.4360 O   0  0  0  0  0  1  0  0  0  0  0  0
  189.8500  176.0030  139.7940 O   0  0  0  0  0  0  0  0  0  0  0  0
  190.7750  176.4880  138.8680 C   0  0  0  0  0  2  0  0  0  0  0  0
  191.2280  175.3570  137.9680 C   0  0  0  0  0  1  0  0  0  0  0  0
  1 16  1  0  0  0  0
  3  2  1  1  0  0  0
  3 17  1  0  0  0  0
  6  3  1  0  0  0  0
  8 19  1  1  0  0  0
  8 11  1  0  0  0  0
  8 13  1  0  0  0  0
  9  7  1  1  0  0  0
  9  3  1  0  0  0  0
 10 14  1  0  0  0  0
 11  7  1  6  0  0  0
 11 17  1  0  0  0  0
 12 16  1  0  0  0  0
 13 10  1  0  0  0  0
 14 12  1  0  0  0  0
 14  4  2  0  0  0  0
 15  5  1  6  0  0  0
 15 18  1  0  0  0  0
 15  9  1  0  0  0  0
 17  1  1  1  0  0  0
 18  6  1  0  0  0  0
 19 21  1  1  0  0  0
 21 20  1  0  0  0  0
 22 23  1  6  0  0  0
 22 19  1  0  0  0  0
 24 23  2  0  0  0  0
 25 24  1  0  0  0  0
 26 22  1  0  0  0  0
 27 26  1  0  0  0  0
 28 27  1  0  0  0  0
M  END
>  <MODEL>
5

>  <REMARK>
 VINA RESULT:      -5.5      1.466      4.612
  Name = 
  6 active torsions:
  status: ('A' for Active; 'I' for Inactive)
    1  A    between atoms: C_9  and  O_12
    2  A    between atoms: C_9  and  C_13
    3  A    between atoms: C_9  and  C_14
    4  A    between atoms: C_10  and  C_13
    5  A    between atoms: O_12  and  C_15
    6  A    between atoms: C_13  and  O_24
                            x       y       z     vdW  Elec       q    Type
                         _______ _______ _______ _____ _____    ______ ____

>  <TORSDO>
F 6

$$$$
=
 OpenBabel10262420593D

 28 30  0  0  1  0  0  0  0  0999 V2000
  185.7310  179.2710  140.1630 N   0  0  0  0  0  2  0  0  0  0  0  0
  186.3500  178.9720  137.4960 C   0  0  0  0  0  1  0  0  0  0  0  0
  187.0870  178.0380  138.4490 C   0  0  1  0  0  0  0  0  0  0  0  0
  184.8590  179.7110  143.5830 C   0  0  0  0  0  2  0  0  0  0  0  0
  190.3830  176.8860  137.2390 C   0  0  0  0  0  1  0  0  0  0  0  0
  186.7950  176.5940  138.0760 C   0  0  0  0  0  2  0  0  0  0  0  0
  189.0710  178.9180  139.5650 C   0  0  0  0  0  2  0  0  0  0  0  0
  188.5010  177.5610  141.6140 C   0  0  2  0  0  3  0  0  0  0  0  0
  188.5840  178.2400  138.3000 C   0  0  1  0  0  3  0  0  0  0  0  0
  186.8510  178.3070  143.4360 C   0  0  0  0  0  2  0  0  0  0  0  0
  188.0330  178.6620  140.6490 C   0  0  2  0  0  3  0  0  0  0  0  0
  184.7160  177.8750  141.9670 C   0  0  0  0  0  2  0  0  0  0  0  0
  187.4400  177.1360  142.6460 C   0  0  0  0  0  2  0  0  0  0  0  0
  185.4660  178.6870  142.9880 C   0  0  0  0  0  0  0  0  0  0  0  0
  189.1890  176.8570  138.1740 C   0  0  1  0  0  3  0  0  0  0  0  0
  184.5090  178.6290  140.6460 C   0  0  0  0  0  2  0  0  0  0  0  0
  186.7540  178.2540  139.9330 C   0  0  1  0  0  3  0  0  0  0  0  0
  188.0980  175.9890  137.5940 C   0  0  0  0  0  2  0  0  0  0  0  0
  189.8620  177.8840  142.2570 C   0  0  1  0  0  3  0  0  0  0  0  0
  190.5580  179.3540  143.7650 C   0  0  0  0  0  1  0  0  0  0  0  0
  189.7060  178.2590  143.5970 O   0  0  0  0  0  0  0  0  0  0  0  0
  190.8310  176.7040  142.1320 C   0  0  1  0  0  3  0  0  0  0  0  0
  191.5030  176.7370  140.7970 C   0  0  0  0  0  3  0  0  0  0  0  0
  192.5780  177.4860  140.5980 C   0  0  0  0  0  3  0  0  0  0  0  0
  193.1890  177.5040  139.3510 O   0  0  0  0  0  1  0  0  0  0  0  0
  191.7980  176.7660  143.1400 O   0  0  0  0  0  0  0  0  0  0  0  0
  191.5340  175.6680  143.9620 C   0  0  0  0  0  2  0  0  0  0  0  0
  191.6810  176.0770  145.4120 C   0  0  0  0  0  1  0  0  0  0  0  0
  1 16  1  0  0  0  0
  3  2  1  6  0  0  0
  3 17  1  0  0  0  0
  6  3  1  0  0  0  0
  8 19  1  1  0  0  0
  8 13  1  0  0  0  0
  9  3  1  0  0  0  0
  9  7  1  1  0  0  0
 11  7  1  6  0  0  0
 11  8  1  0  0  0  0
 12 14  1  0  0  0  0
 13 10  1  0  0  0  0
 14 10  1  0  0  0  0
 14  4  2  0  0  0  0
 15  5  1  6  0  0  0
 15  9  1  0  0  0  0
 16 12  1  0  0  0  0
 17  1  1  6  0  0  0
 17 11  1  0  0  0  0
 18  6  1  0  0  0  0
 18 15  1  0  0  0  0
 19 21  1  1  0  0  0
 21 20  1  0  0  0  0
 22 23  1  6  0  0  0
 22 19  1  0  0  0  0
 22 26  1  0  0  0  0
 24 23  2  0  0  0  0
 25 24  1  0  0  0  0
 26 27  1  0  0  0  0
 27 28  1  0  0  0  0
M  END
>  <MODEL>
6

>  <REMARK>
 VINA RESULT:      -5.4      2.279      5.299
  Name = 
  6 active torsions:
  status: ('A' for Active; 'I' for Inactive)
    1  A    between atoms: C_9  and  O_12
    2  A    between atoms: C_9  and  C_13
    3  A    between atoms: C_9  and  C_14
    4  A    between atoms: C_10  and  C_13
    5  A    between atoms: O_12  and  C_15
    6  A    between atoms: C_13  and  O_24
                            x       y       z     vdW  Elec       q    Type
                         _______ _______ _______ _____ _____    ______ ____

>  <TORSDO>
F 6

$$$$
=
 OpenBabel10262420593D

 28 30  0  0  1  0  0  0  0  0999 V2000
  184.6100  178.1410  143.6960 N   0  0  0  0  0  2  0  0  0  0  0  0
  184.2760  177.9810  146.4250 C   0  0  0  0  0  1  0  0  0  0  0  0
  185.6980  178.2660  145.9550 C   0  0  1  0  0  0  0  0  0  0  0  0
  184.9490  178.3480  140.1620 C   0  0  0  0  0  2  0  0  0  0  0  0
  188.3460  177.1330  148.2690 C   0  0  0  0  0  1  0  0  0  0  0  0
  186.1780  179.5810  146.5460 C   0  0  0  0  0  2  0  0  0  0  0  0
  187.0520  176.3540  145.2720 C   0  0  0  0  0  2  0  0  0  0  0  0
  188.1510  177.7830  143.5070 C   0  0  2  0  0  3  0  0  0  0  0  0
  186.6280  177.1830  146.4680 C   0  0  1  0  0  3  0  0  0  0  0  0
  187.1660  178.2230  141.1750 C   0  0  0  0  0  2  0  0  0  0  0  0
  186.8280  177.2010  144.0270 C   0  0  2  0  0  3  0  0  0  0  0  0
  185.3150  179.8740  142.0440 C   0  0  0  0  0  2  0  0  0  0  0  0
  187.9870  178.7780  142.3420 C   0  0  0  0  0  2  0  0  0  0  0  0
  185.7680  178.7770  141.1190 C   0  0  0  0  0  0  0  0  0  0  0  0
  187.8220  177.8960  147.0680 C   0  0  1  0  0  3  0  0  0  0  0  0
  184.2550  179.4020  143.0480 C   0  0  0  0  0  2  0  0  0  0  0  0
  185.8630  178.3090  144.4280 C   0  0  1  0  0  3  0  0  0  0  0  0
  187.3100  179.2500  147.4990 C   0  0  0  0  0  2  0  0  0  0  0  0
  189.1980  176.6930  143.2160 C   0  0  1  0  0  3  0  0  0  0  0  0
  190.8210  176.5620  141.7110 C   0  0  0  0  0  1  0  0  0  0  0  0
  189.4310  176.5760  141.8400 O   0  0  0  0  0  0  0  0  0  0  0  0
  190.5050  176.9610  143.9690 C   0  0  1  0  0  3  0  0  0  0  0  0
  190.5130  178.3610  144.4910 C   0  0  0  0  0  3  0  0  0  0  0  0
  191.3240  179.2730  143.9740 C   0  0  0  0  0  3  0  0  0  0  0  0
  191.3160  180.5690  144.4730 O   0  0  0  0  0  1  0  0  0  0  0  0
  190.6390  176.0660  145.0350 O   0  0  0  0  0  0  0  0  0  0  0  0
  191.6450  176.6090  145.8370 C   0  0  0  0  0  2  0  0  0  0  0  0
  191.9550  175.6560  146.9720 C   0  0  0  0  0  1  0  0  0  0  0  0
  3  2  1  1  0  0  0
  3  9  1  0  0  0  0
  3  6  1  0  0  0  0
  4 14  2  0  0  0  0
  6 18  1  0  0  0  0
  8 19  1  6  0  0  0
  8 11  1  0  0  0  0
  9  7  1  6  0  0  0
  9 15  1  0  0  0  0
 10 13  1  0  0  0  0
 11 17  1  0  0  0  0
 11  7  1  1  0  0  0
 12 16  1  0  0  0  0
 13  8  1  0  0  0  0
 14 10  1  0  0  0  0
 14 12  1  0  0  0  0
 15 18  1  0  0  0  0
 15  5  1  1  0  0  0
 16  1  1  0  0  0  0
 17  1  1  6  0  0  0
 17  3  1  0  0  0  0
 19 21  1  6  0  0  0
 19 22  1  0  0  0  0
 20 21  1  0  0  0  0
 22 23  1  1  0  0  0
 22 26  1  0  0  0  0
 24 25  1  0  0  0  0
 24 23  2  0  0  0  0
 26 27  1  0  0  0  0
 27 28  1  0  0  0  0
M  END
>  <MODEL>
7

>  <REMARK>
 VINA RESULT:      -5.3      2.430      5.161
  Name = 
  6 active torsions:
  status: ('A' for Active; 'I' for Inactive)
    1  A    between atoms: C_9  and  O_12
    2  A    between atoms: C_9  and  C_13
    3  A    between atoms: C_9  and  C_14
    4  A    between atoms: C_10  and  C_13
    5  A    between atoms: O_12  and  C_15
    6  A    between atoms: C_13  and  O_24
                            x       y       z     vdW  Elec       q    Type
                         _______ _______ _______ _____ _____    ______ ____

>  <TORSDO>
F 6

$$$$
=
 OpenBabel10262420593D

 28 30  0  0  1  0  0  0  0  0999 V2000
  186.0720  179.2710  140.4240 N   0  0  0  0  0  2  0  0  0  0  0  0
  187.2430  178.9990  137.9450 C   0  0  0  0  0  1  0  0  0  0  0  0
  187.7220  178.0170  139.0080 C   0  0  1  0  0  0  0  0  0  0  0  0
  184.4980  179.6800  143.5860 C   0  0  0  0  0  2  0  0  0  0  0  0
  191.1580  176.7530  138.5050 C   0  0  0  0  0  1  0  0  0  0  0  0
  187.4650  176.5930  138.5410 C   0  0  0  0  0  2  0  0  0  0  0  0
  189.4480  178.7920  140.5500 C   0  0  0  0  0  2  0  0  0  0  0  0
  188.3990  177.4200  142.3890 C   0  0  2  0  0  3  0  0  0  0  0  0
  189.2220  178.1590  139.1910 C   0  0  1  0  0  3  0  0  0  0  0  0
  186.4210  178.1990  143.8320 C   0  0  0  0  0  2  0  0  0  0  0  0
  188.1920  178.5580  141.3770 C   0  0  2  0  0  3  0  0  0  0  0  0
  184.6410  177.8840  141.9260 C   0  0  0  0  0  2  0  0  0  0  0  0
  187.1250  177.0190  143.1550 C   0  0  0  0  0  2  0  0  0  0  0  0
  185.1810  178.6440  143.1070 C   0  0  0  0  0  0  0  0  0  0  0  0
  189.7900  176.7550  139.1600 C   0  0  1  0  0  3  0  0  0  0  0  0
  184.7520  178.6710  140.6140 C   0  0  0  0  0  2  0  0  0  0  0  0
  187.0840  178.2170  140.3900 C   0  0  1  0  0  3  0  0  0  0  0  0
  188.8200  175.9450  138.3340 C   0  0  0  0  0  2  0  0  0  0  0  0
  189.5990  177.6740  143.3190 C   0  0  1  0  0  3  0  0  0  0  0  0
  191.1870  179.1920  143.6220 C   0  0  0  0  0  1  0  0  0  0  0  0
  189.8030  179.0460  143.5110 O   0  0  0  0  0  0  0  0  0  0  0  0
  189.4250  176.9560  144.6610 C   0  0  1  0  0  3  0  0  0  0  0  0
  190.6240  176.1100  144.9440 C   0  0  0  0  0  3  0  0  0  0  0  0
  191.3190  175.5660  143.9550 C   0  0  0  0  0  3  0  0  0  0  0  0
  192.4300  174.7830  144.2370 O   0  0  0  0  0  1  0  0  0  0  0  0
  189.2630  177.8900  145.6890 O   0  0  0  0  0  0  0  0  0  0  0  0
  188.7720  177.1550  146.7700 C   0  0  0  0  0  2  0  0  0  0  0  0
  187.6380  177.9150  147.4230 C   0  0  0  0  0  1  0  0  0  0  0  0
  1 16  1  0  0  0  0
  3  2  1  6  0  0  0
  3  9  1  0  0  0  0
  3 17  1  0  0  0  0
  6  3  1  0  0  0  0
  8 13  1  0  0  0  0
  8 19  1  1  0  0  0
  9  7  1  1  0  0  0
 11  7  1  6  0  0  0
 11  8  1  0  0  0  0
 12 14  1  0  0  0  0
 13 10  1  0  0  0  0
 14  4  2  0  0  0  0
 14 10  1  0  0  0  0
 15  5  1  6  0  0  0
 15  9  1  0  0  0  0
 16 12  1  0  0  0  0
 17  1  1  6  0  0  0
 17 11  1  0  0  0  0
 18  6  1  0  0  0  0
 18 15  1  0  0  0  0
 19 21  1  1  0  0  0
 19 22  1  0  0  0  0
 21 20  1  0  0  0  0
 22 23  1  1  0  0  0
 22 26  1  0  0  0  0
 24 25  1  0  0  0  0
 24 23  2  0  0  0  0
 26 27  1  0  0  0  0
 27 28  1  0  0  0  0
M  END
>  <MODEL>
8

>  <REMARK>
 VINA RESULT:      -5.2      2.462      5.524
  Name = 
  6 active torsions:
  status: ('A' for Active; 'I' for Inactive)
    1  A    between atoms: C_9  and  O_12
    2  A    between atoms: C_9  and  C_13
    3  A    between atoms: C_9  and  C_14
    4  A    between atoms: C_10  and  C_13
    5  A    between atoms: O_12  and  C_15
    6  A    between atoms: C_13  and  O_24
                            x       y       z     vdW  Elec       q    Type
                         _______ _______ _______ _____ _____    ______ ____

>  <TORSDO>
F 6

$$$$
=
 OpenBabel10262420593D

 28 30  0  0  1  0  0  0  0  0999 V2000
  188.6360  173.7690  135.0550 N   0  0  0  0  0  2  0  0  0  0  0  0
  190.6720  175.6180  135.2090 C   0  0  0  0  0  1  0  0  0  0  0  0
  189.5300  175.8150  136.2000 C   0  0  1  0  0  0  0  0  0  0  0  0
  186.0620  171.3290  134.8000 C   0  0  0  0  0  2  0  0  0  0  0  0
  189.0330  179.3060  137.3060 C   0  0  0  0  0  1  0  0  0  0  0  0
  190.0730  175.7730  137.6200 C   0  0  0  0  0  2  0  0  0  0  0  0
  187.5430  176.9820  135.3970 C   0  0  0  0  0  2  0  0  0  0  0  0
  186.1080  175.5130  136.8620 C   0  0  2  0  0  3  0  0  0  0  0  0
  188.9180  177.1890  136.0000 C   0  0  1  0  0  3  0  0  0  0  0  0
  185.2890  173.1680  136.2070 C   0  0  0  0  0  2  0  0  0  0  0  0
  187.1190  175.5530  135.7060 C   0  0  2  0  0  3  0  0  0  0  0  0
  187.6350  172.0320  136.5420 C   0  0  0  0  0  2  0  0  0  0  0  0
  185.7500  174.0920  137.3370 C   0  0  0  0  0  2  0  0  0  0  0  0
  186.3370  172.1700  135.7930 C   0  0  0  0  0  0  0  0  0  0  0  0
  188.8030  177.8090  137.3790 C   0  0  1  0  0  3  0  0  0  0  0  0
  188.8460  172.4800  135.7150 C   0  0  0  0  0  2  0  0  0  0  0  0
  188.3900  174.7950  136.0650 C   0  0  1  0  0  3  0  0  0  0  0  0
  189.8870  177.1590  138.2050 C   0  0  0  0  0  2  0  0  0  0  0  0
  184.8660  176.3800  136.5850 C   0  0  1  0  0  3  0  0  0  0  0  0
  183.9000  176.7520  134.6230 C   0  0  0  0  0  1  0  0  0  0  0  0
  184.0450  175.7840  135.6190 O   0  0  0  0  0  0  0  0  0  0  0  0
  184.0810  176.6560  137.8710 C   0  0  1  0  0  3  0  0  0  0  0  0
  183.9450  178.1300  138.0780 C   0  0  0  0  0  3  0  0  0  0  0  0
  184.6820  178.7580  138.9830 C   0  0  0  0  0  3  0  0  0  0  0  0
  184.5430  180.1280  139.1600 O   0  0  0  0  0  1  0  0  0  0  0  0
  182.8090  176.0790  137.7920 O   0  0  0  0  0  0  0  0  0  0  0  0
  182.5500  175.6000  139.0780 C   0  0  0  0  0  2  0  0  0  0  0  0
  181.1600  176.0220  139.5030 C   0  0  0  0  0  1  0  0  0  0  0  0
  1 16  1  0  0  0  0
  3  2  1  6  0  0  0
  3  6  1  0  0  0  0
  4 14  2  0  0  0  0
  6 18  1  0  0  0  0
  8 19  1  6  0  0  0
  8 13  1  0  0  0  0
  9  7  1  1  0  0  0
  9  3  1  0  0  0  0
  9 15  1  0  0  0  0
 10 13  1  0  0  0  0
 11  7  1  1  0  0  0
 11 17  1  0  0  0  0
 11  8  1  0  0  0  0
 14 10  1  0  0  0  0
 14 12  1  0  0  0  0
 15  5  1  6  0  0  0
 15 18  1  0  0  0  0
 16 12  1  0  0  0  0
 17  1  1  6  0  0  0
 17  3  1  0  0  0  0
 19 21  1  6  0  0  0
 19 22  1  0  0  0  0
 20 21  1  0  0  0  0
 22 23  1  6  0  0  0
 23 24  2  0  0  0  0
 24 25  1  0  0  0  0
 26 22  1  0  0  0  0
 26 27  1  0  0  0  0
 27 28  1  0  0  0  0
M  END
>  <MODEL>
9

>  <REMARK>
 VINA RESULT:      -5.0      5.103      8.035
  Name = 
  6 active torsions:
  status: ('A' for Active; 'I' for Inactive)
    1  A    between atoms: C_9  and  O_12
    2  A    between atoms: C_9  and  C_13
    3  A    between atoms: C_9  and  C_14
    4  A    between atoms: C_10  and  C_13
    5  A    between atoms: O_12  and  C_15
    6  A    between atoms: C_13  and  O_24
                            x       y       z     vdW  Elec       q    Type
                         _______ _______ _______ _____ _____    ______ ____

>  <TORSDO>
F 6

$$$$
