=
 OpenBabel10262419543D

 25 27  0  0  1  0  0  0  0  0999 V2000
  190.3950  177.2720  140.7240 C   0  0  1  0  0  3  0  0  0  0  0  0
  190.0240  176.3070  141.8160 C   0  0  2  0  0  3  0  0  0  0  0  0
  191.7540  177.6270  140.9070 O   0  0  0  0  0  0  0  0  0  0  0  0
  192.0870  177.3540  142.2130 N   0  0  0  0  0  2  0  0  0  0  0  0
  190.6060  176.6380  144.0320 C   0  0  0  0  0  0  0  0  0  0  0  0
  191.3550  176.7850  145.0330 O   0  0  0  0  0  0  0  0  0  0  0  0
  188.2570  177.9260  142.2690 O   0  0  0  0  0  1  0  0  0  0  0  0
  189.1310  176.5700  144.0940 C   0  0  2  0  0  3  0  0  0  0  0  0
  188.7350  176.6520  142.6050 C   0  0  2  0  0  3  0  0  0  0  0  0
  191.1040  176.4970  142.7180 N   0  0  0  0  0  0  0  0  0  0  0  0
  189.1210  177.0550  138.5240 N   0  0  0  0  0  0  0  0  0  0  0  0
  186.8960  177.6880  136.9950 O   0  0  0  0  0  0  0  0  0  0  0  0
  188.9150  176.4040  137.2290 C   0  0  0  0  0  2  0  0  0  0  0  0
  187.4210  176.3850  136.9070 C   0  0  0  0  0  2  0  0  0  0  0  0
  186.8890  178.0230  138.3630 C   0  0  0  0  0  2  0  0  0  0  0  0
  190.1950  176.6350  139.3800 C   0  0  0  0  0  0  0  0  0  0  0  0
  190.9500  175.6870  139.0270 O   0  0  0  0  0  0  0  0  0  0  0  0
  188.3210  178.2350  138.8520 C   0  0  0  0  0  2  0  0  0  0  0  0
  188.4410  177.9070  145.1340 S   0  0  0  0  0  0  0  0  0  0  0  0
  186.7800  177.1680  145.1120 C   0  0  0  0  0  2  0  0  0  0  0  0
  185.7520  178.2120  145.4050 C   0  0  0  0  0  0  0  0  0  0  0  0
  185.7670  178.9140  146.8880 S   0  0  0  0  0  0  0  0  0  0  0  0
  184.7370  178.5350  144.4340 N   0  0  0  0  0  0  0  0  0  0  0  0
  183.4410  179.0450  144.8550 C   0  0  0  0  0  1  0  0  0  0  0  0
  184.9620  178.3630  143.0050 C   0  0  0  0  0  1  0  0  0  0  0  0
  1 16  1  6  0  0  0
  1  3  1  0  0  0  0
  1  2  1  0  0  0  0
  2  9  1  0  0  0  0
  2 10  1  1  0  0  0
  3  4  1  0  0  0  0
  4 10  1  0  0  0  0
  5  8  1  0  0  0  0
  5  6  2  0  0  0  0
  8 19  1  1  0  0  0
  9  7  1  6  0  0  0
  9  8  1  0  0  0  0
 10  5  1  0  0  0  0
 11 18  1  0  0  0  0
 11 16  1  0  0  0  0
 12 15  1  0  0  0  0
 13 11  1  0  0  0  0
 14 12  1  0  0  0  0
 14 13  1  0  0  0  0
 15 18  1  0  0  0  0
 17 16  2  0  0  0  0
 20 19  1  0  0  0  0
 20 21  1  0  0  0  0
 21 22  2  0  0  0  0
 23 24  1  0  0  0  0
 23 21  1  0  0  0  0
 25 23  1  0  0  0  0
M  END
>  <MODEL>
1

>  <REMARK>
 VINA RESULT:      -6.9      0.000      0.000
  Name = 
  5 active torsions:
  status: ('A' for Active; 'I' for Inactive)
    1  A    between atoms: C_1  and  C_18
    2  A    between atoms: N_2  and  C_21
    3  A    between atoms: S_6  and  C_15
    4  A    between atoms: S_6  and  C_20
    5  A    between atoms: C_15  and  C_21
                            x       y       z     vdW  Elec       q    Type
                         _______ _______ _______ _____ _____    ______ ____

>  <TORSDO>
F 5

$$$$
=
 OpenBabel10262419543D

 25 27  0  0  1  0  0  0  0  0999 V2000
  188.9350  177.9030  142.6310 C   0  0  1  0  0  3  0  0  0  0  0  0
  187.6810  177.2260  143.1100 C   0  0  2  0  0  3  0  0  0  0  0  0
  189.7390  178.1750  143.7650 O   0  0  0  0  0  0  0  0  0  0  0  0
  188.9230  178.1580  144.8720 N   0  0  0  0  0  2  0  0  0  0  0  0
  186.4790  177.9700  144.9440 C   0  0  0  0  0  0  0  0  0  0  0  0
  186.2440  178.2620  146.1460 O   0  0  0  0  0  0  0  0  0  0  0  0
  186.5720  179.0460  141.9250 O   0  0  0  0  0  1  0  0  0  0  0  0
  185.4810  178.0400  143.8570 C   0  0  2  0  0  3  0  0  0  0  0  0
  186.3520  177.8370  142.5980 C   0  0  2  0  0  3  0  0  0  0  0  0
  187.7390  177.5120  144.5000 N   0  0  0  0  0  0  0  0  0  0  0  0
  189.6480  177.2920  140.2590 N   0  0  0  0  0  0  0  0  0  0  0  0
  189.3900  177.6810  137.5250 O   0  0  0  0  0  0  0  0  0  0  0  0
  190.3390  176.4000  139.3250 C   0  0  0  0  0  2  0  0  0  0  0  0
  189.5760  176.3690  138.0010 C   0  0  0  0  0  2  0  0  0  0  0  0
  188.4500  178.2860  138.3820 C   0  0  0  0  0  2  0  0  0  0  0  0
  189.6680  177.0150  141.6680 C   0  0  0  0  0  0  0  0  0  0  0  0
  190.2600  175.9890  142.1020 O   0  0  0  0  0  0  0  0  0  0  0  0
  189.0840  178.5410  139.7490 C   0  0  0  0  0  2  0  0  0  0  0  0
  184.5610  179.6190  143.8920 S   0  0  0  0  0  0  0  0  0  0  0  0
  182.9840  178.7780  144.2260 C   0  0  0  0  0  2  0  0  0  0  0  0
  182.0860  178.8820  143.0350 C   0  0  0  0  0  0  0  0  0  0  0  0
  182.7560  178.7050  141.5480 S   0  0  0  0  0  0  0  0  0  0  0  0
  180.6900  179.1990  143.1940 N   0  0  0  0  0  0  0  0  0  0  0  0
  180.0370  180.1530  142.3100 C   0  0  0  0  0  1  0  0  0  0  0  0
  179.8800  178.5870  144.2390 C   0  0  0  0  0  1  0  0  0  0  0  0
  1 16  1  6  0  0  0
  1  2  1  0  0  0  0
  1  3  1  0  0  0  0
  2 10  1  1  0  0  0
  3  4  1  0  0  0  0
  5  6  2  0  0  0  0
  8 19  1  6  0  0  0
  8  5  1  0  0  0  0
  9  7  1  1  0  0  0
  9  2  1  0  0  0  0
  9  8  1  0  0  0  0
 10  4  1  0  0  0  0
 10  5  1  0  0  0  0
 11 16  1  0  0  0  0
 12 14  1  0  0  0  0
 12 15  1  0  0  0  0
 13 11  1  0  0  0  0
 14 13  1  0  0  0  0
 15 18  1  0  0  0  0
 16 17  2  0  0  0  0
 18 11  1  0  0  0  0
 19 20  1  0  0  0  0
 21 23  1  0  0  0  0
 21 20  1  0  0  0  0
 22 21  2  0  0  0  0
 23 25  1  0  0  0  0
 24 23  1  0  0  0  0
M  END
>  <MODEL>
2

>  <REMARK>
 VINA RESULT:      -6.6      2.703      3.673
  Name = 
  5 active torsions:
  status: ('A' for Active; 'I' for Inactive)
    1  A    between atoms: C_1  and  C_18
    2  A    between atoms: N_2  and  C_21
    3  A    between atoms: S_6  and  C_15
    4  A    between atoms: S_6  and  C_20
    5  A    between atoms: C_15  and  C_21
                            x       y       z     vdW  Elec       q    Type
                         _______ _______ _______ _____ _____    ______ ____

>  <TORSDO>
F 5

$$$$
=
 OpenBabel10262419543D

 25 27  0  0  1  0  0  0  0  0999 V2000
  189.6020  176.8370  144.7210 C   0  0  1  0  0  3  0  0  0  0  0  0
  189.8850  177.9450  143.7440 C   0  0  2  0  0  3  0  0  0  0  0  0
  190.8230  176.1660  144.9770 O   0  0  0  0  0  0  0  0  0  0  0  0
  191.6800  176.4450  143.9390 N   0  0  0  0  0  2  0  0  0  0  0  0
  191.1940  177.6480  141.8580 C   0  0  0  0  0  0  0  0  0  0  0  0
  192.2240  177.3950  141.1790 O   0  0  0  0  0  0  0  0  0  0  0  0
  188.1380  176.8640  142.4310 O   0  0  0  0  0  1  0  0  0  0  0  0
  189.9050  178.0910  141.2880 C   0  0  2  0  0  3  0  0  0  0  0  0
  188.9580  177.9980  142.5040 C   0  0  2  0  0  3  0  0  0  0  0  0
  191.1650  177.5580  143.2670 N   0  0  0  0  0  0  0  0  0  0  0  0
  187.6310  177.6740  146.1070 N   0  0  0  0  0  0  0  0  0  0  0  0
  184.9690  178.4450  146.2300 O   0  0  0  0  0  0  0  0  0  0  0  0
  187.0930  178.2530  147.3400 C   0  0  0  0  0  2  0  0  0  0  0  0
  185.9090  179.1570  146.9970 C   0  0  0  0  0  2  0  0  0  0  0  0
  185.5550  178.2490  144.9640 C   0  0  0  0  0  2  0  0  0  0  0  0
  189.0350  177.3990  145.9920 C   0  0  0  0  0  0  0  0  0  0  0  0
  189.8140  177.6790  146.9450 O   0  0  0  0  0  0  0  0  0  0  0  0
  186.6950  177.2370  145.0710 C   0  0  0  0  0  2  0  0  0  0  0  0
  189.4100  177.0550  139.8640 S   0  0  0  0  0  0  0  0  0  0  0  0
  188.1480  178.2530  139.3360 C   0  0  0  0  0  2  0  0  0  0  0  0
  187.8200  178.0470  137.8930 C   0  0  0  0  0  0  0  0  0  0  0  0
  189.0550  178.0520  136.8130 S   0  0  0  0  0  0  0  0  0  0  0  0
  186.4500  177.9200  137.4630 N   0  0  0  0  0  0  0  0  0  0  0  0
  186.1310  177.4550  136.1210 C   0  0  0  0  0  1  0  0  0  0  0  0
  185.3380  178.2520  138.3430 C   0  0  0  0  0  1  0  0  0  0  0  0
  1  3  1  0  0  0  0
  1 16  1  1  0  0  0
  2 10  1  6  0  0  0
  2  1  1  0  0  0  0
  4  3  1  0  0  0  0
  5 10  1  0  0  0  0
  6  5  2  0  0  0  0
  8 19  1  6  0  0  0
  8  5  1  0  0  0  0
  8  9  1  0  0  0  0
  9  7  1  6  0  0  0
  9  2  1  0  0  0  0
 10  4  1  0  0  0  0
 11 13  1  0  0  0  0
 12 14  1  0  0  0  0
 14 13  1  0  0  0  0
 15 18  1  0  0  0  0
 15 12  1  0  0  0  0
 16 11  1  0  0  0  0
 16 17  2  0  0  0  0
 18 11  1  0  0  0  0
 20 19  1  0  0  0  0
 21 20  1  0  0  0  0
 22 21  2  0  0  0  0
 23 21  1  0  0  0  0
 23 25  1  0  0  0  0
 24 23  1  0  0  0  0
M  END
>  <MODEL>
3

>  <REMARK>
 VINA RESULT:      -6.3      2.800      6.497
  Name = 
  5 active torsions:
  status: ('A' for Active; 'I' for Inactive)
    1  A    between atoms: C_1  and  C_18
    2  A    between atoms: N_2  and  C_21
    3  A    between atoms: S_6  and  C_15
    4  A    between atoms: S_6  and  C_20
    5  A    between atoms: C_15  and  C_21
                            x       y       z     vdW  Elec       q    Type
                         _______ _______ _______ _____ _____    ______ ____

>  <TORSDO>
F 5

$$$$
=
 OpenBabel10262419543D

 25 27  0  0  1  0  0  0  0  0999 V2000
  190.6180  177.3190  139.9760 C   0  0  1  0  0  3  0  0  0  0  0  0
  190.1860  176.4430  141.1190 C   0  0  2  0  0  3  0  0  0  0  0  0
  191.9720  177.6730  140.1920 O   0  0  0  0  0  0  0  0  0  0  0  0
  192.2440  177.4950  141.5290 N   0  0  0  0  0  2  0  0  0  0  0  0
  190.6760  176.9320  143.3280 C   0  0  0  0  0  0  0  0  0  0  0  0
  191.3830  177.1450  144.3480 O   0  0  0  0  0  0  0  0  0  0  0  0
  188.4240  178.1100  141.3730 O   0  0  0  0  0  1  0  0  0  0  0  0
  189.1990  176.8850  143.3300 C   0  0  2  0  0  3  0  0  0  0  0  0
  188.8690  176.8600  141.8220 C   0  0  2  0  0  3  0  0  0  0  0  0
  191.2280  176.6890  142.0510 N   0  0  0  0  0  0  0  0  0  0  0  0
  189.6740  177.1380  137.6130 N   0  0  0  0  0  0  0  0  0  0  0  0
  187.9340  178.0810  135.6700 O   0  0  0  0  0  0  0  0  0  0  0  0
  189.5070  176.3990  136.3600 C   0  0  0  0  0  2  0  0  0  0  0  0
  188.1210  176.6910  135.7840 C   0  0  0  0  0  2  0  0  0  0  0  0
  187.8070  178.5750  136.9830 C   0  0  0  0  0  2  0  0  0  0  0  0
  190.4670  176.5860  138.6760 C   0  0  0  0  0  0  0  0  0  0  0  0
  191.0030  175.4520  138.5410 O   0  0  0  0  0  0  0  0  0  0  0  0
  189.1570  178.5040  137.6960 C   0  0  0  0  0  2  0  0  0  0  0  0
  188.4830  178.3020  144.2370 S   0  0  0  0  0  0  0  0  0  0  0  0
  187.3490  177.2290  145.1680 C   0  0  0  0  0  2  0  0  0  0  0  0
  187.1950  177.7380  146.5650 C   0  0  0  0  0  0  0  0  0  0  0  0
  185.8400  178.5890  146.9300 S   0  0  0  0  0  0  0  0  0  0  0  0
  188.2420  177.5450  147.5360 N   0  0  0  0  0  0  0  0  0  0  0  0
  189.3760  176.6790  147.2480 C   0  0  0  0  0  1  0  0  0  0  0  0
  188.2100  178.2000  148.8370 C   0  0  0  0  0  1  0  0  0  0  0  0
  1 16  1  6  0  0  0
  1  3  1  0  0  0  0
  1  2  1  0  0  0  0
  2  9  1  0  0  0  0
  2 10  1  1  0  0  0
  3  4  1  0  0  0  0
  4 10  1  0  0  0  0
  5  8  1  0  0  0  0
  5  6  2  0  0  0  0
  8 19  1  6  0  0  0
  9  7  1  6  0  0  0
  9  8  1  0  0  0  0
 10  5  1  0  0  0  0
 11 18  1  0  0  0  0
 11 16  1  0  0  0  0
 12 14  1  0  0  0  0
 12 15  1  0  0  0  0
 13 11  1  0  0  0  0
 14 13  1  0  0  0  0
 15 18  1  0  0  0  0
 17 16  2  0  0  0  0
 19 20  1  0  0  0  0
 20 21  1  0  0  0  0
 21 22  2  0  0  0  0
 21 23  1  0  0  0  0
 23 25  1  0  0  0  0
 24 23  1  0  0  0  0
M  END
>  <MODEL>
4

>  <REMARK>
 VINA RESULT:      -6.2      1.760      2.352
  Name = 
  5 active torsions:
  status: ('A' for Active; 'I' for Inactive)
    1  A    between atoms: C_1  and  C_18
    2  A    between atoms: N_2  and  C_21
    3  A    between atoms: S_6  and  C_15
    4  A    between atoms: S_6  and  C_20
    5  A    between atoms: C_15  and  C_21
                            x       y       z     vdW  Elec       q    Type
                         _______ _______ _______ _____ _____    ______ ____

>  <TORSDO>
F 5

$$$$
=
 OpenBabel10262419543D

 25 27  0  0  1  0  0  0  0  0999 V2000
  187.4230  177.2630  145.9450 C   0  0  1  0  0  3  0  0  0  0  0  0
  188.5020  178.1370  145.3700 C   0  0  2  0  0  3  0  0  0  0  0  0
  187.8930  176.7530  147.1800 O   0  0  0  0  0  0  0  0  0  0  0  0
  189.2640  176.8490  147.1780 N   0  0  0  0  0  2  0  0  0  0  0  0
  190.7310  177.5110  145.3280 C   0  0  0  0  0  0  0  0  0  0  0  0
  191.8600  177.1820  145.7770 O   0  0  0  0  0  0  0  0  0  0  0  0
  188.2830  176.6660  143.4370 O   0  0  0  0  0  1  0  0  0  0  0  0
  190.4300  177.7220  143.8970 C   0  0  2  0  0  3  0  0  0  0  0  0
  188.8910  177.8410  143.8990 C   0  0  2  0  0  3  0  0  0  0  0  0
  189.6140  177.7410  146.1600 N   0  0  0  0  0  0  0  0  0  0  0  0
  185.2350  178.2430  145.0710 N   0  0  0  0  0  0  0  0  0  0  0  0
  183.5790  178.8130  142.9210 O   0  0  0  0  0  0  0  0  0  0  0  0
  184.0290  179.0480  145.2710 C   0  0  0  0  0  2  0  0  0  0  0  0
  183.6720  179.7540  143.9630 C   0  0  0  0  0  2  0  0  0  0  0  0
  184.8920  178.3760  142.6600 C   0  0  0  0  0  2  0  0  0  0  0  0
  186.1660  178.0580  146.1480 C   0  0  0  0  0  0  0  0  0  0  0  0
  185.9580  178.6090  147.2640 O   0  0  0  0  0  0  0  0  0  0  0  0
  185.3880  177.5070  143.8150 C   0  0  0  0  0  2  0  0  0  0  0  0
  191.0800  176.3580  142.8670 S   0  0  0  0  0  0  0  0  0  0  0  0
  191.6570  177.5060  141.5800 C   0  0  0  0  0  2  0  0  0  0  0  0
  190.9520  177.2270  140.2930 C   0  0  0  0  0  0  0  0  0  0  0  0
  189.3150  177.3430  140.2700 S   0  0  0  0  0  0  0  0  0  0  0  0
  191.6890  176.8010  139.1290 N   0  0  0  0  0  0  0  0  0  0  0  0
  190.9960  176.4150  137.9090 C   0  0  0  0  0  1  0  0  0  0  0  0
  193.1440  176.7340  139.1270 C   0  0  0  0  0  1  0  0  0  0  0  0
  1 16  1  1  0  0  0
  1  3  1  0  0  0  0
  2  1  1  0  0  0  0
  2 10  1  1  0  0  0
  4  3  1  0  0  0  0
  5  6  2  0  0  0  0
  5 10  1  0  0  0  0
  8 19  1  6  0  0  0
  8  9  1  0  0  0  0
  8  5  1  0  0  0  0
  9  7  1  1  0  0  0
  9  2  1  0  0  0  0
 10  4  1  0  0  0  0
 11 13  1  0  0  0  0
 11 16  1  0  0  0  0
 12 14  1  0  0  0  0
 14 13  1  0  0  0  0
 15 12  1  0  0  0  0
 15 18  1  0  0  0  0
 16 17  2  0  0  0  0
 18 11  1  0  0  0  0
 20 19  1  0  0  0  0
 21 20  1  0  0  0  0
 22 21  2  0  0  0  0
 23 21  1  0  0  0  0
 24 23  1  0  0  0  0
 25 23  1  0  0  0  0
M  END
>  <MODEL>
5

>  <REMARK>
 VINA RESULT:      -6.2      3.193      6.663
  Name = 
  5 active torsions:
  status: ('A' for Active; 'I' for Inactive)
    1  A    between atoms: C_1  and  C_18
    2  A    between atoms: N_2  and  C_21
    3  A    between atoms: S_6  and  C_15
    4  A    between atoms: S_6  and  C_20
    5  A    between atoms: C_15  and  C_21
                            x       y       z     vdW  Elec       q    Type
                         _______ _______ _______ _____ _____    ______ ____

>  <TORSDO>
F 5

$$$$
=
 OpenBabel10262419543D

 25 27  0  0  1  0  0  0  0  0999 V2000
  187.7010  178.4710  139.0780 C   0  0  1  0  0  3  0  0  0  0  0  0
  188.3580  177.3150  139.7800 C   0  0  2  0  0  3  0  0  0  0  0  0
  188.6270  178.9870  138.1390 O   0  0  0  0  0  0  0  0  0  0  0  0
  189.8840  178.5790  138.5210 N   0  0  0  0  0  2  0  0  0  0  0  0
  190.5310  177.4020  140.5720 C   0  0  0  0  0  0  0  0  0  0  0  0
  191.7850  177.5080  140.5330 O   0  0  0  0  0  0  0  0  0  0  0  0
  187.8100  178.5810  141.7910 O   0  0  0  0  0  1  0  0  0  0  0  0
  189.7550  177.1140  141.7960 C   0  0  2  0  0  3  0  0  0  0  0  0
  188.3030  177.3540  141.3280 C   0  0  2  0  0  3  0  0  0  0  0  0
  189.7170  177.5260  139.4260 N   0  0  0  0  0  0  0  0  0  0  0  0
  185.1660  178.1990  138.9980 N   0  0  0  0  0  0  0  0  0  0  0  0
  182.7200  178.3240  140.3010 O   0  0  0  0  0  0  0  0  0  0  0  0
  183.9550  177.7190  138.3280 C   0  0  0  0  0  2  0  0  0  0  0  0
  182.9370  177.2810  139.3810 C   0  0  0  0  0  2  0  0  0  0  0  0
  183.8970  178.4300  141.0680 C   0  0  0  0  0  2  0  0  0  0  0  0
  186.4510  178.0130  138.3850 C   0  0  0  0  0  0  0  0  0  0  0  0
  186.5420  177.4140  137.2780 O   0  0  0  0  0  0  0  0  0  0  0  0
  185.0240  179.0050  140.2100 C   0  0  0  0  0  2  0  0  0  0  0  0
  190.2830  178.1730  143.1900 S   0  0  0  0  0  0  0  0  0  0  0  0
  190.1890  176.7930  144.3710 C   0  0  0  0  0  2  0  0  0  0  0  0
  189.2930  177.1560  145.5100 C   0  0  0  0  0  0  0  0  0  0  0  0
  187.7250  177.5040  145.1770 S   0  0  0  0  0  0  0  0  0  0  0  0
  189.8150  177.2640  146.8490 N   0  0  0  0  0  0  0  0  0  0  0  0
  191.1380  176.7520  147.1770 C   0  0  0  0  0  1  0  0  0  0  0  0
  189.0470  177.8800  147.9220 C   0  0  0  0  0  1  0  0  0  0  0  0
  1 16  1  6  0  0  0
  1  2  1  0  0  0  0
  2 10  1  1  0  0  0
  2  9  1  0  0  0  0
  3  4  1  0  0  0  0
  3  1  1  0  0  0  0
  4 10  1  0  0  0  0
  5  8  1  0  0  0  0
  6  5  2  0  0  0  0
  8 19  1  1  0  0  0
  9  7  1  6  0  0  0
  9  8  1  0  0  0  0
 10  5  1  0  0  0  0
 11 18  1  0  0  0  0
 12 15  1  0  0  0  0
 13 11  1  0  0  0  0
 13 14  1  0  0  0  0
 14 12  1  0  0  0  0
 16 11  1  0  0  0  0
 17 16  2  0  0  0  0
 18 15  1  0  0  0  0
 19 20  1  0  0  0  0
 20 21  1  0  0  0  0
 21 23  1  0  0  0  0
 22 21  2  0  0  0  0
 23 24  1  0  0  0  0
 23 25  1  0  0  0  0
M  END
>  <MODEL>
6

>  <REMARK>
 VINA RESULT:      -6.1      2.505      4.354
  Name = 
  5 active torsions:
  status: ('A' for Active; 'I' for Inactive)
    1  A    between atoms: C_1  and  C_18
    2  A    between atoms: N_2  and  C_21
    3  A    between atoms: S_6  and  C_15
    4  A    between atoms: S_6  and  C_20
    5  A    between atoms: C_15  and  C_21
                            x       y       z     vdW  Elec       q    Type
                         _______ _______ _______ _____ _____    ______ ____

>  <TORSDO>
F 5

$$$$
=
 OpenBabel10262419543D

 25 27  0  0  1  0  0  0  0  0999 V2000
  188.6400  176.9740  143.5980 C   0  0  1  0  0  3  0  0  0  0  0  0
  189.2870  177.9450  142.6490 C   0  0  2  0  0  3  0  0  0  0  0  0
  189.4140  175.7880  143.5960 O   0  0  0  0  0  0  0  0  0  0  0  0
  190.1570  175.7750  142.4390 N   0  0  0  0  0  2  0  0  0  0  0  0
  190.0360  177.3300  140.5470 C   0  0  0  0  0  0  0  0  0  0  0  0
  190.7220  176.7220  139.6830 O   0  0  0  0  0  0  0  0  0  0  0  0
  187.0810  177.9750  141.6100 O   0  0  0  0  0  1  0  0  0  0  0  0
  189.0520  178.3880  140.2390 C   0  0  2  0  0  3  0  0  0  0  0  0
  188.3440  178.5820  141.5970 C   0  0  2  0  0  3  0  0  0  0  0  0
  190.1530  177.0780  141.9310 N   0  0  0  0  0  0  0  0  0  0  0  0
  187.3190  177.8780  145.5850 N   0  0  0  0  0  0  0  0  0  0  0  0
  184.8990  178.7280  146.6410 O   0  0  0  0  0  0  0  0  0  0  0  0
  187.2740  178.4810  146.9190 C   0  0  0  0  0  2  0  0  0  0  0  0
  186.0690  179.4170  147.0080 C   0  0  0  0  0  2  0  0  0  0  0  0
  184.9860  178.5060  145.2520 C   0  0  0  0  0  2  0  0  0  0  0  0
  188.5810  177.5610  144.9780 C   0  0  0  0  0  0  0  0  0  0  0  0
  189.6570  177.8240  145.5840 O   0  0  0  0  0  0  0  0  0  0  0  0
  186.0630  177.4620  144.9610 C   0  0  0  0  0  2  0  0  0  0  0  0
  187.9420  177.8950  138.8720 S   0  0  0  0  0  0  0  0  0  0  0  0
  189.1840  178.3190  137.6130 C   0  0  0  0  0  2  0  0  0  0  0  0
  189.1300  177.3350  136.4900 C   0  0  0  0  0  0  0  0  0  0  0  0
  188.0870  177.6280  135.2570 S   0  0  0  0  0  0  0  0  0  0  0  0
  189.9200  176.1300  136.5310 N   0  0  0  0  0  0  0  0  0  0  0  0
  189.3280  174.8640  136.9340 C   0  0  0  0  0  1  0  0  0  0  0  0
  191.3330  176.1300  136.1760 C   0  0  0  0  0  1  0  0  0  0  0  0
  1 16  1  1  0  0  0
  2 10  1  6  0  0  0
  2  1  1  0  0  0  0
  3  1  1  0  0  0  0
  4  3  1  0  0  0  0
  5 10  1  0  0  0  0
  6  5  2  0  0  0  0
  8 19  1  6  0  0  0
  8  5  1  0  0  0  0
  8  9  1  0  0  0  0
  9  7  1  6  0  0  0
  9  2  1  0  0  0  0
 10  4  1  0  0  0  0
 11 13  1  0  0  0  0
 12 14  1  0  0  0  0
 13 14  1  0  0  0  0
 15 12  1  0  0  0  0
 16 17  2  0  0  0  0
 16 11  1  0  0  0  0
 18 15  1  0  0  0  0
 18 11  1  0  0  0  0
 20 19  1  0  0  0  0
 21 23  1  0  0  0  0
 21 20  1  0  0  0  0
 22 21  2  0  0  0  0
 23 24  1  0  0  0  0
 25 23  1  0  0  0  0
M  END
>  <MODEL>
7

>  <REMARK>
 VINA RESULT:      -6.1      3.071      7.182
  Name = 
  5 active torsions:
  status: ('A' for Active; 'I' for Inactive)
    1  A    between atoms: C_1  and  C_18
    2  A    between atoms: N_2  and  C_21
    3  A    between atoms: S_6  and  C_15
    4  A    between atoms: S_6  and  C_20
    5  A    between atoms: C_15  and  C_21
                            x       y       z     vdW  Elec       q    Type
                         _______ _______ _______ _____ _____    ______ ____

>  <TORSDO>
F 5

$$$$
=
 OpenBabel10262419543D

 25 27  0  0  1  0  0  0  0  0999 V2000
  184.2330  178.2060  141.9770 C   0  0  1  0  0  3  0  0  0  0  0  0
  185.0930  179.0920  142.8350 C   0  0  2  0  0  3  0  0  0  0  0  0
  182.9140  178.2560  142.4920 O   0  0  0  0  0  0  0  0  0  0  0  0
  182.9880  178.6890  143.7950 N   0  0  0  0  0  2  0  0  0  0  0  0
  184.9970  179.0700  145.1480 C   0  0  0  0  0  0  0  0  0  0  0  0
  184.5000  179.1990  146.2980 O   0  0  0  0  0  0  0  0  0  0  0  0
  186.4370  177.0730  143.0940 O   0  0  0  0  0  1  0  0  0  0  0  0
  186.4090  178.7270  144.8820 C   0  0  2  0  0  3  0  0  0  0  0  0
  186.4000  178.4480  143.3640 C   0  0  2  0  0  3  0  0  0  0  0  0
  184.2510  179.2650  143.9660 N   0  0  0  0  0  0  0  0  0  0  0  0
  183.6450  177.9030  139.5130 N   0  0  0  0  0  0  0  0  0  0  0  0
  182.6890  176.2760  137.4810 O   0  0  0  0  0  0  0  0  0  0  0  0
  183.7060  178.3580  138.1230 C   0  0  0  0  0  2  0  0  0  0  0  0
  183.7610  177.1420  137.1970 C   0  0  0  0  0  2  0  0  0  0  0  0
  182.9670  175.6940  138.7330 C   0  0  0  0  0  2  0  0  0  0  0  0
  184.2600  178.6790  140.5540 C   0  0  0  0  0  0  0  0  0  0  0  0
  184.8740  179.7440  140.2680 O   0  0  0  0  0  0  0  0  0  0  0  0
  182.8160  176.7420  139.8360 C   0  0  0  0  0  2  0  0  0  0  0  0
  186.9610  177.3160  145.9060 S   0  0  0  0  0  0  0  0  0  0  0  0
  188.6980  177.5470  145.4210 C   0  0  0  0  0  2  0  0  0  0  0  0
  189.5900  177.3410  146.6020 C   0  0  0  0  0  0  0  0  0  0  0  0
  189.0430  177.8180  148.0740 S   0  0  0  0  0  0  0  0  0  0  0  0
  190.9180  176.8050  146.4340 N   0  0  0  0  0  0  0  0  0  0  0  0
  191.6820  176.3380  147.5810 C   0  0  0  0  0  1  0  0  0  0  0  0
  191.5460  176.7130  145.1240 C   0  0  0  0  0  1  0  0  0  0  0  0
  1 16  1  6  0  0  0
  1  3  1  0  0  0  0
  1  2  1  0  0  0  0
  2  9  1  0  0  0  0
  2 10  1  1  0  0  0
  3  4  1  0  0  0  0
  4 10  1  0  0  0  0
  5  6  2  0  0  0  0
  8  5  1  0  0  0  0
  8 19  1  1  0  0  0
  9  7  1  1  0  0  0
  9  8  1  0  0  0  0
 10  5  1  0  0  0  0
 11 18  1  0  0  0  0
 11 16  1  0  0  0  0
 12 15  1  0  0  0  0
 13 11  1  0  0  0  0
 14 12  1  0  0  0  0
 14 13  1  0  0  0  0
 15 18  1  0  0  0  0
 17 16  2  0  0  0  0
 20 19  1  0  0  0  0
 20 21  1  0  0  0  0
 21 22  2  0  0  0  0
 23 21  1  0  0  0  0
 23 24  1  0  0  0  0
 25 23  1  0  0  0  0
M  END
>  <MODEL>
8

>  <REMARK>
 VINA RESULT:      -6.0      3.782      5.936
  Name = 
  5 active torsions:
  status: ('A' for Active; 'I' for Inactive)
    1  A    between atoms: C_1  and  C_18
    2  A    between atoms: N_2  and  C_21
    3  A    between atoms: S_6  and  C_15
    4  A    between atoms: S_6  and  C_20
    5  A    between atoms: C_15  and  C_21
                            x       y       z     vdW  Elec       q    Type
                         _______ _______ _______ _____ _____    ______ ____

>  <TORSDO>
F 5

$$$$
=
 OpenBabel10262419543D

 25 27  0  0  1  0  0  0  0  0999 V2000
  189.2000  178.2710  139.1820 C   0  0  1  0  0  3  0  0  0  0  0  0
  189.0580  177.0240  138.3540 C   0  0  2  0  0  3  0  0  0  0  0  0
  188.9060  179.3780  138.3500 O   0  0  0  0  0  0  0  0  0  0  0  0
  189.0560  178.9720  137.0440 N   0  0  0  0  0  2  0  0  0  0  0  0
  189.9260  176.8340  136.2170 C   0  0  0  0  0  0  0  0  0  0  0  0
  190.0850  177.0890  134.9930 O   0  0  0  0  0  0  0  0  0  0  0  0
  191.3480  176.6080  139.0820 O   0  0  0  0  0  1  0  0  0  0  0  0
  190.5990  175.7330  136.9350 C   0  0  2  0  0  3  0  0  0  0  0  0
  190.2570  176.0430  138.4080 C   0  0  2  0  0  3  0  0  0  0  0  0
  189.0540  177.5740  137.0450 N   0  0  0  0  0  0  0  0  0  0  0  0
  188.6820  177.6800  141.6100 N   0  0  0  0  0  0  0  0  0  0  0  0
  189.4190  176.3890  143.9510 O   0  0  0  0  0  0  0  0  0  0  0  0
  187.7450  177.6120  142.7330 C   0  0  0  0  0  2  0  0  0  0  0  0
  188.0620  176.3780  143.5780 C   0  0  0  0  0  2  0  0  0  0  0  0
  190.1560  176.1280  142.7780 C   0  0  0  0  0  2  0  0  0  0  0  0
  188.2590  178.2270  140.3510 C   0  0  0  0  0  0  0  0  0  0  0  0
  187.0720  178.6280  140.2030 O   0  0  0  0  0  0  0  0  0  0  0  0
  190.0840  177.3350  141.8430 C   0  0  0  0  0  2  0  0  0  0  0  0
  192.3900  175.6890  136.5690 S   0  0  0  0  0  0  0  0  0  0  0  0
  192.5460  173.9790  137.1660 C   0  0  0  0  0  2  0  0  0  0  0  0
  193.9110  173.4530  136.8620 C   0  0  0  0  0  0  0  0  0  0  0  0
  194.0270  172.0130  136.0840 S   0  0  0  0  0  0  0  0  0  0  0  0
  195.0860  174.1600  137.3070 N   0  0  0  0  0  0  0  0  0  0  0  0
  195.4310  174.2170  138.7190 C   0  0  0  0  0  1  0  0  0  0  0  0
  195.9680  174.8440  136.3700 C   0  0  0  0  0  1  0  0  0  0  0  0
  1 16  1  1  0  0  0
  2 10  1  6  0  0  0
  2  9  1  0  0  0  0
  2  1  1  0  0  0  0
  3  1  1  0  0  0  0
  4 10  1  0  0  0  0
  4  3  1  0  0  0  0
  5  8  1  0  0  0  0
  5 10  1  0  0  0  0
  6  5  2  0  0  0  0
  8 19  1  1  0  0  0
  8  9  1  0  0  0  0
  9  7  1  6  0  0  0
 11 18  1  0  0  0  0
 11 13  1  0  0  0  0
 13 14  1  0  0  0  0
 14 12  1  0  0  0  0
 15 12  1  0  0  0  0
 16 11  1  0  0  0  0
 17 16  2  0  0  0  0
 18 15  1  0  0  0  0
 19 20  1  0  0  0  0
 21 20  1  0  0  0  0
 21 23  1  0  0  0  0
 22 21  2  0  0  0  0
 23 24  1  0  0  0  0
 25 23  1  0  0  0  0
M  END
>  <MODEL>
9

>  <REMARK>
 VINA RESULT:      -6.0      4.388      8.366
  Name = 
  5 active torsions:
  status: ('A' for Active; 'I' for Inactive)
    1  A    between atoms: C_1  and  C_18
    2  A    between atoms: N_2  and  C_21
    3  A    between atoms: S_6  and  C_15
    4  A    between atoms: S_6  and  C_20
    5  A    between atoms: C_15  and  C_21
                            x       y       z     vdW  Elec       q    Type
                         _______ _______ _______ _____ _____    ______ ____

>  <TORSDO>
F 5

$$$$
