=
 OpenBabel10262421233D

 32 37  0  0  0  0  0  0  0  0999 V2000
  183.2460  178.7620  144.8150 C   0  0  0  0  0  3  0  0  0  0  0  0
  188.1620  177.7710  143.1970 C   0  0  0  0  0  0  0  0  0  0  0  0
  190.5400  176.5950  147.3420 C   0  0  0  0  0  2  0  0  0  0  0  0
  191.6630  177.1790  146.7260 O   0  0  0  0  0  0  0  0  0  0  0  0
  189.7620  177.5760  141.2640 C   0  0  0  0  0  0  0  0  0  0  0  0
  189.1120  177.8390  140.0440 C   0  0  0  0  0  0  0  0  0  0  0  0
  185.8370  178.3250  143.0740 C   0  0  0  0  0  0  0  0  0  0  0  0
  186.8550  177.8790  145.2220 C   0  0  0  0  0  3  0  0  0  0  0  0
  191.8700  177.1790  140.1240 C   0  0  0  0  0  0  0  0  0  0  0  0
  184.6140  178.4040  145.2040 C   0  0  0  0  0  3  0  0  0  0  0  0
  189.2610  177.2600  146.8210 C   0  0  0  0  0  2  0  0  0  0  0  0
  188.0820  177.6530  144.6000 C   0  0  0  0  0  0  0  0  0  0  0  0
  189.2640  177.2990  145.3550 N   0  0  0  0  0  0  0  0  0  0  0  0
  190.5000  177.2190  143.3120 C   0  0  0  0  0  0  0  0  0  0  0  0
  191.2370  177.4380  138.9000 C   0  0  0  0  0  3  0  0  0  0  0  0
  183.4780  178.9450  142.3580 C   0  0  0  0  0  3  0  0  0  0  0  0
  185.7180  178.2160  144.4830 C   0  0  0  0  0  0  0  0  0  0  0  0
  189.8680  177.7650  138.8620 C   0  0  0  0  0  3  0  0  0  0  0  0
  184.7580  178.6680  142.1400 C   0  0  0  0  0  3  0  0  0  0  0  0
  182.7250  178.9990  143.6170 C   0  0  0  0  0  0  0  0  0  0  0  0
  191.7210  176.6770  145.4120 C   0  0  0  0  0  2  0  0  0  0  0  0
  190.5030  177.1010  144.6430 C   0  0  0  0  0  0  0  0  0  0  0  0
  191.5320  177.0450  142.5160 O   0  0  0  0  0  0  0  0  0  0  0  0
  187.0480  178.0990  142.4950 N   0  0  0  0  0  0  0  0  0  0  0  0
  187.7660  178.1640  139.9690 O   0  0  0  0  0  1  0  0  0  0  0  0
  193.2190  176.8550  140.1690 O   0  0  0  0  0  1  0  0  0  0  0  0
  189.3530  177.5530  142.5970 C   0  0  0  0  0  0  0  0  0  0  0  0
  191.1090  177.2550  141.2900 C   0  0  0  0  0  0  0  0  0  0  0  0
  180.3360  178.8380  142.6790 C   0  0  0  0  0  0  0  0  0  0  0  0
  181.3280  179.3270  143.5920 N   0  0  0  0  0  2  0  0  0  0  0  0
  180.6280  178.0250  141.7640 O   0  0  0  0  0  0  0  0  0  0  0  0
  178.9310  179.3020  142.8180 C   0  0  0  0  0  1  0  0  0  0  0  0
  1 10  1  0  0  0  0
  2 12  1  0  0  0  0
  4  3  1  0  0  0  0
  5 28  1  0  0  0  0
  5 27  1  0  0  0  0
  6  5  2  0  0  0  0
  7 17  1  0  0  0  0
  9 26  1  0  0  0  0
  9 28  2  0  0  0  0
 11  3  1  0  0  0  0
 12  8  2  0  0  0  0
 12 13  1  0  0  0  0
 13 11  1  0  0  0  0
 14 22  2  0  0  0  0
 15  9  1  0  0  0  0
 16 20  1  0  0  0  0
 17 10  2  0  0  0  0
 17  8  1  0  0  0  0
 18 15  2  0  0  0  0
 18  6  1  0  0  0  0
 19 16  2  0  0  0  0
 19  7  1  0  0  0  0
 20  1  2  0  0  0  0
 21  4  1  0  0  0  0
 22 13  1  0  0  0  0
 22 21  1  0  0  0  0
 23 14  1  0  0  0  0
 24  7  2  0  0  0  0
 24  2  1  0  0  0  0
 25  6  1  0  0  0  0
 27  2  2  0  0  0  0
 27 14  1  0  0  0  0
 28 23  1  0  0  0  0
 29 32  1  0  0  0  0
 29 30  1  0  0  0  0
 30 20  1  0  0  0  0
 31 29  2  0  0  0  0
M  END
>  <MODEL>
1

>  <REMARK>
 VINA RESULT:     -11.6      0.000      0.000
  Name = 
  1 active torsions:
  status: ('A' for Active; 'I' for Inactive)
    1  A    between atoms: N_10  and  C_24
                            x       y       z     vdW  Elec       q    Type
                         _______ _______ _______ _____ _____    ______ ____

>  <TORSDO>
F 1

$$$$
=
 OpenBabel10262421233D

 32 37  0  0  0  0  0  0  0  0999 V2000
  190.9620  177.2430  145.1700 C   0  0  0  0  0  3  0  0  0  0  0  0
  186.4610  178.1960  142.6000 C   0  0  0  0  0  0  0  0  0  0  0  0
  187.7730  178.0580  137.8590 C   0  0  0  0  0  2  0  0  0  0  0  0
  186.7630  179.0230  137.6710 O   0  0  0  0  0  0  0  0  0  0  0  0
  183.9820  178.6100  142.7420 C   0  0  0  0  0  0  0  0  0  0  0  0
  183.5450  178.5920  144.0780 C   0  0  0  0  0  0  0  0  0  0  0  0
  187.9510  177.8160  144.4340 C   0  0  0  0  0  0  0  0  0  0  0  0
  188.8040  177.8140  142.1710 C   0  0  0  0  0  3  0  0  0  0  0  0
  181.7280  179.0400  141.9450 C   0  0  0  0  0  0  0  0  0  0  0  0
  190.3120  177.4400  143.8700 C   0  0  0  0  0  3  0  0  0  0  0  0
  188.3450  178.1780  139.2760 C   0  0  0  0  0  2  0  0  0  0  0  0
  187.5240  178.0690  141.6820 C   0  0  0  0  0  0  0  0  0  0  0  0
  187.2630  178.2010  140.2650 N   0  0  0  0  0  0  0  0  0  0  0  0
  184.9580  178.5820  140.7630 C   0  0  0  0  0  0  0  0  0  0  0  0
  181.2750  179.0250  143.2720 C   0  0  0  0  0  3  0  0  0  0  0  0
  189.0360  177.4790  146.7070 C   0  0  0  0  0  3  0  0  0  0  0  0
  189.0440  177.6830  143.5420 C   0  0  0  0  0  0  0  0  0  0  0  0
  182.1780  178.8030  144.3300 C   0  0  0  0  0  3  0  0  0  0  0  0
  188.0110  177.7100  145.8970 C   0  0  0  0  0  3  0  0  0  0  0  0
  190.4530  177.2520  146.3970 C   0  0  0  0  0  0  0  0  0  0  0  0
  185.6250  178.5680  138.3660 C   0  0  0  0  0  2  0  0  0  0  0  0
  185.9150  178.4860  139.8360 C   0  0  0  0  0  0  0  0  0  0  0  0
  183.6820  178.8090  140.5380 O   0  0  0  0  0  0  0  0  0  0  0  0
  186.7110  178.0650  143.9270 N   0  0  0  0  0  0  0  0  0  0  0  0
  184.4040  178.3770  145.1440 O   0  0  0  0  0  1  0  0  0  0  0  0
  180.8430  179.2580  140.8980 O   0  0  0  0  0  1  0  0  0  0  0  0
  185.2210  178.4440  142.1230 C   0  0  0  0  0  0  0  0  0  0  0  0
  183.0850  178.8290  141.7090 C   0  0  0  0  0  0  0  0  0  0  0  0
  192.2700  175.9040  147.6180 C   0  0  0  0  0  0  0  0  0  0  0  0
  191.3830  177.0200  147.4640 N   0  0  0  0  0  2  0  0  0  0  0  0
  192.3090  174.9740  146.7710 O   0  0  0  0  0  0  0  0  0  0  0  0
  193.1640  175.8450  148.8040 C   0  0  0  0  0  1  0  0  0  0  0  0
  1 20  2  0  0  0  0
  2 24  1  0  0  0  0
  3 11  1  0  0  0  0
  4  3  1  0  0  0  0
  4 21  1  0  0  0  0
  5  6  1  0  0  0  0
  6 18  2  0  0  0  0
  6 25  1  0  0  0  0
  7 19  1  0  0  0  0
  8 17  1  0  0  0  0
  9 15  2  0  0  0  0
 10  1  1  0  0  0  0
 11 13  1  0  0  0  0
 12  8  2  0  0  0  0
 12  2  1  0  0  0  0
 13 12  1  0  0  0  0
 14 27  1  0  0  0  0
 15 18  1  0  0  0  0
 17 10  2  0  0  0  0
 17  7  1  0  0  0  0
 19 16  2  0  0  0  0
 20 16  1  0  0  0  0
 20 30  1  0  0  0  0
 21 22  1  0  0  0  0
 22 13  1  0  0  0  0
 22 14  2  0  0  0  0
 23 14  1  0  0  0  0
 23 28  1  0  0  0  0
 24  7  2  0  0  0  0
 26  9  1  0  0  0  0
 27  2  2  0  0  0  0
 27  5  1  0  0  0  0
 28  9  1  0  0  0  0
 28  5  2  0  0  0  0
 29 32  1  0  0  0  0
 30 29  1  0  0  0  0
 31 29  2  0  0  0  0
M  END
>  <MODEL>
2

>  <REMARK>
 VINA RESULT:     -11.4      2.410      8.367
  Name = 
  1 active torsions:
  status: ('A' for Active; 'I' for Inactive)
    1  A    between atoms: N_10  and  C_24
                            x       y       z     vdW  Elec       q    Type
                         _______ _______ _______ _____ _____    ______ ____

>  <TORSDO>
F 1

$$$$
=
 OpenBabel10262421233D

 32 37  0  0  0  0  0  0  0  0999 V2000
  191.5210  176.7480  139.0100 C   0  0  0  0  0  3  0  0  0  0  0  0
  188.6060  177.4470  143.3440 C   0  0  0  0  0  0  0  0  0  0  0  0
  191.7880  176.7040  147.0230 C   0  0  0  0  0  2  0  0  0  0  0  0
  190.6770  176.2020  147.7290 O   0  0  0  0  0  0  0  0  0  0  0  0
  186.3660  178.0490  144.3210 C   0  0  0  0  0  0  0  0  0  0  0  0
  185.4350  178.3370  143.3070 C   0  0  0  0  0  0  0  0  0  0  0  0
  189.1680  177.3480  141.0200 C   0  0  0  0  0  0  0  0  0  0  0  0
  190.8480  176.8470  142.6860 C   0  0  0  0  0  3  0  0  0  0  0  0
  184.7100  178.4790  146.0460 C   0  0  0  0  0  0  0  0  0  0  0  0
  191.4810  176.7250  140.4760 C   0  0  0  0  0  3  0  0  0  0  0  0
  191.5920  176.4760  145.5200 C   0  0  0  0  0  2  0  0  0  0  0  0
  189.9190  177.0780  143.7000 C   0  0  0  0  0  0  0  0  0  0  0  0
  190.2720  176.9530  145.0970 N   0  0  0  0  0  0  0  0  0  0  0  0
  188.0310  177.5450  145.6780 C   0  0  0  0  0  0  0  0  0  0  0  0
  183.7700  178.7690  145.0470 C   0  0  0  0  0  3  0  0  0  0  0  0
  189.1930  177.4020  138.4790 C   0  0  0  0  0  3  0  0  0  0  0  0
  190.4970  176.9750  141.3390 C   0  0  0  0  0  0  0  0  0  0  0  0
  184.1310  178.6980  143.6880 C   0  0  0  0  0  3  0  0  0  0  0  0
  188.6210  177.5310  139.6700 C   0  0  0  0  0  3  0  0  0  0  0  0
  190.5700  177.0310  138.1270 C   0  0  0  0  0  0  0  0  0  0  0  0
  189.6230  177.1160  147.5420 C   0  0  0  0  0  2  0  0  0  0  0  0
  189.2510  177.1880  146.0900 C   0  0  0  0  0  0  0  0  0  0  0  0
  187.0020  177.8200  146.4490 O   0  0  0  0  0  0  0  0  0  0  0  0
  188.2830  177.5680  142.0320 N   0  0  0  0  0  0  0  0  0  0  0  0
  185.7550  178.2770  141.9590 O   0  0  0  0  0  1  0  0  0  0  0  0
  184.3610  178.5480  147.3880 O   0  0  0  0  0  1  0  0  0  0  0  0
  187.7080  177.6690  144.3290 C   0  0  0  0  0  0  0  0  0  0  0  0
  186.0000  178.1230  145.6550 C   0  0  0  0  0  0  0  0  0  0  0  0
  191.4200  175.8070  136.0320 C   0  0  0  0  0  0  0  0  0  0  0  0
  190.9520  176.9590  136.7470 N   0  0  0  0  0  2  0  0  0  0  0  0
  191.5410  174.6880  136.5960 O   0  0  0  0  0  0  0  0  0  0  0  0
  191.7700  175.9370  134.5940 C   0  0  0  0  0  1  0  0  0  0  0  0
  1 10  1  0  0  0  0
  2 12  1  0  0  0  0
  2 27  2  0  0  0  0
  3  4  1  0  0  0  0
  5 27  1  0  0  0  0
  5 28  1  0  0  0  0
  6 18  1  0  0  0  0
  6  5  2  0  0  0  0
  7 17  1  0  0  0  0
  7 24  2  0  0  0  0
  8 12  2  0  0  0  0
  9 26  1  0  0  0  0
 10 17  2  0  0  0  0
 11  3  1  0  0  0  0
 12 13  1  0  0  0  0
 13 11  1  0  0  0  0
 13 22  1  0  0  0  0
 14 22  2  0  0  0  0
 14 23  1  0  0  0  0
 15  9  1  0  0  0  0
 16 19  2  0  0  0  0
 17  8  1  0  0  0  0
 18 15  2  0  0  0  0
 19  7  1  0  0  0  0
 20 16  1  0  0  0  0
 20  1  2  0  0  0  0
 21  4  1  0  0  0  0
 22 21  1  0  0  0  0
 24  2  1  0  0  0  0
 25  6  1  0  0  0  0
 27 14  1  0  0  0  0
 28  9  2  0  0  0  0
 28 23  1  0  0  0  0
 29 31  2  0  0  0  0
 29 30  1  0  0  0  0
 30 20  1  0  0  0  0
 32 29  1  0  0  0  0
M  END
>  <MODEL>
3

>  <REMARK>
 VINA RESULT:     -11.1      2.526      7.295
  Name = 
  1 active torsions:
  status: ('A' for Active; 'I' for Inactive)
    1  A    between atoms: N_10  and  C_24
                            x       y       z     vdW  Elec       q    Type
                         _______ _______ _______ _____ _____    ______ ____

>  <TORSDO>
F 1

$$$$
=
 OpenBabel10262421233D

 32 37  0  0  0  0  0  0  0  0999 V2000
  188.8510  177.6540  137.7790 C   0  0  0  0  0  3  0  0  0  0  0  0
  187.9060  177.8220  142.9610 C   0  0  0  0  0  0  0  0  0  0  0  0
  183.1350  178.9950  143.2390 C   0  0  0  0  0  2  0  0  0  0  0  0
  183.4870  179.6620  144.4290 O   0  0  0  0  0  0  0  0  0  0  0  0
  188.7980  177.5030  145.2930 C   0  0  0  0  0  0  0  0  0  0  0  0
  190.1450  177.1000  145.2660 C   0  0  0  0  0  0  0  0  0  0  0  0
  189.1120  177.5110  140.9170 C   0  0  0  0  0  0  0  0  0  0  0  0
  186.7930  178.1930  140.8530 C   0  0  0  0  0  3  0  0  0  0  0  0
  188.7660  177.4450  147.7210 C   0  0  0  0  0  0  0  0  0  0  0  0
  187.8710  177.9190  138.8370 C   0  0  0  0  0  3  0  0  0  0  0  0
  184.3300  178.9840  142.2800 C   0  0  0  0  0  2  0  0  0  0  0  0
  186.7440  178.1780  142.2460 C   0  0  0  0  0  0  0  0  0  0  0  0
  185.5360  178.5120  142.9690 N   0  0  0  0  0  0  0  0  0  0  0  0
  186.7020  178.1370  145.0190 C   0  0  0  0  0  0  0  0  0  0  0  0
  190.1100  177.0430  147.7120 C   0  0  0  0  0  3  0  0  0  0  0  0
  190.8420  177.0410  139.1160 C   0  0  0  0  0  3  0  0  0  0  0  0
  187.9640  177.8630  140.1650 C   0  0  0  0  0  0  0  0  0  0  0  0
  190.7930  176.8720  146.4920 C   0  0  0  0  0  3  0  0  0  0  0  0
  190.4220  177.1380  140.3710 C   0  0  0  0  0  3  0  0  0  0  0  0
  190.1230  177.2790  137.8580 C   0  0  0  0  0  0  0  0  0  0  0  0
  184.3040  178.7840  145.1670 C   0  0  0  0  0  2  0  0  0  0  0  0
  185.5680  178.4940  144.4110 C   0  0  0  0  0  0  0  0  0  0  0  0
  186.8890  178.0440  146.3180 O   0  0  0  0  0  0  0  0  0  0  0  0
  189.0340  177.5050  142.2770 N   0  0  0  0  0  0  0  0  0  0  0  0
  190.8490  176.9220  144.0840 O   0  0  0  0  0  1  0  0  0  0  0  0
  188.0870  177.6140  148.9200 O   0  0  0  0  0  1  0  0  0  0  0  0
  187.8560  177.8100  144.3110 C   0  0  0  0  0  0  0  0  0  0  0  0
  188.1350  177.6670  146.4980 C   0  0  0  0  0  0  0  0  0  0  0  0
  190.9880  175.8820  135.8800 C   0  0  0  0  0  0  0  0  0  0  0  0
  190.8050  177.1040  136.6090 N   0  0  0  0  0  2  0  0  0  0  0  0
  190.5330  174.7890  136.3060 O   0  0  0  0  0  0  0  0  0  0  0  0
  191.7320  175.9090  134.5940 C   0  0  0  0  0  1  0  0  0  0  0  0
  1 20  2  0  0  0  0
  1 10  1  0  0  0  0
  2 27  2  0  0  0  0
  3  4  1  0  0  0  0
  4 21  1  0  0  0  0
  5 28  1  0  0  0  0
  6  5  2  0  0  0  0
  6 18  1  0  0  0  0
  7 24  2  0  0  0  0
  8 12  2  0  0  0  0
  9 26  1  0  0  0  0
 10 17  2  0  0  0  0
 11 13  1  0  0  0  0
 11  3  1  0  0  0  0
 12  2  1  0  0  0  0
 12 13  1  0  0  0  0
 13 22  1  0  0  0  0
 14 23  1  0  0  0  0
 15  9  1  0  0  0  0
 16 19  2  0  0  0  0
 17  8  1  0  0  0  0
 17  7  1  0  0  0  0
 18 15  2  0  0  0  0
 19  7  1  0  0  0  0
 20 16  1  0  0  0  0
 22 14  2  0  0  0  0
 22 21  1  0  0  0  0
 23 28  1  0  0  0  0
 24  2  1  0  0  0  0
 25  6  1  0  0  0  0
 27 14  1  0  0  0  0
 27  5  1  0  0  0  0
 28  9  2  0  0  0  0
 29 31  2  0  0  0  0
 29 30  1  0  0  0  0
 30 20  1  0  0  0  0
 32 29  1  0  0  0  0
M  END
>  <MODEL>
4

>  <REMARK>
 VINA RESULT:     -10.9      2.517      7.676
  Name = 
  1 active torsions:
  status: ('A' for Active; 'I' for Inactive)
    1  A    between atoms: N_10  and  C_24
                            x       y       z     vdW  Elec       q    Type
                         _______ _______ _______ _____ _____    ______ ____

>  <TORSDO>
F 1

$$$$
=
 OpenBabel10262421233D

 32 37  0  0  0  0  0  0  0  0999 V2000
  189.2880  177.3620  146.7730 C   0  0  0  0  0  3  0  0  0  0  0  0
  187.5320  178.0540  141.8520 C   0  0  0  0  0  0  0  0  0  0  0  0
  182.7820  179.1860  142.4570 C   0  0  0  0  0  2  0  0  0  0  0  0
  182.5880  178.5300  141.2250 O   0  0  0  0  0  0  0  0  0  0  0  0
  188.0740  178.1230  139.3950 C   0  0  0  0  0  0  0  0  0  0  0  0
  189.4400  177.8720  139.1740 C   0  0  0  0  0  0  0  0  0  0  0  0
  189.0650  177.6230  143.6390 C   0  0  0  0  0  0  0  0  0  0  0  0
  186.7370  178.0580  144.1300 C   0  0  0  0  0  3  0  0  0  0  0  0
  187.6740  178.3840  137.0140 C   0  0  0  0  0  0  0  0  0  0  0  0
  188.1360  177.6530  145.9130 C   0  0  0  0  0  3  0  0  0  0  0  0
  183.9890  178.5800  143.1810 C   0  0  0  0  0  2  0  0  0  0  0  0
  186.4720  178.2050  142.7690 C   0  0  0  0  0  0  0  0  0  0  0  0
  185.1450  178.5110  142.2810 N   0  0  0  0  0  0  0  0  0  0  0  0
  185.9980  178.4830  140.0510 C   0  0  0  0  0  0  0  0  0  0  0  0
  189.0330  178.1340  136.7750 C   0  0  0  0  0  3  0  0  0  0  0  0
  191.0880  177.1160  145.0920 C   0  0  0  0  0  3  0  0  0  0  0  0
  188.0240  177.7670  144.5900 C   0  0  0  0  0  0  0  0  0  0  0  0
  189.9090  177.8800  137.8480 C   0  0  0  0  0  3  0  0  0  0  0  0
  190.4710  177.3200  143.9350 C   0  0  0  0  0  3  0  0  0  0  0  0
  190.5570  177.1280  146.4610 C   0  0  0  0  0  0  0  0  0  0  0  0
  183.5830  179.0010  140.3470 C   0  0  0  0  0  2  0  0  0  0  0  0
  184.9430  178.6280  140.8580 C   0  0  0  0  0  0  0  0  0  0  0  0
  185.9910  178.5850  138.7390 O   0  0  0  0  0  0  0  0  0  0  0  0
  188.7760  177.7730  142.3170 N   0  0  0  0  0  0  0  0  0  0  0  0
  190.3310  177.6170  140.2050 O   0  0  0  0  0  1  0  0  0  0  0  0
  186.8060  178.6360  135.9600 O   0  0  0  0  0  1  0  0  0  0  0  0
  187.2720  178.1960  140.5340 C   0  0  0  0  0  0  0  0  0  0  0  0
  187.2220  178.3730  138.3320 C   0  0  0  0  0  0  0  0  0  0  0  0
  192.3440  175.7730  147.7180 C   0  0  0  0  0  0  0  0  0  0  0  0
  191.4390  176.8750  147.5640 N   0  0  0  0  0  2  0  0  0  0  0  0
  192.4470  174.8780  146.8400 O   0  0  0  0  0  0  0  0  0  0  0  0
  193.1800  175.6870  148.9440 C   0  0  0  0  0  1  0  0  0  0  0  0
  2 24  1  0  0  0  0
  2 12  1  0  0  0  0
  3 11  1  0  0  0  0
  4  3  1  0  0  0  0
  5 27  1  0  0  0  0
  6  5  1  0  0  0  0
  6 25  1  0  0  0  0
  7 19  1  0  0  0  0
  7 17  1  0  0  0  0
  8 17  1  0  0  0  0
  9 28  1  0  0  0  0
 10  1  1  0  0  0  0
 12  8  2  0  0  0  0
 13 12  1  0  0  0  0
 13 11  1  0  0  0  0
 14 27  1  0  0  0  0
 14 22  2  0  0  0  0
 15  9  2  0  0  0  0
 15 18  1  0  0  0  0
 16 20  1  0  0  0  0
 17 10  2  0  0  0  0
 18  6  2  0  0  0  0
 19 16  2  0  0  0  0
 20  1  2  0  0  0  0
 20 30  1  0  0  0  0
 21 22  1  0  0  0  0
 21  4  1  0  0  0  0
 22 13  1  0  0  0  0
 23 14  1  0  0  0  0
 24  7  2  0  0  0  0
 26  9  1  0  0  0  0
 27  2  2  0  0  0  0
 28 23  1  0  0  0  0
 28  5  2  0  0  0  0
 29 32  1  0  0  0  0
 30 29  1  0  0  0  0
 31 29  2  0  0  0  0
M  END
>  <MODEL>
5

>  <REMARK>
 VINA RESULT:     -10.7      1.975      7.175
  Name = 
  1 active torsions:
  status: ('A' for Active; 'I' for Inactive)
    1  A    between atoms: N_10  and  C_24
                            x       y       z     vdW  Elec       q    Type
                         _______ _______ _______ _____ _____    ______ ____

>  <TORSDO>
F 1

$$$$
=
 OpenBabel10262421233D

 32 37  0  0  0  0  0  0  0  0999 V2000
  192.0230  176.4160  145.7930 C   0  0  0  0  0  3  0  0  0  0  0  0
  187.5960  177.7980  143.2900 C   0  0  0  0  0  0  0  0  0  0  0  0
  188.8620  177.6930  138.5360 C   0  0  0  0  0  2  0  0  0  0  0  0
  187.9320  178.7390  138.3850 O   0  0  0  0  0  0  0  0  0  0  0  0
  185.1590  178.4040  143.4650 C   0  0  0  0  0  0  0  0  0  0  0  0
  184.7300  178.3820  144.8050 C   0  0  0  0  0  0  0  0  0  0  0  0
  189.0620  177.2470  145.1000 C   0  0  0  0  0  0  0  0  0  0  0  0
  189.8980  177.2430  142.8300 C   0  0  0  0  0  3  0  0  0  0  0  0
  182.9410  179.0350  142.7020 C   0  0  0  0  0  0  0  0  0  0  0  0
  191.3830  176.7010  144.5050 C   0  0  0  0  0  3  0  0  0  0  0  0
  189.4510  177.7260  139.9510 C   0  0  0  0  0  2  0  0  0  0  0  0
  188.6390  177.6130  142.3600 C   0  0  0  0  0  0  0  0  0  0  0  0
  188.3800  177.8060  140.9500 N   0  0  0  0  0  0  0  0  0  0  0  0
  186.1160  178.3550  141.4780 C   0  0  0  0  0  0  0  0  0  0  0  0
  182.4970  179.0180  144.0310 C   0  0  0  0  0  3  0  0  0  0  0  0
  190.1320  176.7600  147.3530 C   0  0  0  0  0  3  0  0  0  0  0  0
  190.1360  177.0540  144.1950 C   0  0  0  0  0  0  0  0  0  0  0  0
  183.3860  178.6940  145.0750 C   0  0  0  0  0  3  0  0  0  0  0  0
  189.1230  177.0950  146.5580 C   0  0  0  0  0  3  0  0  0  0  0  0
  191.5250  176.4300  147.0240 C   0  0  0  0  0  0  0  0  0  0  0  0
  186.7650  178.3570  139.0760 C   0  0  0  0  0  2  0  0  0  0  0  0
  187.0570  178.2100  140.5400 C   0  0  0  0  0  0  0  0  0  0  0  0
  184.8610  178.6890  141.2710 O   0  0  0  0  0  0  0  0  0  0  0  0
  187.8440  177.6090  144.6110 N   0  0  0  0  0  0  0  0  0  0  0  0
  185.5770  178.0690  145.8570 O   0  0  0  0  0  1  0  0  0  0  0  0
  182.0700  179.3520  141.6690 O   0  0  0  0  0  1  0  0  0  0  0  0
  186.3770  178.1580  142.8310 C   0  0  0  0  0  0  0  0  0  0  0  0
  184.2760  178.7230  142.4470 C   0  0  0  0  0  0  0  0  0  0  0  0
  192.8680  176.9330  149.1580 C   0  0  0  0  0  0  0  0  0  0  0  0
  192.4400  176.0940  148.0760 N   0  0  0  0  0  2  0  0  0  0  0  0
  192.4470  178.1120  149.2810 O   0  0  0  0  0  0  0  0  0  0  0  0
  193.8300  176.3970  150.1550 C   0  0  0  0  0  1  0  0  0  0  0  0
  1 20  2  0  0  0  0
  2 24  1  0  0  0  0
  3 11  1  0  0  0  0
  4  3  1  0  0  0  0
  4 21  1  0  0  0  0
  5  6  1  0  0  0  0
  6 18  2  0  0  0  0
  6 25  1  0  0  0  0
  7 19  1  0  0  0  0
  8 17  1  0  0  0  0
  9 15  2  0  0  0  0
 10  1  1  0  0  0  0
 11 13  1  0  0  0  0
 12  8  2  0  0  0  0
 12  2  1  0  0  0  0
 13 12  1  0  0  0  0
 14 27  1  0  0  0  0
 15 18  1  0  0  0  0
 17 10  2  0  0  0  0
 17  7  1  0  0  0  0
 19 16  2  0  0  0  0
 20 16  1  0  0  0  0
 20 30  1  0  0  0  0
 21 22  1  0  0  0  0
 22 13  1  0  0  0  0
 22 14  2  0  0  0  0
 23 14  1  0  0  0  0
 23 28  1  0  0  0  0
 24  7  2  0  0  0  0
 26  9  1  0  0  0  0
 27  2  2  0  0  0  0
 27  5  1  0  0  0  0
 28  9  1  0  0  0  0
 28  5  2  0  0  0  0
 29 31  2  0  0  0  0
 29 32  1  0  0  0  0
 30 29  1  0  0  0  0
M  END
>  <MODEL>
6

>  <REMARK>
 VINA RESULT:     -10.6      2.402      8.341
  Name = 
  1 active torsions:
  status: ('A' for Active; 'I' for Inactive)
    1  A    between atoms: N_10  and  C_24
                            x       y       z     vdW  Elec       q    Type
                         _______ _______ _______ _____ _____    ______ ____

>  <TORSDO>
F 1

$$$$
=
 OpenBabel10262421233D

 32 37  0  0  0  0  0  0  0  0999 V2000
  192.1530  177.0860  140.6110 C   0  0  0  0  0  3  0  0  0  0  0  0
  187.5430  177.9360  143.0200 C   0  0  0  0  0  0  0  0  0  0  0  0
  188.7250  178.0470  147.7950 C   0  0  0  0  0  2  0  0  0  0  0  0
  187.4450  177.4990  148.0060 O   0  0  0  0  0  0  0  0  0  0  0  0
  185.0750  178.3670  142.7870 C   0  0  0  0  0  0  0  0  0  0  0  0
  184.6970  178.4120  141.4330 C   0  0  0  0  0  0  0  0  0  0  0  0
  189.1110  177.6270  141.2380 C   0  0  0  0  0  0  0  0  0  0  0  0
  189.8680  177.5450  143.5340 C   0  0  0  0  0  3  0  0  0  0  0  0
  182.7920  178.7930  143.5000 C   0  0  0  0  0  0  0  0  0  0  0  0
  191.4480  177.2360  141.8880 C   0  0  0  0  0  3  0  0  0  0  0  0
  189.2520  177.6160  146.4220 C   0  0  0  0  0  2  0  0  0  0  0  0
  188.5670  177.7790  143.9770 C   0  0  0  0  0  0  0  0  0  0  0  0
  188.2470  177.8700  145.3840 N   0  0  0  0  0  0  0  0  0  0  0  0
  185.9610  178.2430  144.8040 C   0  0  0  0  0  0  0  0  0  0  0  0
  182.3990  178.8410  142.1560 C   0  0  0  0  0  3  0  0  0  0  0  0
  190.2940  177.3750  139.0020 C   0  0  0  0  0  3  0  0  0  0  0  0
  190.1660  177.4640  142.1710 C   0  0  0  0  0  0  0  0  0  0  0  0
  183.3450  178.6510  141.1300 C   0  0  0  0  0  3  0  0  0  0  0  0
  189.2340  177.5750  139.7760 C   0  0  0  0  0  3  0  0  0  0  0  0
  191.6970  177.1390  139.3640 C   0  0  0  0  0  0  0  0  0  0  0  0
  186.5440  178.2460  147.2230 C   0  0  0  0  0  2  0  0  0  0  0  0
  186.8740  178.0940  145.7670 C   0  0  0  0  0  0  0  0  0  0  0  0
  184.6790  178.4790  144.9810 O   0  0  0  0  0  0  0  0  0  0  0  0
  187.8510  177.8550  141.7000 N   0  0  0  0  0  0  0  0  0  0  0  0
  185.6010  178.2290  140.3970 O   0  0  0  0  0  1  0  0  0  0  0  0
  181.8640  178.9800  144.5160 O   0  0  0  0  0  1  0  0  0  0  0  0
  186.2830  178.1620  143.4520 C   0  0  0  0  0  0  0  0  0  0  0  0
  184.1350  178.5560  143.7870 C   0  0  0  0  0  0  0  0  0  0  0  0
  192.9610  175.7370  137.6190 C   0  0  0  0  0  0  0  0  0  0  0  0
  192.6720  176.9490  138.3300 N   0  0  0  0  0  2  0  0  0  0  0  0
  192.3400  174.6700  137.8600 O   0  0  0  0  0  0  0  0  0  0  0  0
  194.0170  175.7430  136.5730 C   0  0  0  0  0  1  0  0  0  0  0  0
  1 10  1  0  0  0  0
  2 27  2  0  0  0  0
  2 12  1  0  0  0  0
  3  4  1  0  0  0  0
  5 27  1  0  0  0  0
  5 28  1  0  0  0  0
  6  5  2  0  0  0  0
  7 24  2  0  0  0  0
  7 17  1  0  0  0  0
  8 12  2  0  0  0  0
  9 28  2  0  0  0  0
  9 26  1  0  0  0  0
 10 17  2  0  0  0  0
 11  3  1  0  0  0  0
 12 13  1  0  0  0  0
 13 22  1  0  0  0  0
 13 11  1  0  0  0  0
 14 23  1  0  0  0  0
 14 22  2  0  0  0  0
 15  9  1  0  0  0  0
 16 20  1  0  0  0  0
 16 19  2  0  0  0  0
 17  8  1  0  0  0  0
 18  6  1  0  0  0  0
 18 15  2  0  0  0  0
 19  7  1  0  0  0  0
 20  1  2  0  0  0  0
 21  4  1  0  0  0  0
 22 21  1  0  0  0  0
 24  2  1  0  0  0  0
 25  6  1  0  0  0  0
 27 14  1  0  0  0  0
 28 23  1  0  0  0  0
 29 31  2  0  0  0  0
 29 30  1  0  0  0  0
 30 20  1  0  0  0  0
 32 29  1  0  0  0  0
M  END
>  <MODEL>
7

>  <REMARK>
 VINA RESULT:     -10.5      2.283      7.629
  Name = 
  1 active torsions:
  status: ('A' for Active; 'I' for Inactive)
    1  A    between atoms: N_10  and  C_24
                            x       y       z     vdW  Elec       q    Type
                         _______ _______ _______ _____ _____    ______ ____

>  <TORSDO>
F 1

$$$$
=
 OpenBabel10262421233D

 32 37  0  0  0  0  0  0  0  0999 V2000
  183.0410  178.9310  140.3630 C   0  0  0  0  0  3  0  0  0  0  0  0
  187.2310  178.0020  143.4210 C   0  0  0  0  0  0  0  0  0  0  0  0
  190.9310  177.5190  140.2140 C   0  0  0  0  0  2  0  0  0  0  0  0
  191.4670  176.6100  141.1460 O   0  0  0  0  0  0  0  0  0  0  0  0
  188.1470  177.7730  145.7540 C   0  0  0  0  0  0  0  0  0  0  0  0
  187.1370  177.9700  146.7130 C   0  0  0  0  0  0  0  0  0  0  0  0
  184.9650  178.4840  142.8190 C   0  0  0  0  0  0  0  0  0  0  0  0
  186.6280  178.1750  141.0910 C   0  0  0  0  0  3  0  0  0  0  0  0
  189.8070  177.4100  147.4890 C   0  0  0  0  0  0  0  0  0  0  0  0
  184.4750  178.6340  140.4160 C   0  0  0  0  0  3  0  0  0  0  0  0
  189.4020  177.5200  140.3150 C   0  0  0  0  0  2  0  0  0  0  0  0
  187.6040  177.9530  142.0620 C   0  0  0  0  0  0  0  0  0  0  0  0
  188.9800  177.6810  141.7090 N   0  0  0  0  0  0  0  0  0  0  0  0
  189.5040  177.5140  144.0340 C   0  0  0  0  0  0  0  0  0  0  0  0
  188.8130  177.6030  148.4580 C   0  0  0  0  0  3  0  0  0  0  0  0
  182.4760  178.9990  142.7720 C   0  0  0  0  0  3  0  0  0  0  0  0
  185.3020  178.4420  141.4430 C   0  0  0  0  0  0  0  0  0  0  0  0
  187.4870  177.8810  148.0720 C   0  0  0  0  0  3  0  0  0  0  0  0
  183.6320  178.7480  143.3750 C   0  0  0  0  0  3  0  0  0  0  0  0
  182.1580  179.0940  141.3420 C   0  0  0  0  0  0  0  0  0  0  0  0
  191.3700  177.2150  142.4150 C   0  0  0  0  0  2  0  0  0  0  0  0
  189.9290  177.4410  142.7690 C   0  0  0  0  0  0  0  0  0  0  0  0
  190.2420  177.3500  145.1100 O   0  0  0  0  0  0  0  0  0  0  0  0
  185.9390  178.2630  143.7450 N   0  0  0  0  0  0  0  0  0  0  0  0
  185.8220  178.2450  146.3690 O   0  0  0  0  0  1  0  0  0  0  0  0
  191.1160  177.1360  147.8630 O   0  0  0  0  0  1  0  0  0  0  0  0
  188.1780  177.7850  144.3600 C   0  0  0  0  0  0  0  0  0  0  0  0
  189.4470  177.5010  146.1460 C   0  0  0  0  0  0  0  0  0  0  0  0
  180.3820  180.3770  139.9970 C   0  0  0  0  0  0  0  0  0  0  0  0
  180.8130  179.3810  140.9340 N   0  0  0  0  0  2  0  0  0  0  0  0
  181.2030  181.1310  139.4140 O   0  0  0  0  0  0  0  0  0  0  0  0
  178.9310  180.5210  139.7060 C   0  0  0  0  0  1  0  0  0  0  0  0
  1 10  1  0  0  0  0
  1 20  2  0  0  0  0
  2 24  1  0  0  0  0
  2 27  2  0  0  0  0
  3 11  1  0  0  0  0
  3  4  1  0  0  0  0
  4 21  1  0  0  0  0
  5 28  2  0  0  0  0
  5  6  1  0  0  0  0
  6 18  2  0  0  0  0
  7 19  1  0  0  0  0
  7 24  2  0  0  0  0
  8 17  1  0  0  0  0
  8 12  2  0  0  0  0
  9 26  1  0  0  0  0
  9 15  2  0  0  0  0
 10 17  2  0  0  0  0
 11 13  1  0  0  0  0
 12  2  1  0  0  0  0
 13 12  1  0  0  0  0
 13 22  1  0  0  0  0
 14 27  1  0  0  0  0
 14 23  1  0  0  0  0
 16 19  2  0  0  0  0
 17  7  1  0  0  0  0
 18 15  1  0  0  0  0
 20 16  1  0  0  0  0
 21 22  1  0  0  0  0
 22 14  2  0  0  0  0
 23 28  1  0  0  0  0
 25  6  1  0  0  0  0
 27  5  1  0  0  0  0
 28  9  1  0  0  0  0
 29 30  1  0  0  0  0
 30 20  1  0  0  0  0
 31 29  2  0  0  0  0
 32 29  1  0  0  0  0
M  END
>  <MODEL>
8

>  <REMARK>
 VINA RESULT:     -10.3      2.036      4.853
  Name = 
  1 active torsions:
  status: ('A' for Active; 'I' for Inactive)
    1  A    between atoms: N_10  and  C_24
                            x       y       z     vdW  Elec       q    Type
                         _______ _______ _______ _____ _____    ______ ____

>  <TORSDO>
F 1

$$$$
=
 OpenBabel10262421233D

 32 37  0  0  0  0  0  0  0  0999 V2000
  182.0950  179.0340  143.1470 C   0  0  0  0  0  3  0  0  0  0  0  0
  187.2540  177.9750  143.3310 C   0  0  0  0  0  0  0  0  0  0  0  0
  188.1460  177.3440  148.1290 C   0  0  0  0  0  2  0  0  0  0  0  0
  189.4170  177.8780  147.8450 O   0  0  0  0  0  0  0  0  0  0  0  0
  189.3900  177.5930  142.0540 C   0  0  0  0  0  0  0  0  0  0  0  0
  189.1730  177.6970  140.6690 C   0  0  0  0  0  0  0  0  0  0  0  0
  185.1030  178.4570  142.4000 C   0  0  0  0  0  0  0  0  0  0  0  0
  185.3650  178.2880  144.7980 C   0  0  0  0  0  3  0  0  0  0  0  0
  191.7460  177.1140  141.7110 C   0  0  0  0  0  0  0  0  0  0  0  0
  183.2590  178.7550  143.9950 C   0  0  0  0  0  3  0  0  0  0  0  0
  187.1150  177.9140  147.1480 C   0  0  0  0  0  2  0  0  0  0  0  0
  186.7240  178.0190  144.6360 C   0  0  0  0  0  0  0  0  0  0  0  0
  187.5920  177.7820  145.7680 N   0  0  0  0  0  0  0  0  0  0  0  0
  189.4200  177.4940  144.2580 C   0  0  0  0  0  0  0  0  0  0  0  0
  191.5480  177.2140  140.3270 C   0  0  0  0  0  3  0  0  0  0  0  0
  183.1130  178.9350  140.8930 C   0  0  0  0  0  3  0  0  0  0  0  0
  184.5340  178.5100  143.6970 C   0  0  0  0  0  0  0  0  0  0  0  0
  190.2700  177.5040  139.8100 C   0  0  0  0  0  3  0  0  0  0  0  0
  184.3900  178.6640  141.1340 C   0  0  0  0  0  3  0  0  0  0  0  0
  181.9940  179.1180  141.8250 C   0  0  0  0  0  0  0  0  0  0  0  0
  189.8880  177.2280  146.6880 C   0  0  0  0  0  2  0  0  0  0  0  0
  188.9920  177.5310  145.5230 C   0  0  0  0  0  0  0  0  0  0  0  0
  190.6520  177.2520  143.8640 O   0  0  0  0  0  0  0  0  0  0  0  0
  186.4330  178.1930  142.2730 N   0  0  0  0  0  0  0  0  0  0  0  0
  187.9300  177.9800  140.1250 O   0  0  0  0  0  1  0  0  0  0  0  0
  193.0030  176.8290  142.2270 O   0  0  0  0  0  1  0  0  0  0  0  0
  188.5720  177.7160  143.1770 C   0  0  0  0  0  0  0  0  0  0  0  0
  190.6510  177.3080  142.5510 C   0  0  0  0  0  0  0  0  0  0  0  0
  180.3580  180.2180  140.1750 C   0  0  0  0  0  0  0  0  0  0  0  0
  180.6860  179.4090  141.3130 N   0  0  0  0  0  2  0  0  0  0  0  0
  181.2500  180.7770  139.4860 O   0  0  0  0  0  0  0  0  0  0  0  0
  178.9310  180.4000  139.8010 C   0  0  0  0  0  1  0  0  0  0  0  0
  1 10  1  0  0  0  0
  2 12  1  0  0  0  0
  4  3  1  0  0  0  0
  5 28  1  0  0  0  0
  5 27  1  0  0  0  0
  6  5  2  0  0  0  0
  7 17  1  0  0  0  0
  9 26  1  0  0  0  0
  9 28  2  0  0  0  0
 11  3  1  0  0  0  0
 12  8  2  0  0  0  0
 12 13  1  0  0  0  0
 13 11  1  0  0  0  0
 14 22  2  0  0  0  0
 15  9  1  0  0  0  0
 16 19  2  0  0  0  0
 16 20  1  0  0  0  0
 17 10  2  0  0  0  0
 17  8  1  0  0  0  0
 18 15  2  0  0  0  0
 18  6  1  0  0  0  0
 19  7  1  0  0  0  0
 20  1  2  0  0  0  0
 21  4  1  0  0  0  0
 22 13  1  0  0  0  0
 22 21  1  0  0  0  0
 23 14  1  0  0  0  0
 24  7  2  0  0  0  0
 24  2  1  0  0  0  0
 25  6  1  0  0  0  0
 27  2  2  0  0  0  0
 27 14  1  0  0  0  0
 28 23  1  0  0  0  0
 29 30  1  0  0  0  0
 30 20  1  0  0  0  0
 31 29  2  0  0  0  0
 32 29  1  0  0  0  0
M  END
>  <MODEL>
9

>  <REMARK>
 VINA RESULT:     -10.0      1.554      1.859
  Name = 
  1 active torsions:
  status: ('A' for Active; 'I' for Inactive)
    1  A    between atoms: N_10  and  C_24
                            x       y       z     vdW  Elec       q    Type
                         _______ _______ _______ _____ _____    ______ ____

>  <TORSDO>
F 1

$$$$
