=
 OpenBabel10262419563D

 25 28  0  0  1  0  0  0  0  0999 V2000
  190.1760  177.9750  144.3930 C   0  0  1  0  0  0  0  0  0  0  0  0
  189.8780  178.2130  142.8980 C   0  0  2  0  0  3  0  0  0  0  0  0
  191.4840  175.8500  143.9440 C   0  0  0  0  0  2  0  0  0  0  0  0
  189.1550  178.4150  145.2610 O   0  0  0  0  0  0  0  0  0  0  0  0
  189.6150  178.1710  147.5030 O   0  0  0  0  0  1  0  0  0  0  0  0
  191.7340  176.4660  142.5510 C   0  0  0  0  0  2  0  0  0  0  0  0
  189.1540  177.5150  146.3620 C   0  0  1  0  0  0  0  0  0  0  0  0
  187.7400  177.0260  146.6070 C   0  0  0  0  0  1  0  0  0  0  0  0
  190.0500  176.9300  140.7400 C   0  0  0  0  0  0  0  0  0  0  0  0
  190.7450  176.3030  139.8980 O   0  0  0  0  0  0  0  0  0  0  0  0
  188.3810  178.2260  142.5820 C   0  0  0  0  0  2  0  0  0  0  0  0
  190.2550  176.4840  144.5930 C   0  0  1  0  0  3  0  0  0  0  0  0
  190.0600  176.3250  146.0590 C   0  0  0  0  0  2  0  0  0  0  0  0
  188.6330  177.2930  140.4090 C   0  0  0  0  0  2  0  0  0  0  0  0
  188.2020  178.4780  141.1530 N   0  0  0  0  0  0  0  0  0  0  0  0
  190.5650  177.2110  142.0510 N   0  0  0  0  0  0  0  0  0  0  0  0
  191.4950  178.6840  144.7670 C   0  0  0  0  0  2  0  0  0  0  0  0
  191.5630  180.0960  144.2060 C   0  0  0  0  0  1  0  0  0  0  0  0
  186.7760  178.6220  140.9190 C   0  0  0  0  0  2  0  0  0  0  0  0
  186.0730  178.3100  142.0840 O   0  0  0  0  0  0  0  0  0  0  0  0
  184.6190  179.5560  143.5660 C   0  0  2  0  0  3  0  0  0  0  0  0
  183.8000  178.5970  142.7250 C   0  0  0  0  0  2  0  0  0  0  0  0
  185.0340  179.2430  142.1280 C   0  0  2  0  0  3  0  0  0  0  0  0
  184.5810  178.7760  145.6340 C   0  0  0  0  0  1  0  0  0  0  0  0
  185.3790  178.8340  144.4910 O   0  0  0  0  0  0  0  0  0  0  0  0
  1 12  1  0  0  0  0
  1 17  1  1  0  0  0
  1  4  1  0  0  0  0
  2 11  1  1  0  0  0
  2  1  1  0  0  0  0
  4  7  1  0  0  0  0
  6  3  1  0  0  0  0
  7  8  1  1  0  0  0
  7  5  1  0  0  0  0
  9 16  1  0  0  0  0
 10  9  2  0  0  0  0
 12  3  1  1  0  0  0
 12 13  1  0  0  0  0
 13  7  1  0  0  0  0
 14  9  1  0  0  0  0
 14 15  1  0  0  0  0
 15 11  1  0  0  0  0
 16  6  1  0  0  0  0
 16  2  1  0  0  0  0
 18 17  1  0  0  0  0
 19 15  1  0  0  0  0
 19 20  1  0  0  0  0
 21 25  1  1  0  0  0
 22 21  1  0  0  0  0
 23 20  1  1  0  0  0
 23 22  1  0  0  0  0
 23 21  1  0  0  0  0
 25 24  1  0  0  0  0
M  END
>  <MODEL>
1

>  <REMARK>
 VINA RESULT:      -6.1      0.000      0.000
  Name = 
  5 active torsions:
  status: ('A' for Active; 'I' for Inactive)
    1  A    between atoms: C_1  and  C_17
    2  A    between atoms: C_2  and  O_12
    3  A    between atoms: C_6  and  O_15
    4  A    between atoms: C_6  and  N_23
    5  A    between atoms: O_15  and  C_25
                            x       y       z     vdW  Elec       q    Type
                         _______ _______ _______ _____ _____    ______ ____

>  <TORSDO>
F 5

$$$$
=
 OpenBabel10262419563D

 25 28  0  0  1  0  0  0  0  0999 V2000
  182.6380  178.6560  139.1360 C   0  0  1  0  0  0  0  0  0  0  0  0
  183.4340  179.1350  140.3680 C   0  0  2  0  0  3  0  0  0  0  0  0
  180.8600  177.5240  140.5440 C   0  0  0  0  0  2  0  0  0  0  0  0
  183.4380  178.3540  138.0140 O   0  0  0  0  0  0  0  0  0  0  0  0
  182.2720  177.7390  136.1280 O   0  0  0  0  0  1  0  0  0  0  0  0
  181.2750  178.5380  141.6310 C   0  0  0  0  0  2  0  0  0  0  0  0
  182.7890  177.2830  137.3400 C   0  0  1  0  0  0  0  0  0  0  0  0
  183.7940  176.1810  137.0690 C   0  0  0  0  0  1  0  0  0  0  0  0
  183.4730  178.6930  142.8440 C   0  0  0  0  0  0  0  0  0  0  0  0
  182.8870  178.6850  143.9590 O   0  0  0  0  0  0  0  0  0  0  0  0
  184.8590  178.5800  140.4110 C   0  0  0  0  0  2  0  0  0  0  0  0
  181.9780  177.3570  139.5180 C   0  0  1  0  0  3  0  0  0  0  0  0
  181.6560  176.7380  138.2040 C   0  0  0  0  0  2  0  0  0  0  0  0
  184.9560  178.4770  142.7850 C   0  0  0  0  0  2  0  0  0  0  0  0
  185.5350  179.1040  141.5960 N   0  0  0  0  0  0  0  0  0  0  0  0
  182.7240  178.8040  141.6240 N   0  0  0  0  0  0  0  0  0  0  0  0
  181.6090  179.7390  138.7440 C   0  0  0  0  0  2  0  0  0  0  0  0
  182.2590  181.1000  138.5490 C   0  0  0  0  0  1  0  0  0  0  0  0
  186.9190  178.6700  141.5270 C   0  0  0  0  0  2  0  0  0  0  0  0
  187.3680  178.7340  140.2070 O   0  0  0  0  0  0  0  0  0  0  0  0
  189.4410  178.3020  139.0330 C   0  0  2  0  0  3  0  0  0  0  0  0
  188.5190  177.1060  138.9090 C   0  0  0  0  0  2  0  0  0  0  0  0
  188.5080  177.9250  140.1830 C   0  0  2  0  0  3  0  0  0  0  0  0
  188.9930  178.9240  136.9590 C   0  0  0  0  0  1  0  0  0  0  0  0
  188.9310  179.3650  138.2810 O   0  0  0  0  0  0  0  0  0  0  0  0
  1 17  1  6  0  0  0
  1 12  1  0  0  0  0
  1  2  1  0  0  0  0
  2 11  1  1  0  0  0
  2 16  1  0  0  0  0
  3  6  1  0  0  0  0
  4  1  1  0  0  0  0
  5  7  1  0  0  0  0
  7  8  1  6  0  0  0
  7  4  1  0  0  0  0
  7 13  1  0  0  0  0
  9 10  2  0  0  0  0
 11 15  1  0  0  0  0
 12 13  1  6  0  0  0
 12  3  1  0  0  0  0
 14  9  1  0  0  0  0
 15 14  1  0  0  0  0
 16  6  1  0  0  0  0
 16  9  1  0  0  0  0
 18 17  1  0  0  0  0
 19 15  1  0  0  0  0
 20 19  1  0  0  0  0
 21 25  1  6  0  0  0
 21 23  1  0  0  0  0
 22 21  1  0  0  0  0
 22 23  1  0  0  0  0
 23 20  1  6  0  0  0
 24 25  1  0  0  0  0
M  END
>  <MODEL>
2

>  <REMARK>
 VINA RESULT:      -5.6      4.098      8.612
  Name = 
  5 active torsions:
  status: ('A' for Active; 'I' for Inactive)
    1  A    between atoms: C_1  and  C_17
    2  A    between atoms: C_2  and  O_12
    3  A    between atoms: C_6  and  O_15
    4  A    between atoms: C_6  and  N_23
    5  A    between atoms: O_15  and  C_25
                            x       y       z     vdW  Elec       q    Type
                         _______ _______ _______ _____ _____    ______ ____

>  <TORSDO>
F 5

$$$$
=
 OpenBabel10262419563D

 25 28  0  0  1  0  0  0  0  0999 V2000
  188.3610  176.4480  136.7100 C   0  0  1  0  0  0  0  0  0  0  0  0
  188.6670  177.3960  137.8880 C   0  0  2  0  0  3  0  0  0  0  0  0
  185.8700  176.4310  137.1810 C   0  0  0  0  0  2  0  0  0  0  0  0
  189.3850  175.5150  136.4400 O   0  0  0  0  0  0  0  0  0  0  0  0
  189.0050  174.1550  134.6230 O   0  0  0  0  0  1  0  0  0  0  0  0
  186.1280  177.8040  137.8380 C   0  0  0  0  0  2  0  0  0  0  0  0
  188.7360  174.3360  135.9790 C   0  0  1  0  0  0  0  0  0  0  0  0
  189.2600  173.1420  136.7540 C   0  0  0  0  0  1  0  0  0  0  0  0
  187.4690  178.3010  139.9060 C   0  0  0  0  0  0  0  0  0  0  0  0
  186.5080  178.9420  140.4060 O   0  0  0  0  0  0  0  0  0  0  0  0
  189.6070  176.7790  138.9240 C   0  0  0  0  0  2  0  0  0  0  0  0
  187.1650  175.6240  137.1100 C   0  0  1  0  0  3  0  0  0  0  0  0
  187.2300  174.4570  136.1890 C   0  0  0  0  0  2  0  0  0  0  0  0
  188.6300  177.9100  140.7730 C   0  0  0  0  0  2  0  0  0  0  0  0
  189.8520  177.7560  139.9820 N   0  0  0  0  0  0  0  0  0  0  0  0
  187.4200  177.8530  138.5440 N   0  0  0  0  0  0  0  0  0  0  0  0
  188.0950  177.2840  135.4400 C   0  0  0  0  0  2  0  0  0  0  0  0
  189.3810  177.6340  134.7080 C   0  0  0  0  0  1  0  0  0  0  0  0
  190.8520  177.1880  140.8690 C   0  0  0  0  0  2  0  0  0  0  0  0
  190.4120  177.2680  142.1910 O   0  0  0  0  0  0  0  0  0  0  0  0
  191.2880  177.1710  144.4450 C   0  0  2  0  0  3  0  0  0  0  0  0
  191.5790  178.5280  143.8380 C   0  0  0  0  0  2  0  0  0  0  0  0
  191.5830  177.2990  142.9520 C   0  0  2  0  0  3  0  0  0  0  0  0
  189.7830  177.2880  146.0610 C   0  0  0  0  0  1  0  0  0  0  0  0
  189.9160  177.0540  144.6920 O   0  0  0  0  0  0  0  0  0  0  0  0
  1 17  1  6  0  0  0
  1 12  1  0  0  0  0
  1  2  1  0  0  0  0
  2 16  1  0  0  0  0
  2 11  1  1  0  0  0
  3  6  1  0  0  0  0
  4  1  1  0  0  0  0
  5  7  1  0  0  0  0
  6 16  1  0  0  0  0
  7 13  1  0  0  0  0
  7  4  1  0  0  0  0
  7  8  1  1  0  0  0
  9 10  2  0  0  0  0
  9 14  1  0  0  0  0
 11 15  1  0  0  0  0
 12 13  1  6  0  0  0
 12  3  1  0  0  0  0
 15 14  1  0  0  0  0
 15 19  1  0  0  0  0
 16  9  1  0  0  0  0
 18 17  1  0  0  0  0
 19 20  1  0  0  0  0
 21 25  1  6  0  0  0
 22 21  1  0  0  0  0
 23 20  1  6  0  0  0
 23 22  1  0  0  0  0
 23 21  1  0  0  0  0
 25 24  1  0  0  0  0
M  END
>  <MODEL>
3

>  <REMARK>
 VINA RESULT:      -5.5      3.442      7.573
  Name = 
  5 active torsions:
  status: ('A' for Active; 'I' for Inactive)
    1  A    between atoms: C_1  and  C_17
    2  A    between atoms: C_2  and  O_12
    3  A    between atoms: C_6  and  O_15
    4  A    between atoms: C_6  and  N_23
    5  A    between atoms: O_15  and  C_25
                            x       y       z     vdW  Elec       q    Type
                         _______ _______ _______ _____ _____    ______ ____

>  <TORSDO>
F 5

$$$$
=
 OpenBabel10262419563D

 25 28  0  0  1  0  0  0  0  0999 V2000
  182.0600  178.1360  140.5650 C   0  0  1  0  0  0  0  0  0  0  0  0
  183.5040  177.8180  141.0060 C   0  0  2  0  0  3  0  0  0  0  0  0
  182.8150  179.5620  138.6100 C   0  0  0  0  0  2  0  0  0  0  0  0
  181.1380  178.2190  141.6300 O   0  0  0  0  0  0  0  0  0  0  0  0
  178.9560  178.5880  140.9980 O   0  0  0  0  0  1  0  0  0  0  0  0
  184.1020  178.7110  138.6680 C   0  0  0  0  0  2  0  0  0  0  0  0
  180.1820  179.2020  141.2520 C   0  0  1  0  0  0  0  0  0  0  0  0
  180.0150  180.1980  142.3830 C   0  0  0  0  0  1  0  0  0  0  0  0
  185.8270  178.6400  140.4970 C   0  0  0  0  0  0  0  0  0  0  0  0
  186.7510  178.8510  139.6690 O   0  0  0  0  0  0  0  0  0  0  0  0
  183.8180  178.3030  142.4220 C   0  0  0  0  0  2  0  0  0  0  0  0
  182.0820  179.5110  139.9480 C   0  0  1  0  0  3  0  0  0  0  0  0
  180.6560  179.9310  139.9980 C   0  0  0  0  0  2  0  0  0  0  0  0
  186.1040  178.7710  141.9660 C   0  0  0  0  0  2  0  0  0  0  0  0
  185.1940  177.9380  142.7520 N   0  0  0  0  0  0  0  0  0  0  0  0
  184.4880  178.3760  140.0500 N   0  0  0  0  0  0  0  0  0  0  0  0
  181.5830  177.0580  139.5690 C   0  0  0  0  0  2  0  0  0  0  0  0
  182.2870  175.7280  139.7880 C   0  0  0  0  0  1  0  0  0  0  0  0
  185.4070  178.2870  144.1460 C   0  0  0  0  0  2  0  0  0  0  0  0
  186.4170  177.4870  144.6830 O   0  0  0  0  0  0  0  0  0  0  0  0
  188.4280  177.8850  145.9720 C   0  0  2  0  0  3  0  0  0  0  0  0
  187.3310  177.3630  146.8760 C   0  0  0  0  0  2  0  0  0  0  0  0
  186.9690  178.2580  145.7100 C   0  0  2  0  0  3  0  0  0  0  0  0
  190.1320  177.2600  144.7110 C   0  0  0  0  0  1  0  0  0  0  0  0
  188.8600  176.8630  145.1220 O   0  0  0  0  0  0  0  0  0  0  0  0
  1 17  1  6  0  0  0
  1  2  1  0  0  0  0
  1  4  1  0  0  0  0
  2 11  1  1  0  0  0
  3  6  1  0  0  0  0
  5  7  1  0  0  0  0
  6 16  1  0  0  0  0
  7  4  1  0  0  0  0
  7  8  1  1  0  0  0
  9 14  1  0  0  0  0
 10  9  2  0  0  0  0
 11 15  1  0  0  0  0
 12  3  1  6  0  0  0
 12 13  1  0  0  0  0
 12  1  1  0  0  0  0
 13  7  1  0  0  0  0
 14 15  1  0  0  0  0
 15 19  1  0  0  0  0
 16  9  1  0  0  0  0
 16  2  1  0  0  0  0
 17 18  1  0  0  0  0
 19 20  1  0  0  0  0
 21 25  1  6  0  0  0
 21 22  1  0  0  0  0
 23 20  1  6  0  0  0
 23 21  1  0  0  0  0
 23 22  1  0  0  0  0
 24 25  1  0  0  0  0
M  END
>  <MODEL>
4

>  <REMARK>
 VINA RESULT:      -5.5      3.263      7.775
  Name = 
  5 active torsions:
  status: ('A' for Active; 'I' for Inactive)
    1  A    between atoms: C_1  and  C_17
    2  A    between atoms: C_2  and  O_12
    3  A    between atoms: C_6  and  O_15
    4  A    between atoms: C_6  and  N_23
    5  A    between atoms: O_15  and  C_25
                            x       y       z     vdW  Elec       q    Type
                         _______ _______ _______ _____ _____    ______ ____

>  <TORSDO>
F 5

$$$$
=
 OpenBabel10262419563D

 25 28  0  0  1  0  0  0  0  0999 V2000
  189.0580  175.5830  136.7460 C   0  0  1  0  0  0  0  0  0  0  0  0
  190.1030  175.6040  137.8820 C   0  0  2  0  0  3  0  0  0  0  0  0
  190.7020  176.4490  135.0220 C   0  0  0  0  0  2  0  0  0  0  0  0
  187.7410  175.8570  137.1710 O   0  0  0  0  0  0  0  0  0  0  0  0
  186.1440  175.7300  135.5180 O   0  0  0  0  0  1  0  0  0  0  0  0
  191.7770  175.8320  135.9420 C   0  0  0  0  0  2  0  0  0  0  0  0
  187.1140  176.5480  136.0970 C   0  0  1  0  0  0  0  0  0  0  0  0
  186.4520  177.8040  136.6310 C   0  0  0  0  0  1  0  0  0  0  0  0
  192.4060  176.5360  138.2740 C   0  0  0  0  0  0  0  0  0  0  0  0
  193.6210  176.6110  137.9500 O   0  0  0  0  0  0  0  0  0  0  0  0
  189.7110  176.5240  139.0390 C   0  0  0  0  0  2  0  0  0  0  0  0
  189.4140  176.7020  135.8030 C   0  0  1  0  0  3  0  0  0  0  0  0
  188.1530  176.9270  135.0470 C   0  0  0  0  0  2  0  0  0  0  0  0
  191.9470  177.1330  139.5710 C   0  0  0  0  0  2  0  0  0  0  0  0
  190.7460  176.4580  140.0670 N   0  0  0  0  0  0  0  0  0  0  0  0
  191.4410  175.9770  137.3700 N   0  0  0  0  0  0  0  0  0  0  0  0
  189.0880  174.2040  136.0530 C   0  0  0  0  0  2  0  0  0  0  0  0
  188.4730  173.1170  136.9200 C   0  0  0  0  0  1  0  0  0  0  0  0
  190.2730  177.2310  141.2020 C   0  0  0  0  0  2  0  0  0  0  0  0
  191.0520  176.9450  142.3250 O   0  0  0  0  0  0  0  0  0  0  0  0
  191.4550  177.8850  144.5200 C   0  0  2  0  0  3  0  0  0  0  0  0
  189.9950  178.0490  144.1490 C   0  0  0  0  0  2  0  0  0  0  0  0
  191.0510  178.1300  143.0660 C   0  0  2  0  0  3  0  0  0  0  0  0
  191.7400  176.4190  146.1490 C   0  0  0  0  0  1  0  0  0  0  0  0
  191.7280  176.5340  144.7590 O   0  0  0  0  0  0  0  0  0  0  0  0
  1 17  1  6  0  0  0
  1  4  1  0  0  0  0
  1  2  1  0  0  0  0
  2 11  1  1  0  0  0
  3  6  1  0  0  0  0
  5  7  1  0  0  0  0
  6 16  1  0  0  0  0
  7  8  1  1  0  0  0
  7  4  1  0  0  0  0
  9 14  1  0  0  0  0
 10  9  2  0  0  0  0
 11 15  1  0  0  0  0
 12  3  1  6  0  0  0
 12  1  1  0  0  0  0
 13 12  1  0  0  0  0
 13  7  1  0  0  0  0
 14 15  1  0  0  0  0
 15 19  1  0  0  0  0
 16  2  1  0  0  0  0
 16  9  1  0  0  0  0
 17 18  1  0  0  0  0
 19 20  1  0  0  0  0
 21 25  1  6  0  0  0
 22 21  1  0  0  0  0
 23 20  1  6  0  0  0
 23 22  1  0  0  0  0
 23 21  1  0  0  0  0
 25 24  1  0  0  0  0
M  END
>  <MODEL>
5

>  <REMARK>
 VINA RESULT:      -5.4      3.887      7.612
  Name = 
  5 active torsions:
  status: ('A' for Active; 'I' for Inactive)
    1  A    between atoms: C_1  and  C_17
    2  A    between atoms: C_2  and  O_12
    3  A    between atoms: C_6  and  O_15
    4  A    between atoms: C_6  and  N_23
    5  A    between atoms: O_15  and  C_25
                            x       y       z     vdW  Elec       q    Type
                         _______ _______ _______ _____ _____    ______ ____

>  <TORSDO>
F 5

$$$$
=
 OpenBabel10262419563D

 25 28  0  0  1  0  0  0  0  0999 V2000
  188.8570  175.8860  136.9230 C   0  0  1  0  0  0  0  0  0  0  0  0
  189.9580  175.7900  138.0010 C   0  0  2  0  0  3  0  0  0  0  0  0
  190.4570  176.7530  135.1590 C   0  0  0  0  0  2  0  0  0  0  0  0
  187.5800  176.2060  137.4320 O   0  0  0  0  0  0  0  0  0  0  0  0
  185.8960  176.2530  135.8640 O   0  0  0  0  0  1  0  0  0  0  0  0
  191.5410  176.0310  135.9870 C   0  0  0  0  0  2  0  0  0  0  0  0
  186.9390  176.9860  136.4300 C   0  0  1  0  0  0  0  0  0  0  0  0
  186.3770  178.2450  137.0600 C   0  0  0  0  0  1  0  0  0  0  0  0
  192.3270  176.5760  138.3140 C   0  0  0  0  0  0  0  0  0  0  0  0
  193.5260  176.6030  137.9290 O   0  0  0  0  0  0  0  0  0  0  0  0
  189.6780  176.6670  139.2220 C   0  0  0  0  0  2  0  0  0  0  0  0
  189.2270  177.0330  136.0200 C   0  0  1  0  0  3  0  0  0  0  0  0
  187.9430  177.3640  135.3450 C   0  0  0  0  0  2  0  0  0  0  0  0
  191.9690  177.1270  139.6620 C   0  0  0  0  0  2  0  0  0  0  0  0
  190.7600  176.4920  140.1880 N   0  0  0  0  0  0  0  0  0  0  0  0
  191.2870  176.1180  137.4360 N   0  0  0  0  0  0  0  0  0  0  0  0
  188.7740  174.5460  136.1620 C   0  0  0  0  0  2  0  0  0  0  0  0
  189.0720  173.3580  137.0620 C   0  0  0  0  0  1  0  0  0  0  0  0
  190.3890  177.2280  141.3840 C   0  0  0  0  0  2  0  0  0  0  0  0
  189.0520  176.9790  141.6960 O   0  0  0  0  0  0  0  0  0  0  0  0
  187.9690  176.7030  143.8440 C   0  0  2  0  0  3  0  0  0  0  0  0
  189.3710  177.2430  144.0390 C   0  0  0  0  0  2  0  0  0  0  0  0
  189.0970  176.2780  142.9040 C   0  0  2  0  0  3  0  0  0  0  0  0
  186.1280  177.8780  144.1860 C   0  0  0  0  0  1  0  0  0  0  0  0
  187.1630  177.6910  143.2700 O   0  0  0  0  0  0  0  0  0  0  0  0
  1 17  1  6  0  0  0
  1  4  1  0  0  0  0
  1  2  1  0  0  0  0
  2 11  1  1  0  0  0
  3  6  1  0  0  0  0
  5  7  1  0  0  0  0
  6 16  1  0  0  0  0
  7  8  1  1  0  0  0
  7  4  1  0  0  0  0
  9 14  1  0  0  0  0
 10  9  2  0  0  0  0
 11 15  1  0  0  0  0
 12  3  1  6  0  0  0
 12  1  1  0  0  0  0
 13 12  1  0  0  0  0
 13  7  1  0  0  0  0
 14 15  1  0  0  0  0
 15 19  1  0  0  0  0
 16  2  1  0  0  0  0
 16  9  1  0  0  0  0
 17 18  1  0  0  0  0
 19 20  1  0  0  0  0
 21 25  1  6  0  0  0
 21 22  1  0  0  0  0
 23 20  1  6  0  0  0
 23 21  1  0  0  0  0
 23 22  1  0  0  0  0
 25 24  1  0  0  0  0
M  END
>  <MODEL>
6

>  <REMARK>
 VINA RESULT:      -5.4      3.744      7.021
  Name = 
  5 active torsions:
  status: ('A' for Active; 'I' for Inactive)
    1  A    between atoms: C_1  and  C_17
    2  A    between atoms: C_2  and  O_12
    3  A    between atoms: C_6  and  O_15
    4  A    between atoms: C_6  and  N_23
    5  A    between atoms: O_15  and  C_25
                            x       y       z     vdW  Elec       q    Type
                         _______ _______ _______ _____ _____    ______ ____

>  <TORSDO>
F 5

$$$$
=
 OpenBabel10262419563D

 25 28  0  0  1  0  0  0  0  0999 V2000
  190.0060  178.0190  144.6170 C   0  0  1  0  0  0  0  0  0  0  0  0
  189.4780  178.3470  143.2050 C   0  0  2  0  0  3  0  0  0  0  0  0
  191.3660  176.0390  143.8070 C   0  0  0  0  0  2  0  0  0  0  0  0
  189.0970  178.3140  145.6550 O   0  0  0  0  0  0  0  0  0  0  0  0
  189.8950  177.9350  147.7800 O   0  0  0  0  0  1  0  0  0  0  0  0
  191.3700  176.7750  142.4510 C   0  0  0  0  0  2  0  0  0  0  0  0
  189.3150  177.3350  146.6640 C   0  0  1  0  0  0  0  0  0  0  0  0
  187.9850  176.7240  147.0620 C   0  0  0  0  0  1  0  0  0  0  0  0
  189.4140  177.2490  140.9420 C   0  0  0  0  0  0  0  0  0  0  0  0
  190.0160  176.7410  139.9600 O   0  0  0  0  0  0  0  0  0  0  0  0
  187.9540  178.2720  143.1040 C   0  0  0  0  0  2  0  0  0  0  0  0
  190.2080  176.5270  144.6750 C   0  0  1  0  0  3  0  0  0  0  0  0
  190.2390  176.2420  146.1350 C   0  0  0  0  0  2  0  0  0  0  0  0
  187.9430  177.5290  140.8460 C   0  0  0  0  0  2  0  0  0  0  0  0
  187.5520  178.6180  141.7420 N   0  0  0  0  0  0  0  0  0  0  0  0
  190.0960  177.4680  142.1860 N   0  0  0  0  0  0  0  0  0  0  0  0
  191.3190  178.7950  144.8610 C   0  0  0  0  0  2  0  0  0  0  0  0
  191.3520  180.1120  144.1030 C   0  0  0  0  0  1  0  0  0  0  0  0
  186.1010  178.6720  141.7240 C   0  0  0  0  0  2  0  0  0  0  0  0
  185.6710  179.4050  140.6170 O   0  0  0  0  0  0  0  0  0  0  0  0
  184.5710  178.3330  138.7450 C   0  0  2  0  0  3  0  0  0  0  0  0
  183.8240  179.5940  139.1290 C   0  0  0  0  0  2  0  0  0  0  0  0
  184.4960  178.7690  140.2080 C   0  0  2  0  0  3  0  0  0  0  0  0
  186.0200  177.6910  137.2040 C   0  0  0  0  0  1  0  0  0  0  0  0
  185.7980  178.6750  138.1670 O   0  0  0  0  0  0  0  0  0  0  0  0
  1 12  1  0  0  0  0
  1 17  1  1  0  0  0
  1  4  1  0  0  0  0
  2 11  1  1  0  0  0
  2  1  1  0  0  0  0
  4  7  1  0  0  0  0
  6  3  1  0  0  0  0
  7  8  1  1  0  0  0
  7  5  1  0  0  0  0
  9 16  1  0  0  0  0
 10  9  2  0  0  0  0
 12  3  1  1  0  0  0
 12 13  1  0  0  0  0
 13  7  1  0  0  0  0
 14  9  1  0  0  0  0
 14 15  1  0  0  0  0
 15 11  1  0  0  0  0
 16  6  1  0  0  0  0
 16  2  1  0  0  0  0
 18 17  1  0  0  0  0
 19 15  1  0  0  0  0
 20 19  1  0  0  0  0
 21 25  1  6  0  0  0
 21 22  1  0  0  0  0
 21 23  1  0  0  0  0
 22 23  1  0  0  0  0
 23 20  1  6  0  0  0
 24 25  1  0  0  0  0
M  END
>  <MODEL>
7

>  <REMARK>
 VINA RESULT:      -5.4      1.614      2.586
  Name = 
  5 active torsions:
  status: ('A' for Active; 'I' for Inactive)
    1  A    between atoms: C_1  and  C_17
    2  A    between atoms: C_2  and  O_12
    3  A    between atoms: C_6  and  O_15
    4  A    between atoms: C_6  and  N_23
    5  A    between atoms: O_15  and  C_25
                            x       y       z     vdW  Elec       q    Type
                         _______ _______ _______ _____ _____    ______ ____

>  <TORSDO>
F 5

$$$$
=
 OpenBabel10262419563D

 25 28  0  0  1  0  0  0  0  0999 V2000
  182.5430  178.4370  139.2540 C   0  0  1  0  0  0  0  0  0  0  0  0
  183.2680  179.0330  140.4780 C   0  0  2  0  0  3  0  0  0  0  0  0
  180.6450  177.5030  140.6500 C   0  0  0  0  0  2  0  0  0  0  0  0
  183.4080  177.9960  138.2300 O   0  0  0  0  0  0  0  0  0  0  0  0
  182.3540  177.1980  136.3460 O   0  0  0  0  0  1  0  0  0  0  0  0
  181.0130  178.6240  141.6460 C   0  0  0  0  0  2  0  0  0  0  0  0
  182.7760  176.8700  137.6340 C   0  0  1  0  0  0  0  0  0  0  0  0
  183.7670  175.7240  137.5560 C   0  0  0  0  0  1  0  0  0  0  0  0
  183.1290  178.8690  142.9840 C   0  0  0  0  0  0  0  0  0  0  0  0
  182.4700  178.9970  144.0500 O   0  0  0  0  0  0  0  0  0  0  0  0
  184.6710  178.4590  140.6810 C   0  0  0  0  0  2  0  0  0  0  0  0
  181.8240  177.2010  139.7290 C   0  0  1  0  0  3  0  0  0  0  0  0
  181.5730  176.4470  138.4720 C   0  0  0  0  0  2  0  0  0  0  0  0
  184.6060  178.6180  143.0530 C   0  0  0  0  0  2  0  0  0  0  0  0
  185.2800  179.0980  141.8450 N   0  0  0  0  0  0  0  0  0  0  0  0
  182.4660  178.8590  141.7110 N   0  0  0  0  0  0  0  0  0  0  0  0
  181.5730  179.4890  138.6750 C   0  0  0  0  0  2  0  0  0  0  0  0
  182.1600  180.8910  138.7180 C   0  0  0  0  0  1  0  0  0  0  0  0
  186.6530  178.6320  141.9210 C   0  0  0  0  0  2  0  0  0  0  0  0
  186.8440  177.9170  143.1050 O   0  0  0  0  0  0  0  0  0  0  0  0
  188.7080  176.7550  144.1210 C   0  0  2  0  0  3  0  0  0  0  0  0
  189.2200  177.8230  143.1770 C   0  0  0  0  0  2  0  0  0  0  0  0
  187.9380  177.0880  142.8440 C   0  0  2  0  0  3  0  0  0  0  0  0
  189.0460  177.1290  146.2740 C   0  0  0  0  0  1  0  0  0  0  0  0
  188.1340  177.3600  145.2440 O   0  0  0  0  0  0  0  0  0  0  0  0
  1 17  1  6  0  0  0
  1 12  1  0  0  0  0
  1  2  1  0  0  0  0
  2 11  1  1  0  0  0
  2 16  1  0  0  0  0
  3  6  1  0  0  0  0
  4  1  1  0  0  0  0
  5  7  1  0  0  0  0
  6 16  1  0  0  0  0
  7  8  1  6  0  0  0
  7  4  1  0  0  0  0
  7 13  1  0  0  0  0
  9 14  1  0  0  0  0
  9 10  2  0  0  0  0
 11 15  1  0  0  0  0
 12 13  1  6  0  0  0
 12  3  1  0  0  0  0
 15 19  1  0  0  0  0
 15 14  1  0  0  0  0
 16  9  1  0  0  0  0
 17 18  1  0  0  0  0
 19 20  1  0  0  0  0
 21 25  1  1  0  0  0
 22 21  1  0  0  0  0
 23 20  1  1  0  0  0
 23 22  1  0  0  0  0
 23 21  1  0  0  0  0
 25 24  1  0  0  0  0
M  END
>  <MODEL>
8

>  <REMARK>
 VINA RESULT:      -5.3      3.607      8.292
  Name = 
  5 active torsions:
  status: ('A' for Active; 'I' for Inactive)
    1  A    between atoms: C_1  and  C_17
    2  A    between atoms: C_2  and  O_12
    3  A    between atoms: C_6  and  O_15
    4  A    between atoms: C_6  and  N_23
    5  A    between atoms: O_15  and  C_25
                            x       y       z     vdW  Elec       q    Type
                         _______ _______ _______ _____ _____    ______ ____

>  <TORSDO>
F 5

$$$$
=
 OpenBabel10262419563D

 25 28  0  0  1  0  0  0  0  0999 V2000
  188.8060  177.9950  142.9190 C   0  0  1  0  0  0  0  0  0  0  0  0
  189.5260  178.1430  141.5620 C   0  0  2  0  0  3  0  0  0  0  0  0
  189.5540  175.5910  143.2180 C   0  0  0  0  0  2  0  0  0  0  0  0
  187.6150  178.7440  143.0240 O   0  0  0  0  0  0  0  0  0  0  0  0
  186.5730  178.6280  145.0720 O   0  0  0  0  0  1  0  0  0  0  0  0
  190.7260  175.9890  142.2950 C   0  0  0  0  0  2  0  0  0  0  0  0
  186.7390  177.9840  143.8470 C   0  0  1  0  0  0  0  0  0  0  0  0
  185.3910  177.8620  143.1620 C   0  0  0  0  0  1  0  0  0  0  0  0
  190.6290  176.6440  139.8680 C   0  0  0  0  0  0  0  0  0  0  0  0
  191.5080  175.7920  139.5770 O   0  0  0  0  0  0  0  0  0  0  0  0
  188.5720  178.4690  140.4110 C   0  0  0  0  0  2  0  0  0  0  0  0
  188.3820  176.5540  143.0360 C   0  0  1  0  0  3  0  0  0  0  0  0
  187.3210  176.5920  144.0770 C   0  0  0  0  0  2  0  0  0  0  0  0
  189.8300  177.2890  138.7740 C   0  0  0  0  0  2  0  0  0  0  0  0
  189.3470  178.6100  139.1800 N   0  0  0  0  0  0  0  0  0  0  0  0
  190.3120  176.9300  141.2390 N   0  0  0  0  0  0  0  0  0  0  0  0
  189.7670  178.4140  144.0520 C   0  0  0  0  0  2  0  0  0  0  0  0
  190.8200  179.3990  143.5710 C   0  0  0  0  0  1  0  0  0  0  0  0
  188.4310  179.0550  138.1450 C   0  0  0  0  0  2  0  0  0  0  0  0
  187.1420  178.6010  138.4310 O   0  0  0  0  0  0  0  0  0  0  0  0
  185.1500  177.8120  137.3030 C   0  0  2  0  0  3  0  0  0  0  0  0
  186.2390  176.7630  137.2200 C   0  0  0  0  0  2  0  0  0  0  0  0
  186.6160  178.2300  137.1900 C   0  0  2  0  0  3  0  0  0  0  0  0
  183.2980  177.8350  138.5090 C   0  0  0  0  0  1  0  0  0  0  0  0
  184.6860  177.9030  138.6190 O   0  0  0  0  0  0  0  0  0  0  0  0
  1  4  1  0  0  0  0
  1 12  1  0  0  0  0
  1 17  1  1  0  0  0
  2 11  1  6  0  0  0
  2  1  1  0  0  0  0
  4  7  1  0  0  0  0
  6  3  1  0  0  0  0
  7  8  1  6  0  0  0
  7 13  1  0  0  0  0
  7  5  1  0  0  0  0
  9 16  1  0  0  0  0
 10  9  2  0  0  0  0
 12  3  1  1  0  0  0
 12 13  1  0  0  0  0
 14 15  1  0  0  0  0
 14  9  1  0  0  0  0
 15 11  1  0  0  0  0
 16  2  1  0  0  0  0
 16  6  1  0  0  0  0
 18 17  1  0  0  0  0
 19 20  1  0  0  0  0
 19 15  1  0  0  0  0
 21 25  1  1  0  0  0
 22 21  1  0  0  0  0
 23 22  1  0  0  0  0
 23 21  1  0  0  0  0
 23 20  1  1  0  0  0
 24 25  1  0  0  0  0
M  END
>  <MODEL>
9

>  <REMARK>
 VINA RESULT:      -5.1      2.414      3.627
  Name = 
  5 active torsions:
  status: ('A' for Active; 'I' for Inactive)
    1  A    between atoms: C_1  and  C_17
    2  A    between atoms: C_2  and  O_12
    3  A    between atoms: C_6  and  O_15
    4  A    between atoms: C_6  and  N_23
    5  A    between atoms: O_15  and  C_25
                            x       y       z     vdW  Elec       q    Type
                         _______ _______ _______ _____ _____    ______ ____

>  <TORSDO>
F 5

$$$$
