=
 OpenBabel10262422493D

 37 43  0  0  1  0  0  0  0  0999 V2000
  182.7560  176.8500  138.9030 C   0  0  0  0  0  3  0  0  0  0  0  0
  189.9290  175.4520  137.6910 C   0  0  0  0  0  3  0  0  0  0  0  0
  183.5700  179.3650  143.2040 C   0  0  0  0  0  2  0  0  0  0  0  0
  186.9630  179.0560  140.7510 O   0  0  0  0  0  0  0  0  0  0  0  0
  188.9420  176.2800  137.1420 C   0  0  0  0  0  0  0  0  0  0  0  0
  187.0160  178.1360  136.0570 C   0  0  0  0  0  2  0  0  0  0  0  0
  188.8190  176.3820  135.7390 C   0  0  0  0  0  0  0  0  0  0  0  0
  185.8830  178.5210  142.8370 C   0  0  2  0  0  3  0  0  0  0  0  0
  186.0500  178.6020  138.2870 C   0  0  0  0  0  2  0  0  0  0  0  0
  185.6760  178.9880  141.3700 C   0  0  2  0  0  3  0  0  0  0  0  0
  186.7380  177.5140  137.4300 C   0  0  1  0  0  0  0  0  0  0  0  0
  187.7130  177.1690  135.0950 C   0  0  0  0  0  2  0  0  0  0  0  0
  186.6230  177.3240  142.8730 O   0  0  0  0  0  0  0  0  0  0  0  0
  190.6480  174.8100  135.4720 C   0  0  0  0  0  3  0  0  0  0  0  0
  189.6670  175.6360  134.9150 C   0  0  0  0  0  3  0  0  0  0  0  0
  184.7280  178.0600  140.5630 C   0  0  1  0  0  3  0  0  0  0  0  0
  182.3570  177.4270  140.2020 C   0  0  0  0  0  3  0  0  0  0  0  0
  189.0210  177.9340  140.3480 C   0  0  0  0  0  3  0  0  0  0  0  0
  187.9520  177.6470  142.5400 C   0  0  0  0  0  2  0  0  0  0  0  0
  183.2440  178.0530  140.9940 C   0  0  0  0  0  0  0  0  0  0  0  0
  185.8850  176.2390  137.2670 C   0  0  0  0  0  2  0  0  0  0  0  0
  188.0080  178.2200  141.1580 C   0  0  0  0  0  0  0  0  0  0  0  0
  184.7420  178.2670  139.0250 C   0  0  2  0  0  3  0  0  0  0  0  0
  184.6140  178.3730  143.6610 C   0  0  0  0  0  2  0  0  0  0  0  0
  188.0900  177.1090  138.0660 C   0  0  2  0  0  3  0  0  0  0  0  0
  182.6350  178.6880  142.2220 C   0  0  0  0  0  2  0  0  0  0  0  0
  184.4530  176.5170  137.2230 N   0  0  0  0  0  0  0  0  0  0  0  0
  190.7780  174.7180  136.8590 C   0  0  0  0  0  3  0  0  0  0  0  0
  183.9160  177.2140  138.3470 C   0  0  0  0  0  0  0  0  0  0  0  0
  189.0730  178.5380  138.6630 S   0  0  0  0  0  0  0  0  0  0  0  0
  183.5680  175.9350  136.2050 C   0  0  2  0  0  3  0  0  0  0  0  0
  184.1830  174.0720  134.9030 O   0  0  0  0  0  0  0  0  0  0  0  0
  183.7530  174.4560  135.9790 C   0  0  0  0  0  0  0  0  0  0  0  0
  184.7270  172.8520  137.6030 C   0  0  0  0  0  1  0  0  0  0  0  0
  183.4470  173.4530  137.0510 C   0  0  0  0  0  2  0  0  0  0  0  0
  183.4950  176.7740  134.9280 C   0  0  0  0  0  2  0  0  0  0  0  0
  182.3200  177.7350  134.9280 C   0  0  0  0  0  1  0  0  0  0  0  0
  1 17  1  0  0  0  0
  3 24  1  0  0  0  0
  4 22  1  0  0  0  0
  5  2  1  0  0  0  0
  7  5  2  0  0  0  0
  8 13  1  0  0  0  0
  8 24  1  6  0  0  0
 10  4  1  6  0  0  0
 10  8  1  0  0  0  0
 11  6  1  6  0  0  0
 11 25  1  0  0  0  0
 11  9  1  0  0  0  0
 12  7  1  0  0  0  0
 12  6  1  0  0  0  0
 14 28  1  0  0  0  0
 15 14  2  0  0  0  0
 15  7  1  0  0  0  0
 16 20  1  1  0  0  0
 16 10  1  0  0  0  0
 17 20  2  0  0  0  0
 18 22  2  0  0  0  0
 19 13  1  0  0  0  0
 20 26  1  0  0  0  0
 21 11  1  0  0  0  0
 22 19  1  0  0  0  0
 23  9  1  6  0  0  0
 23 16  1  0  0  0  0
 25  5  1  6  0  0  0
 25 30  1  0  0  0  0
 26  3  1  0  0  0  0
 27 21  1  0  0  0  0
 27 29  1  0  0  0  0
 28  2  2  0  0  0  0
 29  1  2  0  0  0  0
 29 23  1  0  0  0  0
 30 18  1  0  0  0  0
 31 36  1  6  0  0  0
 31 27  1  0  0  0  0
 32 33  2  0  0  0  0
 33 31  1  0  0  0  0
 33 35  1  0  0  0  0
 35 34  1  0  0  0  0
 37 36  1  0  0  0  0
M  END
>  <MODEL>
1

>  <REMARK>
 VINA RESULT:      -7.5      0.000      0.000
  Name = 
  4 active torsions:
  status: ('A' for Active; 'I' for Inactive)
    1  A    between atoms: C_11  and  C_26
    2  A    between atoms: C_17  and  C_23
    3  A    between atoms: C_17  and  C_26
    4  A    between atoms: C_26  and  N_33
                            x       y       z     vdW  Elec       q    Type
                         _______ _______ _______ _____ _____    ______ ____

>  <TORSDO>
F 4

$$$$
=
 OpenBabel10262422493D

 37 43  0  0  1  0  0  0  0  0999 V2000
  187.3480  178.6720  141.6110 C   0  0  0  0  0  3  0  0  0  0  0  0
  181.0470  175.3090  139.6450 C   0  0  0  0  0  3  0  0  0  0  0  0
  189.6810  177.7160  137.2370 C   0  0  0  0  0  2  0  0  0  0  0  0
  185.4990  177.4270  137.0270 O   0  0  0  0  0  0  0  0  0  0  0  0
  181.4860  176.6250  139.8390 C   0  0  0  0  0  0  0  0  0  0  0  0
  182.3480  179.3710  140.0560 C   0  0  0  0  0  2  0  0  0  0  0  0
  180.6720  177.5340  140.5490 C   0  0  0  0  0  0  0  0  0  0  0  0
  187.6420  176.3380  136.8670 C   0  0  2  0  0  3  0  0  0  0  0  0
  184.5590  178.8670  139.0640 C   0  0  0  0  0  2  0  0  0  0  0  0
  186.8710  177.5790  137.3960 C   0  0  2  0  0  3  0  0  0  0  0  0
  183.4150  178.2790  139.9240 C   0  0  1  0  0  0  0  0  0  0  0  0
  181.1370  178.9240  140.8810 C   0  0  0  0  0  2  0  0  0  0  0  0
  187.0340  175.1510  137.3160 O   0  0  0  0  0  0  0  0  0  0  0  0
  179.0200  175.7870  140.8760 C   0  0  0  0  0  3  0  0  0  0  0  0
  179.4490  177.1020  141.0740 C   0  0  0  0  0  3  0  0  0  0  0  0
  187.0080  177.7700  138.9310 C   0  0  1  0  0  3  0  0  0  0  0  0
  188.5300  178.5270  140.7380 C   0  0  0  0  0  3  0  0  0  0  0  0
  183.6120  175.9790  136.9950 C   0  0  0  0  0  3  0  0  0  0  0  0
  185.8300  175.0040  136.6010 C   0  0  0  0  0  2  0  0  0  0  0  0
  188.4110  178.1540  139.4520 C   0  0  0  0  0  0  0  0  0  0  0  0
  183.8790  177.8230  141.3230 C   0  0  0  0  0  2  0  0  0  0  0  0
  184.9220  176.1600  136.8830 C   0  0  0  0  0  0  0  0  0  0  0  0
  186.0090  178.7710  139.5700 C   0  0  2  0  0  3  0  0  0  0  0  0
  189.1300  176.3100  137.1770 C   0  0  0  0  0  2  0  0  0  0  0  0
  182.7820  177.0610  139.2080 C   0  0  2  0  0  3  0  0  0  0  0  0
  189.7100  178.1790  138.6800 C   0  0  0  0  0  2  0  0  0  0  0  0
  184.9500  178.6530  141.8640 N   0  0  0  0  0  0  0  0  0  0  0  0
  179.8190  174.8910  140.1630 C   0  0  0  0  0  3  0  0  0  0  0  0
  186.1290  178.7500  141.0650 C   0  0  0  0  0  0  0  0  0  0  0  0
  182.5110  177.3290  137.4140 S   0  0  0  0  0  0  0  0  0  0  0  0
  184.9230  179.1830  143.2330 C   0  0  2  0  0  3  0  0  0  0  0  0
  185.8930  177.1600  143.9460 O   0  0  0  0  0  0  0  0  0  0  0  0
  185.5570  178.2880  144.2680 C   0  0  0  0  0  0  0  0  0  0  0  0
  186.8850  177.9250  146.3320 C   0  0  0  0  0  1  0  0  0  0  0  0
  185.8050  178.7600  145.6690 C   0  0  0  0  0  2  0  0  0  0  0  0
  183.5580  179.7510  143.6260 C   0  0  0  0  0  2  0  0  0  0  0  0
  182.6690  178.7200  144.2990 C   0  0  0  0  0  1  0  0  0  0  0  0
  2  5  2  0  0  0  0
  2 28  1  0  0  0  0
  3 26  1  0  0  0  0
  5  7  1  0  0  0  0
  6 12  1  0  0  0  0
  7 12  1  0  0  0  0
  7 15  2  0  0  0  0
  8 24  1  1  0  0  0
  8 13  1  0  0  0  0
  8 10  1  0  0  0  0
 10  4  1  1  0  0  0
 10 16  1  0  0  0  0
 11  9  1  6  0  0  0
 11  6  1  0  0  0  0
 11 21  1  0  0  0  0
 14 15  1  0  0  0  0
 16 20  1  6  0  0  0
 16 23  1  0  0  0  0
 17  1  1  0  0  0  0
 18 30  1  0  0  0  0
 19 22  1  0  0  0  0
 19 13  1  0  0  0  0
 20 17  2  0  0  0  0
 21 27  1  0  0  0  0
 22 18  2  0  0  0  0
 22  4  1  0  0  0  0
 23  9  1  1  0  0  0
 23 29  1  0  0  0  0
 24  3  1  0  0  0  0
 25 30  1  6  0  0  0
 25  5  1  0  0  0  0
 25 11  1  0  0  0  0
 26 20  1  0  0  0  0
 27 31  1  0  0  0  0
 28 14  2  0  0  0  0
 29  1  2  0  0  0  0
 29 27  1  0  0  0  0
 31 36  1  1  0  0  0
 31 33  1  0  0  0  0
 32 33  2  0  0  0  0
 33 35  1  0  0  0  0
 35 34  1  0  0  0  0
 36 37  1  0  0  0  0
M  END
>  <MODEL>
2

>  <REMARK>
 VINA RESULT:      -7.4      2.351      7.611
  Name = 
  4 active torsions:
  status: ('A' for Active; 'I' for Inactive)
    1  A    between atoms: C_11  and  C_26
    2  A    between atoms: C_17  and  C_23
    3  A    between atoms: C_17  and  C_26
    4  A    between atoms: C_26  and  N_33
                            x       y       z     vdW  Elec       q    Type
                         _______ _______ _______ _____ _____    ______ ____

>  <TORSDO>
F 4

$$$$
=
 OpenBabel10262422493D

 37 43  0  0  1  0  0  0  0  0999 V2000
  189.2420  176.6780  142.7440 C   0  0  0  0  0  3  0  0  0  0  0  0
  182.0850  177.5850  141.0600 C   0  0  0  0  0  3  0  0  0  0  0  0
  190.8160  177.0320  137.9610 C   0  0  0  0  0  2  0  0  0  0  0  0
  186.9900  178.6320  138.6100 O   0  0  0  0  0  0  0  0  0  0  0  0
  183.0940  178.3370  141.6740 C   0  0  0  0  0  0  0  0  0  0  0  0
  185.1510  180.0190  142.8030 C   0  0  0  0  0  2  0  0  0  0  0  0
  182.8100  179.0470  142.8620 C   0  0  0  0  0  0  0  0  0  0  0  0
  188.3660  176.9750  137.5310 C   0  0  2  0  0  3  0  0  0  0  0  0
  186.8550  179.1820  141.2160 C   0  0  0  0  0  2  0  0  0  0  0  0
  188.2750  178.0100  138.6860 C   0  0  2  0  0  3  0  0  0  0  0  0
  185.5760  178.7900  141.9920 C   0  0  1  0  0  0  0  0  0  0  0  0
  183.8780  179.7820  143.6220 C   0  0  0  0  0  2  0  0  0  0  0  0
  187.2730  176.0890  137.5760 O   0  0  0  0  0  0  0  0  0  0  0  0
  180.5320  178.2130  142.8060 C   0  0  0  0  0  3  0  0  0  0  0  0
  181.5330  178.9680  143.4250 C   0  0  0  0  0  3  0  0  0  0  0  0
  188.4970  177.3790  140.0860 C   0  0  1  0  0  3  0  0  0  0  0  0
  190.2090  176.4890  141.6450 C   0  0  0  0  0  3  0  0  0  0  0  0
  184.6430  178.2970  138.4150 C   0  0  0  0  0  3  0  0  0  0  0  0
  186.1360  176.8080  137.1590 C   0  0  0  0  0  2  0  0  0  0  0  0
  189.9190  176.8530  140.3850 C   0  0  0  0  0  0  0  0  0  0  0  0
  185.7800  177.5830  142.9320 C   0  0  0  0  0  2  0  0  0  0  0  0
  185.8840  177.9510  138.0920 C   0  0  0  0  0  0  0  0  0  0  0  0
  188.0930  178.2700  141.2910 C   0  0  2  0  0  3  0  0  0  0  0  0
  189.6670  176.1930  137.4530 C   0  0  0  0  0  2  0  0  0  0  0  0
  184.4380  178.4400  141.0020 C   0  0  2  0  0  3  0  0  0  0  0  0
  191.0700  176.7010  139.4180 C   0  0  0  0  0  2  0  0  0  0  0  0
  187.1200  177.5340  143.5070 N   0  0  0  0  0  0  0  0  0  0  0  0
  180.8100  177.5210  141.6250 C   0  0  0  0  0  3  0  0  0  0  0  0
  188.2000  177.4990  142.5740 C   0  0  0  0  0  0  0  0  0  0  0  0
  184.3120  179.6060  139.5920 S   0  0  0  0  0  0  0  0  0  0  0  0
  187.3570  177.3120  144.9390 C   0  0  2  0  0  3  0  0  0  0  0  0
  185.4510  176.8550  146.2440 O   0  0  0  0  0  0  0  0  0  0  0  0
  186.2140  177.7160  145.8370 C   0  0  0  0  0  0  0  0  0  0  0  0
  186.2440  179.2970  147.7480 C   0  0  0  0  0  1  0  0  0  0  0  0
  186.0100  179.1400  146.2570 C   0  0  0  0  0  2  0  0  0  0  0  0
  188.7330  177.7950  145.3980 C   0  0  0  0  0  2  0  0  0  0  0  0
  189.1970  177.1120  146.6720 C   0  0  0  0  0  1  0  0  0  0  0  0
  2 28  2  0  0  0  0
  2  5  1  0  0  0  0
  3 26  1  0  0  0  0
  5  7  2  0  0  0  0
  6 12  1  0  0  0  0
  7 15  1  0  0  0  0
  7 12  1  0  0  0  0
  8 24  1  1  0  0  0
  8 13  1  0  0  0  0
  8 10  1  0  0  0  0
 10  4  1  1  0  0  0
 10 16  1  0  0  0  0
 11  9  1  6  0  0  0
 11  6  1  0  0  0  0
 11 21  1  0  0  0  0
 14 15  2  0  0  0  0
 16 20  1  1  0  0  0
 16 23  1  0  0  0  0
 17  1  1  0  0  0  0
 18 30  1  0  0  0  0
 19 13  1  0  0  0  0
 19 22  1  0  0  0  0
 20 17  2  0  0  0  0
 21 27  1  0  0  0  0
 22 18  2  0  0  0  0
 22  4  1  0  0  0  0
 23  9  1  6  0  0  0
 23 29  1  0  0  0  0
 24  3  1  0  0  0  0
 25 30  1  6  0  0  0
 25  5  1  0  0  0  0
 25 11  1  0  0  0  0
 26 20  1  0  0  0  0
 27 31  1  0  0  0  0
 28 14  1  0  0  0  0
 29  1  2  0  0  0  0
 29 27  1  0  0  0  0
 31 36  1  1  0  0  0
 31 33  1  0  0  0  0
 33 32  2  0  0  0  0
 33 35  1  0  0  0  0
 35 34  1  0  0  0  0
 36 37  1  0  0  0  0
M  END
>  <MODEL>
3

>  <REMARK>
 VINA RESULT:      -7.3      2.587      8.310
  Name = 
  4 active torsions:
  status: ('A' for Active; 'I' for Inactive)
    1  A    between atoms: C_11  and  C_26
    2  A    between atoms: C_17  and  C_23
    3  A    between atoms: C_17  and  C_26
    4  A    between atoms: C_26  and  N_33
                            x       y       z     vdW  Elec       q    Type
                         _______ _______ _______ _____ _____    ______ ____

>  <TORSDO>
F 4

$$$$
=
 OpenBabel10262422493D

 37 43  0  0  1  0  0  0  0  0999 V2000
  183.0000  177.7610  140.2000 C   0  0  0  0  0  3  0  0  0  0  0  0
  189.2580  175.1820  137.1880 C   0  0  0  0  0  3  0  0  0  0  0  0
  185.1850  179.1040  144.5480 C   0  0  0  0  0  2  0  0  0  0  0  0
  187.8870  178.6110  141.3740 O   0  0  0  0  0  0  0  0  0  0  0  0
  188.4230  176.2930  137.0160 C   0  0  0  0  0  0  0  0  0  0  0  0
  186.8500  178.6930  136.7050 C   0  0  0  0  0  2  0  0  0  0  0  0
  188.0740  176.7070  135.7110 C   0  0  0  0  0  0  0  0  0  0  0  0
  187.1090  177.8920  143.5370 C   0  0  2  0  0  3  0  0  0  0  0  0
  186.4550  178.8780  139.1410 C   0  0  0  0  0  2  0  0  0  0  0  0
  186.7590  178.6860  142.2490 C   0  0  2  0  0  3  0  0  0  0  0  0
  186.6830  177.8720  137.9880 C   0  0  1  0  0  0  0  0  0  0  0  0
  187.0970  177.8230  135.4680 C   0  0  0  0  0  2  0  0  0  0  0  0
  187.5240  176.5860  143.2150 O   0  0  0  0  0  0  0  0  0  0  0  0
  189.3770  174.8790  134.7910 C   0  0  0  0  0  3  0  0  0  0  0  0
  188.5450  175.9880  134.6090 C   0  0  0  0  0  3  0  0  0  0  0  0
  185.4800  178.1630  141.5410 C   0  0  1  0  0  3  0  0  0  0  0  0
  183.0010  178.1260  141.6300 C   0  0  0  0  0  3  0  0  0  0  0  0
  189.4940  177.1930  140.3420 C   0  0  0  0  0  3  0  0  0  0  0  0
  188.8080  176.6870  142.6440 C   0  0  0  0  0  2  0  0  0  0  0  0
  184.1450  178.3760  142.2890 C   0  0  0  0  0  0  0  0  0  0  0  0
  185.5260  176.8640  137.8220 C   0  0  0  0  0  2  0  0  0  0  0  0
  188.7490  177.5100  141.3950 C   0  0  0  0  0  0  0  0  0  0  0  0
  185.2620  178.6770  140.0920 C   0  0  2  0  0  3  0  0  0  0  0  0
  186.0170  177.8440  144.5930 C   0  0  0  0  0  2  0  0  0  0  0  0
  187.9860  177.0710  138.2290 C   0  0  2  0  0  3  0  0  0  0  0  0
  183.9470  178.8550  143.7080 C   0  0  0  0  0  2  0  0  0  0  0  0
  184.2250  177.4370  138.1470 N   0  0  0  0  0  0  0  0  0  0  0  0
  189.7320  174.4770  136.0800 C   0  0  0  0  0  3  0  0  0  0  0  0
  184.0920  177.9830  139.4600 C   0  0  0  0  0  0  0  0  0  0  0  0
  189.3840  178.1090  138.8070 S   0  0  0  0  0  0  0  0  0  0  0  0
  183.0520  177.2770  137.2770 C   0  0  2  0  0  3  0  0  0  0  0  0
  183.5660  177.3790  134.9820 O   0  0  0  0  0  0  0  0  0  0  0  0
  183.3430  176.6520  135.9360 C   0  0  0  0  0  0  0  0  0  0  0  0
  184.6980  174.7430  135.1140 C   0  0  0  0  0  1  0  0  0  0  0  0
  183.3890  175.1650  135.7560 C   0  0  0  0  0  2  0  0  0  0  0  0
  182.1740  178.5280  137.2250 C   0  0  0  0  0  2  0  0  0  0  0  0
  180.7310  178.2130  136.8730 C   0  0  0  0  0  1  0  0  0  0  0  0
  1 17  1  0  0  0  0
  3 24  1  0  0  0  0
  4 22  1  0  0  0  0
  5  2  1  0  0  0  0
  7  5  2  0  0  0  0
  8 24  1  1  0  0  0
 10  4  1  6  0  0  0
 10  8  1  0  0  0  0
 11  6  1  6  0  0  0
 11 25  1  0  0  0  0
 11  9  1  0  0  0  0
 12  7  1  0  0  0  0
 12  6  1  0  0  0  0
 13  8  1  0  0  0  0
 14 28  1  0  0  0  0
 15 14  2  0  0  0  0
 15  7  1  0  0  0  0
 16 10  1  0  0  0  0
 16 20  1  1  0  0  0
 17 20  2  0  0  0  0
 18 22  2  0  0  0  0
 19 13  1  0  0  0  0
 20 26  1  0  0  0  0
 21 11  1  0  0  0  0
 21 27  1  0  0  0  0
 22 19  1  0  0  0  0
 23  9  1  6  0  0  0
 23 16  1  0  0  0  0
 25  5  1  6  0  0  0
 25 30  1  0  0  0  0
 26  3  1  0  0  0  0
 27 29  1  0  0  0  0
 28  2  2  0  0  0  0
 29 23  1  0  0  0  0
 29  1  2  0  0  0  0
 30 18  1  0  0  0  0
 31 36  1  6  0  0  0
 31 27  1  0  0  0  0
 32 33  2  0  0  0  0
 33 31  1  0  0  0  0
 34 35  1  0  0  0  0
 35 33  1  0  0  0  0
 37 36  1  0  0  0  0
M  END
>  <MODEL>
4

>  <REMARK>
 VINA RESULT:      -6.8      1.271      1.637
  Name = 
  4 active torsions:
  status: ('A' for Active; 'I' for Inactive)
    1  A    between atoms: C_11  and  C_26
    2  A    between atoms: C_17  and  C_23
    3  A    between atoms: C_17  and  C_26
    4  A    between atoms: C_26  and  N_33
                            x       y       z     vdW  Elec       q    Type
                         _______ _______ _______ _____ _____    ______ ____

>  <TORSDO>
F 4

$$$$
=
 OpenBabel10262422493D

 37 43  0  0  1  0  0  0  0  0999 V2000
  184.4940  178.3600  141.2720 C   0  0  0  0  0  3  0  0  0  0  0  0
  190.0160  175.2910  137.4030 C   0  0  0  0  0  3  0  0  0  0  0  0
  186.9870  178.2530  145.6610 C   0  0  0  0  0  2  0  0  0  0  0  0
  189.4690  177.9280  142.2910 O   0  0  0  0  0  0  0  0  0  0  0  0
  189.4300  176.5580  137.5190 C   0  0  0  0  0  0  0  0  0  0  0  0
  188.3930  179.2360  137.8170 C   0  0  0  0  0  2  0  0  0  0  0  0
  189.1540  177.3090  136.3550 C   0  0  0  0  0  0  0  0  0  0  0  0
  188.5940  176.9270  144.3000 C   0  0  2  0  0  3  0  0  0  0  0  0
  188.0880  178.9600  140.2580 C   0  0  0  0  0  2  0  0  0  0  0  0
  188.3980  178.0370  143.2310 C   0  0  2  0  0  3  0  0  0  0  0  0
  188.0790  178.2050  138.9070 C   0  0  1  0  0  0  0  0  0  0  0  0
  188.4310  178.6250  136.4130 C   0  0  0  0  0  2  0  0  0  0  0  0
  188.7200  175.6670  143.6860 O   0  0  0  0  0  0  0  0  0  0  0  0
  190.0270  175.5010  134.9920 C   0  0  0  0  0  3  0  0  0  0  0  0
  189.4440  176.7670  135.0990 C   0  0  0  0  0  3  0  0  0  0  0  0
  187.0250  177.9510  142.5100 C   0  0  1  0  0  3  0  0  0  0  0  0
  184.5970  178.3970  142.7440 C   0  0  0  0  0  3  0  0  0  0  0  0
  190.7240  176.4750  140.8870 C   0  0  0  0  0  3  0  0  0  0  0  0
  189.9860  175.6290  143.0700 C   0  0  0  0  0  2  0  0  0  0  0  0
  185.7780  178.2600  143.3680 C   0  0  0  0  0  0  0  0  0  0  0  0
  186.7340  177.5130  138.6060 C   0  0  0  0  0  2  0  0  0  0  0  0
  190.0810  176.6990  142.0270 C   0  0  0  0  0  0  0  0  0  0  0  0
  186.8960  178.8010  141.2180 C   0  0  2  0  0  3  0  0  0  0  0  0
  187.5350  176.8710  145.3880 C   0  0  0  0  0  2  0  0  0  0  0  0
  189.1880  177.1250  138.8930 C   0  0  2  0  0  3  0  0  0  0  0  0
  185.7100  178.4480  144.8660 C   0  0  0  0  0  2  0  0  0  0  0  0
  185.5870  178.2520  139.1250 N   0  0  0  0  0  0  0  0  0  0  0  0
  190.3110  174.7640  136.1440 C   0  0  0  0  0  3  0  0  0  0  0  0
  185.5950  178.5130  140.5280 C   0  0  0  0  0  0  0  0  0  0  0  0
  190.7830  177.7070  139.5880 S   0  0  0  0  0  0  0  0  0  0  0  0
  184.3930  178.5250  138.3160 C   0  0  2  0  0  3  0  0  0  0  0  0
  184.1840  180.8360  138.7170 O   0  0  0  0  0  0  0  0  0  0  0  0
  183.6200  179.7530  138.7270 C   0  0  0  0  0  0  0  0  0  0  0  0
  181.3200  180.5060  138.1810 C   0  0  0  0  0  1  0  0  0  0  0  0
  182.1760  179.6780  139.1210 C   0  0  0  0  0  2  0  0  0  0  0  0
  183.5380  177.2800  138.0760 C   0  0  0  0  0  2  0  0  0  0  0  0
  183.0290  177.1870  136.6480 C   0  0  0  0  0  1  0  0  0  0  0  0
  1 17  1  0  0  0  0
  2  5  1  0  0  0  0
  7 12  1  0  0  0  0
  7  5  2  0  0  0  0
  8 24  1  1  0  0  0
 10  4  1  6  0  0  0
 10  8  1  0  0  0  0
 11  6  1  6  0  0  0
 11  9  1  0  0  0  0
 12  6  1  0  0  0  0
 13  8  1  0  0  0  0
 14 15  2  0  0  0  0
 14 28  1  0  0  0  0
 15  7  1  0  0  0  0
 16 10  1  0  0  0  0
 16 20  1  1  0  0  0
 17 20  2  0  0  0  0
 18 22  2  0  0  0  0
 19 13  1  0  0  0  0
 20 26  1  0  0  0  0
 21 11  1  0  0  0  0
 21 27  1  0  0  0  0
 22  4  1  0  0  0  0
 22 19  1  0  0  0  0
 23  9  1  6  0  0  0
 23 16  1  0  0  0  0
 24  3  1  0  0  0  0
 25  5  1  6  0  0  0
 25 11  1  0  0  0  0
 25 30  1  0  0  0  0
 26  3  1  0  0  0  0
 27 29  1  0  0  0  0
 28  2  2  0  0  0  0
 29 23  1  0  0  0  0
 29  1  2  0  0  0  0
 30 18  1  0  0  0  0
 31 36  1  1  0  0  0
 31 33  1  0  0  0  0
 31 27  1  0  0  0  0
 32 33  2  0  0  0  0
 33 35  1  0  0  0  0
 34 35  1  0  0  0  0
 37 36  1  0  0  0  0
M  END
>  <MODEL>
5

>  <REMARK>
 VINA RESULT:      -6.8      2.234      3.522
  Name = 
  4 active torsions:
  status: ('A' for Active; 'I' for Inactive)
    1  A    between atoms: C_11  and  C_26
    2  A    between atoms: C_17  and  C_23
    3  A    between atoms: C_17  and  C_26
    4  A    between atoms: C_26  and  N_33
                            x       y       z     vdW  Elec       q    Type
                         _______ _______ _______ _____ _____    ______ ____

>  <TORSDO>
F 4

$$$$
=
 OpenBabel10262422493D

 37 43  0  0  1  0  0  0  0  0999 V2000
  182.6610  177.1410  139.3030 C   0  0  0  0  0  3  0  0  0  0  0  0
  189.5590  175.2540  137.3710 C   0  0  0  0  0  3  0  0  0  0  0  0
  184.0690  179.4660  143.5570 C   0  0  0  0  0  2  0  0  0  0  0  0
  187.1800  178.9780  140.7800 O   0  0  0  0  0  0  0  0  0  0  0  0
  188.5900  176.1680  136.9380 C   0  0  0  0  0  0  0  0  0  0  0  0
  186.7160  178.1910  136.0850 C   0  0  0  0  0  2  0  0  0  0  0  0
  188.3430  176.3190  135.5560 C   0  0  0  0  0  0  0  0  0  0  0  0
  186.2650  178.4640  142.9490 C   0  0  2  0  0  3  0  0  0  0  0  0
  186.0050  178.6630  138.4080 C   0  0  0  0  0  2  0  0  0  0  0  0
  185.9560  178.9870  141.5190 C   0  0  2  0  0  3  0  0  0  0  0  0
  186.5230  177.5520  137.4650 C   0  0  1  0  0  0  0  0  0  0  0  0
  187.2430  177.2030  135.0390 C   0  0  0  0  0  2  0  0  0  0  0  0
  186.9130  177.2160  142.8880 O   0  0  0  0  0  0  0  0  0  0  0  0
  190.0130  174.6250  135.0790 C   0  0  0  0  0  3  0  0  0  0  0  0
  189.0490  175.5360  134.6380 C   0  0  0  0  0  3  0  0  0  0  0  0
  184.8680  178.1550  140.7890 C   0  0  1  0  0  3  0  0  0  0  0  0
  182.4330  177.7080  140.6460 C   0  0  0  0  0  3  0  0  0  0  0  0
  189.0990  177.7190  140.1560 C   0  0  0  0  0  3  0  0  0  0  0  0
  188.2250  177.4500  142.4340 C   0  0  0  0  0  2  0  0  0  0  0  0
  183.4360  178.2440  141.3610 C   0  0  0  0  0  0  0  0  0  0  0  0
  185.5640  176.3480  137.3580 C   0  0  0  0  0  2  0  0  0  0  0  0
  188.1930  178.0560  141.0660 C   0  0  0  0  0  0  0  0  0  0  0  0
  184.7520  178.4040  139.2610 C   0  0  2  0  0  3  0  0  0  0  0  0
  185.0740  178.3870  143.8900 C   0  0  0  0  0  2  0  0  0  0  0  0
  187.8960  177.0310  137.9580 C   0  0  2  0  0  3  0  0  0  0  0  0
  182.9960  178.8870  142.6560 C   0  0  0  0  0  2  0  0  0  0  0  0
  184.1600  176.7320  137.4590 N   0  0  0  0  0  0  0  0  0  0  0  0
  190.2670  174.4840  136.4450 C   0  0  0  0  0  3  0  0  0  0  0  0
  183.7870  177.4340  138.6440 C   0  0  0  0  0  0  0  0  0  0  0  0
  189.0370  178.3660  138.4870 S   0  0  0  0  0  0  0  0  0  0  0  0
  183.1410  176.2460  136.5200 C   0  0  2  0  0  3  0  0  0  0  0  0
  182.9500  177.8070  134.7670 O   0  0  0  0  0  0  0  0  0  0  0  0
  182.4200  177.3290  135.7570 C   0  0  0  0  0  0  0  0  0  0  0  0
  181.1160  179.2670  136.5940 C   0  0  0  0  0  1  0  0  0  0  0  0
  181.0620  177.8110  136.1710 C   0  0  0  0  0  2  0  0  0  0  0  0
  182.2320  175.1760  137.1270 C   0  0  0  0  0  2  0  0  0  0  0  0
  182.0950  173.9530  136.2380 C   0  0  0  0  0  1  0  0  0  0  0  0
  1 17  1  0  0  0  0
  3 24  1  0  0  0  0
  4 22  1  0  0  0  0
  5  2  1  0  0  0  0
  7  5  2  0  0  0  0
  8 24  1  1  0  0  0
 10  4  1  6  0  0  0
 10  8  1  0  0  0  0
 11  6  1  6  0  0  0
 11 25  1  0  0  0  0
 11  9  1  0  0  0  0
 12  7  1  0  0  0  0
 12  6  1  0  0  0  0
 13  8  1  0  0  0  0
 14 28  1  0  0  0  0
 15 14  2  0  0  0  0
 15  7  1  0  0  0  0
 16 20  1  1  0  0  0
 16 10  1  0  0  0  0
 17 20  2  0  0  0  0
 18 22  2  0  0  0  0
 19 13  1  0  0  0  0
 20 26  1  0  0  0  0
 21 27  1  0  0  0  0
 21 11  1  0  0  0  0
 22 19  1  0  0  0  0
 23  9  1  6  0  0  0
 23 16  1  0  0  0  0
 25  5  1  6  0  0  0
 25 30  1  0  0  0  0
 26  3  1  0  0  0  0
 27 29  1  0  0  0  0
 28  2  2  0  0  0  0
 29 23  1  0  0  0  0
 29  1  2  0  0  0  0
 30 18  1  0  0  0  0
 31 36  1  1  0  0  0
 31 27  1  0  0  0  0
 32 33  2  0  0  0  0
 33 35  1  0  0  0  0
 33 31  1  0  0  0  0
 35 34  1  0  0  0  0
 37 36  1  0  0  0  0
M  END
>  <MODEL>
6

>  <REMARK>
 VINA RESULT:      -6.6      1.047      1.928
  Name = 
  4 active torsions:
  status: ('A' for Active; 'I' for Inactive)
    1  A    between atoms: C_11  and  C_26
    2  A    between atoms: C_17  and  C_23
    3  A    between atoms: C_17  and  C_26
    4  A    between atoms: C_26  and  N_33
                            x       y       z     vdW  Elec       q    Type
                         _______ _______ _______ _____ _____    ______ ____

>  <TORSDO>
F 4

$$$$
=
 OpenBabel10262422493D

 37 43  0  0  1  0  0  0  0  0999 V2000
  186.0990  175.8810  135.9050 C   0  0  0  0  0  3  0  0  0  0  0  0
  188.8140  176.5990  142.7600 C   0  0  0  0  0  3  0  0  0  0  0  0
  181.8420  178.4030  136.9060 C   0  0  0  0  0  2  0  0  0  0  0  0
  184.9320  179.1330  139.6530 O   0  0  0  0  0  0  0  0  0  0  0  0
  189.0850  177.1300  141.4930 C   0  0  0  0  0  0  0  0  0  0  0  0
  189.6060  178.3960  138.9520 C   0  0  0  0  0  2  0  0  0  0  0  0
  190.4220  177.2320  141.0510 C   0  0  0  0  0  0  0  0  0  0  0  0
  182.7280  178.2560  139.2270 C   0  0  2  0  0  3  0  0  0  0  0  0
  187.1970  178.5080  138.3940 C   0  0  0  0  0  2  0  0  0  0  0  0
  184.0800  178.6870  138.5940 C   0  0  2  0  0  3  0  0  0  0  0  0
  188.2640  177.6820  139.1510 C   0  0  1  0  0  0  0  0  0  0  0  0
  190.7660  177.6920  139.6620 C   0  0  0  0  0  2  0  0  0  0  0  0
  182.9410  177.3170  140.2530 O   0  0  0  0  0  0  0  0  0  0  0  0
  191.1780  176.2480  143.1360 C   0  0  0  0  0  3  0  0  0  0  0  0
  191.4580  176.7780  141.8730 C   0  0  0  0  0  3  0  0  0  0  0  0
  184.7610  177.5520  137.7830 C   0  0  1  0  0  3  0  0  0  0  0  0
  184.7020  176.2850  135.6510 C   0  0  0  0  0  3  0  0  0  0  0  0
  185.8260  178.6490  141.8030 C   0  0  0  0  0  3  0  0  0  0  0  0
  183.5010  178.0110  141.3430 C   0  0  0  0  0  2  0  0  0  0  0  0
  184.0500  177.1140  136.4840 C   0  0  0  0  0  0  0  0  0  0  0  0
  188.3650  176.2230  138.6600 C   0  0  0  0  0  2  0  0  0  0  0  0
  184.8120  178.6150  140.9460 C   0  0  0  0  0  0  0  0  0  0  0  0
  186.2490  177.7970  137.4130 C   0  0  2  0  0  3  0  0  0  0  0  0
  181.6860  177.7330  138.2510 C   0  0  0  0  0  2  0  0  0  0  0  0
  187.9430  177.6580  140.6660 C   0  0  2  0  0  3  0  0  0  0  0  0
  182.6760  177.5170  136.0010 C   0  0  0  0  0  2  0  0  0  0  0  0
  188.1030  176.0870  137.2310 N   0  0  0  0  0  0  0  0  0  0  0  0
  189.8570  176.1580  143.5780 C   0  0  0  0  0  3  0  0  0  0  0  0
  186.8390  176.5730  136.7780 C   0  0  0  0  0  0  0  0  0  0  0  0
  187.4310  179.2890  141.3300 S   0  0  0  0  0  0  0  0  0  0  0  0
  188.9730  175.3080  136.3400 C   0  0  2  0  0  3  0  0  0  0  0  0
  190.2070  173.7440  137.5950 O   0  0  0  0  0  0  0  0  0  0  0  0
  189.2780  173.9120  136.8210 C   0  0  0  0  0  0  0  0  0  0  0  0
  187.1890  172.6340  137.2210 C   0  0  0  0  0  1  0  0  0  0  0  0
  188.4560  172.7350  136.3900 C   0  0  0  0  0  2  0  0  0  0  0  0
  190.1880  176.0990  135.8530 C   0  0  0  0  0  2  0  0  0  0  0  0
  189.8010  177.3120  135.0270 C   0  0  0  0  0  1  0  0  0  0  0  0
  1 29  2  0  0  0  0
  2 28  1  0  0  0  0
  3 24  1  0  0  0  0
  4 22  1  0  0  0  0
  5  2  2  0  0  0  0
  6 11  1  0  0  0  0
  6 12  1  0  0  0  0
  7  5  1  0  0  0  0
  7 15  2  0  0  0  0
  8 24  1  6  0  0  0
  8 13  1  0  0  0  0
 10  8  1  0  0  0  0
 10  4  1  1  0  0  0
 11  9  1  6  0  0  0
 11 25  1  0  0  0  0
 12  7  1  0  0  0  0
 13 19  1  0  0  0  0
 14 28  2  0  0  0  0
 15 14  1  0  0  0  0
 16 20  1  6  0  0  0
 16 10  1  0  0  0  0
 17  1  1  0  0  0  0
 17 20  2  0  0  0  0
 21 11  1  0  0  0  0
 22 19  1  0  0  0  0
 22 18  2  0  0  0  0
 23 16  1  0  0  0  0
 23  9  1  1  0  0  0
 25 30  1  1  0  0  0
 25  5  1  0  0  0  0
 26 20  1  0  0  0  0
 26  3  1  0  0  0  0
 27 21  1  0  0  0  0
 29 27  1  0  0  0  0
 29 23  1  0  0  0  0
 30 18  1  0  0  0  0
 31 36  1  1  0  0  0
 31 33  1  0  0  0  0
 31 27  1  0  0  0  0
 33 32  2  0  0  0  0
 35 33  1  0  0  0  0
 35 34  1  0  0  0  0
 37 36  1  0  0  0  0
M  END
>  <MODEL>
7

>  <REMARK>
 VINA RESULT:      -6.5      2.224      4.912
  Name = 
  4 active torsions:
  status: ('A' for Active; 'I' for Inactive)
    1  A    between atoms: C_11  and  C_26
    2  A    between atoms: C_17  and  C_23
    3  A    between atoms: C_17  and  C_26
    4  A    between atoms: C_26  and  N_33
                            x       y       z     vdW  Elec       q    Type
                         _______ _______ _______ _____ _____    ______ ____

>  <TORSDO>
F 4

$$$$
=
 OpenBabel10262422493D

 37 43  0  0  1  0  0  0  0  0999 V2000
  186.6810  178.3790  142.3500 C   0  0  0  0  0  3  0  0  0  0  0  0
  181.2120  175.2030  138.4920 C   0  0  0  0  0  3  0  0  0  0  0  0
  190.0140  178.1440  138.5660 C   0  0  0  0  0  2  0  0  0  0  0  0
  186.0180  177.7910  137.3300 O   0  0  0  0  0  0  0  0  0  0  0  0
  181.5170  176.4840  138.9670 C   0  0  0  0  0  0  0  0  0  0  0  0
  182.1440  179.1860  139.7660 C   0  0  0  0  0  2  0  0  0  0  0  0
  180.5090  177.2570  139.5840 C   0  0  0  0  0  0  0  0  0  0  0  0
  188.1990  176.7900  137.5320 C   0  0  2  0  0  3  0  0  0  0  0  0
  184.5500  178.8880  139.2670 C   0  0  0  0  0  2  0  0  0  0  0  0
  187.2560  177.9190  138.0330 C   0  0  2  0  0  3  0  0  0  0  0  0
  183.2750  178.1510  139.7390 C   0  0  1  0  0  0  0  0  0  0  0  0
  180.8030  178.5920  140.2080 C   0  0  0  0  0  2  0  0  0  0  0  0
  187.5740  175.5350  137.6540 O   0  0  0  0  0  0  0  0  0  0  0  0
  178.9310  175.4430  139.2620 C   0  0  0  0  0  3  0  0  0  0  0  0
  179.2260  176.7240  139.7380 C   0  0  0  0  0  3  0  0  0  0  0  0
  187.0230  177.8810  139.5670 C   0  0  1  0  0  3  0  0  0  0  0  0
  188.0390  178.3940  141.7710 C   0  0  0  0  0  3  0  0  0  0  0  0
  184.2770  176.3210  136.6490 C   0  0  0  0  0  3  0  0  0  0  0  0
  186.5790  175.4680  136.6600 C   0  0  0  0  0  2  0  0  0  0  0  0
  188.2420  178.2150  140.4550 C   0  0  0  0  0  0  0  0  0  0  0  0
  183.4270  177.5020  141.1300 C   0  0  0  0  0  2  0  0  0  0  0  0
  185.5650  176.5480  136.8770 C   0  0  0  0  0  0  0  0  0  0  0  0
  185.8460  178.7510  140.0840 C   0  0  2  0  0  3  0  0  0  0  0  0
  189.5740  176.7510  138.1800 C   0  0  0  0  0  2  0  0  0  0  0  0
  182.8960  177.0400  138.7300 C   0  0  2  0  0  3  0  0  0  0  0  0
  189.6810  178.3860  140.0250 C   0  0  0  0  0  2  0  0  0  0  0  0
  184.2940  178.2670  142.0210 N   0  0  0  0  0  0  0  0  0  0  0  0
  179.9240  174.6830  138.6410 C   0  0  0  0  0  3  0  0  0  0  0  0
  185.6190  178.5090  141.5470 C   0  0  0  0  0  0  0  0  0  0  0  0
  183.0330  177.5670  136.9780 S   0  0  0  0  0  0  0  0  0  0  0  0
  183.9200  178.5850  143.4050 C   0  0  2  0  0  3  0  0  0  0  0  0
  182.1420  180.0920  143.0700 O   0  0  0  0  0  0  0  0  0  0  0  0
  182.4940  179.0420  143.5830 C   0  0  0  0  0  0  0  0  0  0  0  0
  180.1050  178.4010  143.7760 C   0  0  0  0  0  1  0  0  0  0  0  0
  181.4980  178.2270  144.3520 C   0  0  0  0  0  2  0  0  0  0  0  0
  184.9630  179.4440  144.1220 C   0  0  0  0  0  2  0  0  0  0  0  0
  185.1930  179.0060  145.5570 C   0  0  0  0  0  1  0  0  0  0  0  0
  2 28  2  0  0  0  0
  2  5  1  0  0  0  0
  3 26  1  0  0  0  0
  5  7  2  0  0  0  0
  6 12  1  0  0  0  0
  7 15  1  0  0  0  0
  7 12  1  0  0  0  0
  8 13  1  0  0  0  0
  8 10  1  0  0  0  0
  8 24  1  1  0  0  0
 10  4  1  6  0  0  0
 10 16  1  0  0  0  0
 11  9  1  6  0  0  0
 11  6  1  0  0  0  0
 11 21  1  0  0  0  0
 14 15  2  0  0  0  0
 16 23  1  0  0  0  0
 16 20  1  1  0  0  0
 17  1  1  0  0  0  0
 18 22  2  0  0  0  0
 18 30  1  0  0  0  0
 19 22  1  0  0  0  0
 19 13  1  0  0  0  0
 20 17  2  0  0  0  0
 21 27  1  0  0  0  0
 22  4  1  0  0  0  0
 23  9  1  6  0  0  0
 23 29  1  0  0  0  0
 24  3  1  0  0  0  0
 25 30  1  6  0  0  0
 25  5  1  0  0  0  0
 25 11  1  0  0  0  0
 26 20  1  0  0  0  0
 27 31  1  0  0  0  0
 28 14  1  0  0  0  0
 29 27  1  0  0  0  0
 29  1  2  0  0  0  0
 31 33  1  0  0  0  0
 31 36  1  6  0  0  0
 32 33  2  0  0  0  0
 33 35  1  0  0  0  0
 34 35  1  0  0  0  0
 36 37  1  0  0  0  0
M  END
>  <MODEL>
8

>  <REMARK>
 VINA RESULT:      -6.1      2.496      7.363
  Name = 
  4 active torsions:
  status: ('A' for Active; 'I' for Inactive)
    1  A    between atoms: C_11  and  C_26
    2  A    between atoms: C_17  and  C_23
    3  A    between atoms: C_17  and  C_26
    4  A    between atoms: C_26  and  N_33
                            x       y       z     vdW  Elec       q    Type
                         _______ _______ _______ _____ _____    ______ ____

>  <TORSDO>
F 4

$$$$
=
 OpenBabel10262422493D

 37 43  0  0  1  0  0  0  0  0999 V2000
  184.6250  177.9100  143.9160 C   0  0  0  0  0  3  0  0  0  0  0  0
  184.7750  176.2970  136.6880 C   0  0  0  0  0  3  0  0  0  0  0  0
  189.6430  178.2530  144.3440 C   0  0  0  0  0  2  0  0  0  0  0  0
  188.2490  178.6000  140.3990 O   0  0  0  0  0  0  0  0  0  0  0  0
  184.4170  177.3920  137.4830 C   0  0  0  0  0  0  0  0  0  0  0  0
  183.8120  179.7510  139.0320 C   0  0  0  0  0  2  0  0  0  0  0  0
  183.2210  178.0920  137.2080 C   0  0  0  0  0  0  0  0  0  0  0  0
  189.5390  177.3690  142.0190 C   0  0  2  0  0  3  0  0  0  0  0  0
  185.6960  179.3450  140.5850 C   0  0  0  0  0  2  0  0  0  0  0  0
  188.4270  178.4340  141.8080 C   0  0  2  0  0  3  0  0  0  0  0  0
  184.6510  178.6460  139.6830 C   0  0  1  0  0  0  0  0  0  0  0  0
  182.7330  179.2050  138.0920 C   0  0  0  0  0  2  0  0  0  0  0  0
  189.2310  176.1890  141.3170 O   0  0  0  0  0  0  0  0  0  0  0  0
  182.7610  176.5710  135.3750 C   0  0  0  0  0  3  0  0  0  0  0  0
  182.3960  177.6670  136.1630 C   0  0  0  0  0  3  0  0  0  0  0  0
  187.0850  178.0560  142.4900 C   0  0  1  0  0  3  0  0  0  0  0  0
  185.8970  177.9280  144.6640 C   0  0  0  0  0  3  0  0  0  0  0  0
  187.9270  177.5130  138.3080 C   0  0  0  0  0  3  0  0  0  0  0  0
  189.4210  176.4590  139.9470 C   0  0  0  0  0  2  0  0  0  0  0  0
  187.0790  178.0480  144.0350 C   0  0  0  0  0  0  0  0  0  0  0  0
  183.7350  177.6730  140.4530 C   0  0  0  0  0  2  0  0  0  0  0  0
  188.4960  177.5510  139.5080 C   0  0  0  0  0  0  0  0  0  0  0  0
  185.8540  178.8900  142.0470 C   0  0  2  0  0  3  0  0  0  0  0  0
  189.8640  177.0420  143.4680 C   0  0  0  0  0  2  0  0  0  0  0  0
  185.3630  177.8490  138.5620 C   0  0  2  0  0  3  0  0  0  0  0  0
  188.2630  178.1730  144.9650 C   0  0  0  0  0  2  0  0  0  0  0  0
  183.4580  178.1150  141.8160 N   0  0  0  0  0  0  0  0  0  0  0  0
  183.9490  175.8860  135.6390 C   0  0  0  0  0  3  0  0  0  0  0  0
  184.5980  178.3310  142.6470 C   0  0  0  0  0  0  0  0  0  0  0  0
  186.7530  178.7610  137.7880 S   0  0  0  0  0  0  0  0  0  0  0  0
  182.1010  178.1310  142.3800 C   0  0  2  0  0  3  0  0  0  0  0  0
  180.8260  179.4390  140.8950 O   0  0  0  0  0  0  0  0  0  0  0  0
  181.0000  178.3280  141.3680 C   0  0  0  0  0  0  0  0  0  0  0  0
  180.1500  177.0770  139.4010 C   0  0  0  0  0  1  0  0  0  0  0  0
  180.1370  177.1890  140.9150 C   0  0  0  0  0  2  0  0  0  0  0  0
  181.9860  179.0020  143.6310 C   0  0  0  0  0  2  0  0  0  0  0  0
  180.6570  178.8280  144.3430 C   0  0  0  0  0  1  0  0  0  0  0  0
  1 17  1  0  0  0  0
  2  5  1  0  0  0  0
  3 26  1  0  0  0  0
  7  5  2  0  0  0  0
  7 12  1  0  0  0  0
  8 24  1  1  0  0  0
 10  4  1  6  0  0  0
 10  8  1  0  0  0  0
 10 16  1  0  0  0  0
 11  6  1  6  0  0  0
 11 21  1  0  0  0  0
 11  9  1  0  0  0  0
 12  6  1  0  0  0  0
 13  8  1  0  0  0  0
 14 28  1  0  0  0  0
 14 15  2  0  0  0  0
 15  7  1  0  0  0  0
 16 20  1  1  0  0  0
 18 22  2  0  0  0  0
 19 13  1  0  0  0  0
 20 17  2  0  0  0  0
 20 26  1  0  0  0  0
 21 27  1  0  0  0  0
 22 19  1  0  0  0  0
 22  4  1  0  0  0  0
 23  9  1  6  0  0  0
 23 16  1  0  0  0  0
 23 29  1  0  0  0  0
 24  3  1  0  0  0  0
 25  5  1  6  0  0  0
 25 11  1  0  0  0  0
 27 31  1  0  0  0  0
 27 29  1  0  0  0  0
 28  2  2  0  0  0  0
 29  1  2  0  0  0  0
 30 18  1  0  0  0  0
 30 25  1  0  0  0  0
 31 36  1  1  0  0  0
 32 33  2  0  0  0  0
 33 31  1  0  0  0  0
 34 35  1  0  0  0  0
 35 33  1  0  0  0  0
 36 37  1  0  0  0  0
M  END
>  <MODEL>
9

>  <REMARK>
 VINA RESULT:      -6.0      2.595      5.483
  Name = 
  4 active torsions:
  status: ('A' for Active; 'I' for Inactive)
    1  A    between atoms: C_11  and  C_26
    2  A    between atoms: C_17  and  C_23
    3  A    between atoms: C_17  and  C_26
    4  A    between atoms: C_26  and  N_33
                            x       y       z     vdW  Elec       q    Type
                         _______ _______ _______ _____ _____    ______ ____

>  <TORSDO>
F 4

$$$$
