=
 OpenBabel10262421293D

 32 38  0  0  1  0  0  0  0  0999 V2000
  180.1000  178.6970  141.5800 N   0  0  0  0  0  0  0  0  0  0  0  0
  184.8760  178.7020  143.4220 C   0  0  2  0  0  3  0  0  0  0  0  0
  187.5780  177.9060  139.3780 C   0  0  0  0  0  2  0  0  0  0  0  0
  188.6510  178.4050  140.1350 O   0  0  0  0  0  0  0  0  0  0  0  0
  185.9720  178.2810  145.5700 C   0  0  0  0  0  0  0  0  0  0  0  0
  187.1440  177.9660  146.2780 C   0  0  0  0  0  0  0  0  0  0  0  0
  182.4430  178.8390  143.2470 C   0  0  0  0  0  0  0  0  0  0  0  0
  183.7420  178.6190  141.2280 N   0  0  0  0  0  0  0  0  0  0  0  0
  189.4950  177.3440  147.6820 C   0  0  0  0  0  3  0  0  0  0  0  0
  181.3620  178.2220  140.9950 C   0  0  0  0  0  2  0  0  0  0  0  0
  186.2820  178.5580  139.8570 C   0  0  0  0  0  2  0  0  0  0  0  0
  184.9610  179.0170  141.9420 C   0  0  2  0  0  3  0  0  0  0  0  0
  186.1460  178.4410  141.3140 N   0  0  2  0  0  0  0  0  0  0  0  0
  187.2280  178.1510  143.4640 C   0  0  0  0  0  0  0  0  0  0  0  0
  188.3000  177.5550  148.3760 C   0  0  0  0  0  3  0  0  0  0  0  0
  180.0100  178.3570  143.0090 C   0  0  0  0  0  2  0  0  0  0  0  0
  182.5710  178.6230  141.7920 C   0  0  0  0  0  0  0  0  0  0  0  0
  187.1300  177.8650  147.6780 C   0  0  0  0  0  3  0  0  0  0  0  0
  181.0940  179.0390  143.8530 C   0  0  0  0  0  2  0  0  0  0  0  0
  188.5780  177.7750  141.3900 C   0  0  0  0  0  2  0  0  0  0  0  0
  187.3100  178.1710  142.1150 C   0  0  1  0  0  3  0  0  0  0  0  0
  188.3790  177.8400  144.2040 C   0  0  0  0  0  3  0  0  0  0  0  0
  183.5300  178.8580  144.0170 C   0  0  0  0  0  3  0  0  0  0  0  0
  184.8050  178.4920  146.3030 O   0  0  0  0  0  1  0  0  0  0  0  0
  189.5190  177.4420  146.2880 C   0  0  0  0  0  3  0  0  0  0  0  0
  185.9930  178.3950  144.1440 C   0  0  0  0  0  0  0  0  0  0  0  0
  188.3500  177.7520  145.5870 C   0  0  0  0  0  0  0  0  0  0  0  0
  179.9710  180.1380  141.3720 C   0  0  0  0  0  2  0  0  0  0  0  0
  180.4360  181.3020  139.2440 C   0  0  0  0  0  0  0  0  0  0  0  0
  179.4320  180.4190  139.9820 C   0  0  2  0  0  3  0  0  0  0  0  0
  179.1230  181.8070  139.8370 C   0  0  0  0  0  2  0  0  0  0  0  0
  181.4890  181.4750  138.6510 O   0  0  0  0  0  0  0  0  0  0  0  0
  1 16  1  0  0  0  0
  2 23  1  1  0  0  0
  2 26  1  0  0  0  0
  3 11  1  0  0  0  0
  3  4  1  0  0  0  0
  4 20  1  0  0  0  0
  5  6  1  0  0  0  0
  5 24  1  0  0  0  0
  6 18  1  0  0  0  0
  7 19  1  0  0  0  0
  7 23  2  0  0  0  0
  8 17  2  0  0  0  0
  9 15  1  0  0  0  0
 10  1  1  0  0  0  0
 10 17  1  0  0  0  0
 12  8  1  6  0  0  0
 12  2  1  0  0  0  0
 13 11  1  6  0  0  0
 13 12  1  0  0  0  0
 13 21  1  0  0  0  0
 14 26  1  0  0  0  0
 14 22  2  0  0  0  0
 16 19  1  0  0  0  0
 17  7  1  0  0  0  0
 18 15  2  0  0  0  0
 21 20  1  6  0  0  0
 21 14  1  0  0  0  0
 22 27  1  0  0  0  0
 25  9  2  0  0  0  0
 26  5  2  0  0  0  0
 27  6  2  0  0  0  0
 27 25  1  0  0  0  0
 28  1  1  0  0  0  0
 29 31  1  0  0  0  0
 29 30  1  0  0  0  0
 30 28  1  1  0  0  0
 31 30  1  0  0  0  0
 32 29  2  0  0  0  0
M  END
>  <MODEL>
1

>  <REMARK>
 VINA RESULT:     -11.2      0.000      0.000
  Name = 
  2 active torsions:
  status: ('A' for Active; 'I' for Inactive)
    1  A    between atoms: N_2  and  C_24
    2  A    between atoms: C_10  and  C_24
                            x       y       z     vdW  Elec       q    Type
                         _______ _______ _______ _____ _____    ______ ____

>  <TORSDO>
F 2

$$$$
=
 OpenBabel10262421293D

 32 38  0  0  1  0  0  0  0  0999 V2000
  187.6850  178.5470  137.5520 N   0  0  0  0  0  0  0  0  0  0  0  0
  186.9070  177.8530  142.5640 C   0  0  2  0  0  3  0  0  0  0  0  0
  182.2460  179.3510  143.1350 C   0  0  0  0  0  2  0  0  0  0  0  0
  182.2840  178.6360  144.3430 O   0  0  0  0  0  0  0  0  0  0  0  0
  188.2710  177.7280  144.5910 C   0  0  0  0  0  0  0  0  0  0  0  0
  188.3510  177.8090  145.9920 C   0  0  0  0  0  0  0  0  0  0  0  0
  187.9340  177.9030  140.3470 C   0  0  0  0  0  0  0  0  0  0  0  0
  185.6030  178.4810  140.5610 N   0  0  0  0  0  0  0  0  0  0  0  0
  188.4940  177.9680  148.7920 C   0  0  0  0  0  3  0  0  0  0  0  0
  186.6400  179.0620  138.4470 C   0  0  0  0  0  2  0  0  0  0  0  0
  183.1890  178.6890  142.1310 C   0  0  0  0  0  2  0  0  0  0  0  0
  185.5480  177.8650  141.8920 C   0  0  2  0  0  3  0  0  0  0  0  0
  184.5200  178.4920  142.7170 N   0  0  2  0  0  0  0  0  0  0  0  0
  185.8730  178.2400  144.7130 C   0  0  0  0  0  0  0  0  0  0  0  0
  189.6420  177.6820  148.0470 C   0  0  0  0  0  3  0  0  0  0  0  0
  189.0060  178.5700  138.2000 C   0  0  0  0  0  2  0  0  0  0  0  0
  186.6610  178.4250  139.8080 C   0  0  0  0  0  0  0  0  0  0  0  0
  189.5710  177.6020  146.6530 C   0  0  0  0  0  3  0  0  0  0  0  0
  189.0830  177.6570  139.4290 C   0  0  0  0  0  2  0  0  0  0  0  0
  183.4950  178.9790  144.9690 C   0  0  0  0  0  2  0  0  0  0  0  0
  184.6760  178.5110  144.1470 C   0  0  1  0  0  3  0  0  0  0  0  0
  185.9890  178.3120  146.1090 C   0  0  0  0  0  3  0  0  0  0  0  0
  188.0530  177.6510  141.6500 C   0  0  0  0  0  3  0  0  0  0  0  0
  189.4390  177.4310  143.8900 O   0  0  0  0  0  1  0  0  0  0  0  0
  187.2740  178.1760  148.1420 C   0  0  0  0  0  3  0  0  0  0  0  0
  187.0230  177.9270  143.9210 C   0  0  0  0  0  0  0  0  0  0  0  0
  187.2000  178.0970  146.7480 C   0  0  0  0  0  0  0  0  0  0  0  0
  187.3380  177.1960  137.1130 C   0  0  0  0  0  2  0  0  0  0  0  0
  185.1310  176.1430  136.7640 C   0  0  0  0  0  0  0  0  0  0  0  0
  186.0800  177.2300  136.2650 C   0  0  2  0  0  3  0  0  0  0  0  0
  185.9670  176.0340  135.4910 C   0  0  0  0  0  2  0  0  0  0  0  0
  184.3310  175.6970  137.5710 O   0  0  0  0  0  0  0  0  0  0  0  0
  1 16  1  0  0  0  0
  1 10  1  0  0  0  0
  2 23  1  1  0  0  0
  2 26  1  0  0  0  0
  3  4  1  0  0  0  0
  4 20  1  0  0  0  0
  5  6  1  0  0  0  0
  6 18  2  0  0  0  0
  6 27  1  0  0  0  0
  7 23  2  0  0  0  0
 10 17  1  0  0  0  0
 11  3  1  0  0  0  0
 12  8  1  6  0  0  0
 12  2  1  0  0  0  0
 12 13  1  0  0  0  0
 13 11  1  1  0  0  0
 13 21  1  0  0  0  0
 14 22  2  0  0  0  0
 15  9  2  0  0  0  0
 16 19  1  0  0  0  0
 17  7  1  0  0  0  0
 17  8  2  0  0  0  0
 18 15  1  0  0  0  0
 19  7  1  0  0  0  0
 21 14  1  0  0  0  0
 21 20  1  6  0  0  0
 22 27  1  0  0  0  0
 24  5  1  0  0  0  0
 25  9  1  0  0  0  0
 26  5  2  0  0  0  0
 26 14  1  0  0  0  0
 27 25  2  0  0  0  0
 28  1  1  0  0  0  0
 29 32  2  0  0  0  0
 30 29  1  0  0  0  0
 30 28  1  1  0  0  0
 31 30  1  0  0  0  0
 31 29  1  0  0  0  0
M  END
>  <MODEL>
2

>  <REMARK>
 VINA RESULT:      -9.6      2.436      5.564
  Name = 
  2 active torsions:
  status: ('A' for Active; 'I' for Inactive)
    1  A    between atoms: N_2  and  C_24
    2  A    between atoms: C_10  and  C_24
                            x       y       z     vdW  Elec       q    Type
                         _______ _______ _______ _____ _____    ______ ____

>  <TORSDO>
F 2

$$$$
=
 OpenBabel10262421293D

 32 38  0  0  1  0  0  0  0  0999 V2000
  190.0760  178.0220  147.3750 N   0  0  0  0  0  0  0  0  0  0  0  0
  186.2410  177.9240  143.9850 C   0  0  2  0  0  3  0  0  0  0  0  0
  188.6060  178.3980  139.6880 C   0  0  0  0  0  2  0  0  0  0  0  0
  187.4270  177.8980  139.1130 O   0  0  0  0  0  0  0  0  0  0  0  0
  183.8430  178.4120  143.9730 C   0  0  0  0  0  0  0  0  0  0  0  0
  182.6840  178.7170  143.2400 C   0  0  0  0  0  0  0  0  0  0  0  0
  187.5130  177.8750  146.0700 C   0  0  0  0  0  0  0  0  0  0  0  0
  188.7120  177.9360  143.9800 N   0  0  0  0  0  0  0  0  0  0  0  0
  180.3730  179.3170  141.7620 C   0  0  0  0  0  3  0  0  0  0  0  0
  190.0270  178.4150  145.9600 C   0  0  0  0  0  2  0  0  0  0  0  0
  188.7600  177.8250  141.0960 C   0  0  0  0  0  2  0  0  0  0  0  0
  187.5060  177.5280  143.2490 C   0  0  2  0  0  3  0  0  0  0  0  0
  187.5340  178.0230  141.8770 N   0  0  2  0  0  0  0  0  0  0  0  0
  185.1360  178.3810  141.8860 C   0  0  0  0  0  0  0  0  0  0  0  0
  180.3010  179.1910  143.1520 C   0  0  0  0  0  3  0  0  0  0  0  0
  188.8590  178.4400  148.0900 C   0  0  0  0  0  2  0  0  0  0  0  0
  188.7520  178.0090  145.2770 C   0  0  0  0  0  0  0  0  0  0  0  0
  181.4510  178.8910  143.8890 C   0  0  0  0  0  3  0  0  0  0  0  0
  187.5910  177.7600  147.5560 C   0  0  0  0  0  2  0  0  0  0  0  0
  186.3650  178.5950  139.7160 C   0  0  0  0  0  2  0  0  0  0  0  0
  186.2950  178.2880  141.1960 C   0  0  1  0  0  3  0  0  0  0  0  0
  183.9580  178.6850  141.1860 C   0  0  0  0  0  3  0  0  0  0  0  0
  186.3290  177.8520  145.4610 C   0  0  0  0  0  3  0  0  0  0  0  0
  183.7240  178.2860  145.3560 O   0  0  0  0  0  1  0  0  0  0  0  0
  181.5960  179.1460  141.1080 C   0  0  0  0  0  3  0  0  0  0  0  0
  185.0950  178.2230  143.3070 C   0  0  0  0  0  0  0  0  0  0  0  0
  182.7470  178.8460  141.8410 C   0  0  0  0  0  0  0  0  0  0  0  0
  190.2790  176.5790  147.4800 C   0  0  0  0  0  2  0  0  0  0  0  0
  191.9390  175.5610  145.9610 C   0  0  0  0  0  0  0  0  0  0  0  0
  191.7490  176.2450  147.3130 C   0  0  2  0  0  3  0  0  0  0  0  0
  191.9420  174.8290  147.3000 C   0  0  0  0  0  2  0  0  0  0  0  0
  192.0130  175.5820  144.7430 O   0  0  0  0  0  0  0  0  0  0  0  0
  1 28  1  0  0  0  0
  1 16  1  0  0  0  0
  2 23  1  1  0  0  0
  3 11  1  0  0  0  0
  4  3  1  0  0  0  0
  4 20  1  0  0  0  0
  5 24  1  0  0  0  0
  6 18  1  0  0  0  0
  6  5  2  0  0  0  0
  7 19  1  0  0  0  0
  8 17  2  0  0  0  0
  9 15  1  0  0  0  0
 10  1  1  0  0  0  0
 12  8  1  1  0  0  0
 12  2  1  0  0  0  0
 13 11  1  6  0  0  0
 13 12  1  0  0  0  0
 14 26  2  0  0  0  0
 15 18  2  0  0  0  0
 17 10  1  0  0  0  0
 17  7  1  0  0  0  0
 19 16  1  0  0  0  0
 21 20  1  1  0  0  0
 21 13  1  0  0  0  0
 21 14  1  0  0  0  0
 22 27  2  0  0  0  0
 22 14  1  0  0  0  0
 23  7  2  0  0  0  0
 25  9  2  0  0  0  0
 25 27  1  0  0  0  0
 26  5  1  0  0  0  0
 26  2  1  0  0  0  0
 27  6  1  0  0  0  0
 29 31  1  0  0  0  0
 29 30  1  0  0  0  0
 30 28  1  6  0  0  0
 31 30  1  0  0  0  0
 32 29  2  0  0  0  0
M  END
>  <MODEL>
3

>  <REMARK>
 VINA RESULT:      -9.5      2.285      8.067
  Name = 
  2 active torsions:
  status: ('A' for Active; 'I' for Inactive)
    1  A    between atoms: N_2  and  C_24
    2  A    between atoms: C_10  and  C_24
                            x       y       z     vdW  Elec       q    Type
                         _______ _______ _______ _____ _____    ______ ____

>  <TORSDO>
F 2

$$$$
=
 OpenBabel10262421293D

 32 38  0  0  1  0  0  0  0  0999 V2000
  190.9800  175.6470  137.2820 N   0  0  0  0  0  0  0  0  0  0  0  0
  188.6820  177.5250  141.4530 C   0  0  2  0  0  3  0  0  0  0  0  0
  191.6810  176.0510  145.0760 C   0  0  0  0  0  2  0  0  0  0  0  0
  191.0520  177.0430  145.8460 O   0  0  0  0  0  0  0  0  0  0  0  0
  186.4210  178.1930  142.1090 C   0  0  0  0  0  0  0  0  0  0  0  0
  185.4980  178.4620  143.1350 C   0  0  0  0  0  0  0  0  0  0  0  0
  189.2140  176.9670  139.1350 C   0  0  0  0  0  0  0  0  0  0  0  0
  190.7890  176.3780  140.8630 N   0  0  0  0  0  0  0  0  0  0  0  0
  183.6670  179.0030  145.1940 C   0  0  0  0  0  3  0  0  0  0  0  0
  191.1560  175.3320  138.7060 C   0  0  0  0  0  2  0  0  0  0  0  0
  191.6760  176.4790  143.6080 C   0  0  0  0  0  2  0  0  0  0  0  0
  190.1400  177.3010  141.8020 C   0  0  2  0  0  3  0  0  0  0  0  0
  190.3250  176.8600  143.1810 N   0  0  2  0  0  0  0  0  0  0  0  0
  188.1160  177.6430  143.7990 C   0  0  0  0  0  0  0  0  0  0  0  0
  183.2780  179.1370  143.8580 C   0  0  0  0  0  3  0  0  0  0  0  0
  189.5580  175.8300  136.9450 C   0  0  0  0  0  2  0  0  0  0  0  0
  190.4330  176.2840  139.6160 C   0  0  0  0  0  0  0  0  0  0  0  0
  184.1890  178.8680  142.8330 C   0  0  0  0  0  3  0  0  0  0  0  0
  188.9220  177.0200  137.6730 C   0  0  0  0  0  2  0  0  0  0  0  0
  189.6710  176.9070  145.6160 C   0  0  0  0  0  2  0  0  0  0  0  0
  189.3370  177.1990  144.1700 C   0  0  1  0  0  3  0  0  0  0  0  0
  187.1690  177.9210  144.7960 C   0  0  0  0  0  3  0  0  0  0  0  0
  188.3810  177.5360  140.0040 C   0  0  0  0  0  3  0  0  0  0  0  0
  185.9920  178.3490  140.7920 O   0  0  0  0  0  1  0  0  0  0  0  0
  184.9680  178.5980  145.5050 C   0  0  0  0  0  3  0  0  0  0  0  0
  187.7580  177.7910  142.4220 C   0  0  0  0  0  0  0  0  0  0  0  0
  185.8820  178.3290  144.4820 C   0  0  0  0  0  0  0  0  0  0  0  0
  191.7590  176.8350  136.9390 C   0  0  0  0  0  2  0  0  0  0  0  0
  193.9030  176.5580  135.7430 C   0  0  0  0  0  0  0  0  0  0  0  0
  193.2400  176.5570  137.1180 C   0  0  2  0  0  3  0  0  0  0  0  0
  193.5850  175.2960  136.5420 C   0  0  0  0  0  2  0  0  0  0  0  0
  194.3360  177.1280  134.7550 O   0  0  0  0  0  0  0  0  0  0  0  0
  1 10  1  0  0  0  0
  2 23  1  6  0  0  0
  2 12  1  0  0  0  0
  2 26  1  0  0  0  0
  3  4  1  0  0  0  0
  5 26  2  0  0  0  0
  5  6  1  0  0  0  0
  6 27  1  0  0  0  0
  7 17  1  0  0  0  0
  7 23  2  0  0  0  0
  9 25  1  0  0  0  0
 10 17  1  0  0  0  0
 11  3  1  0  0  0  0
 12  8  1  6  0  0  0
 12 13  1  0  0  0  0
 13 11  1  1  0  0  0
 13 21  1  0  0  0  0
 14 21  1  0  0  0  0
 14 22  2  0  0  0  0
 15  9  2  0  0  0  0
 16  1  1  0  0  0  0
 16 19  1  0  0  0  0
 17  8  2  0  0  0  0
 18  6  2  0  0  0  0
 18 15  1  0  0  0  0
 19  7  1  0  0  0  0
 20  4  1  0  0  0  0
 21 20  1  6  0  0  0
 24  5  1  0  0  0  0
 26 14  1  0  0  0  0
 27 22  1  0  0  0  0
 27 25  2  0  0  0  0
 28  1  1  0  0  0  0
 29 31  1  0  0  0  0
 29 30  1  0  0  0  0
 30 28  1  6  0  0  0
 31 30  1  0  0  0  0
 32 29  2  0  0  0  0
M  END
>  <MODEL>
4

>  <REMARK>
 VINA RESULT:      -9.2      3.806      8.389
  Name = 
  2 active torsions:
  status: ('A' for Active; 'I' for Inactive)
    1  A    between atoms: N_2  and  C_24
    2  A    between atoms: C_10  and  C_24
                            x       y       z     vdW  Elec       q    Type
                         _______ _______ _______ _____ _____    ______ ____

>  <TORSDO>
F 2

$$$$
=
 OpenBabel10262421293D

 32 38  0  0  1  0  0  0  0  0999 V2000
  187.6690  178.4290  137.3270 N   0  0  0  0  0  0  0  0  0  0  0  0
  188.0700  177.4300  142.3320 C   0  0  2  0  0  3  0  0  0  0  0  0
  183.9930  179.5070  144.1620 C   0  0  0  0  0  2  0  0  0  0  0  0
  184.2190  178.6940  145.2850 O   0  0  0  0  0  0  0  0  0  0  0  0
  189.8610  176.9460  143.9270 C   0  0  0  0  0  0  0  0  0  0  0  0
  190.3000  176.8970  145.2610 C   0  0  0  0  0  0  0  0  0  0  0  0
  188.5050  177.5240  139.9300 C   0  0  0  0  0  0  0  0  0  0  0  0
  186.4210  178.4000  140.7680 N   0  0  0  0  0  0  0  0  0  0  0  0
  191.1610  176.7970  147.9320 C   0  0  0  0  0  3  0  0  0  0  0  0
  186.9750  179.0070  138.4860 C   0  0  0  0  0  2  0  0  0  0  0  0
  184.5390  178.8070  142.9190 C   0  0  0  0  0  2  0  0  0  0  0  0
  186.6050  177.6870  142.0370 C   0  0  2  0  0  3  0  0  0  0  0  0
  185.9270  178.3790  143.1290 N   0  0  2  0  0  0  0  0  0  0  0  0
  187.6790  177.7730  144.6910 C   0  0  0  0  0  0  0  0  0  0  0  0
  192.0280  176.4190  146.9030 C   0  0  0  0  0  3  0  0  0  0  0  0
  189.0970  178.2140  137.6100 C   0  0  0  0  0  2  0  0  0  0  0  0
  187.2360  178.2610  139.7640 C   0  0  0  0  0  0  0  0  0  0  0  0
  191.5990  176.4680  145.5730 C   0  0  0  0  0  3  0  0  0  0  0  0
  189.3360  177.1990  138.7340 C   0  0  0  0  0  2  0  0  0  0  0  0
  185.5870  178.8110  145.5900 C   0  0  0  0  0  2  0  0  0  0  0  0
  186.4360  178.2550  144.4680 C   0  0  1  0  0  3  0  0  0  0  0  0
  188.1510  177.7110  146.0110 C   0  0  0  0  0  3  0  0  0  0  0  0
  188.9060  177.1490  141.1430 C   0  0  0  0  0  3  0  0  0  0  0  0
  190.7560  176.5510  142.9340 O   0  0  0  0  0  1  0  0  0  0  0  0
  189.8660  177.2270  147.6320 C   0  0  0  0  0  3  0  0  0  0  0  0
  188.5320  177.3730  143.6150 C   0  0  0  0  0  0  0  0  0  0  0  0
  189.4340  177.2770  146.3030 C   0  0  0  0  0  0  0  0  0  0  0  0
  187.0180  177.1820  136.9320 C   0  0  0  0  0  2  0  0  0  0  0  0
  184.8060  176.0820  136.9040 C   0  0  0  0  0  0  0  0  0  0  0  0
  185.5330  177.4120  136.7220 C   0  0  2  0  0  3  0  0  0  0  0  0
  185.0820  176.7300  135.5500 C   0  0  0  0  0  2  0  0  0  0  0  0
  184.3620  175.1820  137.5990 O   0  0  0  0  0  0  0  0  0  0  0  0
  1 16  1  0  0  0  0
  1 10  1  0  0  0  0
  2 23  1  1  0  0  0
  2 26  1  0  0  0  0
  3  4  1  0  0  0  0
  4 20  1  0  0  0  0
  5  6  1  0  0  0  0
  6 18  2  0  0  0  0
  6 27  1  0  0  0  0
  7 23  2  0  0  0  0
 10 17  1  0  0  0  0
 11  3  1  0  0  0  0
 12  8  1  6  0  0  0
 12  2  1  0  0  0  0
 12 13  1  0  0  0  0
 13 11  1  1  0  0  0
 13 21  1  0  0  0  0
 14 22  2  0  0  0  0
 15  9  2  0  0  0  0
 16 19  1  0  0  0  0
 17  7  1  0  0  0  0
 17  8  2  0  0  0  0
 18 15  1  0  0  0  0
 19  7  1  0  0  0  0
 21 14  1  0  0  0  0
 21 20  1  6  0  0  0
 22 27  1  0  0  0  0
 24  5  1  0  0  0  0
 25  9  1  0  0  0  0
 26  5  2  0  0  0  0
 26 14  1  0  0  0  0
 27 25  2  0  0  0  0
 28  1  1  0  0  0  0
 29 32  2  0  0  0  0
 30 29  1  0  0  0  0
 30 28  1  6  0  0  0
 31 30  1  0  0  0  0
 31 29  1  0  0  0  0
M  END
>  <MODEL>
5

>  <REMARK>
 VINA RESULT:      -9.2      3.177      5.754
  Name = 
  2 active torsions:
  status: ('A' for Active; 'I' for Inactive)
    1  A    between atoms: N_2  and  C_24
    2  A    between atoms: C_10  and  C_24
                            x       y       z     vdW  Elec       q    Type
                         _______ _______ _______ _____ _____    ______ ____

>  <TORSDO>
F 2

$$$$
=
 OpenBabel10262421293D

 32 38  0  0  1  0  0  0  0  0999 V2000
  181.0620  179.0010  137.9330 N   0  0  0  0  0  0  0  0  0  0  0  0
  184.9000  178.8310  141.3160 C   0  0  2  0  0  3  0  0  0  0  0  0
  188.7200  177.4530  138.5230 C   0  0  0  0  0  2  0  0  0  0  0  0
  189.5170  177.9420  139.5720 O   0  0  0  0  0  0  0  0  0  0  0  0
  185.1510  178.5400  143.7330 C   0  0  0  0  0  0  0  0  0  0  0  0
  185.9730  178.2090  144.8230 C   0  0  0  0  0  0  0  0  0  0  0  0
  182.7000  179.1300  140.2980 C   0  0  0  0  0  0  0  0  0  0  0  0
  184.5780  178.6220  138.8750 N   0  0  0  0  0  0  0  0  0  0  0  0
  187.6300  177.5540  146.9930 C   0  0  0  0  0  3  0  0  0  0  0  0
  182.3910  178.3810  137.8550 C   0  0  0  0  0  2  0  0  0  0  0  0
  187.4120  178.2420  138.4790 C   0  0  0  0  0  2  0  0  0  0  0  0
  185.5160  178.9960  139.9400 C   0  0  2  0  0  3  0  0  0  0  0  0
  186.7780  178.2760  139.8020 N   0  0  2  0  0  0  0  0  0  0  0  0
  187.0290  178.1160  142.2080 C   0  0  0  0  0  0  0  0  0  0  0  0
  186.2990  177.9180  147.2140 C   0  0  0  0  0  3  0  0  0  0  0  0
  180.4570  178.8080  139.2610 C   0  0  0  0  0  2  0  0  0  0  0  0
  183.2920  178.7660  138.9950 C   0  0  0  0  0  0  0  0  0  0  0  0
  185.4740  178.2450  146.1340 C   0  0  0  0  0  3  0  0  0  0  0  0
  181.2530  179.4860  140.3830 C   0  0  0  0  0  2  0  0  0  0  0  0
  188.9570  177.4430  140.7610 C   0  0  0  0  0  2  0  0  0  0  0  0
  187.5660  177.9990  140.9730 C   0  0  1  0  0  3  0  0  0  0  0  0
  187.8210  177.7940  143.3200 C   0  0  0  0  0  3  0  0  0  0  0  0
  183.4560  179.1430  141.3940 C   0  0  0  0  0  3  0  0  0  0  0  0
  183.8330  178.9060  144.0000 O   0  0  0  0  0  1  0  0  0  0  0  0
  188.1360  177.5150  145.6920 C   0  0  0  0  0  3  0  0  0  0  0  0
  185.6680  178.5140  142.3990 C   0  0  0  0  0  0  0  0  0  0  0  0
  187.3140  177.8420  144.6090 C   0  0  0  0  0  0  0  0  0  0  0  0
  181.1590  180.4210  137.6010 C   0  0  0  0  0  2  0  0  0  0  0  0
  180.5430  181.8570  135.6870 C   0  0  0  0  0  0  0  0  0  0  0  0
  180.0220  180.8200  136.6790 C   0  0  2  0  0  3  0  0  0  0  0  0
  179.6640  182.1880  136.8900 C   0  0  0  0  0  2  0  0  0  0  0  0
  181.1860  182.1780  134.7000 O   0  0  0  0  0  0  0  0  0  0  0  0
  1 16  1  0  0  0  0
  2 23  1  1  0  0  0
  2 26  1  0  0  0  0
  3  4  1  0  0  0  0
  4 20  1  0  0  0  0
  5 24  1  0  0  0  0
  5  6  1  0  0  0  0
  6 18  1  0  0  0  0
  7 19  1  0  0  0  0
  7 23  2  0  0  0  0
  8 17  2  0  0  0  0
  9 15  1  0  0  0  0
 10  1  1  0  0  0  0
 10 17  1  0  0  0  0
 11  3  1  0  0  0  0
 12  8  1  6  0  0  0
 12  2  1  0  0  0  0
 13 11  1  6  0  0  0
 13 12  1  0  0  0  0
 13 21  1  0  0  0  0
 14 26  1  0  0  0  0
 14 22  2  0  0  0  0
 16 19  1  0  0  0  0
 17  7  1  0  0  0  0
 18 15  2  0  0  0  0
 21 20  1  6  0  0  0
 21 14  1  0  0  0  0
 22 27  1  0  0  0  0
 25  9  2  0  0  0  0
 26  5  2  0  0  0  0
 27  6  2  0  0  0  0
 27 25  1  0  0  0  0
 28  1  1  0  0  0  0
 29 30  1  0  0  0  0
 29 31  1  0  0  0  0
 30 31  1  0  0  0  0
 30 28  1  1  0  0  0
 32 29  2  0  0  0  0
M  END
>  <MODEL>
6

>  <REMARK>
 VINA RESULT:      -8.9      1.929      2.544
  Name = 
  2 active torsions:
  status: ('A' for Active; 'I' for Inactive)
    1  A    between atoms: N_2  and  C_24
    2  A    between atoms: C_10  and  C_24
                            x       y       z     vdW  Elec       q    Type
                         _______ _______ _______ _____ _____    ______ ____

>  <TORSDO>
F 2

$$$$
=
 OpenBabel10262421293D

 32 38  0  0  1  0  0  0  0  0999 V2000
  182.1690  179.3580  143.7490 N   0  0  0  0  0  0  0  0  0  0  0  0
  186.9880  177.7000  143.2650 C   0  0  2  0  0  3  0  0  0  0  0  0
  188.6370  177.8490  147.9070 C   0  0  0  0  0  2  0  0  0  0  0  0
  189.6480  176.9850  147.4550 O   0  0  0  0  0  0  0  0  0  0  0  0
  188.6850  177.6050  141.5040 C   0  0  0  0  0  0  0  0  0  0  0  0
  190.0380  177.4800  141.1460 C   0  0  0  0  0  0  0  0  0  0  0  0
  184.6890  178.3620  142.7730 C   0  0  0  0  0  0  0  0  0  0  0  0
  185.4090  178.2850  145.0720 N   0  0  0  0  0  0  0  0  0  0  0  0
  192.7450  177.2210  140.4450 C   0  0  0  0  0  3  0  0  0  0  0  0
  183.3160  179.4400  144.6650 C   0  0  0  0  0  2  0  0  0  0  0  0
  187.3730  177.6180  147.0790 C   0  0  0  0  0  2  0  0  0  0  0  0
  186.5730  177.4710  144.7050 C   0  0  2  0  0  3  0  0  0  0  0  0
  187.6720  177.6770  145.6440 N   0  0  2  0  0  0  0  0  0  0  0  0
  189.3140  177.4620  143.8730 C   0  0  0  0  0  0  0  0  0  0  0  0
  191.7740  177.3600  139.4490 C   0  0  0  0  0  3  0  0  0  0  0  0
  182.5750  179.6140  142.3570 C   0  0  0  0  0  2  0  0  0  0  0  0
  184.4920  178.6210  144.2140 C   0  0  0  0  0  0  0  0  0  0  0  0
  190.4260  177.4880  139.7980 C   0  0  0  0  0  3  0  0  0  0  0  0
  183.5580  178.5660  141.8210 C   0  0  0  0  0  2  0  0  0  0  0  0
  190.1170  177.5210  146.2430 C   0  0  0  0  0  2  0  0  0  0  0  0
  189.0270  177.5060  145.1930 C   0  0  1  0  0  3  0  0  0  0  0  0
  190.6550  177.3380  143.4790 C   0  0  0  0  0  3  0  0  0  0  0  0
  185.8720  177.9450  142.3250 C   0  0  0  0  0  3  0  0  0  0  0  0
  187.7500  177.7320  140.4780 O   0  0  0  0  0  1  0  0  0  0  0  0
  192.3680  177.2130  141.7910 C   0  0  0  0  0  3  0  0  0  0  0  0
  188.2920  177.5840  142.8790 C   0  0  0  0  0  0  0  0  0  0  0  0
  191.0210  177.3400  142.1430 C   0  0  0  0  0  0  0  0  0  0  0  0
  181.5270  178.0510  143.8780 C   0  0  0  0  0  2  0  0  0  0  0  0
  179.3470  178.2610  142.7350 C   0  0  0  0  0  0  0  0  0  0  0  0
  180.0350  178.2230  144.0980 C   0  0  2  0  0  3  0  0  0  0  0  0
  179.6000  179.4910  143.6040 C   0  0  0  0  0  2  0  0  0  0  0  0
  178.9310  177.7230  141.7220 O   0  0  0  0  0  0  0  0  0  0  0  0
  1 28  1  0  0  0  0
  1 10  1  0  0  0  0
  2 23  1  6  0  0  0
  2 12  1  0  0  0  0
  4  3  1  0  0  0  0
  5 26  1  0  0  0  0
  6  5  2  0  0  0  0
  6 27  1  0  0  0  0
  7 17  1  0  0  0  0
  9 25  2  0  0  0  0
 11  3  1  0  0  0  0
 12  8  1  1  0  0  0
 12 13  1  0  0  0  0
 13 11  1  1  0  0  0
 14 21  1  0  0  0  0
 15 18  2  0  0  0  0
 15  9  1  0  0  0  0
 16  1  1  0  0  0  0
 17 10  1  0  0  0  0
 17  8  2  0  0  0  0
 18  6  1  0  0  0  0
 19 16  1  0  0  0  0
 19  7  1  0  0  0  0
 20  4  1  0  0  0  0
 21 13  1  0  0  0  0
 21 20  1  6  0  0  0
 22 14  1  0  0  0  0
 23  7  2  0  0  0  0
 24  5  1  0  0  0  0
 25 27  1  0  0  0  0
 26  2  1  0  0  0  0
 26 14  2  0  0  0  0
 27 22  2  0  0  0  0
 29 31  1  0  0  0  0
 29 30  1  0  0  0  0
 30 28  1  6  0  0  0
 31 30  1  0  0  0  0
 32 29  2  0  0  0  0
M  END
>  <MODEL>
7

>  <REMARK>
 VINA RESULT:      -8.6      2.442      5.173
  Name = 
  2 active torsions:
  status: ('A' for Active; 'I' for Inactive)
    1  A    between atoms: N_2  and  C_24
    2  A    between atoms: C_10  and  C_24
                            x       y       z     vdW  Elec       q    Type
                         _______ _______ _______ _____ _____    ______ ____

>  <TORSDO>
F 2

$$$$
=
 OpenBabel10262421293D

 32 38  0  0  1  0  0  0  0  0999 V2000
  191.4180  177.8910  145.8430 N   0  0  0  0  0  0  0  0  0  0  0  0
  187.0840  177.8400  143.1200 C   0  0  2  0  0  3  0  0  0  0  0  0
  188.7180  178.4230  138.5070 C   0  0  0  0  0  2  0  0  0  0  0  0
  187.4630  177.9270  138.1200 O   0  0  0  0  0  0  0  0  0  0  0  0
  184.7140  178.3120  143.5080 C   0  0  0  0  0  0  0  0  0  0  0  0
  183.4510  178.6240  142.9800 C   0  0  0  0  0  0  0  0  0  0  0  0
  188.6780  177.7540  144.9690 C   0  0  0  0  0  0  0  0  0  0  0  0
  189.5210  177.8690  142.7130 N   0  0  0  0  0  0  0  0  0  0  0  0
  180.9280  179.2410  141.9110 C   0  0  0  0  0  3  0  0  0  0  0  0
  191.1390  178.3140  144.4640 C   0  0  0  0  0  2  0  0  0  0  0  0
  189.1010  177.8200  139.8580 C   0  0  0  0  0  2  0  0  0  0  0  0
  188.2140  177.4680  142.1800 C   0  0  2  0  0  3  0  0  0  0  0  0
  188.0170  177.9930  140.8320 N   0  0  2  0  0  0  0  0  0  0  0  0
  185.6510  178.3350  141.2380 C   0  0  0  0  0  0  0  0  0  0  0  0
  181.0840  179.0840  143.2910 C   0  0  0  0  0  3  0  0  0  0  0  0
  190.3320  178.2840  146.7560 C   0  0  0  0  0  2  0  0  0  0  0  0
  189.7710  177.9140  143.9890 C   0  0  0  0  0  0  0  0  0  0  0  0
  182.3390  178.7770  143.8240 C   0  0  0  0  0  3  0  0  0  0  0  0
  188.9970  177.6080  146.4190 C   0  0  0  0  0  2  0  0  0  0  0  0
  186.5110  178.6030  138.9030 C   0  0  0  0  0  2  0  0  0  0  0  0
  186.6830  178.2650  140.3680 C   0  0  1  0  0  3  0  0  0  0  0  0
  184.3740  178.6450  140.7470 C   0  0  0  0  0  3  0  0  0  0  0  0
  187.4110  177.7370  144.5590 C   0  0  0  0  0  3  0  0  0  0  0  0
  184.8220  178.1550  144.8890 O   0  0  0  0  0  1  0  0  0  0  0  0
  182.0290  179.0920  141.0630 C   0  0  0  0  0  3  0  0  0  0  0  0
  185.8420  178.1460  142.6440 C   0  0  0  0  0  0  0  0  0  0  0  0
  183.2850  178.7840  141.5920 C   0  0  0  0  0  0  0  0  0  0  0  0
  191.6400  176.4470  145.8820 C   0  0  0  0  0  2  0  0  0  0  0  0
  192.5270  176.0580  148.1540 C   0  0  0  0  0  0  0  0  0  0  0  0
  191.3010  175.9030  147.2570 C   0  0  2  0  0  3  0  0  0  0  0  0
  192.0760  174.7350  147.5380 C   0  0  0  0  0  2  0  0  0  0  0  0
  193.2920  176.7270  148.8300 O   0  0  0  0  0  0  0  0  0  0  0  0
  1 28  1  0  0  0  0
  1 16  1  0  0  0  0
  2 23  1  1  0  0  0
  3 11  1  0  0  0  0
  4  3  1  0  0  0  0
  4 20  1  0  0  0  0
  5 24  1  0  0  0  0
  6  5  1  0  0  0  0
  6 18  1  0  0  0  0
  7 19  1  0  0  0  0
  8 17  2  0  0  0  0
  9 15  1  0  0  0  0
 10  1  1  0  0  0  0
 12  8  1  1  0  0  0
 12  2  1  0  0  0  0
 13 11  1  6  0  0  0
 13 12  1  0  0  0  0
 14 26  1  0  0  0  0
 15 18  2  0  0  0  0
 17 10  1  0  0  0  0
 17  7  1  0  0  0  0
 19 16  1  0  0  0  0
 21 20  1  1  0  0  0
 21 13  1  0  0  0  0
 21 14  1  0  0  0  0
 22 14  2  0  0  0  0
 22 27  1  0  0  0  0
 23  7  2  0  0  0  0
 25 27  1  0  0  0  0
 25  9  2  0  0  0  0
 26  2  1  0  0  0  0
 26  5  2  0  0  0  0
 27  6  2  0  0  0  0
 29 32  2  0  0  0  0
 30 28  1  6  0  0  0
 30 31  1  0  0  0  0
 30 29  1  0  0  0  0
 31 29  1  0  0  0  0
M  END
>  <MODEL>
8

>  <REMARK>
 VINA RESULT:      -8.6      2.632      8.408
  Name = 
  2 active torsions:
  status: ('A' for Active; 'I' for Inactive)
    1  A    between atoms: N_2  and  C_24
    2  A    between atoms: C_10  and  C_24
                            x       y       z     vdW  Elec       q    Type
                         _______ _______ _______ _____ _____    ______ ____

>  <TORSDO>
F 2

$$$$
=
 OpenBabel10262421293D

 32 38  0  0  1  0  0  0  0  0999 V2000
  191.1880  176.5870  140.3810 N   0  0  0  0  0  0  0  0  0  0  0  0
  186.9320  178.2390  142.6960 C   0  0  2  0  0  3  0  0  0  0  0  0
  187.9500  177.4890  147.4590 C   0  0  0  0  0  2  0  0  0  0  0  0
  186.9040  178.3920  147.7080 O   0  0  0  0  0  0  0  0  0  0  0  0
  184.5730  178.5360  142.1160 C   0  0  0  0  0  0  0  0  0  0  0  0
  183.2420  178.6900  142.5410 C   0  0  0  0  0  0  0  0  0  0  0  0
  188.5920  177.6690  140.9970 C   0  0  0  0  0  0  0  0  0  0  0  0
  189.1870  177.4490  143.3220 N   0  0  0  0  0  0  0  0  0  0  0  0
  180.5890  179.0040  143.4030 C   0  0  0  0  0  3  0  0  0  0  0  0
  190.6880  176.3780  141.7470 C   0  0  0  0  0  2  0  0  0  0  0  0
  188.6050  177.8360  146.1230 C   0  0  0  0  0  2  0  0  0  0  0  0
  188.0510  178.2890  143.7170 C   0  0  2  0  0  3  0  0  0  0  0  0
  187.5970  177.9560  145.0630 N   0  0  2  0  0  0  0  0  0  0  0  0
  185.2860  178.3720  144.4600 C   0  0  0  0  0  0  0  0  0  0  0  0
  180.8850  179.0030  142.0380 C   0  0  0  0  0  3  0  0  0  0  0  0
  190.1010  176.5040  139.3930 C   0  0  0  0  0  2  0  0  0  0  0  0
  189.4980  177.2340  142.0780 C   0  0  0  0  0  0  0  0  0  0  0  0
  182.2060  178.8470  141.6080 C   0  0  0  0  0  3  0  0  0  0  0  0
  189.0430  177.5990  139.5760 C   0  0  0  0  0  2  0  0  0  0  0  0
  185.8410  178.0080  146.8730 C   0  0  0  0  0  2  0  0  0  0  0  0
  186.2180  178.1660  145.4170 C   0  0  1  0  0  3  0  0  0  0  0  0
  183.9470  178.5300  144.8470 C   0  0  0  0  0  3  0  0  0  0  0  0
  187.3750  178.1270  141.2890 C   0  0  0  0  0  3  0  0  0  0  0  0
  184.8240  178.5500  140.7450 O   0  0  0  0  0  1  0  0  0  0  0  0
  181.6140  178.8480  144.3400 C   0  0  0  0  0  3  0  0  0  0  0  0
  185.6280  178.3880  143.0710 C   0  0  0  0  0  0  0  0  0  0  0  0
  182.9360  178.6920  143.9140 C   0  0  0  0  0  0  0  0  0  0  0  0
  191.8760  177.8740  140.2990 C   0  0  0  0  0  2  0  0  0  0  0  0
  193.1810  176.7530  138.5260 C   0  0  0  0  0  0  0  0  0  0  0  0
  193.2710  177.6850  139.7320 C   0  0  2  0  0  3  0  0  0  0  0  0
  193.6990  176.3320  139.8990 C   0  0  0  0  0  2  0  0  0  0  0  0
  192.8960  176.5190  137.3630 O   0  0  0  0  0  0  0  0  0  0  0  0
  1 10  1  0  0  0  0
  2 23  1  6  0  0  0
  2 26  1  0  0  0  0
  2 12  1  0  0  0  0
  3  4  1  0  0  0  0
  5  6  2  0  0  0  0
  5 26  1  0  0  0  0
  6 27  1  0  0  0  0
  7 23  2  0  0  0  0
  7 17  1  0  0  0  0
  9 25  2  0  0  0  0
 10 17  1  0  0  0  0
 11  3  1  0  0  0  0
 12  8  1  6  0  0  0
 12 13  1  0  0  0  0
 13 21  1  0  0  0  0
 13 11  1  1  0  0  0
 14 22  1  0  0  0  0
 14 21  1  0  0  0  0
 15  9  1  0  0  0  0
 16 19  1  0  0  0  0
 16  1  1  0  0  0  0
 17  8  2  0  0  0  0
 18 15  2  0  0  0  0
 18  6  1  0  0  0  0
 19  7  1  0  0  0  0
 20  4  1  0  0  0  0
 21 20  1  6  0  0  0
 24  5  1  0  0  0  0
 26 14  2  0  0  0  0
 27 25  1  0  0  0  0
 27 22  2  0  0  0  0
 28  1  1  0  0  0  0
 29 30  1  0  0  0  0
 29 31  1  0  0  0  0
 30 31  1  0  0  0  0
 30 28  1  1  0  0  0
 32 29  2  0  0  0  0
M  END
>  <MODEL>
9

>  <REMARK>
 VINA RESULT:      -8.2      2.736      8.331
  Name = 
  2 active torsions:
  status: ('A' for Active; 'I' for Inactive)
    1  A    between atoms: N_2  and  C_24
    2  A    between atoms: C_10  and  C_24
                            x       y       z     vdW  Elec       q    Type
                         _______ _______ _______ _____ _____    ______ ____

>  <TORSDO>
F 2

$$$$
