=
 OpenBabel10262419223D

 31 36  0  0  1  0  0  0  0  0999 V2000
  179.4020  182.4810  138.3880 S   0  0  0  0  0  0  0  0  0  0  0  0
  182.2340  179.4820  140.6700 C   0  0  2  0  0  3  0  0  0  0  0  0
  183.0670  178.6000  141.5880 C   0  0  2  0  0  3  0  0  0  0  0  0
  183.7330  178.2630  144.0440 C   0  0  0  0  0  2  0  0  0  0  0  0
  180.7250  179.3580  140.7780 C   0  0  0  0  0  2  0  0  0  0  0  0
  179.9400  180.7970  138.8050 C   0  0  1  0  0  0  0  0  0  0  0  0
  182.9740  179.1210  143.0280 C   0  0  0  0  0  2  0  0  0  0  0  0
  180.9500  182.2590  137.4530 C   0  0  0  0  0  2  0  0  0  0  0  0
  185.1560  179.3150  138.7790 O   0  0  0  0  0  0  0  0  0  0  0  0
  185.1430  177.8570  143.6070 C   0  0  0  0  0  2  0  0  0  0  0  0
  182.5680  180.7180  138.5750 C   0  0  0  0  0  2  0  0  0  0  0  0
  182.8050  179.3690  139.2650 C   0  0  1  0  0  0  0  0  0  0  0  0
  181.1870  180.8370  137.9090 C   0  0  1  0  0  3  0  0  0  0  0  0
  185.9760  179.0140  143.0400 C   0  0  0  0  0  2  0  0  0  0  0  0
  180.1180  180.6820  140.3260 C   0  0  0  0  0  2  0  0  0  0  0  0
  178.9310  179.7880  138.2830 C   0  0  0  0  0  1  0  0  0  0  0  0
  184.2550  179.1570  139.5880 C   0  0  0  0  0  0  0  0  0  0  0  0
  184.4900  178.6650  140.9790 C   0  0  1  0  0  3  0  0  0  0  0  0
  185.4290  179.6150  141.7350 C   0  0  0  0  0  2  0  0  0  0  0  0
  182.9370  176.8820  138.5170 C   0  0  2  0  0  3  0  0  0  0  0  0
  182.1510  178.1880  138.4740 C   0  0  2  0  0  3  0  0  0  0  0  0
  182.9530  177.7500  137.2650 C   0  0  0  0  0  2  0  0  0  0  0  0
  182.0210  175.7580  138.3380 N   0  0  0  0  0  0  0  0  0  0  0  0
  181.8620  173.5410  137.1280 C   0  0  1  0  0  3  0  0  0  0  0  0
  182.4430  174.5750  136.1640 C   0  0  0  0  0  2  0  0  0  0  0  0
  182.7900  171.9830  136.9680 S   0  0  0  0  0  1  0  0  0  0  0  0
  182.7280  174.6800  137.6420 C   0  0  1  0  0  0  0  0  0  0  0  0
  184.0480  174.4000  138.0200 O   0  0  0  0  0  1  0  0  0  0  0  0
  181.6690  175.2650  139.6670 C   0  0  0  0  0  2  0  0  0  0  0  0
  179.7250  174.3860  140.7350 O   0  0  0  0  0  1  0  0  0  0  0  0
  180.1760  175.4070  139.8990 C   0  0  0  0  0  2  0  0  0  0  0  0
  1  6  1  0  0  0  0
  2  5  1  6  0  0  0
  2  3  1  0  0  0  0
  3  7  1  1  0  0  0
  6 16  1  6  0  0  0
  6 15  1  0  0  0  0
  7  4  1  0  0  0  0
  8  1  1  0  0  0  0
  9 17  2  0  0  0  0
 10  4  1  0  0  0  0
 12 11  1  6  0  0  0
 12 17  1  0  0  0  0
 12  2  1  0  0  0  0
 13  8  1  1  0  0  0
 13 11  1  0  0  0  0
 13  6  1  0  0  0  0
 14 10  1  0  0  0  0
 15  5  1  0  0  0  0
 17 18  1  0  0  0  0
 18  3  1  0  0  0  0
 18 19  1  1  0  0  0
 19 14  1  0  0  0  0
 20 23  1  6  0  0  0
 21 22  1  6  0  0  0
 21 20  1  0  0  0  0
 21 12  1  0  0  0  0
 22 20  1  0  0  0  0
 23 29  1  0  0  0  0
 24 26  1  6  0  0  0
 24 27  1  0  0  0  0
 25 24  1  0  0  0  0
 25 27  1  0  0  0  0
 27 28  1  1  0  0  0
 27 23  1  0  0  0  0
 29 31  1  0  0  0  0
 31 30  1  0  0  0  0
M  END
>  <MODEL>
1

>  <REMARK>
 VINA RESULT:      -5.1      0.000      0.000
  Name = 
  5 active torsions:
  status: ('A' for Active; 'I' for Inactive)
    1  A    between atoms: C_3  and  C_7
    2  A    between atoms: C_3  and  N_22
    3  A    between atoms: C_9  and  N_22
    4  A    between atoms: C_15  and  C_21
    5  A    between atoms: C_19  and  N_22
                            x       y       z     vdW  Elec       q    Type
                         _______ _______ _______ _____ _____    ______ ____

>  <TORSDO>
F 5

$$$$
=
 OpenBabel10262419223D

 31 36  0  0  1  0  0  0  0  0999 V2000
  193.5640  174.3590  134.9930 S   0  0  0  0  0  0  0  0  0  0  0  0
  189.2650  175.2470  136.7090 C   0  0  2  0  0  3  0  0  0  0  0  0
  187.8060  175.3890  137.1170 C   0  0  2  0  0  3  0  0  0  0  0  0
  185.4220  174.7180  136.4430 C   0  0  0  0  0  2  0  0  0  0  0  0
  189.8970  173.8760  136.8710 C   0  0  0  0  0  2  0  0  0  0  0  0
  192.3590  174.3710  136.3520 C   0  0  1  0  0  0  0  0  0  0  0  0
  186.9110  174.6850  136.0900 C   0  0  0  0  0  2  0  0  0  0  0  0
  193.4370  176.1130  135.4650 C   0  0  0  0  0  2  0  0  0  0  0  0
  189.2140  178.6590  137.4150 O   0  0  0  0  0  0  0  0  0  0  0  0
  184.9070  176.0860  136.9010 C   0  0  0  0  0  2  0  0  0  0  0  0
  191.1850  176.7350  136.3560 C   0  0  0  0  0  2  0  0  0  0  0  0
  190.0390  176.4050  137.3190 C   0  0  1  0  0  0  0  0  0  0  0  0
  192.4470  175.8880  136.5850 C   0  0  1  0  0  3  0  0  0  0  0  0
  185.3490  177.2490  136.0040 C   0  0  0  0  0  2  0  0  0  0  0  0
  191.0340  173.7680  135.8620 C   0  0  0  0  0  2  0  0  0  0  0  0
  192.9140  173.6080  137.5420 C   0  0  0  0  0  1  0  0  0  0  0  0
  188.9770  177.4650  137.3030 C   0  0  0  0  0  0  0  0  0  0  0  0
  187.5900  176.9190  137.2070 C   0  0  1  0  0  3  0  0  0  0  0  0
  186.8650  177.5010  135.9850 C   0  0  0  0  0  2  0  0  0  0  0  0
  190.3400  177.1400  139.7950 C   0  0  2  0  0  3  0  0  0  0  0  0
  190.5630  176.0520  138.7500 C   0  0  2  0  0  3  0  0  0  0  0  0
  191.7250  176.9160  139.2000 C   0  0  0  0  0  2  0  0  0  0  0  0
  190.2570  176.5310  141.1200 N   0  0  0  0  0  0  0  0  0  0  0  0
  190.6370  177.6410  143.3630 C   0  0  1  0  0  3  0  0  0  0  0  0
  191.5820  176.4440  143.2510 C   0  0  0  0  0  2  0  0  0  0  0  0
  191.5400  179.0550  144.0710 S   0  0  0  0  0  1  0  0  0  0  0  0
  191.1950  177.2160  142.0130 C   0  0  1  0  0  0  0  0  0  0  0  0
  192.2180  177.9830  141.4400 O   0  0  0  0  0  1  0  0  0  0  0  0
  188.9100  176.7740  141.6290 C   0  0  0  0  0  2  0  0  0  0  0  0
  187.3350  178.5650  141.6940 O   0  0  0  0  0  1  0  0  0  0  0  0
  188.2650  177.9250  140.8760 C   0  0  0  0  0  2  0  0  0  0  0  0
  1  8  1  0  0  0  0
  1  6  1  0  0  0  0
  2  5  1  1  0  0  0
  2  3  1  0  0  0  0
  2 12  1  0  0  0  0
  3  7  1  6  0  0  0
  3 18  1  0  0  0  0
  4 10  1  0  0  0  0
  6 13  1  0  0  0  0
  6 16  1  1  0  0  0
  7  4  1  0  0  0  0
 11 13  1  0  0  0  0
 12 11  1  6  0  0  0
 12 21  1  0  0  0  0
 13  8  1  6  0  0  0
 14 10  1  0  0  0  0
 15  6  1  0  0  0  0
 15  5  1  0  0  0  0
 17 12  1  0  0  0  0
 17  9  2  0  0  0  0
 18 19  1  6  0  0  0
 18 17  1  0  0  0  0
 19 14  1  0  0  0  0
 20 23  1  1  0  0  0
 21 22  1  6  0  0  0
 21 20  1  0  0  0  0
 22 20  1  0  0  0  0
 23 29  1  0  0  0  0
 23 27  1  0  0  0  0
 24 26  1  1  0  0  0
 25 24  1  0  0  0  0
 27 28  1  6  0  0  0
 27 25  1  0  0  0  0
 27 24  1  0  0  0  0
 31 29  1  0  0  0  0
 31 30  1  0  0  0  0
M  END
>  <MODEL>
2

>  <REMARK>
 VINA RESULT:      -4.9      7.046     10.132
  Name = 
  5 active torsions:
  status: ('A' for Active; 'I' for Inactive)
    1  A    between atoms: C_3  and  C_7
    2  A    between atoms: C_3  and  N_22
    3  A    between atoms: C_9  and  N_22
    4  A    between atoms: C_15  and  C_21
    5  A    between atoms: C_19  and  N_22
                            x       y       z     vdW  Elec       q    Type
                         _______ _______ _______ _____ _____    ______ ____

>  <TORSDO>
F 5

$$$$
=
 OpenBabel10262419223D

 31 36  0  0  1  0  0  0  0  0999 V2000
  193.8030  174.6320  135.4140 S   0  0  0  0  0  0  0  0  0  0  0  0
  189.2440  174.7750  136.6040 C   0  0  2  0  0  3  0  0  0  0  0  0
  187.7820  174.6050  136.9890 C   0  0  2  0  0  3  0  0  0  0  0  0
  185.9290  172.8470  137.2460 C   0  0  0  0  0  2  0  0  0  0  0  0
  190.2790  174.2220  137.5660 C   0  0  0  0  0  2  0  0  0  0  0  0
  192.4620  175.1010  136.5470 C   0  0  1  0  0  0  0  0  0  0  0  0
  187.3730  173.1360  136.8250 C   0  0  0  0  0  2  0  0  0  0  0  0
  192.9940  176.0420  134.5940 C   0  0  0  0  0  2  0  0  0  0  0  0
  187.8860  177.4500  134.8300 O   0  0  0  0  0  0  0  0  0  0  0  0
  184.9000  173.8540  136.7230 C   0  0  0  0  0  2  0  0  0  0  0  0
  190.5520  176.2140  135.1050 C   0  0  0  0  0  2  0  0  0  0  0  0
  189.4510  176.2190  136.1730 C   0  0  1  0  0  0  0  0  0  0  0  0
  191.9750  176.2770  135.6860 C   0  0  1  0  0  3  0  0  0  0  0  0
  185.0490  174.1780  135.2310 C   0  0  0  0  0  2  0  0  0  0  0  0
  191.5330  173.8970  136.7610 C   0  0  0  0  0  2  0  0  0  0  0  0
  193.0450  175.5970  137.8590 C   0  0  0  0  0  1  0  0  0  0  0  0
  188.1040  176.5100  135.5800 C   0  0  0  0  0  0  0  0  0  0  0  0
  187.0320  175.5830  136.0510 C   0  0  1  0  0  3  0  0  0  0  0  0
  186.3620  174.8850  134.8590 C   0  0  0  0  0  2  0  0  0  0  0  0
  188.6390  177.5480  138.2550 C   0  0  2  0  0  3  0  0  0  0  0  0
  189.8220  177.1320  137.3890 C   0  0  2  0  0  3  0  0  0  0  0  0
  189.2670  178.5380  137.2830 C   0  0  0  0  0  2  0  0  0  0  0  0
  189.1030  177.8150  139.6140 N   0  0  0  0  0  0  0  0  0  0  0  0
  187.9110  177.9430  141.8440 C   0  0  1  0  0  3  0  0  0  0  0  0
  188.3950  179.3460  141.4740 C   0  0  0  0  0  2  0  0  0  0  0  0
  186.2180  178.0470  142.5030 S   0  0  0  0  0  1  0  0  0  0  0  0
  187.9940  178.3770  140.3890 C   0  0  1  0  0  0  0  0  0  0  0  0
  186.8060  178.6910  139.7150 O   0  0  0  0  0  1  0  0  0  0  0  0
  189.4510  176.5310  140.2170 C   0  0  0  0  0  2  0  0  0  0  0  0
  191.4700  177.7840  140.4390 O   0  0  0  0  0  1  0  0  0  0  0  0
  190.8460  176.5950  140.8140 C   0  0  0  0  0  2  0  0  0  0  0  0
  1  6  1  0  0  0  0
  2  3  1  0  0  0  0
  2  5  1  1  0  0  0
  3  7  1  6  0  0  0
  6 15  1  0  0  0  0
  6 16  1  1  0  0  0
  7  4  1  0  0  0  0
  8  1  1  0  0  0  0
  9 17  2  0  0  0  0
 10  4  1  0  0  0  0
 11 13  1  0  0  0  0
 12 11  1  6  0  0  0
 12  2  1  0  0  0  0
 12 21  1  0  0  0  0
 13  8  1  6  0  0  0
 13  6  1  0  0  0  0
 14 10  1  0  0  0  0
 15  5  1  0  0  0  0
 17 18  1  0  0  0  0
 17 12  1  0  0  0  0
 18 19  1  6  0  0  0
 18  3  1  0  0  0  0
 19 14  1  0  0  0  0
 20 23  1  1  0  0  0
 21 22  1  6  0  0  0
 21 20  1  0  0  0  0
 22 20  1  0  0  0  0
 23 29  1  0  0  0  0
 23 27  1  0  0  0  0
 24 26  1  1  0  0  0
 25 24  1  0  0  0  0
 27 28  1  6  0  0  0
 27 25  1  0  0  0  0
 27 24  1  0  0  0  0
 29 31  1  0  0  0  0
 30 31  1  0  0  0  0
M  END
>  <MODEL>
3

>  <REMARK>
 VINA RESULT:      -4.6      6.563      9.813
  Name = 
  5 active torsions:
  status: ('A' for Active; 'I' for Inactive)
    1  A    between atoms: C_3  and  C_7
    2  A    between atoms: C_3  and  N_22
    3  A    between atoms: C_9  and  N_22
    4  A    between atoms: C_15  and  C_21
    5  A    between atoms: C_19  and  N_22
                            x       y       z     vdW  Elec       q    Type
                         _______ _______ _______ _____ _____    ______ ____

>  <TORSDO>
F 5

$$$$
=
 OpenBabel10262419223D

 31 36  0  0  1  0  0  0  0  0999 V2000
  180.6170  179.7770  139.0540 S   0  0  0  0  0  0  0  0  0  0  0  0
  184.7810  177.7760  138.1210 C   0  0  2  0  0  3  0  0  0  0  0  0
  186.2080  177.2720  137.9600 C   0  0  2  0  0  3  0  0  0  0  0  0
  188.6420  177.8030  138.5780 C   0  0  0  0  0  2  0  0  0  0  0  0
  184.1650  177.6760  139.5040 C   0  0  0  0  0  2  0  0  0  0  0  0
  181.7330  178.3440  139.0430 C   0  0  1  0  0  0  0  0  0  0  0  0
  187.1790  178.2520  138.6320 C   0  0  0  0  0  2  0  0  0  0  0  0
  180.6810  179.2700  137.3060 C   0  0  0  0  0  2  0  0  0  0  0  0
  184.7250  177.0140  134.7210 O   0  0  0  0  0  0  0  0  0  0  0  0
  189.1020  177.2920  137.2100 C   0  0  0  0  0  2  0  0  0  0  0  0
  182.8610  178.2280  136.6600 C   0  0  0  0  0  2  0  0  0  0  0  0
  183.9490  177.1980  136.9870 C   0  0  1  0  0  0  0  0  0  0  0  0
  181.6020  178.0920  137.5330 C   0  0  1  0  0  3  0  0  0  0  0  0
  188.6970  178.1970  136.0400 C   0  0  0  0  0  2  0  0  0  0  0  0
  183.0970  178.7570  139.6150 C   0  0  0  0  0  2  0  0  0  0  0  0
  181.1170  177.2040  139.8360 C   0  0  0  0  0  1  0  0  0  0  0  0
  184.9900  177.1300  135.9080 C   0  0  0  0  0  0  0  0  0  0  0  0
  186.3910  177.1450  136.4280 C   0  0  1  0  0  3  0  0  0  0  0  0
  187.1810  178.3090  135.8130 C   0  0  0  0  0  2  0  0  0  0  0  0
  183.7750  174.6540  136.4760 C   0  0  2  0  0  3  0  0  0  0  0  0
  183.3410  175.8090  137.3720 C   0  0  2  0  0  3  0  0  0  0  0  0
  182.3840  175.2570  136.3350 C   0  0  0  0  0  2  0  0  0  0  0  0
  183.7080  173.4050  137.2290 N   0  0  0  0  0  0  0  0  0  0  0  0
  183.4150  170.9200  136.8440 C   0  0  1  0  0  3  0  0  0  0  0  0
  182.0330  171.5750  136.8370 C   0  0  0  0  0  2  0  0  0  0  0  0
  183.5120  169.7100  135.4870 S   0  0  0  0  0  1  0  0  0  0  0  0
  183.2330  172.3420  136.3380 C   0  0  1  0  0  0  0  0  0  0  0  0
  183.2660  172.5720  134.9560 O   0  0  0  0  0  1  0  0  0  0  0  0
  185.0690  173.0630  137.6310 C   0  0  0  0  0  2  0  0  0  0  0  0
  186.7320  172.4230  136.0440 O   0  0  0  0  0  1  0  0  0  0  0  0
  186.0590  173.5220  136.5750 C   0  0  0  0  0  2  0  0  0  0  0  0
  2  5  1  1  0  0  0
  3  2  1  0  0  0  0
  3  7  1  6  0  0  0
  4  7  1  0  0  0  0
  5 15  1  0  0  0  0
  6  1  1  0  0  0  0
  6 15  1  0  0  0  0
  6 16  1  1  0  0  0
  8 13  1  0  0  0  0
  8  1  1  0  0  0  0
  9 17  2  0  0  0  0
 10  4  1  0  0  0  0
 12 11  1  6  0  0  0
 12 21  1  0  0  0  0
 12  2  1  0  0  0  0
 13 11  1  6  0  0  0
 13  6  1  0  0  0  0
 14 10  1  0  0  0  0
 17 18  1  0  0  0  0
 17 12  1  0  0  0  0
 18 19  1  6  0  0  0
 18  3  1  0  0  0  0
 19 14  1  0  0  0  0
 20 23  1  1  0  0  0
 20 21  1  0  0  0  0
 21 22  1  6  0  0  0
 22 20  1  0  0  0  0
 23 29  1  0  0  0  0
 24 26  1  6  0  0  0
 25 24  1  0  0  0  0
 27 28  1  6  0  0  0
 27 25  1  0  0  0  0
 27 24  1  0  0  0  0
 27 23  1  0  0  0  0
 30 31  1  0  0  0  0
 31 29  1  0  0  0  0
M  END
>  <MODEL>
4

>  <REMARK>
 VINA RESULT:      -4.2      3.014      4.685
  Name = 
  5 active torsions:
  status: ('A' for Active; 'I' for Inactive)
    1  A    between atoms: C_3  and  C_7
    2  A    between atoms: C_3  and  N_22
    3  A    between atoms: C_9  and  N_22
    4  A    between atoms: C_15  and  C_21
    5  A    between atoms: C_19  and  N_22
                            x       y       z     vdW  Elec       q    Type
                         _______ _______ _______ _____ _____    ______ ____

>  <TORSDO>
F 5

$$$$
=
 OpenBabel10262419223D

 31 36  0  0  1  0  0  0  0  0999 V2000
  178.9310  182.3350  137.9020 S   0  0  0  0  0  0  0  0  0  0  0  0
  180.0980  177.7690  137.9900 C   0  0  2  0  0  3  0  0  0  0  0  0
  180.2770  176.2590  137.9350 C   0  0  2  0  0  3  0  0  0  0  0  0
  179.0160  174.0670  137.4970 C   0  0  0  0  0  2  0  0  0  0  0  0
  179.8650  178.4840  136.6720 C   0  0  0  0  0  2  0  0  0  0  0  0
  179.9800  180.9450  137.3850 C   0  0  1  0  0  0  0  0  0  0  0  0
  178.9310  175.5900  137.6330 C   0  0  0  0  0  2  0  0  0  0  0  0
  179.9690  181.9900  139.3580 C   0  0  0  0  0  2  0  0  0  0  0  0
  181.9560  177.3230  140.9040 O   0  0  0  0  0  0  0  0  0  0  0  0
  179.8370  173.3750  138.5890 C   0  0  0  0  0  2  0  0  0  0  0  0
  180.6290  179.5860  139.5530 C   0  0  0  0  0  2  0  0  0  0  0  0
  181.2020  178.3420  138.8640 C   0  0  1  0  0  0  0  0  0  0  0  0
  180.7500  180.8680  138.7120 C   0  0  1  0  0  3  0  0  0  0  0  0
  179.5030  173.8440  140.0110 C   0  0  0  0  0  2  0  0  0  0  0  0
  179.0910  179.7640  136.9700 C   0  0  0  0  0  2  0  0  0  0  0  0
  180.8950  181.3810  136.2530 C   0  0  0  0  0  1  0  0  0  0  0  0
  181.3860  177.2080  139.8290 C   0  0  0  0  0  0  0  0  0  0  0  0
  180.8690  175.9020  139.3210 C   0  0  1  0  0  3  0  0  0  0  0  0
  179.8320  175.3190  140.2910 C   0  0  0  0  0  2  0  0  0  0  0  0
  183.7190  177.8760  138.4070 C   0  0  2  0  0  3  0  0  0  0  0  0
  182.4800  178.6770  138.0250 C   0  0  2  0  0  3  0  0  0  0  0  0
  183.5820  179.3310  138.8350 C   0  0  0  0  0  2  0  0  0  0  0  0
  184.6050  177.7720  137.2510 N   0  0  0  0  0  0  0  0  0  0  0  0
  187.0270  177.0620  137.0510 C   0  0  1  0  0  3  0  0  0  0  0  0
  186.9230  178.5370  136.6610 C   0  0  0  0  0  2  0  0  0  0  0  0
  188.4900  176.8220  138.1080 S   0  0  0  0  0  1  0  0  0  0  0  0
  185.9880  177.9640  137.6970 C   0  0  1  0  0  0  0  0  0  0  0  0
  186.2060  178.4040  139.0100 O   0  0  0  0  0  1  0  0  0  0  0  0
  184.4970  176.4090  136.7370 C   0  0  0  0  0  2  0  0  0  0  0  0
  183.3180  174.4020  137.2610 O   0  0  0  0  0  1  0  0  0  0  0  0
  184.0010  175.4760  137.8280 C   0  0  0  0  0  2  0  0  0  0  0  0
  1  8  1  0  0  0  0
  2  5  1  6  0  0  0
  2 12  1  0  0  0  0
  3  7  1  1  0  0  0
  3  2  1  0  0  0  0
  3 18  1  0  0  0  0
  4  7  1  0  0  0  0
  4 10  1  0  0  0  0
  5 15  1  0  0  0  0
  6 16  1  6  0  0  0
  6  1  1  0  0  0  0
  6 13  1  0  0  0  0
 10 14  1  0  0  0  0
 12 11  1  1  0  0  0
 12 17  1  0  0  0  0
 13  8  1  1  0  0  0
 13 11  1  0  0  0  0
 14 19  1  0  0  0  0
 15  6  1  0  0  0  0
 17  9  2  0  0  0  0
 18 17  1  0  0  0  0
 18 19  1  1  0  0  0
 20 23  1  6  0  0  0
 20 22  1  0  0  0  0
 21 20  1  0  0  0  0
 21 22  1  1  0  0  0
 21 12  1  0  0  0  0
 23 27  1  0  0  0  0
 24 27  1  0  0  0  0
 24 26  1  1  0  0  0
 25 24  1  0  0  0  0
 25 27  1  0  0  0  0
 27 28  1  1  0  0  0
 29 23  1  0  0  0  0
 29 31  1  0  0  0  0
 30 31  1  0  0  0  0
M  END
>  <MODEL>
5

>  <REMARK>
 VINA RESULT:      -4.1      2.790      4.938
  Name = 
  5 active torsions:
  status: ('A' for Active; 'I' for Inactive)
    1  A    between atoms: C_3  and  C_7
    2  A    between atoms: C_3  and  N_22
    3  A    between atoms: C_9  and  N_22
    4  A    between atoms: C_15  and  C_21
    5  A    between atoms: C_19  and  N_22
                            x       y       z     vdW  Elec       q    Type
                         _______ _______ _______ _____ _____    ______ ____

>  <TORSDO>
F 5

$$$$
=
 OpenBabel10262419223D

 31 36  0  0  1  0  0  0  0  0999 V2000
  188.6960  176.9300  135.3280 S   0  0  0  0  0  0  0  0  0  0  0  0
  185.0030  174.1930  136.3670 C   0  0  2  0  0  3  0  0  0  0  0  0
  183.9400  173.1430  136.6560 C   0  0  2  0  0  3  0  0  0  0  0  0
  183.4450  170.6320  136.4610 C   0  0  0  0  0  2  0  0  0  0  0  0
  186.2580  174.1570  137.2190 C   0  0  0  0  0  2  0  0  0  0  0  0
  187.4460  176.3100  136.4900 C   0  0  1  0  0  0  0  0  0  0  0  0
  184.4210  171.7730  136.1620 C   0  0  0  0  0  2  0  0  0  0  0  0
  187.1550  177.7490  134.8090 C   0  0  0  0  0  2  0  0  0  0  0  0
  182.2020  175.8910  135.1760 O   0  0  0  0  0  0  0  0  0  0  0  0
  181.9820  170.9440  136.1370 C   0  0  0  0  0  2  0  0  0  0  0  0
  185.1100  176.3840  135.2640 C   0  0  0  0  0  2  0  0  0  0  0  0
  184.3120  175.5450  136.2700 C   0  0  1  0  0  0  0  0  0  0  0  0
  186.2960  177.1350  135.8920 C   0  0  1  0  0  3  0  0  0  0  0  0
  181.7720  171.5820  134.7580 C   0  0  0  0  0  2  0  0  0  0  0  0
  187.3880  174.7780  136.4050 C   0  0  0  0  0  2  0  0  0  0  0  0
  187.7720  176.7790  137.8980 C   0  0  0  0  0  1  0  0  0  0  0  0
  182.9860  175.1200  135.7100 C   0  0  0  0  0  0  0  0  0  0  0  0
  182.6800  173.6750  135.9310 C   0  0  1  0  0  3  0  0  0  0  0  0
  182.4090  172.9720  134.5940 C   0  0  0  0  0  2  0  0  0  0  0  0
  182.8410  176.7960  138.0100 C   0  0  2  0  0  3  0  0  0  0  0  0
  184.2190  176.2420  137.6670 C   0  0  2  0  0  3  0  0  0  0  0  0
  183.9630  177.7340  137.5840 C   0  0  0  0  0  2  0  0  0  0  0  0
  182.6790  176.8320  139.4610 N   0  0  0  0  0  0  0  0  0  0  0  0
  181.7240  178.2840  141.3010 C   0  0  1  0  0  3  0  0  0  0  0  0
  182.9940  178.9510  140.7710 C   0  0  0  0  0  2  0  0  0  0  0  0
  180.4350  179.5480  141.5370 S   0  0  0  0  0  1  0  0  0  0  0  0
  182.1280  178.1340  139.8430 C   0  0  1  0  0  0  0  0  0  0  0  0
  181.4280  178.8680  138.8750 O   0  0  0  0  0  1  0  0  0  0  0  0
  181.6910  175.8170  139.8160 C   0  0  0  0  0  2  0  0  0  0  0  0
  179.4520  175.4050  139.1010 O   0  0  0  0  0  1  0  0  0  0  0  0
  180.7600  175.5590  138.6440 C   0  0  0  0  0  2  0  0  0  0  0  0
  1  6  1  0  0  0  0
  2  3  1  0  0  0  0
  2  5  1  1  0  0  0
  3  7  1  6  0  0  0
  6 16  1  1  0  0  0
  7  4  1  0  0  0  0
  8  1  1  0  0  0  0
  9 17  2  0  0  0  0
 10  4  1  0  0  0  0
 11 13  1  0  0  0  0
 12 11  1  6  0  0  0
 12  2  1  0  0  0  0
 12 21  1  0  0  0  0
 13  8  1  6  0  0  0
 13  6  1  0  0  0  0
 14 10  1  0  0  0  0
 15  6  1  0  0  0  0
 15  5  1  0  0  0  0
 17 18  1  0  0  0  0
 17 12  1  0  0  0  0
 18 19  1  6  0  0  0
 18  3  1  0  0  0  0
 19 14  1  0  0  0  0
 20 23  1  1  0  0  0
 21 22  1  6  0  0  0
 21 20  1  0  0  0  0
 22 20  1  0  0  0  0
 23 29  1  0  0  0  0
 23 27  1  0  0  0  0
 24 26  1  6  0  0  0
 25 24  1  0  0  0  0
 27 28  1  6  0  0  0
 27 25  1  0  0  0  0
 27 24  1  0  0  0  0
 31 30  1  0  0  0  0
 31 29  1  0  0  0  0
M  END
>  <MODEL>
6

>  <REMARK>
 VINA RESULT:      -4.0      3.195      7.354
  Name = 
  5 active torsions:
  status: ('A' for Active; 'I' for Inactive)
    1  A    between atoms: C_3  and  C_7
    2  A    between atoms: C_3  and  N_22
    3  A    between atoms: C_9  and  N_22
    4  A    between atoms: C_15  and  C_21
    5  A    between atoms: C_19  and  N_22
                            x       y       z     vdW  Elec       q    Type
                         _______ _______ _______ _____ _____    ______ ____

>  <TORSDO>
F 5

$$$$
=
 OpenBabel10262419223D

 31 36  0  0  1  0  0  0  0  0999 V2000
  180.7870  179.7740  140.8630 S   0  0  0  0  0  0  0  0  0  0  0  0
  181.3820  176.7160  137.3260 C   0  0  2  0  0  3  0  0  0  0  0  0
  181.3600  175.7470  136.1530 C   0  0  2  0  0  3  0  0  0  0  0  0
  179.7760  174.4610  134.5960 C   0  0  0  0  0  2  0  0  0  0  0  0
  180.9340  178.1410  137.0520 C   0  0  0  0  0  2  0  0  0  0  0  0
  181.5090  179.3030  139.2650 C   0  0  1  0  0  0  0  0  0  0  0  0
  179.9100  175.3880  135.8070 C   0  0  0  0  0  2  0  0  0  0  0  0
  182.0890  178.5750  141.2940 C   0  0  0  0  0  2  0  0  0  0  0  0
  183.8050  174.4630  138.4190 O   0  0  0  0  0  0  0  0  0  0  0  0
  180.7420  173.2720  134.5940 C   0  0  0  0  0  2  0  0  0  0  0  0
  182.4810  176.8610  139.5160 C   0  0  0  0  0  2  0  0  0  0  0  0
  182.7220  176.5720  138.0300 C   0  0  1  0  0  0  0  0  0  0  0  0
  182.5560  178.3560  139.8730 C   0  0  1  0  0  3  0  0  0  0  0  0
  180.8100  172.5240  135.9320 C   0  0  0  0  0  2  0  0  0  0  0  0
  180.4120  178.7210  138.3620 C   0  0  0  0  0  2  0  0  0  0  0  0
  182.1780  180.5080  138.6250 C   0  0  0  0  0  1  0  0  0  0  0  0
  182.9900  175.1150  137.7840 C   0  0  0  0  0  0  0  0  0  0  0  0
  182.2140  174.5510  136.6400 C   0  0  1  0  0  3  0  0  0  0  0  0
  181.3710  173.3530  137.0990 C   0  0  0  0  0  2  0  0  0  0  0  0
  185.1720  176.8970  137.2200 C   0  0  2  0  0  3  0  0  0  0  0  0
  183.7980  177.5280  137.4160 C   0  0  2  0  0  3  0  0  0  0  0  0
  184.9260  177.8630  138.3710 C   0  0  0  0  0  2  0  0  0  0  0  0
  185.8670  177.5770  136.1310 N   0  0  0  0  0  0  0  0  0  0  0  0
  187.9320  177.1580  137.5340 C   0  0  1  0  0  3  0  0  0  0  0  0
  188.3730  177.4140  136.0920 C   0  0  0  0  0  2  0  0  0  0  0  0
  189.0390  178.0540  138.6680 S   0  0  0  0  0  1  0  0  0  0  0  0
  187.1410  178.0960  136.6360 C   0  0  1  0  0  0  0  0  0  0  0  0
  187.2610  179.4770  136.8390 O   0  0  0  0  0  1  0  0  0  0  0  0
  186.1740  176.5750  135.1140 C   0  0  0  0  0  2  0  0  0  0  0  0
  186.6680  174.2870  135.5810 O   0  0  0  0  0  1  0  0  0  0  0  0
  185.6320  175.2200  135.5340 C   0  0  0  0  0  2  0  0  0  0  0  0
  1  8  1  0  0  0  0
  2  5  1  6  0  0  0
  2 12  1  0  0  0  0
  3  7  1  1  0  0  0
  3 18  1  0  0  0  0
  3  2  1  0  0  0  0
  4  7  1  0  0  0  0
  5 15  1  0  0  0  0
  6 16  1  6  0  0  0
  6 13  1  0  0  0  0
  6  1  1  0  0  0  0
 10  4  1  0  0  0  0
 10 14  1  0  0  0  0
 12 11  1  1  0  0  0
 13 11  1  6  0  0  0
 13  8  1  0  0  0  0
 14 19  1  0  0  0  0
 15  6  1  0  0  0  0
 17 12  1  0  0  0  0
 17  9  2  0  0  0  0
 18 19  1  1  0  0  0
 18 17  1  0  0  0  0
 20 23  1  6  0  0  0
 20 21  1  0  0  0  0
 20 22  1  0  0  0  0
 21 12  1  0  0  0  0
 21 22  1  1  0  0  0
 23 27  1  0  0  0  0
 24 26  1  1  0  0  0
 25 27  1  0  0  0  0
 25 24  1  0  0  0  0
 27 28  1  1  0  0  0
 27 24  1  0  0  0  0
 29 31  1  0  0  0  0
 29 23  1  0  0  0  0
 31 30  1  0  0  0  0
M  END
>  <MODEL>
7

>  <REMARK>
 VINA RESULT:      -3.8      3.077      6.297
  Name = 
  5 active torsions:
  status: ('A' for Active; 'I' for Inactive)
    1  A    between atoms: C_3  and  C_7
    2  A    between atoms: C_3  and  N_22
    3  A    between atoms: C_9  and  N_22
    4  A    between atoms: C_15  and  C_21
    5  A    between atoms: C_19  and  N_22
                            x       y       z     vdW  Elec       q    Type
                         _______ _______ _______ _____ _____    ______ ____

>  <TORSDO>
F 5

$$$$
=
 OpenBabel10262419223D

 31 36  0  0  1  0  0  0  0  0999 V2000
  186.8970  176.1500  134.7630 S   0  0  0  0  0  0  0  0  0  0  0  0
  183.8130  177.2430  138.1560 C   0  0  2  0  0  3  0  0  0  0  0  0
  182.6740  177.4800  139.1370 C   0  0  2  0  0  3  0  0  0  0  0  0
  180.1470  177.1540  139.4490 C   0  0  0  0  0  2  0  0  0  0  0  0
  184.2470  175.8050  137.9360 C   0  0  0  0  0  2  0  0  0  0  0  0
  186.3450  176.1070  136.4930 C   0  0  1  0  0  0  0  0  0  0  0  0
  181.3520  177.0140  138.5140 C   0  0  0  0  0  2  0  0  0  0  0  0
  187.2290  177.8300  135.3820 C   0  0  0  0  0  2  0  0  0  0  0  0
  184.5530  180.5180  139.0880 O   0  0  0  0  0  0  0  0  0  0  0  0
  180.0650  178.4950  140.1840 C   0  0  0  0  0  2  0  0  0  0  0  0
  185.6340  178.5580  137.1650 C   0  0  0  0  0  2  0  0  0  0  0  0
  184.9280  178.2240  138.4850 C   0  0  1  0  0  0  0  0  0  0  0  0
  186.7430  177.5620  136.7890 C   0  0  1  0  0  3  0  0  0  0  0  0
  180.2820  179.7150  139.2800 C   0  0  0  0  0  2  0  0  0  0  0  0
  184.8610  175.7150  136.5440 C   0  0  0  0  0  2  0  0  0  0  0  0
  187.2060  175.1390  137.2860 C   0  0  0  0  0  1  0  0  0  0  0  0
  184.1160  179.3810  138.9890 C   0  0  0  0  0  0  0  0  0  0  0  0
  182.7400  178.9990  139.4280 C   0  0  1  0  0  3  0  0  0  0  0  0
  181.6860  179.8090  138.6610 C   0  0  0  0  0  2  0  0  0  0  0  0
  186.3520  178.6140  140.6240 C   0  0  2  0  0  3  0  0  0  0  0  0
  185.9180  177.6320  139.5420 C   0  0  2  0  0  3  0  0  0  0  0  0
  187.3010  178.2510  139.4900 C   0  0  0  0  0  2  0  0  0  0  0  0
  186.7080  177.8760  141.8330 N   0  0  0  0  0  0  0  0  0  0  0  0
  188.6600  177.4850  143.3970 C   0  0  1  0  0  3  0  0  0  0  0  0
  188.9360  176.7460  142.0870 C   0  0  0  0  0  2  0  0  0  0  0  0
  190.1800  178.3210  143.9470 S   0  0  0  0  0  1  0  0  0  0  0  0
  188.1450  178.0310  142.0750 C   0  0  1  0  0  0  0  0  0  0  0  0
  188.7980  179.1310  141.5050 O   0  0  0  0  0  1  0  0  0  0  0  0
  186.0060  178.5020  142.9510 C   0  0  0  0  0  2  0  0  0  0  0  0
  183.9080  178.4050  144.0830 O   0  0  0  0  0  1  0  0  0  0  0  0
  184.5130  178.2540  142.8360 C   0  0  0  0  0  2  0  0  0  0  0  0
  1  8  1  0  0  0  0
  1  6  1  0  0  0  0
  2  5  1  1  0  0  0
  2 12  1  0  0  0  0
  2  3  1  0  0  0  0
  3  7  1  6  0  0  0
  3 18  1  0  0  0  0
  4 10  1  0  0  0  0
  6 15  1  0  0  0  0
  6 13  1  0  0  0  0
  6 16  1  1  0  0  0
  7  4  1  0  0  0  0
 12 11  1  6  0  0  0
 12 17  1  0  0  0  0
 12 21  1  0  0  0  0
 13  8  1  6  0  0  0
 13 11  1  0  0  0  0
 14 10  1  0  0  0  0
 15  5  1  0  0  0  0
 17  9  2  0  0  0  0
 17 18  1  0  0  0  0
 18 19  1  6  0  0  0
 19 14  1  0  0  0  0
 20 23  1  1  0  0  0
 21 22  1  6  0  0  0
 21 20  1  0  0  0  0
 22 20  1  0  0  0  0
 23 27  1  0  0  0  0
 23 29  1  0  0  0  0
 24 26  1  6  0  0  0
 25 24  1  0  0  0  0
 27 28  1  6  0  0  0
 27 25  1  0  0  0  0
 27 24  1  0  0  0  0
 31 29  1  0  0  0  0
 31 30  1  0  0  0  0
M  END
>  <MODEL>
8

>  <REMARK>
 VINA RESULT:      -3.7      3.723      6.609
  Name = 
  5 active torsions:
  status: ('A' for Active; 'I' for Inactive)
    1  A    between atoms: C_3  and  C_7
    2  A    between atoms: C_3  and  N_22
    3  A    between atoms: C_9  and  N_22
    4  A    between atoms: C_15  and  C_21
    5  A    between atoms: C_19  and  N_22
                            x       y       z     vdW  Elec       q    Type
                         _______ _______ _______ _____ _____    ______ ____

>  <TORSDO>
F 5

$$$$
=
 OpenBabel10262419223D

 31 36  0  0  1  0  0  0  0  0999 V2000
  191.2100  174.6470  134.7110 S   0  0  0  0  0  0  0  0  0  0  0  0
  186.9940  175.5920  136.5940 C   0  0  2  0  0  3  0  0  0  0  0  0
  185.5580  175.7410  137.0730 C   0  0  2  0  0  3  0  0  0  0  0  0
  183.1550  174.9780  136.5900 C   0  0  0  0  0  2  0  0  0  0  0  0
  187.6640  174.2500  136.8260 C   0  0  0  0  0  2  0  0  0  0  0  0
  190.0820  174.7450  136.1310 C   0  0  1  0  0  0  0  0  0  0  0  0
  184.6230  174.9430  136.1560 C   0  0  0  0  0  2  0  0  0  0  0  0
  191.0720  176.4300  135.0520 C   0  0  0  0  0  2  0  0  0  0  0  0
  186.9090  179.0480  137.0370 O   0  0  0  0  0  0  0  0  0  0  0  0
  182.6360  176.3690  136.9690 C   0  0  0  0  0  2  0  0  0  0  0  0
  188.8590  177.0810  136.0190 C   0  0  0  0  0  2  0  0  0  0  0  0
  187.7750  176.8080  137.0690 C   0  0  1  0  0  0  0  0  0  0  0  0
  190.1500  176.2760  136.2410 C   0  0  1  0  0  3  0  0  0  0  0  0
  183.0030  177.4650  135.9610 C   0  0  0  0  0  2  0  0  0  0  0  0
  188.7450  174.0830  135.7650 C   0  0  0  0  0  2  0  0  0  0  0  0
  190.7180  174.0860  137.3430 C   0  0  0  0  0  1  0  0  0  0  0  0
  186.6920  177.8450  137.0310 C   0  0  0  0  0  0  0  0  0  0  0  0
  185.3130  177.2690  137.0570 C   0  0  1  0  0  3  0  0  0  0  0  0
  184.5100  177.7410  135.8370 C   0  0  0  0  0  2  0  0  0  0  0  0
  188.5670  177.8450  139.3180 C   0  0  2  0  0  3  0  0  0  0  0  0
  188.3860  176.5770  138.4910 C   0  0  2  0  0  3  0  0  0  0  0  0
  189.7670  177.1770  138.6620 C   0  0  0  0  0  2  0  0  0  0  0  0
  188.5170  177.5090  140.7380 N   0  0  0  0  0  0  0  0  0  0  0  0
  190.0410  177.5660  142.7590 C   0  0  1  0  0  3  0  0  0  0  0  0
  190.1930  176.2040  142.0780 C   0  0  0  0  0  2  0  0  0  0  0  0
  191.6850  178.1860  143.2340 S   0  0  0  0  0  1  0  0  0  0  0  0
  189.8870  177.4290  141.2520 C   0  0  1  0  0  0  0  0  0  0  0  0
  190.9310  177.8740  140.4290 O   0  0  0  0  0  1  0  0  0  0  0  0
  187.8540  178.6130  141.4270 C   0  0  0  0  0  2  0  0  0  0  0  0
  185.7700  179.2770  140.4740 O   0  0  0  0  0  1  0  0  0  0  0  0
  186.3490  178.4150  141.4040 C   0  0  0  0  0  2  0  0  0  0  0  0
  1  8  1  0  0  0  0
  1  6  1  0  0  0  0
  2  5  1  1  0  0  0
  2 12  1  0  0  0  0
  2  3  1  0  0  0  0
  3  7  1  6  0  0  0
  4 10  1  0  0  0  0
  6 13  1  0  0  0  0
  6 16  1  1  0  0  0
  7  4  1  0  0  0  0
 11 13  1  0  0  0  0
 12 11  1  6  0  0  0
 12 21  1  0  0  0  0
 13  8  1  6  0  0  0
 14 10  1  0  0  0  0
 15  6  1  0  0  0  0
 15  5  1  0  0  0  0
 17  9  2  0  0  0  0
 17 18  1  0  0  0  0
 17 12  1  0  0  0  0
 18 19  1  6  0  0  0
 18  3  1  0  0  0  0
 19 14  1  0  0  0  0
 20 23  1  1  0  0  0
 21 22  1  6  0  0  0
 21 20  1  0  0  0  0
 22 20  1  0  0  0  0
 23 27  1  0  0  0  0
 23 29  1  0  0  0  0
 24 26  1  6  0  0  0
 25 24  1  0  0  0  0
 27 28  1  6  0  0  0
 27 25  1  0  0  0  0
 27 24  1  0  0  0  0
 30 31  1  0  0  0  0
 31 29  1  0  0  0  0
M  END
>  <MODEL>
9

>  <REMARK>
 VINA RESULT:      -3.7      5.474      8.728
  Name = 
  5 active torsions:
  status: ('A' for Active; 'I' for Inactive)
    1  A    between atoms: C_3  and  C_7
    2  A    between atoms: C_3  and  N_22
    3  A    between atoms: C_9  and  N_22
    4  A    between atoms: C_15  and  C_21
    5  A    between atoms: C_19  and  N_22
                            x       y       z     vdW  Elec       q    Type
                         _______ _______ _______ _____ _____    ______ ____

>  <TORSDO>
F 5

$$$$
