=
 OpenBabel10262419113D

 34 40  0  0  1  0  0  0  0  0999 V2000
  180.5180  178.2600  142.2410 C   0  0  0  0  0  0  0  0  0  0  0  0
  181.2750  176.9050  140.3800 C   0  0  0  0  0  0  0  0  0  0  0  0
  182.8940  178.1140  141.7220 C   0  0  0  0  0  0  0  0  0  0  0  0
  185.0640  178.6490  140.5830 C   0  0  1  0  0  3  0  0  0  0  0  0
  178.9310  177.0760  140.9320 C   0  0  0  0  0  3  0  0  0  0  0  0
  179.9470  176.5550  140.1250 C   0  0  0  0  0  3  0  0  0  0  0  0
  183.6300  177.0610  139.5840 N   0  0  1  0  0  0  0  0  0  0  0  0
  181.5720  177.7490  141.4520 C   0  0  0  0  0  0  0  0  0  0  0  0
  184.5650  179.2510  139.2820 C   0  0  0  0  0  2  0  0  0  0  0  0
  179.2330  177.9100  141.9630 N   0  0  0  0  0  0  0  0  0  0  0  0
  183.1630  179.0100  142.7690 C   0  0  0  0  0  0  0  0  0  0  0  0
  180.7980  179.1280  143.2980 C   0  0  0  0  0  3  0  0  0  0  0  0
  182.3740  176.2920  139.5670 C   0  0  0  0  0  2  0  0  0  0  0  0
  185.2840  179.7380  141.6530 C   0  0  0  0  0  2  0  0  0  0  0  0
  184.5630  179.4960  142.9870 C   0  0  2  0  0  3  0  0  0  0  0  0
  183.5860  178.2320  138.7080 C   0  0  1  0  0  3  0  0  0  0  0  0
  184.0460  177.5570  140.9020 C   0  0  2  0  0  3  0  0  0  0  0  0
  182.1190  179.5080  143.5580 C   0  0  0  0  0  3  0  0  0  0  0  0
  187.1300  177.0260  144.2770 C   0  0  0  0  0  0  0  0  0  0  0  0
  186.8460  176.9970  145.6450 C   0  0  0  0  0  3  0  0  0  0  0  0
  185.3420  178.6300  143.9330 C   0  0  0  0  0  0  0  0  0  0  0  0
  185.8130  177.7840  146.1610 C   0  0  0  0  0  3  0  0  0  0  0  0
  186.3800  177.8400  143.4230 C   0  0  0  0  0  3  0  0  0  0  0  0
  185.0620  178.5990  145.3070 C   0  0  0  0  0  3  0  0  0  0  0  0
  188.1320  176.2640  143.7770 F   0  0  0  0  0  0  0  0  0  0  0  0
  184.0300  177.8600  137.3020 C   0  0  0  0  0  2  0  0  0  0  0  0
  185.2440  177.0640  137.3580 N   0  0  0  0  0  2  0  0  0  0  0  0
  186.2520  177.7850  136.6020 C   0  0  0  0  0  2  0  0  0  0  0  0
  187.6120  177.1270  136.7860 C   0  0  2  0  0  3  0  0  0  0  0  0
  187.8690  176.8300  138.2680 C   0  0  0  0  0  2  0  0  0  0  0  0
  189.1850  178.6350  138.6060 C   0  0  0  0  0  2  0  0  0  0  0  0
  189.0440  179.1720  137.1830 C   0  0  0  0  0  2  0  0  0  0  0  0
  188.7390  178.0100  136.2390 C   0  0  0  0  0  2  0  0  0  0  0  0
  187.9820  178.0240  139.0040 O   0  0  0  0  0  0  0  0  0  0  0  0
  1 12  1  0  0  0  0
  2  8  1  0  0  0  0
  3 11  2  0  0  0  0
  4  9  1  6  0  0  0
  4 17  1  0  0  0  0
  4 14  1  0  0  0  0
  5 10  2  0  0  0  0
  6  2  2  0  0  0  0
  6  5  1  0  0  0  0
  7 13  1  1  0  0  0
  7 17  1  0  0  0  0
  8  3  1  0  0  0  0
  8  1  2  0  0  0  0
 10  1  1  0  0  0  0
 11 15  1  0  0  0  0
 11 18  1  0  0  0  0
 12 18  2  0  0  0  0
 13  2  1  0  0  0  0
 14 15  1  0  0  0  0
 15 21  1  1  0  0  0
 16 26  1  6  0  0  0
 16  9  1  0  0  0  0
 16  7  1  0  0  0  0
 17  3  1  6  0  0  0
 19 20  1  0  0  0  0
 20 22  2  0  0  0  0
 21 24  2  0  0  0  0
 23 21  1  0  0  0  0
 23 19  2  0  0  0  0
 24 22  1  0  0  0  0
 25 19  1  0  0  0  0
 26 27  1  0  0  0  0
 28 27  1  0  0  0  0
 29 28  1  1  0  0  0
 29 30  1  0  0  0  0
 30 34  1  0  0  0  0
 31 34  1  0  0  0  0
 32 31  1  0  0  0  0
 33 29  1  0  0  0  0
 33 32  1  0  0  0  0
M  END
>  <MODEL>
1

>  <REMARK>
 VINA RESULT:      -7.3      0.000      0.000
  Name = 
  5 active torsions:
  status: ('A' for Active; 'I' for Inactive)
    1  A    between atoms: N_3  and  C_13
    2  A    between atoms: N_3  and  C_17
    3  A    between atoms: C_11  and  C_13
    4  A    between atoms: C_12  and  C_28
    5  A    between atoms: C_17  and  C_29
                            x       y       z     vdW  Elec       q    Type
                         _______ _______ _______ _____ _____    ______ ____

>  <TORSDO>
F 5

$$$$
=
 OpenBabel10262419113D

 34 40  0  0  1  0  0  0  0  0999 V2000
  187.5470  177.9290  141.6330 C   0  0  0  0  0  0  0  0  0  0  0  0
  187.7530  176.6600  143.6860 C   0  0  0  0  0  0  0  0  0  0  0  0
  185.8450  178.1230  143.3660 C   0  0  0  0  0  0  0  0  0  0  0  0
  184.7450  178.9460  145.4650 C   0  0  1  0  0  3  0  0  0  0  0  0
  189.4140  176.4970  141.9410 C   0  0  0  0  0  3  0  0  0  0  0  0
  188.9440  176.1130  143.2000 C   0  0  0  0  0  3  0  0  0  0  0  0
  186.2620  177.1430  145.6210 N   0  0  1  0  0  0  0  0  0  0  0  0
  187.0370  177.5610  142.8970 C   0  0  0  0  0  0  0  0  0  0  0  0
  185.9490  179.4390  146.2460 C   0  0  0  0  0  2  0  0  0  0  0  0
  188.7140  177.3880  141.1900 N   0  0  0  0  0  0  0  0  0  0  0  0
  185.1720  179.0710  142.5790 C   0  0  0  0  0  0  0  0  0  0  0  0
  186.8550  178.8520  140.8460 C   0  0  0  0  0  3  0  0  0  0  0  0
  187.2060  176.1970  145.0020 C   0  0  0  0  0  2  0  0  0  0  0  0
  184.1270  180.0780  144.6200 C   0  0  0  0  0  2  0  0  0  0  0  0
  183.9620  179.7620  143.1270 C   0  0  2  0  0  3  0  0  0  0  0  0
  186.9350  178.2740  146.2590 C   0  0  1  0  0  3  0  0  0  0  0  0
  185.2650  177.7220  144.7130 C   0  0  2  0  0  3  0  0  0  0  0  0
  185.6730  179.4280  141.3210 C   0  0  0  0  0  3  0  0  0  0  0  0
  180.5310  178.2150  143.5670 C   0  0  0  0  0  0  0  0  0  0  0  0
  180.2700  177.7140  142.2880 C   0  0  0  0  0  3  0  0  0  0  0  0
  182.6840  179.0410  142.8110 C   0  0  0  0  0  0  0  0  0  0  0  0
  181.2120  177.8760  141.2690 C   0  0  0  0  0  3  0  0  0  0  0  0
  181.7340  178.8770  143.8270 C   0  0  0  0  0  3  0  0  0  0  0  0
  182.4160  178.5380  141.5290 C   0  0  0  0  0  3  0  0  0  0  0  0
  179.6170  178.0590  144.5550 F   0  0  0  0  0  0  0  0  0  0  0  0
  187.2840  177.9410  147.7000 C   0  0  0  0  0  2  0  0  0  0  0  0
  188.6920  178.2020  147.9440 N   0  0  0  0  0  2  0  0  0  0  0  0
  189.4340  177.1330  147.2990 C   0  0  0  0  0  2  0  0  0  0  0  0
  190.8830  177.5510  147.0980 C   0  0  2  0  0  3  0  0  0  0  0  0
  191.3280  177.2720  145.6580 C   0  0  0  0  0  2  0  0  0  0  0  0
  192.4090  175.3510  146.1540 C   0  0  0  0  0  2  0  0  0  0  0  0
  192.0510  175.3750  147.6390 C   0  0  0  0  0  2  0  0  0  0  0  0
  191.8150  176.8210  148.0720 C   0  0  0  0  0  2  0  0  0  0  0  0
  191.3490  175.8870  145.4010 O   0  0  0  0  0  0  0  0  0  0  0  0
  1  8  1  0  0  0  0
  2 13  1  0  0  0  0
  4 14  1  6  0  0  0
  4  9  1  0  0  0  0
  5  6  2  0  0  0  0
  6  2  1  0  0  0  0
  7 13  1  6  0  0  0
  7 16  1  0  0  0  0
  8  3  1  0  0  0  0
  8  2  2  0  0  0  0
  9 16  1  0  0  0  0
 10  1  2  0  0  0  0
 10  5  1  0  0  0  0
 11 15  1  0  0  0  0
 11  3  2  0  0  0  0
 12 18  2  0  0  0  0
 12  1  1  0  0  0  0
 15 21  1  1  0  0  0
 15 14  1  0  0  0  0
 16 26  1  1  0  0  0
 17  3  1  6  0  0  0
 17  4  1  0  0  0  0
 17  7  1  0  0  0  0
 18 11  1  0  0  0  0
 19 23  1  0  0  0  0
 19 25  1  0  0  0  0
 20 19  2  0  0  0  0
 21 23  2  0  0  0  0
 22 24  2  0  0  0  0
 22 20  1  0  0  0  0
 24 21  1  0  0  0  0
 26 27  1  0  0  0  0
 28 27  1  0  0  0  0
 29 28  1  6  0  0  0
 29 33  1  0  0  0  0
 30 29  1  0  0  0  0
 31 32  1  0  0  0  0
 32 33  1  0  0  0  0
 34 30  1  0  0  0  0
 34 31  1  0  0  0  0
M  END
>  <MODEL>
2

>  <REMARK>
 VINA RESULT:      -7.3      3.800      7.699
  Name = 
  5 active torsions:
  status: ('A' for Active; 'I' for Inactive)
    1  A    between atoms: N_3  and  C_13
    2  A    between atoms: N_3  and  C_17
    3  A    between atoms: C_11  and  C_13
    4  A    between atoms: C_12  and  C_28
    5  A    between atoms: C_17  and  C_29
                            x       y       z     vdW  Elec       q    Type
                         _______ _______ _______ _____ _____    ______ ____

>  <TORSDO>
F 5

$$$$
=
 OpenBabel10262419113D

 34 40  0  0  1  0  0  0  0  0999 V2000
  187.7350  176.8570  137.0550 C   0  0  0  0  0  0  0  0  0  0  0  0
  188.8700  174.7990  136.4700 C   0  0  0  0  0  0  0  0  0  0  0  0
  189.7810  176.2180  138.2130 C   0  0  0  0  0  0  0  0  0  0  0  0
  192.2450  175.9840  138.6260 C   0  0  1  0  0  3  0  0  0  0  0  0
  186.8390  175.4690  135.3510 C   0  0  0  0  0  3  0  0  0  0  0  0
  187.8780  174.5490  135.5180 C   0  0  0  0  0  3  0  0  0  0  0  0
  191.1570  174.3290  137.3400 N   0  0  1  0  0  0  0  0  0  0  0  0
  188.7970  175.9490  137.2570 C   0  0  0  0  0  0  0  0  0  0  0  0
  192.7850  176.0880  137.2120 C   0  0  0  0  0  2  0  0  0  0  0  0
  186.7880  176.5940  136.1140 N   0  0  0  0  0  0  0  0  0  0  0  0
  189.7170  177.4100  138.9530 C   0  0  0  0  0  0  0  0  0  0  0  0
  187.6650  178.0260  137.8160 C   0  0  0  0  0  3  0  0  0  0  0  0
  189.9450  173.7820  136.7050 C   0  0  0  0  0  2  0  0  0  0  0  0
  192.1970  177.3660  139.3080 C   0  0  0  0  0  2  0  0  0  0  0  0
  190.8310  177.7590  139.8910 C   0  0  2  0  0  3  0  0  0  0  0  0
  192.0050  175.0590  136.3980 C   0  0  1  0  0  3  0  0  0  0  0  0
  190.9190  175.2430  138.4650 C   0  0  2  0  0  3  0  0  0  0  0  0
  188.6590  178.3050  138.7590 C   0  0  0  0  0  3  0  0  0  0  0  0
  189.0730  176.3750  142.9480 C   0  0  0  0  0  0  0  0  0  0  0  0
  190.1260  176.2510  143.8600 C   0  0  0  0  0  3  0  0  0  0  0  0
  190.6090  177.2390  141.2820 C   0  0  0  0  0  0  0  0  0  0  0  0
  191.4210  176.6190  143.4850 C   0  0  0  0  0  3  0  0  0  0  0  0
  189.3150  176.8670  141.6630 C   0  0  0  0  0  3  0  0  0  0  0  0
  191.6630  177.1120  142.1990 C   0  0  0  0  0  3  0  0  0  0  0  0
  187.8180  176.0170  143.3110 F   0  0  0  0  0  0  0  0  0  0  0  0
  192.9880  174.1150  135.7270 C   0  0  0  0  0  2  0  0  0  0  0  0
  193.3430  173.0380  136.6340 N   0  0  0  0  0  2  0  0  0  0  0  0
  194.7370  172.7200  136.3820 C   0  0  0  0  0  2  0  0  0  0  0  0
  195.4530  172.4390  137.6960 C   0  0  2  0  0  3  0  0  0  0  0  0
  195.3060  173.6280  138.6520 C   0  0  0  0  0  2  0  0  0  0  0  0
  197.3540  174.4800  138.2240 C   0  0  0  0  0  2  0  0  0  0  0  0
  197.7230  173.4260  137.1820 C   0  0  0  0  0  2  0  0  0  0  0  0
  196.9400  172.1450  137.4690 C   0  0  0  0  0  2  0  0  0  0  0  0
  195.9780  174.7580  138.1500 O   0  0  0  0  0  0  0  0  0  0  0  0
  1  8  2  0  0  0  0
  1 12  1  0  0  0  0
  2 13  1  0  0  0  0
  2  8  1  0  0  0  0
  3 11  2  0  0  0  0
  4  9  1  6  0  0  0
  4 14  1  0  0  0  0
  5  6  1  0  0  0  0
  5 10  2  0  0  0  0
  6  2  2  0  0  0  0
  7 13  1  6  0  0  0
  7 17  1  0  0  0  0
  8  3  1  0  0  0  0
 10  1  1  0  0  0  0
 11 15  1  0  0  0  0
 12 18  2  0  0  0  0
 14 15  1  0  0  0  0
 15 21  1  1  0  0  0
 16 26  1  1  0  0  0
 16  9  1  0  0  0  0
 16  7  1  0  0  0  0
 17  3  1  6  0  0  0
 17  4  1  0  0  0  0
 18 11  1  0  0  0  0
 19 25  1  0  0  0  0
 19 20  1  0  0  0  0
 21 23  1  0  0  0  0
 21 24  2  0  0  0  0
 22 20  2  0  0  0  0
 23 19  2  0  0  0  0
 24 22  1  0  0  0  0
 26 27  1  0  0  0  0
 28 27  1  0  0  0  0
 29 28  1  6  0  0  0
 29 30  1  0  0  0  0
 32 33  1  0  0  0  0
 32 31  1  0  0  0  0
 33 29  1  0  0  0  0
 34 31  1  0  0  0  0
 34 30  1  0  0  0  0
M  END
>  <MODEL>
3

>  <REMARK>
 VINA RESULT:      -7.0      5.453      8.193
  Name = 
  5 active torsions:
  status: ('A' for Active; 'I' for Inactive)
    1  A    between atoms: N_3  and  C_13
    2  A    between atoms: N_3  and  C_17
    3  A    between atoms: C_11  and  C_13
    4  A    between atoms: C_12  and  C_28
    5  A    between atoms: C_17  and  C_29
                            x       y       z     vdW  Elec       q    Type
                         _______ _______ _______ _____ _____    ______ ____

>  <TORSDO>
F 5

$$$$
=
 OpenBabel10262419113D

 34 40  0  0  1  0  0  0  0  0999 V2000
  179.7850  175.6360  139.8310 C   0  0  0  0  0  0  0  0  0  0  0  0
  181.4480  174.6590  138.3640 C   0  0  0  0  0  0  0  0  0  0  0  0
  181.9560  176.7090  139.5560 C   0  0  0  0  0  0  0  0  0  0  0  0
  183.7200  178.1590  138.5170 C   0  0  1  0  0  3  0  0  0  0  0  0
  179.2860  173.6280  138.6680 C   0  0  0  0  0  3  0  0  0  0  0  0
  180.5520  173.6250  138.0760 C   0  0  0  0  0  3  0  0  0  0  0  0
  183.4970  175.9360  137.7540 N   0  0  1  0  0  0  0  0  0  0  0  0
  181.0760  175.6640  139.2570 C   0  0  0  0  0  0  0  0  0  0  0  0
  183.2300  178.2250  137.0830 C   0  0  0  0  0  2  0  0  0  0  0  0
  178.9310  174.6230  139.5250 N   0  0  0  0  0  0  0  0  0  0  0  0
  181.5380  177.7400  140.4130 C   0  0  0  0  0  0  0  0  0  0  0  0
  179.3900  176.6510  140.7040 C   0  0  0  0  0  3  0  0  0  0  0  0
  182.8320  174.6220  137.7920 C   0  0  0  0  0  2  0  0  0  0  0  0
  183.1590  179.3290  139.3520 C   0  0  0  0  0  2  0  0  0  0  0  0
  182.4320  178.9190  140.6420 C   0  0  2  0  0  3  0  0  0  0  0  0
  183.0260  176.7750  136.6530 C   0  0  1  0  0  3  0  0  0  0  0  0
  183.3580  176.7460  138.9700 C   0  0  2  0  0  3  0  0  0  0  0  0
  180.2630  177.7060  140.9890 C   0  0  0  0  0  3  0  0  0  0  0  0
  183.6870  178.7650  144.2130 C   0  0  0  0  0  0  0  0  0  0  0  0
  185.0250  178.3970  144.0370 C   0  0  0  0  0  3  0  0  0  0  0  0
  183.3560  178.7350  141.8100 C   0  0  0  0  0  0  0  0  0  0  0  0
  185.5300  178.1970  142.7500 C   0  0  0  0  0  3  0  0  0  0  0  0
  182.8560  178.9320  143.1020 C   0  0  0  0  0  3  0  0  0  0  0  0
  184.6990  178.3660  141.6380 C   0  0  0  0  0  3  0  0  0  0  0  0
  183.1970  178.9580  145.4610 F   0  0  0  0  0  0  0  0  0  0  0  0
  183.8430  176.5140  135.3980 C   0  0  0  0  0  2  0  0  0  0  0  0
  184.9990  177.3940  135.3650 N   0  0  0  0  0  2  0  0  0  0  0  0
  186.1590  176.5710  135.6570 C   0  0  0  0  0  2  0  0  0  0  0  0
  187.3950  177.4470  135.8020 C   0  0  2  0  0  3  0  0  0  0  0  0
  188.6310  176.5890  136.0950 C   0  0  0  0  0  2  0  0  0  0  0  0
  188.6260  176.9860  138.3190 C   0  0  0  0  0  2  0  0  0  0  0  0
  187.3640  177.8480  138.2980 C   0  0  0  0  0  2  0  0  0  0  0  0
  187.2170  178.4840  136.9160 C   0  0  0  0  0  2  0  0  0  0  0  0
  188.5210  175.9690  137.3540 O   0  0  0  0  0  0  0  0  0  0  0  0
  1 12  1  0  0  0  0
  2  8  1  0  0  0  0
  3 11  2  0  0  0  0
  4  9  1  6  0  0  0
  4 17  1  0  0  0  0
  4 14  1  0  0  0  0
  5 10  2  0  0  0  0
  6  2  2  0  0  0  0
  6  5  1  0  0  0  0
  7 13  1  1  0  0  0
  7 17  1  0  0  0  0
  8  3  1  0  0  0  0
  8  1  2  0  0  0  0
 10  1  1  0  0  0  0
 11 15  1  0  0  0  0
 11 18  1  0  0  0  0
 12 18  2  0  0  0  0
 13  2  1  0  0  0  0
 14 15  1  0  0  0  0
 15 21  1  1  0  0  0
 16 26  1  6  0  0  0
 16  9  1  0  0  0  0
 16  7  1  0  0  0  0
 17  3  1  6  0  0  0
 19 25  1  0  0  0  0
 20 19  1  0  0  0  0
 21 23  1  0  0  0  0
 22 20  2  0  0  0  0
 23 19  2  0  0  0  0
 24 21  2  0  0  0  0
 24 22  1  0  0  0  0
 27 26  1  0  0  0  0
 27 28  1  0  0  0  0
 29 28  1  1  0  0  0
 29 30  1  0  0  0  0
 29 33  1  0  0  0  0
 30 34  1  0  0  0  0
 32 31  1  0  0  0  0
 33 32  1  0  0  0  0
 34 31  1  0  0  0  0
M  END
>  <MODEL>
4

>  <REMARK>
 VINA RESULT:      -7.0      2.013      3.085
  Name = 
  5 active torsions:
  status: ('A' for Active; 'I' for Inactive)
    1  A    between atoms: N_3  and  C_13
    2  A    between atoms: N_3  and  C_17
    3  A    between atoms: C_11  and  C_13
    4  A    between atoms: C_12  and  C_28
    5  A    between atoms: C_17  and  C_29
                            x       y       z     vdW  Elec       q    Type
                         _______ _______ _______ _____ _____    ______ ____

>  <TORSDO>
F 5

$$$$
=
 OpenBabel10262419113D

 34 40  0  0  1  0  0  0  0  0999 V2000
  191.2940  177.3910  143.5740 C   0  0  0  0  0  0  0  0  0  0  0  0
  189.0140  176.8920  144.2250 C   0  0  0  0  0  0  0  0  0  0  0  0
  189.5330  177.3040  141.8910 C   0  0  0  0  0  0  0  0  0  0  0  0
  187.6210  178.1090  140.4800 C   0  0  1  0  0  3  0  0  0  0  0  0
  190.7900  176.9860  145.8570 C   0  0  0  0  0  3  0  0  0  0  0  0
  189.4420  176.7800  145.5500 C   0  0  0  0  0  3  0  0  0  0  0  0
  187.1460  177.1960  142.6050 N   0  0  1  0  0  0  0  0  0  0  0  0
  189.9420  177.1840  143.2230 C   0  0  0  0  0  0  0  0  0  0  0  0
  187.0820  179.2360  141.3410 C   0  0  0  0  0  2  0  0  0  0  0  0
  191.6800  177.2860  144.8730 N   0  0  0  0  0  0  0  0  0  0  0  0
  190.4740  177.6550  140.9100 C   0  0  0  0  0  0  0  0  0  0  0  0
  192.2260  177.7120  142.5850 C   0  0  0  0  0  3  0  0  0  0  0  0
  187.5860  176.5990  143.8780 C   0  0  0  0  0  2  0  0  0  0  0  0
  188.6670  178.6280  139.4730 C   0  0  0  0  0  2  0  0  0  0  0  0
  190.0190  177.9010  139.5040 C   0  0  2  0  0  3  0  0  0  0  0  0
  186.8610  178.6260  142.7230 C   0  0  1  0  0  3  0  0  0  0  0  0
  188.0880  177.0600  141.4880 C   0  0  2  0  0  3  0  0  0  0  0  0
  191.8160  177.8510  141.2560 C   0  0  0  0  0  3  0  0  0  0  0  0
  191.3100  174.8000  137.7510 C   0  0  0  0  0  0  0  0  0  0  0  0
  190.1660  174.3380  137.0950 C   0  0  0  0  0  3  0  0  0  0  0  0
  190.0470  176.6630  138.6550 C   0  0  0  0  0  0  0  0  0  0  0  0
  188.9610  175.0340  137.2180 C   0  0  0  0  0  3  0  0  0  0  0  0
  191.2500  175.9590  138.5290 C   0  0  0  0  0  3  0  0  0  0  0  0
  188.9010  176.1940  137.9960 C   0  0  0  0  0  3  0  0  0  0  0  0
  192.4790  174.1240  137.6320 F   0  0  0  0  0  0  0  0  0  0  0  0
  185.4140  178.8480  143.1330 C   0  0  0  0  0  2  0  0  0  0  0  0
  184.5560  177.8780  142.4740 N   0  0  0  0  0  2  0  0  0  0  0  0
  183.4940  178.6290  141.8280 C   0  0  0  0  0  2  0  0  0  0  0  0
  183.2410  178.0780  140.4320 C   0  0  2  0  0  3  0  0  0  0  0  0
  184.1570  178.7630  139.4110 C   0  0  0  0  0  2  0  0  0  0  0  0
  182.5780  180.1930  138.6580 C   0  0  0  0  0  2  0  0  0  0  0  0
  181.4930  179.7150  139.6210 C   0  0  0  0  0  2  0  0  0  0  0  0
  181.7790  178.2660  140.0150 C   0  0  0  0  0  2  0  0  0  0  0  0
  183.8340  180.1280  139.2870 O   0  0  0  0  0  0  0  0  0  0  0  0
  1 10  2  0  0  0  0
  2  6  1  0  0  0  0
  3  8  1  0  0  0  0
  4 14  1  1  0  0  0
  4  9  1  0  0  0  0
  4 17  1  0  0  0  0
  6  5  2  0  0  0  0
  7 16  1  0  0  0  0
  7 13  1  1  0  0  0
  8  1  1  0  0  0  0
  8  2  2  0  0  0  0
  9 16  1  0  0  0  0
 10  5  1  0  0  0  0
 11 18  1  0  0  0  0
 11  3  2  0  0  0  0
 12  1  1  0  0  0  0
 13  2  1  0  0  0  0
 14 15  1  0  0  0  0
 15 21  1  6  0  0  0
 15 11  1  0  0  0  0
 16 26  1  6  0  0  0
 17  3  1  1  0  0  0
 17  7  1  0  0  0  0
 18 12  2  0  0  0  0
 19 23  1  0  0  0  0
 20 22  1  0  0  0  0
 20 19  2  0  0  0  0
 22 24  2  0  0  0  0
 23 21  2  0  0  0  0
 24 21  1  0  0  0  0
 25 19  1  0  0  0  0
 27 26  1  0  0  0  0
 28 27  1  0  0  0  0
 29 28  1  1  0  0  0
 30 29  1  0  0  0  0
 31 34  1  0  0  0  0
 31 32  1  0  0  0  0
 32 33  1  0  0  0  0
 33 29  1  0  0  0  0
 34 30  1  0  0  0  0
M  END
>  <MODEL>
5

>  <REMARK>
 VINA RESULT:      -7.0      3.479      7.829
  Name = 
  5 active torsions:
  status: ('A' for Active; 'I' for Inactive)
    1  A    between atoms: N_3  and  C_13
    2  A    between atoms: N_3  and  C_17
    3  A    between atoms: C_11  and  C_13
    4  A    between atoms: C_12  and  C_28
    5  A    between atoms: C_17  and  C_29
                            x       y       z     vdW  Elec       q    Type
                         _______ _______ _______ _____ _____    ______ ____

>  <TORSDO>
F 5

$$$$
=
 OpenBabel10262419113D

 34 40  0  0  1  0  0  0  0  0999 V2000
  184.5070  177.6930  137.6730 C   0  0  0  0  0  0  0  0  0  0  0  0
  185.8270  176.1190  136.3900 C   0  0  0  0  0  0  0  0  0  0  0  0
  186.8450  177.3080  138.2430 C   0  0  0  0  0  0  0  0  0  0  0  0
  189.3380  177.5590  138.1330 C   0  0  1  0  0  3  0  0  0  0  0  0
  183.5070  176.5300  135.8620 C   0  0  0  0  0  3  0  0  0  0  0  0
  184.7050  175.8570  135.6000 C   0  0  0  0  0  3  0  0  0  0  0  0
  188.2980  176.0100  136.6860 N   0  0  1  0  0  0  0  0  0  0  0  0
  185.7320  177.0290  137.4440 C   0  0  0  0  0  0  0  0  0  0  0  0
  189.5130  178.0800  136.7180 C   0  0  0  0  0  2  0  0  0  0  0  0
  183.4330  177.4260  136.8830 N   0  0  0  0  0  0  0  0  0  0  0  0
  186.7400  178.2700  139.2610 C   0  0  0  0  0  0  0  0  0  0  0  0
  184.4060  178.6280  138.7060 C   0  0  0  0  0  3  0  0  0  0  0  0
  187.0910  175.3470  136.1620 C   0  0  0  0  0  2  0  0  0  0  0  0
  189.2010  178.7190  139.1410 C   0  0  0  0  0  2  0  0  0  0  0  0
  187.9580  178.6570  140.0400 C   0  0  2  0  0  3  0  0  0  0  0  0
  188.7640  177.0960  135.8240 C   0  0  1  0  0  3  0  0  0  0  0  0
  188.1650  176.5870  138.0300 C   0  0  2  0  0  3  0  0  0  0  0  0
  185.5230  178.9210  139.4950 C   0  0  0  0  0  3  0  0  0  0  0  0
  189.5710  176.3150  142.5430 C   0  0  0  0  0  0  0  0  0  0  0  0
  188.5990  176.2440  143.5460 C   0  0  0  0  0  3  0  0  0  0  0  0
  188.1570  177.8200  141.2700 C   0  0  0  0  0  0  0  0  0  0  0  0
  187.4070  176.9610  143.4140 C   0  0  0  0  0  3  0  0  0  0  0  0
  189.3500  177.1010  141.4090 C   0  0  0  0  0  3  0  0  0  0  0  0
  187.1860  177.7470  142.2790 C   0  0  0  0  0  3  0  0  0  0  0  0
  190.7270  175.6200  142.6710 F   0  0  0  0  0  0  0  0  0  0  0  0
  189.7200  176.5640  134.7690 C   0  0  0  0  0  2  0  0  0  0  0  0
  190.3340  175.3310  135.2300 N   0  0  0  0  0  2  0  0  0  0  0  0
  191.7360  175.6240  135.4640 C   0  0  0  0  0  2  0  0  0  0  0  0
  192.0660  175.4480  136.9390 C   0  0  2  0  0  3  0  0  0  0  0  0
  193.1570  176.4360  137.3670 C   0  0  0  0  0  2  0  0  0  0  0  0
  194.8400  174.9310  137.2610 C   0  0  0  0  0  2  0  0  0  0  0  0
  193.9600  173.7810  136.7740 C   0  0  0  0  0  2  0  0  0  0  0  0
  192.5250  174.0170  137.2420 C   0  0  0  0  0  2  0  0  0  0  0  0
  194.3750  176.1450  136.7230 O   0  0  0  0  0  0  0  0  0  0  0  0
  1 12  1  0  0  0  0
  2  8  1  0  0  0  0
  3 11  2  0  0  0  0
  4  9  1  6  0  0  0
  4 14  1  0  0  0  0
  5 10  2  0  0  0  0
  6  5  1  0  0  0  0
  6  2  2  0  0  0  0
  7 13  1  6  0  0  0
  7 17  1  0  0  0  0
  8  1  2  0  0  0  0
  8  3  1  0  0  0  0
 10  1  1  0  0  0  0
 11 18  1  0  0  0  0
 11 15  1  0  0  0  0
 12 18  2  0  0  0  0
 13  2  1  0  0  0  0
 14 15  1  0  0  0  0
 15 21  1  1  0  0  0
 16 26  1  6  0  0  0
 16  7  1  0  0  0  0
 16  9  1  0  0  0  0
 17  4  1  0  0  0  0
 17  3  1  6  0  0  0
 19 25  1  0  0  0  0
 19 20  1  0  0  0  0
 21 23  1  0  0  0  0
 21 24  2  0  0  0  0
 22 20  2  0  0  0  0
 23 19  2  0  0  0  0
 24 22  1  0  0  0  0
 26 27  1  0  0  0  0
 27 28  1  0  0  0  0
 29 28  1  6  0  0  0
 29 33  1  0  0  0  0
 29 30  1  0  0  0  0
 32 33  1  0  0  0  0
 32 31  1  0  0  0  0
 34 31  1  0  0  0  0
 34 30  1  0  0  0  0
M  END
>  <MODEL>
6

>  <REMARK>
 VINA RESULT:      -6.8      3.456      5.458
  Name = 
  5 active torsions:
  status: ('A' for Active; 'I' for Inactive)
    1  A    between atoms: N_3  and  C_13
    2  A    between atoms: N_3  and  C_17
    3  A    between atoms: C_11  and  C_13
    4  A    between atoms: C_12  and  C_28
    5  A    between atoms: C_17  and  C_29
                            x       y       z     vdW  Elec       q    Type
                         _______ _______ _______ _____ _____    ______ ____

>  <TORSDO>
F 5

$$$$
=
 OpenBabel10262419113D

 34 40  0  0  1  0  0  0  0  0999 V2000
  179.7200  175.1630  139.2790 C   0  0  0  0  0  0  0  0  0  0  0  0
  180.8590  175.9810  137.3040 C   0  0  0  0  0  0  0  0  0  0  0  0
  180.8970  177.2950  139.3420 C   0  0  0  0  0  0  0  0  0  0  0  0
  181.2700  179.7570  139.0390 C   0  0  1  0  0  3  0  0  0  0  0  0
  179.6820  173.8730  137.2880 C   0  0  0  0  0  3  0  0  0  0  0  0
  180.4560  174.8290  136.6230 C   0  0  0  0  0  3  0  0  0  0  0  0
  181.7140  178.3190  137.2200 N   0  0  1  0  0  0  0  0  0  0  0  0
  180.5070  176.1480  138.6440 C   0  0  0  0  0  0  0  0  0  0  0  0
  180.2500  180.0720  137.9600 C   0  0  0  0  0  2  0  0  0  0  0  0
  179.3320  174.0570  138.5890 N   0  0  0  0  0  0  0  0  0  0  0  0
  180.4820  177.4680  140.6720 C   0  0  0  0  0  0  0  0  0  0  0  0
  179.3350  175.3320  140.6110 C   0  0  0  0  0  3  0  0  0  0  0  0
  181.7500  176.9730  136.6210 C   0  0  0  0  0  2  0  0  0  0  0  0
  180.6710  179.9560  140.4460 C   0  0  0  0  0  2  0  0  0  0  0  0
  180.7970  178.7470  141.3850 C   0  0  2  0  0  3  0  0  0  0  0  0
  180.5200  179.0730  136.8370 C   0  0  1  0  0  3  0  0  0  0  0  0
  181.7650  178.3560  138.6860 C   0  0  2  0  0  3  0  0  0  0  0  0
  179.7100  176.4870  141.3050 C   0  0  0  0  0  3  0  0  0  0  0  0
  183.3140  178.9140  144.2120 C   0  0  0  0  0  0  0  0  0  0  0  0
  184.5120  178.6200  143.5540 C   0  0  0  0  0  3  0  0  0  0  0  0
  182.1060  178.7010  142.1190 C   0  0  0  0  0  0  0  0  0  0  0  0
  184.5100  178.3640  142.1800 C   0  0  0  0  0  3  0  0  0  0  0  0
  182.1150  178.9540  143.4960 C   0  0  0  0  0  3  0  0  0  0  0  0
  183.3100  178.4050  141.4640 C   0  0  0  0  0  3  0  0  0  0  0  0
  183.3160  179.1600  145.5440 F   0  0  0  0  0  0  0  0  0  0  0  0
  180.7660  179.8380  135.5470 C   0  0  0  0  0  2  0  0  0  0  0  0
  179.8630  180.9730  135.4620 N   0  0  0  0  0  2  0  0  0  0  0  0
  180.6680  182.1200  135.0810 C   0  0  0  0  0  2  0  0  0  0  0  0
  179.8380  183.3920  135.1700 C   0  0  2  0  0  3  0  0  0  0  0  0
  180.7450  184.6280  135.1570 C   0  0  0  0  0  2  0  0  0  0  0  0
  180.6760  184.9480  137.3920 C   0  0  0  0  0  2  0  0  0  0  0  0
  179.8060  183.7250  137.6760 C   0  0  0  0  0  2  0  0  0  0  0  0
  178.9720  183.4070  136.4350 C   0  0  0  0  0  2  0  0  0  0  0  0
  181.5410  184.6750  136.3170 O   0  0  0  0  0  0  0  0  0  0  0  0
  1 12  1  0  0  0  0
  2  8  1  0  0  0  0
  3 11  2  0  0  0  0
  4  9  1  6  0  0  0
  4 14  1  0  0  0  0
  5 10  2  0  0  0  0
  6  5  1  0  0  0  0
  6  2  2  0  0  0  0
  7 13  1  1  0  0  0
  7 17  1  0  0  0  0
  8  1  2  0  0  0  0
  8  3  1  0  0  0  0
 10  1  1  0  0  0  0
 11 18  1  0  0  0  0
 11 15  1  0  0  0  0
 12 18  2  0  0  0  0
 13  2  1  0  0  0  0
 14 15  1  0  0  0  0
 15 21  1  6  0  0  0
 16 26  1  6  0  0  0
 16  7  1  0  0  0  0
 16  9  1  0  0  0  0
 17  4  1  0  0  0  0
 17  3  1  1  0  0  0
 19 25  1  0  0  0  0
 20 19  1  0  0  0  0
 21 23  1  0  0  0  0
 22 20  2  0  0  0  0
 23 19  2  0  0  0  0
 24 21  2  0  0  0  0
 24 22  1  0  0  0  0
 27 26  1  0  0  0  0
 28 27  1  0  0  0  0
 29 28  1  1  0  0  0
 29 33  1  0  0  0  0
 30 29  1  0  0  0  0
 30 34  1  0  0  0  0
 31 32  1  0  0  0  0
 33 32  1  0  0  0  0
 34 31  1  0  0  0  0
M  END
>  <MODEL>
7

>  <REMARK>
 VINA RESULT:      -6.8      4.320      5.970
  Name = 
  5 active torsions:
  status: ('A' for Active; 'I' for Inactive)
    1  A    between atoms: N_3  and  C_13
    2  A    between atoms: N_3  and  C_17
    3  A    between atoms: C_11  and  C_13
    4  A    between atoms: C_12  and  C_28
    5  A    between atoms: C_17  and  C_29
                            x       y       z     vdW  Elec       q    Type
                         _______ _______ _______ _____ _____    ______ ____

>  <TORSDO>
F 5

$$$$
=
 OpenBabel10262419113D

 34 40  0  0  1  0  0  0  0  0999 V2000
  186.4870  176.1280  136.4110 C   0  0  0  0  0  0  0  0  0  0  0  0
  187.4830  173.9190  136.3870 C   0  0  0  0  0  0  0  0  0  0  0  0
  188.6370  175.7440  137.4910 C   0  0  0  0  0  0  0  0  0  0  0  0
  191.1240  175.4880  137.6980 C   0  0  1  0  0  3  0  0  0  0  0  0
  185.3530  174.3440  135.3310 C   0  0  0  0  0  3  0  0  0  0  0  0
  186.3770  173.4540  135.6700 C   0  0  0  0  0  3  0  0  0  0  0  0
  189.8410  173.5920  137.1180 N   0  0  1  0  0  0  0  0  0  0  0  0
  187.5380  175.2580  136.7760 C   0  0  0  0  0  0  0  0  0  0  0  0
  191.4950  175.1150  136.2750 C   0  0  0  0  0  2  0  0  0  0  0  0
  185.4280  175.6500  135.7040 N   0  0  0  0  0  0  0  0  0  0  0  0
  188.6980  177.1070  137.8220 C   0  0  0  0  0  0  0  0  0  0  0  0
  186.5440  177.4760  136.7690 C   0  0  0  0  0  3  0  0  0  0  0  0
  188.5470  172.9560  136.8170 C   0  0  0  0  0  2  0  0  0  0  0  0
  191.1990  177.0130  137.9130 C   0  0  0  0  0  2  0  0  0  0  0  0
  189.9250  177.6550  138.4820 C   0  0  2  0  0  3  0  0  0  0  0  0
  190.5930  173.9390  135.9110 C   0  0  1  0  0  3  0  0  0  0  0  0
  189.7670  174.8210  137.9170 C   0  0  2  0  0  3  0  0  0  0  0  0
  187.6510  177.9670  137.4680 C   0  0  0  0  0  3  0  0  0  0  0  0
  190.9960  177.2760  142.0960 C   0  0  0  0  0  0  0  0  0  0  0  0
  189.8000  177.5090  142.7820 C   0  0  0  0  0  3  0  0  0  0  0  0
  189.8560  177.6060  139.9810 C   0  0  0  0  0  0  0  0  0  0  0  0
  188.6310  177.7920  142.0700 C   0  0  0  0  0  3  0  0  0  0  0  0
  191.0240  177.3250  140.7000 C   0  0  0  0  0  3  0  0  0  0  0  0
  188.6580  177.8400  140.6730 C   0  0  0  0  0  3  0  0  0  0  0  0
  192.1300  177.0030  142.7870 F   0  0  0  0  0  0  0  0  0  0  0  0
  191.4600  172.7710  135.4720 C   0  0  0  0  0  2  0  0  0  0  0  0
  192.8460  173.1920  135.3670 N   0  0  0  0  0  2  0  0  0  0  0  0
  193.6180  172.3100  136.2240 C   0  0  0  0  0  2  0  0  0  0  0  0
  195.0570  172.7980  136.3140 C   0  0  2  0  0  3  0  0  0  0  0  0
  195.8000  172.0760  137.4430 C   0  0  0  0  0  2  0  0  0  0  0  0
  195.5950  173.7670  138.9280 C   0  0  0  0  0  2  0  0  0  0  0  0
  194.7860  174.6670  137.9950 C   0  0  0  0  0  2  0  0  0  0  0  0
  195.1190  174.3120  136.5470 C   0  0  0  0  0  2  0  0  0  0  0  0
  195.2590  172.4210  138.6970 O   0  0  0  0  0  0  0  0  0  0  0  0
  1 12  2  0  0  0  0
  1  8  1  0  0  0  0
  2  8  1  0  0  0  0
  2 13  1  0  0  0  0
  3 11  1  0  0  0  0
  4  9  1  6  0  0  0
  4 14  1  0  0  0  0
  4 17  1  0  0  0  0
  5  6  1  0  0  0  0
  5 10  2  0  0  0  0
  6  2  2  0  0  0  0
  7 13  1  6  0  0  0
  7 17  1  0  0  0  0
  8  3  2  0  0  0  0
 10  1  1  0  0  0  0
 11 15  1  0  0  0  0
 12 18  1  0  0  0  0
 14 15  1  0  0  0  0
 15 21  1  1  0  0  0
 16 26  1  1  0  0  0
 16  9  1  0  0  0  0
 16  7  1  0  0  0  0
 17  3  1  6  0  0  0
 18 11  2  0  0  0  0
 19 20  1  0  0  0  0
 19 25  1  0  0  0  0
 21 24  2  0  0  0  0
 21 23  1  0  0  0  0
 22 20  2  0  0  0  0
 23 19  2  0  0  0  0
 24 22  1  0  0  0  0
 27 26  1  0  0  0  0
 27 28  1  0  0  0  0
 29 28  1  1  0  0  0
 29 33  1  0  0  0  0
 29 30  1  0  0  0  0
 30 34  1  0  0  0  0
 32 31  1  0  0  0  0
 33 32  1  0  0  0  0
 34 31  1  0  0  0  0
M  END
>  <MODEL>
8

>  <REMARK>
 VINA RESULT:      -6.7      5.165      7.706
  Name = 
  5 active torsions:
  status: ('A' for Active; 'I' for Inactive)
    1  A    between atoms: N_3  and  C_13
    2  A    between atoms: N_3  and  C_17
    3  A    between atoms: C_11  and  C_13
    4  A    between atoms: C_12  and  C_28
    5  A    between atoms: C_17  and  C_29
                            x       y       z     vdW  Elec       q    Type
                         _______ _______ _______ _____ _____    ______ ____

>  <TORSDO>
F 5

$$$$
=
 OpenBabel10262419113D

 34 40  0  0  1  0  0  0  0  0999 V2000
  182.4350  178.8840  142.3940 C   0  0  0  0  0  0  0  0  0  0  0  0
  184.5610  178.8190  141.2340 C   0  0  0  0  0  0  0  0  0  0  0  0
  182.5260  179.2560  139.9870 C   0  0  0  0  0  0  0  0  0  0  0  0
  182.6060  178.6840  137.5460 C   0  0  1  0  0  3  0  0  0  0  0  0
  184.4240  178.4600  143.6170 C   0  0  0  0  0  3  0  0  0  0  0  0
  185.1920  178.5610  142.4530 C   0  0  0  0  0  3  0  0  0  0  0  0
  184.6380  178.7890  138.7440 N   0  0  1  0  0  0  0  0  0  0  0  0
  183.1770  178.9990  141.1980 C   0  0  0  0  0  0  0  0  0  0  0  0
  183.1690  177.2750  137.5990 C   0  0  0  0  0  2  0  0  0  0  0  0
  183.0740  178.6210  143.5650 N   0  0  0  0  0  0  0  0  0  0  0  0
  181.1280  179.3750  139.9670 C   0  0  0  0  0  0  0  0  0  0  0  0
  181.0470  179.0330  142.3670 C   0  0  0  0  0  3  0  0  0  0  0  0
  185.3850  179.0030  139.9960 C   0  0  0  0  0  2  0  0  0  0  0  0
  181.0640  178.6690  137.5650 C   0  0  0  0  0  2  0  0  0  0  0  0
  180.4170  179.5310  138.6580 C   0  0  2  0  0  3  0  0  0  0  0  0
  184.4360  177.3720  138.4440 C   0  0  1  0  0  3  0  0  0  0  0  0
  183.3080  179.4080  138.6930 C   0  0  2  0  0  3  0  0  0  0  0  0
  180.3930  179.2710  141.1540 C   0  0  0  0  0  3  0  0  0  0  0  0
  180.6290  182.7200  136.6240 C   0  0  0  0  0  0  0  0  0  0  0  0
  179.9420  183.6300  137.4340 C   0  0  0  0  0  3  0  0  0  0  0  0
  180.2420  180.9660  138.2550 C   0  0  0  0  0  0  0  0  0  0  0  0
  179.4040  183.2110  138.6530 C   0  0  0  0  0  3  0  0  0  0  0  0
  180.7770  181.3930  137.0330 C   0  0  0  0  0  3  0  0  0  0  0  0
  179.5530  181.8820  139.0630 C   0  0  0  0  0  3  0  0  0  0  0  0
  181.1500  183.1270  135.4410 F   0  0  0  0  0  0  0  0  0  0  0  0
  185.6060  176.8280  137.6400 C   0  0  0  0  0  2  0  0  0  0  0  0
  186.6370  177.8430  137.5130 N   0  0  0  0  0  2  0  0  0  0  0  0
  187.8730  177.1470  137.2010 C   0  0  0  0  0  2  0  0  0  0  0  0
  189.0670  177.9850  137.6350 C   0  0  2  0  0  3  0  0  0  0  0  0
  190.3340  177.1250  137.6940 C   0  0  0  0  0  2  0  0  0  0  0  0
  190.2760  176.8410  139.9350 C   0  0  0  0  0  2  0  0  0  0  0  0
  188.9790  177.6220  140.1350 C   0  0  0  0  0  2  0  0  0  0  0  0
  188.8260  178.6350  139.0020 C   0  0  0  0  0  2  0  0  0  0  0  0
  190.2320  176.1540  138.7080 O   0  0  0  0  0  0  0  0  0  0  0  0
  1 10  2  0  0  0  0
  2  6  1  0  0  0  0
  3  8  1  0  0  0  0
  4 14  1  1  0  0  0
  4  9  1  0  0  0  0
  4 17  1  0  0  0  0
  6  5  2  0  0  0  0
  7 13  1  1  0  0  0
  8  2  2  0  0  0  0
  8  1  1  0  0  0  0
  9 16  1  0  0  0  0
 10  5  1  0  0  0  0
 11  3  2  0  0  0  0
 11 18  1  0  0  0  0
 12  1  1  0  0  0  0
 13  2  1  0  0  0  0
 14 15  1  0  0  0  0
 15 21  1  6  0  0  0
 15 11  1  0  0  0  0
 16 26  1  6  0  0  0
 16  7  1  0  0  0  0
 17  7  1  0  0  0  0
 17  3  1  1  0  0  0
 18 12  2  0  0  0  0
 19 23  2  0  0  0  0
 19 20  1  0  0  0  0
 20 22  2  0  0  0  0
 21 24  2  0  0  0  0
 22 24  1  0  0  0  0
 23 21  1  0  0  0  0
 25 19  1  0  0  0  0
 27 26  1  0  0  0  0
 28 27  1  0  0  0  0
 29 28  1  1  0  0  0
 29 30  1  0  0  0  0
 29 33  1  0  0  0  0
 30 34  1  0  0  0  0
 31 32  1  0  0  0  0
 33 32  1  0  0  0  0
 34 31  1  0  0  0  0
M  END
>  <MODEL>
9

>  <REMARK>
 VINA RESULT:      -6.6      3.596      5.785
  Name = 
  5 active torsions:
  status: ('A' for Active; 'I' for Inactive)
    1  A    between atoms: N_3  and  C_13
    2  A    between atoms: N_3  and  C_17
    3  A    between atoms: C_11  and  C_13
    4  A    between atoms: C_12  and  C_28
    5  A    between atoms: C_17  and  C_29
                            x       y       z     vdW  Elec       q    Type
                         _______ _______ _______ _____ _____    ______ ____

>  <TORSDO>
F 5

$$$$
