=
 OpenBabel10262421033D

 32 34  0  0  1  0  0  0  0  0999 V2000
  182.6000  177.9820  137.9720 C   0  0  2  0  0  3  0  0  0  0  0  0
  182.9090  175.4210  137.6790 C   0  0  2  0  0  3  0  0  0  0  0  0
  182.4000  176.7420  137.0740 C   0  0  2  0  0  3  0  0  0  0  0  0
  184.3830  175.1370  137.3160 C   0  0  1  0  0  3  0  0  0  0  0  0
  182.3320  173.4020  136.2030 C   0  0  1  0  0  3  0  0  0  0  0  0
  183.6410  172.6140  136.4400 C   0  0  2  0  0  3  0  0  0  0  0  0
  182.8310  176.9330  135.7400 O   0  0  0  0  0  0  0  0  0  0  0  0
  184.8180  173.3870  137.6370 S   0  0  0  0  0  0  0  0  0  0  0  0
  184.2360  176.9020  135.7150 C   0  0  0  0  0  2  0  0  0  0  0  0
  181.9340  174.2710  137.3950 C   0  0  0  0  0  2  0  0  0  0  0  0
  184.7090  175.5360  135.9380 N   0  0  0  0  0  0  0  0  0  0  0  0
  182.3700  174.1600  135.0290 O   0  0  0  0  0  1  0  0  0  0  0  0
  184.3340  172.1480  135.1480 C   0  0  0  0  0  3  0  0  0  0  0  0
  185.7980  171.8250  135.3970 C   0  0  0  0  0  1  0  0  0  0  0  0
  183.6700  170.8990  134.5970 C   0  0  0  0  0  1  0  0  0  0  0  0
  186.1590  175.4970  135.7090 C   0  0  0  0  0  2  0  0  0  0  0  0
  186.9410  176.4820  136.5780 C   0  0  0  0  0  1  0  0  0  0  0  0
  182.2840  177.5980  139.4260 C   0  0  1  0  0  3  0  0  0  0  0  0
  183.3290  178.0170  140.4730 C   0  0  2  0  0  3  0  0  0  0  0  0
  182.0450  178.8040  140.3180 C   0  0  2  0  0  3  0  0  0  0  0  0
  184.2180  180.2540  139.2540 O   0  0  0  0  0  0  0  0  0  0  0  0
  185.5010  178.2120  138.9080 O   0  0  0  0  0  0  0  0  0  0  0  0
  184.7260  179.0100  139.9200 S   0  0  0  0  0  0  0  0  0  0  0  0
  186.9560  178.6170  141.1800 C   0  0  0  0  0  1  0  0  0  0  0  0
  185.7740  179.4630  141.2280 N   0  0  0  0  0  2  0  0  0  0  0  0
  181.0900  178.4220  141.4320 C   0  0  0  0  0  2  0  0  0  0  0  0
  181.2460  179.3720  142.6050 C   0  0  0  0  0  2  0  0  0  0  0  0
  182.8790  178.9640  144.0300 C   0  0  0  0  0  1  0  0  0  0  0  0
  181.5460  178.6560  143.7650 O   0  0  0  0  0  0  0  0  0  0  0  0
  181.6400  179.0930  137.5330 C   0  0  0  0  0  2  0  0  0  0  0  0
  179.3090  178.9260  138.0470 O   0  0  0  0  0  1  0  0  0  0  0  0
  180.2810  178.5500  137.1190 C   0  0  0  0  0  2  0  0  0  0  0  0
  1 30  1  6  0  0  0
  2 10  1  6  0  0  0
  3  2  1  0  0  0  0
  3  1  1  1  0  0  0
  4  8  1  6  0  0  0
  4  2  1  0  0  0  0
  5 12  1  6  0  0  0
  5  6  1  0  0  0  0
  5 10  1  0  0  0  0
  6 13  1  6  0  0  0
  6  8  1  0  0  0  0
  7  3  1  0  0  0  0
  9  7  1  0  0  0  0
  9 11  1  0  0  0  0
 11  4  1  0  0  0  0
 13 14  1  0  0  0  0
 15 13  1  0  0  0  0
 16 11  1  0  0  0  0
 16 17  1  0  0  0  0
 18  1  1  6  0  0  0
 18 20  1  0  0  0  0
 18 19  1  0  0  0  0
 19 23  1  6  0  0  0
 20 19  1  0  0  0  0
 20 26  1  1  0  0  0
 21 23  2  0  0  0  0
 22 23  2  0  0  0  0
 23 25  1  0  0  0  0
 24 25  1  0  0  0  0
 26 27  1  0  0  0  0
 27 29  1  0  0  0  0
 29 28  1  0  0  0  0
 32 30  1  0  0  0  0
 32 31  1  0  0  0  0
M  END
>  <MODEL>
1

>  <REMARK>
 VINA RESULT:      -4.5      0.000      0.000
  Name = 
  11 active torsions:
  status: ('A' for Active; 'I' for Inactive)
    1  A    between atoms: C_1  and  C_4
    2  A    between atoms: C_1  and  C_5
    3  A    between atoms: C_1  and  C_16
    4  A    between atoms: C_4  and  C_30
    5  A    between atoms: C_9  and  C_12
    6  A    between atoms: C_13  and  N_29
    7  A    between atoms: S_15  and  C_20
    8  A    between atoms: S_15  and  N_26
    9  A    between atoms: O_22  and  C_23
   10  A    between atoms: C_23  and  C_24
   11  A    between atoms: C_24  and  C_27
                            x       y       z     vdW  Elec       q    Type
                         _______ _______ _______ _____ _____    ______ ____

>  <TORSDO>
F 11

$$$$
=
 OpenBabel10262421033D

 32 34  0  0  1  0  0  0  0  0999 V2000
  189.7240  177.1590  138.4520 C   0  0  2  0  0  3  0  0  0  0  0  0
  190.0610  176.7490  140.9940 C   0  0  2  0  0  3  0  0  0  0  0  0
  190.0720  177.7590  139.8320 C   0  0  2  0  0  3  0  0  0  0  0  0
  188.6760  176.6420  141.6670 C   0  0  1  0  0  3  0  0  0  0  0  0
  190.8610  177.8050  143.1930 C   0  0  1  0  0  3  0  0  0  0  0  0
  189.8820  177.0590  144.1280 C   0  0  2  0  0  3  0  0  0  0  0  0
  189.3570  178.9430  140.1310 O   0  0  0  0  0  0  0  0  0  0  0  0
  188.7950  175.8170  143.2980 S   0  0  0  0  0  0  0  0  0  0  0  0
  188.0330  178.5970  140.4550 C   0  0  0  0  0  2  0  0  0  0  0  0
  191.2340  176.9960  141.9520 C   0  0  0  0  0  2  0  0  0  0  0  0
  187.9960  177.9430  141.7630 N   0  0  0  0  0  0  0  0  0  0  0  0
  190.3970  179.0740  142.8340 O   0  0  0  0  0  1  0  0  0  0  0  0
  189.1030  177.9810  145.0820 C   0  0  0  0  0  3  0  0  0  0  0  0
  187.6690  177.5080  145.2520 C   0  0  0  0  0  1  0  0  0  0  0  0
  189.7490  178.0090  146.4560 C   0  0  0  0  0  1  0  0  0  0  0  0
  186.5930  177.7740  142.1640 C   0  0  0  0  0  2  0  0  0  0  0  0
  185.6690  178.8680  141.6280 C   0  0  0  0  0  1  0  0  0  0  0  0
  190.7800  176.1020  138.0910 C   0  0  1  0  0  3  0  0  0  0  0  0
  190.2560  174.8490  137.3700 C   0  0  2  0  0  3  0  0  0  0  0  0
  190.9640  175.9380  136.5930 C   0  0  2  0  0  3  0  0  0  0  0  0
  188.3250  175.5200  135.6090 O   0  0  0  0  0  0  0  0  0  0  0  0
  187.7310  175.5310  137.9710 O   0  0  0  0  0  0  0  0  0  0  0  0
  188.5150  174.8050  136.9140 S   0  0  0  0  0  0  0  0  0  0  0  0
  186.5410  173.1580  137.2350 C   0  0  0  0  0  1  0  0  0  0  0  0
  187.9130  173.1840  136.7560 N   0  0  0  0  0  2  0  0  0  0  0  0
  192.3880  175.5000  136.3070 C   0  0  0  0  0  2  0  0  0  0  0  0
  193.3640  176.3150  137.1360 C   0  0  0  0  0  2  0  0  0  0  0  0
  194.3320  174.4810  137.8870 C   0  0  0  0  0  1  0  0  0  0  0  0
  194.5970  175.6660  137.2010 O   0  0  0  0  0  0  0  0  0  0  0  0
  189.7470  178.2640  137.3920 C   0  0  0  0  0  2  0  0  0  0  0  0
  187.9320  179.7830  137.0480 O   0  0  0  0  0  1  0  0  0  0  0  0
  188.3810  178.4930  136.7660 C   0  0  0  0  0  2  0  0  0  0  0  0
  1 30  1  6  0  0  0
  2  4  1  0  0  0  0
  2 10  1  1  0  0  0
  3  1  1  6  0  0  0
  3  7  1  0  0  0  0
  3  2  1  0  0  0  0
  4 11  1  0  0  0  0
  4  8  1  1  0  0  0
  5 12  1  6  0  0  0
  5  6  1  0  0  0  0
  6 13  1  6  0  0  0
  7  9  1  0  0  0  0
  8  6  1  0  0  0  0
  9 11  1  0  0  0  0
 10  5  1  0  0  0  0
 11 16  1  0  0  0  0
 13 14  1  0  0  0  0
 13 15  1  0  0  0  0
 17 16  1  0  0  0  0
 18  1  1  6  0  0  0
 19 23  1  6  0  0  0
 19 18  1  0  0  0  0
 20 26  1  1  0  0  0
 20 19  1  0  0  0  0
 20 18  1  0  0  0  0
 21 23  2  0  0  0  0
 23 22  2  0  0  0  0
 25 23  1  0  0  0  0
 25 24  1  0  0  0  0
 26 27  1  0  0  0  0
 27 29  1  0  0  0  0
 29 28  1  0  0  0  0
 32 31  1  0  0  0  0
 32 30  1  0  0  0  0
M  END
>  <MODEL>
2

>  <REMARK>
 VINA RESULT:      -4.5      4.712      9.653
  Name = 
  11 active torsions:
  status: ('A' for Active; 'I' for Inactive)
    1  A    between atoms: C_1  and  C_4
    2  A    between atoms: C_1  and  C_5
    3  A    between atoms: C_1  and  C_16
    4  A    between atoms: C_4  and  C_30
    5  A    between atoms: C_9  and  C_12
    6  A    between atoms: C_13  and  N_29
    7  A    between atoms: S_15  and  C_20
    8  A    between atoms: S_15  and  N_26
    9  A    between atoms: O_22  and  C_23
   10  A    between atoms: C_23  and  C_24
   11  A    between atoms: C_24  and  C_27
                            x       y       z     vdW  Elec       q    Type
                         _______ _______ _______ _____ _____    ______ ____

>  <TORSDO>
F 11

$$$$
=
 OpenBabel10262421033D

 32 34  0  0  1  0  0  0  0  0999 V2000
  188.8350  177.5230  138.4730 C   0  0  2  0  0  3  0  0  0  0  0  0
  189.9040  176.9090  140.7580 C   0  0  2  0  0  3  0  0  0  0  0  0
  189.5310  178.0200  139.7600 C   0  0  2  0  0  3  0  0  0  0  0  0
  188.7760  176.6280  141.7740 C   0  0  1  0  0  3  0  0  0  0  0  0
  191.2420  177.8180  142.7510 C   0  0  1  0  0  3  0  0  0  0  0  0
  190.6110  176.9120  143.8330 C   0  0  2  0  0  3  0  0  0  0  0  0
  188.8710  179.1080  140.3760 O   0  0  0  0  0  0  0  0  0  0  0  0
  189.3980  175.6680  143.2040 S   0  0  0  0  0  0  0  0  0  0  0  0
  187.7140  178.6280  141.0150 C   0  0  0  0  0  2  0  0  0  0  0  0
  191.2870  177.1600  141.3730 C   0  0  0  0  0  2  0  0  0  0  0  0
  188.0850  177.8550  142.2000 N   0  0  0  0  0  0  0  0  0  0  0  0
  190.6300  179.0720  142.6800 O   0  0  0  0  0  1  0  0  0  0  0  0
  190.0900  177.6750  145.0630 C   0  0  0  0  0  3  0  0  0  0  0  0
  188.7560  177.1170  145.5300 C   0  0  0  0  0  1  0  0  0  0  0  0
  191.0680  177.5710  146.2190 C   0  0  0  0  0  1  0  0  0  0  0  0
  186.8650  177.5360  142.9540 C   0  0  0  0  0  2  0  0  0  0  0  0
  185.6090  178.2000  142.3910 C   0  0  0  0  0  1  0  0  0  0  0  0
  189.0960  176.0160  138.3190 C   0  0  1  0  0  3  0  0  0  0  0  0
  187.9960  175.2150  137.6030 C   0  0  2  0  0  3  0  0  0  0  0  0
  189.2670  175.5910  136.8710 C   0  0  2  0  0  3  0  0  0  0  0  0
  185.4950  175.1660  136.5920 O   0  0  0  0  0  0  0  0  0  0  0  0
  187.0500  176.7800  135.6380 O   0  0  0  0  0  0  0  0  0  0  0  0
  186.6020  176.1250  136.9150 S   0  0  0  0  0  0  0  0  0  0  0  0
  184.5770  177.5080  137.7500 C   0  0  0  0  0  1  0  0  0  0  0  0
  185.9970  177.3320  138.0050 N   0  0  0  0  0  2  0  0  0  0  0  0
  190.1800  174.3820  136.8090 C   0  0  0  0  0  2  0  0  0  0  0  0
  191.5060  174.6900  137.4820 C   0  0  0  0  0  2  0  0  0  0  0  0
  192.7960  176.4440  137.8350 C   0  0  0  0  0  1  0  0  0  0  0  0
  192.1460  175.7400  136.8220 O   0  0  0  0  0  0  0  0  0  0  0  0
  189.4200  178.2530  137.2600 C   0  0  0  0  0  2  0  0  0  0  0  0
  187.5930  179.7360  136.8290 O   0  0  0  0  0  1  0  0  0  0  0  0
  188.9450  179.6950  137.1700 C   0  0  0  0  0  2  0  0  0  0  0  0
  1 30  1  6  0  0  0
  2 10  1  1  0  0  0
  2  4  1  0  0  0  0
  3  1  1  6  0  0  0
  3  7  1  0  0  0  0
  3  2  1  0  0  0  0
  4 11  1  0  0  0  0
  4  8  1  1  0  0  0
  5 12  1  6  0  0  0
  5  6  1  0  0  0  0
  6 13  1  1  0  0  0
  7  9  1  0  0  0  0
  8  6  1  0  0  0  0
  9 11  1  0  0  0  0
 10  5  1  0  0  0  0
 11 16  1  0  0  0  0
 13 14  1  0  0  0  0
 13 15  1  0  0  0  0
 17 16  1  0  0  0  0
 18  1  1  6  0  0  0
 19 23  1  6  0  0  0
 19 18  1  0  0  0  0
 20 26  1  1  0  0  0
 20 19  1  0  0  0  0
 20 18  1  0  0  0  0
 21 23  2  0  0  0  0
 22 23  2  0  0  0  0
 23 25  1  0  0  0  0
 24 25  1  0  0  0  0
 26 27  1  0  0  0  0
 29 27  1  0  0  0  0
 29 28  1  0  0  0  0
 31 32  1  0  0  0  0
 32 30  1  0  0  0  0
M  END
>  <MODEL>
3

>  <REMARK>
 VINA RESULT:      -4.4      4.134      9.080
  Name = 
  11 active torsions:
  status: ('A' for Active; 'I' for Inactive)
    1  A    between atoms: C_1  and  C_4
    2  A    between atoms: C_1  and  C_5
    3  A    between atoms: C_1  and  C_16
    4  A    between atoms: C_4  and  C_30
    5  A    between atoms: C_9  and  C_12
    6  A    between atoms: C_13  and  N_29
    7  A    between atoms: S_15  and  C_20
    8  A    between atoms: S_15  and  N_26
    9  A    between atoms: O_22  and  C_23
   10  A    between atoms: C_23  and  C_24
   11  A    between atoms: C_24  and  C_27
                            x       y       z     vdW  Elec       q    Type
                         _______ _______ _______ _____ _____    ______ ____

>  <TORSDO>
F 11

$$$$
=
 OpenBabel10262421033D

 32 34  0  0  1  0  0  0  0  0999 V2000
  188.9010  176.3810  136.1880 C   0  0  2  0  0  3  0  0  0  0  0  0
  186.6300  175.4320  137.0120 C   0  0  2  0  0  3  0  0  0  0  0  0
  187.3970  176.1740  135.9030 C   0  0  2  0  0  3  0  0  0  0  0  0
  186.6250  173.9020  136.8030 C   0  0  1  0  0  3  0  0  0  0  0  0
  184.1090  175.3350  136.5350 C   0  0  1  0  0  3  0  0  0  0  0  0
  183.8670  173.9100  137.0840 C   0  0  2  0  0  3  0  0  0  0  0  0
  187.1320  175.6550  134.6140 O   0  0  0  0  0  0  0  0  0  0  0  0
  185.3450  173.0970  137.8370 S   0  0  0  0  0  0  0  0  0  0  0  0
  187.4690  174.2900  134.6030 C   0  0  0  0  0  2  0  0  0  0  0  0
  185.2500  176.0620  137.2450 C   0  0  0  0  0  2  0  0  0  0  0  0
  186.4940  173.5300  135.3850 N   0  0  0  0  0  0  0  0  0  0  0  0
  184.2990  175.3500  135.1510 O   0  0  0  0  0  1  0  0  0  0  0  0
  183.1150  172.9850  136.1120 C   0  0  0  0  0  3  0  0  0  0  0  0
  183.3110  171.5240  136.4840 C   0  0  0  0  0  1  0  0  0  0  0  0
  181.6250  173.2730  136.1320 C   0  0  0  0  0  1  0  0  0  0  0  0
  186.7520  172.0960  135.1930 C   0  0  0  0  0  2  0  0  0  0  0  0
  188.1200  171.6480  135.7080 C   0  0  0  0  0  1  0  0  0  0  0  0
  189.1940  175.9580  137.6360 C   0  0  1  0  0  3  0  0  0  0  0  0
  190.4170  175.0480  137.8350 C   0  0  2  0  0  3  0  0  0  0  0  0
  190.5010  176.5230  138.1650 C   0  0  2  0  0  3  0  0  0  0  0  0
  190.5830  174.0960  135.3160 O   0  0  0  0  0  0  0  0  0  0  0  0
  192.4660  173.6590  136.7970 O   0  0  0  0  0  0  0  0  0  0  0  0
  191.4390  174.6820  136.3990 S   0  0  0  0  0  0  0  0  0  0  0  0
  193.6710  175.8540  135.7970 C   0  0  0  0  0  1  0  0  0  0  0  0
  192.2370  176.0940  135.7780 N   0  0  0  0  0  2  0  0  0  0  0  0
  190.3980  176.7030  139.6670 C   0  0  0  0  0  2  0  0  0  0  0  0
  189.0880  177.3810  140.0250 C   0  0  0  0  0  2  0  0  0  0  0  0
  189.9420  176.6280  141.9150 C   0  0  0  0  0  1  0  0  0  0  0  0
  188.7630  177.1230  141.3580 O   0  0  0  0  0  0  0  0  0  0  0  0
  189.2550  177.8620  136.0240 C   0  0  0  0  0  2  0  0  0  0  0  0
  188.8820  179.7600  137.4320 O   0  0  0  0  0  1  0  0  0  0  0  0
  188.2350  178.7750  136.6860 C   0  0  0  0  0  2  0  0  0  0  0  0
  1 30  1  1  0  0  0
  2 10  1  6  0  0  0
  3  1  1  1  0  0  0
  3  2  1  0  0  0  0
  4  2  1  0  0  0  0
  4  8  1  1  0  0  0
  5 12  1  6  0  0  0
  5  6  1  0  0  0  0
  5 10  1  0  0  0  0
  6 13  1  6  0  0  0
  6  8  1  0  0  0  0
  7  3  1  0  0  0  0
  9  7  1  0  0  0  0
  9 11  1  0  0  0  0
 11  4  1  0  0  0  0
 13 15  1  0  0  0  0
 13 14  1  0  0  0  0
 16 11  1  0  0  0  0
 16 17  1  0  0  0  0
 18  1  1  6  0  0  0
 18 19  1  0  0  0  0
 18 20  1  0  0  0  0
 19 23  1  6  0  0  0
 19 20  1  0  0  0  0
 20 26  1  1  0  0  0
 21 23  2  0  0  0  0
 23 22  2  0  0  0  0
 25 24  1  0  0  0  0
 25 23  1  0  0  0  0
 26 27  1  0  0  0  0
 27 29  1  0  0  0  0
 29 28  1  0  0  0  0
 30 32  1  0  0  0  0
 32 31  1  0  0  0  0
M  END
>  <MODEL>
4

>  <REMARK>
 VINA RESULT:      -4.4      4.262      6.476
  Name = 
  11 active torsions:
  status: ('A' for Active; 'I' for Inactive)
    1  A    between atoms: C_1  and  C_4
    2  A    between atoms: C_1  and  C_5
    3  A    between atoms: C_1  and  C_16
    4  A    between atoms: C_4  and  C_30
    5  A    between atoms: C_9  and  C_12
    6  A    between atoms: C_13  and  N_29
    7  A    between atoms: S_15  and  C_20
    8  A    between atoms: S_15  and  N_26
    9  A    between atoms: O_22  and  C_23
   10  A    between atoms: C_23  and  C_24
   11  A    between atoms: C_24  and  C_27
                            x       y       z     vdW  Elec       q    Type
                         _______ _______ _______ _____ _____    ______ ____

>  <TORSDO>
F 11

$$$$
=
 OpenBabel10262421033D

 32 34  0  0  1  0  0  0  0  0999 V2000
  181.8560  178.3070  138.9660 C   0  0  2  0  0  3  0  0  0  0  0  0
  181.5410  175.7900  138.4090 C   0  0  2  0  0  3  0  0  0  0  0  0
  180.9450  177.2090  138.3720 C   0  0  2  0  0  3  0  0  0  0  0  0
  182.3510  175.4590  137.1370 C   0  0  1  0  0  3  0  0  0  0  0  0
  179.8640  174.0230  137.5980 C   0  0  1  0  0  3  0  0  0  0  0  0
  180.8810  173.1260  136.8550 C   0  0  2  0  0  3  0  0  0  0  0  0
  180.4100  177.5440  137.1060 O   0  0  0  0  0  0  0  0  0  0  0  0
  182.6450  173.6570  136.9910 S   0  0  0  0  0  0  0  0  0  0  0  0
  181.4270  177.4230  136.1430 C   0  0  0  0  0  2  0  0  0  0  0  0
  180.4760  174.7540  138.7920 C   0  0  0  0  0  2  0  0  0  0  0  0
  181.7370  176.0110  135.9200 N   0  0  0  0  0  0  0  0  0  0  0  0
  179.2220  174.9240  136.7440 O   0  0  0  0  0  1  0  0  0  0  0  0
  180.4760  172.7870  135.4100 C   0  0  0  0  0  3  0  0  0  0  0  0
  181.6780  172.3390  134.5950 C   0  0  0  0  0  1  0  0  0  0  0  0
  179.4520  171.6670  135.3810 C   0  0  0  0  0  1  0  0  0  0  0  0
  182.6520  175.9060  134.7750 C   0  0  0  0  0  2  0  0  0  0  0  0
  183.9240  176.7400  134.9330 C   0  0  0  0  0  1  0  0  0  0  0  0
  182.3470  177.8480  140.3490 C   0  0  1  0  0  3  0  0  0  0  0  0
  183.8590  177.9650  140.5970 C   0  0  2  0  0  3  0  0  0  0  0  0
  182.9070  178.9840  141.1850 C   0  0  2  0  0  3  0  0  0  0  0  0
  184.5330  180.1950  139.2350 O   0  0  0  0  0  0  0  0  0  0  0  0
  184.5250  178.0950  138.0000 O   0  0  0  0  0  0  0  0  0  0  0  0
  184.8660  178.7350  139.3180 S   0  0  0  0  0  0  0  0  0  0  0  0
  187.1880  177.9980  138.4360 C   0  0  0  0  0  1  0  0  0  0  0  0
  186.5670  178.5640  139.6220 N   0  0  0  0  0  2  0  0  0  0  0  0
  182.6960  178.6780  142.6550 C   0  0  0  0  0  2  0  0  0  0  0  0
  184.0060  178.8010  143.4100 C   0  0  0  0  0  2  0  0  0  0  0  0
  184.6100  178.8480  145.5310 C   0  0  0  0  0  1  0  0  0  0  0  0
  183.8110  179.5070  144.5980 O   0  0  0  0  0  0  0  0  0  0  0  0
  181.0550  179.6030  139.1310 C   0  0  0  0  0  2  0  0  0  0  0  0
  180.4540  180.8750  137.1960 O   0  0  0  0  0  1  0  0  0  0  0  0
  181.4710  180.6680  138.1290 C   0  0  0  0  0  2  0  0  0  0  0  0
  1 30  1  1  0  0  0
  2 10  1  6  0  0  0
  3  2  1  0  0  0  0
  3  1  1  6  0  0  0
  4  8  1  6  0  0  0
  4  2  1  0  0  0  0
  5 12  1  6  0  0  0
  5 10  1  0  0  0  0
  6 13  1  6  0  0  0
  6  8  1  0  0  0  0
  6  5  1  0  0  0  0
  7  3  1  0  0  0  0
  9  7  1  0  0  0  0
 11  9  1  0  0  0  0
 11  4  1  0  0  0  0
 14 13  1  0  0  0  0
 15 13  1  0  0  0  0
 16 17  1  0  0  0  0
 16 11  1  0  0  0  0
 18  1  1  6  0  0  0
 18 19  1  0  0  0  0
 18 20  1  0  0  0  0
 19 23  1  6  0  0  0
 19 20  1  0  0  0  0
 20 26  1  1  0  0  0
 21 23  2  0  0  0  0
 22 23  2  0  0  0  0
 23 25  1  0  0  0  0
 24 25  1  0  0  0  0
 26 27  1  0  0  0  0
 27 29  1  0  0  0  0
 29 28  1  0  0  0  0
 31 32  1  0  0  0  0
 32 30  1  0  0  0  0
M  END
>  <MODEL>
5

>  <REMARK>
 VINA RESULT:      -4.2      2.101      2.576
  Name = 
  11 active torsions:
  status: ('A' for Active; 'I' for Inactive)
    1  A    between atoms: C_1  and  C_4
    2  A    between atoms: C_1  and  C_5
    3  A    between atoms: C_1  and  C_16
    4  A    between atoms: C_4  and  C_30
    5  A    between atoms: C_9  and  C_12
    6  A    between atoms: C_13  and  N_29
    7  A    between atoms: S_15  and  C_20
    8  A    between atoms: S_15  and  N_26
    9  A    between atoms: O_22  and  C_23
   10  A    between atoms: C_23  and  C_24
   11  A    between atoms: C_24  and  C_27
                            x       y       z     vdW  Elec       q    Type
                         _______ _______ _______ _____ _____    ______ ____

>  <TORSDO>
F 11

$$$$
=
 OpenBabel10262421033D

 32 34  0  0  1  0  0  0  0  0999 V2000
  190.3380  177.5200  140.1140 C   0  0  2  0  0  3  0  0  0  0  0  0
  189.4250  178.2490  142.4320 C   0  0  2  0  0  3  0  0  0  0  0  0
  189.3930  177.2110  141.2960 C   0  0  2  0  0  3  0  0  0  0  0  0
  190.4780  177.9100  143.5090 C   0  0  1  0  0  3  0  0  0  0  0  0
  187.6670  177.7530  144.2370 C   0  0  1  0  0  3  0  0  0  0  0  0
  188.5210  178.1770  145.4540 C   0  0  2  0  0  3  0  0  0  0  0  0
  189.4930  175.8820  141.7680 O   0  0  0  0  0  0  0  0  0  0  0  0
  190.1860  178.8650  145.0450 S   0  0  0  0  0  0  0  0  0  0  0  0
  190.6860  175.7550  142.5020 C   0  0  0  0  0  2  0  0  0  0  0  0
  188.0140  178.5280  142.9660 C   0  0  0  0  0  2  0  0  0  0  0  0
  190.5660  176.4660  143.7740 N   0  0  0  0  0  0  0  0  0  0  0  0
  187.7150  176.3760  144.0040 O   0  0  0  0  0  1  0  0  0  0  0  0
  188.5760  177.1260  146.5760 C   0  0  0  0  0  3  0  0  0  0  0  0
  189.9390  177.1130  147.2480 C   0  0  0  0  0  1  0  0  0  0  0  0
  187.5350  177.4160  147.6420 C   0  0  0  0  0  1  0  0  0  0  0  0
  191.7400  176.1530  144.6000 C   0  0  0  0  0  2  0  0  0  0  0  0
  192.0540  174.6590  144.6730 C   0  0  0  0  0  1  0  0  0  0  0  0
  190.1480  176.4440  139.0330 C   0  0  1  0  0  3  0  0  0  0  0  0
  188.9980  176.6840  138.0410 C   0  0  2  0  0  3  0  0  0  0  0  0
  190.4300  176.9550  137.6320 C   0  0  2  0  0  3  0  0  0  0  0  0
  189.0550  179.3820  138.0760 O   0  0  0  0  0  0  0  0  0  0  0  0
  187.4140  178.2840  139.5020 O   0  0  0  0  0  0  0  0  0  0  0  0
  188.0910  178.2350  138.1610 S   0  0  0  0  0  0  0  0  0  0  0  0
  185.6420  177.8790  137.3950 C   0  0  0  0  0  1  0  0  0  0  0  0
  186.9050  178.4070  136.9050 N   0  0  0  0  0  2  0  0  0  0  0  0
  190.9270  175.8110  136.7700 C   0  0  0  0  0  2  0  0  0  0  0  0
  191.2350  174.6000  137.6330 C   0  0  0  0  0  2  0  0  0  0  0  0
  190.6200  173.4030  135.8850 C   0  0  0  0  0  1  0  0  0  0  0  0
  190.4250  173.5270  137.2600 O   0  0  0  0  0  0  0  0  0  0  0  0
  191.7910  177.4850  140.5970 C   0  0  0  0  0  2  0  0  0  0  0  0
  194.0110  176.9860  139.8590 O   0  0  0  0  0  1  0  0  0  0  0  0
  192.7830  177.5010  139.4440 C   0  0  0  0  0  2  0  0  0  0  0  0
  1 30  1  1  0  0  0
  2 10  1  1  0  0  0
  2  4  1  0  0  0  0
  3  1  1  6  0  0  0
  3  7  1  0  0  0  0
  3  2  1  0  0  0  0
  4 11  1  0  0  0  0
  4  8  1  1  0  0  0
  5 12  1  6  0  0  0
  5  6  1  0  0  0  0
  6 13  1  1  0  0  0
  7  9  1  0  0  0  0
  8  6  1  0  0  0  0
  9 11  1  0  0  0  0
 10  5  1  0  0  0  0
 11 16  1  0  0  0  0
 13 14  1  0  0  0  0
 13 15  1  0  0  0  0
 16 17  1  0  0  0  0
 18  1  1  1  0  0  0
 19 23  1  1  0  0  0
 19 18  1  0  0  0  0
 20 26  1  6  0  0  0
 20 19  1  0  0  0  0
 20 18  1  0  0  0  0
 21 23  2  0  0  0  0
 23 22  2  0  0  0  0
 25 24  1  0  0  0  0
 25 23  1  0  0  0  0
 26 27  1  0  0  0  0
 28 29  1  0  0  0  0
 29 27  1  0  0  0  0
 32 31  1  0  0  0  0
 32 30  1  0  0  0  0
M  END
>  <MODEL>
6

>  <REMARK>
 VINA RESULT:      -4.1      5.055     10.084
  Name = 
  11 active torsions:
  status: ('A' for Active; 'I' for Inactive)
    1  A    between atoms: C_1  and  C_4
    2  A    between atoms: C_1  and  C_5
    3  A    between atoms: C_1  and  C_16
    4  A    between atoms: C_4  and  C_30
    5  A    between atoms: C_9  and  C_12
    6  A    between atoms: C_13  and  N_29
    7  A    between atoms: S_15  and  C_20
    8  A    between atoms: S_15  and  N_26
    9  A    between atoms: O_22  and  C_23
   10  A    between atoms: C_23  and  C_24
   11  A    between atoms: C_24  and  C_27
                            x       y       z     vdW  Elec       q    Type
                         _______ _______ _______ _____ _____    ______ ____

>  <TORSDO>
F 11

$$$$
=
 OpenBabel10262421033D

 32 34  0  0  1  0  0  0  0  0999 V2000
  190.1190  177.2390  138.5890 C   0  0  2  0  0  3  0  0  0  0  0  0
  190.1120  176.6900  141.1270 C   0  0  2  0  0  3  0  0  0  0  0  0
  190.3880  177.7320  140.0280 C   0  0  2  0  0  3  0  0  0  0  0  0
  188.6590  176.7510  141.6440 C   0  0  1  0  0  3  0  0  0  0  0  0
  190.7970  177.5410  143.4510 C   0  0  1  0  0  3  0  0  0  0  0  0
  189.6280  176.9030  144.2370 C   0  0  2  0  0  3  0  0  0  0  0  0
  189.8090  178.9910  140.3120 O   0  0  0  0  0  0  0  0  0  0  0  0
  188.4840  175.8560  143.2330 S   0  0  0  0  0  0  0  0  0  0  0  0
  188.4230  178.8200  140.4760 C   0  0  0  0  0  2  0  0  0  0  0  0
  191.1940  176.7360  142.2150 C   0  0  0  0  0  2  0  0  0  0  0  0
  188.1530  178.1290  141.7370 N   0  0  0  0  0  0  0  0  0  0  0  0
  190.5490  178.8740  143.1130 O   0  0  0  0  0  1  0  0  0  0  0  0
  188.8790  177.8870  145.1510 C   0  0  0  0  0  3  0  0  0  0  0  0
  187.4060  177.5250  145.2550 C   0  0  0  0  0  1  0  0  0  0  0  0
  189.4600  177.8740  146.5540 C   0  0  0  0  0  1  0  0  0  0  0  0
  186.7040  178.1420  141.9780 C   0  0  0  0  0  2  0  0  0  0  0  0
  185.9260  178.9940  140.9760 C   0  0  0  0  0  1  0  0  0  0  0  0
  188.8360  176.3920  138.5880 C   0  0  1  0  0  3  0  0  0  0  0  0
  187.7580  176.8080  137.5740 C   0  0  2  0  0  3  0  0  0  0  0  0
  188.6440  175.6120  137.3000 C   0  0  2  0  0  3  0  0  0  0  0  0
  189.3830  177.7760  135.6500 O   0  0  0  0  0  0  0  0  0  0  0  0
  188.4360  179.3800  137.2190 O   0  0  0  0  0  0  0  0  0  0  0  0
  188.1500  178.1370  136.4240 S   0  0  0  0  0  0  0  0  0  0  0  0
  185.8340  177.4340  135.4990 C   0  0  0  0  0  1  0  0  0  0  0  0
  186.8580  178.4480  135.3070 N   0  0  0  0  0  2  0  0  0  0  0  0
  187.8690  174.3420  137.5930 C   0  0  0  0  0  2  0  0  0  0  0  0
  186.7940  174.1280  136.5440 C   0  0  0  0  0  2  0  0  0  0  0  0
  185.0710  173.2350  137.5930 C   0  0  0  0  0  1  0  0  0  0  0  0
  186.1440  172.9120  136.7630 O   0  0  0  0  0  0  0  0  0  0  0  0
  191.2880  176.3670  138.1190 C   0  0  0  0  0  2  0  0  0  0  0  0
  193.5680  176.9950  137.7610 O   0  0  0  0  0  1  0  0  0  0  0  0
  192.6070  176.7830  138.7500 C   0  0  0  0  0  2  0  0  0  0  0  0
  1 30  1  1  0  0  0
  2  4  1  0  0  0  0
  2 10  1  1  0  0  0
  3  1  1  6  0  0  0
  3  7  1  0  0  0  0
  3  2  1  0  0  0  0
  4 11  1  0  0  0  0
  4  8  1  1  0  0  0
  5 12  1  6  0  0  0
  5  6  1  0  0  0  0
  6 13  1  6  0  0  0
  7  9  1  0  0  0  0
  8  6  1  0  0  0  0
  9 11  1  0  0  0  0
 10  5  1  0  0  0  0
 11 16  1  0  0  0  0
 13 14  1  0  0  0  0
 13 15  1  0  0  0  0
 17 16  1  0  0  0  0
 18  1  1  6  0  0  0
 19 23  1  6  0  0  0
 19 18  1  0  0  0  0
 20 19  1  0  0  0  0
 20 26  1  1  0  0  0
 20 18  1  0  0  0  0
 21 23  2  0  0  0  0
 23 22  2  0  0  0  0
 25 24  1  0  0  0  0
 25 23  1  0  0  0  0
 27 29  1  0  0  0  0
 27 26  1  0  0  0  0
 29 28  1  0  0  0  0
 30 32  1  0  0  0  0
 31 32  1  0  0  0  0
M  END
>  <MODEL>
7

>  <REMARK>
 VINA RESULT:      -4.1      4.348      9.152
  Name = 
  11 active torsions:
  status: ('A' for Active; 'I' for Inactive)
    1  A    between atoms: C_1  and  C_4
    2  A    between atoms: C_1  and  C_5
    3  A    between atoms: C_1  and  C_16
    4  A    between atoms: C_4  and  C_30
    5  A    between atoms: C_9  and  C_12
    6  A    between atoms: C_13  and  N_29
    7  A    between atoms: S_15  and  C_20
    8  A    between atoms: S_15  and  N_26
    9  A    between atoms: O_22  and  C_23
   10  A    between atoms: C_23  and  C_24
   11  A    between atoms: C_24  and  C_27
                            x       y       z     vdW  Elec       q    Type
                         _______ _______ _______ _____ _____    ______ ____

>  <TORSDO>
F 11

$$$$
=
 OpenBabel10262421033D

 32 34  0  0  1  0  0  0  0  0999 V2000
  193.3180  174.7690  136.4910 C   0  0  2  0  0  3  0  0  0  0  0  0
  190.9060  175.3490  135.7250 C   0  0  2  0  0  3  0  0  0  0  0  0
  191.8060  174.4860  136.6280 C   0  0  2  0  0  3  0  0  0  0  0  0
  190.4700  176.6610  136.4100 C   0  0  1  0  0  3  0  0  0  0  0  0
  188.4410  174.6480  135.8750 C   0  0  1  0  0  3  0  0  0  0  0  0
  187.8350  176.0680  135.7840 C   0  0  2  0  0  3  0  0  0  0  0  0
  191.3570  174.4480  137.9690 O   0  0  0  0  0  0  0  0  0  0  0  0
  189.0580  177.4290  135.5310 S   0  0  0  0  0  0  0  0  0  0  0  0
  191.3020  175.7640  138.4610 C   0  0  0  0  0  2  0  0  0  0  0  0
  189.7650  174.5160  135.1250 C   0  0  0  0  0  2  0  0  0  0  0  0
  190.1860  176.4800  137.8420 N   0  0  0  0  0  0  0  0  0  0  0  0
  188.5740  174.2070  137.1940 O   0  0  0  0  0  1  0  0  0  0  0  0
  186.8190  176.3860  136.8940 C   0  0  0  0  0  3  0  0  0  0  0  0
  186.4710  177.8650  136.9110 C   0  0  0  0  0  1  0  0  0  0  0  0
  185.5310  175.6090  136.6900 C   0  0  0  0  0  1  0  0  0  0  0  0
  190.0290  177.7770  138.5150 C   0  0  0  0  0  2  0  0  0  0  0  0
  188.9860  177.7610  139.6330 C   0  0  0  0  0  1  0  0  0  0  0  0
  194.0510  174.1410  137.6880 C   0  0  1  0  0  3  0  0  0  0  0  0
  194.9910  172.9690  137.3600 C   0  0  2  0  0  3  0  0  0  0  0  0
  195.5540  174.3470  137.6360 C   0  0  2  0  0  3  0  0  0  0  0  0
  196.2530  171.4470  135.5240 O   0  0  0  0  0  0  0  0  0  0  0  0
  195.7690  173.7550  134.9150 O   0  0  0  0  0  0  0  0  0  0  0  0
  195.2350  172.5440  135.6270 S   0  0  0  0  0  0  0  0  0  0  0  0
  193.1410  171.0210  135.7110 C   0  0  0  0  0  1  0  0  0  0  0  0
  193.7680  172.0200  134.8610 N   0  0  0  0  0  2  0  0  0  0  0  0
  196.1040  174.3850  139.0490 C   0  0  0  0  0  2  0  0  0  0  0  0
  197.6160  174.5160  139.0200 C   0  0  0  0  0  2  0  0  0  0  0  0
  197.2880  175.5090  140.9620 C   0  0  0  0  0  1  0  0  0  0  0  0
  198.0170  175.6170  139.7790 O   0  0  0  0  0  0  0  0  0  0  0  0
  193.5590  176.2820  136.5020 C   0  0  0  0  0  2  0  0  0  0  0  0
  195.3770  177.6030  135.6820 O   0  0  0  0  0  1  0  0  0  0  0  0
  194.3470  176.7500  135.2890 C   0  0  0  0  0  2  0  0  0  0  0  0
  1 30  1  1  0  0  0
  2 10  1  1  0  0  0
  2  4  1  0  0  0  0
  2  3  1  0  0  0  0
  3  1  1  1  0  0  0
  3  7  1  0  0  0  0
  4  8  1  6  0  0  0
  4 11  1  0  0  0  0
  5 12  1  1  0  0  0
  6  5  1  0  0  0  0
  6 13  1  1  0  0  0
  7  9  1  0  0  0  0
  8  6  1  0  0  0  0
 10  5  1  0  0  0  0
 11  9  1  0  0  0  0
 11 16  1  0  0  0  0
 13 14  1  0  0  0  0
 15 13  1  0  0  0  0
 16 17  1  0  0  0  0
 18  1  1  6  0  0  0
 19 23  1  6  0  0  0
 19 20  1  0  0  0  0
 19 18  1  0  0  0  0
 20 18  1  0  0  0  0
 20 26  1  1  0  0  0
 21 23  2  0  0  0  0
 22 23  2  0  0  0  0
 25 23  1  0  0  0  0
 25 24  1  0  0  0  0
 27 26  1  0  0  0  0
 27 29  1  0  0  0  0
 29 28  1  0  0  0  0
 32 31  1  0  0  0  0
 32 30  1  0  0  0  0
M  END
>  <MODEL>
8

>  <REMARK>
 VINA RESULT:      -4.0      7.548     11.081
  Name = 
  11 active torsions:
  status: ('A' for Active; 'I' for Inactive)
    1  A    between atoms: C_1  and  C_4
    2  A    between atoms: C_1  and  C_5
    3  A    between atoms: C_1  and  C_16
    4  A    between atoms: C_4  and  C_30
    5  A    between atoms: C_9  and  C_12
    6  A    between atoms: C_13  and  N_29
    7  A    between atoms: S_15  and  C_20
    8  A    between atoms: S_15  and  N_26
    9  A    between atoms: O_22  and  C_23
   10  A    between atoms: C_23  and  C_24
   11  A    between atoms: C_24  and  C_27
                            x       y       z     vdW  Elec       q    Type
                         _______ _______ _______ _____ _____    ______ ____

>  <TORSDO>
F 11

$$$$
=
 OpenBabel10262421033D

 32 34  0  0  1  0  0  0  0  0999 V2000
  182.7650  178.6150  139.0470 C   0  0  2  0  0  3  0  0  0  0  0  0
  182.1670  176.8780  137.2130 C   0  0  2  0  0  3  0  0  0  0  0  0
  183.0240  177.2160  138.4470 C   0  0  2  0  0  3  0  0  0  0  0  0
  180.8350  176.1960  137.5910 C   0  0  1  0  0  3  0  0  0  0  0  0
  182.8290  174.6260  136.1720 C   0  0  1  0  0  3  0  0  0  0  0  0
  181.4030  174.1690  135.7870 C   0  0  2  0  0  3  0  0  0  0  0  0
  183.0280  176.1790  139.4100 O   0  0  0  0  0  0  0  0  0  0  0  0
  180.0650  175.3950  136.1350 S   0  0  0  0  0  0  0  0  0  0  0  0
  181.7010  175.9250  139.8000 C   0  0  0  0  0  2  0  0  0  0  0  0
  182.9960  176.1440  136.1500 C   0  0  0  0  0  2  0  0  0  0  0  0
  180.9830  175.2570  138.7150 N   0  0  0  0  0  0  0  0  0  0  0  0
  183.2460  174.1020  137.3990 O   0  0  0  0  0  1  0  0  0  0  0  0
  181.0480  172.7530  136.2710 C   0  0  0  0  0  3  0  0  0  0  0  0
  179.5420  172.5500  136.3140 C   0  0  0  0  0  1  0  0  0  0  0  0
  181.6320  171.7010  135.3460 C   0  0  0  0  0  1  0  0  0  0  0  0
  179.6700  174.8260  139.2150 C   0  0  0  0  0  2  0  0  0  0  0  0
  179.6810  174.4280  140.6910 C   0  0  0  0  0  1  0  0  0  0  0  0
  181.7670  179.3630  138.1500 C   0  0  1  0  0  3  0  0  0  0  0  0
  180.4280  179.7410  138.8040 C   0  0  2  0  0  3  0  0  0  0  0  0
  181.5060  180.7860  138.6110 C   0  0  2  0  0  3  0  0  0  0  0  0
  181.5600  179.1130  141.1720 O   0  0  0  0  0  0  0  0  0  0  0  0
  179.3680  178.1630  140.6990 O   0  0  0  0  0  0  0  0  0  0  0  0
  180.2200  179.3940  140.5590 S   0  0  0  0  0  0  0  0  0  0  0  0
  179.6660  180.4960  142.8370 C   0  0  0  0  0  1  0  0  0  0  0  0
  179.4790  180.7120  141.4110 N   0  0  0  0  0  2  0  0  0  0  0  0
  181.1560  181.6460  137.4120 C   0  0  0  0  0  2  0  0  0  0  0  0
  180.1440  182.7060  137.8050 C   0  0  0  0  0  2  0  0  0  0  0  0
  181.1800  184.1500  136.4980 C   0  0  0  0  0  1  0  0  0  0  0  0
  180.7460  183.9660  137.8100 O   0  0  0  0  0  0  0  0  0  0  0  0
  184.0780  179.4040  139.0910 C   0  0  0  0  0  2  0  0  0  0  0  0
  186.2190  178.6290  139.8240 O   0  0  0  0  0  1  0  0  0  0  0  0
  184.9520  179.0060  140.2700 C   0  0  0  0  0  2  0  0  0  0  0  0
  1 30  1  6  0  0  0
  2 10  1  6  0  0  0
  2  4  1  0  0  0  0
  2  3  1  0  0  0  0
  3  1  1  1  0  0  0
  3  7  1  0  0  0  0
  4  8  1  6  0  0  0
  4 11  1  0  0  0  0
  5 12  1  1  0  0  0
  6  8  1  0  0  0  0
  6  5  1  0  0  0  0
  6 13  1  1  0  0  0
  7  9  1  0  0  0  0
 10  5  1  0  0  0  0
 11 16  1  0  0  0  0
 11  9  1  0  0  0  0
 13 14  1  0  0  0  0
 15 13  1  0  0  0  0
 16 17  1  0  0  0  0
 18 20  1  0  0  0  0
 18 19  1  0  0  0  0
 18  1  1  1  0  0  0
 19 23  1  1  0  0  0
 20 26  1  6  0  0  0
 20 19  1  0  0  0  0
 23 22  2  0  0  0  0
 23 21  2  0  0  0  0
 23 25  1  0  0  0  0
 25 24  1  0  0  0  0
 26 27  1  0  0  0  0
 27 29  1  0  0  0  0
 28 29  1  0  0  0  0
 30 32  1  0  0  0  0
 31 32  1  0  0  0  0
M  END
>  <MODEL>
9

>  <REMARK>
 VINA RESULT:      -3.7      3.037      5.073
  Name = 
  11 active torsions:
  status: ('A' for Active; 'I' for Inactive)
    1  A    between atoms: C_1  and  C_4
    2  A    between atoms: C_1  and  C_5
    3  A    between atoms: C_1  and  C_16
    4  A    between atoms: C_4  and  C_30
    5  A    between atoms: C_9  and  C_12
    6  A    between atoms: C_13  and  N_29
    7  A    between atoms: S_15  and  C_20
    8  A    between atoms: S_15  and  N_26
    9  A    between atoms: O_22  and  C_23
   10  A    between atoms: C_23  and  C_24
   11  A    between atoms: C_24  and  C_27
                            x       y       z     vdW  Elec       q    Type
                         _______ _______ _______ _____ _____    ______ ____

>  <TORSDO>
F 11

$$$$
