=
 OpenBabel10262421453D

 30 32  0  0  1  0  0  0  0  0999 V2000
  189.2510  175.8620  137.0980 N   0  0  2  0  0  0  0  0  0  0  0  0
  189.1770  177.1220  137.8830 C   0  0  1  0  0  3  0  0  0  0  0  0
  188.0860  174.9740  137.2290 C   0  0  0  0  0  2  0  0  0  0  0  0
  186.3850  176.1090  134.8430 O   0  0  0  0  0  0  0  0  0  0  0  0
  186.6200  176.7530  136.0610 C   0  0  1  0  0  3  0  0  0  0  0  0
  185.4530  174.5100  136.7800 S   0  0  0  0  0  0  0  0  0  0  0  0
  186.7360  175.7080  137.1640 C   0  0  1  0  0  3  0  0  0  0  0  0
  187.8040  177.7150  135.9480 C   0  0  0  0  0  2  0  0  0  0  0  0
  184.1150  175.7670  134.8710 O   0  0  0  0  0  1  0  0  0  0  0  0
  185.3610  175.1740  135.0830 C   0  0  1  0  0  3  0  0  0  0  0  0
  188.2790  178.1230  137.2720 N   0  0  0  0  0  0  0  0  0  0  0  0
  189.0710  179.3240  137.0690 C   0  0  0  0  0  1  0  0  0  0  0  0
  190.7520  174.1350  136.1430 C   0  0  1  0  0  3  0  0  0  0  0  0
  192.9690  175.1830  137.7890 C   0  0  2  0  0  3  0  0  0  0  0  0
  192.0320  173.3310  136.3820 C   0  0  2  0  0  3  0  0  0  0  0  0
  189.6790  173.2710  136.0230 F   0  0  0  0  0  0  0  0  0  0  0  0
  193.2430  174.2450  136.6070 C   0  0  1  0  0  3  0  0  0  0  0  0
  192.2660  172.4620  135.3150 O   0  0  0  0  0  1  0  0  0  0  0  0
  190.5010  175.1130  137.3000 C   0  0  1  0  0  3  0  0  0  0  0  0
  193.6140  175.0170  135.3430 C   0  0  0  0  0  1  0  0  0  0  0  0
  191.7140  176.0210  137.5520 C   0  0  0  0  0  2  0  0  0  0  0  0
  194.0640  176.0180  138.0230 O   0  0  0  0  0  0  0  0  0  0  0  0
  193.6850  176.7910  139.0190 O   0  0  0  0  0  1  0  0  0  0  0  0
  188.7910  176.9030  139.3480 C   0  0  0  0  0  2  0  0  0  0  0  0
  189.8690  177.4450  140.2680 C   0  0  0  0  0  2  0  0  0  0  0  0
  190.3470  176.3960  141.1540 N   0  0  0  0  0  2  0  0  0  0  0  0
  190.0410  176.2850  142.5520 C   0  0  0  0  0  0  0  0  0  0  0  0
  191.2830  176.2030  143.6070 S   0  0  0  0  0  0  0  0  0  0  0  0
  188.6720  176.2300  143.1000 C   0  0  0  0  0  3  0  0  0  0  0  0
  188.2820  176.8480  144.2060 C   0  0  0  0  0  2  0  0  0  0  0  0
  1  3  1  1  0  0  0
  1 19  1  0  0  0  0
  1  2  1  0  0  0  0
  2 24  1  1  0  0  0
  4 10  1  0  0  0  0
  4  5  1  0  0  0  0
  5  8  1  6  0  0  0
  5  7  1  0  0  0  0
  6  7  1  0  0  0  0
  7  3  1  6  0  0  0
  8 11  1  0  0  0  0
 10  9  1  1  0  0  0
 10  6  1  0  0  0  0
 11  2  1  0  0  0  0
 12 11  1  0  0  0  0
 13 16  1  1  0  0  0
 13 15  1  0  0  0  0
 13 19  1  0  0  0  0
 14 22  1  6  0  0  0
 15 18  1  6  0  0  0
 15 17  1  0  0  0  0
 17 20  1  6  0  0  0
 17 14  1  0  0  0  0
 19 21  1  6  0  0  0
 21 14  1  0  0  0  0
 22 23  1  0  0  0  0
 24 25  1  0  0  0  0
 25 26  1  0  0  0  0
 26 27  1  0  0  0  0
 27 29  1  0  0  0  0
 27 28  2  0  0  0  0
 29 30  2  0  0  0  0
M  END
>  <MODEL>
1

>  <REMARK>
 VINA RESULT:      -5.6      0.000      0.000
  Name = 
  7 active torsions:
  status: ('A' for Active; 'I' for Inactive)
    1  A    between atoms: N_1  and  C_22
    2  A    between atoms: C_3  and  O_11
    3  A    between atoms: C_4  and  C_23
    4  A    between atoms: C_7  and  N_10
    5  A    between atoms: C_7  and  C_15
    6  A    between atoms: N_10  and  C_25
    7  A    between atoms: C_23  and  C_25
                            x       y       z     vdW  Elec       q    Type
                         _______ _______ _______ _____ _____    ______ ____

>  <TORSDO>
F 7

$$$$
=
 OpenBabel10262421453D

 30 32  0  0  1  0  0  0  0  0999 V2000
  188.2070  177.2870  141.8730 N   0  0  2  0  0  0  0  0  0  0  0  0
  189.4470  177.4690  142.6700 C   0  0  1  0  0  3  0  0  0  0  0  0
  188.0660  178.1880  140.7190 C   0  0  0  0  0  2  0  0  0  0  0  0
  189.4610  176.3750  138.5630 O   0  0  0  0  0  0  0  0  0  0  0  0
  190.1030  177.0500  139.6060 C   0  0  1  0  0  3  0  0  0  0  0  0
  188.9220  178.9830  138.2720 S   0  0  0  0  0  0  0  0  0  0  0  0
  189.3560  178.3460  139.8960 C   0  0  1  0  0  3  0  0  0  0  0  0
  190.2990  176.1280  140.8120 C   0  0  0  0  0  2  0  0  0  0  0  0
  190.3230  177.3860  136.6910 O   0  0  0  0  0  1  0  0  0  0  0  0
  189.2310  177.3320  137.5590 C   0  0  1  0  0  3  0  0  0  0  0  0
  190.6380  176.8960  142.0120 N   0  0  0  0  0  0  0  0  0  0  0  0
  191.2180  175.9510  142.9500 C   0  0  0  0  0  1  0  0  0  0  0  0
  187.3050  177.3400  144.1820 C   0  0  1  0  0  3  0  0  0  0  0  0
  184.7230  178.3120  143.1280 C   0  0  2  0  0  3  0  0  0  0  0  0
  186.0220  177.2970  145.0170 C   0  0  2  0  0  3  0  0  0  0  0  0
  188.1120  176.2680  144.5200 F   0  0  0  0  0  0  0  0  0  0  0  0
  185.0510  178.4160  144.6230 C   0  0  1  0  0  3  0  0  0  0  0  0
  186.3260  177.3690  146.3780 O   0  0  0  0  0  1  0  0  0  0  0  0
  186.9780  177.2870  142.6830 C   0  0  1  0  0  3  0  0  0  0  0  0
  185.5940  179.7950  144.9900 C   0  0  0  0  0  1  0  0  0  0  0  0
  185.9890  178.3890  142.2770 C   0  0  0  0  0  2  0  0  0  0  0  0
  183.8280  179.3140  142.7460 O   0  0  0  0  0  0  0  0  0  0  0  0
  182.6590  178.9030  143.1940 O   0  0  0  0  0  1  0  0  0  0  0  0
  189.7150  178.9280  143.0500 C   0  0  0  0  0  2  0  0  0  0  0  0
  190.6720  179.0040  144.2270 C   0  0  0  0  0  2  0  0  0  0  0  0
  190.0020  178.5790  145.4450 N   0  0  0  0  0  2  0  0  0  0  0  0
  190.4350  177.5140  146.3040 C   0  0  0  0  0  0  0  0  0  0  0  0
  189.4830  177.1060  147.5650 S   0  0  0  0  0  0  0  0  0  0  0  0
  191.6950  176.7670  146.1280 C   0  0  0  0  0  3  0  0  0  0  0  0
  192.1200  175.8110  146.9430 C   0  0  0  0  0  2  0  0  0  0  0  0
  1  3  1  6  0  0  0
  1  2  1  0  0  0  0
  1 19  1  0  0  0  0
  2 24  1  6  0  0  0
  4  5  1  0  0  0  0
  5  7  1  0  0  0  0
  5  8  1  1  0  0  0
  6  7  1  0  0  0  0
  7  3  1  1  0  0  0
  8 11  1  0  0  0  0
 10  9  1  6  0  0  0
 10  6  1  0  0  0  0
 10  4  1  0  0  0  0
 11  2  1  0  0  0  0
 11 12  1  0  0  0  0
 13 16  1  1  0  0  0
 13 15  1  0  0  0  0
 14 22  1  6  0  0  0
 14 17  1  0  0  0  0
 15 18  1  1  0  0  0
 17 20  1  6  0  0  0
 17 15  1  0  0  0  0
 19 21  1  6  0  0  0
 19 13  1  0  0  0  0
 21 14  1  0  0  0  0
 22 23  1  0  0  0  0
 24 25  1  0  0  0  0
 25 26  1  0  0  0  0
 26 27  1  0  0  0  0
 27 28  2  0  0  0  0
 29 27  1  0  0  0  0
 29 30  2  0  0  0  0
M  END
>  <MODEL>
2

>  <REMARK>
 VINA RESULT:      -5.6      4.522      7.742
  Name = 
  7 active torsions:
  status: ('A' for Active; 'I' for Inactive)
    1  A    between atoms: N_1  and  C_22
    2  A    between atoms: C_3  and  O_11
    3  A    between atoms: C_4  and  C_23
    4  A    between atoms: C_7  and  N_10
    5  A    between atoms: C_7  and  C_15
    6  A    between atoms: N_10  and  C_25
    7  A    between atoms: C_23  and  C_25
                            x       y       z     vdW  Elec       q    Type
                         _______ _______ _______ _____ _____    ______ ____

>  <TORSDO>
F 7

$$$$
=
 OpenBabel10262421453D

 30 32  0  0  1  0  0  0  0  0999 V2000
  186.2010  175.9380  136.2290 N   0  0  2  0  0  0  0  0  0  0  0  0
  185.1110  176.9220  136.4550 C   0  0  1  0  0  3  0  0  0  0  0  0
  186.0220  174.6410  136.8990 C   0  0  0  0  0  2  0  0  0  0  0  0
  184.4900  173.1520  134.5940 O   0  0  0  0  0  0  0  0  0  0  0  0
  183.9700  174.1700  135.4000 C   0  0  1  0  0  3  0  0  0  0  0  0
  184.6490  172.3150  137.1330 S   0  0  0  0  0  0  0  0  0  0  0  0
  184.5950  174.0770  136.7860 C   0  0  1  0  0  3  0  0  0  0  0  0
  184.1060  175.5310  134.7140 C   0  0  0  0  0  2  0  0  0  0  0  0
  183.1900  171.3430  135.1480 O   0  0  0  0  0  1  0  0  0  0  0  0
  184.4190  171.9720  135.3560 C   0  0  1  0  0  3  0  0  0  0  0  0
  183.8990  176.6240  135.6660 N   0  0  0  0  0  0  0  0  0  0  0  0
  183.6160  177.8070  134.8730 C   0  0  0  0  0  1  0  0  0  0  0  0
  187.4960  177.9860  136.7550 C   0  0  1  0  0  3  0  0  0  0  0  0
  189.6880  176.3040  137.8000 C   0  0  2  0  0  3  0  0  0  0  0  0
  188.9050  178.5420  136.9820 C   0  0  2  0  0  3  0  0  0  0  0  0
  186.9150  178.6290  135.6760 F   0  0  0  0  0  0  0  0  0  0  0  0
  189.6290  177.8050  138.1150 C   0  0  1  0  0  3  0  0  0  0  0  0
  188.8490  179.9110  137.2460 O   0  0  0  0  0  1  0  0  0  0  0  0
  187.5460  176.4740  136.4890 C   0  0  1  0  0  3  0  0  0  0  0  0
  188.9840  178.0750  139.4730 C   0  0  0  0  0  1  0  0  0  0  0  0
  188.2880  175.7240  137.6050 C   0  0  0  0  0  2  0  0  0  0  0  0
  190.3560  175.6120  138.8120 O   0  0  0  0  0  0  0  0  0  0  0  0
  191.2140  174.8410  138.1760 O   0  0  0  0  0  1  0  0  0  0  0  0
  184.7430  177.0910  137.9310 C   0  0  0  0  0  2  0  0  0  0  0  0
  184.2730  178.5090  138.2030 C   0  0  0  0  0  2  0  0  0  0  0  0
  185.0540  179.0980  139.2780 N   0  0  0  0  0  2  0  0  0  0  0  0
  184.9110  178.7940  140.6730 C   0  0  0  0  0  0  0  0  0  0  0  0
  183.4160  178.4700  141.2410 S   0  0  0  0  0  0  0  0  0  0  0  0
  186.0300  178.7660  141.6340 C   0  0  0  0  0  3  0  0  0  0  0  0
  185.9340  178.3300  142.8830 C   0  0  0  0  0  2  0  0  0  0  0  0
  1  2  1  0  0  0  0
  1 19  1  0  0  0  0
  1  3  1  1  0  0  0
  2 24  1  1  0  0  0
  4 10  1  0  0  0  0
  4  5  1  0  0  0  0
  5  8  1  6  0  0  0
  5  7  1  0  0  0  0
  7  3  1  6  0  0  0
  7  6  1  0  0  0  0
  8 11  1  0  0  0  0
 10  9  1  1  0  0  0
 10  6  1  0  0  0  0
 11  2  1  0  0  0  0
 12 11  1  0  0  0  0
 13 16  1  6  0  0  0
 13 15  1  0  0  0  0
 14 17  1  0  0  0  0
 14 22  1  1  0  0  0
 15 18  1  1  0  0  0
 15 17  1  0  0  0  0
 17 20  1  1  0  0  0
 19 13  1  0  0  0  0
 19 21  1  1  0  0  0
 21 14  1  0  0  0  0
 23 22  1  0  0  0  0
 24 25  1  0  0  0  0
 25 26  1  0  0  0  0
 26 27  1  0  0  0  0
 27 28  2  0  0  0  0
 27 29  1  0  0  0  0
 29 30  2  0  0  0  0
M  END
>  <MODEL>
3

>  <REMARK>
 VINA RESULT:      -5.2      3.461      4.898
  Name = 
  7 active torsions:
  status: ('A' for Active; 'I' for Inactive)
    1  A    between atoms: N_1  and  C_22
    2  A    between atoms: C_3  and  O_11
    3  A    between atoms: C_4  and  C_23
    4  A    between atoms: C_7  and  N_10
    5  A    between atoms: C_7  and  C_15
    6  A    between atoms: N_10  and  C_25
    7  A    between atoms: C_23  and  C_25
                            x       y       z     vdW  Elec       q    Type
                         _______ _______ _______ _____ _____    ______ ____

>  <TORSDO>
F 7

$$$$
=
 OpenBabel10262421453D

 30 32  0  0  1  0  0  0  0  0999 V2000
  182.1860  177.6550  140.4300 N   0  0  2  0  0  0  0  0  0  0  0  0
  181.5320  178.8900  139.9230 C   0  0  1  0  0  3  0  0  0  0  0  0
  183.4890  177.8590  141.0820 C   0  0  0  0  0  2  0  0  0  0  0  0
  182.4600  178.2660  144.0240 O   0  0  0  0  0  0  0  0  0  0  0  0
  182.3170  179.1770  142.9720 C   0  0  1  0  0  3  0  0  0  0  0  0
  184.9210  178.8670  143.1520 S   0  0  0  0  0  0  0  0  0  0  0  0
  183.5190  179.0600  142.0440 C   0  0  1  0  0  3  0  0  0  0  0  0
  180.9540  179.0160  142.2950 C   0  0  0  0  0  2  0  0  0  0  0  0
  183.8110  179.3940  145.4980 O   0  0  0  0  0  1  0  0  0  0  0  0
  183.7750  178.4190  144.4990 C   0  0  1  0  0  3  0  0  0  0  0  0
  180.9250  179.6980  140.9990 N   0  0  0  0  0  0  0  0  0  0  0  0
  179.5240  179.8630  140.6570 C   0  0  0  0  0  1  0  0  0  0  0  0
  180.9590  176.4570  138.6390 C   0  0  1  0  0  3  0  0  0  0  0  0
  183.5340  175.5400  137.5200 C   0  0  2  0  0  3  0  0  0  0  0  0
  181.0400  175.3060  137.6330 C   0  0  2  0  0  3  0  0  0  0  0  0
  179.9070  176.2370  139.5100 F   0  0  0  0  0  0  0  0  0  0  0  0
  182.2440  175.4560  136.6950 C   0  0  1  0  0  3  0  0  0  0  0  0
  179.8550  175.2180  136.9000 O   0  0  0  0  0  1  0  0  0  0  0  0
  182.2680  176.5770  139.4330 C   0  0  1  0  0  3  0  0  0  0  0  0
  182.0890  176.6530  135.7590 C   0  0  0  0  0  1  0  0  0  0  0  0
  183.4860  176.7060  138.5060 C   0  0  0  0  0  2  0  0  0  0  0  0
  184.6480  175.6640  136.6860 O   0  0  0  0  0  0  0  0  0  0  0  0
  185.4070  176.5620  137.2780 O   0  0  0  0  0  1  0  0  0  0  0  0
  182.4610  179.7640  139.0760 C   0  0  0  0  0  2  0  0  0  0  0  0
  181.6670  180.5280  138.0330 C   0  0  0  0  0  2  0  0  0  0  0  0
  181.6410  181.9440  138.3610 N   0  0  0  0  0  2  0  0  0  0  0  0
  180.7830  182.9220  137.7570 C   0  0  0  0  0  0  0  0  0  0  0  0
  179.1700  182.6780  137.8250 S   0  0  0  0  0  0  0  0  0  0  0  0
  181.2630  184.1340  137.0650 C   0  0  0  0  0  3  0  0  0  0  0  0
  180.9920  184.4330  135.8020 C   0  0  0  0  0  2  0  0  0  0  0  0
  1  3  1  6  0  0  0
  2 24  1  1  0  0  0
  2  1  1  0  0  0  0
  2 11  1  0  0  0  0
  4 10  1  0  0  0  0
  5  8  1  6  0  0  0
  5  4  1  0  0  0  0
  6 10  1  0  0  0  0
  7  3  1  6  0  0  0
  7  5  1  0  0  0  0
  7  6  1  0  0  0  0
 10  9  1  1  0  0  0
 11  8  1  0  0  0  0
 12 11  1  0  0  0  0
 13 19  1  0  0  0  0
 13 16  1  1  0  0  0
 14 22  1  6  0  0  0
 14 21  1  0  0  0  0
 15 18  1  6  0  0  0
 15 13  1  0  0  0  0
 17 20  1  1  0  0  0
 17 14  1  0  0  0  0
 17 15  1  0  0  0  0
 19 21  1  6  0  0  0
 19  1  1  0  0  0  0
 22 23  1  0  0  0  0
 25 26  1  0  0  0  0
 25 24  1  0  0  0  0
 27 28  2  0  0  0  0
 27 26  1  0  0  0  0
 29 27  1  0  0  0  0
 30 29  2  0  0  0  0
M  END
>  <MODEL>
4

>  <REMARK>
 VINA RESULT:      -5.2      7.063     10.115
  Name = 
  7 active torsions:
  status: ('A' for Active; 'I' for Inactive)
    1  A    between atoms: N_1  and  C_22
    2  A    between atoms: C_3  and  O_11
    3  A    between atoms: C_4  and  C_23
    4  A    between atoms: C_7  and  N_10
    5  A    between atoms: C_7  and  C_15
    6  A    between atoms: N_10  and  C_25
    7  A    between atoms: C_23  and  C_25
                            x       y       z     vdW  Elec       q    Type
                         _______ _______ _______ _____ _____    ______ ____

>  <TORSDO>
F 7

$$$$
=
 OpenBabel10262421453D

 30 32  0  0  1  0  0  0  0  0999 V2000
  189.0450  176.6360  137.8960 N   0  0  2  0  0  0  0  0  0  0  0  0
  189.9690  175.7150  137.1850 C   0  0  1  0  0  3  0  0  0  0  0  0
  188.3200  177.5830  137.0360 C   0  0  0  0  0  2  0  0  0  0  0  0
  185.7810  175.8190  136.4690 O   0  0  0  0  0  0  0  0  0  0  0  0
  187.0610  175.6040  135.9490 C   0  0  1  0  0  3  0  0  0  0  0  0
  186.4670  178.0210  135.1060 S   0  0  0  0  0  0  0  0  0  0  0  0
  187.7530  176.9470  135.7550 C   0  0  1  0  0  3  0  0  0  0  0  0
  187.8310  174.5930  136.8020 C   0  0  0  0  0  2  0  0  0  0  0  0
  184.5380  176.2800  134.5940 O   0  0  0  0  0  1  0  0  0  0  0  0
  185.2060  176.8370  135.6860 C   0  0  1  0  0  3  0  0  0  0  0  0
  189.2620  174.6210  136.4900 N   0  0  0  0  0  0  0  0  0  0  0  0
  189.8140  173.3780  136.9980 C   0  0  0  0  0  1  0  0  0  0  0  0
  188.7180  177.3860  140.2370 C   0  0  1  0  0  3  0  0  0  0  0  0
  191.6480  177.5590  140.5680 C   0  0  2  0  0  3  0  0  0  0  0  0
  189.3570  178.1540  141.3970 C   0  0  2  0  0  3  0  0  0  0  0  0
  187.5340  178.0020  139.8730 F   0  0  0  0  0  0  0  0  0  0  0  0
  190.7170  177.5630  141.7880 C   0  0  1  0  0  3  0  0  0  0  0  0
  188.4980  178.1740  142.4980 O   0  0  0  0  0  1  0  0  0  0  0  0
  189.6670  177.3370  139.0310 C   0  0  1  0  0  3  0  0  0  0  0  0
  190.5770  176.1690  142.3990 C   0  0  0  0  0  1  0  0  0  0  0  0
  191.0410  176.7670  139.4110 C   0  0  0  0  0  2  0  0  0  0  0  0
  192.8990  177.0370  140.9020 O   0  0  0  0  0  0  0  0  0  0  0  0
  193.6370  177.2320  139.8280 O   0  0  0  0  0  1  0  0  0  0  0  0
  190.9070  176.4300  136.2100 C   0  0  0  0  0  2  0  0  0  0  0  0
  192.0820  175.5390  135.8520 C   0  0  0  0  0  2  0  0  0  0  0  0
  193.2700  175.9610  136.5780 N   0  0  0  0  0  2  0  0  0  0  0  0
  194.3930  175.1240  136.8920 C   0  0  0  0  0  0  0  0  0  0  0  0
  195.7020  175.1960  135.9210 S   0  0  0  0  0  0  0  0  0  0  0  0
  194.4380  174.1910  138.0340 C   0  0  0  0  0  3  0  0  0  0  0  0
  195.5120  173.9720  138.7800 C   0  0  0  0  0  2  0  0  0  0  0  0
  1  3  1  6  0  0  0
  1 19  1  0  0  0  0
  2 24  1  6  0  0  0
  2  1  1  0  0  0  0
  5  4  1  0  0  0  0
  5  8  1  1  0  0  0
  6 10  1  0  0  0  0
  6  7  1  0  0  0  0
  7  5  1  0  0  0  0
  7  3  1  1  0  0  0
 10  9  1  6  0  0  0
 10  4  1  0  0  0  0
 11  8  1  0  0  0  0
 11 12  1  0  0  0  0
 11  2  1  0  0  0  0
 13 16  1  6  0  0  0
 13 15  1  0  0  0  0
 14 22  1  1  0  0  0
 14 17  1  0  0  0  0
 15 17  1  0  0  0  0
 15 18  1  1  0  0  0
 17 20  1  6  0  0  0
 19 21  1  1  0  0  0
 19 13  1  0  0  0  0
 21 14  1  0  0  0  0
 23 22  1  0  0  0  0
 25 24  1  0  0  0  0
 25 26  1  0  0  0  0
 26 27  1  0  0  0  0
 27 29  1  0  0  0  0
 28 27  2  0  0  0  0
 29 30  2  0  0  0  0
M  END
>  <MODEL>
5

>  <REMARK>
 VINA RESULT:      -5.1      2.918      5.258
  Name = 
  7 active torsions:
  status: ('A' for Active; 'I' for Inactive)
    1  A    between atoms: N_1  and  C_22
    2  A    between atoms: C_3  and  O_11
    3  A    between atoms: C_4  and  C_23
    4  A    between atoms: C_7  and  N_10
    5  A    between atoms: C_7  and  C_15
    6  A    between atoms: N_10  and  C_25
    7  A    between atoms: C_23  and  C_25
                            x       y       z     vdW  Elec       q    Type
                         _______ _______ _______ _____ _____    ______ ____

>  <TORSDO>
F 7

$$$$
=
 OpenBabel10262421453D

 30 32  0  0  1  0  0  0  0  0999 V2000
  180.6350  179.1230  138.4200 N   0  0  2  0  0  0  0  0  0  0  0  0
  181.6360  179.3590  139.4930 C   0  0  1  0  0  3  0  0  0  0  0  0
  181.0850  178.2520  137.3240 C   0  0  0  0  0  2  0  0  0  0  0  0
  180.1380  175.5030  138.5180 O   0  0  0  0  0  0  0  0  0  0  0  0
  181.2140  176.2690  138.9760 C   0  0  1  0  0  3  0  0  0  0  0  0
  181.8390  175.7930  136.4680 S   0  0  0  0  0  0  0  0  0  0  0  0
  181.8440  177.0010  137.7980 C   0  0  1  0  0  3  0  0  0  0  0  0
  180.7880  177.1610  140.1450 C   0  0  0  0  0  2  0  0  0  0  0  0
  181.1550  173.5870  137.7650 O   0  0  0  0  0  1  0  0  0  0  0  0
  180.6030  174.8120  137.3840 C   0  0  1  0  0  3  0  0  0  0  0  0
  181.7830  178.2040  140.4010 N   0  0  0  0  0  0  0  0  0  0  0  0
  181.5230  178.6940  141.7430 C   0  0  0  0  0  1  0  0  0  0  0  0
  179.8210  181.3920  139.0040 C   0  0  1  0  0  3  0  0  0  0  0  0
  180.1270  182.2040  136.1810 C   0  0  2  0  0  3  0  0  0  0  0  0
  179.1580  182.6560  138.4490 C   0  0  2  0  0  3  0  0  0  0  0  0
  179.0220  180.8490  139.9950 F   0  0  0  0  0  0  0  0  0  0  0  0
  179.9610  183.2530  137.2870 C   0  0  1  0  0  3  0  0  0  0  0  0
  178.9880  183.6000  139.4640 O   0  0  0  0  0  1  0  0  0  0  0  0
  180.0350  180.3570  137.8900 C   0  0  1  0  0  3  0  0  0  0  0  0
  181.3070  183.8070  137.7510 C   0  0  0  0  0  1  0  0  0  0  0  0
  180.8190  180.9480  136.7080 C   0  0  0  0  0  2  0  0  0  0  0  0
  180.8440  182.7290  135.1040 O   0  0  0  0  0  0  0  0  0  0  0  0
  180.0510  183.6480  134.5940 O   0  0  0  0  0  1  0  0  0  0  0  0
  183.0090  179.7790  138.9590 C   0  0  0  0  0  2  0  0  0  0  0  0
  184.0940  178.8770  139.5170 C   0  0  0  0  0  2  0  0  0  0  0  0
  184.8320  179.5680  140.5630 N   0  0  0  0  0  2  0  0  0  0  0  0
  185.7150  178.9460  141.5070 C   0  0  0  0  0  0  0  0  0  0  0  0
  187.2300  178.5830  141.0200 S   0  0  0  0  0  0  0  0  0  0  0  0
  185.3390  178.6000  142.8910 C   0  0  0  0  0  3  0  0  0  0  0  0
  184.7140  179.4210  143.7240 C   0  0  0  0  0  2  0  0  0  0  0  0
  1  3  1  6  0  0  0
  1  2  1  0  0  0  0
  2 24  1  6  0  0  0
  2 11  1  0  0  0  0
  4  5  1  0  0  0  0
  5  8  1  1  0  0  0
  6 10  1  0  0  0  0
  6  7  1  0  0  0  0
  7  3  1  6  0  0  0
  7  5  1  0  0  0  0
  8 11  1  0  0  0  0
 10  9  1  1  0  0  0
 10  4  1  0  0  0  0
 11 12  1  0  0  0  0
 13 16  1  1  0  0  0
 14 22  1  6  0  0  0
 14 21  1  0  0  0  0
 14 17  1  0  0  0  0
 15 13  1  0  0  0  0
 15 18  1  1  0  0  0
 17 20  1  1  0  0  0
 17 15  1  0  0  0  0
 19 21  1  6  0  0  0
 19  1  1  0  0  0  0
 19 13  1  0  0  0  0
 23 22  1  0  0  0  0
 24 25  1  0  0  0  0
 25 26  1  0  0  0  0
 26 27  1  0  0  0  0
 27 29  1  0  0  0  0
 28 27  2  0  0  0  0
 29 30  2  0  0  0  0
M  END
>  <MODEL>
6

>  <REMARK>
 VINA RESULT:      -5.1      7.650     10.351
  Name = 
  7 active torsions:
  status: ('A' for Active; 'I' for Inactive)
    1  A    between atoms: N_1  and  C_22
    2  A    between atoms: C_3  and  O_11
    3  A    between atoms: C_4  and  C_23
    4  A    between atoms: C_7  and  N_10
    5  A    between atoms: C_7  and  C_15
    6  A    between atoms: N_10  and  C_25
    7  A    between atoms: C_23  and  C_25
                            x       y       z     vdW  Elec       q    Type
                         _______ _______ _______ _____ _____    ______ ____

>  <TORSDO>
F 7

$$$$
=
 OpenBabel10262421453D

 30 32  0  0  1  0  0  0  0  0999 V2000
  189.8040  177.7460  139.6160 N   0  0  2  0  0  0  0  0  0  0  0  0
  190.7310  176.8280  138.9030 C   0  0  1  0  0  3  0  0  0  0  0  0
  189.2350  177.2150  140.8630 C   0  0  0  0  0  2  0  0  0  0  0  0
  191.4440  178.2530  142.8430 O   0  0  0  0  0  0  0  0  0  0  0  0
  191.5940  177.2140  141.9190 C   0  0  1  0  0  3  0  0  0  0  0  0
  189.5980  176.4010  143.4240 S   0  0  0  0  0  0  0  0  0  0  0  0
  190.2610  176.4950  141.7560 C   0  0  1  0  0  3  0  0  0  0  0  0
  192.2200  177.7270  140.6210 C   0  0  0  0  0  2  0  0  0  0  0  0
  191.6800  177.1840  144.8610 O   0  0  0  0  0  1  0  0  0  0  0  0
  190.7640  177.7040  143.9450 C   0  0  1  0  0  3  0  0  0  0  0  0
  192.0610  176.7530  139.5380 N   0  0  0  0  0  0  0  0  0  0  0  0
  193.0310  177.1130  138.5200 C   0  0  0  0  0  1  0  0  0  0  0  0
  188.8610  177.7690  137.3220 C   0  0  1  0  0  3  0  0  0  0  0  0
  186.2890  178.7250  138.4140 C   0  0  2  0  0  3  0  0  0  0  0  0
  187.7810  178.3850  136.4290 C   0  0  2  0  0  3  0  0  0  0  0  0
  190.1110  178.0710  136.8130 F   0  0  0  0  0  0  0  0  0  0  0  0
  186.3750  178.1520  136.9940 C   0  0  1  0  0  3  0  0  0  0  0  0
  187.8780  177.8780  135.1310 O   0  0  0  0  0  1  0  0  0  0  0  0
  188.7460  178.3020  138.7580 C   0  0  1  0  0  3  0  0  0  0  0  0
  185.9830  176.6760  136.9530 C   0  0  0  0  0  1  0  0  0  0  0  0
  187.3360  178.0950  139.3310 C   0  0  0  0  0  2  0  0  0  0  0  0
  185.0110  178.5380  138.9470 O   0  0  0  0  0  0  0  0  0  0  0  0
  184.5860  179.7520  139.2250 O   0  0  0  0  0  1  0  0  0  0  0  0
  190.1630  175.4190  138.7140 C   0  0  0  0  0  2  0  0  0  0  0  0
  190.8160  174.7380  137.5250 C   0  0  0  0  0  2  0  0  0  0  0  0
  190.1260  173.4950  137.2180 N   0  0  0  0  0  2  0  0  0  0  0  0
  188.8090  173.3930  136.6580 C   0  0  0  0  0  0  0  0  0  0  0  0
  188.4720  174.2650  135.3210 S   0  0  0  0  0  0  0  0  0  0  0  0
  187.7320  172.5550  137.2180 C   0  0  0  0  0  3  0  0  0  0  0  0
  186.4380  172.7820  137.0430 C   0  0  0  0  0  2  0  0  0  0  0  0
  1  3  1  1  0  0  0
  2 24  1  1  0  0  0
  2 11  1  0  0  0  0
  2  1  1  0  0  0  0
  4 10  1  0  0  0  0
  5  8  1  6  0  0  0
  5  4  1  0  0  0  0
  6 10  1  0  0  0  0
  7  3  1  6  0  0  0
  7  5  1  0  0  0  0
  7  6  1  0  0  0  0
 10  9  1  1  0  0  0
 11  8  1  0  0  0  0
 12 11  1  0  0  0  0
 13 16  1  6  0  0  0
 13 19  1  0  0  0  0
 14 22  1  1  0  0  0
 14 21  1  0  0  0  0
 15 18  1  6  0  0  0
 15 17  1  0  0  0  0
 15 13  1  0  0  0  0
 17 20  1  1  0  0  0
 17 14  1  0  0  0  0
 19 21  1  1  0  0  0
 19  1  1  0  0  0  0
 22 23  1  0  0  0  0
 25 24  1  0  0  0  0
 26 25  1  0  0  0  0
 27 26  1  0  0  0  0
 27 29  1  0  0  0  0
 28 27  2  0  0  0  0
 30 29  2  0  0  0  0
M  END
>  <MODEL>
7

>  <REMARK>
 VINA RESULT:      -5.1      2.896      7.010
  Name = 
  7 active torsions:
  status: ('A' for Active; 'I' for Inactive)
    1  A    between atoms: N_1  and  C_22
    2  A    between atoms: C_3  and  O_11
    3  A    between atoms: C_4  and  C_23
    4  A    between atoms: C_7  and  N_10
    5  A    between atoms: C_7  and  C_15
    6  A    between atoms: N_10  and  C_25
    7  A    between atoms: C_23  and  C_25
                            x       y       z     vdW  Elec       q    Type
                         _______ _______ _______ _____ _____    ______ ____

>  <TORSDO>
F 7

$$$$
=
 OpenBabel10262421453D

 30 32  0  0  1  0  0  0  0  0999 V2000
  183.9850  177.5400  137.8670 N   0  0  2  0  0  0  0  0  0  0  0  0
  183.5560  178.4670  138.9460 C   0  0  1  0  0  3  0  0  0  0  0  0
  183.2270  176.2820  137.7840 C   0  0  0  0  0  2  0  0  0  0  0  0
  180.9960  177.2350  135.7850 O   0  0  0  0  0  0  0  0  0  0  0  0
  181.1160  177.6200  137.1240 C   0  0  1  0  0  3  0  0  0  0  0  0
  180.8920  175.0050  137.2660 S   0  0  0  0  0  0  0  0  0  0  0  0
  181.7050  176.4660  137.9240 C   0  0  1  0  0  3  0  0  0  0  0  0
  181.8690  178.9470  137.2430 C   0  0  0  0  0  2  0  0  0  0  0  0
  179.0060  176.0900  135.7560 O   0  0  0  0  0  1  0  0  0  0  0  0
  180.3960  175.9620  135.7940 C   0  0  1  0  0  3  0  0  0  0  0  0
  182.3060  179.1830  138.6210 N   0  0  0  0  0  0  0  0  0  0  0  0
  182.6000  180.6010  138.7180 C   0  0  0  0  0  1  0  0  0  0  0  0
  185.9920  177.3220  136.4270 C   0  0  1  0  0  3  0  0  0  0  0  0
  187.7060  177.8390  138.7760 C   0  0  2  0  0  3  0  0  0  0  0  0
  187.4890  177.0040  136.4220 C   0  0  2  0  0  3  0  0  0  0  0  0
  185.3220  176.4070  135.6350 F   0  0  0  0  0  0  0  0  0  0  0  0
  188.2710  177.9380  137.3540 C   0  0  1  0  0  3  0  0  0  0  0  0
  187.9960  177.0730  135.1230 O   0  0  0  0  0  1  0  0  0  0  0  0
  185.4320  177.2740  137.8560 C   0  0  1  0  0  3  0  0  0  0  0  0
  188.2750  179.3770  136.8430 C   0  0  0  0  0  1  0  0  0  0  0  0
  186.2190  178.1890  138.8070 C   0  0  0  0  0  2  0  0  0  0  0  0
  188.4110  178.6720  139.6480 O   0  0  0  0  0  0  0  0  0  0  0  0
  187.5480  178.9640  140.5990 O   0  0  0  0  0  1  0  0  0  0  0  0
  183.4270  177.7890  140.3130 C   0  0  0  0  0  2  0  0  0  0  0  0
  183.9390  178.7050  141.4100 C   0  0  0  0  0  2  0  0  0  0  0  0
  184.5620  177.9220  142.4650 N   0  0  0  0  0  2  0  0  0  0  0  0
  184.7390  178.3490  143.8240 C   0  0  0  0  0  0  0  0  0  0  0  0
  183.4590  179.0030  144.5980 S   0  0  0  0  0  0  0  0  0  0  0  0
  186.0090  178.2460  144.5670 C   0  0  0  0  0  3  0  0  0  0  0  0
  186.1000  178.1610  145.8870 C   0  0  0  0  0  2  0  0  0  0  0  0
  1  3  1  1  0  0  0
  1  2  1  0  0  0  0
  2 24  1  1  0  0  0
  4 10  1  0  0  0  0
  4  5  1  0  0  0  0
  5  8  1  6  0  0  0
  5  7  1  0  0  0  0
  6  7  1  0  0  0  0
  7  3  1  6  0  0  0
  8 11  1  0  0  0  0
 10  9  1  1  0  0  0
 10  6  1  0  0  0  0
 11 12  1  0  0  0  0
 11  2  1  0  0  0  0
 13 16  1  6  0  0  0
 13 19  1  0  0  0  0
 14 21  1  0  0  0  0
 14 22  1  1  0  0  0
 15 18  1  6  0  0  0
 15 13  1  0  0  0  0
 15 17  1  0  0  0  0
 17 20  1  6  0  0  0
 17 14  1  0  0  0  0
 19  1  1  0  0  0  0
 19 21  1  1  0  0  0
 22 23  1  0  0  0  0
 24 25  1  0  0  0  0
 25 26  1  0  0  0  0
 26 27  1  0  0  0  0
 27 29  1  0  0  0  0
 27 28  2  0  0  0  0
 29 30  2  0  0  0  0
M  END
>  <MODEL>
8

>  <REMARK>
 VINA RESULT:      -5.0      4.536      5.845
  Name = 
  7 active torsions:
  status: ('A' for Active; 'I' for Inactive)
    1  A    between atoms: N_1  and  C_22
    2  A    between atoms: C_3  and  O_11
    3  A    between atoms: C_4  and  C_23
    4  A    between atoms: C_7  and  N_10
    5  A    between atoms: C_7  and  C_15
    6  A    between atoms: N_10  and  C_25
    7  A    between atoms: C_23  and  C_25
                            x       y       z     vdW  Elec       q    Type
                         _______ _______ _______ _____ _____    ______ ____

>  <TORSDO>
F 7

$$$$
=
 OpenBabel10262421453D

 30 32  0  0  1  0  0  0  0  0999 V2000
  184.5980  175.5070  136.8600 N   0  0  2  0  0  0  0  0  0  0  0  0
  183.6010  176.5080  137.3190 C   0  0  1  0  0  3  0  0  0  0  0  0
  184.2930  174.1120  137.2120 C   0  0  0  0  0  2  0  0  0  0  0  0
  182.6580  173.3480  134.6380 O   0  0  0  0  0  0  0  0  0  0  0  0
  182.2240  174.1940  135.6640 C   0  0  1  0  0  3  0  0  0  0  0  0
  182.7090  171.9320  136.9120 S   0  0  0  0  0  0  0  0  0  0  0  0
  182.8220  173.7240  136.9840 C   0  0  1  0  0  3  0  0  0  0  0  0
  182.4940  175.6580  135.3120 C   0  0  0  0  0  2  0  0  0  0  0  0
  181.1910  171.5870  134.7700 O   0  0  0  0  0  1  0  0  0  0  0  0
  182.4700  172.0350  135.1060 C   0  0  1  0  0  3  0  0  0  0  0  0
  182.3770  176.5150  136.4940 N   0  0  0  0  0  0  0  0  0  0  0  0
  182.2140  177.8700  136.0000 C   0  0  0  0  0  1  0  0  0  0  0  0
  186.9840  175.1670  136.2730 C   0  0  1  0  0  3  0  0  0  0  0  0
  187.6730  177.6340  137.7450 C   0  0  2  0  0  3  0  0  0  0  0  0
  188.4230  175.4880  136.6860 C   0  0  2  0  0  3  0  0  0  0  0  0
  186.7920  173.7970  136.2930 F   0  0  0  0  0  0  0  0  0  0  0  0
  188.6680  177.0000  136.7630 C   0  0  1  0  0  3  0  0  0  0  0  0
  189.3250  174.8910  135.8030 O   0  0  0  0  0  1  0  0  0  0  0  0
  185.9840  175.8420  137.2240 C   0  0  1  0  0  3  0  0  0  0  0  0
  188.6030  177.6580  135.3860 C   0  0  0  0  0  1  0  0  0  0  0  0
  186.2300  177.3540  137.3290 C   0  0  0  0  0  2  0  0  0  0  0  0
  187.8850  179.0110  137.8430 O   0  0  0  0  0  0  0  0  0  0  0  0
  189.0550  179.1250  138.4360 O   0  0  0  0  0  1  0  0  0  0  0  0
  183.2320  176.3630  138.7980 C   0  0  0  0  0  2  0  0  0  0  0  0
  183.2630  177.7140  139.4880 C   0  0  0  0  0  2  0  0  0  0  0  0
  183.4210  177.5400  140.9230 N   0  0  0  0  0  2  0  0  0  0  0  0
  184.2160  178.3730  141.7790 C   0  0  0  0  0  0  0  0  0  0  0  0
  185.6000  178.9940  141.1790 S   0  0  0  0  0  0  0  0  0  0  0  0
  183.8680  178.6990  143.1760 C   0  0  0  0  0  3  0  0  0  0  0  0
  182.6420  178.9770  143.5970 C   0  0  0  0  0  2  0  0  0  0  0  0
  1  3  1  1  0  0  0
  1 19  1  0  0  0  0
  1  2  1  0  0  0  0
  2 24  1  1  0  0  0
  4 10  1  0  0  0  0
  4  5  1  0  0  0  0
  5  8  1  6  0  0  0
  5  7  1  0  0  0  0
  6  7  1  0  0  0  0
  7  3  1  6  0  0  0
  8 11  1  0  0  0  0
 10  9  1  1  0  0  0
 10  6  1  0  0  0  0
 11  2  1  0  0  0  0
 12 11  1  0  0  0  0
 13 16  1  1  0  0  0
 13 15  1  0  0  0  0
 13 19  1  0  0  0  0
 14 22  1  6  0  0  0
 15 18  1  6  0  0  0
 15 17  1  0  0  0  0
 17 20  1  6  0  0  0
 17 14  1  0  0  0  0
 19 21  1  6  0  0  0
 21 14  1  0  0  0  0
 22 23  1  0  0  0  0
 24 25  1  0  0  0  0
 25 26  1  0  0  0  0
 26 27  1  0  0  0  0
 27 29  1  0  0  0  0
 28 27  2  0  0  0  0
 29 30  2  0  0  0  0
M  END
>  <MODEL>
9

>  <REMARK>
 VINA RESULT:      -4.9      3.994      5.384
  Name = 
  7 active torsions:
  status: ('A' for Active; 'I' for Inactive)
    1  A    between atoms: N_1  and  C_22
    2  A    between atoms: C_3  and  O_11
    3  A    between atoms: C_4  and  C_23
    4  A    between atoms: C_7  and  N_10
    5  A    between atoms: C_7  and  C_15
    6  A    between atoms: N_10  and  C_25
    7  A    between atoms: C_23  and  C_25
                            x       y       z     vdW  Elec       q    Type
                         _______ _______ _______ _____ _____    ______ ____

>  <TORSDO>
F 7

$$$$
