=
 OpenBabel10262420503D

 28 31  0  0  1  0  0  0  0  0999 V2000
  190.3930  176.7280  144.1230 C   0  0  1  0  0  3  0  0  0  0  0  0
  185.5490  178.0920  142.8920 C   0  0  0  0  0  3  0  0  0  0  0  0
  188.2110  177.7360  148.5420 C   0  0  0  0  0  1  0  0  0  0  0  0
  184.5170  178.5660  145.0400 C   0  0  0  0  0  0  0  0  0  0  0  0
  186.8570  177.8650  144.9620 C   0  0  0  0  0  0  0  0  0  0  0  0
  183.2330  178.7880  142.9990 C   0  0  0  0  0  0  0  0  0  0  0  0
  185.6520  178.1710  144.2920 C   0  0  0  0  0  0  0  0  0  0  0  0
  185.7780  178.3510  147.0920 C   0  0  0  0  0  3  0  0  0  0  0  0
  183.3180  178.8720  144.3910 C   0  0  0  0  0  3  0  0  0  0  0  0
  189.2540  177.2680  146.3160 C   0  0  0  0  0  0  0  0  0  0  0  0
  187.9980  177.4690  144.2510 C   0  0  0  0  0  3  0  0  0  0  0  0
  184.5890  178.6530  146.4300 C   0  0  0  0  0  3  0  0  0  0  0  0
  191.6870  176.8270  146.2920 C   0  0  0  0  0  2  0  0  0  0  0  0
  188.1200  177.6520  147.0490 C   0  0  0  0  0  0  0  0  0  0  0  0
  190.4470  176.9530  146.9830 O   0  0  0  0  0  0  0  0  0  0  0  0
  182.0390  179.0930  142.3590 O   0  0  0  0  0  1  0  0  0  0  0  0
  184.3460  178.4000  142.2500 C   0  0  0  0  0  3  0  0  0  0  0  0
  186.9190  177.9570  146.3770 C   0  0  0  0  0  0  0  0  0  0  0  0
  191.4930  176.0820  144.9790 C   0  0  0  0  0  2  0  0  0  0  0  0
  189.1900  177.1760  144.9140 C   0  0  0  0  0  0  0  0  0  0  0  0
  190.8830  177.7480  143.0760 C   0  0  2  0  0  3  0  0  0  0  0  0
  191.1750  179.1210  143.6580 C   0  0  0  0  0  1  0  0  0  0  0  0
  190.1580  177.7920  141.7220 C   0  0  0  0  0  2  0  0  0  0  0  0
  190.2850  176.7200  139.4410 C   0  0  0  0  0  0  0  0  0  0  0  0
  192.3640  177.4050  140.6350 C   0  0  0  0  0  1  0  0  0  0  0  0
  190.9250  177.1990  140.6310 N   0  0  0  0  0  0  0  0  0  0  0  0
  188.9250  176.9220  139.2390 O   0  0  0  0  0  1  0  0  0  0  0  0
  190.9550  176.1270  138.5540 O   0  0  0  0  0  0  0  0  0  0  0  0
  1 21  1  1  0  0  0
  1 20  1  0  0  0  0
  1 19  1  0  0  0  0
  2  7  1  0  0  0  0
  4 12  1  0  0  0  0
  5 18  1  0  0  0  0
  6  9  2  0  0  0  0
  7  5  1  0  0  0  0
  7  4  2  0  0  0  0
  9  4  1  0  0  0  0
 10 15  1  0  0  0  0
 10 14  1  0  0  0  0
 11 20  1  0  0  0  0
 11  5  2  0  0  0  0
 12  8  2  0  0  0  0
 13 15  1  0  0  0  0
 14  3  1  0  0  0  0
 16  6  1  0  0  0  0
 17  2  2  0  0  0  0
 17  6  1  0  0  0  0
 18 14  2  0  0  0  0
 18  8  1  0  0  0  0
 19 13  1  0  0  0  0
 20 10  2  0  0  0  0
 21 22  1  1  0  0  0
 23 21  1  0  0  0  0
 24 26  1  0  0  0  0
 26 25  1  0  0  0  0
 26 23  1  0  0  0  0
 27 24  1  0  0  0  0
 28 24  2  0  0  0  0
M  END
>  <MODEL>
1

>  <REMARK>
 VINA RESULT:     -12.0      0.000      0.000
  Name = 
  3 active torsions:
  status: ('A' for Active; 'I' for Inactive)
    1  A    between atoms: C_1  and  C_2
    2  A    between atoms: C_2  and  C_3
    3  A    between atoms: C_3  and  N_11
                            x       y       z     vdW  Elec       q    Type
                         _______ _______ _______ _____ _____    ______ ____

>  <TORSDO>
F 3

$$$$
=
 OpenBabel10262420503D

 28 31  0  0  1  0  0  0  0  0999 V2000
  189.6220  176.3810  142.6270 C   0  0  1  0  0  3  0  0  0  0  0  0
  184.7530  178.1470  142.7110 C   0  0  0  0  0  3  0  0  0  0  0  0
  188.8100  177.5950  147.4410 C   0  0  0  0  0  1  0  0  0  0  0  0
  184.3840  178.7190  145.0430 C   0  0  0  0  0  0  0  0  0  0  0  0
  186.5500  177.8210  144.3560 C   0  0  0  0  0  0  0  0  0  0  0  0
  182.6160  179.0390  143.4190 C   0  0  0  0  0  0  0  0  0  0  0  0
  185.2370  178.2240  144.0280 C   0  0  0  0  0  0  0  0  0  0  0  0
  186.1330  178.4080  146.6840 C   0  0  0  0  0  3  0  0  0  0  0  0
  183.0820  179.1230  144.7330 C   0  0  0  0  0  3  0  0  0  0  0  0
  189.1690  177.0270  145.0300 C   0  0  0  0  0  0  0  0  0  0  0  0
  187.4200  177.3240  143.3750 C   0  0  0  0  0  3  0  0  0  0  0  0
  184.8370  178.8070  146.3590 C   0  0  0  0  0  3  0  0  0  0  0  0
  191.4590  176.3800  144.3630 C   0  0  0  0  0  2  0  0  0  0  0  0
  188.3110  177.5110  146.0300 C   0  0  0  0  0  0  0  0  0  0  0  0
  190.4680  176.6150  145.3590 O   0  0  0  0  0  0  0  0  0  0  0  0
  181.3230  179.4420  143.1160 O   0  0  0  0  0  1  0  0  0  0  0  0
  183.4500  178.5530  142.4090 C   0  0  0  0  0  3  0  0  0  0  0  0
  187.0010  177.9140  145.6990 C   0  0  0  0  0  0  0  0  0  0  0  0
  190.8570  175.6470  143.1720 C   0  0  0  0  0  2  0  0  0  0  0  0
  188.7200  176.9340  143.7000 C   0  0  0  0  0  0  0  0  0  0  0  0
  189.8910  177.3490  141.4580 C   0  0  2  0  0  3  0  0  0  0  0  0
  188.9050  178.5030  141.3890 C   0  0  0  0  0  1  0  0  0  0  0  0
  190.2320  176.7430  140.0880 C   0  0  0  0  0  2  0  0  0  0  0  0
  192.0790  176.6560  138.3710 C   0  0  0  0  0  0  0  0  0  0  0  0
  192.4880  177.6530  140.6190 C   0  0  0  0  0  1  0  0  0  0  0  0
  191.6310  176.9110  139.7080 N   0  0  0  0  0  0  0  0  0  0  0  0
  191.1670  176.3610  137.3640 O   0  0  0  0  0  0  0  0  0  0  0  0
  193.3060  176.7160  138.0890 O   0  0  0  0  0  1  0  0  0  0  0  0
  1 21  1  6  0  0  0
  1 19  1  0  0  0  0
  1 20  1  0  0  0  0
  2  7  1  0  0  0  0
  4 12  1  0  0  0  0
  5 18  1  0  0  0  0
  6  9  2  0  0  0  0
  7  5  1  0  0  0  0
  7  4  2  0  0  0  0
  9  4  1  0  0  0  0
 10 15  1  0  0  0  0
 10 14  1  0  0  0  0
 11 20  1  0  0  0  0
 11  5  2  0  0  0  0
 12  8  2  0  0  0  0
 13 15  1  0  0  0  0
 14  3  1  0  0  0  0
 16  6  1  0  0  0  0
 17  2  2  0  0  0  0
 17  6  1  0  0  0  0
 18 14  2  0  0  0  0
 18  8  1  0  0  0  0
 19 13  1  0  0  0  0
 20 10  2  0  0  0  0
 21 22  1  6  0  0  0
 23 21  1  0  0  0  0
 24 26  1  0  0  0  0
 26 23  1  0  0  0  0
 26 25  1  0  0  0  0
 27 24  2  0  0  0  0
 28 24  1  0  0  0  0
M  END
>  <MODEL>
2

>  <REMARK>
 VINA RESULT:     -10.8      1.223      1.524
  Name = 
  3 active torsions:
  status: ('A' for Active; 'I' for Inactive)
    1  A    between atoms: C_1  and  C_2
    2  A    between atoms: C_2  and  C_3
    3  A    between atoms: C_3  and  N_11
                            x       y       z     vdW  Elec       q    Type
                         _______ _______ _______ _____ _____    ______ ____

>  <TORSDO>
F 3

$$$$
=
 OpenBabel10262420503D

 28 31  0  0  1  0  0  0  0  0999 V2000
  188.9580  177.0230  143.8000 C   0  0  1  0  0  3  0  0  0  0  0  0
  184.5670  177.9770  141.2210 C   0  0  0  0  0  3  0  0  0  0  0  0
  185.7710  178.6870  147.3190 C   0  0  0  0  0  1  0  0  0  0  0  0
  183.0460  178.7710  142.9420 C   0  0  0  0  0  0  0  0  0  0  0  0
  185.3310  178.1550  143.5520 C   0  0  0  0  0  0  0  0  0  0  0  0
  182.2990  178.5950  140.6440 C   0  0  0  0  0  0  0  0  0  0  0  0
  184.3270  178.2970  142.5680 C   0  0  0  0  0  0  0  0  0  0  0  0
  183.7680  178.9560  145.2420 C   0  0  0  0  0  3  0  0  0  0  0  0
  182.0430  178.9170  141.9790 C   0  0  0  0  0  3  0  0  0  0  0  0
  187.3220  177.8850  145.5270 C   0  0  0  0  0  0  0  0  0  0  0  0
  186.6090  177.6860  143.2170 C   0  0  0  0  0  3  0  0  0  0  0  0
  182.7770  179.0960  144.2700 C   0  0  0  0  0  3  0  0  0  0  0  0
  189.6850  177.5380  146.1660 C   0  0  0  0  0  2  0  0  0  0  0  0
  186.0460  178.3460  145.8860 C   0  0  0  0  0  0  0  0  0  0  0  0
  188.3150  177.7330  146.5050 O   0  0  0  0  0  0  0  0  0  0  0  0
  181.2990  178.7420  139.6930 O   0  0  0  0  0  1  0  0  0  0  0  0
  183.5590  178.1260  140.2650 C   0  0  0  0  0  3  0  0  0  0  0  0
  185.0470  178.4880  144.9020 C   0  0  0  0  0  0  0  0  0  0  0  0
  189.8120  176.5730  144.9950 C   0  0  0  0  0  2  0  0  0  0  0  0
  187.6010  177.5550  144.1880 C   0  0  0  0  0  0  0  0  0  0  0  0
  189.6940  177.8680  142.7420 C   0  0  2  0  0  3  0  0  0  0  0  0
  190.5550  178.9680  143.3370 C   0  0  0  0  0  1  0  0  0  0  0  0
  188.9060  178.3040  141.4960 C   0  0  0  0  0  2  0  0  0  0  0  0
  188.3110  177.5290  139.1690 C   0  0  0  0  0  0  0  0  0  0  0  0
  190.4510  176.8150  140.2320 C   0  0  0  0  0  1  0  0  0  0  0  0
  189.1540  177.4660  140.3270 N   0  0  0  0  0  0  0  0  0  0  0  0
  187.3050  178.4840  139.0790 O   0  0  0  0  0  1  0  0  0  0  0  0
  188.4870  176.7300  138.2110 O   0  0  0  0  0  0  0  0  0  0  0  0
  1 21  1  1  0  0  0
  1 20  1  0  0  0  0
  1 19  1  0  0  0  0
  2  7  1  0  0  0  0
  4 12  1  0  0  0  0
  5 18  1  0  0  0  0
  6  9  2  0  0  0  0
  7  4  2  0  0  0  0
  7  5  1  0  0  0  0
  9  4  1  0  0  0  0
 10 14  1  0  0  0  0
 10 15  1  0  0  0  0
 11  5  2  0  0  0  0
 11 20  1  0  0  0  0
 12  8  2  0  0  0  0
 13 15  1  0  0  0  0
 14  3  1  0  0  0  0
 16  6  1  0  0  0  0
 17  6  1  0  0  0  0
 17  2  2  0  0  0  0
 18  8  1  0  0  0  0
 18 14  2  0  0  0  0
 19 13  1  0  0  0  0
 20 10  2  0  0  0  0
 21 22  1  1  0  0  0
 23 21  1  0  0  0  0
 24 26  1  0  0  0  0
 25 26  1  0  0  0  0
 26 23  1  0  0  0  0
 27 24  1  0  0  0  0
 28 24  2  0  0  0  0
M  END
>  <MODEL>
3

>  <REMARK>
 VINA RESULT:     -10.1      1.451      2.205
  Name = 
  3 active torsions:
  status: ('A' for Active; 'I' for Inactive)
    1  A    between atoms: C_1  and  C_2
    2  A    between atoms: C_2  and  C_3
    3  A    between atoms: C_3  and  N_11
                            x       y       z     vdW  Elec       q    Type
                         _______ _______ _______ _____ _____    ______ ____

>  <TORSDO>
F 3

$$$$
=
 OpenBabel10262420503D

 28 31  0  0  1  0  0  0  0  0999 V2000
  189.2710  178.2030  139.3850 C   0  0  1  0  0  3  0  0  0  0  0  0
  190.9130  177.2520  144.2050 C   0  0  0  0  0  3  0  0  0  0  0  0
  185.1030  178.4040  142.1930 C   0  0  0  0  0  1  0  0  0  0  0  0
  188.8850  177.3610  145.5400 C   0  0  0  0  0  0  0  0  0  0  0  0
  188.7540  177.7240  143.1260 C   0  0  0  0  0  0  0  0  0  0  0  0
  191.0140  176.8950  146.5970 C   0  0  0  0  0  0  0  0  0  0  0  0
  189.5230  177.4470  144.2780 C   0  0  0  0  0  0  0  0  0  0  0  0
  186.7490  177.8250  144.5070 C   0  0  0  0  0  3  0  0  0  0  0  0
  189.6340  177.0860  146.6880 C   0  0  0  0  0  3  0  0  0  0  0  0
  187.2030  178.2720  140.8390 C   0  0  0  0  0  0  0  0  0  0  0  0
  189.3540  177.8180  141.8630 C   0  0  0  0  0  3  0  0  0  0  0  0
  187.5080  177.5500  145.6440 C   0  0  0  0  0  3  0  0  0  0  0  0
  186.9580  178.3820  138.3820 C   0  0  0  0  0  2  0  0  0  0  0  0
  186.5830  178.1940  142.0960 C   0  0  0  0  0  0  0  0  0  0  0  0
  186.4410  178.5600  139.6980 O   0  0  0  0  0  0  0  0  0  0  0  0
  191.7520  176.6230  147.7410 O   0  0  0  0  0  1  0  0  0  0  0  0
  191.6530  176.9770  145.3580 C   0  0  0  0  0  3  0  0  0  0  0  0
  187.3530  177.9150  143.2430 C   0  0  0  0  0  0  0  0  0  0  0  0
  188.4000  178.8640  138.3050 C   0  0  0  0  0  2  0  0  0  0  0  0
  188.5920  178.0840  140.7250 C   0  0  0  0  0  0  0  0  0  0  0  0
  190.0300  176.9380  138.9390 C   0  0  2  0  0  3  0  0  0  0  0  0
  191.3990  176.7950  139.5810 C   0  0  0  0  0  1  0  0  0  0  0  0
  190.0060  176.5740  137.4460 C   0  0  0  0  0  2  0  0  0  0  0  0
  190.0070  174.0660  137.1750 C   0  0  0  0  0  0  0  0  0  0  0  0
  187.8610  175.3360  137.1930 C   0  0  0  0  0  1  0  0  0  0  0  0
  189.3140  175.3210  137.1620 N   0  0  0  0  0  0  0  0  0  0  0  0
  191.3330  173.9940  137.5820 O   0  0  0  0  0  1  0  0  0  0  0  0
  189.4110  173.0090  136.8340 O   0  0  0  0  0  0  0  0  0  0  0  0
  1 21  1  6  0  0  0
  1 20  1  0  0  0  0
  2  7  2  0  0  0  0
  2 17  1  0  0  0  0
  4 12  1  0  0  0  0
  4  9  2  0  0  0  0
  5 18  1  0  0  0  0
  5  7  1  0  0  0  0
  6  9  1  0  0  0  0
  6 16  1  0  0  0  0
  7  4  1  0  0  0  0
  8 12  2  0  0  0  0
 10 14  1  0  0  0  0
 11  5  2  0  0  0  0
 13 15  1  0  0  0  0
 14  3  1  0  0  0  0
 14 18  2  0  0  0  0
 15 10  1  0  0  0  0
 17  6  2  0  0  0  0
 18  8  1  0  0  0  0
 19 13  1  0  0  0  0
 19  1  1  0  0  0  0
 20 10  2  0  0  0  0
 20 11  1  0  0  0  0
 21 22  1  6  0  0  0
 23 21  1  0  0  0  0
 24 27  1  0  0  0  0
 26 24  1  0  0  0  0
 26 25  1  0  0  0  0
 26 23  1  0  0  0  0
 28 24  2  0  0  0  0
M  END
>  <MODEL>
4

>  <REMARK>
 VINA RESULT:      -9.5      2.158      5.880
  Name = 
  3 active torsions:
  status: ('A' for Active; 'I' for Inactive)
    1  A    between atoms: C_1  and  C_2
    2  A    between atoms: C_2  and  C_3
    3  A    between atoms: C_3  and  N_11
                            x       y       z     vdW  Elec       q    Type
                         _______ _______ _______ _____ _____    ______ ____

>  <TORSDO>
F 3

$$$$
=
 OpenBabel10262420503D

 28 31  0  0  1  0  0  0  0  0999 V2000
  184.5540  179.0780  139.4870 C   0  0  1  0  0  3  0  0  0  0  0  0
  188.5720  177.8680  142.5250 C   0  0  0  0  0  3  0  0  0  0  0  0
  182.5760  178.7120  144.0980 C   0  0  0  0  0  1  0  0  0  0  0  0
  187.5930  177.7040  144.7430 C   0  0  0  0  0  0  0  0  0  0  0  0
  186.1640  178.2530  142.8380 C   0  0  0  0  0  0  0  0  0  0  0  0
  189.9640  177.3250  144.4300 C   0  0  0  0  0  0  0  0  0  0  0  0
  187.4410  177.9440  143.3560 C   0  0  0  0  0  0  0  0  0  0  0  0
  185.2280  178.0790  145.0810 C   0  0  0  0  0  3  0  0  0  0  0  0
  188.8510  177.3970  145.2690 C   0  0  0  0  0  3  0  0  0  0  0  0
  183.6070  178.8610  141.8220 C   0  0  0  0  0  0  0  0  0  0  0  0
  185.9790  178.4980  141.4700 C   0  0  0  0  0  3  0  0  0  0  0  0
  186.4890  177.7730  145.5910 C   0  0  0  0  0  3  0  0  0  0  0  0
  182.0640  179.1520  139.9130 C   0  0  0  0  0  2  0  0  0  0  0  0
  183.7710  178.6300  143.1970 C   0  0  0  0  0  0  0  0  0  0  0  0
  182.3410  179.1790  141.3100 O   0  0  0  0  0  0  0  0  0  0  0  0
  191.2110  177.0200  144.9580 O   0  0  0  0  0  1  0  0  0  0  0  0
  189.8260  177.5600  143.0600 C   0  0  0  0  0  3  0  0  0  0  0  0
  185.0470  178.3210  143.7100 C   0  0  0  0  0  0  0  0  0  0  0  0
  183.2220  179.7530  139.1270 C   0  0  0  0  0  2  0  0  0  0  0  0
  184.7150  178.7940  140.9580 C   0  0  0  0  0  0  0  0  0  0  0  0
  184.9780  177.9180  138.5640 C   0  0  2  0  0  3  0  0  0  0  0  0
  186.3340  178.1270  137.9130 C   0  0  0  0  0  1  0  0  0  0  0  0
  183.9200  177.3310  137.6170 C   0  0  0  0  0  2  0  0  0  0  0  0
  184.2350  174.8390  137.3730 C   0  0  0  0  0  0  0  0  0  0  0  0
  182.6810  175.7560  139.0950 C   0  0  0  0  0  1  0  0  0  0  0  0
  183.5430  175.9590  137.9420 N   0  0  0  0  0  0  0  0  0  0  0  0
  185.3680  175.0300  136.5920 O   0  0  0  0  0  0  0  0  0  0  0  0
  183.8320  173.6650  137.5940 O   0  0  0  0  0  1  0  0  0  0  0  0
  1 21  1  6  0  0  0
  1 20  1  0  0  0  0
  2 17  2  0  0  0  0
  2  7  1  0  0  0  0
  4  9  1  0  0  0  0
  4 12  1  0  0  0  0
  5  7  1  0  0  0  0
  5 18  1  0  0  0  0
  6 16  1  0  0  0  0
  6  9  2  0  0  0  0
  7  4  2  0  0  0  0
  8 12  2  0  0  0  0
 10 14  1  0  0  0  0
 11  5  2  0  0  0  0
 13 15  1  0  0  0  0
 14 18  2  0  0  0  0
 14  3  1  0  0  0  0
 15 10  1  0  0  0  0
 17  6  1  0  0  0  0
 18  8  1  0  0  0  0
 19  1  1  0  0  0  0
 19 13  1  0  0  0  0
 20 11  1  0  0  0  0
 20 10  2  0  0  0  0
 21 22  1  6  0  0  0
 23 26  1  0  0  0  0
 23 21  1  0  0  0  0
 24 28  1  0  0  0  0
 24 26  1  0  0  0  0
 26 25  1  0  0  0  0
 27 24  2  0  0  0  0
M  END
>  <MODEL>
5

>  <REMARK>
 VINA RESULT:      -9.1      3.232      6.883
  Name = 
  3 active torsions:
  status: ('A' for Active; 'I' for Inactive)
    1  A    between atoms: C_1  and  C_2
    2  A    between atoms: C_2  and  C_3
    3  A    between atoms: C_3  and  N_11
                            x       y       z     vdW  Elec       q    Type
                         _______ _______ _______ _____ _____    ______ ____

>  <TORSDO>
F 3

$$$$
