=
 OpenBabel10262421563D

 30 33  0  0  1  0  0  0  0  0999 V2000
  187.0060  178.0550  144.4850 N   0  0  0  0  0  2  0  0  0  0  0  0
  186.9080  178.3990  146.9240 C   0  0  0  0  0  0  0  0  0  0  0  0
  190.9770  176.6690  144.8710 N   0  0  0  0  0  2  0  0  0  0  0  0
  187.6590  177.5490  143.2770 C   0  0  2  0  0  3  0  0  0  0  0  0
  191.5110  175.8030  143.8140 C   0  0  0  0  0  2  0  0  0  0  0  0
  187.4790  178.2570  148.1920 C   0  0  0  0  0  3  0  0  0  0  0  0
  185.5880  179.0790  146.7990 C   0  0  0  0  0  1  0  0  0  0  0  0
  189.5220  176.7030  144.7310 C   0  0  2  0  0  3  0  0  0  0  0  0
  188.7140  177.6220  148.3410 C   0  0  0  0  0  3  0  0  0  0  0  0
  187.5780  177.9020  145.7940 C   0  0  0  0  0  0  0  0  0  0  0  0
  189.1780  177.5040  143.4730 C   0  0  1  0  0  3  0  0  0  0  0  0
  191.0200  176.2070  142.4400 C   0  0  0  0  0  3  0  0  0  0  0  0
  189.9100  176.9450  142.2820 C   0  0  0  0  0  3  0  0  0  0  0  0
  189.3900  177.1340  147.2200 C   0  0  0  0  0  3  0  0  0  0  0  0
  188.8410  177.2900  145.9400 C   0  0  0  0  0  0  0  0  0  0  0  0
  185.7160  179.6780  140.9770 O   0  0  0  0  0  0  0  0  0  0  0  0
  185.9600  178.9130  141.9510 C   0  0  0  0  0  0  0  0  0  0  0  0
  187.2860  178.3710  142.1250 N   0  0  0  0  0  0  0  0  0  0  0  0
  184.4750  179.7480  143.7650 C   0  0  0  0  0  2  0  0  0  0  0  0
  183.6080  178.1510  142.1780 C   0  0  0  0  0  2  0  0  0  0  0  0
  184.8570  178.5690  142.9080 C   0  0  1  0  0  3  0  0  0  0  0  0
  183.2180  179.4320  144.4200 N   0  0  0  0  0  2  0  0  0  0  0  0
  182.1990  178.5850  143.2390 S   0  0  0  0  0  0  0  0  0  0  0  0
  188.3370  178.6760  141.1640 C   0  0  0  0  0  2  0  0  0  0  0  0
  187.9580  178.1550  139.7880 C   0  0  0  0  0  2  0  0  0  0  0  0
  189.1840  178.0820  138.8980 C   0  0  0  0  0  2  0  0  0  0  0  0
  189.4530  176.6990  138.5360 N   0  0  0  0  0  2  0  0  0  0  0  0
  191.8230  176.9130  139.1000 O   0  0  0  0  0  1  0  0  0  0  0  0
  190.7610  176.1420  138.6420 C   0  0  0  0  0  0  0  0  0  0  0  0
  190.9560  174.9420  138.3200 O   0  0  0  0  0  0  0  0  0  0  0  0
  1 10  1  0  0  0  0
  2  6  1  0  0  0  0
  4 18  1  6  0  0  0
  4 11  1  0  0  0  0
  4  1  1  0  0  0  0
  5  3  1  0  0  0  0
  6  9  2  0  0  0  0
  7  2  1  0  0  0  0
  8  3  1  1  0  0  0
  8 15  1  0  0  0  0
 10 15  1  0  0  0  0
 10  2  2  0  0  0  0
 11 13  1  6  0  0  0
 11  8  1  0  0  0  0
 12  5  1  0  0  0  0
 13 12  2  0  0  0  0
 14  9  1  0  0  0  0
 15 14  2  0  0  0  0
 16 17  2  0  0  0  0
 17 18  1  0  0  0  0
 19 22  1  0  0  0  0
 20 21  1  0  0  0  0
 20 23  1  0  0  0  0
 21 17  1  6  0  0  0
 21 19  1  0  0  0  0
 23 22  1  0  0  0  0
 24 18  1  0  0  0  0
 25 24  1  0  0  0  0
 26 25  1  0  0  0  0
 27 29  1  0  0  0  0
 27 26  1  0  0  0  0
 29 28  1  0  0  0  0
 30 29  2  0  0  0  0
M  END
>  <MODEL>
1

>  <REMARK>
 VINA RESULT:      -9.4      0.000      0.000
  Name = 
  6 active torsions:
  status: ('A' for Active; 'I' for Inactive)
    1  A    between atoms: C_4  and  N_13
    2  A    between atoms: N_7  and  C_16
    3  A    between atoms: C_8  and  C_12
    4  A    between atoms: N_13  and  C_27
    5  A    between atoms: C_16  and  C_30
    6  A    between atoms: C_27  and  C_30
                            x       y       z     vdW  Elec       q    Type
                         _______ _______ _______ _____ _____    ______ ____

>  <TORSDO>
F 6

$$$$
=
 OpenBabel10262421563D

 30 33  0  0  1  0  0  0  0  0999 V2000
  183.0570  178.4080  141.2670 N   0  0  0  0  0  2  0  0  0  0  0  0
  182.8580  178.8470  143.6840 C   0  0  0  0  0  0  0  0  0  0  0  0
  187.2510  178.8130  141.5700 N   0  0  0  0  0  2  0  0  0  0  0  0
  183.8450  178.1360  140.0640 C   0  0  2  0  0  3  0  0  0  0  0  0
  188.0810  178.1740  140.5430 C   0  0  0  0  0  2  0  0  0  0  0  0
  183.4530  179.0400  144.9340 C   0  0  0  0  0  3  0  0  0  0  0  0
  181.3740  178.9130  143.5740 C   0  0  0  0  0  1  0  0  0  0  0  0
  185.9100  178.2350  141.4870 C   0  0  2  0  0  3  0  0  0  0  0  0
  184.8420  178.9840  145.0690 C   0  0  0  0  0  3  0  0  0  0  0  0
  183.6590  178.5960  142.5580 C   0  0  0  0  0  0  0  0  0  0  0  0
  185.2490  178.7340  140.2000 C   0  0  1  0  0  3  0  0  0  0  0  0
  187.4490  178.2450  139.1690 C   0  0  0  0  0  3  0  0  0  0  0  0
  186.1310  178.4460  139.0150 C   0  0  0  0  0  3  0  0  0  0  0  0
  185.6440  178.7420  143.9510 C   0  0  0  0  0  3  0  0  0  0  0  0
  185.0640  178.5700  142.6870 C   0  0  0  0  0  0  0  0  0  0  0  0
  182.0830  178.2880  136.8290 O   0  0  0  0  0  0  0  0  0  0  0  0
  182.7480  177.8030  137.7860 C   0  0  0  0  0  0  0  0  0  0  0  0
  183.1500  178.6490  138.8830 N   0  0  0  0  0  0  0  0  0  0  0  0
  181.9610  175.4870  137.3330 C   0  0  0  0  0  2  0  0  0  0  0  0
  184.2310  176.0870  136.7770 C   0  0  0  0  0  2  0  0  0  0  0  0
  183.1190  176.3510  137.7590 C   0  0  1  0  0  3  0  0  0  0  0  0
  182.4810  174.1650  137.0290 N   0  0  0  0  0  2  0  0  0  0  0  0
  184.0280  174.3800  136.1880 S   0  0  0  0  0  0  0  0  0  0  0  0
  182.8220  180.0680  138.8770 C   0  0  0  0  0  2  0  0  0  0  0  0
  181.3370  180.2650  139.1340 C   0  0  0  0  0  2  0  0  0  0  0  0
  180.7810  181.3330  138.2110 C   0  0  0  0  0  2  0  0  0  0  0  0
  181.6070  182.5280  138.2800 N   0  0  0  0  0  2  0  0  0  0  0  0
  180.5040  183.5160  136.3330 O   0  0  0  0  0  0  0  0  0  0  0  0
  181.4550  183.5930  137.3440 C   0  0  0  0  0  0  0  0  0  0  0  0
  182.1870  184.6120  137.4340 O   0  0  0  0  0  1  0  0  0  0  0  0
  1 10  1  0  0  0  0
  2  6  1  0  0  0  0
  4 18  1  6  0  0  0
  4 11  1  0  0  0  0
  4  1  1  0  0  0  0
  5  3  1  0  0  0  0
  6  9  2  0  0  0  0
  7  2  1  0  0  0  0
  8  3  1  1  0  0  0
  8 15  1  0  0  0  0
 10 15  1  0  0  0  0
 10  2  2  0  0  0  0
 11 13  1  6  0  0  0
 11  8  1  0  0  0  0
 12  5  1  0  0  0  0
 13 12  2  0  0  0  0
 14  9  1  0  0  0  0
 15 14  2  0  0  0  0
 16 17  2  0  0  0  0
 17 18  1  0  0  0  0
 19 21  1  0  0  0  0
 20 21  1  0  0  0  0
 21 17  1  6  0  0  0
 22 19  1  0  0  0  0
 23 20  1  0  0  0  0
 23 22  1  0  0  0  0
 24 18  1  0  0  0  0
 24 25  1  0  0  0  0
 26 27  1  0  0  0  0
 26 25  1  0  0  0  0
 28 29  2  0  0  0  0
 29 30  1  0  0  0  0
 29 27  1  0  0  0  0
M  END
>  <MODEL>
2

>  <REMARK>
 VINA RESULT:      -8.6      4.561      7.170
  Name = 
  6 active torsions:
  status: ('A' for Active; 'I' for Inactive)
    1  A    between atoms: C_4  and  N_13
    2  A    between atoms: N_7  and  C_16
    3  A    between atoms: C_8  and  C_12
    4  A    between atoms: N_13  and  C_27
    5  A    between atoms: C_16  and  C_30
    6  A    between atoms: C_27  and  C_30
                            x       y       z     vdW  Elec       q    Type
                         _______ _______ _______ _____ _____    ______ ____

>  <TORSDO>
F 6

$$$$
=
 OpenBabel10262421563D

 30 33  0  0  1  0  0  0  0  0999 V2000
  181.7630  178.3410  141.2870 N   0  0  0  0  0  2  0  0  0  0  0  0
  182.1900  178.8640  143.6570 C   0  0  0  0  0  0  0  0  0  0  0  0
  185.8520  178.9790  140.4420 N   0  0  0  0  0  2  0  0  0  0  0  0
  182.2170  178.0630  139.9230 C   0  0  2  0  0  3  0  0  0  0  0  0
  186.4160  178.3450  139.2450 C   0  0  0  0  0  2  0  0  0  0  0  0
  183.0840  179.1380  144.6960 C   0  0  0  0  0  3  0  0  0  0  0  0
  180.7290  178.8470  143.9490 C   0  0  0  0  0  1  0  0  0  0  0  0
  184.5760  178.3280  140.7360 C   0  0  2  0  0  3  0  0  0  0  0  0
  184.4600  179.1600  144.4540 C   0  0  0  0  0  3  0  0  0  0  0  0
  182.6750  178.6110  142.3640 C   0  0  0  0  0  0  0  0  0  0  0  0
  183.5660  178.7400  139.6630 C   0  0  1  0  0  3  0  0  0  0  0  0
  185.4370  178.3280  138.0900 C   0  0  0  0  0  3  0  0  0  0  0  0
  184.1150  178.4530  138.2910 C   0  0  0  0  0  3  0  0  0  0  0  0
  184.9480  178.9170  143.1680 C   0  0  0  0  0  3  0  0  0  0  0  0
  184.0620  178.6650  142.1120 C   0  0  0  0  0  0  0  0  0  0  0  0
  179.7040  178.0070  137.2250 O   0  0  0  0  0  0  0  0  0  0  0  0
  180.6320  177.6020  137.9780 C   0  0  0  0  0  0  0  0  0  0  0  0
  181.2010  178.4920  138.9610 N   0  0  0  0  0  0  0  0  0  0  0  0
  180.1410  175.1900  138.3410 C   0  0  0  0  0  2  0  0  0  0  0  0
  181.3870  175.8550  136.3840 C   0  0  0  0  0  2  0  0  0  0  0  0
  181.1370  176.1980  137.8300 C   0  0  1  0  0  3  0  0  0  0  0  0
  180.5590  173.8780  137.8770 N   0  0  0  0  0  2  0  0  0  0  0  0
  181.1450  174.0630  136.2120 S   0  0  0  0  0  0  0  0  0  0  0  0
  180.7330  179.8680  139.0660 C   0  0  0  0  0  2  0  0  0  0  0  0
  181.2080  180.6770  137.8710 C   0  0  0  0  0  2  0  0  0  0  0  0
  181.2870  182.1490  138.2310 C   0  0  0  0  0  2  0  0  0  0  0  0
  180.8480  182.9590  137.1060 N   0  0  0  0  0  2  0  0  0  0  0  0
  182.4260  184.7460  137.6570 O   0  0  0  0  0  1  0  0  0  0  0  0
  181.4220  184.2380  136.8410 C   0  0  0  0  0  0  0  0  0  0  0  0
  181.0170  184.9110  135.8580 O   0  0  0  0  0  0  0  0  0  0  0  0
  1 10  1  0  0  0  0
  2  7  1  0  0  0  0
  2  6  1  0  0  0  0
  4 18  1  6  0  0  0
  4  1  1  0  0  0  0
  5  3  1  0  0  0  0
  8  3  1  6  0  0  0
  8 15  1  0  0  0  0
  9  6  2  0  0  0  0
 10  2  2  0  0  0  0
 11 13  1  6  0  0  0
 11  4  1  0  0  0  0
 11  8  1  0  0  0  0
 12 13  2  0  0  0  0
 12  5  1  0  0  0  0
 14  9  1  0  0  0  0
 15 10  1  0  0  0  0
 15 14  2  0  0  0  0
 16 17  2  0  0  0  0
 17 18  1  0  0  0  0
 18 24  1  0  0  0  0
 20 21  1  0  0  0  0
 21 17  1  6  0  0  0
 21 19  1  0  0  0  0
 22 19  1  0  0  0  0
 23 20  1  0  0  0  0
 23 22  1  0  0  0  0
 25 26  1  0  0  0  0
 25 24  1  0  0  0  0
 27 26  1  0  0  0  0
 29 27  1  0  0  0  0
 29 28  1  0  0  0  0
 30 29  2  0  0  0  0
M  END
>  <MODEL>
3

>  <REMARK>
 VINA RESULT:      -8.5      5.436      7.978
  Name = 
  6 active torsions:
  status: ('A' for Active; 'I' for Inactive)
    1  A    between atoms: C_4  and  N_13
    2  A    between atoms: N_7  and  C_16
    3  A    between atoms: C_8  and  C_12
    4  A    between atoms: N_13  and  C_27
    5  A    between atoms: C_16  and  C_30
    6  A    between atoms: C_27  and  C_30
                            x       y       z     vdW  Elec       q    Type
                         _______ _______ _______ _____ _____    ______ ____

>  <TORSDO>
F 6

$$$$
=
 OpenBabel10262421563D

 30 33  0  0  1  0  0  0  0  0999 V2000
  183.8490  178.7220  141.3790 N   0  0  0  0  0  2  0  0  0  0  0  0
  185.4380  178.5480  143.2550 C   0  0  0  0  0  0  0  0  0  0  0  0
  180.6420  178.5770  144.1240 N   0  0  0  0  0  2  0  0  0  0  0  0
  182.4990  178.8980  140.8420 C   0  0  2  0  0  3  0  0  0  0  0  0
  179.3520  179.1390  143.7080 C   0  0  0  0  0  2  0  0  0  0  0  0
  185.6940  178.5290  144.6290 C   0  0  0  0  0  3  0  0  0  0  0  0
  186.5770  178.3910  142.3070 C   0  0  0  0  0  1  0  0  0  0  0  0
  181.6640  179.0700  143.2020 C   0  0  2  0  0  3  0  0  0  0  0  0
  184.6470  178.6750  145.5420 C   0  0  0  0  0  3  0  0  0  0  0  0
  184.1240  178.7130  142.7890 C   0  0  0  0  0  0  0  0  0  0  0  0
  181.4570  178.3950  141.8450 C   0  0  1  0  0  3  0  0  0  0  0  0
  179.0590  178.8800  142.2450 C   0  0  0  0  0  3  0  0  0  0  0  0
  180.0410  178.5930  141.3740 C   0  0  0  0  0  3  0  0  0  0  0  0
  183.3370  178.8310  145.0860 C   0  0  0  0  0  3  0  0  0  0  0  0
  183.0620  178.8280  143.7110 C   0  0  0  0  0  0  0  0  0  0  0  0
  181.6970  178.2030  137.3110 O   0  0  0  0  0  0  0  0  0  0  0  0
  181.7000  178.8020  138.4210 C   0  0  0  0  0  0  0  0  0  0  0  0
  182.3810  178.2180  139.5510 N   0  0  0  0  0  0  0  0  0  0  0  0
  181.8880  181.2770  138.2430 C   0  0  0  0  0  2  0  0  0  0  0  0
  179.8300  180.2040  137.5850 C   0  0  0  0  0  2  0  0  0  0  0  0
  180.9820  180.1130  138.5500 C   0  0  1  0  0  3  0  0  0  0  0  0
  181.0560  182.4560  138.0800 N   0  0  0  0  0  2  0  0  0  0  0  0
  179.6000  181.9630  137.1940 S   0  0  0  0  0  0  0  0  0  0  0  0
  183.0370  176.9230  139.4260 C   0  0  0  0  0  2  0  0  0  0  0  0
  182.0010  175.8230  139.2710 C   0  0  0  0  0  2  0  0  0  0  0  0
  182.3620  174.9210  138.1060 C   0  0  0  0  0  2  0  0  0  0  0  0
  183.8010  174.9280  137.9000 N   0  0  0  0  0  2  0  0  0  0  0  0
  183.8430  172.5260  137.4430 O   0  0  0  0  0  1  0  0  0  0  0  0
  184.5130  173.7360  137.5750 C   0  0  0  0  0  0  0  0  0  0  0  0
  185.7590  173.7810  137.4040 O   0  0  0  0  0  0  0  0  0  0  0  0
  1 10  1  0  0  0  0
  2  6  1  0  0  0  0
  4 18  1  6  0  0  0
  4  1  1  0  0  0  0
  4 11  1  0  0  0  0
  5  3  1  0  0  0  0
  6  9  2  0  0  0  0
  7  2  1  0  0  0  0
  8 15  1  1  0  0  0
  8  3  1  0  0  0  0
 10  2  2  0  0  0  0
 10 15  1  0  0  0  0
 11 13  1  6  0  0  0
 11  8  1  0  0  0  0
 12  5  1  0  0  0  0
 13 12  2  0  0  0  0
 14  9  1  0  0  0  0
 15 14  2  0  0  0  0
 16 17  2  0  0  0  0
 17 18  1  0  0  0  0
 19 21  1  0  0  0  0
 20 21  1  0  0  0  0
 21 17  1  6  0  0  0
 22 19  1  0  0  0  0
 23 20  1  0  0  0  0
 23 22  1  0  0  0  0
 24 18  1  0  0  0  0
 25 24  1  0  0  0  0
 26 25  1  0  0  0  0
 27 26  1  0  0  0  0
 28 29  1  0  0  0  0
 29 27  1  0  0  0  0
 30 29  2  0  0  0  0
M  END
>  <MODEL>
4

>  <REMARK>
 VINA RESULT:      -8.4      4.440      7.164
  Name = 
  6 active torsions:
  status: ('A' for Active; 'I' for Inactive)
    1  A    between atoms: C_4  and  N_13
    2  A    between atoms: N_7  and  C_16
    3  A    between atoms: C_8  and  C_12
    4  A    between atoms: N_13  and  C_27
    5  A    between atoms: C_16  and  C_30
    6  A    between atoms: C_27  and  C_30
                            x       y       z     vdW  Elec       q    Type
                         _______ _______ _______ _____ _____    ______ ____

>  <TORSDO>
F 6

$$$$
=
 OpenBabel10262421563D

 30 33  0  0  1  0  0  0  0  0999 V2000
  186.3000  178.0220  143.5920 N   0  0  0  0  0  2  0  0  0  0  0  0
  185.7020  178.4680  145.9410 C   0  0  0  0  0  0  0  0  0  0  0  0
  190.2230  177.0360  144.8100 N   0  0  0  0  0  2  0  0  0  0  0  0
  187.2160  177.5250  142.5640 C   0  0  2  0  0  3  0  0  0  0  0  0
  191.0220  176.1770  143.9310 C   0  0  0  0  0  2  0  0  0  0  0  0
  186.0260  178.4400  147.3010 C   0  0  0  0  0  3  0  0  0  0  0  0
  184.3800  179.0150  145.5260 C   0  0  0  0  0  1  0  0  0  0  0  0
  188.8250  176.9270  144.3950 C   0  0  2  0  0  3  0  0  0  0  0  0
  187.2580  177.9330  147.7210 C   0  0  0  0  0  3  0  0  0  0  0  0
  186.6180  177.9860  144.9930 C   0  0  0  0  0  0  0  0  0  0  0  0
  188.6660  177.6320  143.0460 C   0  0  1  0  0  3  0  0  0  0  0  0
  190.7760  176.4680  142.4650 C   0  0  0  0  0  3  0  0  0  0  0  0
  189.6590  177.0890  142.0530 C   0  0  0  0  0  3  0  0  0  0  0  0
  188.1760  177.4590  146.7820 C   0  0  0  0  0  3  0  0  0  0  0  0
  187.8760  177.5030  145.4140 C   0  0  0  0  0  0  0  0  0  0  0  0
  185.5810  179.3290  139.7950 O   0  0  0  0  0  0  0  0  0  0  0  0
  185.6960  178.6350  140.8430 C   0  0  0  0  0  0  0  0  0  0  0  0
  187.0060  178.2530  141.3130 N   0  0  0  0  0  0  0  0  0  0  0  0
  183.7620  179.3770  142.2210 C   0  0  0  0  0  2  0  0  0  0  0  0
  183.4600  177.5720  140.6490 C   0  0  0  0  0  2  0  0  0  0  0  0
  184.4610  178.2070  141.5780 C   0  0  1  0  0  3  0  0  0  0  0  0
  182.4390  178.9350  142.6280 N   0  0  0  0  0  2  0  0  0  0  0  0
  181.8130  177.8780  141.3490 S   0  0  0  0  0  0  0  0  0  0  0  0
  188.1960  178.6360  140.5650 C   0  0  0  0  0  2  0  0  0  0  0  0
  188.1480  178.0470  139.1650 C   0  0  0  0  0  2  0  0  0  0  0  0
  189.5540  177.8020  138.6510 C   0  0  0  0  0  2  0  0  0  0  0  0
  189.7860  176.3740  138.5010 N   0  0  0  0  0  2  0  0  0  0  0  0
  192.1060  176.7270  137.8130 O   0  0  0  0  0  0  0  0  0  0  0  0
  191.0510  175.8640  138.0860 C   0  0  0  0  0  0  0  0  0  0  0  0
  191.2150  174.6230  137.9680 O   0  0  0  0  0  1  0  0  0  0  0  0
  1 10  1  0  0  0  0
  2  6  1  0  0  0  0
  4 18  1  6  0  0  0
  4 11  1  0  0  0  0
  4  1  1  0  0  0  0
  5  3  1  0  0  0  0
  6  9  2  0  0  0  0
  7  2  1  0  0  0  0
  8  3  1  1  0  0  0
  8 15  1  0  0  0  0
 10 15  1  0  0  0  0
 10  2  2  0  0  0  0
 11 13  1  6  0  0  0
 11  8  1  0  0  0  0
 12  5  1  0  0  0  0
 13 12  2  0  0  0  0
 14  9  1  0  0  0  0
 15 14  2  0  0  0  0
 16 17  2  0  0  0  0
 17 18  1  0  0  0  0
 19 22  1  0  0  0  0
 20 23  1  0  0  0  0
 20 21  1  0  0  0  0
 21 17  1  6  0  0  0
 21 19  1  0  0  0  0
 23 22  1  0  0  0  0
 24 18  1  0  0  0  0
 25 24  1  0  0  0  0
 26 25  1  0  0  0  0
 27 26  1  0  0  0  0
 28 29  2  0  0  0  0
 29 27  1  0  0  0  0
 30 29  1  0  0  0  0
M  END
>  <MODEL>
5

>  <REMARK>
 VINA RESULT:      -8.3      1.073      1.207
  Name = 
  6 active torsions:
  status: ('A' for Active; 'I' for Inactive)
    1  A    between atoms: C_4  and  N_13
    2  A    between atoms: N_7  and  C_16
    3  A    between atoms: C_8  and  C_12
    4  A    between atoms: N_13  and  C_27
    5  A    between atoms: C_16  and  C_30
    6  A    between atoms: C_27  and  C_30
                            x       y       z     vdW  Elec       q    Type
                         _______ _______ _______ _____ _____    ______ ____

>  <TORSDO>
F 6

$$$$
=
 OpenBabel10262421563D

 30 33  0  0  1  0  0  0  0  0999 V2000
  183.6860  178.8120  141.2620 N   0  0  0  0  0  2  0  0  0  0  0  0
  185.3480  178.5970  143.0700 C   0  0  0  0  0  0  0  0  0  0  0  0
  180.5890  178.6040  144.1270 N   0  0  0  0  0  2  0  0  0  0  0  0
  182.3160  179.0000  140.7820 C   0  0  2  0  0  3  0  0  0  0  0  0
  179.2850  179.1750  143.7740 C   0  0  0  0  0  2  0  0  0  0  0  0
  185.6580  178.5470  144.4320 C   0  0  0  0  0  3  0  0  0  0  0  0
  186.4490  178.4610  142.0740 C   0  0  0  0  0  1  0  0  0  0  0  0
  181.5750  179.1190  143.1770 C   0  0  2  0  0  3  0  0  0  0  0  0
  184.6480  178.6710  145.3890 C   0  0  0  0  0  3  0  0  0  0  0  0
  184.0160  178.7720  142.6600 C   0  0  0  0  0  0  0  0  0  0  0  0
  181.3140  178.4740  141.8150 C   0  0  1  0  0  3  0  0  0  0  0  0
  178.9350  178.9490  142.3190 C   0  0  0  0  0  3  0  0  0  0  0  0
  179.8810  178.6820  141.4040 C   0  0  0  0  0  3  0  0  0  0  0  0
  183.3210  178.8370  144.9870 C   0  0  0  0  0  3  0  0  0  0  0  0
  182.9920  178.8650  143.6250 C   0  0  0  0  0  0  0  0  0  0  0  0
  181.3810  178.3870  137.2690 O   0  0  0  0  0  0  0  0  0  0  0  0
  181.4290  178.9610  138.3920 C   0  0  0  0  0  0  0  0  0  0  0  0
  182.1480  178.3490  139.4830 N   0  0  0  0  0  0  0  0  0  0  0  0
  181.5440  181.4240  138.0570 C   0  0  0  0  0  2  0  0  0  0  0  0
  179.4200  180.3040  137.8210 C   0  0  0  0  0  2  0  0  0  0  0  0
  180.7230  180.2720  138.5750 C   0  0  1  0  0  3  0  0  0  0  0  0
  180.6770  182.5870  137.9810 N   0  0  0  0  0  2  0  0  0  0  0  0
  179.0980  182.0380  137.3860 S   0  0  0  0  0  0  0  0  0  0  0  0
  182.7910  177.0550  139.3050 C   0  0  0  0  0  2  0  0  0  0  0  0
  183.6510  177.0630  138.0520 C   0  0  0  0  0  2  0  0  0  0  0  0
  184.9060  177.8830  138.2820 C   0  0  0  0  0  2  0  0  0  0  0  0
  186.0080  177.3320  137.5100 N   0  0  0  0  0  2  0  0  0  0  0  0
  187.6630  178.6020  138.7860 O   0  0  0  0  0  1  0  0  0  0  0  0
  187.3600  177.7000  137.7730 C   0  0  0  0  0  0  0  0  0  0  0  0
  188.2880  177.2020  137.0850 O   0  0  0  0  0  0  0  0  0  0  0  0
  1 10  1  0  0  0  0
  2  6  1  0  0  0  0
  4 18  1  6  0  0  0
  4  1  1  0  0  0  0
  4 11  1  0  0  0  0
  5  3  1  0  0  0  0
  6  9  2  0  0  0  0
  7  2  1  0  0  0  0
  8 15  1  1  0  0  0
  8  3  1  0  0  0  0
 10  2  2  0  0  0  0
 10 15  1  0  0  0  0
 11 13  1  6  0  0  0
 11  8  1  0  0  0  0
 12  5  1  0  0  0  0
 13 12  2  0  0  0  0
 14  9  1  0  0  0  0
 15 14  2  0  0  0  0
 16 17  2  0  0  0  0
 17 18  1  0  0  0  0
 19 21  1  0  0  0  0
 20 21  1  0  0  0  0
 21 17  1  6  0  0  0
 22 19  1  0  0  0  0
 23 20  1  0  0  0  0
 23 22  1  0  0  0  0
 24 18  1  0  0  0  0
 25 26  1  0  0  0  0
 25 24  1  0  0  0  0
 27 29  1  0  0  0  0
 27 26  1  0  0  0  0
 29 28  1  0  0  0  0
 30 29  2  0  0  0  0
M  END
>  <MODEL>
6

>  <REMARK>
 VINA RESULT:      -8.2      4.011      6.832
  Name = 
  6 active torsions:
  status: ('A' for Active; 'I' for Inactive)
    1  A    between atoms: C_4  and  N_13
    2  A    between atoms: N_7  and  C_16
    3  A    between atoms: C_8  and  C_12
    4  A    between atoms: N_13  and  C_27
    5  A    between atoms: C_16  and  C_30
    6  A    between atoms: C_27  and  C_30
                            x       y       z     vdW  Elec       q    Type
                         _______ _______ _______ _____ _____    ______ ____

>  <TORSDO>
F 6

$$$$
=
 OpenBabel10262421563D

 30 33  0  0  1  0  0  0  0  0999 V2000
  183.0790  176.6370  139.7260 N   0  0  0  0  0  2  0  0  0  0  0  0
  181.9790  174.9760  138.2750 C   0  0  0  0  0  0  0  0  0  0  0  0
  179.2860  178.0020  140.9870 N   0  0  0  0  0  2  0  0  0  0  0  0
  183.0490  177.6590  140.7740 C   0  0  2  0  0  3  0  0  0  0  0  0
  179.1970  178.6990  142.2750 C   0  0  0  0  0  2  0  0  0  0  0  0
  180.8210  174.3260  137.8380 C   0  0  0  0  0  3  0  0  0  0  0  0
  183.2860  174.6120  137.6600 C   0  0  0  0  0  1  0  0  0  0  0  0
  180.5700  177.3040  140.9420 C   0  0  2  0  0  3  0  0  0  0  0  0
  179.5810  174.6460  138.3960 C   0  0  0  0  0  3  0  0  0  0  0  0
  181.8960  175.9550  139.2790 C   0  0  0  0  0  0  0  0  0  0  0  0
  181.6810  178.3480  140.8070 C   0  0  1  0  0  3  0  0  0  0  0  0
  180.4010  179.5790  142.5360 C   0  0  0  0  0  3  0  0  0  0  0  0
  181.5660  179.3780  141.8980 C   0  0  0  0  0  3  0  0  0  0  0  0
  179.4910  175.6240  139.3890 C   0  0  0  0  0  3  0  0  0  0  0  0
  180.6400  176.3010  139.8200 C   0  0  0  0  0  0  0  0  0  0  0  0
  186.0440  179.7320  141.3440 O   0  0  0  0  0  0  0  0  0  0  0  0
  185.0830  178.9560  141.6020 C   0  0  0  0  0  0  0  0  0  0  0  0
  184.1340  178.6190  140.5680 N   0  0  0  0  0  0  0  0  0  0  0  0
  186.2380  177.8470  143.5060 C   0  0  0  0  0  2  0  0  0  0  0  0
  184.5150  179.4730  143.9630 C   0  0  0  0  0  2  0  0  0  0  0  0
  184.9370  178.4050  142.9890 C   0  0  1  0  0  3  0  0  0  0  0  0
  186.0920  177.6330  144.9350 N   0  0  0  0  0  2  0  0  0  0  0  0
  185.1730  179.0030  145.5890 S   0  0  0  0  0  0  0  0  0  0  0  0
  184.2600  179.1960  139.2370 C   0  0  0  0  0  2  0  0  0  0  0  0
  184.8910  178.1920  138.2870 C   0  0  0  0  0  2  0  0  0  0  0  0
  186.2520  178.6840  137.8300 C   0  0  0  0  0  2  0  0  0  0  0  0
  187.2820  178.2150  138.7420 N   0  0  0  0  0  2  0  0  0  0  0  0
  189.0170  179.5000  137.5930 O   0  0  0  0  0  0  0  0  0  0  0  0
  188.6400  178.6280  138.6080 C   0  0  0  0  0  0  0  0  0  0  0  0
  189.5040  178.2010  139.4160 O   0  0  0  0  0  1  0  0  0  0  0  0
  1  4  1  0  0  0  0
  2 10  1  0  0  0  0
  3  5  1  0  0  0  0
  4 18  1  6  0  0  0
  4 11  1  0  0  0  0
  5 12  1  0  0  0  0
  6  2  2  0  0  0  0
  6  9  1  0  0  0  0
  7  2  1  0  0  0  0
  8 15  1  6  0  0  0
  8  3  1  0  0  0  0
  9 14  2  0  0  0  0
 10  1  1  0  0  0  0
 10 15  2  0  0  0  0
 11  8  1  0  0  0  0
 11 13  1  1  0  0  0
 13 12  2  0  0  0  0
 14 15  1  0  0  0  0
 16 17  2  0  0  0  0
 18 17  1  0  0  0  0
 19 22  1  0  0  0  0
 20 23  1  0  0  0  0
 21 17  1  6  0  0  0
 21 19  1  0  0  0  0
 21 20  1  0  0  0  0
 22 23  1  0  0  0  0
 24 18  1  0  0  0  0
 25 24  1  0  0  0  0
 26 25  1  0  0  0  0
 26 27  1  0  0  0  0
 28 29  2  0  0  0  0
 29 27  1  0  0  0  0
 29 30  1  0  0  0  0
M  END
>  <MODEL>
7

>  <REMARK>
 VINA RESULT:      -8.1      3.722      7.766
  Name = 
  6 active torsions:
  status: ('A' for Active; 'I' for Inactive)
    1  A    between atoms: C_4  and  N_13
    2  A    between atoms: N_7  and  C_16
    3  A    between atoms: C_8  and  C_12
    4  A    between atoms: N_13  and  C_27
    5  A    between atoms: C_16  and  C_30
    6  A    between atoms: C_27  and  C_30
                            x       y       z     vdW  Elec       q    Type
                         _______ _______ _______ _____ _____    ______ ____

>  <TORSDO>
F 6

$$$$
=
 OpenBabel10262421563D

 30 33  0  0  1  0  0  0  0  0999 V2000
  187.2600  178.3540  142.8220 N   0  0  0  0  0  2  0  0  0  0  0  0
  186.1370  178.2210  145.0110 C   0  0  0  0  0  0  0  0  0  0  0  0
  183.4950  178.7420  140.9470 N   0  0  0  0  0  2  0  0  0  0  0  0
  187.2520  178.5950  141.3780 C   0  0  2  0  0  3  0  0  0  0  0  0
  183.4450  179.3710  139.6230 C   0  0  0  0  0  2  0  0  0  0  0  0
  184.9760  178.3080  145.7850 C   0  0  0  0  0  3  0  0  0  0  0  0
  187.4250  177.8790  145.6780 C   0  0  0  0  0  1  0  0  0  0  0  0
  184.7910  179.0570  141.5460 C   0  0  2  0  0  3  0  0  0  0  0  0
  183.7540  178.6270  145.1890 C   0  0  0  0  0  3  0  0  0  0  0  0
  186.0750  178.4540  143.6280 C   0  0  0  0  0  0  0  0  0  0  0  0
  185.8720  178.2780  140.7930 C   0  0  1  0  0  3  0  0  0  0  0  0
  184.6400  179.0030  138.7680 C   0  0  0  0  0  3  0  0  0  0  0  0
  185.7800  178.5530  139.3160 C   0  0  0  0  0  3  0  0  0  0  0  0
  183.6850  178.8520  143.8120 C   0  0  0  0  0  3  0  0  0  0  0  0
  184.8360  178.7440  143.0190 C   0  0  0  0  0  0  0  0  0  0  0  0
  190.2560  176.5180  140.8690 O   0  0  0  0  0  0  0  0  0  0  0  0
  189.4180  177.2500  141.4640 C   0  0  0  0  0  0  0  0  0  0  0  0
  188.3060  177.8100  140.7340 N   0  0  0  0  0  0  0  0  0  0  0  0
  190.1000  176.3280  143.6720 C   0  0  0  0  0  2  0  0  0  0  0  0
  190.6210  178.6240  143.1460 C   0  0  0  0  0  2  0  0  0  0  0  0
  189.6020  177.5380  142.9240 C   0  0  1  0  0  3  0  0  0  0  0  0
  190.5460  176.7680  144.9820 N   0  0  0  0  0  2  0  0  0  0  0  0
  191.3810  178.3190  144.7670 S   0  0  0  0  0  0  0  0  0  0  0  0
  188.1640  177.5610  139.3060 C   0  0  0  0  0  2  0  0  0  0  0  0
  189.0660  178.4950  138.5170 C   0  0  0  0  0  2  0  0  0  0  0  0
  189.6180  177.7840  137.2950 C   0  0  0  0  0  2  0  0  0  0  0  0
  189.7160  176.3570  137.5530 N   0  0  0  0  0  2  0  0  0  0  0  0
  192.1580  176.4490  137.6620 O   0  0  0  0  0  0  0  0  0  0  0  0
  190.9780  175.7170  137.7300 C   0  0  0  0  0  0  0  0  0  0  0  0
  191.0250  174.4800  137.9520 O   0  0  0  0  0  1  0  0  0  0  0  0
  1 10  1  0  0  0  0
  2  7  1  0  0  0  0
  2  6  1  0  0  0  0
  4 18  1  6  0  0  0
  4  1  1  0  0  0  0
  5  3  1  0  0  0  0
  8  3  1  6  0  0  0
  8 15  1  0  0  0  0
  9  6  2  0  0  0  0
 10  2  2  0  0  0  0
 11 13  1  6  0  0  0
 11  4  1  0  0  0  0
 11  8  1  0  0  0  0
 12 13  2  0  0  0  0
 12  5  1  0  0  0  0
 14  9  1  0  0  0  0
 15 10  1  0  0  0  0
 15 14  2  0  0  0  0
 16 17  2  0  0  0  0
 18 17  1  0  0  0  0
 19 22  1  0  0  0  0
 20 23  1  0  0  0  0
 21 17  1  6  0  0  0
 21 20  1  0  0  0  0
 21 19  1  0  0  0  0
 23 22  1  0  0  0  0
 24 18  1  0  0  0  0
 25 24  1  0  0  0  0
 26 27  1  0  0  0  0
 26 25  1  0  0  0  0
 27 29  1  0  0  0  0
 28 29  2  0  0  0  0
 29 30  1  0  0  0  0
M  END
>  <MODEL>
8

>  <REMARK>
 VINA RESULT:      -8.1      2.490      5.146
  Name = 
  6 active torsions:
  status: ('A' for Active; 'I' for Inactive)
    1  A    between atoms: C_4  and  N_13
    2  A    between atoms: N_7  and  C_16
    3  A    between atoms: C_8  and  C_12
    4  A    between atoms: N_13  and  C_27
    5  A    between atoms: C_16  and  C_30
    6  A    between atoms: C_27  and  C_30
                            x       y       z     vdW  Elec       q    Type
                         _______ _______ _______ _____ _____    ______ ____

>  <TORSDO>
F 6

$$$$
=
 OpenBabel10262421563D

 30 33  0  0  1  0  0  0  0  0999 V2000
  187.1050  177.8360  142.5150 N   0  0  0  0  0  2  0  0  0  0  0  0
  184.8500  178.6780  141.9860 C   0  0  0  0  0  0  0  0  0  0  0  0
  186.2810  178.3030  146.6310 N   0  0  0  0  0  2  0  0  0  0  0  0
  188.1200  177.3660  143.4590 C   0  0  2  0  0  3  0  0  0  0  0  0
  187.0560  177.5030  147.5850 C   0  0  0  0  0  2  0  0  0  0  0  0
  183.5790  179.0830  142.4030 C   0  0  0  0  0  3  0  0  0  0  0  0
  185.1800  178.7180  140.5340 C   0  0  0  0  0  1  0  0  0  0  0  0
  186.4550  177.7140  145.3040 C   0  0  2  0  0  3  0  0  0  0  0  0
  183.2400  179.0560  143.7580 C   0  0  0  0  0  3  0  0  0  0  0  0
  185.7920  178.2420  142.9320 C   0  0  0  0  0  0  0  0  0  0  0  0
  187.8880  177.9840  144.8420 C   0  0  1  0  0  3  0  0  0  0  0  0
  188.4990  177.3360  147.1550 C   0  0  0  0  0  3  0  0  0  0  0  0
  188.8710  177.5030  145.8750 C   0  0  0  0  0  3  0  0  0  0  0  0
  184.1750  178.6310  144.7040 C   0  0  0  0  0  3  0  0  0  0  0  0
  185.4610  178.2450  144.3040 C   0  0  0  0  0  0  0  0  0  0  0  0
  190.9000  178.1270  141.1590 O   0  0  0  0  0  0  0  0  0  0  0  0
  189.7450  177.7880  141.5390 C   0  0  0  0  0  0  0  0  0  0  0  0
  189.4580  177.6690  142.9480 N   0  0  0  0  0  0  0  0  0  0  0  0
  188.4330  178.6980  139.6300 C   0  0  0  0  0  2  0  0  0  0  0  0
  189.1020  176.3790  139.5980 C   0  0  0  0  0  2  0  0  0  0  0  0
  188.6890  177.5030  140.5120 C   0  0  1  0  0  3  0  0  0  0  0  0
  187.6530  178.2480  138.4900 N   0  0  0  0  0  2  0  0  0  0  0  0
  188.2870  176.6650  138.0000 S   0  0  0  0  0  0  0  0  0  0  0  0
  190.5030  177.9040  143.9340 C   0  0  0  0  0  2  0  0  0  0  0  0
  191.6090  176.8730  143.7840 C   0  0  0  0  0  2  0  0  0  0  0  0
  191.6830  175.9980  145.0210 C   0  0  0  0  0  2  0  0  0  0  0  0
  192.0550  176.8000  146.1750 N   0  0  0  0  0  2  0  0  0  0  0  0
  191.6790  174.9350  147.7110 O   0  0  0  0  0  0  0  0  0  0  0  0
  192.0460  176.2580  147.4940 C   0  0  0  0  0  0  0  0  0  0  0  0
  192.3740  176.9820  148.4680 O   0  0  0  0  0  1  0  0  0  0  0  0
  1 10  1  0  0  0  0
  1  4  1  0  0  0  0
  2  6  2  0  0  0  0
  2 10  1  0  0  0  0
  3  5  1  0  0  0  0
  4 18  1  6  0  0  0
  4 11  1  0  0  0  0
  6  9  1  0  0  0  0
  7  2  1  0  0  0  0
  8 15  1  6  0  0  0
  8  3  1  0  0  0  0
  9 14  2  0  0  0  0
 10 15  2  0  0  0  0
 11  8  1  0  0  0  0
 11 13  1  1  0  0  0
 12  5  1  0  0  0  0
 13 12  2  0  0  0  0
 15 14  1  0  0  0  0
 16 17  2  0  0  0  0
 17 18  1  0  0  0  0
 18 24  1  0  0  0  0
 19 21  1  0  0  0  0
 20 21  1  0  0  0  0
 21 17  1  1  0  0  0
 22 19  1  0  0  0  0
 23 22  1  0  0  0  0
 23 20  1  0  0  0  0
 25 24  1  0  0  0  0
 25 26  1  0  0  0  0
 26 27  1  0  0  0  0
 27 29  1  0  0  0  0
 29 28  2  0  0  0  0
 29 30  1  0  0  0  0
M  END
>  <MODEL>
9

>  <REMARK>
 VINA RESULT:      -8.1      3.148      5.932
  Name = 
  6 active torsions:
  status: ('A' for Active; 'I' for Inactive)
    1  A    between atoms: C_4  and  N_13
    2  A    between atoms: N_7  and  C_16
    3  A    between atoms: C_8  and  C_12
    4  A    between atoms: N_13  and  C_27
    5  A    between atoms: C_16  and  C_30
    6  A    between atoms: C_27  and  C_30
                            x       y       z     vdW  Elec       q    Type
                         _______ _______ _______ _____ _____    ______ ____

>  <TORSDO>
F 6

$$$$
