=
 OpenBabel10262420153D

 27 31  0  0  1  0  0  0  0  0999 V2000
  189.7350  176.7580  142.8050 C   0  0  0  0  0  2  0  0  0  0  0  0
  187.9810  177.7360  144.2100 N   0  0  0  0  0  0  0  0  0  0  0  0
  187.1600  178.2030  141.8970 N   0  0  0  0  0  0  0  0  0  0  0  0
  187.4110  177.7070  145.4080 N   0  0  0  0  0  0  0  0  0  0  0  0
  189.3890  177.8560  139.3680 C   0  0  0  0  0  0  0  0  0  0  0  0
  189.4270  177.6560  143.9850 C   0  0  1  0  0  3  0  0  0  0  0  0
  185.8210  178.0960  144.0100 C   0  0  0  0  0  0  0  0  0  0  0  0
  189.4480  177.4700  141.5770 N   0  0  0  0  0  0  0  0  0  0  0  0
  187.0070  177.9900  143.3100 C   0  0  0  0  0  0  0  0  0  0  0  0
  188.2120  178.2470  139.7520 N   0  0  0  0  0  0  0  0  0  0  0  0
  186.1050  177.9110  145.3160 N   0  0  0  0  0  0  0  0  0  0  0  0
  190.2080  177.3310  140.4170 N   0  0  0  0  0  2  0  0  0  0  0  0
  188.2080  178.0070  141.1530 C   0  0  0  0  0  0  0  0  0  0  0  0
  183.4360  178.7110  144.3800 C   0  0  0  0  0  3  0  0  0  0  0  0
  181.8810  178.9090  142.5360 C   0  0  0  0  0  3  0  0  0  0  0  0
  182.9010  178.5760  141.6420 C   0  0  0  0  0  3  0  0  0  0  0  0
  184.1880  178.3100  142.1180 C   0  0  0  0  0  3  0  0  0  0  0  0
  184.4670  178.3760  143.4910 C   0  0  0  0  0  0  0  0  0  0  0  0
  182.1490  178.9770  143.9060 C   0  0  0  0  0  3  0  0  0  0  0  0
  191.5940  176.3100  147.4500 C   0  0  0  0  0  3  0  0  0  0  0  0
  190.1670  177.1890  145.2050 C   0  0  0  0  0  0  0  0  0  0  0  0
  191.3200  176.4130  145.0460 C   0  0  0  0  0  3  0  0  0  0  0  0
  192.0320  175.9730  146.1660 C   0  0  0  0  0  3  0  0  0  0  0  0
  190.4430  177.0860  147.6150 C   0  0  0  0  0  3  0  0  0  0  0  0
  189.7310  177.5270  146.4950 C   0  0  0  0  0  3  0  0  0  0  0  0
  189.0600  178.9640  137.1990 C   0  0  0  0  0  1  0  0  0  0  0  0
  189.8170  177.8830  137.9440 C   0  0  0  0  0  2  0  0  0  0  0  0
  1  6  1  0  0  0  0
  2  4  1  0  0  0  0
  3  9  1  0  0  0  0
  5 10  2  0  0  0  0
  5 12  1  0  0  0  0
  6  2  1  0  0  0  0
  6 21  1  1  0  0  0
  7 11  1  0  0  0  0
  8  1  1  0  0  0  0
  9  7  2  0  0  0  0
  9  2  1  0  0  0  0
 10 13  1  0  0  0  0
 11  4  2  0  0  0  0
 12  8  1  0  0  0  0
 13  8  1  0  0  0  0
 13  3  2  0  0  0  0
 15 19  2  0  0  0  0
 16 17  2  0  0  0  0
 16 15  1  0  0  0  0
 17 18  1  0  0  0  0
 18  7  1  0  0  0  0
 18 14  2  0  0  0  0
 19 14  1  0  0  0  0
 20 24  1  0  0  0  0
 21 25  1  0  0  0  0
 22 21  2  0  0  0  0
 22 23  1  0  0  0  0
 23 20  2  0  0  0  0
 25 24  2  0  0  0  0
 26 27  1  0  0  0  0
 27  5  1  0  0  0  0
M  END
>  <MODEL>
1

>  <REMARK>
 VINA RESULT:     -10.5      0.000      0.000
  Name = 
  3 active torsions:
  status: ('A' for Active; 'I' for Inactive)
    1  A    between atoms: C_9  and  C_15
    2  A    between atoms: C_13  and  C_22
    3  A    between atoms: C_14  and  C_17
                            x       y       z     vdW  Elec       q    Type
                         _______ _______ _______ _____ _____    ______ ____

>  <TORSDO>
F 3

$$$$
=
 OpenBabel10262420153D

 27 31  0  0  1  0  0  0  0  0999 V2000
  186.0410  179.0200  141.3660 C   0  0  0  0  0  2  0  0  0  0  0  0
  186.2650  177.8730  143.5200 N   0  0  0  0  0  0  0  0  0  0  0  0
  188.5130  177.5400  142.4810 N   0  0  0  0  0  0  0  0  0  0  0  0
  185.7940  177.7930  144.7580 N   0  0  0  0  0  0  0  0  0  0  0  0
  188.7860  178.1590  139.1610 C   0  0  0  0  0  0  0  0  0  0  0  0
  185.4250  178.0270  142.3300 C   0  0  1  0  0  3  0  0  0  0  0  0
  187.9120  177.4410  144.9110 C   0  0  0  0  0  0  0  0  0  0  0  0
  187.1420  178.3870  140.6710 N   0  0  0  0  0  0  0  0  0  0  0  0
  187.5940  177.6450  143.5820 C   0  0  0  0  0  0  0  0  0  0  0  0
  189.3330  177.6940  140.2430 N   0  0  0  0  0  0  0  0  0  0  0  0
  186.7700  177.5430  145.6210 N   0  0  0  0  0  0  0  0  0  0  0  0
  187.4500  178.6390  139.3350 N   0  0  0  0  0  2  0  0  0  0  0  0
  188.3200  177.8320  141.2300 C   0  0  0  0  0  0  0  0  0  0  0  0
  189.3640  177.0700  146.9010 C   0  0  0  0  0  3  0  0  0  0  0  0
  191.7240  176.5870  146.6720 C   0  0  0  0  0  3  0  0  0  0  0  0
  191.6030  176.6600  145.2820 C   0  0  0  0  0  3  0  0  0  0  0  0
  190.3610  176.9380  144.7020 C   0  0  0  0  0  3  0  0  0  0  0  0
  189.2310  177.1450  145.5060 C   0  0  0  0  0  0  0  0  0  0  0  0
  190.6040  176.7920  147.4810 C   0  0  0  0  0  3  0  0  0  0  0  0
  181.3840  179.1710  143.2690 C   0  0  0  0  0  3  0  0  0  0  0  0
  184.0210  178.4350  142.6730 C   0  0  0  0  0  0  0  0  0  0  0  0
  183.0550  178.4700  141.6620 C   0  0  0  0  0  3  0  0  0  0  0  0
  181.7390  178.8380  141.9590 C   0  0  0  0  0  3  0  0  0  0  0  0
  182.3450  179.1370  144.2840 C   0  0  0  0  0  3  0  0  0  0  0  0
  183.6610  178.7690  143.9880 C   0  0  0  0  0  3  0  0  0  0  0  0
  188.5690  178.6810  136.7690 C   0  0  0  0  0  1  0  0  0  0  0  0
  189.5180  178.2510  137.8690 C   0  0  0  0  0  2  0  0  0  0  0  0
  1  6  1  0  0  0  0
  2  9  1  0  0  0  0
  2  4  1  0  0  0  0
  3  9  1  0  0  0  0
  4 11  2  0  0  0  0
  5 12  1  0  0  0  0
  5 10  2  0  0  0  0
  6 21  1  1  0  0  0
  6  2  1  0  0  0  0
  7 18  1  0  0  0  0
  7 11  1  0  0  0  0
  8 13  1  0  0  0  0
  8  1  1  0  0  0  0
  9  7  2  0  0  0  0
 10 13  1  0  0  0  0
 12  8  1  0  0  0  0
 13  3  2  0  0  0  0
 14 19  1  0  0  0  0
 15 19  2  0  0  0  0
 16 15  1  0  0  0  0
 17 16  2  0  0  0  0
 17 18  1  0  0  0  0
 18 14  2  0  0  0  0
 20 24  1  0  0  0  0
 21 25  1  0  0  0  0
 22 23  1  0  0  0  0
 22 21  2  0  0  0  0
 23 20  2  0  0  0  0
 25 24  2  0  0  0  0
 26 27  1  0  0  0  0
 27  5  1  0  0  0  0
M  END
>  <MODEL>
2

>  <REMARK>
 VINA RESULT:     -10.1      0.967      6.127
  Name = 
  3 active torsions:
  status: ('A' for Active; 'I' for Inactive)
    1  A    between atoms: C_9  and  C_15
    2  A    between atoms: C_13  and  C_22
    3  A    between atoms: C_14  and  C_17
                            x       y       z     vdW  Elec       q    Type
                         _______ _______ _______ _____ _____    ______ ____

>  <TORSDO>
F 3

$$$$
=
 OpenBabel10262420153D

 27 31  0  0  1  0  0  0  0  0999 V2000
  185.4730  178.9070  144.8210 C   0  0  0  0  0  2  0  0  0  0  0  0
  187.2400  177.9580  143.4140 N   0  0  0  0  0  0  0  0  0  0  0  0
  185.3800  178.3280  141.7880 N   0  0  0  0  0  0  0  0  0  0  0  0
  188.5490  177.7690  143.2990 N   0  0  0  0  0  0  0  0  0  0  0  0
  182.2970  178.9000  143.0730 C   0  0  0  0  0  0  0  0  0  0  0  0
  186.4940  177.7990  144.6650 C   0  0  1  0  0  3  0  0  0  0  0  0
  187.8280  178.1160  141.3010 C   0  0  0  0  0  0  0  0  0  0  0  0
  184.3430  178.6370  143.9560 N   0  0  0  0  0  0  0  0  0  0  0  0
  186.7560  178.1670  142.1720 C   0  0  0  0  0  0  0  0  0  0  0  0
  183.0270  178.6670  142.0240 N   0  0  0  0  0  0  0  0  0  0  0  0
  188.9330  177.8690  142.0340 N   0  0  0  0  0  0  0  0  0  0  0  0
  183.0260  178.9340  144.3030 N   0  0  0  0  0  2  0  0  0  0  0  0
  184.3400  178.5040  142.5460 C   0  0  0  0  0  0  0  0  0  0  0  0
  189.0230  178.5920  139.1680 C   0  0  0  0  0  3  0  0  0  0  0  0
  187.8670  178.5860  137.0430 C   0  0  0  0  0  3  0  0  0  0  0  0
  186.6720  178.2710  137.6950 C   0  0  0  0  0  3  0  0  0  0  0  0
  186.6540  178.1160  139.0840 C   0  0  0  0  0  3  0  0  0  0  0  0
  187.8290  178.2740  139.8330 C   0  0  0  0  0  0  0  0  0  0  0  0
  189.0420  178.7470  137.7800 C   0  0  0  0  0  3  0  0  0  0  0  0
  189.0370  177.6590  148.1330 C   0  0  0  0  0  3  0  0  0  0  0  0
  187.3970  177.7480  145.8630 C   0  0  0  0  0  0  0  0  0  0  0  0
  186.9550  178.2970  147.0730 C   0  0  0  0  0  3  0  0  0  0  0  0
  187.7740  178.2530  148.2050 C   0  0  0  0  0  3  0  0  0  0  0  0
  189.4830  177.1090  146.9280 C   0  0  0  0  0  3  0  0  0  0  0  0
  188.6650  177.1510  145.7950 C   0  0  0  0  0  3  0  0  0  0  0  0
  180.0890  178.3270  143.9880 C   0  0  0  0  0  1  0  0  0  0  0  0
  180.8390  179.1820  142.9870 C   0  0  0  0  0  2  0  0  0  0  0  0
  2  6  1  0  0  0  0
  3  9  1  0  0  0  0
  3 13  2  0  0  0  0
  4  2  1  0  0  0  0
  5 12  1  0  0  0  0
  6  1  1  0  0  0  0
  6 21  1  1  0  0  0
  7 11  1  0  0  0  0
  7  9  2  0  0  0  0
  8 12  1  0  0  0  0
  8  1  1  0  0  0  0
  9  2  1  0  0  0  0
 10 13  1  0  0  0  0
 10  5  2  0  0  0  0
 11  4  2  0  0  0  0
 13  8  1  0  0  0  0
 14 18  1  0  0  0  0
 15 16  2  0  0  0  0
 15 19  1  0  0  0  0
 16 17  1  0  0  0  0
 17 18  2  0  0  0  0
 18  7  1  0  0  0  0
 19 14  2  0  0  0  0
 20 23  1  0  0  0  0
 21 22  1  0  0  0  0
 22 23  2  0  0  0  0
 24 20  2  0  0  0  0
 25 21  2  0  0  0  0
 25 24  1  0  0  0  0
 27  5  1  0  0  0  0
 27 26  1  0  0  0  0
M  END
>  <MODEL>
3

>  <REMARK>
 VINA RESULT:      -9.8      1.882      5.720
  Name = 
  3 active torsions:
  status: ('A' for Active; 'I' for Inactive)
    1  A    between atoms: C_9  and  C_15
    2  A    between atoms: C_13  and  C_22
    3  A    between atoms: C_14  and  C_17
                            x       y       z     vdW  Elec       q    Type
                         _______ _______ _______ _____ _____    ______ ____

>  <TORSDO>
F 3

$$$$
=
 OpenBabel10262420153D

 27 31  0  0  1  0  0  0  0  0999 V2000
  185.2080  179.1640  141.3360 C   0  0  0  0  0  2  0  0  0  0  0  0
  184.9250  178.2840  143.6060 N   0  0  0  0  0  0  0  0  0  0  0  0
  187.3650  177.9510  143.1850 N   0  0  0  0  0  0  0  0  0  0  0  0
  184.1680  178.3210  144.6950 N   0  0  0  0  0  0  0  0  0  0  0  0
  188.4270  178.2010  139.9770 C   0  0  0  0  0  0  0  0  0  0  0  0
  184.3970  178.2570  142.2390 C   0  0  1  0  0  3  0  0  0  0  0  0
  186.1920  178.0990  145.3930 C   0  0  0  0  0  0  0  0  0  0  0  0
  186.4600  178.5140  141.0090 N   0  0  0  0  0  0  0  0  0  0  0  0
  186.2030  178.1330  144.0120 C   0  0  0  0  0  0  0  0  0  0  0  0
  188.7040  177.8910  141.2070 N   0  0  0  0  0  0  0  0  0  0  0  0
  184.9090  178.2210  145.7900 N   0  0  0  0  0  0  0  0  0  0  0  0
  187.0790  178.6280  139.7650 N   0  0  0  0  0  2  0  0  0  0  0  0
  187.4770  178.0880  141.8980 C   0  0  0  0  0  0  0  0  0  0  0  0
  188.5610  177.4700  145.8360 C   0  0  0  0  0  3  0  0  0  0  0  0
  189.5180  177.6280  148.0530 C   0  0  0  0  0  3  0  0  0  0  0  0
  188.2970  178.0970  148.5450 C   0  0  0  0  0  3  0  0  0  0  0  0
  187.2090  178.2530  147.6810 C   0  0  0  0  0  3  0  0  0  0  0  0
  187.3320  177.9410  146.3190 C   0  0  0  0  0  0  0  0  0  0  0  0
  189.6500  177.3140  146.6990 C   0  0  0  0  0  3  0  0  0  0  0  0
  180.2260  179.2930  142.0320 C   0  0  0  0  0  3  0  0  0  0  0  0
  182.9440  178.6280  142.1830 C   0  0  0  0  0  0  0  0  0  0  0  0
  182.2770  178.5860  140.9540 C   0  0  0  0  0  3  0  0  0  0  0  0
  180.9210  178.9180  140.8780 C   0  0  0  0  0  3  0  0  0  0  0  0
  180.8870  179.3350  143.2620 C   0  0  0  0  0  3  0  0  0  0  0  0
  182.2430  179.0030  143.3400 C   0  0  0  0  0  3  0  0  0  0  0  0
  190.4630  177.0880  139.1640 C   0  0  0  0  0  1  0  0  0  0  0  0
  189.4500  178.1830  138.8970 C   0  0  0  0  0  2  0  0  0  0  0  0
  1  6  1  0  0  0  0
  2  9  1  0  0  0  0
  2  4  1  0  0  0  0
  3  9  1  0  0  0  0
  4 11  2  0  0  0  0
  5 10  2  0  0  0  0
  6 21  1  1  0  0  0
  6  2  1  0  0  0  0
  7 11  1  0  0  0  0
  7 18  1  0  0  0  0
  8  1  1  0  0  0  0
  8 13  1  0  0  0  0
  9  7  2  0  0  0  0
 10 13  1  0  0  0  0
 12  5  1  0  0  0  0
 12  8  1  0  0  0  0
 13  3  2  0  0  0  0
 14 18  2  0  0  0  0
 14 19  1  0  0  0  0
 15 16  1  0  0  0  0
 17 16  2  0  0  0  0
 18 17  1  0  0  0  0
 19 15  2  0  0  0  0
 20 24  1  0  0  0  0
 21 25  1  0  0  0  0
 22 21  2  0  0  0  0
 23 22  1  0  0  0  0
 23 20  2  0  0  0  0
 24 25  2  0  0  0  0
 27 26  1  0  0  0  0
 27  5  1  0  0  0  0
M  END
>  <MODEL>
4

>  <REMARK>
 VINA RESULT:      -9.7      1.534      6.445
  Name = 
  3 active torsions:
  status: ('A' for Active; 'I' for Inactive)
    1  A    between atoms: C_9  and  C_15
    2  A    between atoms: C_13  and  C_22
    3  A    between atoms: C_14  and  C_17
                            x       y       z     vdW  Elec       q    Type
                         _______ _______ _______ _____ _____    ______ ____

>  <TORSDO>
F 3

$$$$
=
 OpenBabel10262420153D

 27 31  0  0  1  0  0  0  0  0999 V2000
  188.0990  177.2470  139.3350 C   0  0  0  0  0  2  0  0  0  0  0  0
  189.4470  177.4090  141.3750 N   0  0  0  0  0  0  0  0  0  0  0  0
  187.2610  178.3910  142.0800 N   0  0  0  0  0  0  0  0  0  0  0  0
  190.4930  176.9140  142.0230 N   0  0  0  0  0  0  0  0  0  0  0  0
  185.0880  179.2470  139.6230 C   0  0  0  0  0  0  0  0  0  0  0  0
  189.4230  177.6740  139.9340 C   0  0  1  0  0  3  0  0  0  0  0  0
  189.0420  177.4020  143.5360 C   0  0  0  0  0  0  0  0  0  0  0  0
  187.0880  178.2300  139.6680 N   0  0  0  0  0  0  0  0  0  0  0  0
  188.5210  177.7360  142.3010 C   0  0  0  0  0  0  0  0  0  0  0  0
  185.3900  179.2750  140.8860 N   0  0  0  0  0  0  0  0  0  0  0  0
  190.2720  176.8880  143.3300 N   0  0  0  0  0  0  0  0  0  0  0  0
  186.0590  178.5930  138.8010 N   0  0  0  0  0  2  0  0  0  0  0  0
  186.6530  178.6280  140.9560 C   0  0  0  0  0  0  0  0  0  0  0  0
  189.2470  177.7220  145.9970 C   0  0  0  0  0  3  0  0  0  0  0  0
  187.2940  177.8770  147.4180 C   0  0  0  0  0  3  0  0  0  0  0  0
  186.4700  177.7220  146.3010 C   0  0  0  0  0  3  0  0  0  0  0  0
  187.0350  177.5670  145.0320 C   0  0  0  0  0  3  0  0  0  0  0  0
  188.4280  177.5660  144.8690 C   0  0  0  0  0  0  0  0  0  0  0  0
  188.6820  177.8770  147.2670 C   0  0  0  0  0  3  0  0  0  0  0  0
  192.6470  175.7490  137.8310 C   0  0  0  0  0  3  0  0  0  0  0  0
  190.5600  177.0080  139.2140 C   0  0  0  0  0  0  0  0  0  0  0  0
  190.2810  176.0020  138.2820 C   0  0  0  0  0  3  0  0  0  0  0  0
  191.3220  175.3740  137.5920 C   0  0  0  0  0  3  0  0  0  0  0  0
  192.9320  176.7530  138.7600 C   0  0  0  0  0  3  0  0  0  0  0  0
  191.8920  177.3830  139.4510 C   0  0  0  0  0  3  0  0  0  0  0  0
  182.9990  178.6620  138.4670 C   0  0  0  0  0  1  0  0  0  0  0  0
  183.8060  179.7820  139.0930 C   0  0  0  0  0  2  0  0  0  0  0  0
  1  8  1  0  0  0  0
  1  6  1  0  0  0  0
  2  4  1  0  0  0  0
  2  9  1  0  0  0  0
  3  9  1  0  0  0  0
  4 11  2  0  0  0  0
  5 10  2  0  0  0  0
  6 21  1  6  0  0  0
  6  2  1  0  0  0  0
  7 18  1  0  0  0  0
  8 13  1  0  0  0  0
  9  7  2  0  0  0  0
 10 13  1  0  0  0  0
 11  7  1  0  0  0  0
 12  5  1  0  0  0  0
 12  8  1  0  0  0  0
 13  3  2  0  0  0  0
 14 19  1  0  0  0  0
 16 15  1  0  0  0  0
 17 16  2  0  0  0  0
 18 17  1  0  0  0  0
 18 14  2  0  0  0  0
 19 15  2  0  0  0  0
 20 24  1  0  0  0  0
 21 25  1  0  0  0  0
 22 21  2  0  0  0  0
 23 20  2  0  0  0  0
 23 22  1  0  0  0  0
 24 25  2  0  0  0  0
 26 27  1  0  0  0  0
 27  5  1  0  0  0  0
M  END
>  <MODEL>
5

>  <REMARK>
 VINA RESULT:      -9.6      2.499      5.618
  Name = 
  3 active torsions:
  status: ('A' for Active; 'I' for Inactive)
    1  A    between atoms: C_9  and  C_15
    2  A    between atoms: C_13  and  C_22
    3  A    between atoms: C_14  and  C_17
                            x       y       z     vdW  Elec       q    Type
                         _______ _______ _______ _____ _____    ______ ____

>  <TORSDO>
F 3

$$$$
=
 OpenBabel10262420153D

 27 31  0  0  1  0  0  0  0  0999 V2000
  187.6210  177.1330  144.8280 C   0  0  0  0  0  2  0  0  0  0  0  0
  187.9300  177.9520  142.5400 N   0  0  0  0  0  0  0  0  0  0  0  0
  190.2540  177.3430  143.2260 N   0  0  0  0  0  0  0  0  0  0  0  0
  187.3320  178.1600  141.3740 N   0  0  0  0  0  0  0  0  0  0  0  0
  190.8080  176.8490  146.5330 C   0  0  0  0  0  0  0  0  0  0  0  0
  187.3190  178.2400  143.8400 C   0  0  1  0  0  3  0  0  0  0  0  0
  189.3440  177.5580  140.9030 C   0  0  0  0  0  0  0  0  0  0  0  0
  188.9870  177.2680  145.2910 N   0  0  0  0  0  0  0  0  0  0  0  0
  189.2020  177.5830  142.2770 C   0  0  0  0  0  0  0  0  0  0  0  0
  191.3050  176.9730  145.3400 N   0  0  0  0  0  0  0  0  0  0  0  0
  188.1600  177.9190  140.3670 N   0  0  0  0  0  0  0  0  0  0  0  0
  189.3850  176.9810  146.5960 N   0  0  0  0  0  2  0  0  0  0  0  0
  190.1740  177.2310  144.5190 C   0  0  0  0  0  0  0  0  0  0  0  0
  190.3990  176.6180  138.8520 C   0  0  0  0  0  3  0  0  0  0  0  0
  192.8030  176.5760  138.5720 C   0  0  0  0  0  3  0  0  0  0  0  0
  192.9570  177.1800  139.8220 C   0  0  0  0  0  3  0  0  0  0  0  0
  191.8320  177.5030  140.5860 C   0  0  0  0  0  3  0  0  0  0  0  0
  190.5430  177.2250  140.1080 C   0  0  0  0  0  0  0  0  0  0  0  0
  191.5230  176.2950  138.0870 C   0  0  0  0  0  3  0  0  0  0  0  0
  183.0730  178.8910  143.5880 C   0  0  0  0  0  3  0  0  0  0  0  0
  185.8370  178.4570  143.7360 C   0  0  0  0  0  0  0  0  0  0  0  0
  185.1140  178.7870  144.8880 C   0  0  0  0  0  3  0  0  0  0  0  0
  183.7340  179.0030  144.8140 C   0  0  0  0  0  3  0  0  0  0  0  0
  183.7900  178.5630  142.4340 C   0  0  0  0  0  3  0  0  0  0  0  0
  185.1690  178.3470  142.5060 C   0  0  0  0  0  3  0  0  0  0  0  0
  192.4320  175.2530  147.4590 C   0  0  0  0  0  1  0  0  0  0  0  0
  191.6430  176.5210  147.7190 C   0  0  0  0  0  2  0  0  0  0  0  0
  1  8  1  0  0  0  0
  2  6  1  0  0  0  0
  3 13  2  0  0  0  0
  4  2  1  0  0  0  0
  5 12  1  0  0  0  0
  5 27  1  0  0  0  0
  6 21  1  6  0  0  0
  6  1  1  0  0  0  0
  7  9  2  0  0  0  0
  8 12  1  0  0  0  0
  9  2  1  0  0  0  0
  9  3  1  0  0  0  0
 10  5  2  0  0  0  0
 11  7  1  0  0  0  0
 11  4  2  0  0  0  0
 13  8  1  0  0  0  0
 13 10  1  0  0  0  0
 14 18  1  0  0  0  0
 15 16  2  0  0  0  0
 16 17  1  0  0  0  0
 18 17  2  0  0  0  0
 18  7  1  0  0  0  0
 19 15  1  0  0  0  0
 19 14  2  0  0  0  0
 20 23  1  0  0  0  0
 21 22  1  0  0  0  0
 23 22  2  0  0  0  0
 24 25  1  0  0  0  0
 24 20  2  0  0  0  0
 25 21  2  0  0  0  0
 26 27  1  0  0  0  0
M  END
>  <MODEL>
6

>  <REMARK>
 VINA RESULT:      -9.5      1.762      7.253
  Name = 
  3 active torsions:
  status: ('A' for Active; 'I' for Inactive)
    1  A    between atoms: C_9  and  C_15
    2  A    between atoms: C_13  and  C_22
    3  A    between atoms: C_14  and  C_17
                            x       y       z     vdW  Elec       q    Type
                         _______ _______ _______ _____ _____    ______ ____

>  <TORSDO>
F 3

$$$$
=
 OpenBabel10262420153D

 27 31  0  0  1  0  0  0  0  0999 V2000
  191.2510  177.5540  143.1870 C   0  0  0  0  0  2  0  0  0  0  0  0
  189.0360  177.3710  142.1550 N   0  0  0  0  0  0  0  0  0  0  0  0
  188.5050  177.4070  144.5970 N   0  0  0  0  0  0  0  0  0  0  0  0
  188.3340  177.5910  141.0510 N   0  0  0  0  0  0  0  0  0  0  0  0
  191.0720  176.8670  146.7420 C   0  0  0  0  0  0  0  0  0  0  0  0
  190.3960  176.8260  142.1700 C   0  0  1  0  0  3  0  0  0  0  0  0
  186.9940  177.9900  142.6870 C   0  0  0  0  0  0  0  0  0  0  0  0
  190.9070  177.0910  144.5160 N   0  0  0  0  0  0  0  0  0  0  0  0
  188.2160  177.6030  143.2020 C   0  0  0  0  0  0  0  0  0  0  0  0
  189.7930  177.0080  146.5690 N   0  0  0  0  0  0  0  0  0  0  0  0
  187.1000  177.9760  141.3420 N   0  0  0  0  0  0  0  0  0  0  0  0
  191.8420  176.9380  145.5390 N   0  0  0  0  0  2  0  0  0  0  0  0
  189.6490  177.1630  145.1630 C   0  0  0  0  0  0  0  0  0  0  0  0
  184.5690  178.5600  142.7030 C   0  0  0  0  0  3  0  0  0  0  0  0
  183.3960  179.0320  144.7660 C   0  0  0  0  0  3  0  0  0  0  0  0
  184.5760  178.8230  145.4840 C   0  0  0  0  0  3  0  0  0  0  0  0
  185.7520  178.4830  144.8100 C   0  0  0  0  0  3  0  0  0  0  0  0
  185.7600  178.3470  143.4140 C   0  0  0  0  0  0  0  0  0  0  0  0
  183.3920  178.9000  143.3760 C   0  0  0  0  0  3  0  0  0  0  0  0
  192.2980  176.9620  138.3130 C   0  0  0  0  0  3  0  0  0  0  0  0
  191.0420  176.8730  140.8160 C   0  0  0  0  0  0  0  0  0  0  0  0
  192.3390  177.3840  140.6970 C   0  0  0  0  0  3  0  0  0  0  0  0
  192.9660  177.4300  139.4480 C   0  0  0  0  0  3  0  0  0  0  0  0
  191.0030  176.4490  138.4260 C   0  0  0  0  0  3  0  0  0  0  0  0
  190.3750  176.4030  139.6740 C   0  0  0  0  0  3  0  0  0  0  0  0
  192.7520  175.6430  148.0550 C   0  0  0  0  0  1  0  0  0  0  0  0
  191.6870  176.7200  148.0890 C   0  0  0  0  0  2  0  0  0  0  0  0
  1  8  1  0  0  0  0
  2  6  1  0  0  0  0
  2  9  1  0  0  0  0
  3 13  2  0  0  0  0
  4 11  2  0  0  0  0
  4  2  1  0  0  0  0
  5 27  1  0  0  0  0
  6 21  1  6  0  0  0
  6  1  1  0  0  0  0
  7  9  2  0  0  0  0
  7 18  1  0  0  0  0
  8 13  1  0  0  0  0
  8 12  1  0  0  0  0
  9  3  1  0  0  0  0
 10  5  2  0  0  0  0
 11  7  1  0  0  0  0
 12  5  1  0  0  0  0
 13 10  1  0  0  0  0
 14 19  2  0  0  0  0
 14 18  1  0  0  0  0
 15 16  2  0  0  0  0
 17 16  1  0  0  0  0
 18 17  2  0  0  0  0
 19 15  1  0  0  0  0
 20 24  2  0  0  0  0
 20 23  1  0  0  0  0
 22 21  1  0  0  0  0
 23 22  2  0  0  0  0
 24 25  1  0  0  0  0
 25 21  2  0  0  0  0
 26 27  1  0  0  0  0
M  END
>  <MODEL>
7

>  <REMARK>
 VINA RESULT:      -9.4      1.878      5.550
  Name = 
  3 active torsions:
  status: ('A' for Active; 'I' for Inactive)
    1  A    between atoms: C_9  and  C_15
    2  A    between atoms: C_13  and  C_22
    3  A    between atoms: C_14  and  C_17
                            x       y       z     vdW  Elec       q    Type
                         _______ _______ _______ _____ _____    ______ ____

>  <TORSDO>
F 3

$$$$
=
 OpenBabel10262420153D

 27 31  0  0  1  0  0  0  0  0999 V2000
  188.1260  177.3210  143.1140 C   0  0  0  0  0  2  0  0  0  0  0  0
  186.0460  178.2900  143.9710 N   0  0  0  0  0  0  0  0  0  0  0  0
  185.8380  178.6300  141.5050 N   0  0  0  0  0  0  0  0  0  0  0  0
  185.1870  178.2900  144.9830 N   0  0  0  0  0  0  0  0  0  0  0  0
  188.6510  178.2610  139.6530 C   0  0  0  0  0  0  0  0  0  0  0  0
  187.5020  178.2560  144.1290 C   0  0  1  0  0  3  0  0  0  0  0  0
  184.0020  178.5610  143.2070 C   0  0  0  0  0  0  0  0  0  0  0  0
  188.1480  177.9700  141.8200 N   0  0  0  0  0  0  0  0  0  0  0  0
  185.3310  178.4700  142.8410 C   0  0  0  0  0  0  0  0  0  0  0  0
  187.4050  178.6230  139.7020 N   0  0  0  0  0  0  0  0  0  0  0  0
  183.9430  178.4420  144.5490 N   0  0  0  0  0  0  0  0  0  0  0  0
  189.1850  177.8110  140.9020 N   0  0  0  0  0  2  0  0  0  0  0  0
  187.0460  178.4420  141.0650 C   0  0  0  0  0  0  0  0  0  0  0  0
  181.5930  179.1250  142.9200 C   0  0  0  0  0  3  0  0  0  0  0  0
  180.5560  179.1650  140.7330 C   0  0  0  0  0  3  0  0  0  0  0  0
  181.7750  178.8090  140.1500 C   0  0  0  0  0  3  0  0  0  0  0  0
  182.9020  178.6110  140.9530 C   0  0  0  0  0  3  0  0  0  0  0  0
  182.8210  178.7680  142.3440 C   0  0  0  0  0  0  0  0  0  0  0  0
  180.4650  179.3230  142.1180 C   0  0  0  0  0  3  0  0  0  0  0  0
  188.7350  177.1380  148.0970 C   0  0  0  0  0  3  0  0  0  0  0  0
  187.9140  177.8680  145.5200 C   0  0  0  0  0  0  0  0  0  0  0  0
  189.0870  177.1270  145.7010 C   0  0  0  0  0  3  0  0  0  0  0  0
  189.4970  176.7620  146.9870 C   0  0  0  0  0  3  0  0  0  0  0  0
  187.5640  177.8790  147.9220 C   0  0  0  0  0  3  0  0  0  0  0  0
  187.1530  178.2450  146.6370 C   0  0  0  0  0  3  0  0  0  0  0  0
  188.6490  178.9400  137.2900 C   0  0  0  0  0  1  0  0  0  0  0  0
  189.4310  178.2440  138.3860 C   0  0  0  0  0  2  0  0  0  0  0  0
  1  6  1  0  0  0  0
  2  6  1  0  0  0  0
  2  4  1  0  0  0  0
  3  9  1  0  0  0  0
  5 10  2  0  0  0  0
  5 12  1  0  0  0  0
  6 21  1  1  0  0  0
  7 11  1  0  0  0  0
  8  1  1  0  0  0  0
  9  7  2  0  0  0  0
  9  2  1  0  0  0  0
 10 13  1  0  0  0  0
 11  4  2  0  0  0  0
 12  8  1  0  0  0  0
 13  3  2  0  0  0  0
 13  8  1  0  0  0  0
 15 19  1  0  0  0  0
 16 15  2  0  0  0  0
 16 17  1  0  0  0  0
 17 18  2  0  0  0  0
 18 14  1  0  0  0  0
 18  7  1  0  0  0  0
 19 14  2  0  0  0  0
 21 22  2  0  0  0  0
 21 25  1  0  0  0  0
 22 23  1  0  0  0  0
 23 20  2  0  0  0  0
 24 20  1  0  0  0  0
 25 24  2  0  0  0  0
 26 27  1  0  0  0  0
 27  5  1  0  0  0  0
M  END
>  <MODEL>
8

>  <REMARK>
 VINA RESULT:      -9.2      1.444      2.032
  Name = 
  3 active torsions:
  status: ('A' for Active; 'I' for Inactive)
    1  A    between atoms: C_9  and  C_15
    2  A    between atoms: C_13  and  C_22
    3  A    between atoms: C_14  and  C_17
                            x       y       z     vdW  Elec       q    Type
                         _______ _______ _______ _____ _____    ______ ____

>  <TORSDO>
F 3

$$$$
=
 OpenBabel10262420153D

 27 31  0  0  1  0  0  0  0  0999 V2000
  184.9260  179.2420  140.0170 C   0  0  0  0  0  2  0  0  0  0  0  0
  184.1440  178.5110  142.2210 N   0  0  0  0  0  0  0  0  0  0  0  0
  186.6160  178.1840  142.3770 N   0  0  0  0  0  0  0  0  0  0  0  0
  183.1640  178.6100  143.1100 N   0  0  0  0  0  0  0  0  0  0  0  0
  188.3650  178.2340  139.4750 C   0  0  0  0  0  0  0  0  0  0  0  0
  183.9330  178.3860  140.7770 C   0  0  1  0  0  3  0  0  0  0  0  0
  184.9810  178.4610  144.2540 C   0  0  0  0  0  0  0  0  0  0  0  0
  186.2180  178.5880  140.0210 N   0  0  0  0  0  0  0  0  0  0  0  0
  185.2990  178.4050  142.9110 C   0  0  0  0  0  0  0  0  0  0  0  0
  188.3610  178.0100  140.7540 N   0  0  0  0  0  0  0  0  0  0  0  0
  183.6420  178.5930  144.3470 N   0  0  0  0  0  0  0  0  0  0  0  0
  187.0980  178.6280  138.9410 N   0  0  0  0  0  2  0  0  0  0  0  0
  187.0110  178.2360  141.1400 C   0  0  0  0  0  0  0  0  0  0  0  0
  185.5710  179.0800  146.5930 C   0  0  0  0  0  3  0  0  0  0  0  0
  187.5850  178.2530  147.6500 C   0  0  0  0  0  3  0  0  0  0  0  0
  187.9080  177.5530  146.4840 C   0  0  0  0  0  3  0  0  0  0  0  0
  187.0610  177.6180  145.3740 C   0  0  0  0  0  3  0  0  0  0  0  0
  185.8860  178.3810  145.4180 C   0  0  0  0  0  0  0  0  0  0  0  0
  186.4170  179.0160  147.7040 C   0  0  0  0  0  3  0  0  0  0  0  0
  179.9290  179.4160  139.5850 C   0  0  0  0  0  3  0  0  0  0  0  0
  182.5290  178.7340  140.3750 C   0  0  0  0  0  0  0  0  0  0  0  0
  182.2930  179.9290  139.6870 C   0  0  0  0  0  3  0  0  0  0  0  0
  180.9960  180.2700  139.2930 C   0  0  0  0  0  3  0  0  0  0  0  0
  180.1580  178.2200  140.2710 C   0  0  0  0  0  3  0  0  0  0  0  0
  181.4550  177.8780  140.6650 C   0  0  0  0  0  3  0  0  0  0  0  0
  190.5570  177.1430  139.2500 C   0  0  0  0  0  1  0  0  0  0  0  0
  189.6030  178.1580  138.6540 C   0  0  0  0  0  2  0  0  0  0  0  0
  1  8  1  0  0  0  0
  1  6  1  0  0  0  0
  2  9  1  0  0  0  0
  2  4  1  0  0  0  0
  3  9  1  0  0  0  0
  4 11  2  0  0  0  0
  5 10  2  0  0  0  0
  6 21  1  1  0  0  0
  6  2  1  0  0  0  0
  7 11  1  0  0  0  0
  7 18  1  0  0  0  0
  8 13  1  0  0  0  0
  9  7  2  0  0  0  0
 10 13  1  0  0  0  0
 12  5  1  0  0  0  0
 12  8  1  0  0  0  0
 13  3  2  0  0  0  0
 14 19  1  0  0  0  0
 15 19  2  0  0  0  0
 16 15  1  0  0  0  0
 17 18  1  0  0  0  0
 17 16  2  0  0  0  0
 18 14  2  0  0  0  0
 20 24  1  0  0  0  0
 21 25  1  0  0  0  0
 22 21  2  0  0  0  0
 23 20  2  0  0  0  0
 23 22  1  0  0  0  0
 24 25  2  0  0  0  0
 27 26  1  0  0  0  0
 27  5  1  0  0  0  0
M  END
>  <MODEL>
9

>  <REMARK>
 VINA RESULT:      -9.0      2.353      6.713
  Name = 
  3 active torsions:
  status: ('A' for Active; 'I' for Inactive)
    1  A    between atoms: C_9  and  C_15
    2  A    between atoms: C_13  and  C_22
    3  A    between atoms: C_14  and  C_17
                            x       y       z     vdW  Elec       q    Type
                         _______ _______ _______ _____ _____    ______ ____

>  <TORSDO>
F 3

$$$$
