=
 OpenBabel10262419593D

 27 30  0  0  1  0  0  0  0  0999 V2000
  190.3990  177.5210  141.9730 N   0  0  0  0  0  0  0  0  0  0  0  0
  188.0420  177.9950  141.6430 C   0  0  0  0  0  0  0  0  0  0  0  0
  188.2890  176.6720  143.7950 C   0  0  0  0  0  2  0  0  0  0  0  0
  184.4180  179.3400  142.9830 N   0  0  0  0  0  0  0  0  0  0  0  0
  183.3120  178.7930  145.1570 C   0  0  0  0  0  1  0  0  0  0  0  0
  187.3140  178.8290  140.8300 N   0  0  0  0  0  0  0  0  0  0  0  0
  185.5480  177.9530  144.3790 N   0  0  0  0  0  0  0  0  0  0  0  0
  185.8560  177.1340  145.5430 C   0  0  0  0  0  1  0  0  0  0  0  0
  186.2810  178.1390  143.2680 C   0  0  0  0  0  0  0  0  0  0  0  0
  189.3630  177.4940  141.1790 C   0  0  0  0  0  0  0  0  0  0  0  0
  184.4310  178.6920  144.1770 C   0  0  0  0  0  0  0  0  0  0  0  0
  185.5920  178.9720  142.4370 C   0  0  0  0  0  0  0  0  0  0  0  0
  190.4060  178.1010  143.3170 C   0  0  1  0  0  3  0  0  0  0  0  0
  187.5320  177.6200  142.9110 C   0  0  0  0  0  0  0  0  0  0  0  0
  186.0990  179.3310  141.1960 C   0  0  0  0  0  3  0  0  0  0  0  0
  189.6000  177.2610  144.3300 C   0  0  1  0  0  3  0  0  0  0  0  0
  189.8110  175.9360  137.2420 N   0  0  0  0  0  0  0  0  0  0  0  0
  189.5220  176.9420  139.8120 C   0  0  0  0  0  0  0  0  0  0  0  0
  190.7400  176.3840  139.3960 C   0  0  0  0  0  3  0  0  0  0  0  0
  190.8650  175.8810  138.0990 C   0  0  0  0  0  3  0  0  0  0  0  0
  188.6200  176.4750  137.6140 C   0  0  0  0  0  3  0  0  0  0  0  0
  188.4560  176.9870  138.9030 C   0  0  0  0  0  3  0  0  0  0  0  0
  191.8440  178.2940  143.7840 C   0  0  0  0  0  2  0  0  0  0  0  0
  192.0460  179.6030  144.2290 O   0  0  0  0  0  1  0  0  0  0  0  0
  189.3890  177.9940  145.6570 C   0  0  0  0  0  2  0  0  0  0  0  0
  189.8280  177.1670  146.8560 C   0  0  0  0  0  2  0  0  0  0  0  0
  188.7100  176.8070  147.6060 O   0  0  0  0  0  1  0  0  0  0  0  0
  1 13  1  0  0  0  0
  2 14  1  0  0  0  0
  3 16  1  0  0  0  0
  4 11  2  0  0  0  0
  6 15  1  0  0  0  0
  6  2  2  0  0  0  0
  7  8  1  0  0  0  0
  9  7  1  0  0  0  0
 10  2  1  0  0  0  0
 10  1  2  0  0  0  0
 11  7  1  0  0  0  0
 11  5  1  0  0  0  0
 12  4  1  0  0  0  0
 12  9  1  0  0  0  0
 13 23  1  1  0  0  0
 13 16  1  0  0  0  0
 14  9  2  0  0  0  0
 14  3  1  0  0  0  0
 15 12  2  0  0  0  0
 16 25  1  1  0  0  0
 17 21  2  0  0  0  0
 17 20  1  0  0  0  0
 18 10  1  0  0  0  0
 19 18  1  0  0  0  0
 20 19  2  0  0  0  0
 21 22  1  0  0  0  0
 22 18  2  0  0  0  0
 23 24  1  0  0  0  0
 25 26  1  0  0  0  0
 26 27  1  0  0  0  0
M  END
>  <MODEL>
1

>  <REMARK>
 VINA RESULT:      -7.8      0.000      0.000
  Name = 
  4 active torsions:
  status: ('A' for Active; 'I' for Inactive)
    1  A    between atoms: C_9  and  C_15
    2  A    between atoms: C_10  and  C_20
    3  A    between atoms: CA_18  and  C_22
    4  A    between atoms: C_20  and  C_26
                            x       y       z     vdW  Elec       q    Type
                         _______ _______ _______ _____ _____    ______ ____

>  <TORSDO>
F 4

$$$$
=
 OpenBabel10262419593D

 27 30  0  0  1  0  0  0  0  0999 V2000
  190.3970  177.5320  141.8790 N   0  0  0  0  0  0  0  0  0  0  0  0
  188.0330  177.9840  141.5660 C   0  0  0  0  0  0  0  0  0  0  0  0
  188.3110  176.6880  143.7310 C   0  0  0  0  0  2  0  0  0  0  0  0
  184.4120  179.3160  142.9260 N   0  0  0  0  0  0  0  0  0  0  0  0
  183.3310  178.7860  145.1160 C   0  0  0  0  0  1  0  0  0  0  0  0
  187.2910  178.8030  140.7520 N   0  0  0  0  0  0  0  0  0  0  0  0
  185.5660  177.9550  144.3270 N   0  0  0  0  0  0  0  0  0  0  0  0
  185.8910  177.1520  145.4980 C   0  0  0  0  0  1  0  0  0  0  0  0
  186.2870  178.1330  143.2060 C   0  0  0  0  0  0  0  0  0  0  0  0
  189.3540  177.4880  141.0960 C   0  0  0  0  0  0  0  0  0  0  0  0
  184.4420  178.6830  144.1270 C   0  0  0  0  0  0  0  0  0  0  0  0
  185.5830  178.9510  142.3730 C   0  0  0  0  0  0  0  0  0  0  0  0
  190.4120  178.1270  143.2160 C   0  0  1  0  0  3  0  0  0  0  0  0
  187.5390  177.6200  142.8440 C   0  0  0  0  0  0  0  0  0  0  0  0
  186.0760  179.2990  141.1230 C   0  0  0  0  0  3  0  0  0  0  0  0
  189.6230  177.2940  144.2470 C   0  0  1  0  0  3  0  0  0  0  0  0
  189.7950  175.8300  137.1980 N   0  0  0  0  0  0  0  0  0  0  0  0
  189.5040  176.9200  139.7340 C   0  0  0  0  0  0  0  0  0  0  0  0
  188.4420  176.9450  138.8200 C   0  0  0  0  0  3  0  0  0  0  0  0
  188.6080  176.3930  137.5480 C   0  0  0  0  0  3  0  0  0  0  0  0
  190.8420  175.7870  138.0640 C   0  0  0  0  0  3  0  0  0  0  0  0
  190.7150  176.3290  139.3450 C   0  0  0  0  0  3  0  0  0  0  0  0
  191.8530  178.3370  143.6670 C   0  0  0  0  0  2  0  0  0  0  0  0
  192.0190  179.6130  144.2110 O   0  0  0  0  0  1  0  0  0  0  0  0
  189.4180  178.0410  145.5680 C   0  0  0  0  0  2  0  0  0  0  0  0
  189.6950  177.1650  146.7800 C   0  0  0  0  0  2  0  0  0  0  0  0
  191.0410  176.8040  146.7930 O   0  0  0  0  0  1  0  0  0  0  0  0
  1 13  1  0  0  0  0
  2 14  1  0  0  0  0
  3 16  1  0  0  0  0
  4 11  2  0  0  0  0
  6 15  1  0  0  0  0
  6  2  2  0  0  0  0
  7  8  1  0  0  0  0
  9  7  1  0  0  0  0
 10  2  1  0  0  0  0
 10  1  2  0  0  0  0
 11  7  1  0  0  0  0
 11  5  1  0  0  0  0
 12  4  1  0  0  0  0
 12  9  1  0  0  0  0
 13 23  1  1  0  0  0
 13 16  1  0  0  0  0
 14  9  2  0  0  0  0
 14  3  1  0  0  0  0
 15 12  2  0  0  0  0
 16 25  1  1  0  0  0
 17 20  2  0  0  0  0
 17 21  1  0  0  0  0
 18 10  1  0  0  0  0
 19 18  2  0  0  0  0
 20 19  1  0  0  0  0
 21 22  2  0  0  0  0
 22 18  1  0  0  0  0
 23 24  1  0  0  0  0
 25 26  1  0  0  0  0
 26 27  1  0  0  0  0
M  END
>  <MODEL>
2

>  <REMARK>
 VINA RESULT:      -7.8      0.483      1.040
  Name = 
  4 active torsions:
  status: ('A' for Active; 'I' for Inactive)
    1  A    between atoms: C_9  and  C_15
    2  A    between atoms: C_10  and  C_20
    3  A    between atoms: CA_18  and  C_22
    4  A    between atoms: C_20  and  C_26
                            x       y       z     vdW  Elec       q    Type
                         _______ _______ _______ _____ _____    ______ ____

>  <TORSDO>
F 4

$$$$
=
 OpenBabel10262419593D

 27 30  0  0  1  0  0  0  0  0999 V2000
  186.1960  178.2640  141.0500 N   0  0  0  0  0  0  0  0  0  0  0  0
  185.4020  178.5670  143.3230 C   0  0  0  0  0  0  0  0  0  0  0  0
  187.2780  176.8570  143.3620 C   0  0  0  0  0  2  0  0  0  0  0  0
  186.0540  179.2500  147.3030 N   0  0  0  0  0  0  0  0  0  0  0  0
  187.7660  178.1620  148.7640 C   0  0  0  0  0  1  0  0  0  0  0  0
  184.6020  179.4770  143.9690 N   0  0  0  0  0  0  0  0  0  0  0  0
  187.4090  177.7200  146.3170 N   0  0  0  0  0  0  0  0  0  0  0  0
  188.4470  176.7120  146.1550 C   0  0  0  0  0  1  0  0  0  0  0  0
  186.5570  178.2020  145.3950 C   0  0  0  0  0  0  0  0  0  0  0  0
  185.1860  178.3030  141.8760 C   0  0  0  0  0  0  0  0  0  0  0  0
  187.0810  178.3740  147.4570 C   0  0  0  0  0  0  0  0  0  0  0  0
  185.7490  179.1180  145.9990 C   0  0  0  0  0  0  0  0  0  0  0  0
  187.5840  178.5510  141.4150 C   0  0  1  0  0  3  0  0  0  0  0  0
  186.4230  177.8910  144.0360 C   0  0  0  0  0  0  0  0  0  0  0  0
  184.7500  179.7730  145.2930 C   0  0  0  0  0  3  0  0  0  0  0  0
  188.2080  177.4470  142.2940 C   0  0  1  0  0  3  0  0  0  0  0  0
  181.2610  177.6460  140.3600 N   0  0  0  0  0  0  0  0  0  0  0  0
  183.8210  178.0630  141.3490 C   0  0  0  0  0  0  0  0  0  0  0  0
  183.6120  177.2480  140.2260 C   0  0  0  0  0  3  0  0  0  0  0  0
  182.3160  177.0490  139.7450 C   0  0  0  0  0  3  0  0  0  0  0  0
  181.4320  178.4440  141.4470 C   0  0  0  0  0  3  0  0  0  0  0  0
  182.7120  178.6670  141.9580 C   0  0  0  0  0  3  0  0  0  0  0  0
  188.4090  178.7810  140.1540 C   0  0  0  0  0  2  0  0  0  0  0  0
  187.6400  178.5470  139.0120 O   0  0  0  0  0  1  0  0  0  0  0  0
  189.5550  177.8660  142.8880 C   0  0  0  0  0  2  0  0  0  0  0  0
  190.6920  176.9530  142.4530 C   0  0  0  0  0  2  0  0  0  0  0  0
  190.2720  175.6260  142.5180 O   0  0  0  0  0  1  0  0  0  0  0  0
  1 13  1  0  0  0  0
  1 10  2  0  0  0  0
  2  6  2  0  0  0  0
  2 14  1  0  0  0  0
  3 14  1  0  0  0  0
  4 11  2  0  0  0  0
  6 15  1  0  0  0  0
  7 11  1  0  0  0  0
  8  7  1  0  0  0  0
  9 12  1  0  0  0  0
  9  7  1  0  0  0  0
 10  2  1  0  0  0  0
 11  5  1  0  0  0  0
 12  4  1  0  0  0  0
 13 23  1  6  0  0  0
 13 16  1  0  0  0  0
 14  9  2  0  0  0  0
 15 12  2  0  0  0  0
 16 25  1  1  0  0  0
 16  3  1  0  0  0  0
 17 21  1  0  0  0  0
 18 10  1  0  0  0  0
 18 22  1  0  0  0  0
 19 18  2  0  0  0  0
 20 19  1  0  0  0  0
 20 17  2  0  0  0  0
 21 22  2  0  0  0  0
 24 23  1  0  0  0  0
 26 27  1  0  0  0  0
 26 25  1  0  0  0  0
M  END
>  <MODEL>
3

>  <REMARK>
 VINA RESULT:      -7.3      2.787      5.119
  Name = 
  4 active torsions:
  status: ('A' for Active; 'I' for Inactive)
    1  A    between atoms: C_9  and  C_15
    2  A    between atoms: C_10  and  C_20
    3  A    between atoms: CA_18  and  C_22
    4  A    between atoms: C_20  and  C_26
                            x       y       z     vdW  Elec       q    Type
                         _______ _______ _______ _____ _____    ______ ____

>  <TORSDO>
F 4

$$$$
=
 OpenBabel10262419593D

 27 30  0  0  1  0  0  0  0  0999 V2000
  190.1810  177.2700  140.6690 N   0  0  0  0  0  0  0  0  0  0  0  0
  187.8500  177.8640  140.9930 C   0  0  0  0  0  0  0  0  0  0  0  0
  188.5810  176.4280  142.9550 C   0  0  0  0  0  2  0  0  0  0  0  0
  184.7880  179.3010  143.2930 N   0  0  0  0  0  0  0  0  0  0  0  0
  184.2640  178.7000  145.6620 C   0  0  0  0  0  1  0  0  0  0  0  0
  186.9820  178.7680  140.4330 N   0  0  0  0  0  0  0  0  0  0  0  0
  186.1670  177.8000  144.2900 N   0  0  0  0  0  0  0  0  0  0  0  0
  186.7240  176.9130  145.3010 C   0  0  0  0  0  1  0  0  0  0  0  0
  186.5900  178.0070  143.0310 C   0  0  0  0  0  0  0  0  0  0  0  0
  188.9730  177.3280  140.1780 C   0  0  0  0  0  0  0  0  0  0  0  0
  185.0780  178.5970  144.4170 C   0  0  0  0  0  0  0  0  0  0  0  0
  185.7540  178.9090  142.4430 C   0  0  0  0  0  0  0  0  0  0  0  0
  190.5740  177.7830  141.9820 C   0  0  1  0  0  3  0  0  0  0  0  0
  187.6720  177.4510  142.3370 C   0  0  0  0  0  0  0  0  0  0  0  0
  185.9350  179.3040  141.1250 C   0  0  0  0  0  3  0  0  0  0  0  0
  190.0170  176.9320  143.1430 C   0  0  1  0  0  3  0  0  0  0  0  0
  188.2940  175.8840  136.2300 N   0  0  0  0  0  0  0  0  0  0  0  0
  188.7360  176.8360  138.8000 C   0  0  0  0  0  0  0  0  0  0  0  0
  187.5920  177.2180  138.0830 C   0  0  0  0  0  3  0  0  0  0  0  0
  187.3890  176.7300  136.7900 C   0  0  0  0  0  3  0  0  0  0  0  0
  189.4100  175.4930  136.9010 C   0  0  0  0  0  3  0  0  0  0  0  0
  189.6490  175.9600  138.1950 C   0  0  0  0  0  3  0  0  0  0  0  0
  192.0920  177.8900  142.0580 C   0  0  0  0  0  2  0  0  0  0  0  0
  192.6750  177.4930  140.8530 O   0  0  0  0  0  1  0  0  0  0  0  0
  190.2040  177.6090  144.5040 C   0  0  0  0  0  2  0  0  0  0  0  0
  191.0990  176.8060  145.4350 C   0  0  0  0  0  2  0  0  0  0  0  0
  190.5770  176.8450  146.7270 O   0  0  0  0  0  1  0  0  0  0  0  0
  1 13  1  0  0  0  0
  2 14  1  0  0  0  0
  3 16  1  0  0  0  0
  4 11  2  0  0  0  0
  6  2  2  0  0  0  0
  6 15  1  0  0  0  0
  7 11  1  0  0  0  0
  7  8  1  0  0  0  0
  9  7  1  0  0  0  0
 10  1  2  0  0  0  0
 10  2  1  0  0  0  0
 11  5  1  0  0  0  0
 12  9  1  0  0  0  0
 12  4  1  0  0  0  0
 13 23  1  6  0  0  0
 13 16  1  0  0  0  0
 14  3  1  0  0  0  0
 14  9  2  0  0  0  0
 15 12  2  0  0  0  0
 16 25  1  1  0  0  0
 17 20  2  0  0  0  0
 17 21  1  0  0  0  0
 18 10  1  0  0  0  0
 19 18  2  0  0  0  0
 20 19  1  0  0  0  0
 21 22  2  0  0  0  0
 22 18  1  0  0  0  0
 24 23  1  0  0  0  0
 25 26  1  0  0  0  0
 26 27  1  0  0  0  0
M  END
>  <MODEL>
4

>  <REMARK>
 VINA RESULT:      -6.9      1.359      1.705
  Name = 
  4 active torsions:
  status: ('A' for Active; 'I' for Inactive)
    1  A    between atoms: C_9  and  C_15
    2  A    between atoms: C_10  and  C_20
    3  A    between atoms: CA_18  and  C_22
    4  A    between atoms: C_20  and  C_26
                            x       y       z     vdW  Elec       q    Type
                         _______ _______ _______ _____ _____    ______ ____

>  <TORSDO>
F 4

$$$$
=
 OpenBabel10262419593D

 27 30  0  0  1  0  0  0  0  0999 V2000
  187.6950  177.5200  142.8220 N   0  0  0  0  0  0  0  0  0  0  0  0
  189.8660  176.6070  143.4070 C   0  0  0  0  0  0  0  0  0  0  0  0
  189.2340  178.3300  145.1610 C   0  0  0  0  0  2  0  0  0  0  0  0
  192.4700  174.9510  146.0920 N   0  0  0  0  0  0  0  0  0  0  0  0
  192.9050  175.7000  148.4370 C   0  0  0  0  0  1  0  0  0  0  0  0
  190.6150  175.5280  143.0090 N   0  0  0  0  0  0  0  0  0  0  0  0
  191.2840  176.7410  146.8250 N   0  0  0  0  0  0  0  0  0  0  0  0
  190.8040  177.8020  147.7000 C   0  0  0  0  0  1  0  0  0  0  0  0
  190.9290  176.4770  145.5560 C   0  0  0  0  0  0  0  0  0  0  0  0
  188.9110  177.2260  142.4500 C   0  0  0  0  0  0  0  0  0  0  0  0
  192.2140  175.8020  147.1190 C   0  0  0  0  0  0  0  0  0  0  0  0
  191.6480  175.4010  145.1270 C   0  0  0  0  0  0  0  0  0  0  0  0
  187.1250  177.2090  144.1350 C   0  0  1  0  0  3  0  0  0  0  0  0
  190.0070  177.1210  144.7200 C   0  0  0  0  0  0  0  0  0  0  0  0
  191.5050  174.9070  143.8380 C   0  0  0  0  0  3  0  0  0  0  0  0
  187.7240  178.0760  145.2620 C   0  0  1  0  0  3  0  0  0  0  0  0
  190.1120  178.0770  138.4550 N   0  0  0  0  0  0  0  0  0  0  0  0
  189.3280  177.5330  141.0610 C   0  0  0  0  0  0  0  0  0  0  0  0
  188.5290  178.3260  140.2250 C   0  0  0  0  0  3  0  0  0  0  0  0
  188.9410  178.5900  138.9170 C   0  0  0  0  0  3  0  0  0  0  0  0
  190.9070  177.3020  139.2400 C   0  0  0  0  0  3  0  0  0  0  0  0
  190.5290  177.0160  140.5530 C   0  0  0  0  0  3  0  0  0  0  0  0
  185.6080  177.3480  144.0810 C   0  0  0  0  0  2  0  0  0  0  0  0
  185.2450  178.6120  143.6120 O   0  0  0  0  0  1  0  0  0  0  0  0
  187.3270  177.5780  146.6540 C   0  0  0  0  0  2  0  0  0  0  0  0
  186.7790  178.6900  147.5360 C   0  0  0  0  0  2  0  0  0  0  0  0
  185.6290  179.2190  146.9530 O   0  0  0  0  0  1  0  0  0  0  0  0
  1 13  1  0  0  0  0
  2 14  1  0  0  0  0
  3 16  1  0  0  0  0
  4 11  2  0  0  0  0
  6  2  2  0  0  0  0
  6 15  1  0  0  0  0
  7 11  1  0  0  0  0
  7  8  1  0  0  0  0
  9  7  1  0  0  0  0
 10  1  2  0  0  0  0
 10  2  1  0  0  0  0
 11  5  1  0  0  0  0
 12  9  1  0  0  0  0
 12  4  1  0  0  0  0
 13 23  1  6  0  0  0
 13 16  1  0  0  0  0
 14  3  1  0  0  0  0
 14  9  2  0  0  0  0
 15 12  2  0  0  0  0
 16 25  1  1  0  0  0
 17 20  2  0  0  0  0
 17 21  1  0  0  0  0
 18 10  1  0  0  0  0
 19 18  2  0  0  0  0
 20 19  1  0  0  0  0
 21 22  2  0  0  0  0
 22 18  1  0  0  0  0
 24 23  1  0  0  0  0
 25 26  1  0  0  0  0
 27 26  1  0  0  0  0
M  END
>  <MODEL>
5

>  <REMARK>
 VINA RESULT:      -6.7      2.656      5.229
  Name = 
  4 active torsions:
  status: ('A' for Active; 'I' for Inactive)
    1  A    between atoms: C_9  and  C_15
    2  A    between atoms: C_10  and  C_20
    3  A    between atoms: CA_18  and  C_22
    4  A    between atoms: C_20  and  C_26
                            x       y       z     vdW  Elec       q    Type
                         _______ _______ _______ _____ _____    ______ ____

>  <TORSDO>
F 4

$$$$
=
 OpenBabel10262419593D

 27 30  0  0  1  0  0  0  0  0999 V2000
  188.3260  177.6070  139.2380 N   0  0  0  0  0  0  0  0  0  0  0  0
  190.6430  176.9340  139.4880 C   0  0  0  0  0  0  0  0  0  0  0  0
  189.5700  175.4420  137.7360 C   0  0  0  0  0  2  0  0  0  0  0  0
  194.3060  175.9890  137.9290 N   0  0  0  0  0  0  0  0  0  0  0  0
  194.7820  174.4870  135.9890 C   0  0  0  0  0  1  0  0  0  0  0  0
  191.7620  177.4690  140.0780 N   0  0  0  0  0  0  0  0  0  0  0  0
  192.5110  175.0500  136.9050 N   0  0  0  0  0  0  0  0  0  0  0  0
  191.7300  174.2410  135.9800 C   0  0  0  0  0  1  0  0  0  0  0  0
  192.0780  175.8200  137.9180 C   0  0  0  0  0  0  0  0  0  0  0  0
  189.3000  177.2630  140.0350 C   0  0  0  0  0  0  0  0  0  0  0  0
  193.8600  175.1740  136.9380 C   0  0  0  0  0  0  0  0  0  0  0  0
  193.1630  176.3780  138.5250 C   0  0  0  0  0  0  0  0  0  0  0  0
  188.4540  177.7880  137.7910 C   0  0  1  0  0  3  0  0  0  0  0  0
  190.7760  176.0760  138.3670 C   0  0  0  0  0  0  0  0  0  0  0  0
  193.0230  177.2140  139.6240 C   0  0  0  0  0  3  0  0  0  0  0  0
  188.6500  176.4540  137.0420 C   0  0  1  0  0  3  0  0  0  0  0  0
  188.5290  177.0470  144.2170 N   0  0  0  0  0  0  0  0  0  0  0  0
  189.0420  177.1920  141.4930 C   0  0  0  0  0  0  0  0  0  0  0  0
  189.8690  176.4370  142.3370 C   0  0  0  0  0  3  0  0  0  0  0  0
  189.5960  176.3780  143.7060 C   0  0  0  0  0  3  0  0  0  0  0  0
  187.7070  177.7850  143.4240 C   0  0  0  0  0  3  0  0  0  0  0  0
  187.9480  177.8680  142.0510 C   0  0  0  0  0  3  0  0  0  0  0  0
  187.2420  178.5440  137.2600 C   0  0  0  0  0  2  0  0  0  0  0  0
  186.2460  178.6280  138.2350 O   0  0  0  0  0  1  0  0  0  0  0  0
  189.0440  176.6610  135.5760 C   0  0  0  0  0  2  0  0  0  0  0  0
  188.1990  175.8300  134.6230 C   0  0  0  0  0  2  0  0  0  0  0  0
  186.9810  175.5260  135.2290 O   0  0  0  0  0  1  0  0  0  0  0  0
  1 10  2  0  0  0  0
  2 10  1  0  0  0  0
  2  6  1  0  0  0  0
  3 14  1  0  0  0  0
  4 12  1  0  0  0  0
  5 11  1  0  0  0  0
  7 11  1  0  0  0  0
  7  9  1  0  0  0  0
  8  7  1  0  0  0  0
  9 14  1  0  0  0  0
  9 12  2  0  0  0  0
 10 18  1  0  0  0  0
 11  4  2  0  0  0  0
 12 15  1  0  0  0  0
 13 23  1  6  0  0  0
 13  1  1  0  0  0  0
 14  2  2  0  0  0  0
 15  6  2  0  0  0  0
 16 25  1  6  0  0  0
 16  3  1  0  0  0  0
 16 13  1  0  0  0  0
 18 22  2  0  0  0  0
 18 19  1  0  0  0  0
 19 20  2  0  0  0  0
 20 17  1  0  0  0  0
 21 17  2  0  0  0  0
 22 21  1  0  0  0  0
 23 24  1  0  0  0  0
 26 27  1  0  0  0  0
 26 25  1  0  0  0  0
M  END
>  <MODEL>
6

>  <REMARK>
 VINA RESULT:      -6.4      3.470      8.336
  Name = 
  4 active torsions:
  status: ('A' for Active; 'I' for Inactive)
    1  A    between atoms: C_9  and  C_15
    2  A    between atoms: C_10  and  C_20
    3  A    between atoms: CA_18  and  C_22
    4  A    between atoms: C_20  and  C_26
                            x       y       z     vdW  Elec       q    Type
                         _______ _______ _______ _____ _____    ______ ____

>  <TORSDO>
F 4

$$$$
=
 OpenBabel10262419593D

 27 30  0  0  1  0  0  0  0  0999 V2000
  182.1950  178.9390  142.1680 N   0  0  0  0  0  0  0  0  0  0  0  0
  183.9550  178.3380  140.6090 C   0  0  0  0  0  0  0  0  0  0  0  0
  181.9720  176.8100  140.1910 C   0  0  0  0  0  2  0  0  0  0  0  0
  185.2890  177.5030  136.8330 N   0  0  0  0  0  0  0  0  0  0  0  0
  184.2100  176.0110  135.1430 C   0  0  0  0  0  1  0  0  0  0  0  0
  185.1320  178.9090  140.1920 N   0  0  0  0  0  0  0  0  0  0  0  0
  183.3460  176.5060  137.4500 N   0  0  0  0  0  0  0  0  0  0  0  0
  182.1550  175.6720  137.3870 C   0  0  0  0  0  1  0  0  0  0  0  0
  183.7850  177.2660  138.4680 C   0  0  0  0  0  0  0  0  0  0  0  0
  183.4480  178.6280  141.9770 C   0  0  0  0  0  0  0  0  0  0  0  0
  184.2750  176.6730  136.4780 C   0  0  0  0  0  0  0  0  0  0  0  0
  184.9520  177.8580  138.0870 C   0  0  0  0  0  0  0  0  0  0  0  0
  181.2080  179.1200  141.1030 C   0  0  1  0  0  3  0  0  0  0  0  0
  183.2350  177.4820  139.7380 C   0  0  0  0  0  0  0  0  0  0  0  0
  185.6510  178.6920  138.9480 C   0  0  0  0  0  3  0  0  0  0  0  0
  180.8160  177.7910  140.4240 C   0  0  1  0  0  3  0  0  0  0  0  0
  186.0270  178.3960  145.3580 N   0  0  0  0  0  0  0  0  0  0  0  0
  184.3540  178.5520  143.1480 C   0  0  0  0  0  0  0  0  0  0  0  0
  185.6070  177.9300  143.0540 C   0  0  0  0  0  3  0  0  0  0  0  0
  186.4350  177.8630  144.1760 C   0  0  0  0  0  3  0  0  0  0  0  0
  184.8160  179.0030  145.4820 C   0  0  0  0  0  3  0  0  0  0  0  0
  183.9600  179.0900  144.3820 C   0  0  0  0  0  3  0  0  0  0  0  0
  179.9820  179.8370  141.6560 C   0  0  0  0  0  2  0  0  0  0  0  0
  180.2940  180.5030  142.8430 O   0  0  0  0  0  1  0  0  0  0  0  0
  179.9940  178.0060  139.1510 C   0  0  0  0  0  2  0  0  0  0  0  0
  180.4570  179.2180  138.3570 C   0  0  0  0  0  2  0  0  0  0  0  0
  180.7910  178.8230  137.0620 O   0  0  0  0  0  1  0  0  0  0  0  0
  2 10  1  0  0  0  0
  3 16  1  0  0  0  0
  4 12  1  0  0  0  0
  5 11  1  0  0  0  0
  6  2  1  0  0  0  0
  7  9  1  0  0  0  0
  8  7  1  0  0  0  0
  9 14  1  0  0  0  0
 10  1  2  0  0  0  0
 10 18  1  0  0  0  0
 11  4  2  0  0  0  0
 11  7  1  0  0  0  0
 12  9  2  0  0  0  0
 12 15  1  0  0  0  0
 13 23  1  1  0  0  0
 13  1  1  0  0  0  0
 14  3  1  0  0  0  0
 14  2  2  0  0  0  0
 15  6  2  0  0  0  0
 16 25  1  6  0  0  0
 16 13  1  0  0  0  0
 17 21  1  0  0  0  0
 18 22  1  0  0  0  0
 19 18  2  0  0  0  0
 19 20  1  0  0  0  0
 20 17  2  0  0  0  0
 22 21  2  0  0  0  0
 23 24  1  0  0  0  0
 26 25  1  0  0  0  0
 27 26  1  0  0  0  0
M  END
>  <MODEL>
7

>  <REMARK>
 VINA RESULT:      -6.3      5.033      8.454
  Name = 
  4 active torsions:
  status: ('A' for Active; 'I' for Inactive)
    1  A    between atoms: C_9  and  C_15
    2  A    between atoms: C_10  and  C_20
    3  A    between atoms: CA_18  and  C_22
    4  A    between atoms: C_20  and  C_26
                            x       y       z     vdW  Elec       q    Type
                         _______ _______ _______ _____ _____    ______ ____

>  <TORSDO>
F 4

$$$$
=
 OpenBabel10262419593D

 27 30  0  0  1  0  0  0  0  0999 V2000
  188.8730  177.6360  146.4590 N   0  0  0  0  0  0  0  0  0  0  0  0
  188.8880  177.7210  144.0340 C   0  0  0  0  0  0  0  0  0  0  0  0
  186.5310  177.1580  144.7920 C   0  0  0  0  0  2  0  0  0  0  0  0
  187.3470  179.0020  140.4680 N   0  0  0  0  0  0  0  0  0  0  0  0
  184.9440  179.0300  139.7810 C   0  0  0  0  0  1  0  0  0  0  0  0
  189.7560  178.1800  143.0750 N   0  0  0  0  0  0  0  0  0  0  0  0
  185.8450  178.2450  141.9910 N   0  0  0  0  0  0  0  0  0  0  0  0
  184.5730  177.8630  142.5870 C   0  0  0  0  0  1  0  0  0  0  0  0
  187.0780  178.1610  142.5200 C   0  0  0  0  0  0  0  0  0  0  0  0
  189.4230  177.2520  145.3400 C   0  0  0  0  0  0  0  0  0  0  0  0
  186.0420  178.7580  140.7530 C   0  0  0  0  0  0  0  0  0  0  0  0
  187.9700  178.6170  141.5960 C   0  0  0  0  0  0  0  0  0  0  0  0
  187.7740  178.5970  146.5630 C   0  0  1  0  0  3  0  0  0  0  0  0
  187.4940  177.7000  143.7760 C   0  0  0  0  0  0  0  0  0  0  0  0
  189.3330  178.6310  141.8590 C   0  0  0  0  0  3  0  0  0  0  0  0
  186.4340  178.0260  146.0530 C   0  0  1  0  0  3  0  0  0  0  0  0
  192.7360  174.5830  145.5130 N   0  0  0  0  0  0  0  0  0  0  0  0
  190.5810  176.3280  145.3920 C   0  0  0  0  0  0  0  0  0  0  0  0
  190.9690  175.5920  144.2630 C   0  0  0  0  0  3  0  0  0  0  0  0
  192.0570  174.7200  144.3430 C   0  0  0  0  0  3  0  0  0  0  0  0
  192.3820  175.2800  146.6250 C   0  0  0  0  0  3  0  0  0  0  0  0
  191.3000  176.1620  146.5840 C   0  0  0  0  0  3  0  0  0  0  0  0
  187.6510  179.0830  148.0030 C   0  0  0  0  0  2  0  0  0  0  0  0
  188.3260  178.2240  148.8720 O   0  0  0  0  0  1  0  0  0  0  0  0
  185.3550  179.1030  145.9160 C   0  0  0  0  0  2  0  0  0  0  0  0
  183.9490  178.5210  145.9210 C   0  0  0  0  0  2  0  0  0  0  0  0
  183.0920  179.3740  145.2270 O   0  0  0  0  0  1  0  0  0  0  0  0
  1 13  1  0  0  0  0
  2 10  1  0  0  0  0
  3 16  1  0  0  0  0
  4 11  2  0  0  0  0
  4 12  1  0  0  0  0
  5 11  1  0  0  0  0
  6  2  2  0  0  0  0
  7  9  1  0  0  0  0
  7  8  1  0  0  0  0
  9 14  2  0  0  0  0
 10 18  1  0  0  0  0
 10  1  2  0  0  0  0
 11  7  1  0  0  0  0
 12 15  2  0  0  0  0
 12  9  1  0  0  0  0
 13 23  1  1  0  0  0
 14  2  1  0  0  0  0
 14  3  1  0  0  0  0
 15  6  1  0  0  0  0
 16 25  1  6  0  0  0
 16 13  1  0  0  0  0
 17 21  1  0  0  0  0
 18 22  1  0  0  0  0
 19 20  1  0  0  0  0
 19 18  2  0  0  0  0
 20 17  2  0  0  0  0
 22 21  2  0  0  0  0
 23 24  1  0  0  0  0
 25 26  1  0  0  0  0
 27 26  1  0  0  0  0
M  END
>  <MODEL>
8

>  <REMARK>
 VINA RESULT:      -6.0      2.604      5.110
  Name = 
  4 active torsions:
  status: ('A' for Active; 'I' for Inactive)
    1  A    between atoms: C_9  and  C_15
    2  A    between atoms: C_10  and  C_20
    3  A    between atoms: CA_18  and  C_22
    4  A    between atoms: C_20  and  C_26
                            x       y       z     vdW  Elec       q    Type
                         _______ _______ _______ _____ _____    ______ ____

>  <TORSDO>
F 4

$$$$
=
 OpenBabel10262419593D

 27 30  0  0  1  0  0  0  0  0999 V2000
  188.9650  176.8760  138.4740 N   0  0  0  0  0  0  0  0  0  0  0  0
  189.0620  176.9020  140.8980 C   0  0  0  0  0  0  0  0  0  0  0  0
  187.4990  178.7570  140.1500 C   0  0  0  0  0  2  0  0  0  0  0  0
  187.2650  176.9850  144.5730 N   0  0  0  0  0  0  0  0  0  0  0  0
  185.3880  178.4630  145.3050 C   0  0  0  0  0  1  0  0  0  0  0  0
  189.5240  176.0490  141.8700 N   0  0  0  0  0  0  0  0  0  0  0  0
  186.4530  178.4380  143.0300 N   0  0  0  0  0  0  0  0  0  0  0  0
  185.6470  179.4930  142.4340 C   0  0  0  0  0  1  0  0  0  0  0  0
  187.4490  177.7270  142.4730 C   0  0  0  0  0  0  0  0  0  0  0  0
  189.6970  176.8900  139.5540 C   0  0  0  0  0  0  0  0  0  0  0  0
  186.3660  177.9640  144.2970 C   0  0  0  0  0  0  0  0  0  0  0  0
  187.9290  176.8600  143.4090 C   0  0  0  0  0  0  0  0  0  0  0  0
  187.5040  176.7850  138.4570 C   0  0  1  0  0  3  0  0  0  0  0  0
  187.9880  177.7830  141.1820 C   0  0  0  0  0  0  0  0  0  0  0  0
  188.9830  176.0030  143.1220 C   0  0  0  0  0  3  0  0  0  0  0  0
  186.8230  178.0780  138.9520 C   0  0  1  0  0  3  0  0  0  0  0  0
  193.9340  176.9570  139.1340 N   0  0  0  0  0  0  0  0  0  0  0  0
  191.1730  176.9080  139.4170 C   0  0  0  0  0  0  0  0  0  0  0  0
  191.9820  177.5030  140.3970 C   0  0  0  0  0  3  0  0  0  0  0  0
  193.3690  177.5160  140.2370 C   0  0  0  0  0  3  0  0  0  0  0  0
  193.1770  176.3770  138.1650 C   0  0  0  0  0  3  0  0  0  0  0  0
  191.7860  176.3440  138.2890 C   0  0  0  0  0  3  0  0  0  0  0  0
  187.0290  176.4160  137.0560 C   0  0  0  0  0  2  0  0  0  0  0  0
  187.4470  177.3690  136.1260 O   0  0  0  0  0  1  0  0  0  0  0  0
  185.3200  177.8940  139.1820 C   0  0  0  0  0  2  0  0  0  0  0  0
  184.4860  178.9200  138.4300 C   0  0  0  0  0  2  0  0  0  0  0  0
  184.5170  180.1340  139.1150 O   0  0  0  0  0  1  0  0  0  0  0  0
  1 10  2  0  0  0  0
  2 14  2  0  0  0  0
  2  6  1  0  0  0  0
  3 14  1  0  0  0  0
  6 15  2  0  0  0  0
  7 11  1  0  0  0  0
  8  7  1  0  0  0  0
  9  7  1  0  0  0  0
  9 12  2  0  0  0  0
 10  2  1  0  0  0  0
 11  4  2  0  0  0  0
 11  5  1  0  0  0  0
 12  4  1  0  0  0  0
 13 23  1  6  0  0  0
 13  1  1  0  0  0  0
 13 16  1  0  0  0  0
 14  9  1  0  0  0  0
 15 12  1  0  0  0  0
 16 25  1  1  0  0  0
 16  3  1  0  0  0  0
 17 20  1  0  0  0  0
 18 10  1  0  0  0  0
 18 19  1  0  0  0  0
 20 19  2  0  0  0  0
 21 22  1  0  0  0  0
 21 17  2  0  0  0  0
 22 18  2  0  0  0  0
 24 23  1  0  0  0  0
 26 27  1  0  0  0  0
 26 25  1  0  0  0  0
M  END
>  <MODEL>
9

>  <REMARK>
 VINA RESULT:      -6.0      3.148      5.115
  Name = 
  4 active torsions:
  status: ('A' for Active; 'I' for Inactive)
    1  A    between atoms: C_9  and  C_15
    2  A    between atoms: C_10  and  C_20
    3  A    between atoms: CA_18  and  C_22
    4  A    between atoms: C_20  and  C_26
                            x       y       z     vdW  Elec       q    Type
                         _______ _______ _______ _____ _____    ______ ____

>  <TORSDO>
F 4

$$$$
