=
 OpenBabel10262420563D

 28 31  0  0  1  0  0  0  0  0999 V2000
  182.2350  176.3240  138.4070 C   0  0  2  0  0  3  0  0  0  0  0  0
  184.0270  179.1850  143.7000 C   0  0  1  0  0  3  0  0  0  0  0  0
  183.2250  180.5520  139.0280 O   0  0  0  0  0  1  0  0  0  0  0  0
  185.8340  177.8130  142.7360 C   0  0  2  0  0  3  0  0  0  0  0  0
  183.7840  178.4670  141.2440 C   0  0  2  0  0  3  0  0  0  0  0  0
  185.0740  179.0270  144.6930 N   0  0  0  0  0  2  0  0  0  0  0  0
  184.3270  178.1270  142.6370 C   0  0  2  0  0  3  0  0  0  0  0  0
  186.1530  178.7330  140.4060 C   0  0  0  0  0  2  0  0  0  0  0  0
  186.0990  178.2290  144.1300 C   0  0  0  0  0  0  0  0  0  0  0  0
  183.7350  178.3300  138.2830 C   0  0  1  0  0  3  0  0  0  0  0  0
  183.4130  177.1840  140.5080 C   0  0  0  0  0  2  0  0  0  0  0  0
  186.6870  178.7010  141.8260 C   0  0  0  0  0  2  0  0  0  0  0  0
  184.5230  176.0490  137.4600 C   0  0  0  0  0  3  0  0  0  0  0  0
  184.2410  179.5960  138.9930 C   0  0  2  0  0  3  0  0  0  0  0  0
  184.9120  177.4640  137.8080 C   0  0  0  0  0  2  0  0  0  0  0  0
  187.1410  177.9220  144.7660 O   0  0  0  0  0  0  0  0  0  0  0  0
  182.6740  178.9230  144.3320 C   0  0  0  0  0  1  0  0  0  0  0  0
  184.7540  179.3350  140.4200 C   0  0  1  0  0  3  0  0  0  0  0  0
  183.3330  175.5160  137.7730 C   0  0  0  0  0  3  0  0  0  0  0  0
  182.7600  177.5450  139.1740 C   0  0  2  0  0  3  0  0  0  0  0  0
  181.3040  175.4300  139.2360 C   0  0  0  0  0  2  0  0  0  0  0  0
  179.9080  175.4160  138.7630 N   0  0  0  0  0  0  0  0  0  0  0  0
  179.6980  176.4870  137.7760 C   0  0  0  0  0  2  0  0  0  0  0  0
  179.0570  176.0110  136.6270 O   0  0  0  0  0  1  0  0  0  0  0  0
  179.1880  176.6320  140.7920 C   0  0  0  0  0  1  0  0  0  0  0  0
  178.9310  175.4470  139.8700 C   0  0  2  0  0  3  0  0  0  0  0  0
  178.9690  174.1630  140.7020 C   0  0  0  0  0  2  0  0  0  0  0  0
  178.9900  174.4580  142.0680 O   0  0  0  0  0  1  0  0  0  0  0  0
  1 20  1  0  0  0  0
  1 21  1  1  0  0  0
  2 17  1  1  0  0  0
  2  6  1  0  0  0  0
  4 12  1  6  0  0  0
  4  9  1  0  0  0  0
  5 11  1  6  0  0  0
  5  7  1  0  0  0  0
  7  4  1  0  0  0  0
  7  2  1  0  0  0  0
  8 18  1  0  0  0  0
  8 12  1  0  0  0  0
  9  6  1  0  0  0  0
  9 16  2  0  0  0  0
 10 14  1  0  0  0  0
 10 20  1  0  0  0  0
 13 19  2  0  0  0  0
 13 15  1  0  0  0  0
 14  3  1  0  0  0  0
 14 18  1  0  0  0  0
 15 10  1  0  0  0  0
 18  5  1  0  0  0  0
 19  1  1  0  0  0  0
 20 11  1  0  0  0  0
 22 21  1  0  0  0  0
 22 26  1  0  0  0  0
 23 22  1  0  0  0  0
 24 23  1  0  0  0  0
 26 27  1  0  0  0  0
 26 25  1  0  0  0  0
 27 28  1  0  0  0  0
M  END
>  <MODEL>
1

>  <REMARK>
 VINA RESULT:      -6.1      0.000      0.000
  Name = 
  5 active torsions:
  status: ('A' for Active; 'I' for Inactive)
    1  A    between atoms: C_1  and  C_2
    2  A    between atoms: C_2  and  N_3
    3  A    between atoms: N_3  and  C_7
    4  A    between atoms: N_3  and  C_11
    5  A    between atoms: C_6  and  C_11
                            x       y       z     vdW  Elec       q    Type
                         _______ _______ _______ _____ _____    ______ ____

>  <TORSDO>
F 5

$$$$
=
 OpenBabel10262420563D

 28 31  0  0  1  0  0  0  0  0999 V2000
  187.6710  177.5370  137.0560 C   0  0  2  0  0  3  0  0  0  0  0  0
  182.4970  178.3900  140.5060 C   0  0  1  0  0  3  0  0  0  0  0  0
  184.4170  174.7040  137.8480 O   0  0  0  0  0  1  0  0  0  0  0  0
  182.3650  179.5620  138.3420 C   0  0  2  0  0  3  0  0  0  0  0  0
  184.1480  177.6740  138.6720 C   0  0  2  0  0  3  0  0  0  0  0  0
  181.3890  179.3260  140.5490 N   0  0  0  0  0  2  0  0  0  0  0  0
  183.3210  178.8090  139.2890 C   0  0  2  0  0  3  0  0  0  0  0  0
  182.6800  177.7450  136.6170 C   0  0  0  0  0  2  0  0  0  0  0  0
  181.3310  180.0000  139.3050 C   0  0  0  0  0  0  0  0  0  0  0  0
  185.5750  176.2910  136.4720 C   0  0  1  0  0  3  0  0  0  0  0  0
  185.4300  178.2390  138.0690 C   0  0  0  0  0  2  0  0  0  0  0  0
  181.6820  178.6390  137.3280 C   0  0  0  0  0  2  0  0  0  0  0  0
  186.6000  177.9700  134.8480 C   0  0  0  0  0  3  0  0  0  0  0  0
  184.2170  175.7670  136.9660 C   0  0  2  0  0  3  0  0  0  0  0  0
  185.4060  177.1090  135.1820 C   0  0  0  0  0  2  0  0  0  0  0  0
  180.4660  180.8780  139.0510 O   0  0  0  0  0  0  0  0  0  0  0  0
  183.3260  178.5150  141.7690 C   0  0  0  0  0  1  0  0  0  0  0  0
  183.3540  176.8460  137.6450 C   0  0  1  0  0  3  0  0  0  0  0  0
  187.5990  178.2050  135.7100 C   0  0  0  0  0  3  0  0  0  0  0  0
  186.2990  177.0840  137.5710 C   0  0  2  0  0  3  0  0  0  0  0  0
  188.4490  178.4010  138.0560 C   0  0  0  0  0  2  0  0  0  0  0  0
  189.5280  177.6820  138.7590 N   0  0  0  0  0  0  0  0  0  0  0  0
  190.0080  176.5620  137.9340 C   0  0  0  0  0  2  0  0  0  0  0  0
  191.3390  176.7440  137.5420 O   0  0  0  0  0  1  0  0  0  0  0  0
  188.1810  178.2800  140.7440 C   0  0  0  0  0  1  0  0  0  0  0  0
  189.1460  177.2750  140.1250 C   0  0  2  0  0  3  0  0  0  0  0  0
  190.3630  177.1380  141.0430 C   0  0  0  0  0  2  0  0  0  0  0  0
  190.2400  176.0150  141.8650 O   0  0  0  0  0  1  0  0  0  0  0  0
  1 20  1  0  0  0  0
  1 21  1  1  0  0  0
  2  6  1  0  0  0  0
  2 17  1  1  0  0  0
  4 12  1  6  0  0  0
  4  7  1  0  0  0  0
  4  9  1  0  0  0  0
  5 11  1  6  0  0  0
  5  7  1  0  0  0  0
  7  2  1  0  0  0  0
  8 12  1  0  0  0  0
  8 18  1  0  0  0  0
  9  6  1  0  0  0  0
 10 14  1  0  0  0  0
 10 20  1  0  0  0  0
 13 15  1  0  0  0  0
 13 19  2  0  0  0  0
 14 18  1  0  0  0  0
 14  3  1  0  0  0  0
 15 10  1  0  0  0  0
 16  9  2  0  0  0  0
 18  5  1  0  0  0  0
 19  1  1  0  0  0  0
 20 11  1  0  0  0  0
 21 22  1  0  0  0  0
 22 26  1  0  0  0  0
 23 22  1  0  0  0  0
 24 23  1  0  0  0  0
 26 25  1  0  0  0  0
 26 27  1  0  0  0  0
 27 28  1  0  0  0  0
M  END
>  <MODEL>
2

>  <REMARK>
 VINA RESULT:      -5.7      3.537      7.029
  Name = 
  5 active torsions:
  status: ('A' for Active; 'I' for Inactive)
    1  A    between atoms: C_1  and  C_2
    2  A    between atoms: C_2  and  N_3
    3  A    between atoms: N_3  and  C_7
    4  A    between atoms: N_3  and  C_11
    5  A    between atoms: C_6  and  C_11
                            x       y       z     vdW  Elec       q    Type
                         _______ _______ _______ _____ _____    ______ ____

>  <TORSDO>
F 5

$$$$
=
 OpenBabel10262420563D

 28 31  0  0  1  0  0  0  0  0999 V2000
  182.3960  178.9830  142.9090 C   0  0  2  0  0  3  0  0  0  0  0  0
  181.9140  175.7010  137.5800 C   0  0  1  0  0  3  0  0  0  0  0  0
  180.8790  180.3070  139.0120 O   0  0  0  0  0  1  0  0  0  0  0  0
  180.1860  175.0600  139.2170 C   0  0  2  0  0  3  0  0  0  0  0  0
  181.4760  177.3160  139.5300 C   0  0  2  0  0  3  0  0  0  0  0  0
  181.2970  174.4610  137.1460 N   0  0  0  0  0  2  0  0  0  0  0  0
  181.4910  175.8630  139.0400 C   0  0  2  0  0  3  0  0  0  0  0  0
  178.9590  177.2100  139.7160 C   0  0  0  0  0  2  0  0  0  0  0  0
  180.3150  174.0990  138.1000 C   0  0  0  0  0  0  0  0  0  0  0  0
  180.5850  179.5470  141.2680 C   0  0  1  0  0  3  0  0  0  0  0  0
  181.8240  177.3630  141.0140 C   0  0  0  0  0  2  0  0  0  0  0  0
  178.9310  175.8980  138.9540 C   0  0  0  0  0  2  0  0  0  0  0  0
  180.0200  178.7120  143.6100 C   0  0  0  0  0  3  0  0  0  0  0  0
  180.1070  179.4600  139.8090 C   0  0  2  0  0  3  0  0  0  0  0  0
  179.5040  179.0260  142.2270 C   0  0  0  0  0  2  0  0  0  0  0  0
  179.6140  173.0590  137.9860 O   0  0  0  0  0  0  0  0  0  0  0  0
  183.4220  175.5870  137.4810 C   0  0  0  0  0  1  0  0  0  0  0  0
  180.1460  178.0330  139.2350 C   0  0  1  0  0  3  0  0  0  0  0  0
  181.3240  178.6440  143.9090 C   0  0  0  0  0  3  0  0  0  0  0  0
  181.9270  178.8230  141.4570 C   0  0  2  0  0  3  0  0  0  0  0  0
  183.6960  178.2340  143.2230 C   0  0  0  0  0  2  0  0  0  0  0  0
  184.8830  179.1030  143.3100 N   0  0  0  0  0  0  0  0  0  0  0  0
  185.7780  178.8520  142.1690 C   0  0  0  0  0  2  0  0  0  0  0  0
  185.4320  179.6340  141.0610 O   0  0  0  0  0  1  0  0  0  0  0  0
  186.4630  177.7760  144.6730 C   0  0  0  0  0  1  0  0  0  0  0  0
  185.5660  179.0070  144.6150 C   0  0  2  0  0  3  0  0  0  0  0  0
  184.5720  178.9410  145.7780 C   0  0  0  0  0  2  0  0  0  0  0  0
  185.2420  178.9390  147.0040 O   0  0  0  0  0  1  0  0  0  0  0  0
  1 21  1  1  0  0  0
  1 19  1  0  0  0  0
  2 17  1  1  0  0  0
  2  7  1  0  0  0  0
  3 14  1  0  0  0  0
  4 12  1  6  0  0  0
  5 11  1  1  0  0  0
  6  2  1  0  0  0  0
  6  9  1  0  0  0  0
  7  4  1  0  0  0  0
  7  5  1  0  0  0  0
  9  4  1  0  0  0  0
 10 20  1  0  0  0  0
 10 15  1  0  0  0  0
 11 20  1  0  0  0  0
 12  8  1  0  0  0  0
 13 19  2  0  0  0  0
 14 10  1  0  0  0  0
 15 13  1  0  0  0  0
 16  9  2  0  0  0  0
 18  5  1  0  0  0  0
 18  8  1  0  0  0  0
 18 14  1  0  0  0  0
 20  1  1  0  0  0  0
 21 22  1  0  0  0  0
 22 26  1  0  0  0  0
 23 22  1  0  0  0  0
 24 23  1  0  0  0  0
 26 25  1  0  0  0  0
 26 27  1  0  0  0  0
 27 28  1  0  0  0  0
M  END
>  <MODEL>
3

>  <REMARK>
 VINA RESULT:      -5.7      2.019      7.185
  Name = 
  5 active torsions:
  status: ('A' for Active; 'I' for Inactive)
    1  A    between atoms: C_1  and  C_2
    2  A    between atoms: C_2  and  N_3
    3  A    between atoms: N_3  and  C_7
    4  A    between atoms: N_3  and  C_11
    5  A    between atoms: C_6  and  C_11
                            x       y       z     vdW  Elec       q    Type
                         _______ _______ _______ _____ _____    ______ ____

>  <TORSDO>
F 5

$$$$
=
 OpenBabel10262420563D

 28 31  0  0  1  0  0  0  0  0999 V2000
  183.0770  179.5710  143.3980 C   0  0  2  0  0  3  0  0  0  0  0  0
  183.7030  177.2310  137.6060 C   0  0  1  0  0  3  0  0  0  0  0  0
  180.7990  180.5720  139.7850 O   0  0  0  0  0  1  0  0  0  0  0  0
  182.6050  175.6360  139.1310 C   0  0  2  0  0  3  0  0  0  0  0  0
  182.7410  178.1630  139.7990 C   0  0  2  0  0  3  0  0  0  0  0  0
  183.6870  175.9220  136.9800 N   0  0  0  0  0  2  0  0  0  0  0  0
  183.3770  176.9700  139.0770 C   0  0  2  0  0  3  0  0  0  0  0  0
  180.5770  176.8720  139.9890 C   0  0  0  0  0  2  0  0  0  0  0  0
  183.0640  175.0140  137.8700 C   0  0  0  0  0  0  0  0  0  0  0  0
  181.0780  179.4520  141.8880 C   0  0  1  0  0  3  0  0  0  0  0  0
  183.1530  178.1570  141.2670 C   0  0  0  0  0  2  0  0  0  0  0  0
  181.0890  175.8210  139.0220 C   0  0  0  0  0  2  0  0  0  0  0  0
  181.1580  178.1290  144.0670 C   0  0  0  0  0  3  0  0  0  0  0  0
  180.5710  179.3600  140.4400 C   0  0  2  0  0  3  0  0  0  0  0  0
  180.4410  178.3580  142.7590 C   0  0  0  0  0  2  0  0  0  0  0  0
  182.9110  173.7950  137.5940 O   0  0  0  0  0  0  0  0  0  0  0  0
  185.0810  177.8480  137.4760 C   0  0  0  0  0  1  0  0  0  0  0  0
  181.2100  178.2120  139.6390 C   0  0  1  0  0  3  0  0  0  0  0  0
  182.3690  178.6350  144.3380 C   0  0  0  0  0  3  0  0  0  0  0  0
  182.6130  179.4170  141.9430 C   0  0  2  0  0  3  0  0  0  0  0  0
  184.5980  179.4770  143.5720 C   0  0  0  0  0  2  0  0  0  0  0  0
  185.0280  178.4650  144.5530 N   0  0  0  0  0  0  0  0  0  0  0  0
  185.4170  179.1170  145.8140 C   0  0  0  0  0  2  0  0  0  0  0  0
  184.6850  178.6200  146.8980 O   0  0  0  0  0  1  0  0  0  0  0  0
  187.2450  177.4570  144.9850 C   0  0  0  0  0  1  0  0  0  0  0  0
  186.0680  177.5620  144.0210 C   0  0  2  0  0  3  0  0  0  0  0  0
  186.5920  178.0290  142.6610 C   0  0  0  0  0  2  0  0  0  0  0  0
  187.9760  177.8610  142.5780 O   0  0  0  0  0  1  0  0  0  0  0  0
  1 21  1  6  0  0  0
  1 19  1  0  0  0  0
  2 17  1  1  0  0  0
  2  7  1  0  0  0  0
  3 14  1  0  0  0  0
  4 12  1  6  0  0  0
  5 11  1  1  0  0  0
  6  2  1  0  0  0  0
  6  9  1  0  0  0  0
  7  4  1  0  0  0  0
  7  5  1  0  0  0  0
  9  4  1  0  0  0  0
 10 20  1  0  0  0  0
 10 15  1  0  0  0  0
 11 20  1  0  0  0  0
 12  8  1  0  0  0  0
 13 19  2  0  0  0  0
 14 10  1  0  0  0  0
 15 13  1  0  0  0  0
 16  9  2  0  0  0  0
 18  5  1  0  0  0  0
 18  8  1  0  0  0  0
 18 14  1  0  0  0  0
 20  1  1  0  0  0  0
 21 22  1  0  0  0  0
 22 23  1  0  0  0  0
 23 24  1  0  0  0  0
 26 22  1  0  0  0  0
 26 25  1  0  0  0  0
 27 26  1  0  0  0  0
 28 27  1  0  0  0  0
M  END
>  <MODEL>
4

>  <REMARK>
 VINA RESULT:      -5.6      2.216      7.054
  Name = 
  5 active torsions:
  status: ('A' for Active; 'I' for Inactive)
    1  A    between atoms: C_1  and  C_2
    2  A    between atoms: C_2  and  N_3
    3  A    between atoms: N_3  and  C_7
    4  A    between atoms: N_3  and  C_11
    5  A    between atoms: C_6  and  C_11
                            x       y       z     vdW  Elec       q    Type
                         _______ _______ _______ _____ _____    ______ ____

>  <TORSDO>
F 5

$$$$
=
 OpenBabel10262420563D

 28 31  0  0  1  0  0  0  0  0999 V2000
  184.3710  178.7610  142.1410 C   0  0  2  0  0  3  0  0  0  0  0  0
  181.1800  175.6650  137.7090 C   0  0  1  0  0  3  0  0  0  0  0  0
  181.2770  180.2870  139.4310 O   0  0  0  0  0  1  0  0  0  0  0  0
  180.4010  175.0920  139.9760 C   0  0  2  0  0  3  0  0  0  0  0  0
  181.8390  177.2500  139.6210 C   0  0  2  0  0  3  0  0  0  0  0  0
  180.3460  174.4800  137.6310 N   0  0  0  0  0  2  0  0  0  0  0  0
  181.5160  175.8140  139.1930 C   0  0  2  0  0  3  0  0  0  0  0  0
  179.7140  177.3020  140.9870 C   0  0  0  0  0  2  0  0  0  0  0  0
  179.9140  174.1560  138.9400 C   0  0  0  0  0  0  0  0  0  0  0  0
  182.0420  179.4850  141.5590 C   0  0  1  0  0  3  0  0  0  0  0  0
  182.8540  177.2340  140.7590 C   0  0  0  0  0  2  0  0  0  0  0  0
  179.2350  176.0160  140.3390 C   0  0  0  0  0  2  0  0  0  0  0  0
  182.6040  178.6250  143.8930 C   0  0  0  0  0  3  0  0  0  0  0  0
  180.9220  179.4700  140.5060 C   0  0  2  0  0  3  0  0  0  0  0  0
  181.5150  179.0090  142.9210 C   0  0  0  0  0  2  0  0  0  0  0  0
  179.1740  173.1670  139.1820 O   0  0  0  0  0  0  0  0  0  0  0  0
  182.4470  175.4570  136.9030 C   0  0  0  0  0  1  0  0  0  0  0  0
  180.5820  178.0600  139.9930 C   0  0  1  0  0  3  0  0  0  0  0  0
  183.8850  178.4640  143.5330 C   0  0  0  0  0  3  0  0  0  0  0  0
  183.2570  178.6710  141.0900 C   0  0  2  0  0  3  0  0  0  0  0  0
  185.6080  177.9210  141.8010 C   0  0  0  0  0  2  0  0  0  0  0  0
  186.8000  178.2580  142.6000 N   0  0  0  0  0  0  0  0  0  0  0  0
  187.9150  178.6250  141.7120 C   0  0  0  0  0  2  0  0  0  0  0  0
  187.5250  178.6280  140.3680 O   0  0  0  0  0  1  0  0  0  0  0  0
  187.2150  177.7610  144.9860 C   0  0  0  0  0  1  0  0  0  0  0  0
  187.1530  177.2020  143.5690 C   0  0  2  0  0  3  0  0  0  0  0  0
  188.4990  176.5510  143.2420 C   0  0  0  0  0  2  0  0  0  0  0  0
  189.4130  176.7520  144.2800 O   0  0  0  0  0  1  0  0  0  0  0  0
  1 21  1  6  0  0  0
  1 19  1  0  0  0  0
  2 17  1  6  0  0  0
  2  7  1  0  0  0  0
  3 14  1  0  0  0  0
  4 12  1  6  0  0  0
  5 18  1  0  0  0  0
  5 11  1  1  0  0  0
  6  2  1  0  0  0  0
  6  9  1  0  0  0  0
  7  5  1  0  0  0  0
  7  4  1  0  0  0  0
  9 16  2  0  0  0  0
  9  4  1  0  0  0  0
 10 15  1  0  0  0  0
 11 20  1  0  0  0  0
 12  8  1  0  0  0  0
 14 10  1  0  0  0  0
 15 13  1  0  0  0  0
 18 14  1  0  0  0  0
 18  8  1  0  0  0  0
 19 13  2  0  0  0  0
 20 10  1  0  0  0  0
 20  1  1  0  0  0  0
 21 22  1  0  0  0  0
 22 26  1  0  0  0  0
 23 22  1  0  0  0  0
 24 23  1  0  0  0  0
 26 25  1  0  0  0  0
 27 26  1  0  0  0  0
 27 28  1  0  0  0  0
M  END
>  <MODEL>
5

>  <REMARK>
 VINA RESULT:      -5.6      1.905      7.291
  Name = 
  5 active torsions:
  status: ('A' for Active; 'I' for Inactive)
    1  A    between atoms: C_1  and  C_2
    2  A    between atoms: C_2  and  N_3
    3  A    between atoms: N_3  and  C_7
    4  A    between atoms: N_3  and  C_11
    5  A    between atoms: C_6  and  C_11
                            x       y       z     vdW  Elec       q    Type
                         _______ _______ _______ _____ _____    ______ ____

>  <TORSDO>
F 5

$$$$
=
 OpenBabel10262420563D

 28 31  0  0  1  0  0  0  0  0999 V2000
  182.1490  176.1390  138.0850 C   0  0  2  0  0  3  0  0  0  0  0  0
  183.2060  179.2010  143.4620 C   0  0  1  0  0  3  0  0  0  0  0  0
  182.7130  180.4440  138.7130 O   0  0  0  0  0  1  0  0  0  0  0  0
  185.2040  177.9820  142.6870 C   0  0  2  0  0  3  0  0  0  0  0  0
  183.2480  178.4390  141.0080 C   0  0  2  0  0  3  0  0  0  0  0  0
  184.1700  179.1460  144.5460 N   0  0  0  0  0  2  0  0  0  0  0  0
  183.6910  178.1630  142.4500 C   0  0  2  0  0  3  0  0  0  0  0  0
  185.6510  178.9020  140.3780 C   0  0  0  0  0  2  0  0  0  0  0  0
  185.3060  178.4340  144.0920 C   0  0  0  0  0  0  0  0  0  0  0  0
  183.4770  178.2660  138.0570 C   0  0  1  0  0  3  0  0  0  0  0  0
  183.0560  177.1210  140.2650 C   0  0  0  0  0  2  0  0  0  0  0  0
  186.0560  178.9310  141.8400 C   0  0  0  0  0  2  0  0  0  0  0  0
  184.5280  176.0540  137.3490 C   0  0  0  0  0  3  0  0  0  0  0  0
  183.8070  179.5790  138.7850 C   0  0  2  0  0  3  0  0  0  0  0  0
  184.7620  177.5020  137.7040 C   0  0  0  0  0  2  0  0  0  0  0  0
  186.3100  178.2260  144.8230 O   0  0  0  0  0  0  0  0  0  0  0  0
  181.8300  178.8290  143.9760 C   0  0  0  0  0  1  0  0  0  0  0  0
  184.2100  179.3790  140.2570 C   0  0  1  0  0  3  0  0  0  0  0  0
  183.3660  175.4230  137.5650 C   0  0  0  0  0  3  0  0  0  0  0  0
  182.4970  177.4090  138.8720 C   0  0  2  0  0  3  0  0  0  0  0  0
  181.2280  175.1760  138.8440 C   0  0  0  0  0  2  0  0  0  0  0  0
  179.7940  175.3780  138.5710 N   0  0  0  0  0  0  0  0  0  0  0  0
  179.0880  175.7240  139.8150 C   0  0  0  0  0  2  0  0  0  0  0  0
  179.6670  175.1020  140.9270 O   0  0  0  0  0  1  0  0  0  0  0  0
  180.0530  172.9930  137.9720 C   0  0  0  0  0  1  0  0  0  0  0  0
  179.1850  174.2400  137.8550 C   0  0  2  0  0  3  0  0  0  0  0  0
  178.9690  174.5470  136.3710 C   0  0  0  0  0  2  0  0  0  0  0  0
  178.9310  175.9260  136.1500 O   0  0  0  0  0  1  0  0  0  0  0  0
  1 21  1  1  0  0  0
  1 20  1  0  0  0  0
  2 17  1  1  0  0  0
  2  6  1  0  0  0  0
  3 14  1  0  0  0  0
  4 12  1  6  0  0  0
  4  9  1  0  0  0  0
  5 11  1  6  0  0  0
  5  7  1  0  0  0  0
  7  4  1  0  0  0  0
  7  2  1  0  0  0  0
  8 12  1  0  0  0  0
  9  6  1  0  0  0  0
  9 16  2  0  0  0  0
 10 14  1  0  0  0  0
 10 20  1  0  0  0  0
 13 19  2  0  0  0  0
 13 15  1  0  0  0  0
 14 18  1  0  0  0  0
 15 10  1  0  0  0  0
 18  8  1  0  0  0  0
 18  5  1  0  0  0  0
 19  1  1  0  0  0  0
 20 11  1  0  0  0  0
 22 21  1  0  0  0  0
 22 23  1  0  0  0  0
 23 24  1  0  0  0  0
 26 25  1  0  0  0  0
 26 22  1  0  0  0  0
 27 26  1  0  0  0  0
 28 27  1  0  0  0  0
M  END
>  <MODEL>
6

>  <REMARK>
 VINA RESULT:      -5.6      1.052      2.037
  Name = 
  5 active torsions:
  status: ('A' for Active; 'I' for Inactive)
    1  A    between atoms: C_1  and  C_2
    2  A    between atoms: C_2  and  N_3
    3  A    between atoms: N_3  and  C_7
    4  A    between atoms: N_3  and  C_11
    5  A    between atoms: C_6  and  C_11
                            x       y       z     vdW  Elec       q    Type
                         _______ _______ _______ _____ _____    ______ ____

>  <TORSDO>
F 5

$$$$
=
 OpenBabel10262420563D

 28 31  0  0  1  0  0  0  0  0999 V2000
  186.8860  178.9540  141.5670 C   0  0  2  0  0  3  0  0  0  0  0  0
  185.5450  177.0980  135.7220 C   0  0  1  0  0  3  0  0  0  0  0  0
  184.0570  180.7240  138.7190 O   0  0  0  0  0  1  0  0  0  0  0  0
  184.5410  175.6130  137.4140 C   0  0  2  0  0  3  0  0  0  0  0  0
  185.3770  177.9890  138.1260 C   0  0  2  0  0  3  0  0  0  0  0  0
  185.0940  175.8820  135.0690 N   0  0  0  0  0  2  0  0  0  0  0  0
  185.5440  176.7670  137.2150 C   0  0  2  0  0  3  0  0  0  0  0  0
  183.1020  177.1380  138.8220 C   0  0  0  0  0  2  0  0  0  0  0  0
  184.5300  175.0350  136.0520 C   0  0  0  0  0  0  0  0  0  0  0  0
  184.5990  179.3770  140.6280 C   0  0  1  0  0  3  0  0  0  0  0  0
  186.1270  177.7620  139.4350 C   0  0  0  0  0  2  0  0  0  0  0  0
  183.1210  176.1030  137.7120 C   0  0  0  0  0  2  0  0  0  0  0  0
  184.9270  177.8630  142.6540 C   0  0  0  0  0  3  0  0  0  0  0  0
  183.7430  179.5240  139.3600 C   0  0  2  0  0  3  0  0  0  0  0  0
  183.9760  178.3520  141.5890 C   0  0  0  0  0  2  0  0  0  0  0  0
  184.0540  173.9020  135.7760 O   0  0  0  0  0  0  0  0  0  0  0  0
  186.9480  177.4400  135.2620 C   0  0  0  0  0  1  0  0  0  0  0  0
  183.9020  178.3540  138.3730 C   0  0  1  0  0  3  0  0  0  0  0  0
  186.2470  178.0920  142.6200 C   0  0  0  0  0  3  0  0  0  0  0  0
  186.0550  179.0340  140.2790 C   0  0  2  0  0  3  0  0  0  0  0  0
  188.3450  178.5470  141.3340 C   0  0  0  0  0  2  0  0  0  0  0  0
  188.8880  177.6430  142.3640 N   0  0  0  0  0  0  0  0  0  0  0  0
  189.7150  178.4020  143.3160 C   0  0  0  0  0  2  0  0  0  0  0  0
  189.2610  178.2460  144.6310 O   0  0  0  0  0  1  0  0  0  0  0  0
  190.2400  175.6390  142.8810 C   0  0  0  0  0  1  0  0  0  0  0  0
  189.5860  176.4770  141.7890 C   0  0  2  0  0  3  0  0  0  0  0  0
  190.6620  176.8920  140.7830 C   0  0  0  0  0  2  0  0  0  0  0  0
  190.5450  176.1590  139.5990 O   0  0  0  0  0  1  0  0  0  0  0  0
  1 21  1  6  0  0  0
  1 19  1  0  0  0  0
  2 17  1  6  0  0  0
  2  7  1  0  0  0  0
  3 14  1  0  0  0  0
  4 12  1  6  0  0  0
  5 18  1  0  0  0  0
  5 11  1  1  0  0  0
  6  2  1  0  0  0  0
  6  9  1  0  0  0  0
  7  4  1  0  0  0  0
  7  5  1  0  0  0  0
  9  4  1  0  0  0  0
 10 15  1  0  0  0  0
 11 20  1  0  0  0  0
 12  8  1  0  0  0  0
 14 10  1  0  0  0  0
 15 13  1  0  0  0  0
 16  9  2  0  0  0  0
 18  8  1  0  0  0  0
 18 14  1  0  0  0  0
 19 13  2  0  0  0  0
 20 10  1  0  0  0  0
 20  1  1  0  0  0  0
 21 22  1  0  0  0  0
 22 23  1  0  0  0  0
 23 24  1  0  0  0  0
 26 22  1  0  0  0  0
 26 25  1  0  0  0  0
 27 26  1  0  0  0  0
 28 27  1  0  0  0  0
M  END
>  <MODEL>
7

>  <REMARK>
 VINA RESULT:      -5.4      3.130      7.916
  Name = 
  5 active torsions:
  status: ('A' for Active; 'I' for Inactive)
    1  A    between atoms: C_1  and  C_2
    2  A    between atoms: C_2  and  N_3
    3  A    between atoms: N_3  and  C_7
    4  A    between atoms: N_3  and  C_11
    5  A    between atoms: C_6  and  C_11
                            x       y       z     vdW  Elec       q    Type
                         _______ _______ _______ _____ _____    ______ ____

>  <TORSDO>
F 5

$$$$
=
 OpenBabel10262420563D

 28 31  0  0  1  0  0  0  0  0999 V2000
  189.5120  177.1700  138.6490 C   0  0  2  0  0  3  0  0  0  0  0  0
  184.8230  173.6380  136.4260 C   0  0  1  0  0  3  0  0  0  0  0  0
  189.4010  174.7710  134.9780 O   0  0  0  0  0  1  0  0  0  0  0  0
  184.3880  176.0450  136.1210 C   0  0  2  0  0  3  0  0  0  0  0  0
  186.8260  175.2350  136.6290 C   0  0  2  0  0  3  0  0  0  0  0  0
  183.4250  173.8210  136.0810 N   0  0  0  0  0  2  0  0  0  0  0  0
  185.3180  175.0310  136.8180 C   0  0  2  0  0  3  0  0  0  0  0  0
  186.3510  176.8760  134.7670 C   0  0  0  0  0  2  0  0  0  0  0  0
  183.1870  175.2070  135.9190 C   0  0  0  0  0  0  0  0  0  0  0  0
  189.2730  176.8470  136.1740 C   0  0  1  0  0  3  0  0  0  0  0  0
  187.3500  176.2100  137.6780 C   0  0  0  0  0  2  0  0  0  0  0  0
  184.8930  176.4600  134.7360 C   0  0  0  0  0  2  0  0  0  0  0  0
  189.0530  179.1610  137.2230 C   0  0  0  0  0  3  0  0  0  0  0  0
  188.6970  175.9750  135.0470 C   0  0  2  0  0  3  0  0  0  0  0  0
  188.8690  178.3170  135.9850 C   0  0  0  0  0  2  0  0  0  0  0  0
  182.0550  175.6670  135.6180 O   0  0  0  0  0  0  0  0  0  0  0  0
  184.9430  172.6900  137.6020 C   0  0  0  0  0  1  0  0  0  0  0  0
  187.1940  175.6850  135.2020 C   0  0  1  0  0  3  0  0  0  0  0  0
  189.2940  178.6430  138.4350 C   0  0  0  0  0  3  0  0  0  0  0  0
  188.8700  176.3080  137.5550 C   0  0  2  0  0  3  0  0  0  0  0  0
  189.1140  176.7580  140.0720 C   0  0  0  0  0  2  0  0  0  0  0  0
  189.6310  177.6530  141.1230 N   0  0  0  0  0  0  0  0  0  0  0  0
  190.8700  177.0990  141.6920 C   0  0  0  0  0  2  0  0  0  0  0  0
  191.9970  177.5070  140.9700 O   0  0  0  0  0  1  0  0  0  0  0  0
  188.2900  176.7570  142.9970 C   0  0  0  0  0  1  0  0  0  0  0  0
  188.6170  177.9780  142.1440 C   0  0  2  0  0  3  0  0  0  0  0  0
  187.3200  178.4980  141.5190 C   0  0  0  0  0  2  0  0  0  0  0  0
  186.2500  178.3570  142.4050 O   0  0  0  0  0  1  0  0  0  0  0  0
  1 21  1  1  0  0  0
  2  7  1  0  0  0  0
  2 17  1  1  0  0  0
  3 14  1  0  0  0  0
  4 12  1  6  0  0  0
  4  7  1  0  0  0  0
  5  7  1  0  0  0  0
  5 11  1  1  0  0  0
  6  2  1  0  0  0  0
  8 18  1  0  0  0  0
  9  6  1  0  0  0  0
  9  4  1  0  0  0  0
 10 20  1  0  0  0  0
 12  8  1  0  0  0  0
 13 19  2  0  0  0  0
 14 18  1  0  0  0  0
 14 10  1  0  0  0  0
 15 10  1  0  0  0  0
 15 13  1  0  0  0  0
 16  9  2  0  0  0  0
 18  5  1  0  0  0  0
 19  1  1  0  0  0  0
 20 11  1  0  0  0  0
 20  1  1  0  0  0  0
 21 22  1  0  0  0  0
 22 23  1  0  0  0  0
 22 26  1  0  0  0  0
 24 23  1  0  0  0  0
 26 25  1  0  0  0  0
 27 26  1  0  0  0  0
 27 28  1  0  0  0  0
M  END
>  <MODEL>
8

>  <REMARK>
 VINA RESULT:      -5.4      4.107      8.429
  Name = 
  5 active torsions:
  status: ('A' for Active; 'I' for Inactive)
    1  A    between atoms: C_1  and  C_2
    2  A    between atoms: C_2  and  N_3
    3  A    between atoms: N_3  and  C_7
    4  A    between atoms: N_3  and  C_11
    5  A    between atoms: C_6  and  C_11
                            x       y       z     vdW  Elec       q    Type
                         _______ _______ _______ _____ _____    ______ ____

>  <TORSDO>
F 5

$$$$
=
 OpenBabel10262420563D

 28 31  0  0  1  0  0  0  0  0999 V2000
  182.9630  177.7730  138.8410 C   0  0  2  0  0  3  0  0  0  0  0  0
  188.8820  177.8680  136.7500 C   0  0  1  0  0  3  0  0  0  0  0  0
  184.4050  177.5200  134.7050 O   0  0  0  0  0  1  0  0  0  0  0  0
  188.3080  175.7110  137.7960 C   0  0  2  0  0  3  0  0  0  0  0  0
  186.3880  177.3370  137.0730 C   0  0  2  0  0  3  0  0  0  0  0  0
  190.1050  177.1220  136.9830 N   0  0  0  0  0  2  0  0  0  0  0  0
  187.8200  177.1600  137.5920 C   0  0  2  0  0  3  0  0  0  0  0  0
  186.3150  174.8810  136.4840 C   0  0  0  0  0  2  0  0  0  0  0  0
  189.7620  175.8910  137.5930 C   0  0  0  0  0  0  0  0  0  0  0  0
  183.5490  176.5550  136.7280 C   0  0  1  0  0  3  0  0  0  0  0  0
  185.4110  177.3310  138.2440 C   0  0  0  0  0  2  0  0  0  0  0  0
  187.8120  174.7570  136.7050 C   0  0  0  0  0  2  0  0  0  0  0  0
  182.6910  175.2970  138.7730 C   0  0  0  0  0  3  0  0  0  0  0  0
  184.5380  176.4230  135.5590 C   0  0  2  0  0  3  0  0  0  0  0  0
  183.3240  175.1960  137.4070 C   0  0  0  0  0  2  0  0  0  0  0  0
  190.6250  175.0340  137.9160 O   0  0  0  0  0  0  0  0  0  0  0  0
  189.0530  179.2990  137.2190 C   0  0  0  0  0  1  0  0  0  0  0  0
  186.0040  176.2940  136.0080 C   0  0  1  0  0  3  0  0  0  0  0  0
  182.5720  176.4510  139.4430 C   0  0  0  0  0  3  0  0  0  0  0  0
  184.0050  177.6330  137.7240 C   0  0  2  0  0  3  0  0  0  0  0  0
  183.3590  178.7770  139.9300 C   0  0  0  0  0  2  0  0  0  0  0  0
  183.2090  178.2630  141.3030 N   0  0  0  0  0  0  0  0  0  0  0  0
  182.1460  179.0000  142.0050 C   0  0  0  0  0  2  0  0  0  0  0  0
  180.8780  178.4910  141.7010 O   0  0  0  0  0  1  0  0  0  0  0  0
  184.2820  178.6600  143.4950 C   0  0  0  0  0  1  0  0  0  0  0  0
  184.4850  178.2370  142.0450 C   0  0  2  0  0  3  0  0  0  0  0  0
  185.5340  179.1540  141.4110 C   0  0  0  0  0  2  0  0  0  0  0  0
  186.8230  178.6650  141.6410 O   0  0  0  0  0  1  0  0  0  0  0  0
  1 19  1  0  0  0  0
  1 21  1  1  0  0  0
  2  6  1  0  0  0  0
  2 17  1  1  0  0  0
  2  7  1  0  0  0  0
  3 14  1  0  0  0  0
  4 12  1  6  0  0  0
  5  7  1  0  0  0  0
  5 11  1  1  0  0  0
  6  9  1  0  0  0  0
  7  4  1  0  0  0  0
  8 12  1  0  0  0  0
  9  4  1  0  0  0  0
  9 16  2  0  0  0  0
 10 15  1  0  0  0  0
 10 20  1  0  0  0  0
 13 19  2  0  0  0  0
 14 18  1  0  0  0  0
 14 10  1  0  0  0  0
 15 13  1  0  0  0  0
 18  8  1  0  0  0  0
 18  5  1  0  0  0  0
 20 11  1  0  0  0  0
 20  1  1  0  0  0  0
 21 22  1  0  0  0  0
 22 23  1  0  0  0  0
 22 26  1  0  0  0  0
 24 23  1  0  0  0  0
 26 25  1  0  0  0  0
 27 28  1  0  0  0  0
 27 26  1  0  0  0  0
M  END
>  <MODEL>
9

>  <REMARK>
 VINA RESULT:      -5.3      3.568      6.007
  Name = 
  5 active torsions:
  status: ('A' for Active; 'I' for Inactive)
    1  A    between atoms: C_1  and  C_2
    2  A    between atoms: C_2  and  N_3
    3  A    between atoms: N_3  and  C_7
    4  A    between atoms: N_3  and  C_11
    5  A    between atoms: C_6  and  C_11
                            x       y       z     vdW  Elec       q    Type
                         _______ _______ _______ _____ _____    ______ ____

>  <TORSDO>
F 5

$$$$
