=
 OpenBabel10262419413D

 31 34  0  0  1  0  0  0  0  0999 V2000
  187.0240  178.5220  142.7660 C   0  0  2  0  0  3  0  0  0  0  0  0
  187.8870  176.2310  142.7080 C   0  0  0  0  0  2  0  0  0  0  0  0
  188.0080  177.6020  142.0540 C   0  0  2  0  0  3  0  0  0  0  0  0
  186.2250  177.6530  143.7190 C   0  0  1  0  0  3  0  0  0  0  0  0
  187.0790  176.4280  143.9730 C   0  0  0  0  0  2  0  0  0  0  0  0
  184.9720  179.1910  145.0340 O   0  0  0  0  0  0  0  0  0  0  0  0
  185.9380  178.3800  144.9930 C   0  0  0  0  0  0  0  0  0  0  0  0
  186.7770  178.1870  146.1360 N   0  0  0  0  0  2  0  0  0  0  0  0
  186.5190  178.8240  147.4190 C   0  0  0  0  0  2  0  0  0  0  0  0
  188.4760  177.3480  147.8550 C   0  0  0  0  0  1  0  0  0  0  0  0
  187.6030  178.4500  148.4160 C   0  0  0  0  0  2  0  0  0  0  0  0
  186.1180  179.2380  141.7730 C   0  0  0  0  0  2  0  0  0  0  0  0
  184.8790  178.4840  141.6230 N   0  0  0  0  0  2  0  0  0  0  0  0
  184.1500  179.0310  140.4920 C   0  0  0  0  0  3  0  0  0  0  0  0
  184.8730  178.6580  139.2090 C   0  0  0  0  0  2  0  0  0  0  0  0
  183.6230  177.9150  139.6060 C   0  0  0  0  0  2  0  0  0  0  0  0
  189.4270  178.1830  142.1310 C   0  0  2  0  0  3  0  0  0  0  0  0
  189.1520  176.3800  137.4170 C   0  0  0  0  0  1  0  0  0  0  0  0
  190.0900  178.4140  140.7670 C   0  0  2  0  0  3  0  0  0  0  0  0
  191.2510  176.5500  139.5030 C   0  0  0  0  0  2  0  0  0  0  0  0
  188.9580  178.4050  139.3150 S   0  0  0  0  0  0  0  0  0  0  0  0
  189.0500  176.6080  138.9160 C   0  0  2  0  0  3  0  0  0  0  0  0
  190.0270  175.8820  139.6340 O   0  0  0  0  0  0  0  0  0  0  0  0
  191.3750  177.6040  140.5900 C   0  0  0  0  0  2  0  0  0  0  0  0
  190.3060  177.6460  143.2330 C   0  0  0  0  0  0  0  0  0  0  0  0
  191.2610  177.9380  145.4500 C   0  0  0  0  0  3  0  0  0  0  0  0
  190.4970  178.4230  144.3820 C   0  0  0  0  0  3  0  0  0  0  0  0
  191.8400  176.6690  145.3740 C   0  0  0  0  0  3  0  0  0  0  0  0
  192.2430  174.6340  144.1490 O   0  0  0  0  0  1  0  0  0  0  0  0
  190.8900  176.3750  143.1620 C   0  0  0  0  0  3  0  0  0  0  0  0
  191.6580  175.8880  144.2290 C   0  0  0  0  0  0  0  0  0  0  0  0
  1 12  1  6  0  0  0
  1  4  1  0  0  0  0
  2  5  1  0  0  0  0
  3 17  1  1  0  0  0
  3  2  1  0  0  0  0
  3  1  1  0  0  0  0
  4  5  1  0  0  0  0
  4  7  1  1  0  0  0
  7  6  2  0  0  0  0
  7  8  1  0  0  0  0
  8  9  1  0  0  0  0
  9 11  1  0  0  0  0
 10 11  1  0  0  0  0
 13 12  1  0  0  0  0
 14 13  1  0  0  0  0
 15 16  1  0  0  0  0
 15 14  1  0  0  0  0
 16 14  1  0  0  0  0
 17 25  1  1  0  0  0
 19 17  1  1  0  0  0
 20 23  1  0  0  0  0
 20 24  1  0  0  0  0
 21 19  1  0  0  0  0
 22 18  1  6  0  0  0
 22 21  1  0  0  0  0
 22 23  1  0  0  0  0
 24 19  1  0  0  0  0
 25 27  1  0  0  0  0
 27 26  2  0  0  0  0
 28 26  1  0  0  0  0
 29 31  1  0  0  0  0
 30 25  2  0  0  0  0
 30 31  1  0  0  0  0
 31 28  2  0  0  0  0
M  END
>  <MODEL>
1

>  <REMARK>
 VINA RESULT:      -6.1      0.000      0.000
  Name = 
  9 active torsions:
  status: ('A' for Active; 'I' for Inactive)
    1  A    between atoms: C_1  and  N_24
    2  A    between atoms: C_3  and  C_15
    3  A    between atoms: C_3  and  N_24
    4  A    between atoms: C_4  and  C_27
    5  A    between atoms: C_5  and  C_27
    6  A    between atoms: C_9  and  C_23
    7  A    between atoms: C_19  and  C_21
    8  A    between atoms: C_20  and  C_27
    9  A    between atoms: N_22  and  C_23
                            x       y       z     vdW  Elec       q    Type
                         _______ _______ _______ _____ _____    ______ ____

>  <TORSDO>
F 9

$$$$
=
 OpenBabel10262419413D

 31 34  0  0  1  0  0  0  0  0999 V2000
  187.9860  177.4550  136.9820 C   0  0  2  0  0  3  0  0  0  0  0  0
  187.3800  176.7660  134.7120 C   0  0  0  0  0  2  0  0  0  0  0  0
  188.5040  176.7400  135.7410 C   0  0  2  0  0  3  0  0  0  0  0  0
  186.6300  178.0310  136.6210 C   0  0  1  0  0  3  0  0  0  0  0  0
  186.1340  177.2110  135.4480 C   0  0  0  0  0  2  0  0  0  0  0  0
  184.8160  177.0250  137.7880 O   0  0  0  0  0  0  0  0  0  0  0  0
  185.6850  177.9390  137.7760 C   0  0  0  0  0  0  0  0  0  0  0  0
  185.7440  178.9040  138.8320 N   0  0  0  0  0  2  0  0  0  0  0  0
  184.8880  178.8380  140.0070 C   0  0  0  0  0  2  0  0  0  0  0  0
  185.0780  178.3450  142.4400 C   0  0  0  0  0  1  0  0  0  0  0  0
  185.7090  179.0630  141.2650 C   0  0  0  0  0  2  0  0  0  0  0  0
  188.9490  178.5440  137.4370 C   0  0  0  0  0  2  0  0  0  0  0  0
  188.9060  178.6480  138.8900 N   0  0  0  0  0  2  0  0  0  0  0  0
  188.9920  177.3070  139.4430 C   0  0  0  0  0  3  0  0  0  0  0  0
  190.3110  177.1600  140.1810 C   0  0  0  0  0  2  0  0  0  0  0  0
  189.0360  177.3580  140.9600 C   0  0  0  0  0  2  0  0  0  0  0  0
  188.9600  175.3180  136.0990 C   0  0  2  0  0  3  0  0  0  0  0  0
  193.6380  174.2990  137.7170 C   0  0  0  0  0  1  0  0  0  0  0  0
  190.3230  174.9260  135.5150 C   0  0  2  0  0  3  0  0  0  0  0  0
  192.4080  176.3090  135.9200 C   0  0  0  0  0  2  0  0  0  0  0  0
  191.2530  173.6390  136.4460 S   0  0  0  0  0  0  0  0  0  0  0  0
  192.1960  174.7530  137.5720 C   0  0  2  0  0  3  0  0  0  0  0  0
  192.0970  176.1310  137.2740 O   0  0  0  0  0  0  0  0  0  0  0  0
  191.1510  176.1380  135.0830 C   0  0  0  0  0  2  0  0  0  0  0  0
  187.8880  174.2570  136.0990 C   0  0  0  0  0  0  0  0  0  0  0  0
  186.8430  172.3660  134.9840 C   0  0  0  0  0  3  0  0  0  0  0  0
  187.7880  173.3990  134.9980 C   0  0  0  0  0  3  0  0  0  0  0  0
  185.9890  172.1870  136.0750 C   0  0  0  0  0  3  0  0  0  0  0  0
  185.2240  172.8710  138.2540 O   0  0  0  0  0  1  0  0  0  0  0  0
  187.0280  174.0730  137.1910 C   0  0  0  0  0  3  0  0  0  0  0  0
  186.0790  173.0420  137.1770 C   0  0  0  0  0  0  0  0  0  0  0  0
  1 12  1  6  0  0  0
  2  5  1  0  0  0  0
  2  3  1  0  0  0  0
  3 17  1  1  0  0  0
  3  1  1  0  0  0  0
  4  1  1  0  0  0  0
  4  7  1  1  0  0  0
  5  4  1  0  0  0  0
  7  6  2  0  0  0  0
  7  8  1  0  0  0  0
  8  9  1  0  0  0  0
  9 11  1  0  0  0  0
 11 10  1  0  0  0  0
 12 13  1  0  0  0  0
 13 14  1  0  0  0  0
 14 15  1  0  0  0  0
 14 16  1  0  0  0  0
 15 16  1  0  0  0  0
 17 25  1  6  0  0  0
 19 17  1  1  0  0  0
 19 21  1  0  0  0  0
 20 23  1  0  0  0  0
 21 22  1  0  0  0  0
 22 18  1  6  0  0  0
 23 22  1  0  0  0  0
 24 19  1  0  0  0  0
 24 20  1  0  0  0  0
 25 30  1  0  0  0  0
 26 27  1  0  0  0  0
 26 28  2  0  0  0  0
 27 25  2  0  0  0  0
 28 31  1  0  0  0  0
 31 30  2  0  0  0  0
 31 29  1  0  0  0  0
M  END
>  <MODEL>
2

>  <REMARK>
 VINA RESULT:      -6.0      3.933      7.332
  Name = 
  9 active torsions:
  status: ('A' for Active; 'I' for Inactive)
    1  A    between atoms: C_1  and  N_24
    2  A    between atoms: C_3  and  C_15
    3  A    between atoms: C_3  and  N_24
    4  A    between atoms: C_4  and  C_27
    5  A    between atoms: C_5  and  C_27
    6  A    between atoms: C_9  and  C_23
    7  A    between atoms: C_19  and  C_21
    8  A    between atoms: C_20  and  C_27
    9  A    between atoms: N_22  and  C_23
                            x       y       z     vdW  Elec       q    Type
                         _______ _______ _______ _____ _____    ______ ____

>  <TORSDO>
F 9

$$$$
=
 OpenBabel10262419413D

 31 34  0  0  1  0  0  0  0  0999 V2000
  189.7680  177.2270  139.0240 C   0  0  2  0  0  3  0  0  0  0  0  0
  189.3840  178.2560  136.8360 C   0  0  0  0  0  2  0  0  0  0  0  0
  190.1220  177.1280  137.5460 C   0  0  2  0  0  3  0  0  0  0  0  0
  188.9580  178.4980  139.1960 C   0  0  1  0  0  3  0  0  0  0  0  0
  188.3820  178.8060  137.8290 C   0  0  0  0  0  2  0  0  0  0  0  0
  186.6800  178.5620  139.8790 O   0  0  0  0  0  0  0  0  0  0  0  0
  187.8720  178.3090  140.2050 C   0  0  0  0  0  0  0  0  0  0  0  0
  188.1910  177.8850  141.5350 N   0  0  0  0  0  2  0  0  0  0  0  0
  187.1740  177.6320  142.5450 C   0  0  0  0  0  2  0  0  0  0  0  0
  187.6750  177.4440  144.9760 C   0  0  0  0  0  1  0  0  0  0  0  0
  187.7350  176.7380  143.6380 C   0  0  0  0  0  2  0  0  0  0  0  0
  191.0190  177.2430  139.8940 C   0  0  0  0  0  2  0  0  0  0  0  0
  190.7120  176.6460  141.1880 N   0  0  0  0  0  2  0  0  0  0  0  0
  191.7620  177.0210  142.1200 C   0  0  0  0  0  3  0  0  0  0  0  0
  191.2020  178.0180  143.1210 C   0  0  0  0  0  2  0  0  0  0  0  0
  191.4060  176.5810  143.5290 C   0  0  0  0  0  2  0  0  0  0  0  0
  189.7590  175.7370  137.0060 C   0  0  2  0  0  3  0  0  0  0  0  0
  194.5760  174.3430  137.6360 C   0  0  0  0  0  1  0  0  0  0  0  0
  190.8770  175.0580  136.2060 C   0  0  2  0  0  3  0  0  0  0  0  0
  193.1190  176.1740  135.8160 C   0  0  0  0  0  2  0  0  0  0  0  0
  191.8890  173.8280  137.1290 S   0  0  0  0  0  0  0  0  0  0  0  0
  193.1960  174.9700  137.7500 C   0  0  2  0  0  3  0  0  0  0  0  0
  193.1580  176.2770  137.2130 O   0  0  0  0  0  0  0  0  0  0  0  0
  191.6770  176.0460  135.3540 C   0  0  0  0  0  2  0  0  0  0  0  0
  188.3530  175.5730  136.4850 C   0  0  0  0  0  0  0  0  0  0  0  0
  186.8250  175.6150  134.5940 C   0  0  0  0  0  3  0  0  0  0  0  0
  188.1040  175.8090  135.1280 C   0  0  0  0  0  3  0  0  0  0  0  0
  185.7830  175.1830  135.4190 C   0  0  0  0  0  3  0  0  0  0  0  0
  184.9840  174.5310  137.5960 O   0  0  0  0  0  1  0  0  0  0  0  0
  187.3040  175.1400  137.3070 C   0  0  0  0  0  3  0  0  0  0  0  0
  186.0210  174.9490  136.7760 C   0  0  0  0  0  0  0  0  0  0  0  0
  1  4  1  0  0  0  0
  1 12  1  1  0  0  0
  2  3  1  0  0  0  0
  2  5  1  0  0  0  0
  3 17  1  6  0  0  0
  3  1  1  0  0  0  0
  4  7  1  1  0  0  0
  5  4  1  0  0  0  0
  6  7  2  0  0  0  0
  7  8  1  0  0  0  0
  8  9  1  0  0  0  0
  9 11  1  0  0  0  0
 11 10  1  0  0  0  0
 12 13  1  0  0  0  0
 13 14  1  0  0  0  0
 14 15  1  0  0  0  0
 14 16  1  0  0  0  0
 15 16  1  0  0  0  0
 17 25  1  6  0  0  0
 19 17  1  1  0  0  0
 19 21  1  0  0  0  0
 20 23  1  0  0  0  0
 21 22  1  0  0  0  0
 22 18  1  6  0  0  0
 23 22  1  0  0  0  0
 24 20  1  0  0  0  0
 24 19  1  0  0  0  0
 25 30  1  0  0  0  0
 26 27  1  0  0  0  0
 26 28  2  0  0  0  0
 27 25  2  0  0  0  0
 28 31  1  0  0  0  0
 31 30  2  0  0  0  0
 31 29  1  0  0  0  0
M  END
>  <MODEL>
3

>  <REMARK>
 VINA RESULT:      -5.9      3.102      6.845
  Name = 
  9 active torsions:
  status: ('A' for Active; 'I' for Inactive)
    1  A    between atoms: C_1  and  N_24
    2  A    between atoms: C_3  and  C_15
    3  A    between atoms: C_3  and  N_24
    4  A    between atoms: C_4  and  C_27
    5  A    between atoms: C_5  and  C_27
    6  A    between atoms: C_9  and  C_23
    7  A    between atoms: C_19  and  C_21
    8  A    between atoms: C_20  and  C_27
    9  A    between atoms: N_22  and  C_23
                            x       y       z     vdW  Elec       q    Type
                         _______ _______ _______ _____ _____    ______ ____

>  <TORSDO>
F 9

$$$$
=
 OpenBabel10262419413D

 31 34  0  0  1  0  0  0  0  0999 V2000
  185.0820  177.9240  138.5300 C   0  0  2  0  0  3  0  0  0  0  0  0
  182.8680  178.4500  137.6260 C   0  0  0  0  0  2  0  0  0  0  0  0
  184.0800  177.5440  137.4470 C   0  0  2  0  0  3  0  0  0  0  0  0
  184.5240  179.1480  139.2320 C   0  0  1  0  0  3  0  0  0  0  0  0
  183.0320  179.1270  138.9710 C   0  0  0  0  0  2  0  0  0  0  0  0
  185.8360  179.6890  141.1420 O   0  0  0  0  0  0  0  0  0  0  0  0
  184.8120  179.1010  140.6980 C   0  0  0  0  0  0  0  0  0  0  0  0
  183.9560  178.3620  141.5770 N   0  0  0  0  0  2  0  0  0  0  0  0
  184.1530  178.3220  143.0180 C   0  0  0  0  0  2  0  0  0  0  0  0
  181.7540  178.9730  142.8880 C   0  0  0  0  0  1  0  0  0  0  0  0
  183.0160  179.0430  143.7210 C   0  0  0  0  0  2  0  0  0  0  0  0
  186.4580  178.2020  137.9380 C   0  0  0  0  0  2  0  0  0  0  0  0
  187.4600  177.4370  138.6700 N   0  0  0  0  0  2  0  0  0  0  0  0
  188.4570  178.3640  139.1780 C   0  0  0  0  0  3  0  0  0  0  0  0
  188.8150  177.9750  140.6010 C   0  0  0  0  0  2  0  0  0  0  0  0
  189.7580  177.6380  139.4740 C   0  0  0  0  0  2  0  0  0  0  0  0
  183.7350  176.0510  137.5450 C   0  0  2  0  0  3  0  0  0  0  0  0
  187.0460  172.3510  136.5970 C   0  0  0  0  0  1  0  0  0  0  0  0
  184.2190  175.2120  136.3550 C   0  0  2  0  0  3  0  0  0  0  0  0
  186.6560  175.1380  135.6650 C   0  0  0  0  0  2  0  0  0  0  0  0
  184.4790  173.4210  136.6910 S   0  0  0  0  0  0  0  0  0  0  0  0
  186.2500  173.4990  137.1950 C   0  0  2  0  0  3  0  0  0  0  0  0
  186.8790  174.7480  136.9920 O   0  0  0  0  0  0  0  0  0  0  0  0
  185.3410  175.8940  135.5700 C   0  0  0  0  0  2  0  0  0  0  0  0
  182.3750  175.7180  138.1050 C   0  0  0  0  0  0  0  0  0  0  0  0
  180.9260  175.5160  140.0470 C   0  0  0  0  0  3  0  0  0  0  0  0
  182.1870  175.7640  139.4910 C   0  0  0  0  0  3  0  0  0  0  0  0
  179.8440  175.2180  139.2160 C   0  0  0  0  0  3  0  0  0  0  0  0
  178.9520  174.8590  137.0070 O   0  0  0  0  0  1  0  0  0  0  0  0
  181.2850  175.4180  137.2760 C   0  0  0  0  0  3  0  0  0  0  0  0
  180.0230  175.1650  137.8310 C   0  0  0  0  0  0  0  0  0  0  0  0
  1 12  1  6  0  0  0
  1  4  1  0  0  0  0
  2  5  1  0  0  0  0
  3 17  1  1  0  0  0
  3  2  1  0  0  0  0
  3  1  1  0  0  0  0
  4  7  1  1  0  0  0
  5  4  1  0  0  0  0
  7  6  2  0  0  0  0
  7  8  1  0  0  0  0
  8  9  1  0  0  0  0
  9 11  1  0  0  0  0
 10 11  1  0  0  0  0
 12 13  1  0  0  0  0
 13 14  1  0  0  0  0
 14 16  1  0  0  0  0
 14 15  1  0  0  0  0
 16 15  1  0  0  0  0
 17 25  1  6  0  0  0
 19 21  1  0  0  0  0
 19 17  1  1  0  0  0
 20 23  1  0  0  0  0
 21 22  1  0  0  0  0
 22 18  1  6  0  0  0
 23 22  1  0  0  0  0
 24 20  1  0  0  0  0
 24 19  1  0  0  0  0
 25 27  1  0  0  0  0
 27 26  2  0  0  0  0
 28 26  1  0  0  0  0
 29 31  1  0  0  0  0
 30 31  1  0  0  0  0
 30 25  2  0  0  0  0
 31 28  2  0  0  0  0
M  END
>  <MODEL>
4

>  <REMARK>
 VINA RESULT:      -5.8      4.016      7.810
  Name = 
  9 active torsions:
  status: ('A' for Active; 'I' for Inactive)
    1  A    between atoms: C_1  and  N_24
    2  A    between atoms: C_3  and  C_15
    3  A    between atoms: C_3  and  N_24
    4  A    between atoms: C_4  and  C_27
    5  A    between atoms: C_5  and  C_27
    6  A    between atoms: C_9  and  C_23
    7  A    between atoms: C_19  and  C_21
    8  A    between atoms: C_20  and  C_27
    9  A    between atoms: N_22  and  C_23
                            x       y       z     vdW  Elec       q    Type
                         _______ _______ _______ _____ _____    ______ ____

>  <TORSDO>
F 9

$$$$
=
 OpenBabel10262419413D

 31 34  0  0  1  0  0  0  0  0999 V2000
  187.3490  176.3030  137.2540 C   0  0  2  0  0  3  0  0  0  0  0  0
  186.3410  177.6780  135.4960 C   0  0  0  0  0  2  0  0  0  0  0  0
  186.2400  176.3360  136.2100 C   0  0  2  0  0  3  0  0  0  0  0  0
  188.1870  177.5490  137.0400 C   0  0  1  0  0  3  0  0  0  0  0  0
  187.2880  178.5300  136.3150 C   0  0  0  0  0  2  0  0  0  0  0  0
  189.0690  179.3010  138.3880 O   0  0  0  0  0  0  0  0  0  0  0  0
  188.6500  178.1120  138.3450 C   0  0  0  0  0  0  0  0  0  0  0  0
  188.6560  177.2940  139.5210 N   0  0  0  0  0  2  0  0  0  0  0  0
  189.0450  177.7990  140.8290 C   0  0  0  0  0  2  0  0  0  0  0  0
  187.6740  177.2990  142.8460 C   0  0  0  0  0  1  0  0  0  0  0  0
  187.8120  178.1880  141.6270 C   0  0  0  0  0  2  0  0  0  0  0  0
  188.1910  175.0390  137.1280 C   0  0  0  0  0  2  0  0  0  0  0  0
  189.4760  175.3750  136.5270 N   0  0  0  0  0  2  0  0  0  0  0  0
  190.5250  174.7840  137.3400 C   0  0  0  0  0  3  0  0  0  0  0  0
  191.8350  174.8400  136.5730 C   0  0  0  0  0  2  0  0  0  0  0  0
  191.5780  175.8220  137.6870 C   0  0  0  0  0  2  0  0  0  0  0  0
  184.8760  176.1100  136.8780 C   0  0  2  0  0  3  0  0  0  0  0  0
  183.4220  171.2700  136.9000 C   0  0  0  0  0  1  0  0  0  0  0  0
  183.9350  175.1850  136.0970 C   0  0  2  0  0  3  0  0  0  0  0  0
  184.7600  173.0730  134.9650 C   0  0  0  0  0  2  0  0  0  0  0  0
  182.9510  174.0030  137.1090 S   0  0  0  0  0  0  0  0  0  0  0  0
  184.1380  172.5940  137.1040 C   0  0  2  0  0  3  0  0  0  0  0  0
  185.2440  172.7420  136.2370 O   0  0  0  0  0  0  0  0  0  0  0  0
  184.5980  174.5800  134.8580 C   0  0  0  0  0  2  0  0  0  0  0  0
  184.2530  177.3140  137.5400 C   0  0  0  0  0  0  0  0  0  0  0  0
  182.3620  178.8310  137.7230 C   0  0  0  0  0  3  0  0  0  0  0  0
  182.9990  177.7520  137.0990 C   0  0  0  0  0  3  0  0  0  0  0  0
  182.9800  179.4810  138.7940 C   0  0  0  0  0  3  0  0  0  0  0  0
  184.8520  179.7060  140.2940 O   0  0  0  0  0  1  0  0  0  0  0  0
  184.8680  177.9700  138.6150 C   0  0  0  0  0  3  0  0  0  0  0  0
  184.2350  179.0540  139.2380 C   0  0  0  0  0  0  0  0  0  0  0  0
  1 12  1  6  0  0  0
  2  3  1  0  0  0  0
  2  5  1  0  0  0  0
  3 17  1  1  0  0  0
  3  1  1  0  0  0  0
  4  1  1  0  0  0  0
  4  7  1  1  0  0  0
  5  4  1  0  0  0  0
  7  6  2  0  0  0  0
  7  8  1  0  0  0  0
  8  9  1  0  0  0  0
  9 11  1  0  0  0  0
 11 10  1  0  0  0  0
 13 12  1  0  0  0  0
 13 14  1  0  0  0  0
 14 16  1  0  0  0  0
 15 14  1  0  0  0  0
 15 16  1  0  0  0  0
 17 25  1  6  0  0  0
 19 17  1  1  0  0  0
 19 21  1  0  0  0  0
 20 23  1  0  0  0  0
 22 18  1  6  0  0  0
 22 21  1  0  0  0  0
 23 22  1  0  0  0  0
 24 20  1  0  0  0  0
 24 19  1  0  0  0  0
 25 30  1  0  0  0  0
 26 28  2  0  0  0  0
 27 25  2  0  0  0  0
 27 26  1  0  0  0  0
 28 31  1  0  0  0  0
 30 31  2  0  0  0  0
 31 29  1  0  0  0  0
M  END
>  <MODEL>
5

>  <REMARK>
 VINA RESULT:      -5.7      3.981      8.076
  Name = 
  9 active torsions:
  status: ('A' for Active; 'I' for Inactive)
    1  A    between atoms: C_1  and  N_24
    2  A    between atoms: C_3  and  C_15
    3  A    between atoms: C_3  and  N_24
    4  A    between atoms: C_4  and  C_27
    5  A    between atoms: C_5  and  C_27
    6  A    between atoms: C_9  and  C_23
    7  A    between atoms: C_19  and  C_21
    8  A    between atoms: C_20  and  C_27
    9  A    between atoms: N_22  and  C_23
                            x       y       z     vdW  Elec       q    Type
                         _______ _______ _______ _____ _____    ______ ____

>  <TORSDO>
F 9

$$$$
=
 OpenBabel10262419413D

 31 34  0  0  1  0  0  0  0  0999 V2000
  189.8470  176.9380  140.7110 C   0  0  2  0  0  3  0  0  0  0  0  0
  189.1710  178.4720  138.9250 C   0  0  0  0  0  2  0  0  0  0  0  0
  190.0790  177.2920  139.2470 C   0  0  2  0  0  3  0  0  0  0  0  0
  188.9300  178.0050  141.2780 C   0  0  1  0  0  3  0  0  0  0  0  0
  188.2090  178.6020  140.0870 C   0  0  0  0  0  2  0  0  0  0  0  0
  188.1470  176.2390  142.6670 O   0  0  0  0  0  0  0  0  0  0  0  0
  187.9610  177.4160  142.2510 C   0  0  0  0  0  0  0  0  0  0  0  0
  186.8160  178.1650  142.6700 N   0  0  0  0  0  2  0  0  0  0  0  0
  185.8660  177.6670  143.6540 C   0  0  0  0  0  2  0  0  0  0  0  0
  187.0840  177.6080  145.8240 C   0  0  0  0  0  1  0  0  0  0  0  0
  186.0780  178.3670  144.9860 C   0  0  0  0  0  2  0  0  0  0  0  0
  191.1610  176.8690  141.4790 C   0  0  0  0  0  2  0  0  0  0  0  0
  191.3460  178.1060  142.2270 N   0  0  0  0  0  2  0  0  0  0  0  0
  191.6960  177.7610  143.5940 C   0  0  0  0  0  3  0  0  0  0  0  0
  191.8030  179.0340  144.4150 C   0  0  0  0  0  2  0  0  0  0  0  0
  190.5830  178.1600  144.5480 C   0  0  0  0  0  2  0  0  0  0  0  0
  189.8140  176.0680  138.3580 C   0  0  2  0  0  3  0  0  0  0  0  0
  193.9780  176.0240  135.4940 C   0  0  0  0  0  1  0  0  0  0  0  0
  191.0430  175.1800  138.1220 C   0  0  2  0  0  3  0  0  0  0  0  0
  191.6180  174.2620  135.8310 C   0  0  0  0  0  2  0  0  0  0  0  0
  192.6460  176.0660  137.9360 S   0  0  0  0  0  0  0  0  0  0  0  0
  192.6140  176.2930  136.1070 C   0  0  2  0  0  3  0  0  0  0  0  0
  191.5800  175.6050  135.4330 O   0  0  0  0  0  0  0  0  0  0  0  0
  190.7870  174.0810  137.0900 C   0  0  0  0  0  2  0  0  0  0  0  0
  188.8960  176.2880  137.1810 C   0  0  0  0  0  0  0  0  0  0  0  0
  188.4540  177.4370  135.0840 C   0  0  0  0  0  3  0  0  0  0  0  0
  189.2500  177.2410  136.2190 C   0  0  0  0  0  3  0  0  0  0  0  0
  187.2950  176.6770  134.9060 C   0  0  0  0  0  3  0  0  0  0  0  0
  185.7760  174.9810  135.6920 O   0  0  0  0  0  1  0  0  0  0  0  0
  187.7320  175.5290  136.9970 C   0  0  0  0  0  3  0  0  0  0  0  0
  186.9320  175.7260  135.8640 C   0  0  0  0  0  0  0  0  0  0  0  0
  1  4  1  0  0  0  0
  1 12  1  1  0  0  0
  2  3  1  0  0  0  0
  2  5  1  0  0  0  0
  3 17  1  6  0  0  0
  3  1  1  0  0  0  0
  4  7  1  1  0  0  0
  5  4  1  0  0  0  0
  7  6  2  0  0  0  0
  7  8  1  0  0  0  0
  8  9  1  0  0  0  0
  9 11  1  0  0  0  0
 11 10  1  0  0  0  0
 12 13  1  0  0  0  0
 13 14  1  0  0  0  0
 14 15  1  0  0  0  0
 14 16  1  0  0  0  0
 15 16  1  0  0  0  0
 17 25  1  6  0  0  0
 19 17  1  6  0  0  0
 20 24  1  0  0  0  0
 21 19  1  0  0  0  0
 22 18  1  6  0  0  0
 22 21  1  0  0  0  0
 23 20  1  0  0  0  0
 23 22  1  0  0  0  0
 24 19  1  0  0  0  0
 26 27  1  0  0  0  0
 27 25  2  0  0  0  0
 28 26  2  0  0  0  0
 28 31  1  0  0  0  0
 29 31  1  0  0  0  0
 30 25  1  0  0  0  0
 31 30  2  0  0  0  0
M  END
>  <MODEL>
6

>  <REMARK>
 VINA RESULT:      -5.7      2.804      6.319
  Name = 
  9 active torsions:
  status: ('A' for Active; 'I' for Inactive)
    1  A    between atoms: C_1  and  N_24
    2  A    between atoms: C_3  and  C_15
    3  A    between atoms: C_3  and  N_24
    4  A    between atoms: C_4  and  C_27
    5  A    between atoms: C_5  and  C_27
    6  A    between atoms: C_9  and  C_23
    7  A    between atoms: C_19  and  C_21
    8  A    between atoms: C_20  and  C_27
    9  A    between atoms: N_22  and  C_23
                            x       y       z     vdW  Elec       q    Type
                         _______ _______ _______ _____ _____    ______ ____

>  <TORSDO>
F 9

$$$$
=
 OpenBabel10262419413D

 31 34  0  0  1  0  0  0  0  0999 V2000
  183.4000  177.7340  138.7250 C   0  0  2  0  0  3  0  0  0  0  0  0
  182.0160  179.6900  138.2180 C   0  0  0  0  0  2  0  0  0  0  0  0
  182.0060  178.1680  138.2900 C   0  0  2  0  0  3  0  0  0  0  0  0
  184.2580  178.9840  138.7520 C   0  0  1  0  0  3  0  0  0  0  0  0
  183.2930  180.1430  138.8950 C   0  0  0  0  0  2  0  0  0  0  0  0
  186.4100  178.5770  139.6820 O   0  0  0  0  0  0  0  0  0  0  0  0
  185.2230  178.9460  139.8930 C   0  0  0  0  0  0  0  0  0  0  0  0
  184.7880  179.2860  141.2150 N   0  0  0  0  0  2  0  0  0  0  0  0
  185.6910  179.3190  142.3560 C   0  0  0  0  0  2  0  0  0  0  0  0
  185.1910  178.7180  144.7190 C   0  0  0  0  0  1  0  0  0  0  0  0
  185.3670  178.1850  143.3130 C   0  0  0  0  0  2  0  0  0  0  0  0
  183.9740  176.6860  137.7800 C   0  0  0  0  0  2  0  0  0  0  0  0
  184.6270  177.3540  136.6610 N   0  0  0  0  0  2  0  0  0  0  0  0
  185.9450  176.7680  136.4900 C   0  0  0  0  0  3  0  0  0  0  0  0
  186.4300  177.0440  135.0770 C   0  0  0  0  0  2  0  0  0  0  0  0
  186.9790  177.8480  136.2270 C   0  0  0  0  0  2  0  0  0  0  0  0
  180.9520  177.6180  139.2620 C   0  0  2  0  0  3  0  0  0  0  0  0
  179.5320  172.9610  137.9030 C   0  0  0  0  0  1  0  0  0  0  0  0
  179.7640  176.9260  138.5800 C   0  0  2  0  0  3  0  0  0  0  0  0
  180.0450  175.5180  136.4930 C   0  0  0  0  0  2  0  0  0  0  0  0
  179.2290  175.3310  139.3280 S   0  0  0  0  0  0  0  0  0  0  0  0
  180.2960  174.2010  138.3360 C   0  0  2  0  0  3  0  0  0  0  0  0
  180.9800  174.8110  137.2600 O   0  0  0  0  0  0  0  0  0  0  0  0
  179.8810  176.9200  137.0550 C   0  0  0  0  0  2  0  0  0  0  0  0
  180.6430  178.4760  140.4630 C   0  0  0  0  0  0  0  0  0  0  0  0
  179.1690  180.0860  141.5360 C   0  0  0  0  0  3  0  0  0  0  0  0
  179.5220  179.3140  140.4220 C   0  0  0  0  0  3  0  0  0  0  0  0
  179.9400  180.0240  142.6990 C   0  0  0  0  0  3  0  0  0  0  0  0
  181.8330  179.1400  143.8990 O   0  0  0  0  0  1  0  0  0  0  0  0
  181.4120  178.4180  141.6330 C   0  0  0  0  0  3  0  0  0  0  0  0
  181.0630  179.1930  142.7480 C   0  0  0  0  0  0  0  0  0  0  0  0
  1 12  1  6  0  0  0
  1  4  1  0  0  0  0
  2  3  1  0  0  0  0
  2  5  1  0  0  0  0
  3  1  1  0  0  0  0
  3 17  1  1  0  0  0
  4  5  1  0  0  0  0
  4  7  1  1  0  0  0
  6  7  2  0  0  0  0
  7  8  1  0  0  0  0
  8  9  1  0  0  0  0
  9 11  1  0  0  0  0
 11 10  1  0  0  0  0
 13 12  1  0  0  0  0
 14 13  1  0  0  0  0
 15 16  1  0  0  0  0
 15 14  1  0  0  0  0
 16 14  1  0  0  0  0
 17 25  1  6  0  0  0
 19 17  1  1  0  0  0
 19 21  1  0  0  0  0
 20 24  1  0  0  0  0
 20 23  1  0  0  0  0
 22 18  1  6  0  0  0
 22 21  1  0  0  0  0
 23 22  1  0  0  0  0
 24 19  1  0  0  0  0
 25 30  1  0  0  0  0
 26 28  2  0  0  0  0
 27 25  2  0  0  0  0
 27 26  1  0  0  0  0
 28 31  1  0  0  0  0
 30 31  2  0  0  0  0
 31 29  1  0  0  0  0
M  END
>  <MODEL>
7

>  <REMARK>
 VINA RESULT:      -5.7      4.637      8.597
  Name = 
  9 active torsions:
  status: ('A' for Active; 'I' for Inactive)
    1  A    between atoms: C_1  and  N_24
    2  A    between atoms: C_3  and  C_15
    3  A    between atoms: C_3  and  N_24
    4  A    between atoms: C_4  and  C_27
    5  A    between atoms: C_5  and  C_27
    6  A    between atoms: C_9  and  C_23
    7  A    between atoms: C_19  and  C_21
    8  A    between atoms: C_20  and  C_27
    9  A    between atoms: N_22  and  C_23
                            x       y       z     vdW  Elec       q    Type
                         _______ _______ _______ _____ _____    ______ ____

>  <TORSDO>
F 9

$$$$
=
 OpenBabel10262419413D

 31 34  0  0  1  0  0  0  0  0999 V2000
  187.0290  177.1660  137.5940 C   0  0  2  0  0  3  0  0  0  0  0  0
  188.8540  178.6410  136.8950 C   0  0  0  0  0  2  0  0  0  0  0  0
  188.1230  178.0900  138.1130 C   0  0  2  0  0  3  0  0  0  0  0  0
  187.0200  177.3030  136.0840 C   0  0  1  0  0  3  0  0  0  0  0  0
  188.3960  177.8170  135.7100 C   0  0  0  0  0  2  0  0  0  0  0  0
  187.5940  175.5080  134.6310 O   0  0  0  0  0  0  0  0  0  0  0  0
  186.7430  175.9880  135.4290 C   0  0  0  0  0  0  0  0  0  0  0  0
  185.5090  175.3070  135.6760 N   0  0  0  0  0  2  0  0  0  0  0  0
  185.2030  174.0010  135.1110 C   0  0  0  0  0  2  0  0  0  0  0  0
  185.2440  173.3660  137.5180 C   0  0  0  0  0  1  0  0  0  0  0  0
  185.5470  172.9070  136.1070 C   0  0  0  0  0  2  0  0  0  0  0  0
  185.6740  177.5220  138.1930 C   0  0  0  0  0  2  0  0  0  0  0  0
  185.7910  178.7700  138.9380 N   0  0  0  0  0  2  0  0  0  0  0  0
  184.4850  179.0940  139.4870 C   0  0  0  0  0  3  0  0  0  0  0  0
  183.9270  177.8690  140.1910 C   0  0  0  0  0  2  0  0  0  0  0  0
  184.5060  178.9990  141.0030 C   0  0  0  0  0  2  0  0  0  0  0  0
  189.0470  177.3300  139.0760 C   0  0  2  0  0  3  0  0  0  0  0  0
  190.2510  176.3930  143.8940 C   0  0  0  0  0  1  0  0  0  0  0  0
  189.4140  178.1080  140.3460 C   0  0  2  0  0  3  0  0  0  0  0  0
  188.0950  177.8710  142.4970 C   0  0  0  0  0  2  0  0  0  0  0  0
  190.7800  177.3970  141.3540 S   0  0  0  0  0  0  0  0  0  0  0  0
  189.7660  176.3220  142.4560 C   0  0  2  0  0  3  0  0  0  0  0  0
  188.3690  176.5040  142.3540 O   0  0  0  0  0  0  0  0  0  0  0  0
  188.1850  178.5520  141.1410 C   0  0  0  0  0  2  0  0  0  0  0  0
  190.1410  176.5100  138.4390 C   0  0  0  0  0  0  0  0  0  0  0  0
  190.7940  174.4970  137.2410 C   0  0  0  0  0  3  0  0  0  0  0  0
  189.8180  175.2640  137.8900 C   0  0  0  0  0  3  0  0  0  0  0  0
  192.1020  174.9750  137.1380 C   0  0  0  0  0  3  0  0  0  0  0  0
  193.7360  176.6860  137.5940 O   0  0  0  0  0  1  0  0  0  0  0  0
  191.4560  176.9850  138.3320 C   0  0  0  0  0  3  0  0  0  0  0  0
  192.4350  176.2170  137.6870 C   0  0  0  0  0  0  0  0  0  0  0  0
  1  3  1  0  0  0  0
  1 12  1  1  0  0  0
  2  3  1  0  0  0  0
  3 17  1  1  0  0  0
  4  7  1  6  0  0  0
  4  1  1  0  0  0  0
  5  4  1  0  0  0  0
  5  2  1  0  0  0  0
  6  7  2  0  0  0  0
  7  8  1  0  0  0  0
  9  8  1  0  0  0  0
  9 11  1  0  0  0  0
 11 10  1  0  0  0  0
 12 13  1  0  0  0  0
 13 14  1  0  0  0  0
 14 15  1  0  0  0  0
 14 16  1  0  0  0  0
 15 16  1  0  0  0  0
 17 25  1  6  0  0  0
 19 17  1  6  0  0  0
 19 24  1  0  0  0  0
 19 21  1  0  0  0  0
 21 22  1  0  0  0  0
 22 18  1  1  0  0  0
 23 22  1  0  0  0  0
 23 20  1  0  0  0  0
 24 20  1  0  0  0  0
 26 27  1  0  0  0  0
 27 25  2  0  0  0  0
 28 26  2  0  0  0  0
 28 31  1  0  0  0  0
 29 31  1  0  0  0  0
 30 25  1  0  0  0  0
 31 30  2  0  0  0  0
M  END
>  <MODEL>
8

>  <REMARK>
 VINA RESULT:      -5.7      2.964      7.075
  Name = 
  9 active torsions:
  status: ('A' for Active; 'I' for Inactive)
    1  A    between atoms: C_1  and  N_24
    2  A    between atoms: C_3  and  C_15
    3  A    between atoms: C_3  and  N_24
    4  A    between atoms: C_4  and  C_27
    5  A    between atoms: C_5  and  C_27
    6  A    between atoms: C_9  and  C_23
    7  A    between atoms: C_19  and  C_21
    8  A    between atoms: C_20  and  C_27
    9  A    between atoms: N_22  and  C_23
                            x       y       z     vdW  Elec       q    Type
                         _______ _______ _______ _____ _____    ______ ____

>  <TORSDO>
F 9

$$$$
=
 OpenBabel10262419413D

 31 34  0  0  1  0  0  0  0  0999 V2000
  183.7240  177.3480  138.4760 C   0  0  2  0  0  3  0  0  0  0  0  0
  182.5700  179.4790  138.8260 C   0  0  0  0  0  2  0  0  0  0  0  0
  182.3680  177.9700  138.7850 C   0  0  2  0  0  3  0  0  0  0  0  0
  184.6730  178.4940  138.1820 C   0  0  1  0  0  3  0  0  0  0  0  0
  184.0660  179.7120  138.8480 C   0  0  0  0  0  2  0  0  0  0  0  0
  186.3600  178.6790  139.8500 O   0  0  0  0  0  0  0  0  0  0  0  0
  186.0370  178.2110  138.7240 C   0  0  0  0  0  0  0  0  0  0  0  0
  186.9750  177.4530  137.9530 N   0  0  0  0  0  2  0  0  0  0  0  0
  188.2980  177.0990  138.4470 C   0  0  0  0  0  2  0  0  0  0  0  0
  189.1360  179.0550  137.1550 C   0  0  0  0  0  1  0  0  0  0  0  0
  189.3650  177.5950  137.4870 C   0  0  0  0  0  2  0  0  0  0  0  0
  183.6360  176.3840  137.2990 C   0  0  0  0  0  2  0  0  0  0  0  0
  183.6840  175.0140  137.7960 N   0  0  0  0  0  2  0  0  0  0  0  0
  184.4060  174.2060  136.8290 C   0  0  0  0  0  3  0  0  0  0  0  0
  185.8440  174.0470  137.2930 C   0  0  0  0  0  2  0  0  0  0  0  0
  184.8730  172.9070  137.4620 C   0  0  0  0  0  2  0  0  0  0  0  0
  181.8110  177.4010  140.0980 C   0  0  2  0  0  3  0  0  0  0  0  0
  178.9320  173.5890  138.4470 C   0  0  0  0  0  1  0  0  0  0  0  0
  180.3270  177.0170  140.0410 C   0  0  2  0  0  3  0  0  0  0  0  0
  179.1590  176.4840  137.8560 C   0  0  0  0  0  2  0  0  0  0  0  0
  179.9390  175.2600  140.4310 S   0  0  0  0  0  0  0  0  0  0  0  0
  180.0530  174.5760  138.7230 C   0  0  2  0  0  3  0  0  0  0  0  0
  180.1810  175.5390  137.6970 O   0  0  0  0  0  0  0  0  0  0  0  0
  179.6200  177.5770  138.8060 C   0  0  0  0  0  2  0  0  0  0  0  0
  182.2960  178.0580  141.3660 C   0  0  0  0  0  0  0  0  0  0  0  0
  181.7720  179.3150  143.3800 C   0  0  0  0  0  3  0  0  0  0  0  0
  181.3730  178.7390  142.1680 C   0  0  0  0  0  3  0  0  0  0  0  0
  183.1020  179.2140  143.7960 C   0  0  0  0  0  3  0  0  0  0  0  0
  185.3530  178.4500  143.4070 O   0  0  0  0  0  1  0  0  0  0  0  0
  183.6290  177.9600  141.7880 C   0  0  0  0  0  3  0  0  0  0  0  0
  184.0320  178.5400  142.9990 C   0  0  0  0  0  0  0  0  0  0  0  0
  1 12  1  6  0  0  0
  1  3  1  0  0  0  0
  2  5  1  0  0  0  0
  3  2  1  0  0  0  0
  3 17  1  1  0  0  0
  4  1  1  0  0  0  0
  4  7  1  1  0  0  0
  4  5  1  0  0  0  0
  7  6  2  0  0  0  0
  8  9  1  0  0  0  0
  8  7  1  0  0  0  0
 10 11  1  0  0  0  0
 11  9  1  0  0  0  0
 12 13  1  0  0  0  0
 14 15  1  0  0  0  0
 14 16  1  0  0  0  0
 14 13  1  0  0  0  0
 15 16  1  0  0  0  0
 17 25  1  1  0  0  0
 19 17  1  6  0  0  0
 19 21  1  0  0  0  0
 20 24  1  0  0  0  0
 22 18  1  6  0  0  0
 22 21  1  0  0  0  0
 23 20  1  0  0  0  0
 23 22  1  0  0  0  0
 24 19  1  0  0  0  0
 25 30  2  0  0  0  0
 25 27  1  0  0  0  0
 26 28  1  0  0  0  0
 27 26  2  0  0  0  0
 30 31  1  0  0  0  0
 31 29  1  0  0  0  0
 31 28  2  0  0  0  0
M  END
>  <MODEL>
9

>  <REMARK>
 VINA RESULT:      -5.6      5.001      8.412
  Name = 
  9 active torsions:
  status: ('A' for Active; 'I' for Inactive)
    1  A    between atoms: C_1  and  N_24
    2  A    between atoms: C_3  and  C_15
    3  A    between atoms: C_3  and  N_24
    4  A    between atoms: C_4  and  C_27
    5  A    between atoms: C_5  and  C_27
    6  A    between atoms: C_9  and  C_23
    7  A    between atoms: C_19  and  C_21
    8  A    between atoms: C_20  and  C_27
    9  A    between atoms: N_22  and  C_23
                            x       y       z     vdW  Elec       q    Type
                         _______ _______ _______ _____ _____    ______ ____

>  <TORSDO>
F 9

$$$$
