=
 OpenBabel10262419413D

 31 33  0  0  1  0  0  0  0  0999 V2000
  185.2510  178.3750  143.9940 C   0  0  0  0  0  0  0  0  0  0  0  0
  188.3370  176.4190  142.9700 C   0  0  0  0  0  2  0  0  0  0  0  0
  187.2320  177.4440  142.9520 C   0  0  0  0  0  0  0  0  0  0  0  0
  185.1100  179.2730  142.9340 C   0  0  0  0  0  3  0  0  0  0  0  0
  188.8670  177.1470  140.7140 N   0  0  0  0  0  0  0  0  0  0  0  0
  184.3660  178.3910  145.0170 F   0  0  0  0  0  0  0  0  0  0  0  0
  188.0810  178.3850  140.7490 C   0  0  0  0  0  2  0  0  0  0  0  0
  189.4690  176.7910  142.0100 C   0  0  1  0  0  3  0  0  0  0  0  0
  186.3080  177.4620  144.0020 C   0  0  0  0  0  3  0  0  0  0  0  0
  187.0770  178.3400  141.8680 C   0  0  0  0  0  0  0  0  0  0  0  0
  186.0220  179.2580  141.8750 C   0  0  0  0  0  3  0  0  0  0  0  0
  190.2960  177.9280  142.6180 C   0  0  0  0  0  2  0  0  0  0  0  0
  191.5400  177.4480  143.0290 O   0  0  0  0  0  0  0  0  0  0  0  0
  191.6450  177.8370  144.3650 C   0  0  0  0  0  2  0  0  0  0  0  0
  191.2860  176.6750  145.2790 C   0  0  0  0  0  2  0  0  0  0  0  0
  189.0010  176.9100  146.4660 C   0  0  1  0  0  3  0  0  0  0  0  0
  191.1240  177.1190  147.7470 O   0  0  0  0  0  1  0  0  0  0  0  0
  188.4030  176.7910  147.8580 C   0  0  0  0  0  1  0  0  0  0  0  0
  189.5720  178.3150  146.2820 C   0  0  0  0  0  2  0  0  0  0  0  0
  190.5030  177.1470  146.4950 C   0  0  1  0  0  0  0  0  0  0  0  0
  189.7330  177.0300  139.5290 C   0  0  0  0  0  2  0  0  0  0  0  0
  189.0600  177.0880  138.1480 C   0  0  2  0  0  3  0  0  0  0  0  0
  189.0280  178.4500  137.5990 C   0  0  0  0  0  0  0  0  0  0  0  0
  189.0090  179.5680  137.1460 C   0  0  0  0  0  3  0  0  0  0  0  0
  187.7110  176.3770  138.0680 C   0  0  0  0  0  2  0  0  0  0  0  0
  186.8450  176.9270  136.9410 C   0  0  0  0  0  2  0  0  0  0  0  0
  185.4230  177.0780  137.3750 C   0  0  0  0  0  3  0  0  0  0  0  0
  185.0850  177.9740  138.3030 C   0  0  0  0  0  3  0  0  0  0  0  0
  183.6660  178.1300  138.7330 C   0  0  0  0  0  2  0  0  0  0  0  0
  184.5180  180.3430  138.9250 O   0  0  0  0  0  1  0  0  0  0  0  0
  183.4140  179.5450  139.2210 C   0  0  0  0  0  2  0  0  0  0  0  0
  1  9  1  0  0  0  0
  1  6  1  0  0  0  0
  3  2  1  0  0  0  0
  3  9  2  0  0  0  0
  4  1  2  0  0  0  0
  5  7  1  0  0  0  0
  5  8  1  0  0  0  0
  7 10  1  0  0  0  0
  8 12  1  1  0  0  0
  8  2  1  0  0  0  0
 10 11  2  0  0  0  0
 10  3  1  0  0  0  0
 11  4  1  0  0  0  0
 12 13  1  0  0  0  0
 13 14  1  0  0  0  0
 14 15  1  0  0  0  0
 15 20  1  0  0  0  0
 16 20  1  0  0  0  0
 16 18  1  1  0  0  0
 19 16  1  0  0  0  0
 19 20  1  0  0  0  0
 20 17  1  1  0  0  0
 21  5  1  0  0  0  0
 22 23  1  1  0  0  0
 22 21  1  0  0  0  0
 24 23  3  0  0  0  0
 25 22  1  0  0  0  0
 26 27  1  0  0  0  0
 26 25  1  0  0  0  0
 27 28  2  0  0  0  0
 28 29  1  0  0  0  0
 29 31  1  0  0  0  0
 30 31  1  0  0  0  0
M  END
>  <MODEL>
1

>  <REMARK>
 VINA RESULT:      -6.9      0.000      0.000
  Name = 
  13 active torsions:
  status: ('A' for Active; 'I' for Inactive)
    1  A    between atoms: C_1  and  C_11
    2  A    between atoms: C_1  and  C_24
    3  A    between atoms: C_3  and  C_9
    4  A    between atoms: C_5  and  O_14
    5  A    between atoms: C_5  and  C_21
    6  A    between atoms: C_6  and  C_7
    7  A    between atoms: C_6  and  C_19
    8  A    between atoms: C_7  and  C_9
    9  A    between atoms: C_9  and  C_23
   10  A    between atoms: C_10  and  O_14
   11  A    between atoms: C_10  and  C_18
   12  A    between atoms: N_15  and  C_23
   13  A    between atoms: C_18  and  C_31
                            x       y       z     vdW  Elec       q    Type
                         _______ _______ _______ _____ _____    ______ ____

>  <TORSDO>
F 13

$$$$
=
 OpenBabel10262419413D

 31 33  0  0  1  0  0  0  0  0999 V2000
  191.9990  176.1670  146.8480 C   0  0  0  0  0  0  0  0  0  0  0  0
  189.9850  176.0320  143.6360 C   0  0  0  0  0  2  0  0  0  0  0  0
  190.3890  176.3690  145.0480 C   0  0  0  0  0  0  0  0  0  0  0  0
  191.1570  176.8950  147.6900 C   0  0  0  0  0  3  0  0  0  0  0  0
  187.8120  176.9720  144.1740 N   0  0  0  0  0  0  0  0  0  0  0  0
  193.1920  175.7190  147.3060 F   0  0  0  0  0  0  0  0  0  0  0  0
  188.2240  177.6510  145.4070 C   0  0  0  0  0  2  0  0  0  0  0  0
  188.8570  176.9380  143.1380 C   0  0  1  0  0  3  0  0  0  0  0  0
  191.6150  175.9030  145.5310 C   0  0  0  0  0  3  0  0  0  0  0  0
  189.5260  177.0890  145.9080 C   0  0  0  0  0  0  0  0  0  0  0  0
  189.9250  177.3580  147.2200 C   0  0  0  0  0  3  0  0  0  0  0  0
  189.4250  178.3230  142.8160 C   0  0  0  0  0  2  0  0  0  0  0  0
  188.9070  178.7830  141.6050 O   0  0  0  0  0  0  0  0  0  0  0  0
  188.8940  177.6600  140.7760 C   0  0  0  0  0  2  0  0  0  0  0  0
  189.5640  177.9820  139.4490 C   0  0  0  0  0  2  0  0  0  0  0  0
  188.7920  177.5790  137.0150 C   0  0  1  0  0  3  0  0  0  0  0  0
  187.2030  178.4440  138.7240 O   0  0  0  0  0  1  0  0  0  0  0  0
  187.5110  177.3390  136.2320 C   0  0  0  0  0  1  0  0  0  0  0  0
  189.0000  179.0830  137.1900 C   0  0  0  0  0  2  0  0  0  0  0  0
  188.5380  178.2460  138.3580 C   0  0  1  0  0  0  0  0  0  0  0  0
  186.4530  177.3260  143.7300 C   0  0  0  0  0  2  0  0  0  0  0  0
  185.8420  178.6260  144.2790 C   0  0  2  0  0  3  0  0  0  0  0  0
  185.2720  178.4520  145.6210 C   0  0  0  0  0  0  0  0  0  0  0  0
  184.8000  178.3150  146.7230 C   0  0  0  0  0  3  0  0  0  0  0  0
  184.9010  179.3440  143.3150 C   0  0  0  0  0  2  0  0  0  0  0  0
  183.4570  178.8850  143.4830 C   0  0  0  0  0  2  0  0  0  0  0  0
  182.7890  178.7030  142.1590 C   0  0  0  0  0  3  0  0  0  0  0  0
  183.5090  178.5800  141.0440 C   0  0  0  0  0  3  0  0  0  0  0  0
  182.8450  178.3920  139.7220 C   0  0  0  0  0  2  0  0  0  0  0  0
  184.3930  180.1480  139.3030 O   0  0  0  0  0  1  0  0  0  0  0  0
  183.4200  179.3530  138.6990 C   0  0  0  0  0  2  0  0  0  0  0  0
  1  6  1  0  0  0  0
  1  4  1  0  0  0  0
  2  3  1  0  0  0  0
  3  9  1  0  0  0  0
  3 10  2  0  0  0  0
  5  7  1  0  0  0  0
  7 10  1  0  0  0  0
  8 12  1  1  0  0  0
  8  2  1  0  0  0  0
  8  5  1  0  0  0  0
  9  1  2  0  0  0  0
 10 11  1  0  0  0  0
 11  4  2  0  0  0  0
 13 12  1  0  0  0  0
 14 13  1  0  0  0  0
 15 14  1  0  0  0  0
 16 18  1  6  0  0  0
 16 19  1  0  0  0  0
 16 20  1  0  0  0  0
 19 20  1  0  0  0  0
 20 17  1  1  0  0  0
 20 15  1  0  0  0  0
 21  5  1  0  0  0  0
 21 22  1  0  0  0  0
 22 25  1  6  0  0  0
 22 23  1  0  0  0  0
 23 24  3  0  0  0  0
 25 26  1  0  0  0  0
 27 26  1  0  0  0  0
 28 27  2  0  0  0  0
 29 28  1  0  0  0  0
 31 30  1  0  0  0  0
 31 29  1  0  0  0  0
M  END
>  <MODEL>
2

>  <REMARK>
 VINA RESULT:      -6.9      2.579      6.574
  Name = 
  13 active torsions:
  status: ('A' for Active; 'I' for Inactive)
    1  A    between atoms: C_1  and  C_11
    2  A    between atoms: C_1  and  C_24
    3  A    between atoms: C_3  and  C_9
    4  A    between atoms: C_5  and  O_14
    5  A    between atoms: C_5  and  C_21
    6  A    between atoms: C_6  and  C_7
    7  A    between atoms: C_6  and  C_19
    8  A    between atoms: C_7  and  C_9
    9  A    between atoms: C_9  and  C_23
   10  A    between atoms: C_10  and  O_14
   11  A    between atoms: C_10  and  C_18
   12  A    between atoms: N_15  and  C_23
   13  A    between atoms: C_18  and  C_31
                            x       y       z     vdW  Elec       q    Type
                         _______ _______ _______ _____ _____    ______ ____

>  <TORSDO>
F 13

$$$$
=
 OpenBabel10262419413D

 31 33  0  0  1  0  0  0  0  0999 V2000
  191.5330  176.8980  145.2590 C   0  0  0  0  0  0  0  0  0  0  0  0
  189.3090  175.9640  142.3310 C   0  0  0  0  0  2  0  0  0  0  0  0
  190.0470  176.7970  143.3480 C   0  0  0  0  0  0  0  0  0  0  0  0
  191.3810  178.2850  145.3110 C   0  0  0  0  0  3  0  0  0  0  0  0
  188.1370  177.9990  141.7110 N   0  0  0  0  0  0  0  0  0  0  0  0
  192.3320  176.2700  146.1540 F   0  0  0  0  0  0  0  0  0  0  0  0
  189.0440  178.9280  142.3930 C   0  0  0  0  0  2  0  0  0  0  0  0
  188.8110  176.8120  141.1590 C   0  0  1  0  0  3  0  0  0  0  0  0
  190.8670  176.1560  144.2810 C   0  0  0  0  0  3  0  0  0  0  0  0
  189.8760  178.2000  143.4130 C   0  0  0  0  0  0  0  0  0  0  0  0
  190.5560  178.9340  144.3890 C   0  0  0  0  0  3  0  0  0  0  0  0
  189.9920  177.1630  140.2500 C   0  0  0  0  0  2  0  0  0  0  0  0
  190.4570  176.0170  139.6040 O   0  0  0  0  0  0  0  0  0  0  0  0
  189.9820  176.1300  138.2970 C   0  0  0  0  0  2  0  0  0  0  0  0
  190.3280  177.4990  137.7310 C   0  0  0  0  0  2  0  0  0  0  0  0
  187.8580  177.3190  136.9880 C   0  0  1  0  0  3  0  0  0  0  0  0
  188.9100  179.5420  137.3690 O   0  0  0  0  0  1  0  0  0  0  0  0
  186.5790  178.1400  137.0150 C   0  0  0  0  0  1  0  0  0  0  0  0
  188.6810  177.7110  135.7620 C   0  0  0  0  0  2  0  0  0  0  0  0
  189.1050  178.1780  137.1330 C   0  0  1  0  0  0  0  0  0  0  0  0
  187.1530  178.6650  140.8410 C   0  0  0  0  0  2  0  0  0  0  0  0
  185.6770  178.6130  141.2690 C   0  0  2  0  0  3  0  0  0  0  0  0
  184.7710  179.0690  140.2070 C   0  0  0  0  0  0  0  0  0  0  0  0
  184.0210  179.4410  139.3380 C   0  0  0  0  0  3  0  0  0  0  0  0
  185.3850  179.2540  142.6230 C   0  0  0  0  0  2  0  0  0  0  0  0
  185.2690  178.2140  143.7320 C   0  0  0  0  0  2  0  0  0  0  0  0
  186.3410  178.3940  144.7570 C   0  0  0  0  0  3  0  0  0  0  0  0
  186.8080  177.3530  145.4460 C   0  0  0  0  0  3  0  0  0  0  0  0
  187.8820  177.5300  146.4640 C   0  0  0  0  0  2  0  0  0  0  0  0
  188.2970  178.1310  148.7280 O   0  0  0  0  0  1  0  0  0  0  0  0
  187.3040  178.0890  147.7510 C   0  0  0  0  0  2  0  0  0  0  0  0
  1  4  1  0  0  0  0
  1  6  1  0  0  0  0
  2  3  1  0  0  0  0
  3 10  2  0  0  0  0
  3  9  1  0  0  0  0
  5  7  1  0  0  0  0
  7 10  1  0  0  0  0
  8 12  1  6  0  0  0
  8  5  1  0  0  0  0
  8  2  1  0  0  0  0
  9  1  2  0  0  0  0
 10 11  1  0  0  0  0
 11  4  2  0  0  0  0
 13 12  1  0  0  0  0
 14 13  1  0  0  0  0
 15 14  1  0  0  0  0
 16 18  1  6  0  0  0
 16 20  1  0  0  0  0
 19 16  1  0  0  0  0
 19 20  1  0  0  0  0
 20 17  1  1  0  0  0
 20 15  1  0  0  0  0
 21 22  1  0  0  0  0
 21  5  1  0  0  0  0
 22 23  1  6  0  0  0
 22 25  1  0  0  0  0
 24 23  3  0  0  0  0
 25 26  1  0  0  0  0
 26 27  1  0  0  0  0
 27 28  2  0  0  0  0
 28 29  1  0  0  0  0
 29 31  1  0  0  0  0
 31 30  1  0  0  0  0
M  END
>  <MODEL>
3

>  <REMARK>
 VINA RESULT:      -6.7      2.276      6.867
  Name = 
  13 active torsions:
  status: ('A' for Active; 'I' for Inactive)
    1  A    between atoms: C_1  and  C_11
    2  A    between atoms: C_1  and  C_24
    3  A    between atoms: C_3  and  C_9
    4  A    between atoms: C_5  and  O_14
    5  A    between atoms: C_5  and  C_21
    6  A    between atoms: C_6  and  C_7
    7  A    between atoms: C_6  and  C_19
    8  A    between atoms: C_7  and  C_9
    9  A    between atoms: C_9  and  C_23
   10  A    between atoms: C_10  and  O_14
   11  A    between atoms: C_10  and  C_18
   12  A    between atoms: N_15  and  C_23
   13  A    between atoms: C_18  and  C_31
                            x       y       z     vdW  Elec       q    Type
                         _______ _______ _______ _____ _____    ______ ____

>  <TORSDO>
F 13

$$$$
=
 OpenBabel10262419413D

 31 33  0  0  1  0  0  0  0  0999 V2000
  191.6390  176.4100  146.5560 C   0  0  0  0  0  0  0  0  0  0  0  0
  189.7730  176.0730  143.2700 C   0  0  0  0  0  2  0  0  0  0  0  0
  190.0980  176.4730  144.6860 C   0  0  0  0  0  0  0  0  0  0  0  0
  190.7250  177.1180  147.3390 C   0  0  0  0  0  3  0  0  0  0  0  0
  187.5320  176.9130  143.6890 N   0  0  0  0  0  0  0  0  0  0  0  0
  192.8320  176.0400  147.0760 F   0  0  0  0  0  0  0  0  0  0  0  0
  187.8570  177.6490  144.9150 C   0  0  0  0  0  2  0  0  0  0  0  0
  188.6220  176.9030  142.6980 C   0  0  1  0  0  3  0  0  0  0  0  0
  191.3250  176.0870  145.2330 C   0  0  0  0  0  3  0  0  0  0  0  0
  189.1640  177.1720  145.4860 C   0  0  0  0  0  0  0  0  0  0  0  0
  189.4920  177.5010  146.8050 C   0  0  0  0  0  3  0  0  0  0  0  0
  189.1300  178.3060  142.3550 C   0  0  0  0  0  2  0  0  0  0  0  0
  188.4640  178.7950  141.2310 O   0  0  0  0  0  0  0  0  0  0  0  0
  188.5700  177.7750  140.2850 C   0  0  0  0  0  2  0  0  0  0  0  0
  189.6590  178.1070  139.2750 C   0  0  0  0  0  2  0  0  0  0  0  0
  188.0210  177.5190  137.3640 C   0  0  1  0  0  3  0  0  0  0  0  0
  188.9390  179.8210  137.5840 O   0  0  0  0  0  1  0  0  0  0  0  0
  187.0530  178.2080  136.4160 C   0  0  0  0  0  1  0  0  0  0  0  0
  189.4270  177.5660  136.7680 C   0  0  0  0  0  2  0  0  0  0  0  0
  189.0680  178.4700  137.9210 C   0  0  1  0  0  0  0  0  0  0  0  0
  186.1780  177.1810  143.1780 C   0  0  0  0  0  2  0  0  0  0  0  0
  185.6370  178.6140  143.3160 C   0  0  2  0  0  3  0  0  0  0  0  0
  184.6990  178.7520  144.4370 C   0  0  0  0  0  0  0  0  0  0  0  0
  183.9230  178.8690  145.3530 C   0  0  0  0  0  3  0  0  0  0  0  0
  185.1160  179.2250  142.0180 C   0  0  0  0  0  2  0  0  0  0  0  0
  184.2010  178.2660  141.2650 C   0  0  0  0  0  2  0  0  0  0  0  0
  182.8390  178.8500  141.0800 C   0  0  0  0  0  3  0  0  0  0  0  0
  181.8970  178.6920  142.0100 C   0  0  0  0  0  3  0  0  0  0  0  0
  180.5390  179.2800  141.8300 C   0  0  0  0  0  2  0  0  0  0  0  0
  180.2680  178.7440  144.1310 O   0  0  0  0  0  1  0  0  0  0  0  0
  179.9650  179.7050  143.1690 C   0  0  0  0  0  2  0  0  0  0  0  0
  1  6  1  0  0  0  0
  1  4  1  0  0  0  0
  2  3  1  0  0  0  0
  3  9  1  0  0  0  0
  3 10  2  0  0  0  0
  5  7  1  0  0  0  0
  7 10  1  0  0  0  0
  8 12  1  1  0  0  0
  8  2  1  0  0  0  0
  8  5  1  0  0  0  0
  9  1  2  0  0  0  0
 10 11  1  0  0  0  0
 11  4  2  0  0  0  0
 13 12  1  0  0  0  0
 14 13  1  0  0  0  0
 15 14  1  0  0  0  0
 16 18  1  6  0  0  0
 16 20  1  0  0  0  0
 19 16  1  0  0  0  0
 19 20  1  0  0  0  0
 20 17  1  6  0  0  0
 20 15  1  0  0  0  0
 21 22  1  0  0  0  0
 21  5  1  0  0  0  0
 22 25  1  6  0  0  0
 22 23  1  0  0  0  0
 23 24  3  0  0  0  0
 26 25  1  0  0  0  0
 27 26  1  0  0  0  0
 27 28  2  0  0  0  0
 29 28  1  0  0  0  0
 29 31  1  0  0  0  0
 31 30  1  0  0  0  0
M  END
>  <MODEL>
4

>  <REMARK>
 VINA RESULT:      -6.7      2.929      6.557
  Name = 
  13 active torsions:
  status: ('A' for Active; 'I' for Inactive)
    1  A    between atoms: C_1  and  C_11
    2  A    between atoms: C_1  and  C_24
    3  A    between atoms: C_3  and  C_9
    4  A    between atoms: C_5  and  O_14
    5  A    between atoms: C_5  and  C_21
    6  A    between atoms: C_6  and  C_7
    7  A    between atoms: C_6  and  C_19
    8  A    between atoms: C_7  and  C_9
    9  A    between atoms: C_9  and  C_23
   10  A    between atoms: C_10  and  O_14
   11  A    between atoms: C_10  and  C_18
   12  A    between atoms: N_15  and  C_23
   13  A    between atoms: C_18  and  C_31
                            x       y       z     vdW  Elec       q    Type
                         _______ _______ _______ _____ _____    ______ ____

>  <TORSDO>
F 13

$$$$
=
 OpenBabel10262419413D

 31 33  0  0  1  0  0  0  0  0999 V2000
  191.6970  176.3800  146.1320 C   0  0  0  0  0  0  0  0  0  0  0  0
  189.8320  178.6630  143.7450 C   0  0  0  0  0  2  0  0  0  0  0  0
  190.5690  177.4630  144.2810 C   0  0  0  0  0  0  0  0  0  0  0  0
  192.0130  175.2950  145.3120 C   0  0  0  0  0  3  0  0  0  0  0  0
  190.0550  177.6530  141.5480 N   0  0  0  0  0  0  0  0  0  0  0  0
  192.0840  176.3830  147.4300 F   0  0  0  0  0  0  0  0  0  0  0  0
  190.4370  176.3170  142.0170 C   0  0  0  0  0  2  0  0  0  0  0  0
  189.1060  178.3440  142.4370 C   0  0  1  0  0  3  0  0  0  0  0  0
  190.9790  177.4620  145.6180 C   0  0  0  0  0  3  0  0  0  0  0  0
  190.9070  176.3740  143.4440 C   0  0  0  0  0  0  0  0  0  0  0  0
  191.6160  175.2910  143.9720 C   0  0  0  0  0  3  0  0  0  0  0  0
  187.8570  177.5120  142.7410 C   0  0  0  0  0  2  0  0  0  0  0  0
  186.7080  178.2470  142.4450 O   0  0  0  0  0  0  0  0  0  0  0  0
  185.7790  177.8540  143.4090 C   0  0  0  0  0  2  0  0  0  0  0  0
  185.6420  178.9310  144.4740 C   0  0  0  0  0  2  0  0  0  0  0  0
  187.2900  178.2110  146.3310 C   0  0  1  0  0  3  0  0  0  0  0  0
  184.8940  178.6290  146.8550 O   0  0  0  0  0  1  0  0  0  0  0  0
  187.4270  178.2690  147.8440 C   0  0  0  0  0  1  0  0  0  0  0  0
  186.4630  176.9850  145.9480 C   0  0  0  0  0  2  0  0  0  0  0  0
  185.8490  178.3610  145.8690 C   0  0  1  0  0  0  0  0  0  0  0  0
  189.7730  177.7150  140.1040 C   0  0  0  0  0  2  0  0  0  0  0  0
  190.2350  176.5320  139.2380 C   0  0  2  0  0  3  0  0  0  0  0  0
  191.6580  176.6200  138.8860 C   0  0  0  0  0  0  0  0  0  0  0  0
  192.8280  176.6850  138.5970 C   0  0  0  0  0  3  0  0  0  0  0  0
  189.3380  176.2300  138.0410 C   0  0  0  0  0  2  0  0  0  0  0  0
  189.0680  177.4760  137.2050 C   0  0  0  0  0  2  0  0  0  0  0  0
  187.6010  177.7180  137.0520 C   0  0  0  0  0  3  0  0  0  0  0  0
  186.8300  177.9260  138.1200 C   0  0  0  0  0  3  0  0  0  0  0  0
  185.3670  178.1740  137.9690 C   0  0  0  0  0  2  0  0  0  0  0  0
  184.8380  179.7910  139.6300 O   0  0  0  0  0  1  0  0  0  0  0  0
  184.7330  178.4360  139.3220 C   0  0  0  0  0  2  0  0  0  0  0  0
  1  6  1  0  0  0  0
  2  3  1  0  0  0  0
  3  9  2  0  0  0  0
  4  1  2  0  0  0  0
  5  7  1  0  0  0  0
  5  8  1  0  0  0  0
  7 10  1  0  0  0  0
  8 12  1  1  0  0  0
  8  2  1  0  0  0  0
  9  1  1  0  0  0  0
 10 11  2  0  0  0  0
 10  3  1  0  0  0  0
 11  4  1  0  0  0  0
 13 12  1  0  0  0  0
 13 14  1  0  0  0  0
 14 15  1  0  0  0  0
 15 20  1  0  0  0  0
 16 18  1  1  0  0  0
 19 16  1  0  0  0  0
 20 19  1  0  0  0  0
 20 16  1  0  0  0  0
 20 17  1  1  0  0  0
 21  5  1  0  0  0  0
 22 25  1  6  0  0  0
 22 21  1  0  0  0  0
 23 22  1  0  0  0  0
 24 23  3  0  0  0  0
 26 25  1  0  0  0  0
 27 26  1  0  0  0  0
 27 28  2  0  0  0  0
 29 28  1  0  0  0  0
 29 31  1  0  0  0  0
 31 30  1  0  0  0  0
M  END
>  <MODEL>
5

>  <REMARK>
 VINA RESULT:      -6.7      2.506      4.308
  Name = 
  13 active torsions:
  status: ('A' for Active; 'I' for Inactive)
    1  A    between atoms: C_1  and  C_11
    2  A    between atoms: C_1  and  C_24
    3  A    between atoms: C_3  and  C_9
    4  A    between atoms: C_5  and  O_14
    5  A    between atoms: C_5  and  C_21
    6  A    between atoms: C_6  and  C_7
    7  A    between atoms: C_6  and  C_19
    8  A    between atoms: C_7  and  C_9
    9  A    between atoms: C_9  and  C_23
   10  A    between atoms: C_10  and  O_14
   11  A    between atoms: C_10  and  C_18
   12  A    between atoms: N_15  and  C_23
   13  A    between atoms: C_18  and  C_31
                            x       y       z     vdW  Elec       q    Type
                         _______ _______ _______ _____ _____    ______ ____

>  <TORSDO>
F 13

$$$$
=
 OpenBabel10262419413D

 31 33  0  0  1  0  0  0  0  0999 V2000
  192.3720  175.6300  146.5950 C   0  0  0  0  0  0  0  0  0  0  0  0
  190.4160  178.3090  144.7550 C   0  0  0  0  0  2  0  0  0  0  0  0
  191.0910  176.9960  145.0580 C   0  0  0  0  0  0  0  0  0  0  0  0
  192.4310  174.6070  145.6460 C   0  0  0  0  0  3  0  0  0  0  0  0
  190.1740  177.5080  142.4750 N   0  0  0  0  0  0  0  0  0  0  0  0
  192.9580  175.4650  147.8040 F   0  0  0  0  0  0  0  0  0  0  0  0
  190.4740  176.1020  142.7600 C   0  0  0  0  0  2  0  0  0  0  0  0
  189.4610  178.1940  143.5660 C   0  0  1  0  0  3  0  0  0  0  0  0
  191.7060  176.8220  146.3010 C   0  0  0  0  0  3  0  0  0  0  0  0
  191.1690  175.9690  144.0880 C   0  0  0  0  0  0  0  0  0  0  0  0
  191.8280  174.7760  144.3960 C   0  0  0  0  0  3  0  0  0  0  0  0
  188.1910  177.4590  144.0050 C   0  0  0  0  0  2  0  0  0  0  0  0
  188.1450  177.3730  145.3970 O   0  0  0  0  0  0  0  0  0  0  0  0
  186.8910  177.8790  145.7420 C   0  0  0  0  0  2  0  0  0  0  0  0
  185.9190  177.7030  144.5840 C   0  0  0  0  0  2  0  0  0  0  0  0
  183.7310  178.6290  143.5660 C   0  0  1  0  0  3  0  0  0  0  0  0
  184.1900  178.8510  146.0020 O   0  0  0  0  0  1  0  0  0  0  0  0
  182.3240  179.0100  143.9980 C   0  0  0  0  0  1  0  0  0  0  0  0
  184.6670  179.8130  143.8030 C   0  0  0  0  0  2  0  0  0  0  0  0
  184.7150  178.6200  144.7260 C   0  0  1  0  0  0  0  0  0  0  0  0
  189.6740  177.7420  141.1100 C   0  0  0  0  0  2  0  0  0  0  0  0
  190.3990  177.0280  139.9570 C   0  0  2  0  0  3  0  0  0  0  0  0
  191.8450  177.2840  139.9620 C   0  0  0  0  0  0  0  0  0  0  0  0
  193.0340  177.4900  139.9600 C   0  0  0  0  0  3  0  0  0  0  0  0
  189.7600  177.2260  138.5850 C   0  0  0  0  0  2  0  0  0  0  0  0
  188.9590  178.5210  138.5110 C   0  0  0  0  0  2  0  0  0  0  0  0
  187.6250  178.2970  137.8760 C   0  0  0  0  0  3  0  0  0  0  0  0
  186.5270  178.1750  138.6210 C   0  0  0  0  0  3  0  0  0  0  0  0
  185.1940  177.9580  137.9870 C   0  0  0  0  0  2  0  0  0  0  0  0
  184.5960  179.8960  139.2300 O   0  0  0  0  0  1  0  0  0  0  0  0
  184.1110  178.6710  138.7760 C   0  0  0  0  0  2  0  0  0  0  0  0
  1  6  1  0  0  0  0
  2  3  1  0  0  0  0
  3  9  2  0  0  0  0
  4  1  2  0  0  0  0
  5  7  1  0  0  0  0
  5  8  1  0  0  0  0
  7 10  1  0  0  0  0
  8 12  1  1  0  0  0
  8  2  1  0  0  0  0
  9  1  1  0  0  0  0
 10 11  2  0  0  0  0
 10  3  1  0  0  0  0
 11  4  1  0  0  0  0
 12 13  1  0  0  0  0
 13 14  1  0  0  0  0
 15 20  1  0  0  0  0
 15 14  1  0  0  0  0
 16 19  1  0  0  0  0
 16 18  1  1  0  0  0
 16 20  1  0  0  0  0
 19 20  1  0  0  0  0
 20 17  1  1  0  0  0
 21  5  1  0  0  0  0
 22 25  1  6  0  0  0
 22 23  1  0  0  0  0
 22 21  1  0  0  0  0
 24 23  3  0  0  0  0
 26 25  1  0  0  0  0
 27 26  1  0  0  0  0
 27 28  2  0  0  0  0
 29 28  1  0  0  0  0
 29 31  1  0  0  0  0
 31 30  1  0  0  0  0
M  END
>  <MODEL>
6

>  <REMARK>
 VINA RESULT:      -6.6      2.725      5.062
  Name = 
  13 active torsions:
  status: ('A' for Active; 'I' for Inactive)
    1  A    between atoms: C_1  and  C_11
    2  A    between atoms: C_1  and  C_24
    3  A    between atoms: C_3  and  C_9
    4  A    between atoms: C_5  and  O_14
    5  A    between atoms: C_5  and  C_21
    6  A    between atoms: C_6  and  C_7
    7  A    between atoms: C_6  and  C_19
    8  A    between atoms: C_7  and  C_9
    9  A    between atoms: C_9  and  C_23
   10  A    between atoms: C_10  and  O_14
   11  A    between atoms: C_10  and  C_18
   12  A    between atoms: N_15  and  C_23
   13  A    between atoms: C_18  and  C_31
                            x       y       z     vdW  Elec       q    Type
                         _______ _______ _______ _____ _____    ______ ____

>  <TORSDO>
F 13

$$$$
=
 OpenBabel10262419413D

 31 33  0  0  1  0  0  0  0  0999 V2000
  185.6350  178.4060  146.5900 C   0  0  0  0  0  0  0  0  0  0  0  0
  184.8500  179.7290  143.1220 C   0  0  0  0  0  2  0  0  0  0  0  0
  185.4470  178.8910  144.2230 C   0  0  0  0  0  0  0  0  0  0  0  0
  186.5840  177.4180  146.3180 C   0  0  0  0  0  3  0  0  0  0  0  0
  186.4390  178.6600  141.6270 N   0  0  0  0  0  0  0  0  0  0  0  0
  185.2590  178.6490  147.8670 F   0  0  0  0  0  0  0  0  0  0  0  0
  186.8140  177.5710  142.5340 C   0  0  0  0  0  2  0  0  0  0  0  0
  185.0310  179.0750  141.7510 C   0  0  1  0  0  3  0  0  0  0  0  0
  185.0700  179.1420  145.5450 C   0  0  0  0  0  3  0  0  0  0  0  0
  186.4240  177.9040  143.9480 C   0  0  0  0  0  0  0  0  0  0  0  0
  186.9750  177.1660  145.0000 C   0  0  0  0  0  3  0  0  0  0  0  0
  184.0500  177.9080  141.6130 C   0  0  0  0  0  2  0  0  0  0  0  0
  183.3800  177.9880  140.3910 O   0  0  0  0  0  0  0  0  0  0  0  0
  182.0260  177.9290  140.7250 C   0  0  0  0  0  2  0  0  0  0  0  0
  181.4440  179.3330  140.8020 C   0  0  0  0  0  2  0  0  0  0  0  0
  180.3420  178.3040  142.9010 C   0  0  1  0  0  3  0  0  0  0  0  0
  179.9970  180.7020  142.3330 O   0  0  0  0  0  1  0  0  0  0  0  0
  179.7660  178.7420  144.2380 C   0  0  0  0  0  1  0  0  0  0  0  0
  179.2630  178.4240  141.8260 C   0  0  0  0  0  2  0  0  0  0  0  0
  180.3820  179.4350  141.8850 C   0  0  1  0  0  0  0  0  0  0  0  0
  186.9630  178.5000  140.2610 C   0  0  0  0  0  2  0  0  0  0  0  0
  188.4870  178.3850  140.0930 C   0  0  2  0  0  3  0  0  0  0  0  0
  188.9190  178.6440  138.7140 C   0  0  0  0  0  0  0  0  0  0  0  0
  189.2680  178.8630  137.5800 C   0  0  0  0  0  3  0  0  0  0  0  0
  189.0990  177.1190  140.6860 C   0  0  0  0  0  2  0  0  0  0  0  0
  190.5510  177.3280  141.0990 C   0  0  0  0  0  2  0  0  0  0  0  0
  190.6520  177.7340  142.5340 C   0  0  0  0  0  3  0  0  0  0  0  0
  190.4490  176.8480  143.5090 C   0  0  0  0  0  3  0  0  0  0  0  0
  190.5560  177.2510  144.9410 C   0  0  0  0  0  2  0  0  0  0  0  0
  191.7980  176.9220  146.9420 O   0  0  0  0  0  1  0  0  0  0  0  0
  191.6980  176.5130  145.6140 C   0  0  0  0  0  2  0  0  0  0  0  0
  1  6  1  0  0  0  0
  2  3  1  0  0  0  0
  3  9  1  0  0  0  0
  4  1  1  0  0  0  0
  5  8  1  0  0  0  0
  5  7  1  0  0  0  0
  7 10  1  0  0  0  0
  8 12  1  1  0  0  0
  8  2  1  0  0  0  0
  9  1  2  0  0  0  0
 10  3  2  0  0  0  0
 10 11  1  0  0  0  0
 11  4  2  0  0  0  0
 13 14  1  0  0  0  0
 13 12  1  0  0  0  0
 14 15  1  0  0  0  0
 15 20  1  0  0  0  0
 16 18  1  1  0  0  0
 19 20  1  0  0  0  0
 19 16  1  0  0  0  0
 20 17  1  1  0  0  0
 20 16  1  0  0  0  0
 21  5  1  0  0  0  0
 22 23  1  6  0  0  0
 22 21  1  0  0  0  0
 22 25  1  0  0  0  0
 24 23  3  0  0  0  0
 25 26  1  0  0  0  0
 26 27  1  0  0  0  0
 27 28  2  0  0  0  0
 28 29  1  0  0  0  0
 29 31  1  0  0  0  0
 31 30  1  0  0  0  0
M  END
>  <MODEL>
7

>  <REMARK>
 VINA RESULT:      -6.5      2.565      7.138
  Name = 
  13 active torsions:
  status: ('A' for Active; 'I' for Inactive)
    1  A    between atoms: C_1  and  C_11
    2  A    between atoms: C_1  and  C_24
    3  A    between atoms: C_3  and  C_9
    4  A    between atoms: C_5  and  O_14
    5  A    between atoms: C_5  and  C_21
    6  A    between atoms: C_6  and  C_7
    7  A    between atoms: C_6  and  C_19
    8  A    between atoms: C_7  and  C_9
    9  A    between atoms: C_9  and  C_23
   10  A    between atoms: C_10  and  O_14
   11  A    between atoms: C_10  and  C_18
   12  A    between atoms: N_15  and  C_23
   13  A    between atoms: C_18  and  C_31
                            x       y       z     vdW  Elec       q    Type
                         _______ _______ _______ _____ _____    ______ ____

>  <TORSDO>
F 13

$$$$
=
 OpenBabel10262419413D

 31 33  0  0  1  0  0  0  0  0999 V2000
  185.4000  178.2620  143.9890 C   0  0  0  0  0  0  0  0  0  0  0  0
  188.5580  176.4050  143.0020 C   0  0  0  0  0  2  0  0  0  0  0  0
  187.4160  177.3880  142.9670 C   0  0  0  0  0  0  0  0  0  0  0  0
  185.2290  179.1380  142.9150 C   0  0  0  0  0  3  0  0  0  0  0  0
  189.0670  177.1170  140.7370 N   0  0  0  0  0  0  0  0  0  0  0  0
  184.5130  178.2620  145.0110 F   0  0  0  0  0  0  0  0  0  0  0  0
  188.2360  178.3250  140.7500 C   0  0  0  0  0  2  0  0  0  0  0  0
  189.6780  176.8030  142.0390 C   0  0  1  0  0  3  0  0  0  0  0  0
  186.4900  177.3890  144.0130 C   0  0  0  0  0  3  0  0  0  0  0  0
  187.2310  178.2610  141.8680 C   0  0  0  0  0  0  0  0  0  0  0  0
  186.1440  179.1390  141.8590 C   0  0  0  0  0  3  0  0  0  0  0  0
  190.4610  177.9790  142.6310 C   0  0  0  0  0  2  0  0  0  0  0  0
  191.6490  177.5230  143.2030 O   0  0  0  0  0  0  0  0  0  0  0  0
  191.6470  178.0550  144.4930 C   0  0  0  0  0  2  0  0  0  0  0  0
  191.1890  177.0040  145.4930 C   0  0  0  0  0  2  0  0  0  0  0  0
  189.9610  177.3070  147.7470 C   0  0  1  0  0  3  0  0  0  0  0  0
  189.1860  178.5050  145.7090 O   0  0  0  0  0  1  0  0  0  0  0  0
  189.0430  178.3000  148.4400 C   0  0  0  0  0  1  0  0  0  0  0  0
  189.1220  176.3620  146.8880 C   0  0  0  0  0  2  0  0  0  0  0  0
  189.9380  177.4500  146.2330 C   0  0  1  0  0  0  0  0  0  0  0  0
  189.9400  177.0130  139.5550 C   0  0  0  0  0  2  0  0  0  0  0  0
  189.2630  176.8800  138.1810 C   0  0  2  0  0  3  0  0  0  0  0  0
  189.5940  175.6130  137.5160 C   0  0  0  0  0  0  0  0  0  0  0  0
  189.8590  174.5720  136.9680 C   0  0  0  0  0  3  0  0  0  0  0  0
  189.4240  178.0950  137.2720 C   0  0  0  0  0  2  0  0  0  0  0  0
  188.0770  178.6860  136.8690 C   0  0  0  0  0  2  0  0  0  0  0  0
  186.9460  177.8740  137.4110 C   0  0  0  0  0  3  0  0  0  0  0  0
  185.9470  177.4830  136.6200 C   0  0  0  0  0  3  0  0  0  0  0  0
  184.8200  176.6680  137.1580 C   0  0  0  0  0  2  0  0  0  0  0  0
  185.8200  174.5120  137.2600 O   0  0  0  0  0  1  0  0  0  0  0  0
  184.8620  175.2640  136.5830 C   0  0  0  0  0  2  0  0  0  0  0  0
  1  9  1  0  0  0  0
  1  6  1  0  0  0  0
  3  2  1  0  0  0  0
  3  9  2  0  0  0  0
  4  1  2  0  0  0  0
  5  7  1  0  0  0  0
  5  8  1  0  0  0  0
  7 10  1  0  0  0  0
  8 12  1  1  0  0  0
  8  2  1  0  0  0  0
 10  3  1  0  0  0  0
 11 10  2  0  0  0  0
 11  4  1  0  0  0  0
 12 13  1  0  0  0  0
 13 14  1  0  0  0  0
 14 15  1  0  0  0  0
 15 20  1  0  0  0  0
 16 18  1  1  0  0  0
 19 16  1  0  0  0  0
 20 17  1  6  0  0  0
 20 19  1  0  0  0  0
 20 16  1  0  0  0  0
 21  5  1  0  0  0  0
 22 25  1  6  0  0  0
 22 21  1  0  0  0  0
 23 22  1  0  0  0  0
 24 23  3  0  0  0  0
 26 25  1  0  0  0  0
 26 27  1  0  0  0  0
 28 29  1  0  0  0  0
 28 27  2  0  0  0  0
 31 29  1  0  0  0  0
 31 30  1  0  0  0  0
M  END
>  <MODEL>
8

>  <REMARK>
 VINA RESULT:      -6.5      1.633      2.163
  Name = 
  13 active torsions:
  status: ('A' for Active; 'I' for Inactive)
    1  A    between atoms: C_1  and  C_11
    2  A    between atoms: C_1  and  C_24
    3  A    between atoms: C_3  and  C_9
    4  A    between atoms: C_5  and  O_14
    5  A    between atoms: C_5  and  C_21
    6  A    between atoms: C_6  and  C_7
    7  A    between atoms: C_6  and  C_19
    8  A    between atoms: C_7  and  C_9
    9  A    between atoms: C_9  and  C_23
   10  A    between atoms: C_10  and  O_14
   11  A    between atoms: C_10  and  C_18
   12  A    between atoms: N_15  and  C_23
   13  A    between atoms: C_18  and  C_31
                            x       y       z     vdW  Elec       q    Type
                         _______ _______ _______ _____ _____    ______ ____

>  <TORSDO>
F 13

$$$$
=
 OpenBabel10262419413D

 31 33  0  0  1  0  0  0  0  0999 V2000
  191.6140  176.7930  146.0970 C   0  0  0  0  0  0  0  0  0  0  0  0
  189.6710  178.6860  143.4450 C   0  0  0  0  0  2  0  0  0  0  0  0
  190.4090  177.5740  144.1450 C   0  0  0  0  0  0  0  0  0  0  0  0
  191.8570  175.5720  145.4660 C   0  0  0  0  0  3  0  0  0  0  0  0
  189.7460  177.3010  141.4510 N   0  0  0  0  0  0  0  0  0  0  0  0
  192.0730  177.0090  147.3520 F   0  0  0  0  0  0  0  0  0  0  0  0
  190.1220  176.0550  142.1270 C   0  0  0  0  0  2  0  0  0  0  0  0
  188.8660  178.1680  142.2520 C   0  0  1  0  0  3  0  0  0  0  0  0
  190.8940  177.7920  145.4380 C   0  0  0  0  0  3  0  0  0  0  0  0
  190.6730  176.3440  143.4970 C   0  0  0  0  0  0  0  0  0  0  0  0
  191.3850  175.3470  144.1690 C   0  0  0  0  0  3  0  0  0  0  0  0
  187.6160  177.4430  142.7620 C   0  0  0  0  0  2  0  0  0  0  0  0
  186.4970  178.2660  142.6270 O   0  0  0  0  0  0  0  0  0  0  0  0
  185.6370  177.8640  143.6500 C   0  0  0  0  0  2  0  0  0  0  0  0
  185.5400  178.9510  144.7090 C   0  0  0  0  0  2  0  0  0  0  0  0
  187.3880  178.2110  146.3580 C   0  0  1  0  0  3  0  0  0  0  0  0
  185.1050  178.7670  147.1780 O   0  0  0  0  0  1  0  0  0  0  0  0
  187.7290  178.3120  147.8360 C   0  0  0  0  0  1  0  0  0  0  0  0
  186.4610  177.0160  146.1370 C   0  0  0  0  0  2  0  0  0  0  0  0
  185.9060  178.4180  146.0860 C   0  0  1  0  0  0  0  0  0  0  0  0
  189.3840  177.1200  140.0350 C   0  0  0  0  0  2  0  0  0  0  0  0
  190.3520  177.6770  138.9780 C   0  0  2  0  0  3  0  0  0  0  0  0
  189.6550  178.1430  137.7720 C   0  0  0  0  0  0  0  0  0  0  0  0
  189.0880  178.5250  136.7780 C   0  0  0  0  0  3  0  0  0  0  0  0
  191.5450  176.7760  138.6710 C   0  0  0  0  0  2  0  0  0  0  0  0
  191.1420  175.5580  137.8470 C   0  0  0  0  0  2  0  0  0  0  0  0
  192.2910  174.6190  137.6710 C   0  0  0  0  0  3  0  0  0  0  0  0
  193.5430  175.0290  137.8710 C   0  0  0  0  0  3  0  0  0  0  0  0
  194.6900  174.0910  137.7010 C   0  0  0  0  0  2  0  0  0  0  0  0
  195.3830  175.3780  139.5770 O   0  0  0  0  0  1  0  0  0  0  0  0
  195.6400  174.1990  138.8790 C   0  0  0  0  0  2  0  0  0  0  0  0
  1  6  1  0  0  0  0
  2  3  1  0  0  0  0
  3  9  1  0  0  0  0
  4  1  1  0  0  0  0
  5  7  1  0  0  0  0
  5  8  1  0  0  0  0
  7 10  1  0  0  0  0
  8 12  1  1  0  0  0
  8  2  1  0  0  0  0
  9  1  2  0  0  0  0
 10  3  2  0  0  0  0
 10 11  1  0  0  0  0
 11  4  2  0  0  0  0
 13 12  1  0  0  0  0
 13 14  1  0  0  0  0
 14 15  1  0  0  0  0
 15 20  1  0  0  0  0
 16 18  1  1  0  0  0
 19 16  1  0  0  0  0
 20 19  1  0  0  0  0
 20 16  1  0  0  0  0
 20 17  1  1  0  0  0
 21  5  1  0  0  0  0
 22 23  1  6  0  0  0
 22 21  1  0  0  0  0
 24 23  3  0  0  0  0
 25 22  1  0  0  0  0
 26 25  1  0  0  0  0
 27 26  1  0  0  0  0
 27 28  2  0  0  0  0
 29 28  1  0  0  0  0
 29 31  1  0  0  0  0
 31 30  1  0  0  0  0
M  END
>  <MODEL>
9

>  <REMARK>
 VINA RESULT:      -6.4      3.242      6.038
  Name = 
  13 active torsions:
  status: ('A' for Active; 'I' for Inactive)
    1  A    between atoms: C_1  and  C_11
    2  A    between atoms: C_1  and  C_24
    3  A    between atoms: C_3  and  C_9
    4  A    between atoms: C_5  and  O_14
    5  A    between atoms: C_5  and  C_21
    6  A    between atoms: C_6  and  C_7
    7  A    between atoms: C_6  and  C_19
    8  A    between atoms: C_7  and  C_9
    9  A    between atoms: C_9  and  C_23
   10  A    between atoms: C_10  and  O_14
   11  A    between atoms: C_10  and  C_18
   12  A    between atoms: N_15  and  C_23
   13  A    between atoms: C_18  and  C_31
                            x       y       z     vdW  Elec       q    Type
                         _______ _______ _______ _____ _____    ______ ____

>  <TORSDO>
F 13

$$$$
