=
 OpenBabel10262419473D

 25 27  0  0  1  0  0  0  0  0999 V2000
  187.3690  178.1570  144.7230 N   0  0  1  0  0  0  0  0  0  0  0  0
  186.0990  176.8350  146.2350 O   0  0  0  0  0  1  0  0  0  0  0  0
  185.6490  179.1550  146.0740 N   0  0  0  0  0  0  0  0  0  0  0  0
  185.0050  179.0490  147.2610 O   0  0  0  0  0  1  0  0  0  0  0  0
  186.4370  177.9450  143.6050 C   0  0  0  0  0  2  0  0  0  0  0  0
  184.6550  178.9430  145.0210 C   0  0  0  0  0  2  0  0  0  0  0  0
  185.3230  178.9880  143.6500 C   0  0  2  0  0  3  0  0  0  0  0  0
  186.6690  178.0980  146.0150 C   0  0  2  0  0  3  0  0  0  0  0  0
  188.5410  177.2620  144.7230 C   0  0  2  0  0  3  0  0  0  0  0  0
  188.8450  176.9480  142.0970 C   0  0  0  0  0  1  0  0  0  0  0  0
  189.5420  177.7440  145.7670 C   0  0  2  0  0  3  0  0  0  0  0  0
  191.4220  176.7490  146.9950 C   0  0  0  0  0  0  0  0  0  0  0  0
  190.8200  177.5840  145.0410 C   0  0  0  0  0  0  0  0  0  0  0  0
  191.8160  177.0710  145.6750 N   0  0  0  0  0  0  0  0  0  0  0  0
  192.2580  176.5120  147.9050 O   0  0  0  0  0  0  0  0  0  0  0  0
  189.3760  177.2640  143.4510 C   0  0  2  0  0  3  0  0  0  0  0  0
  190.6440  177.4110  143.6490 N   0  0  0  0  0  2  0  0  0  0  0  0
  189.6550  176.7030  147.2600 S   0  0  0  0  0  0  0  0  0  0  0  0
  184.3090  178.7090  142.5960 C   0  0  0  0  0  3  0  0  0  0  0  0
  184.6670  178.5900  141.3210 C   0  0  0  0  0  3  0  0  0  0  0  0
  183.7230  178.3120  140.2240 C   0  0  0  0  0  0  0  0  0  0  0  0
  183.0440  177.2150  140.2790 N   0  0  0  0  0  2  0  0  0  0  0  0
  183.5140  179.2180  139.0740 C   0  0  0  0  0  0  0  0  0  0  0  0
  184.2680  180.3800  138.9650 O   0  0  0  0  0  1  0  0  0  0  0  0
  182.6630  178.9560  138.1820 O   0  0  0  0  0  0  0  0  0  0  0  0
  1  5  1  6  0  0  0
  1  8  1  0  0  0  0
  3  4  1  0  0  0  0
  5  7  1  0  0  0  0
  6  3  1  0  0  0  0
  7 19  1  6  0  0  0
  7  6  1  0  0  0  0
  8  3  1  0  0  0  0
  8  2  1  6  0  0  0
  9  1  1  6  0  0  0
  9 11  1  0  0  0  0
 11 13  1  6  0  0  0
 11 18  1  0  0  0  0
 12 18  1  0  0  0  0
 12 15  2  0  0  0  0
 13 14  2  0  0  0  0
 14 12  1  0  0  0  0
 16 10  1  1  0  0  0
 16 17  1  0  0  0  0
 16  9  1  0  0  0  0
 17 13  1  0  0  0  0
 20 19  2  0  0  0  0
 21 22  2  0  0  0  0
 21 20  1  0  0  0  0
 23 21  1  0  0  0  0
 24 23  1  0  0  0  0
 25 23  2  0  0  0  0
M  END
>  <MODEL>
1

>  <REMARK>
 VINA RESULT:      -8.2      0.000      0.000
  Name = 
  4 active torsions:
  status: ('A' for Active; 'I' for Inactive)
    1  A    between atoms: C_1  and  N_3
    2  A    between atoms: C_2  and  CA_21
    3  A    between atoms: C_6  and  C_23
    4  A    between atoms: C_15  and  CA_21
                            x       y       z     vdW  Elec       q    Type
                         _______ _______ _______ _____ _____    ______ ____

>  <TORSDO>
F 4

$$$$
=
 OpenBabel10262419473D

 25 27  0  0  1  0  0  0  0  0999 V2000
  187.2410  178.2480  144.6420 N   0  0  1  0  0  0  0  0  0  0  0  0
  186.2510  177.0460  146.4370 O   0  0  0  0  0  1  0  0  0  0  0  0
  185.7400  179.3430  146.1690 N   0  0  0  0  0  0  0  0  0  0  0  0
  185.2950  179.3300  147.4480 O   0  0  0  0  0  1  0  0  0  0  0  0
  186.1460  177.9420  143.7080 C   0  0  0  0  0  2  0  0  0  0  0  0
  184.5950  179.0430  145.3080 C   0  0  0  0  0  2  0  0  0  0  0  0
  185.0360  178.9810  143.8480 C   0  0  2  0  0  3  0  0  0  0  0  0
  186.7560  178.2900  146.0300 C   0  0  2  0  0  3  0  0  0  0  0  0
  188.4130  177.3620  144.5250 C   0  0  2  0  0  3  0  0  0  0  0  0
  188.5750  177.2060  141.8730 C   0  0  0  0  0  1  0  0  0  0  0  0
  189.4680  177.7860  145.5410 C   0  0  2  0  0  3  0  0  0  0  0  0
  191.4150  176.7300  146.6030 C   0  0  0  0  0  0  0  0  0  0  0  0
  190.7050  177.6770  144.7390 C   0  0  0  0  0  0  0  0  0  0  0  0
  191.7360  177.1330  145.2860 N   0  0  0  0  0  0  0  0  0  0  0  0
  192.3000  176.4440  147.4510 O   0  0  0  0  0  0  0  0  0  0  0  0
  189.1780  177.4450  143.2130 C   0  0  2  0  0  3  0  0  0  0  0  0
  190.4550  177.5860  143.3510 N   0  0  0  0  0  2  0  0  0  0  0  0
  189.6650  176.6580  146.9610 S   0  0  0  0  0  0  0  0  0  0  0  0
  183.8720  178.6120  142.9950 C   0  0  0  0  0  3  0  0  0  0  0  0
  182.6470  179.0330  143.2950 C   0  0  0  0  0  3  0  0  0  0  0  0
  181.4490  178.7110  142.4990 C   0  0  0  0  0  0  0  0  0  0  0  0
  181.5640  178.7140  141.2120 N   0  0  0  0  0  2  0  0  0  0  0  0
  180.1350  178.3860  143.0920 C   0  0  0  0  0  0  0  0  0  0  0  0
  179.1040  177.9290  142.2790 O   0  0  0  0  0  0  0  0  0  0  0  0
  179.9270  178.5140  144.3280 O   0  0  0  0  0  1  0  0  0  0  0  0
  1  5  1  6  0  0  0
  1  8  1  0  0  0  0
  3  4  1  0  0  0  0
  5  7  1  0  0  0  0
  6  3  1  0  0  0  0
  7 19  1  6  0  0  0
  7  6  1  0  0  0  0
  8  3  1  0  0  0  0
  8  2  1  6  0  0  0
  9  1  1  6  0  0  0
  9 11  1  0  0  0  0
 11 13  1  6  0  0  0
 11 18  1  0  0  0  0
 12 18  1  0  0  0  0
 12 15  2  0  0  0  0
 13 14  2  0  0  0  0
 14 12  1  0  0  0  0
 16 10  1  1  0  0  0
 16 17  1  0  0  0  0
 16  9  1  0  0  0  0
 17 13  1  0  0  0  0
 19 20  2  0  0  0  0
 21 23  1  0  0  0  0
 21 20  1  0  0  0  0
 22 21  2  0  0  0  0
 23 25  1  0  0  0  0
 24 23  2  0  0  0  0
M  END
>  <MODEL>
2

>  <REMARK>
 VINA RESULT:      -8.1      2.088      2.398
  Name = 
  4 active torsions:
  status: ('A' for Active; 'I' for Inactive)
    1  A    between atoms: C_1  and  N_3
    2  A    between atoms: C_2  and  CA_21
    3  A    between atoms: C_6  and  C_23
    4  A    between atoms: C_15  and  CA_21
                            x       y       z     vdW  Elec       q    Type
                         _______ _______ _______ _____ _____    ______ ____

>  <TORSDO>
F 4

$$$$
=
 OpenBabel10262419473D

 25 27  0  0  1  0  0  0  0  0999 V2000
  189.9510  177.3870  142.2990 N   0  0  1  0  0  0  0  0  0  0  0  0
  189.7670  175.0890  142.8700 O   0  0  0  0  0  1  0  0  0  0  0  0
  191.5750  176.3500  143.7370 N   0  0  0  0  0  0  0  0  0  0  0  0
  192.1860  175.1710  144.0100 O   0  0  0  0  0  1  0  0  0  0  0  0
  189.1490  177.8350  143.4470 C   0  0  0  0  0  2  0  0  0  0  0  0
  190.8110  176.7280  144.9260 C   0  0  0  0  0  2  0  0  0  0  0  0
  190.0450  178.0220  144.6700 C   0  0  2  0  0  3  0  0  0  0  0  0
  190.6620  176.1370  142.6050 C   0  0  2  0  0  3  0  0  0  0  0  0
  189.2020  177.2670  141.0350 C   0  0  2  0  0  3  0  0  0  0  0  0
  186.9400  178.4710  141.7570 C   0  0  0  0  0  1  0  0  0  0  0  0
  190.1340  177.5670  139.8670 C   0  0  2  0  0  3  0  0  0  0  0  0
  190.1460  177.0920  137.4570 C   0  0  0  0  0  0  0  0  0  0  0  0
  189.2630  178.3950  139.0060 C   0  0  0  0  0  0  0  0  0  0  0  0
  189.2660  178.1630  137.7390 N   0  0  0  0  0  0  0  0  0  0  0  0
  190.5590  176.8520  136.2920 O   0  0  0  0  0  0  0  0  0  0  0  0
  188.0870  178.2800  140.8270 C   0  0  2  0  0  3  0  0  0  0  0  0
  188.1170  178.8740  139.6800 N   0  0  0  0  0  2  0  0  0  0  0  0
  190.6180  176.1140  138.8770 S   0  0  0  0  0  0  0  0  0  0  0  0
  189.2240  178.3580  145.8660 C   0  0  0  0  0  3  0  0  0  0  0  0
  188.0570  177.7590  146.0810 C   0  0  0  0  0  3  0  0  0  0  0  0
  187.1920  178.0360  147.2420 C   0  0  0  0  0  0  0  0  0  0  0  0
  187.5470  177.5510  148.3850 N   0  0  0  0  0  2  0  0  0  0  0  0
  185.9500  178.8360  147.1650 C   0  0  0  0  0  0  0  0  0  0  0  0
  184.7990  178.2720  146.6280 O   0  0  0  0  0  0  0  0  0  0  0  0
  185.9120  180.0250  147.5800 O   0  0  0  0  0  1  0  0  0  0  0  0
  1  8  1  0  0  0  0
  1  5  1  1  0  0  0
  3  4  1  0  0  0  0
  3  6  1  0  0  0  0
  5  7  1  0  0  0  0
  7  6  1  0  0  0  0
  7 19  1  1  0  0  0
  8  2  1  1  0  0  0
  8  3  1  0  0  0  0
  9  1  1  1  0  0  0
 11 18  1  6  0  0  0
 11  9  1  0  0  0  0
 12 14  1  0  0  0  0
 12 18  1  0  0  0  0
 13 17  1  0  0  0  0
 13 11  1  0  0  0  0
 14 13  2  0  0  0  0
 15 12  2  0  0  0  0
 16  9  1  0  0  0  0
 16 10  1  6  0  0  0
 17 16  1  0  0  0  0
 19 20  2  0  0  0  0
 20 21  1  0  0  0  0
 21 22  2  0  0  0  0
 23 21  1  0  0  0  0
 23 25  1  0  0  0  0
 24 23  2  0  0  0  0
M  END
>  <MODEL>
3

>  <REMARK>
 VINA RESULT:      -8.0      3.776      7.003
  Name = 
  4 active torsions:
  status: ('A' for Active; 'I' for Inactive)
    1  A    between atoms: C_1  and  N_3
    2  A    between atoms: C_2  and  CA_21
    3  A    between atoms: C_6  and  C_23
    4  A    between atoms: C_15  and  CA_21
                            x       y       z     vdW  Elec       q    Type
                         _______ _______ _______ _____ _____    ______ ____

>  <TORSDO>
F 4

$$$$
=
 OpenBabel10262419473D

 25 27  0  0  1  0  0  0  0  0999 V2000
  187.7360  178.2110  144.1510 N   0  0  1  0  0  0  0  0  0  0  0  0
  187.8060  176.3550  142.6690 O   0  0  0  0  0  1  0  0  0  0  0  0
  189.1530  178.2490  142.2090 N   0  0  0  0  0  0  0  0  0  0  0  0
  189.2690  177.7810  140.9430 O   0  0  0  0  0  1  0  0  0  0  0  0
  188.8250  177.7000  144.9960 C   0  0  0  0  0  2  0  0  0  0  0  0
  190.2730  177.7050  142.9770 C   0  0  0  0  0  2  0  0  0  0  0  0
  190.1740  178.1430  144.4350 C   0  0  2  0  0  3  0  0  0  0  0  0
  187.8840  177.7530  142.7610 C   0  0  2  0  0  3  0  0  0  0  0  0
  186.3800  177.9230  144.6540 C   0  0  2  0  0  3  0  0  0  0  0  0
  186.9550  177.4830  147.2160 C   0  0  0  0  0  1  0  0  0  0  0  0
  185.3940  178.9060  144.0340 C   0  0  2  0  0  3  0  0  0  0  0  0
  182.9640  178.9720  143.6770 C   0  0  0  0  0  0  0  0  0  0  0  0
  184.5440  179.2390  145.1970 C   0  0  0  0  0  0  0  0  0  0  0  0
  183.2690  179.2850  145.0220 N   0  0  0  0  0  0  0  0  0  0  0  0
  181.8420  179.2270  143.1670 O   0  0  0  0  0  0  0  0  0  0  0  0
  186.1650  178.1470  146.1430 C   0  0  2  0  0  3  0  0  0  0  0  0
  185.1210  178.8530  146.4280 N   0  0  0  0  0  2  0  0  0  0  0  0
  184.2910  178.1910  142.7690 S   0  0  0  0  0  0  0  0  0  0  0  0
  191.2850  177.5300  145.2130 C   0  0  0  0  0  3  0  0  0  0  0  0
  191.0660  176.4860  146.0070 C   0  0  0  0  0  3  0  0  0  0  0  0
  192.1140  175.8250  146.8060 C   0  0  0  0  0  0  0  0  0  0  0  0
  192.7150  174.8090  146.2830 N   0  0  0  0  0  2  0  0  0  0  0  0
  192.5080  176.2630  148.1620 C   0  0  0  0  0  0  0  0  0  0  0  0
  192.1640  177.5350  148.6040 O   0  0  0  0  0  0  0  0  0  0  0  0
  193.1540  175.5030  148.9310 O   0  0  0  0  0  1  0  0  0  0  0  0
  1  5  1  1  0  0  0
  3  8  1  0  0  0  0
  3  6  1  0  0  0  0
  4  3  1  0  0  0  0
  6  7  1  0  0  0  0
  7  5  1  0  0  0  0
  7 19  1  1  0  0  0
  8  2  1  1  0  0  0
  8  1  1  0  0  0  0
  9  1  1  6  0  0  0
  9 16  1  0  0  0  0
 11 18  1  6  0  0  0
 11  9  1  0  0  0  0
 11 13  1  0  0  0  0
 12 14  1  0  0  0  0
 13 17  1  0  0  0  0
 14 13  2  0  0  0  0
 15 12  2  0  0  0  0
 16 17  1  0  0  0  0
 16 10  1  1  0  0  0
 18 12  1  0  0  0  0
 19 20  2  0  0  0  0
 20 21  1  0  0  0  0
 21 23  1  0  0  0  0
 22 21  2  0  0  0  0
 23 24  2  0  0  0  0
 23 25  1  0  0  0  0
M  END
>  <MODEL>
4

>  <REMARK>
 VINA RESULT:      -7.4      3.087      8.128
  Name = 
  4 active torsions:
  status: ('A' for Active; 'I' for Inactive)
    1  A    between atoms: C_1  and  N_3
    2  A    between atoms: C_2  and  CA_21
    3  A    between atoms: C_6  and  C_23
    4  A    between atoms: C_15  and  CA_21
                            x       y       z     vdW  Elec       q    Type
                         _______ _______ _______ _____ _____    ______ ____

>  <TORSDO>
F 4

$$$$
=
 OpenBabel10262419473D

 25 27  0  0  1  0  0  0  0  0999 V2000
  189.4270  177.5060  143.0730 N   0  0  1  0  0  0  0  0  0  0  0  0
  187.1510  176.8760  142.8100 O   0  0  0  0  0  1  0  0  0  0  0  0
  187.9540  178.7970  141.6800 N   0  0  0  0  0  0  0  0  0  0  0  0
  186.6600  179.1670  141.5200 O   0  0  0  0  0  1  0  0  0  0  0  0
  189.8820  176.7000  141.9310 C   0  0  0  0  0  2  0  0  0  0  0  0
  188.3290  178.0130  140.5030 C   0  0  0  0  0  2  0  0  0  0  0  0
  189.7620  177.5080  140.6410 C   0  0  2  0  0  3  0  0  0  0  0  0
  188.0410  177.9590  142.8840 C   0  0  2  0  0  3  0  0  0  0  0  0
  189.5900  176.8560  144.3870 C   0  0  2  0  0  3  0  0  0  0  0  0
  191.8640  175.5460  143.9430 C   0  0  0  0  0  1  0  0  0  0  0  0
  189.2390  177.8500  145.4870 C   0  0  2  0  0  3  0  0  0  0  0  0
  188.5870  177.7040  147.8520 C   0  0  0  0  0  0  0  0  0  0  0  0
  190.3080  177.5840  146.4730 C   0  0  0  0  0  0  0  0  0  0  0  0
  189.9820  177.5120  147.7160 N   0  0  0  0  0  0  0  0  0  0  0  0
  188.0510  177.9730  148.9580 O   0  0  0  0  0  0  0  0  0  0  0  0
  191.0090  176.4540  144.7560 C   0  0  2  0  0  3  0  0  0  0  0  0
  191.3800  176.8380  145.9330 N   0  0  0  0  0  2  0  0  0  0  0  0
  187.6560  177.5320  146.3350 S   0  0  0  0  0  0  0  0  0  0  0  0
  190.1050  176.6610  139.4660 C   0  0  0  0  0  3  0  0  0  0  0  0
  191.3680  176.5120  139.0790 C   0  0  0  0  0  3  0  0  0  0  0  0
  191.7850  175.6890  137.9280 C   0  0  0  0  0  0  0  0  0  0  0  0
  191.2580  174.5160  137.8070 N   0  0  0  0  0  2  0  0  0  0  0  0
  192.7640  176.1350  136.9150 C   0  0  0  0  0  0  0  0  0  0  0  0
  193.8940  176.8420  137.3110 O   0  0  0  0  0  1  0  0  0  0  0  0
  192.5980  175.8850  135.6910 O   0  0  0  0  0  0  0  0  0  0  0  0
  1  5  1  6  0  0  0
  3  8  1  0  0  0  0
  4  3  1  0  0  0  0
  6  7  1  0  0  0  0
  6  3  1  0  0  0  0
  7 19  1  6  0  0  0
  7  5  1  0  0  0  0
  8  2  1  6  0  0  0
  8  1  1  0  0  0  0
  9  1  1  6  0  0  0
  9 16  1  0  0  0  0
  9 11  1  0  0  0  0
 11 18  1  1  0  0  0
 11 13  1  0  0  0  0
 12 15  2  0  0  0  0
 13 14  2  0  0  0  0
 14 12  1  0  0  0  0
 16 10  1  1  0  0  0
 16 17  1  0  0  0  0
 17 13  1  0  0  0  0
 18 12  1  0  0  0  0
 20 19  2  0  0  0  0
 21 20  1  0  0  0  0
 22 21  2  0  0  0  0
 23 24  1  0  0  0  0
 23 21  1  0  0  0  0
 25 23  2  0  0  0  0
M  END
>  <MODEL>
5

>  <REMARK>
 VINA RESULT:      -7.4      4.178      5.760
  Name = 
  4 active torsions:
  status: ('A' for Active; 'I' for Inactive)
    1  A    between atoms: C_1  and  N_3
    2  A    between atoms: C_2  and  CA_21
    3  A    between atoms: C_6  and  C_23
    4  A    between atoms: C_15  and  CA_21
                            x       y       z     vdW  Elec       q    Type
                         _______ _______ _______ _____ _____    ______ ____

>  <TORSDO>
F 4

$$$$
=
 OpenBabel10262419473D

 25 27  0  0  1  0  0  0  0  0999 V2000
  185.0700  178.1960  143.8140 N   0  0  1  0  0  0  0  0  0  0  0  0
  185.2610  180.1340  145.1750 O   0  0  0  0  0  1  0  0  0  0  0  0
  185.2800  177.9990  146.2010 N   0  0  0  0  0  0  0  0  0  0  0  0
  185.0020  178.6270  147.3690 O   0  0  0  0  0  1  0  0  0  0  0  0
  186.5230  178.0680  143.6260 C   0  0  0  0  0  2  0  0  0  0  0  0
  186.7360  177.9030  146.0960 C   0  0  0  0  0  2  0  0  0  0  0  0
  187.1280  177.2570  144.7700 C   0  0  2  0  0  3  0  0  0  0  0  0
  184.7560  178.8270  145.1050 C   0  0  2  0  0  3  0  0  0  0  0  0
  184.3660  178.8800  142.7130 C   0  0  2  0  0  3  0  0  0  0  0  0
  186.3490  179.0030  140.9420 C   0  0  0  0  0  1  0  0  0  0  0  0
  182.9670  178.2930  142.5690 C   0  0  2  0  0  3  0  0  0  0  0  0
  180.8460  179.0220  141.5660 C   0  0  0  0  0  0  0  0  0  0  0  0
  182.8410  178.1990  141.0990 C   0  0  0  0  0  0  0  0  0  0  0  0
  181.7320  178.5690  140.5600 N   0  0  0  0  0  0  0  0  0  0  0  0
  179.6120  179.1620  141.3590 O   0  0  0  0  0  0  0  0  0  0  0  0
  184.9480  178.6720  141.3240 C   0  0  2  0  0  3  0  0  0  0  0  0
  184.0810  178.3260  140.4310 N   0  0  0  0  0  2  0  0  0  0  0  0
  181.6150  179.3760  143.1400 S   0  0  0  0  0  0  0  0  0  0  0  0
  188.6110  177.2250  144.6530 C   0  0  0  0  0  3  0  0  0  0  0  0
  189.3770  177.0890  145.7310 C   0  0  0  0  0  3  0  0  0  0  0  0
  190.8500  177.0460  145.6950 C   0  0  0  0  0  0  0  0  0  0  0  0
  191.4390  177.5390  144.6560 N   0  0  0  0  0  2  0  0  0  0  0  0
  191.6800  176.4760  146.7770 C   0  0  0  0  0  0  0  0  0  0  0  0
  191.7570  177.1270  148.0030 O   0  0  0  0  0  1  0  0  0  0  0  0
  192.3220  175.4050  146.6120 O   0  0  0  0  0  0  0  0  0  0  0  0
  1  5  1  6  0  0  0
  1  8  1  0  0  0  0
  3  4  1  0  0  0  0
  5  7  1  0  0  0  0
  6  3  1  0  0  0  0
  7 19  1  6  0  0  0
  7  6  1  0  0  0  0
  8  2  1  6  0  0  0
  8  3  1  0  0  0  0
  9  1  1  1  0  0  0
 11 13  1  6  0  0  0
 11  9  1  0  0  0  0
 11 18  1  0  0  0  0
 12 18  1  0  0  0  0
 14 13  2  0  0  0  0
 14 12  1  0  0  0  0
 15 12  2  0  0  0  0
 16 10  1  6  0  0  0
 16  9  1  0  0  0  0
 17 13  1  0  0  0  0
 17 16  1  0  0  0  0
 19 20  2  0  0  0  0
 21 20  1  0  0  0  0
 21 23  1  0  0  0  0
 22 21  2  0  0  0  0
 23 24  1  0  0  0  0
 25 23  2  0  0  0  0
M  END
>  <MODEL>
6

>  <REMARK>
 VINA RESULT:      -7.2      2.652      7.910
  Name = 
  4 active torsions:
  status: ('A' for Active; 'I' for Inactive)
    1  A    between atoms: C_1  and  N_3
    2  A    between atoms: C_2  and  CA_21
    3  A    between atoms: C_6  and  C_23
    4  A    between atoms: C_15  and  CA_21
                            x       y       z     vdW  Elec       q    Type
                         _______ _______ _______ _____ _____    ______ ____

>  <TORSDO>
F 4

$$$$
=
 OpenBabel10262419473D

 25 27  0  0  1  0  0  0  0  0999 V2000
  188.2310  177.4690  141.2280 N   0  0  1  0  0  0  0  0  0  0  0  0
  187.6650  179.7680  141.4220 O   0  0  0  0  0  1  0  0  0  0  0  0
  186.0530  178.1320  142.0030 N   0  0  0  0  0  0  0  0  0  0  0  0
  185.1180  179.1080  141.9040 O   0  0  0  0  0  1  0  0  0  0  0  0
  188.7470  177.3820  142.6020 C   0  0  0  0  0  2  0  0  0  0  0  0
  186.5050  178.1050  143.3950 C   0  0  0  0  0  2  0  0  0  0  0  0
  187.6090  177.0650  143.5690 C   0  0  2  0  0  3  0  0  0  0  0  0
  187.1750  178.4880  141.1230 C   0  0  2  0  0  3  0  0  0  0  0  0
  189.2630  177.6760  140.1960 C   0  0  2  0  0  3  0  0  0  0  0  0
  191.4360  177.1900  141.6530 C   0  0  0  0  0  1  0  0  0  0  0  0
  188.8040  177.0380  138.8900 C   0  0  2  0  0  3  0  0  0  0  0  0
  189.3760  177.2830  136.5140 C   0  0  0  0  0  0  0  0  0  0  0  0
  190.0540  176.4020  138.4220 C   0  0  0  0  0  0  0  0  0  0  0  0
  190.3620  176.5150  137.1770 N   0  0  0  0  0  0  0  0  0  0  0  0
  189.2720  177.3010  135.2600 O   0  0  0  0  0  0  0  0  0  0  0  0
  190.5950  176.9850  140.4430 C   0  0  2  0  0  3  0  0  0  0  0  0
  191.0360  176.3080  139.4340 N   0  0  0  0  0  2  0  0  0  0  0  0
  188.3000  178.2170  137.5930 S   0  0  0  0  0  0  0  0  0  0  0  0
  188.1000  177.0950  144.9740 C   0  0  0  0  0  3  0  0  0  0  0  0
  189.4020  177.0590  145.2420 C   0  0  0  0  0  3  0  0  0  0  0  0
  189.9620  177.0870  146.6050 C   0  0  0  0  0  0  0  0  0  0  0  0
  189.1950  177.4920  147.5620 N   0  0  0  0  0  2  0  0  0  0  0  0
  191.3460  176.6780  146.9300 C   0  0  0  0  0  0  0  0  0  0  0  0
  192.0500  175.8650  146.0490 O   0  0  0  0  0  0  0  0  0  0  0  0
  191.9050  177.0550  147.9940 O   0  0  0  0  0  1  0  0  0  0  0  0
  1  5  1  1  0  0  0
  3  6  1  0  0  0  0
  4  3  1  0  0  0  0
  5  7  1  0  0  0  0
  6  7  1  0  0  0  0
  7 19  1  1  0  0  0
  8  1  1  0  0  0  0
  8  2  1  1  0  0  0
  8  3  1  0  0  0  0
  9 16  1  0  0  0  0
  9  1  1  1  0  0  0
 11 18  1  6  0  0  0
 11  9  1  0  0  0  0
 12 14  1  0  0  0  0
 12 18  1  0  0  0  0
 13 11  1  0  0  0  0
 13 17  1  0  0  0  0
 14 13  2  0  0  0  0
 15 12  2  0  0  0  0
 16 10  1  6  0  0  0
 17 16  1  0  0  0  0
 19 20  2  0  0  0  0
 20 21  1  0  0  0  0
 21 23  1  0  0  0  0
 21 22  2  0  0  0  0
 23 25  1  0  0  0  0
 24 23  2  0  0  0  0
M  END
>  <MODEL>
7

>  <REMARK>
 VINA RESULT:      -7.2      3.783      7.562
  Name = 
  4 active torsions:
  status: ('A' for Active; 'I' for Inactive)
    1  A    between atoms: C_1  and  N_3
    2  A    between atoms: C_2  and  CA_21
    3  A    between atoms: C_6  and  C_23
    4  A    between atoms: C_15  and  CA_21
                            x       y       z     vdW  Elec       q    Type
                         _______ _______ _______ _____ _____    ______ ____

>  <TORSDO>
F 4

$$$$
=
 OpenBabel10262419473D

 25 27  0  0  1  0  0  0  0  0999 V2000
  189.1850  178.0450  141.1210 N   0  0  1  0  0  0  0  0  0  0  0  0
  190.3150  175.9660  140.9070 O   0  0  0  0  0  1  0  0  0  0  0  0
  191.5840  177.9370  141.2480 N   0  0  0  0  0  0  0  0  0  0  0  0
  192.6620  177.2440  140.8080 O   0  0  0  0  0  1  0  0  0  0  0  0
  189.0540  177.9320  142.5810 C   0  0  0  0  0  2  0  0  0  0  0  0
  191.5310  177.7820  142.7020 C   0  0  0  0  0  2  0  0  0  0  0  0
  190.3010  178.4900  143.2620 C   0  0  2  0  0  3  0  0  0  0  0  0
  190.3840  177.3420  140.6410 C   0  0  2  0  0  3  0  0  0  0  0  0
  187.9930  177.6230  140.3620 C   0  0  2  0  0  3  0  0  0  0  0  0
  186.0980  178.5930  141.9600 C   0  0  0  0  0  1  0  0  0  0  0  0
  188.2310  177.8650  138.8760 C   0  0  2  0  0  3  0  0  0  0  0  0
  187.2660  177.0240  136.7790 C   0  0  0  0  0  0  0  0  0  0  0  0
  186.9240  178.4170  138.4590 C   0  0  0  0  0  0  0  0  0  0  0  0
  186.4110  177.9910  137.3570 N   0  0  0  0  0  0  0  0  0  0  0  0
  187.1580  176.6670  135.5770 O   0  0  0  0  0  0  0  0  0  0  0  0
  186.7260  178.4230  140.6210 C   0  0  2  0  0  3  0  0  0  0  0  0
  186.1260  178.8280  139.5510 N   0  0  0  0  0  2  0  0  0  0  0  0
  188.5020  176.3580  137.8850 S   0  0  0  0  0  0  0  0  0  0  0  0
  190.2300  178.2700  144.7330 C   0  0  0  0  0  3  0  0  0  0  0  0
  189.2190  177.5960  145.2730 C   0  0  0  0  0  3  0  0  0  0  0  0
  189.0810  177.3360  146.7170 C   0  0  0  0  0  0  0  0  0  0  0  0
  190.0680  176.7610  147.3210 N   0  0  0  0  0  2  0  0  0  0  0  0
  187.8830  177.6990  147.5040 C   0  0  0  0  0  0  0  0  0  0  0  0
  187.9140  177.6070  148.8900 O   0  0  0  0  0  1  0  0  0  0  0  0
  186.8270  178.0930  146.9410 O   0  0  0  0  0  0  0  0  0  0  0  0
  1  5  1  1  0  0  0
  3  6  1  0  0  0  0
  4  3  1  0  0  0  0
  5  7  1  0  0  0  0
  6  7  1  0  0  0  0
  7 19  1  1  0  0  0
  8  2  1  1  0  0  0
  8  1  1  0  0  0  0
  8  3  1  0  0  0  0
  9 16  1  0  0  0  0
  9  1  1  1  0  0  0
 11 18  1  6  0  0  0
 11  9  1  0  0  0  0
 12 14  1  0  0  0  0
 12 18  1  0  0  0  0
 13 11  1  0  0  0  0
 13 17  1  0  0  0  0
 14 13  2  0  0  0  0
 15 12  2  0  0  0  0
 16 10  1  6  0  0  0
 17 16  1  0  0  0  0
 19 20  2  0  0  0  0
 20 21  1  0  0  0  0
 21 22  2  0  0  0  0
 21 23  1  0  0  0  0
 23 24  1  0  0  0  0
 25 23  2  0  0  0  0
M  END
>  <MODEL>
8

>  <REMARK>
 VINA RESULT:      -7.1      3.836      7.985
  Name = 
  4 active torsions:
  status: ('A' for Active; 'I' for Inactive)
    1  A    between atoms: C_1  and  N_3
    2  A    between atoms: C_2  and  CA_21
    3  A    between atoms: C_6  and  C_23
    4  A    between atoms: C_15  and  CA_21
                            x       y       z     vdW  Elec       q    Type
                         _______ _______ _______ _____ _____    ______ ____

>  <TORSDO>
F 4

$$$$
=
 OpenBabel10262419473D

 25 27  0  0  1  0  0  0  0  0999 V2000
  189.4360  177.8770  141.3680 N   0  0  1  0  0  0  0  0  0  0  0  0
  190.5290  176.0020  140.4010 O   0  0  0  0  0  1  0  0  0  0  0  0
  191.8150  177.8930  141.0200 N   0  0  0  0  0  0  0  0  0  0  0  0
  192.7960  177.4090  140.2210 O   0  0  0  0  0  1  0  0  0  0  0  0
  189.5910  177.3790  142.7430 C   0  0  0  0  0  2  0  0  0  0  0  0
  192.0470  177.3610  142.3630 C   0  0  0  0  0  2  0  0  0  0  0  0
  190.9390  177.8180  143.3090 C   0  0  2  0  0  3  0  0  0  0  0  0
  190.5280  177.4020  140.5060 C   0  0  2  0  0  3  0  0  0  0  0  0
  188.1250  177.5930  140.7560 C   0  0  2  0  0  3  0  0  0  0  0  0
  186.5540  178.0860  142.8470 C   0  0  0  0  0  1  0  0  0  0  0  0
  188.0880  178.1820  139.3500 C   0  0  2  0  0  3  0  0  0  0  0  0
  186.7560  177.8100  137.3190 C   0  0  0  0  0  0  0  0  0  0  0  0
  186.7280  178.7600  139.3130 C   0  0  0  0  0  0  0  0  0  0  0  0
  186.0220  178.5800  138.2520 N   0  0  0  0  0  0  0  0  0  0  0  0
  186.4310  177.7360  136.1060 O   0  0  0  0  0  0  0  0  0  0  0  0
  186.9270  178.2570  141.4160 C   0  0  2  0  0  3  0  0  0  0  0  0
  186.1430  178.8730  140.5950 N   0  0  0  0  0  2  0  0  0  0  0  0
  188.1720  176.9580  138.0010 S   0  0  0  0  0  0  0  0  0  0  0  0
  191.1570  177.2170  144.6530 C   0  0  0  0  0  3  0  0  0  0  0  0
  190.2670  177.3840  145.6260 C   0  0  0  0  0  3  0  0  0  0  0  0
  190.4110  176.8190  146.9800 C   0  0  0  0  0  0  0  0  0  0  0  0
  189.3500  176.7320  147.7110 N   0  0  0  0  0  2  0  0  0  0  0  0
  191.6970  176.3500  147.5380 C   0  0  0  0  0  0  0  0  0  0  0  0
  192.3690  177.1290  148.4740 O   0  0  0  0  0  1  0  0  0  0  0  0
  192.2010  175.2510  147.1830 O   0  0  0  0  0  0  0  0  0  0  0  0
  1  5  1  1  0  0  0
  3  6  1  0  0  0  0
  4  3  1  0  0  0  0
  5  7  1  0  0  0  0
  6  7  1  0  0  0  0
  7 19  1  1  0  0  0
  8  2  1  1  0  0  0
  8  3  1  0  0  0  0
  8  1  1  0  0  0  0
  9  1  1  1  0  0  0
  9 16  1  0  0  0  0
 11 18  1  6  0  0  0
 11  9  1  0  0  0  0
 12 18  1  0  0  0  0
 12 14  1  0  0  0  0
 13 11  1  0  0  0  0
 13 17  1  0  0  0  0
 14 13  2  0  0  0  0
 15 12  2  0  0  0  0
 16 10  1  6  0  0  0
 17 16  1  0  0  0  0
 19 20  2  0  0  0  0
 20 21  1  0  0  0  0
 21 23  1  0  0  0  0
 21 22  2  0  0  0  0
 23 24  1  0  0  0  0
 25 23  2  0  0  0  0
M  END
>  <MODEL>
9

>  <REMARK>
 VINA RESULT:      -7.1      3.777      8.542
  Name = 
  4 active torsions:
  status: ('A' for Active; 'I' for Inactive)
    1  A    between atoms: C_1  and  N_3
    2  A    between atoms: C_2  and  CA_21
    3  A    between atoms: C_6  and  C_23
    4  A    between atoms: C_15  and  CA_21
                            x       y       z     vdW  Elec       q    Type
                         _______ _______ _______ _____ _____    ______ ____

>  <TORSDO>
F 4

$$$$
