=
 OpenBabel10262421253D

 32 36  0  0  1  0  0  0  0  0999 V2000
  182.3200  177.3560  138.3850 C   0  0  0  0  0  2  0  0  0  0  0  0
  185.8590  178.2290  142.4760 C   0  0  0  0  0  2  0  0  0  0  0  0
  189.4980  176.5340  138.1870 O   0  0  0  0  0  0  0  0  0  0  0  0
  190.4700  177.4480  138.6780 C   0  0  0  0  0  2  0  0  0  0  0  0
  183.7890  178.2120  141.0510 C   0  0  2  0  0  3  0  0  0  0  0  0
  185.6480  178.9520  139.3700 C   0  0  0  0  0  2  0  0  0  0  0  0
  183.8180  177.4400  138.6420 C   0  0  0  0  0  2  0  0  0  0  0  0
  188.2060  177.1430  138.1780 C   0  0  0  0  0  2  0  0  0  0  0  0
  186.5980  177.9750  140.0460 C   0  0  1  0  0  3  0  0  0  0  0  0
  187.9530  178.0050  139.4220 C   0  0  1  0  0  3  0  0  0  0  0  0
  188.3320  178.1080  141.7670 N   0  0  0  0  0  0  0  0  0  0  0  0
  181.3460  177.8350  140.6420 C   0  0  0  0  0  3  0  0  0  0  0  0
  184.1770  178.5770  139.5940 C   0  0  1  0  0  3  0  0  0  0  0  0
  182.3300  178.4730  141.2870 C   0  0  0  0  0  3  0  0  0  0  0  0
  181.5890  176.7840  139.5970 C   0  0  1  0  0  3  0  0  0  0  0  0
  190.2670  177.7370  140.1850 C   0  0  0  0  0  2  0  0  0  0  0  0
  188.8060  177.4870  140.5360 C   0  0  2  0  0  3  0  0  0  0  0  0
  184.5760  178.9690  142.1180 C   0  0  0  0  0  2  0  0  0  0  0  0
  186.9430  178.5090  141.4310 C   0  0  2  0  0  3  0  0  0  0  0  0
  180.2180  174.9070  138.5200 C   0  0  0  0  0  0  0  0  0  0  0  0
  180.3290  176.1680  139.1890 N   0  0  0  0  0  2  0  0  0  0  0  0
  181.2450  174.2430  138.2220 O   0  0  0  0  0  0  0  0  0  0  0  0
  178.9310  174.4030  138.1810 N   0  0  0  0  0  1  0  0  0  0  0  0
  188.3650  177.0640  142.7920 C   0  0  0  0  0  2  0  0  0  0  0  0
  187.7200  177.5780  145.4580 O   0  0  0  0  0  0  0  0  0  0  0  0
  189.8800  177.4340  146.3910 C   0  0  2  0  0  3  0  0  0  0  0  0
  189.4480  177.3620  143.8240 C   0  0  2  0  0  3  0  0  0  0  0  0
  191.5860  176.3550  144.8560 C   0  0  0  0  0  2  0  0  0  0  0  0
  191.3260  177.4560  145.8910 C   0  0  0  0  0  2  0  0  0  0  0  0
  189.6650  176.3030  147.1790 O   0  0  0  0  0  1  0  0  0  0  0  0
  190.5330  176.2870  143.7350 C   0  0  0  0  0  2  0  0  0  0  0  0
  188.9160  177.4490  145.2390 C   0  0  0  0  0  0  0  0  0  0  0  0
  1  7  1  0  0  0  0
  1 15  1  0  0  0  0
  3  4  1  0  0  0  0
  4 16  1  0  0  0  0
  5 14  1  6  0  0  0
  5 18  1  0  0  0  0
  6 13  1  0  0  0  0
  8  3  1  0  0  0  0
  9  6  1  6  0  0  0
  9 19  1  0  0  0  0
 10  8  1  6  0  0  0
 10  9  1  0  0  0  0
 10 17  1  0  0  0  0
 11 24  1  0  0  0  0
 12 14  2  0  0  0  0
 13  7  1  6  0  0  0
 13  5  1  0  0  0  0
 15 21  1  6  0  0  0
 15 12  1  0  0  0  0
 17 16  1  6  0  0  0
 17 11  1  0  0  0  0
 18  2  1  0  0  0  0
 19 11  1  0  0  0  0
 19  2  1  1  0  0  0
 20 21  1  0  0  0  0
 22 20  2  0  0  0  0
 23 20  1  0  0  0  0
 26 30  1  6  0  0  0
 27 24  1  6  0  0  0
 27 32  1  0  0  0  0
 28 29  1  0  0  0  0
 29 26  1  0  0  0  0
 31 27  1  0  0  0  0
 31 28  1  0  0  0  0
 32 25  2  0  0  0  0
 32 26  1  0  0  0  0
M  END
>  <MODEL>
1

>  <REMARK>
 VINA RESULT:      -7.9      0.000      0.000
  Name = 
  3 active torsions:
  status: ('A' for Active; 'I' for Inactive)
    1  A    between atoms: N_10  and  C_24
    2  A    between atoms: C_11  and  C_27
    3  A    between atoms: N_16  and  C_27
                            x       y       z     vdW  Elec       q    Type
                         _______ _______ _______ _____ _____    ______ ____

>  <TORSDO>
F 3

$$$$
=
 OpenBabel10262421253D

 32 36  0  0  1  0  0  0  0  0999 V2000
  190.5810  174.7970  136.7620 C   0  0  0  0  0  2  0  0  0  0  0  0
  187.3290  177.8620  139.9330 C   0  0  0  0  0  2  0  0  0  0  0  0
  191.6780  176.6010  143.6750 O   0  0  0  0  0  0  0  0  0  0  0  0
  191.5330  177.8940  144.2470 C   0  0  0  0  0  2  0  0  0  0  0  0
  188.3960  176.7500  137.9460 C   0  0  2  0  0  3  0  0  0  0  0  0
  190.4500  177.6760  139.2700 C   0  0  0  0  0  2  0  0  0  0  0  0
  190.5740  175.4760  138.1240 C   0  0  0  0  0  2  0  0  0  0  0  0
  191.6170  176.6800  142.2500 C   0  0  0  0  0  2  0  0  0  0  0  0
  189.7390  177.3050  140.5630 C   0  0  1  0  0  3  0  0  0  0  0  0
  190.5510  177.6680  141.7610 C   0  0  1  0  0  3  0  0  0  0  0  0
  188.3600  178.4720  142.2130 N   0  0  0  0  0  0  0  0  0  0  0  0
  188.3500  175.4290  135.8190 C   0  0  0  0  0  3  0  0  0  0  0  0
  189.9370  176.8620  138.0750 C   0  0  1  0  0  3  0  0  0  0  0  0
  188.0030  176.5150  136.5180 C   0  0  0  0  0  3  0  0  0  0  0  0
  189.1840  174.3150  136.3850 C   0  0  1  0  0  3  0  0  0  0  0  0
  190.1040  178.4500  144.0400 C   0  0  0  0  0  2  0  0  0  0  0  0
  189.4960  177.7830  142.8130 C   0  0  2  0  0  3  0  0  0  0  0  0
  187.6340  177.9770  138.4440 C   0  0  0  0  0  2  0  0  0  0  0  0
  188.5580  178.2490  140.7590 C   0  0  2  0  0  3  0  0  0  0  0  0
  188.5900  171.9520  135.5910 C   0  0  0  0  0  0  0  0  0  0  0  0
  189.2650  173.2060  135.4370 N   0  0  0  0  0  2  0  0  0  0  0  0
  187.8720  171.7260  136.6000 O   0  0  0  0  0  0  0  0  0  0  0  0
  188.7380  170.9480  134.5940 N   0  0  0  0  0  1  0  0  0  0  0  0
  187.1610  177.7950  142.7080 C   0  0  0  0  0  2  0  0  0  0  0  0
  184.8950  179.4130  142.9090 O   0  0  0  0  0  0  0  0  0  0  0  0
  184.6880  179.4620  145.2570 C   0  0  2  0  0  3  0  0  0  0  0  0
  186.7270  178.3870  144.0460 C   0  0  2  0  0  3  0  0  0  0  0  0
  186.0680  177.6940  146.4410 C   0  0  0  0  0  2  0  0  0  0  0  0
  185.5620  179.1420  146.4710 C   0  0  0  0  0  2  0  0  0  0  0  0
  183.4750  178.7790  145.3480 O   0  0  0  0  0  1  0  0  0  0  0  0
  186.6820  177.2720  145.0940 C   0  0  0  0  0  2  0  0  0  0  0  0
  185.3910  179.0940  143.9800 C   0  0  0  0  0  0  0  0  0  0  0  0
  1  7  1  0  0  0  0
  3  4  1  0  0  0  0
  5 14  1  6  0  0  0
  5 13  1  0  0  0  0
  5 18  1  0  0  0  0
  8  3  1  0  0  0  0
  9  6  1  6  0  0  0
  9 19  1  0  0  0  0
  9 10  1  0  0  0  0
 10  8  1  1  0  0  0
 10 17  1  0  0  0  0
 11 24  1  0  0  0  0
 11 17  1  0  0  0  0
 12 15  1  0  0  0  0
 12 14  2  0  0  0  0
 13  7  1  1  0  0  0
 13  6  1  0  0  0  0
 15 21  1  6  0  0  0
 15  1  1  0  0  0  0
 16  4  1  0  0  0  0
 17 16  1  1  0  0  0
 18  2  1  0  0  0  0
 19  2  1  1  0  0  0
 19 11  1  0  0  0  0
 20 22  2  0  0  0  0
 21 20  1  0  0  0  0
 23 20  1  0  0  0  0
 25 32  2  0  0  0  0
 26 30  1  1  0  0  0
 26 29  1  0  0  0  0
 27 24  1  6  0  0  0
 27 31  1  0  0  0  0
 28 29  1  0  0  0  0
 31 28  1  0  0  0  0
 32 27  1  0  0  0  0
 32 26  1  0  0  0  0
M  END
>  <MODEL>
2

>  <REMARK>
 VINA RESULT:      -7.9      4.164      6.093
  Name = 
  3 active torsions:
  status: ('A' for Active; 'I' for Inactive)
    1  A    between atoms: N_10  and  C_24
    2  A    between atoms: C_11  and  C_27
    3  A    between atoms: N_16  and  C_27
                            x       y       z     vdW  Elec       q    Type
                         _______ _______ _______ _____ _____    ______ ____

>  <TORSDO>
F 3

$$$$
=
 OpenBabel10262421253D

 32 36  0  0  1  0  0  0  0  0999 V2000
  184.4670  176.8710  135.9510 C   0  0  0  0  0  2  0  0  0  0  0  0
  186.7700  178.2470  140.7290 C   0  0  0  0  0  2  0  0  0  0  0  0
  191.2850  175.6490  138.0140 O   0  0  0  0  0  0  0  0  0  0  0  0
  192.1650  176.5800  138.6290 C   0  0  0  0  0  2  0  0  0  0  0  0
  185.1980  178.0950  138.7730 C   0  0  2  0  0  3  0  0  0  0  0  0
  187.5220  178.4350  137.6290 C   0  0  0  0  0  2  0  0  0  0  0  0
  185.8310  176.9190  136.6240 C   0  0  0  0  0  2  0  0  0  0  0  0
  190.1170  176.3140  137.5320 C   0  0  0  0  0  2  0  0  0  0  0  0
  188.1380  177.5400  138.6940 C   0  0  1  0  0  3  0  0  0  0  0  0
  189.6100  177.3890  138.5020 C   0  0  1  0  0  3  0  0  0  0  0  0
  189.3170  177.8750  140.8110 N   0  0  0  0  0  0  0  0  0  0  0  0
  182.9470  177.7830  137.7190 C   0  0  0  0  0  3  0  0  0  0  0  0
  186.0190  178.1820  137.4600 C   0  0  1  0  0  3  0  0  0  0  0  0
  183.7660  178.4690  138.5240 C   0  0  0  0  0  3  0  0  0  0  0  0
  183.3690  176.5560  136.9630 C   0  0  1  0  0  3  0  0  0  0  0  0
  191.5730  177.1350  139.9480 C   0  0  0  0  0  2  0  0  0  0  0  0
  190.0550  177.0270  139.8820 C   0  0  2  0  0  3  0  0  0  0  0  0
  185.7220  178.9810  139.9010 C   0  0  0  0  0  2  0  0  0  0  0  0
  188.1280  178.2850  140.0230 C   0  0  2  0  0  3  0  0  0  0  0  0
  181.3560  174.9720  136.8910 C   0  0  0  0  0  0  0  0  0  0  0  0
  182.2210  175.9470  136.2960 N   0  0  0  0  0  2  0  0  0  0  0  0
  181.5580  174.5620  138.0640 O   0  0  0  0  0  0  0  0  0  0  0  0
  180.2600  174.4570  136.1450 N   0  0  0  0  0  1  0  0  0  0  0  0
  188.9520  177.0220  141.9430 C   0  0  0  0  0  2  0  0  0  0  0  0
  187.8440  177.9710  144.3220 O   0  0  0  0  0  0  0  0  0  0  0  0
  189.7190  177.7160  145.7270 C   0  0  2  0  0  3  0  0  0  0  0  0
  189.8260  177.3360  143.1530 C   0  0  2  0  0  3  0  0  0  0  0  0
  191.5390  176.2480  144.7440 C   0  0  0  0  0  2  0  0  0  0  0  0
  191.2260  177.5050  145.5660 C   0  0  0  0  0  2  0  0  0  0  0  0
  189.1870  176.7370  146.5670 O   0  0  0  0  0  1  0  0  0  0  0  0
  190.7440  176.1440  143.4300 C   0  0  0  0  0  2  0  0  0  0  0  0
  189.0280  177.6790  144.3930 C   0  0  0  0  0  0  0  0  0  0  0  0
  1  7  1  0  0  0  0
  1 15  1  0  0  0  0
  3  4  1  0  0  0  0
  4 16  1  0  0  0  0
  5 14  1  6  0  0  0
  5 18  1  0  0  0  0
  8  3  1  0  0  0  0
  9  6  1  6  0  0  0
  9 19  1  0  0  0  0
 10  8  1  6  0  0  0
 10  9  1  0  0  0  0
 10 17  1  0  0  0  0
 11 24  1  0  0  0  0
 12 14  2  0  0  0  0
 13  7  1  1  0  0  0
 13  6  1  0  0  0  0
 13  5  1  0  0  0  0
 15 21  1  6  0  0  0
 15 12  1  0  0  0  0
 17 16  1  6  0  0  0
 17 11  1  0  0  0  0
 18  2  1  0  0  0  0
 19  2  1  1  0  0  0
 19 11  1  0  0  0  0
 20 22  2  0  0  0  0
 21 20  1  0  0  0  0
 23 20  1  0  0  0  0
 25 32  2  0  0  0  0
 26 30  1  1  0  0  0
 27 24  1  6  0  0  0
 27 31  1  0  0  0  0
 27 32  1  0  0  0  0
 28 29  1  0  0  0  0
 29 26  1  0  0  0  0
 31 28  1  0  0  0  0
 32 26  1  0  0  0  0
M  END
>  <MODEL>
3

>  <REMARK>
 VINA RESULT:      -7.6      1.627      2.095
  Name = 
  3 active torsions:
  status: ('A' for Active; 'I' for Inactive)
    1  A    between atoms: N_10  and  C_24
    2  A    between atoms: C_11  and  C_27
    3  A    between atoms: N_16  and  C_27
                            x       y       z     vdW  Elec       q    Type
                         _______ _______ _______ _____ _____    ______ ____

>  <TORSDO>
F 3

$$$$
=
 OpenBabel10262421253D

 32 36  0  0  1  0  0  0  0  0999 V2000
  180.1370  181.0820  139.5530 C   0  0  0  0  0  2  0  0  0  0  0  0
  184.8860  178.3560  139.7590 C   0  0  0  0  0  2  0  0  0  0  0  0
  184.1420  179.7430  145.4190 O   0  0  0  0  0  0  0  0  0  0  0  0
  184.7280  178.4990  145.7790 C   0  0  0  0  0  2  0  0  0  0  0  0
  182.6800  179.2890  138.9950 C   0  0  2  0  0  3  0  0  0  0  0  0
  182.1370  178.3950  141.3900 C   0  0  0  0  0  2  0  0  0  0  0  0
  181.1130  180.5030  140.5670 C   0  0  0  0  0  2  0  0  0  0  0  0
  183.2280  179.5640  144.3370 C   0  0  0  0  0  2  0  0  0  0  0  0
  183.5070  178.8800  141.8420 C   0  0  1  0  0  3  0  0  0  0  0  0
  183.7480  178.5780  143.2830 C   0  0  1  0  0  3  0  0  0  0  0  0
  185.7180  177.8780  142.1490 N   0  0  0  0  0  0  0  0  0  0  0  0
  181.1780  180.4560  137.3640 C   0  0  0  0  0  3  0  0  0  0  0  0
  181.6460  179.1380  140.1400 C   0  0  1  0  0  3  0  0  0  0  0  0
  181.9840  179.4330  137.6740 C   0  0  0  0  0  3  0  0  0  0  0  0
  180.8710  181.5800  138.3110 C   0  0  1  0  0  3  0  0  0  0  0  0
  185.6750  177.9750  144.6740 C   0  0  0  0  0  2  0  0  0  0  0  0
  185.2420  178.5720  143.3400 C   0  0  2  0  0  3  0  0  0  0  0  0
  183.6630  178.1260  138.8790 C   0  0  0  0  0  2  0  0  0  0  0  0
  184.5720  177.9900  141.2130 C   0  0  2  0  0  3  0  0  0  0  0  0
  180.6140  183.8730  137.1980 C   0  0  0  0  0  0  0  0  0  0  0  0
  180.0900  182.6160  137.6380 N   0  0  0  0  0  2  0  0  0  0  0  0
  181.8220  184.1710  137.3900 O   0  0  0  0  0  0  0  0  0  0  0  0
  179.7570  184.8010  136.5430 N   0  0  0  0  0  1  0  0  0  0  0  0
  186.8830  178.6260  141.6760 C   0  0  0  0  0  2  0  0  0  0  0  0
  188.2980  177.6260  139.4880 O   0  0  0  0  0  0  0  0  0  0  0  0
  190.2720  176.9710  140.5970 C   0  0  2  0  0  3  0  0  0  0  0  0
  188.1570  177.8080  141.8640 C   0  0  2  0  0  3  0  0  0  0  0  0
  190.5010  177.9380  142.9310 C   0  0  0  0  0  2  0  0  0  0  0  0
  190.7210  176.7120  142.0370 C   0  0  0  0  0  2  0  0  0  0  0  0
  191.1360  177.8780  139.9830 O   0  0  0  0  0  1  0  0  0  0  0  0
  189.0970  178.5580  142.8110 C   0  0  0  0  0  2  0  0  0  0  0  0
  188.8650  177.4990  140.5630 C   0  0  0  0  0  0  0  0  0  0  0  0
  1  7  1  0  0  0  0
  3  4  1  0  0  0  0
  5 14  1  6  0  0  0
  5 13  1  0  0  0  0
  8  3  1  0  0  0  0
  9  6  1  6  0  0  0
  9 10  1  0  0  0  0
 10 17  1  0  0  0  0
 10  8  1  1  0  0  0
 11 17  1  0  0  0  0
 12 14  2  0  0  0  0
 12 15  1  0  0  0  0
 13  7  1  1  0  0  0
 13  6  1  0  0  0  0
 15 21  1  6  0  0  0
 15  1  1  0  0  0  0
 16  4  1  0  0  0  0
 17 16  1  1  0  0  0
 18  5  1  0  0  0  0
 18  2  1  0  0  0  0
 19  2  1  6  0  0  0
 19  9  1  0  0  0  0
 19 11  1  0  0  0  0
 20 22  2  0  0  0  0
 20 21  1  0  0  0  0
 23 20  1  0  0  0  0
 24 11  1  0  0  0  0
 25 32  2  0  0  0  0
 26 30  1  1  0  0  0
 26 29  1  0  0  0  0
 27 24  1  6  0  0  0
 27 31  1  0  0  0  0
 29 28  1  0  0  0  0
 31 28  1  0  0  0  0
 32 26  1  0  0  0  0
 32 27  1  0  0  0  0
M  END
>  <MODEL>
4

>  <REMARK>
 VINA RESULT:      -7.4      3.582      5.710
  Name = 
  3 active torsions:
  status: ('A' for Active; 'I' for Inactive)
    1  A    between atoms: N_10  and  C_24
    2  A    between atoms: C_11  and  C_27
    3  A    between atoms: N_16  and  C_27
                            x       y       z     vdW  Elec       q    Type
                         _______ _______ _______ _____ _____    ______ ____

>  <TORSDO>
F 3

$$$$
=
 OpenBabel10262421253D

 32 36  0  0  1  0  0  0  0  0999 V2000
  184.9580  176.9460  136.6370 C   0  0  0  0  0  2  0  0  0  0  0  0
  186.3660  178.3310  141.7480 C   0  0  0  0  0  2  0  0  0  0  0  0
  191.4390  176.1540  139.7390 O   0  0  0  0  0  0  0  0  0  0  0  0
  192.1360  177.1270  140.5050 C   0  0  0  0  0  2  0  0  0  0  0  0
  185.1390  178.1280  139.5630 C   0  0  2  0  0  3  0  0  0  0  0  0
  187.5820  178.6720  138.8120 C   0  0  0  0  0  2  0  0  0  0  0  0
  186.1920  177.0710  137.5200 C   0  0  0  0  0  2  0  0  0  0  0  0
  190.3140  176.7480  139.0890 C   0  0  0  0  0  2  0  0  0  0  0  0
  188.0890  177.7900  139.9440 C   0  0  1  0  0  3  0  0  0  0  0  0
  189.5800  177.7530  139.9870 C   0  0  1  0  0  3  0  0  0  0  0  0
  188.8890  178.1420  142.2290 N   0  0  0  0  0  0  0  0  0  0  0  0
  183.1130  177.6880  138.1570 C   0  0  0  0  0  3  0  0  0  0  0  0
  186.1480  178.3170  138.4000 C   0  0  1  0  0  3  0  0  0  0  0  0
  183.7410  178.4060  139.0960 C   0  0  0  0  0  3  0  0  0  0  0  0
  183.7420  176.5200  137.4530 C   0  0  1  0  0  3  0  0  0  0  0  0
  191.3030  177.5950  141.7220 C   0  0  0  0  0  2  0  0  0  0  0  0
  189.8270  177.3790  141.4130 C   0  0  2  0  0  3  0  0  0  0  0  0
  185.4100  179.0140  140.7780 C   0  0  0  0  0  2  0  0  0  0  0  0
  187.8120  178.4900  141.2690 C   0  0  2  0  0  3  0  0  0  0  0  0
  182.7230  174.4410  136.3570 C   0  0  0  0  0  0  0  0  0  0  0  0
  182.7630  175.8510  136.6000 N   0  0  0  0  0  2  0  0  0  0  0  0
  183.5740  173.6730  136.8770 O   0  0  0  0  0  0  0  0  0  0  0  0
  181.7130  173.9020  135.5120 N   0  0  0  0  0  1  0  0  0  0  0  0
  188.4160  177.2290  143.2700 C   0  0  0  0  0  2  0  0  0  0  0  0
  186.5690  177.4840  145.3470 O   0  0  0  0  0  0  0  0  0  0  0  0
  188.0710  177.8000  147.1370 C   0  0  2  0  0  3  0  0  0  0  0  0
  188.8400  177.7260  144.6490 C   0  0  2  0  0  3  0  0  0  0  0  0
  190.4690  177.1930  146.5750 C   0  0  0  0  0  2  0  0  0  0  0  0
  189.5460  178.1670  147.3170 C   0  0  0  0  0  2  0  0  0  0  0  0
  187.7860  176.6210  147.8260 O   0  0  0  0  0  1  0  0  0  0  0  0
  190.0600  176.9290  145.1150 C   0  0  0  0  0  2  0  0  0  0  0  0
  187.7350  177.6380  145.6800 C   0  0  0  0  0  0  0  0  0  0  0  0
  1 15  1  0  0  0  0
  1  7  1  0  0  0  0
  3  4  1  0  0  0  0
  4 16  1  0  0  0  0
  5 14  1  6  0  0  0
  5 18  1  0  0  0  0
  8  3  1  0  0  0  0
  9  6  1  6  0  0  0
  9 10  1  0  0  0  0
  9 19  1  0  0  0  0
 10  8  1  6  0  0  0
 10 17  1  0  0  0  0
 11 24  1  0  0  0  0
 12 14  2  0  0  0  0
 13  7  1  1  0  0  0
 13  6  1  0  0  0  0
 13  5  1  0  0  0  0
 15 21  1  6  0  0  0
 15 12  1  0  0  0  0
 17 16  1  1  0  0  0
 17 11  1  0  0  0  0
 18  2  1  0  0  0  0
 19  2  1  1  0  0  0
 19 11  1  0  0  0  0
 20 21  1  0  0  0  0
 20 22  2  0  0  0  0
 23 20  1  0  0  0  0
 25 32  2  0  0  0  0
 26 29  1  0  0  0  0
 26 30  1  1  0  0  0
 27 24  1  6  0  0  0
 27 31  1  0  0  0  0
 27 32  1  0  0  0  0
 28 29  1  0  0  0  0
 31 28  1  0  0  0  0
 32 26  1  0  0  0  0
M  END
>  <MODEL>
5

>  <REMARK>
 VINA RESULT:      -7.4      1.821      2.246
  Name = 
  3 active torsions:
  status: ('A' for Active; 'I' for Inactive)
    1  A    between atoms: N_10  and  C_24
    2  A    between atoms: C_11  and  C_27
    3  A    between atoms: N_16  and  C_27
                            x       y       z     vdW  Elec       q    Type
                         _______ _______ _______ _____ _____    ______ ____

>  <TORSDO>
F 3

$$$$
=
 OpenBabel10262421253D

 32 36  0  0  1  0  0  0  0  0999 V2000
  190.5770  176.5970  139.0610 C   0  0  0  0  0  2  0  0  0  0  0  0
  185.4700  178.5190  139.5630 C   0  0  0  0  0  2  0  0  0  0  0  0
  186.7050  177.1470  145.1400 O   0  0  0  0  0  0  0  0  0  0  0  0
  185.9470  178.2720  145.5630 C   0  0  0  0  0  2  0  0  0  0  0  0
  187.7560  177.9700  138.6720 C   0  0  2  0  0  3  0  0  0  0  0  0
  188.2660  178.8870  141.0650 C   0  0  0  0  0  2  0  0  0  0  0  0
  189.5720  176.9900  140.1350 C   0  0  0  0  0  2  0  0  0  0  0  0
  187.5240  177.4940  144.0230 C   0  0  0  0  0  2  0  0  0  0  0  0
  187.0160  178.1790  141.5650 C   0  0  1  0  0  3  0  0  0  0  0  0
  186.8010  178.4070  143.0240 C   0  0  1  0  0  3  0  0  0  0  0  0
  184.6920  178.8050  142.0010 N   0  0  0  0  0  0  0  0  0  0  0  0
  189.3410  177.0950  136.9410 C   0  0  0  0  0  3  0  0  0  0  0  0
  188.8080  178.2610  139.7730 C   0  0  1  0  0  3  0  0  0  0  0  0
  188.3990  177.9680  137.3170 C   0  0  0  0  0  3  0  0  0  0  0  0
  189.8710  176.0150  137.8400 C   0  0  1  0  0  3  0  0  0  0  0  0
  184.8740  178.6610  144.5170 C   0  0  0  0  0  2  0  0  0  0  0  0
  185.3300  178.1710  143.1480 C   0  0  2  0  0  3  0  0  0  0  0  0
  186.5950  178.9620  138.6360 C   0  0  0  0  0  2  0  0  0  0  0  0
  185.7930  178.8990  141.0110 C   0  0  2  0  0  3  0  0  0  0  0  0
  190.5110  173.7540  136.8180 C   0  0  0  0  0  0  0  0  0  0  0  0
  190.7720  175.1330  137.1020 N   0  0  0  0  0  2  0  0  0  0  0  0
  189.4530  173.2030  137.2200 O   0  0  0  0  0  0  0  0  0  0  0  0
  191.4630  172.9970  136.0800 N   0  0  0  0  0  1  0  0  0  0  0  0
  183.6390  177.8890  141.5600 C   0  0  0  0  0  2  0  0  0  0  0  0
  181.5640  176.8570  140.0050 O   0  0  0  0  0  0  0  0  0  0  0  0
  179.8280  178.2840  140.7180 C   0  0  2  0  0  3  0  0  0  0  0  0
  182.3110  178.6280  141.4220 C   0  0  2  0  0  3  0  0  0  0  0  0
  180.3720  179.5770  142.8310 C   0  0  0  0  0  2  0  0  0  0  0  0
  179.6990  179.6190  141.4540 C   0  0  0  0  0  2  0  0  0  0  0  0
  179.0410  177.3160  141.3440 O   0  0  0  0  0  1  0  0  0  0  0  0
  181.8000  179.0020  142.8150 C   0  0  0  0  0  2  0  0  0  0  0  0
  181.2610  177.8320  140.6770 C   0  0  0  0  0  0  0  0  0  0  0  0
  1  7  1  0  0  0  0
  3  4  1  0  0  0  0
  5 14  1  6  0  0  0
  5 13  1  0  0  0  0
  8  3  1  0  0  0  0
  9  6  1  6  0  0  0
  9 10  1  0  0  0  0
 10 17  1  0  0  0  0
 10  8  1  1  0  0  0
 11 17  1  0  0  0  0
 12 14  2  0  0  0  0
 12 15  1  0  0  0  0
 13  7  1  1  0  0  0
 13  6  1  0  0  0  0
 15 21  1  6  0  0  0
 15  1  1  0  0  0  0
 16  4  1  0  0  0  0
 17 16  1  1  0  0  0
 18  5  1  0  0  0  0
 18  2  1  0  0  0  0
 19  2  1  6  0  0  0
 19  9  1  0  0  0  0
 19 11  1  0  0  0  0
 20 21  1  0  0  0  0
 20 22  2  0  0  0  0
 23 20  1  0  0  0  0
 24 11  1  0  0  0  0
 25 32  2  0  0  0  0
 26 30  1  1  0  0  0
 26 29  1  0  0  0  0
 27 24  1  1  0  0  0
 27 31  1  0  0  0  0
 29 28  1  0  0  0  0
 31 28  1  0  0  0  0
 32 26  1  0  0  0  0
 32 27  1  0  0  0  0
M  END
>  <MODEL>
6

>  <REMARK>
 VINA RESULT:      -7.4      2.849      7.906
  Name = 
  3 active torsions:
  status: ('A' for Active; 'I' for Inactive)
    1  A    between atoms: N_10  and  C_24
    2  A    between atoms: C_11  and  C_27
    3  A    between atoms: N_16  and  C_27
                            x       y       z     vdW  Elec       q    Type
                         _______ _______ _______ _____ _____    ______ ____

>  <TORSDO>
F 3

$$$$
=
 OpenBabel10262421253D

 32 36  0  0  1  0  0  0  0  0999 V2000
  186.5310  178.2800  143.3330 C   0  0  0  0  0  2  0  0  0  0  0  0
  191.0850  176.8840  140.6240 C   0  0  0  0  0  2  0  0  0  0  0  0
  187.1110  176.7060  136.3020 O   0  0  0  0  0  0  0  0  0  0  0  0
  188.0960  177.1940  135.4030 C   0  0  0  0  0  2  0  0  0  0  0  0
  189.4940  177.7360  142.3740 C   0  0  2  0  0  3  0  0  0  0  0  0
  188.6200  178.8700  140.1890 C   0  0  0  0  0  2  0  0  0  0  0  0
  187.0280  178.0550  141.9120 C   0  0  0  0  0  2  0  0  0  0  0  0
  187.1690  177.4210  137.5370 C   0  0  0  0  0  2  0  0  0  0  0  0
  188.9380  177.5870  139.4370 C   0  0  1  0  0  3  0  0  0  0  0  0
  188.6080  177.7020  137.9870 C   0  0  1  0  0  3  0  0  0  0  0  0
  190.7880  176.7580  138.0690 N   0  0  0  0  0  0  0  0  0  0  0  0
  188.5870  177.8830  144.7050 C   0  0  0  0  0  3  0  0  0  0  0  0
  188.4250  178.6280  141.6910 C   0  0  1  0  0  3  0  0  0  0  0  0
  189.5910  178.0580  143.8370 C   0  0  0  0  0  3  0  0  0  0  0  0
  187.2400  177.3490  144.3130 C   0  0  1  0  0  3  0  0  0  0  0  0
  189.5260  176.8440  135.8820 C   0  0  0  0  0  2  0  0  0  0  0  0
  189.5000  176.6590  137.3940 C   0  0  2  0  0  3  0  0  0  0  0  0
  190.8930  177.8640  141.7760 C   0  0  0  0  0  2  0  0  0  0  0  0
  190.4510  177.4370  139.3440 C   0  0  2  0  0  3  0  0  0  0  0  0
  185.7160  178.1610  146.2060 C   0  0  0  0  0  0  0  0  0  0  0  0
  186.4130  177.1300  145.4970 N   0  0  0  0  0  2  0  0  0  0  0  0
  185.7940  179.3620  145.8380 O   0  0  0  0  0  0  0  0  0  0  0  0
  184.9310  177.8230  147.3430 N   0  0  0  0  0  1  0  0  0  0  0  0
  191.2430  175.3840  138.2880 C   0  0  0  0  0  2  0  0  0  0  0  0
  193.9300  176.0030  138.7180 O   0  0  0  0  0  0  0  0  0  0  0  0
  194.8870  174.6910  137.0090 C   0  0  2  0  0  3  0  0  0  0  0  0
  192.3150  175.0070  137.2700 C   0  0  2  0  0  3  0  0  0  0  0  0
  193.3000  172.9680  136.0360 C   0  0  0  0  0  2  0  0  0  0  0  0
  194.4150  173.9780  135.7400 C   0  0  0  0  0  2  0  0  0  0  0  0
  195.5780  173.7980  137.8290 O   0  0  0  0  0  1  0  0  0  0  0  0
  192.1590  173.5290  136.9040 C   0  0  0  0  0  2  0  0  0  0  0  0
  193.7220  175.2780  137.7570 C   0  0  0  0  0  0  0  0  0  0  0  0
  1 15  1  0  0  0  0
  2 18  1  0  0  0  0
  3  8  1  0  0  0  0
  4 16  1  0  0  0  0
  4  3  1  0  0  0  0
  5 18  1  6  0  0  0
  5 14  1  0  0  0  0
  7  1  1  0  0  0  0
  9  6  1  1  0  0  0
 10  8  1  1  0  0  0
 10  9  1  0  0  0  0
 11 24  1  0  0  0  0
 11 19  1  0  0  0  0
 13  6  1  6  0  0  0
 13  7  1  0  0  0  0
 13  5  1  0  0  0  0
 14 12  2  0  0  0  0
 15 12  1  0  0  0  0
 15 21  1  1  0  0  0
 17 16  1  6  0  0  0
 17 10  1  0  0  0  0
 17 11  1  0  0  0  0
 19  9  1  0  0  0  0
 19  2  1  1  0  0  0
 20 23  1  0  0  0  0
 21 20  1  0  0  0  0
 22 20  2  0  0  0  0
 26 32  1  0  0  0  0
 26 30  1  1  0  0  0
 27 32  1  0  0  0  0
 27 24  1  1  0  0  0
 28 31  1  0  0  0  0
 29 28  1  0  0  0  0
 29 26  1  0  0  0  0
 31 27  1  0  0  0  0
 32 25  2  0  0  0  0
M  END
>  <MODEL>
7

>  <REMARK>
 VINA RESULT:      -7.0      4.181      7.266
  Name = 
  3 active torsions:
  status: ('A' for Active; 'I' for Inactive)
    1  A    between atoms: N_10  and  C_24
    2  A    between atoms: C_11  and  C_27
    3  A    between atoms: N_16  and  C_27
                            x       y       z     vdW  Elec       q    Type
                         _______ _______ _______ _____ _____    ______ ____

>  <TORSDO>
F 3

$$$$
=
 OpenBabel10262421253D

 32 36  0  0  1  0  0  0  0  0999 V2000
  187.6750  177.9050  143.3800 C   0  0  0  0  0  2  0  0  0  0  0  0
  191.8270  176.7580  139.9930 C   0  0  0  0  0  2  0  0  0  0  0  0
  187.2210  175.2770  136.6610 O   0  0  0  0  0  0  0  0  0  0  0  0
  187.9220  175.7470  135.5180 C   0  0  0  0  0  2  0  0  0  0  0  0
  190.4600  177.6480  141.9060 C   0  0  2  0  0  3  0  0  0  0  0  0
  189.0120  178.2600  139.8180 C   0  0  0  0  0  2  0  0  0  0  0  0
  187.9340  177.5200  141.9300 C   0  0  0  0  0  2  0  0  0  0  0  0
  187.3780  176.1900  137.7490 C   0  0  0  0  0  2  0  0  0  0  0  0
  189.4080  176.9290  139.1970 C   0  0  1  0  0  3  0  0  0  0  0  0
  188.8020  176.7510  137.8450 C   0  0  1  0  0  3  0  0  0  0  0  0
  191.0930  176.1630  137.5970 N   0  0  0  0  0  0  0  0  0  0  0  0
  189.9860  178.0490  144.3320 C   0  0  0  0  0  3  0  0  0  0  0  0
  189.1430  178.2460  141.3470 C   0  0  1  0  0  3  0  0  0  0  0  0
  190.7660  178.2200  143.2580 C   0  0  0  0  0  3  0  0  0  0  0  0
  188.7050  177.2650  144.3060 C   0  0  1  0  0  3  0  0  0  0  0  0
  189.4550  175.6960  135.7310 C   0  0  0  0  0  2  0  0  0  0  0  0
  189.7400  175.7650  137.2260 C   0  0  2  0  0  3  0  0  0  0  0  0
  191.6800  177.8780  141.0160 C   0  0  0  0  0  2  0  0  0  0  0  0
  190.8810  176.9900  138.8110 C   0  0  2  0  0  3  0  0  0  0  0  0
  188.9470  176.8840  146.8280 C   0  0  0  0  0  0  0  0  0  0  0  0
  188.1630  177.1280  145.6560 N   0  0  0  0  0  2  0  0  0  0  0  0
  190.1970  176.7530  146.7520 O   0  0  0  0  0  0  0  0  0  0  0  0
  188.3060  176.7790  148.0940 N   0  0  0  0  0  1  0  0  0  0  0  0
  191.8160  174.9270  137.8990 C   0  0  0  0  0  2  0  0  0  0  0  0
  194.4830  175.6270  138.3310 O   0  0  0  0  0  0  0  0  0  0  0  0
  195.4620  174.4690  136.5270 C   0  0  2  0  0  3  0  0  0  0  0  0
  192.8850  174.6610  136.8440 C   0  0  2  0  0  3  0  0  0  0  0  0
  193.9300  172.7490  135.4660 C   0  0  0  0  0  2  0  0  0  0  0  0
  194.9980  173.8210  135.2210 C   0  0  0  0  0  2  0  0  0  0  0  0
  196.2030  173.5540  137.2760 O   0  0  0  0  0  1  0  0  0  0  0  0
  192.7820  173.2050  136.3840 C   0  0  0  0  0  2  0  0  0  0  0  0
  194.2880  174.9580  137.3270 C   0  0  0  0  0  0  0  0  0  0  0  0
  1 15  1  0  0  0  0
  2 18  1  0  0  0  0
  3  8  1  0  0  0  0
  4 16  1  0  0  0  0
  4  3  1  0  0  0  0
  5 18  1  6  0  0  0
  5 14  1  0  0  0  0
  7  1  1  0  0  0  0
  9  6  1  6  0  0  0
 10  8  1  1  0  0  0
 10  9  1  0  0  0  0
 11 24  1  0  0  0  0
 11 19  1  0  0  0  0
 13  6  1  6  0  0  0
 13  5  1  0  0  0  0
 13  7  1  0  0  0  0
 14 12  2  0  0  0  0
 15 12  1  0  0  0  0
 15 21  1  1  0  0  0
 17 16  1  6  0  0  0
 17 11  1  0  0  0  0
 17 10  1  0  0  0  0
 19  9  1  0  0  0  0
 19  2  1  1  0  0  0
 20 23  1  0  0  0  0
 21 20  1  0  0  0  0
 22 20  2  0  0  0  0
 26 30  1  1  0  0  0
 26 32  1  0  0  0  0
 27 32  1  0  0  0  0
 27 24  1  1  0  0  0
 28 31  1  0  0  0  0
 29 28  1  0  0  0  0
 29 26  1  0  0  0  0
 31 27  1  0  0  0  0
 32 25  2  0  0  0  0
M  END
>  <MODEL>
8

>  <REMARK>
 VINA RESULT:      -6.9      4.455      8.197
  Name = 
  3 active torsions:
  status: ('A' for Active; 'I' for Inactive)
    1  A    between atoms: N_10  and  C_24
    2  A    between atoms: C_11  and  C_27
    3  A    between atoms: N_16  and  C_27
                            x       y       z     vdW  Elec       q    Type
                         _______ _______ _______ _____ _____    ______ ____

>  <TORSDO>
F 3

$$$$
=
 OpenBabel10262421253D

 32 36  0  0  1  0  0  0  0  0999 V2000
  186.5330  178.3180  145.9600 C   0  0  0  0  0  2  0  0  0  0  0  0
  184.4450  177.9210  140.9090 C   0  0  0  0  0  2  0  0  0  0  0  0
  179.5420  178.2480  144.1270 O   0  0  0  0  0  0  0  0  0  0  0  0
  178.9310  178.9950  143.0840 C   0  0  0  0  0  2  0  0  0  0  0  0
  186.0190  178.2540  142.8410 C   0  0  2  0  0  3  0  0  0  0  0  0
  183.9600  179.7180  143.5080 C   0  0  0  0  0  2  0  0  0  0  0  0
  185.2030  178.4300  145.2290 C   0  0  0  0  0  2  0  0  0  0  0  0
  180.8770  178.7030  144.3470 C   0  0  0  0  0  2  0  0  0  0  0  0
  183.0530  178.6460  142.9220 C   0  0  1  0  0  3  0  0  0  0  0  0
  181.6130  179.0200  143.0390 C   0  0  1  0  0  3  0  0  0  0  0  0
  181.8980  178.2840  140.7960 N   0  0  0  0  0  0  0  0  0  0  0  0
  188.1440  177.8450  144.1030 C   0  0  0  0  0  3  0  0  0  0  0  0
  185.3360  179.1620  143.8970 C   0  0  1  0  0  3  0  0  0  0  0  0
  187.5100  178.2820  143.0090 C   0  0  0  0  0  3  0  0  0  0  0  0
  187.4340  177.2790  145.2990 C   0  0  1  0  0  3  0  0  0  0  0  0
  179.5790  178.6900  141.7120 C   0  0  0  0  0  2  0  0  0  0  0  0
  181.0040  178.2040  141.9450 C   0  0  2  0  0  3  0  0  0  0  0  0
  185.7060  178.6280  141.3940 C   0  0  0  0  0  2  0  0  0  0  0  0
  183.1980  178.6590  141.4050 C   0  0  2  0  0  3  0  0  0  0  0  0
  189.7640  177.1640  146.3570 C   0  0  0  0  0  0  0  0  0  0  0  0
  188.3970  176.7510  146.2620 N   0  0  0  0  0  2  0  0  0  0  0  0
  190.2320  178.0300  145.5720 O   0  0  0  0  0  0  0  0  0  0  0  0
  190.6070  176.5840  147.3450 N   0  0  0  0  0  1  0  0  0  0  0  0
  181.9370  176.9420  140.2130 C   0  0  0  0  0  2  0  0  0  0  0  0
  183.3990  175.5470  138.2880 O   0  0  0  0  0  0  0  0  0  0  0  0
  181.9030  175.7460  136.4770 C   0  0  2  0  0  3  0  0  0  0  0  0
  181.5500  176.9880  138.7380 C   0  0  2  0  0  3  0  0  0  0  0  0
  179.5770  176.4970  137.1520 C   0  0  0  0  0  2  0  0  0  0  0  0
  180.6930  176.6050  136.1060 C   0  0  0  0  0  2  0  0  0  0  0  0
  181.5840  174.3930  136.3530 O   0  0  0  0  0  1  0  0  0  0  0  0
  180.0570  176.6790  138.6030 C   0  0  0  0  0  2  0  0  0  0  0  0
  182.3580  176.0400  137.8790 C   0  0  0  0  0  0  0  0  0  0  0  0
  2 18  1  0  0  0  0
  3  8  1  0  0  0  0
  4  3  1  0  0  0  0
  5 18  1  6  0  0  0
  5 14  1  0  0  0  0
  5 13  1  0  0  0  0
  7  1  1  0  0  0  0
  9 10  1  0  0  0  0
  9  6  1  1  0  0  0
 10  8  1  1  0  0  0
 11 19  1  0  0  0  0
 11 17  1  0  0  0  0
 12 15  1  0  0  0  0
 13  6  1  6  0  0  0
 13  7  1  0  0  0  0
 14 12  2  0  0  0  0
 15  1  1  0  0  0  0
 15 21  1  1  0  0  0
 16  4  1  0  0  0  0
 17 16  1  6  0  0  0
 17 10  1  0  0  0  0
 19  2  1  1  0  0  0
 19  9  1  0  0  0  0
 20 23  1  0  0  0  0
 21 20  1  0  0  0  0
 22 20  2  0  0  0  0
 24 11  1  0  0  0  0
 26 30  1  1  0  0  0
 26 32  1  0  0  0  0
 27 24  1  1  0  0  0
 28 31  1  0  0  0  0
 29 26  1  0  0  0  0
 29 28  1  0  0  0  0
 31 27  1  0  0  0  0
 32 25  2  0  0  0  0
 32 27  1  0  0  0  0
M  END
>  <MODEL>
9

>  <REMARK>
 VINA RESULT:      -6.8      2.771      9.502
  Name = 
  3 active torsions:
  status: ('A' for Active; 'I' for Inactive)
    1  A    between atoms: N_10  and  C_24
    2  A    between atoms: C_11  and  C_27
    3  A    between atoms: N_16  and  C_27
                            x       y       z     vdW  Elec       q    Type
                         _______ _______ _______ _____ _____    ______ ____

>  <TORSDO>
F 3

$$$$
