=
 OpenBabel10262419253D

 31 33  0  0  1  0  0  0  0  0999 V2000
  185.5170  178.1880  143.7790 C   0  0  0  0  0  0  0  0  0  0  0  0
  184.1690  178.4530  143.2230 C   0  0  1  0  0  3  0  0  0  0  0  0
  182.6300  178.5550  141.3470 C   0  0  0  0  0  3  0  0  0  0  0  0
  183.9100  178.3080  141.8520 C   0  0  0  0  0  3  0  0  0  0  0  0
  183.4030  178.9890  145.4680 N   0  0  0  0  0  0  0  0  0  0  0  0
  180.3300  179.1910  141.7050 O   0  0  0  0  0  1  0  0  0  0  0  0
  185.7310  178.3740  145.1060 C   0  0  0  0  0  0  0  0  0  0  0  0
  181.6010  178.9460  142.2090 C   0  0  0  0  0  0  0  0  0  0  0  0
  184.6760  178.7590  145.9500 O   0  0  0  0  0  0  0  0  0  0  0  0
  183.1300  178.8450  144.0780 C   0  0  0  0  0  0  0  0  0  0  0  0
  181.8500  179.0910  143.5760 C   0  0  0  0  0  3  0  0  0  0  0  0
  186.5530  177.7860  142.8620 N   0  0  0  0  0  2  0  0  0  0  0  0
  187.9330  175.9420  143.1990 O   0  0  0  0  0  1  0  0  0  0  0  0
  187.8920  177.3360  143.2160 C   0  0  1  0  0  3  0  0  0  0  0  0
  188.8990  177.8800  142.2220 C   0  0  0  0  0  2  0  0  0  0  0  0
  188.1970  178.2930  140.9410 C   0  0  0  0  0  2  0  0  0  0  0  0
  189.0400  177.9210  139.7350 C   0  0  2  0  0  3  0  0  0  0  0  0
  190.3570  177.7760  140.1260 F   0  0  0  0  0  0  0  0  0  0  0  0
  188.9520  178.9650  138.7280 N   0  0  0  0  0  1  0  0  0  0  0  0
  187.0750  178.2130  145.7350 C   0  0  0  0  0  2  0  0  0  0  0  0
  186.9270  177.7520  147.1780 C   0  0  0  0  0  2  0  0  0  0  0  0
  188.2660  178.0700  149.1320 F   0  0  0  0  0  0  0  0  0  0  0  0
  188.2800  177.5520  147.8480 C   0  0  2  0  0  3  0  0  0  0  0  0
  189.3930  178.1850  147.0240 C   0  0  0  0  0  2  0  0  0  0  0  0
  191.6900  175.9720  144.9800 C   0  0  0  0  0  0  0  0  0  0  0  0
  192.1170  175.5700  147.3290 C   0  0  0  0  0  3  0  0  0  0  0  0
  191.9590  175.7150  143.6780 F   0  0  0  0  0  0  0  0  0  0  0  0
  190.7090  176.9090  145.3190 C   0  0  0  0  0  3  0  0  0  0  0  0
  191.1360  176.5060  147.6690 C   0  0  0  0  0  3  0  0  0  0  0  0
  190.4280  177.1750  146.6630 C   0  0  0  0  0  0  0  0  0  0  0  0
  192.3940  175.3020  145.9860 C   0  0  0  0  0  3  0  0  0  0  0  0
  1  7  2  0  0  0  0
  2  4  1  1  0  0  0
  2  1  1  0  0  0  0
  2 10  1  0  0  0  0
  3  4  2  0  0  0  0
  3  8  1  0  0  0  0
  5  9  1  0  0  0  0
  6  8  1  0  0  0  0
  7 20  1  0  0  0  0
  7  9  1  0  0  0  0
  8 11  2  0  0  0  0
 10  5  2  0  0  0  0
 11 10  1  0  0  0  0
 12 14  1  0  0  0  0
 12  1  1  0  0  0  0
 14 13  1  6  0  0  0
 15 14  1  0  0  0  0
 16 15  1  0  0  0  0
 17 19  1  6  0  0  0
 17 18  1  0  0  0  0
 17 16  1  0  0  0  0
 20 21  1  0  0  0  0
 21 23  1  0  0  0  0
 23 22  1  1  0  0  0
 24 23  1  0  0  0  0
 25 28  2  0  0  0  0
 25 31  1  0  0  0  0
 26 29  1  0  0  0  0
 27 25  1  0  0  0  0
 28 30  1  0  0  0  0
 30 24  1  0  0  0  0
 30 29  2  0  0  0  0
 31 26  2  0  0  0  0
M  END
>  <MODEL>
1

>  <REMARK>
 VINA RESULT:      -9.0      0.000      0.000
  Name = 
  10 active torsions:
  status: ('A' for Active; 'I' for Inactive)
    1  A    between atoms: C_2  and  C_13
    2  A    between atoms: C_3  and  C_9
    3  A    between atoms: C_3  and  C_22
    4  A    between atoms: C_4  and  N_12
    5  A    between atoms: C_9  and  C_23
    6  A    between atoms: N_12  and  C_27
    7  A    between atoms: C_13  and  C_28
    8  A    between atoms: C_15  and  C_21
    9  A    between atoms: C_15  and  C_23
   10  A    between atoms: C_27  and  C_28
                            x       y       z     vdW  Elec       q    Type
                         _______ _______ _______ _____ _____    ______ ____

>  <TORSDO>
F 10

$$$$
=
 OpenBabel10262419253D

 31 33  0  0  1  0  0  0  0  0999 V2000
  184.8680  178.4800  141.6630 C   0  0  0  0  0  0  0  0  0  0  0  0
  183.7950  178.6470  140.6550 C   0  0  0  0  0  0  0  0  0  0  0  0
  181.4430  178.7560  140.0570 C   0  0  0  0  0  3  0  0  0  0  0  0
  182.4420  178.5890  141.0220 C   0  0  0  0  0  3  0  0  0  0  0  0
  185.5070  178.9320  138.9520 N   0  0  0  0  0  0  0  0  0  0  0  0
  180.7960  179.1490  137.7670 O   0  0  0  0  0  1  0  0  0  0  0  0
  186.1630  178.5090  141.2580 C   0  0  0  0  0  0  0  0  0  0  0  0
  181.7900  178.9830  138.7220 C   0  0  0  0  0  0  0  0  0  0  0  0
  186.4820  178.7480  139.9110 O   0  0  0  0  0  0  0  0  0  0  0  0
  184.1310  178.8750  139.3130 C   0  0  0  0  0  0  0  0  0  0  0  0
  183.1350  179.0430  138.3490 C   0  0  0  0  0  2  0  0  0  0  0  0
  184.4740  178.2480  143.0290 N   0  0  0  0  0  2  0  0  0  0  0  0
  182.8470  178.6670  144.6400 O   0  0  0  0  0  1  0  0  0  0  0  0
  183.9160  179.2330  143.9460 C   0  0  1  0  0  3  0  0  0  0  0  0
  184.9770  179.6770  144.9340 C   0  0  0  0  0  2  0  0  0  0  0  0
  185.7460  178.4750  145.4510 C   0  0  0  0  0  2  0  0  0  0  0  0
  185.6350  178.3890  146.9620 C   0  0  2  0  0  3  0  0  0  0  0  0
  184.3450  178.0320  147.3060 F   0  0  0  0  0  0  0  0  0  0  0  0
  185.9500  179.6770  147.5560 N   0  0  0  0  0  1  0  0  0  0  0  0
  187.3030  178.2650  142.1900 C   0  0  0  0  0  2  0  0  0  0  0  0
  188.4760  177.6550  141.4350 C   0  0  0  0  0  2  0  0  0  0  0  0
  188.8390  176.0680  143.1850 F   0  0  0  0  0  0  0  0  0  0  0  0
  189.4740  176.9990  142.3790 C   0  0  2  0  0  3  0  0  0  0  0  0
  190.1900  178.0440  143.2260 C   0  0  0  0  0  2  0  0  0  0  0  0
  191.5170  176.4900  146.4160 C   0  0  0  0  0  0  0  0  0  0  0  0
  189.3700  177.5070  146.8850 C   0  0  0  0  0  3  0  0  0  0  0  0
  192.6070  175.8030  146.8340 F   0  0  0  0  0  0  0  0  0  0  0  0
  191.4160  176.8930  145.0810 C   0  0  0  0  0  3  0  0  0  0  0  0
  189.2680  177.9100  145.5500 C   0  0  0  0  0  3  0  0  0  0  0  0
  190.2900  177.6010  144.6450 C   0  0  0  0  0  0  0  0  0  0  0  0
  190.4930  176.7970  147.3180 C   0  0  0  0  0  3  0  0  0  0  0  0
  1 12  1  0  0  0  0
  2  4  2  0  0  0  0
  2  1  1  0  0  0  0
  3  4  1  0  0  0  0
  5 10  2  0  0  0  0
  5  9  1  0  0  0  0
  6  8  1  0  0  0  0
  7  1  2  0  0  0  0
  7 20  1  0  0  0  0
  8  3  2  0  0  0  0
  9  7  1  0  0  0  0
 10  2  1  0  0  0  0
 11  8  1  0  0  0  0
 11 10  1  0  0  0  0
 12 14  1  0  0  0  0
 14 13  1  1  0  0  0
 14 15  1  0  0  0  0
 15 16  1  0  0  0  0
 16 17  1  0  0  0  0
 17 18  1  6  0  0  0
 17 19  1  0  0  0  0
 21 20  1  0  0  0  0
 21 23  1  0  0  0  0
 23 22  1  1  0  0  0
 23 24  1  0  0  0  0
 24 30  1  0  0  0  0
 25 27  1  0  0  0  0
 25 31  1  0  0  0  0
 26 31  2  0  0  0  0
 28 25  2  0  0  0  0
 29 26  1  0  0  0  0
 30 28  1  0  0  0  0
 30 29  2  0  0  0  0
M  END
>  <MODEL>
2

>  <REMARK>
 VINA RESULT:      -8.9      2.281      4.861
  Name = 
  10 active torsions:
  status: ('A' for Active; 'I' for Inactive)
    1  A    between atoms: C_2  and  C_13
    2  A    between atoms: C_3  and  C_9
    3  A    between atoms: C_3  and  C_22
    4  A    between atoms: C_4  and  N_12
    5  A    between atoms: C_9  and  C_23
    6  A    between atoms: N_12  and  C_27
    7  A    between atoms: C_13  and  C_28
    8  A    between atoms: C_15  and  C_21
    9  A    between atoms: C_15  and  C_23
   10  A    between atoms: C_27  and  C_28
                            x       y       z     vdW  Elec       q    Type
                         _______ _______ _______ _____ _____    ______ ____

>  <TORSDO>
F 10

$$$$
=
 OpenBabel10262419253D

 31 33  0  0  1  0  0  0  0  0999 V2000
  189.3630  176.6830  142.2360 C   0  0  0  0  0  0  0  0  0  0  0  0
  189.4640  177.0780  140.8120 C   0  0  0  0  0  0  0  0  0  0  0  0
  190.6220  177.0420  138.6770 C   0  0  0  0  0  3  0  0  0  0  0  0
  190.5480  176.6650  140.0210 C   0  0  0  0  0  3  0  0  0  0  0  0
  187.3650  178.2830  141.0470 N   0  0  0  0  0  0  0  0  0  0  0  0
  189.6920  178.2040  136.7790 O   0  0  0  0  0  1  0  0  0  0  0  0
  188.3160  177.1330  142.9720 C   0  0  0  0  0  0  0  0  0  0  0  0
  189.6150  177.8310  138.1140 C   0  0  0  0  0  0  0  0  0  0  0  0
  187.3140  177.9180  142.3780 O   0  0  0  0  0  0  0  0  0  0  0  0
  188.4600  177.8700  140.2370 C   0  0  0  0  0  0  0  0  0  0  0  0
  188.5320  178.2460  138.8940 C   0  0  0  0  0  2  0  0  0  0  0  0
  190.4180  175.8690  142.7830 N   0  0  0  0  0  2  0  0  0  0  0  0
  191.6780  177.7400  143.3540 O   0  0  0  0  0  1  0  0  0  0  0  0
  191.6650  176.3460  143.3640 C   0  0  1  0  0  3  0  0  0  0  0  0
  191.7900  175.8540  144.7930 C   0  0  0  0  0  2  0  0  0  0  0  0
  191.4250  176.9650  145.7610 C   0  0  0  0  0  2  0  0  0  0  0  0
  191.3080  176.4160  147.1720 C   0  0  2  0  0  3  0  0  0  0  0  0
  190.9450  177.4370  148.0290 F   0  0  0  0  0  0  0  0  0  0  0  0
  192.5820  175.8640  147.5960 N   0  0  0  0  0  1  0  0  0  0  0  0
  188.1790  176.8550  144.4320 C   0  0  0  0  0  2  0  0  0  0  0  0
  187.7810  178.1250  145.1730 C   0  0  0  0  0  2  0  0  0  0  0  0
  185.7870  176.8410  145.4700 F   0  0  0  0  0  0  0  0  0  0  0  0
  186.4810  177.9430  145.9440 C   0  0  2  0  0  3  0  0  0  0  0  0
  185.6200  179.1970  145.8630 C   0  0  0  0  0  2  0  0  0  0  0  0
  182.2900  178.7370  144.1180 C   0  0  0  0  0  0  0  0  0  0  0  0
  184.0000  179.0940  142.4400 C   0  0  0  0  0  3  0  0  0  0  0  0
  180.9940  178.5160  144.4430 F   0  0  0  0  0  0  0  0  0  0  0  0
  183.2550  178.8420  145.1240 C   0  0  0  0  0  3  0  0  0  0  0  0
  184.9660  179.1990  143.4460 C   0  0  0  0  0  3  0  0  0  0  0  0
  184.5950  179.0700  144.7900 C   0  0  0  0  0  0  0  0  0  0  0  0
  182.6630  178.8630  142.7760 C   0  0  0  0  0  3  0  0  0  0  0  0
  1 12  1  0  0  0  0
  1  7  2  0  0  0  0
  2  1  1  0  0  0  0
  3  4  1  0  0  0  0
  4  2  2  0  0  0  0
  5  9  1  0  0  0  0
  6  8  1  0  0  0  0
  7 20  1  0  0  0  0
  8  3  2  0  0  0  0
  8 11  1  0  0  0  0
  9  7  1  0  0  0  0
 10  2  1  0  0  0  0
 10  5  2  0  0  0  0
 11 10  1  0  0  0  0
 12 14  1  0  0  0  0
 14 13  1  1  0  0  0
 14 15  1  0  0  0  0
 15 16  1  0  0  0  0
 16 17  1  0  0  0  0
 17 19  1  1  0  0  0
 17 18  1  0  0  0  0
 20 21  1  0  0  0  0
 21 23  1  0  0  0  0
 23 22  1  6  0  0  0
 24 23  1  0  0  0  0
 25 27  1  0  0  0  0
 25 28  1  0  0  0  0
 26 31  1  0  0  0  0
 26 29  2  0  0  0  0
 29 30  1  0  0  0  0
 30 28  2  0  0  0  0
 30 24  1  0  0  0  0
 31 25  2  0  0  0  0
M  END
>  <MODEL>
3

>  <REMARK>
 VINA RESULT:      -8.8      3.080      7.071
  Name = 
  10 active torsions:
  status: ('A' for Active; 'I' for Inactive)
    1  A    between atoms: C_2  and  C_13
    2  A    between atoms: C_3  and  C_9
    3  A    between atoms: C_3  and  C_22
    4  A    between atoms: C_4  and  N_12
    5  A    between atoms: C_9  and  C_23
    6  A    between atoms: N_12  and  C_27
    7  A    between atoms: C_13  and  C_28
    8  A    between atoms: C_15  and  C_21
    9  A    between atoms: C_15  and  C_23
   10  A    between atoms: C_27  and  C_28
                            x       y       z     vdW  Elec       q    Type
                         _______ _______ _______ _____ _____    ______ ____

>  <TORSDO>
F 10

$$$$
=
 OpenBabel10262419253D

 31 33  0  0  1  0  0  0  0  0999 V2000
  184.9240  178.6220  142.3170 C   0  0  0  0  0  0  0  0  0  0  0  0
  183.6590  178.7980  141.5670 C   0  0  0  0  0  0  0  0  0  0  0  0
  181.2320  178.8210  141.4760 C   0  0  0  0  0  3  0  0  0  0  0  0
  182.4160  178.6440  142.1980 C   0  0  0  0  0  3  0  0  0  0  0  0
  184.9650  179.2860  139.5750 N   0  0  0  0  0  0  0  0  0  0  0  0
  180.1060  179.3300  139.4040 O   0  0  0  0  0  1  0  0  0  0  0  0
  186.1040  178.7460  141.6580 C   0  0  0  0  0  0  0  0  0  0  0  0
  181.2830  179.1540  140.1190 C   0  0  0  0  0  0  0  0  0  0  0  0
  186.1260  179.0910  140.2970 O   0  0  0  0  0  0  0  0  0  0  0  0
  183.6990  179.1320  140.2060 C   0  0  0  0  0  0  0  0  0  0  0  0
  182.5180  179.3100  139.4830 C   0  0  0  0  0  2  0  0  0  0  0  0
  184.8340  178.2800  143.7130 N   0  0  0  0  0  2  0  0  0  0  0  0
  183.4970  179.0590  145.4520 O   0  0  0  0  0  1  0  0  0  0  0  0
  184.7340  179.2130  144.8270 C   0  0  1  0  0  3  0  0  0  0  0  0
  185.8390  178.9420  145.8290 C   0  0  0  0  0  2  0  0  0  0  0  0
  186.3840  177.5390  145.6380 C   0  0  0  0  0  2  0  0  0  0  0  0
  187.8980  177.5410  145.7540 C   0  0  2  0  0  3  0  0  0  0  0  0
  188.4220  176.5920  144.8980 F   0  0  0  0  0  0  0  0  0  0  0  0
  188.2910  177.2280  147.1160 N   0  0  0  0  0  1  0  0  0  0  0  0
  187.4230  178.5030  142.3150 C   0  0  0  0  0  2  0  0  0  0  0  0
  188.1120  177.3040  141.6780 C   0  0  0  0  0  2  0  0  0  0  0  0
  189.0670  177.6230  139.5110 F   0  0  0  0  0  0  0  0  0  0  0  0
  189.3310  177.7200  140.8670 C   0  0  2  0  0  3  0  0  0  0  0  0
  190.5460  176.8800  141.2400 C   0  0  0  0  0  2  0  0  0  0  0  0
  191.7050  176.2110  144.7840 C   0  0  0  0  0  0  0  0  0  0  0  0
  191.2460  178.5780  144.5540 C   0  0  0  0  0  3  0  0  0  0  0  0
  192.1070  175.1620  145.5400 F   0  0  0  0  0  0  0  0  0  0  0  0
  191.3380  176.0100  143.4500 C   0  0  0  0  0  3  0  0  0  0  0  0
  190.8780  178.3770  143.2190 C   0  0  0  0  0  3  0  0  0  0  0  0
  190.9220  177.0920  142.6660 C   0  0  0  0  0  0  0  0  0  0  0  0
  191.6580  177.4950  145.3360 C   0  0  0  0  0  3  0  0  0  0  0  0
  1 12  1  0  0  0  0
  2  4  2  0  0  0  0
  2  1  1  0  0  0  0
  3  4  1  0  0  0  0
  5 10  2  0  0  0  0
  5  9  1  0  0  0  0
  6  8  1  0  0  0  0
  7 20  1  0  0  0  0
  7  1  2  0  0  0  0
  8  3  2  0  0  0  0
  9  7  1  0  0  0  0
 10  2  1  0  0  0  0
 11  8  1  0  0  0  0
 11 10  1  0  0  0  0
 12 14  1  0  0  0  0
 14 13  1  1  0  0  0
 14 15  1  0  0  0  0
 16 17  1  0  0  0  0
 16 15  1  0  0  0  0
 17 18  1  6  0  0  0
 17 19  1  0  0  0  0
 21 20  1  0  0  0  0
 23 22  1  6  0  0  0
 23 24  1  0  0  0  0
 23 21  1  0  0  0  0
 24 30  1  0  0  0  0
 25 31  1  0  0  0  0
 25 27  1  0  0  0  0
 26 31  2  0  0  0  0
 28 25  2  0  0  0  0
 29 26  1  0  0  0  0
 30 29  2  0  0  0  0
 30 28  1  0  0  0  0
M  END
>  <MODEL>
4

>  <REMARK>
 VINA RESULT:      -8.8      2.132      4.665
  Name = 
  10 active torsions:
  status: ('A' for Active; 'I' for Inactive)
    1  A    between atoms: C_2  and  C_13
    2  A    between atoms: C_3  and  C_9
    3  A    between atoms: C_3  and  C_22
    4  A    between atoms: C_4  and  N_12
    5  A    between atoms: C_9  and  C_23
    6  A    between atoms: N_12  and  C_27
    7  A    between atoms: C_13  and  C_28
    8  A    between atoms: C_15  and  C_21
    9  A    between atoms: C_15  and  C_23
   10  A    between atoms: C_27  and  C_28
                            x       y       z     vdW  Elec       q    Type
                         _______ _______ _______ _____ _____    ______ ____

>  <TORSDO>
F 10

$$$$
=
 OpenBabel10262419253D

 31 33  0  0  1  0  0  0  0  0999 V2000
  190.9890  177.1710  139.6400 C   0  0  0  0  0  0  0  0  0  0  0  0
  191.4900  176.6850  138.3340 C   0  0  0  0  0  0  0  0  0  0  0  0
  191.0980  175.9130  136.0650 C   0  0  0  0  0  3  0  0  0  0  0  0
  190.6060  176.3630  137.2930 C   0  0  0  0  0  3  0  0  0  0  0  0
  193.7590  176.8790  139.1880 N   0  0  0  0  0  0  0  0  0  0  0  0
  192.9620  175.3350  134.6470 O   0  0  0  0  0  1  0  0  0  0  0  0
  191.8790  177.4370  140.6300 C   0  0  0  0  0  0  0  0  0  0  0  0
  192.4760  175.7820  135.8680 C   0  0  0  0  0  0  0  0  0  0  0  0
  193.2580  177.3050  140.4010 O   0  0  0  0  0  0  0  0  0  0  0  0
  192.8700  176.5500  138.1260 C   0  0  0  0  0  0  0  0  0  0  0  0
  193.3640  176.1010  136.8990 C   0  0  0  0  0  2  0  0  0  0  0  0
  189.5640  177.2940  139.8080 N   0  0  0  0  0  2  0  0  0  0  0  0
  188.8530  179.0920  138.5110 O   0  0  0  0  0  1  0  0  0  0  0  0
  188.7960  178.5320  139.7870 C   0  0  1  0  0  3  0  0  0  0  0  0
  187.3500  178.2480  140.1460 C   0  0  0  0  0  2  0  0  0  0  0  0
  187.1020  178.5690  141.6090 C   0  0  0  0  0  2  0  0  0  0  0  0
  185.7080  179.1390  141.7940 C   0  0  2  0  0  3  0  0  0  0  0  0
  184.9170  178.2090  142.4400 F   0  0  0  0  0  0  0  0  0  0  0  0
  185.1240  179.4500  140.5010 N   0  0  0  0  0  1  0  0  0  0  0  0
  191.4580  177.8500  142.0020 C   0  0  0  0  0  2  0  0  0  0  0  0
  191.5640  176.6700  142.9590 C   0  0  0  0  0  2  0  0  0  0  0  0
  191.3160  176.1400  145.2770 F   0  0  0  0  0  0  0  0  0  0  0  0
  190.8090  176.9280  144.2560 C   0  0  2  0  0  3  0  0  0  0  0  0
  189.3170  176.6810  144.0760 C   0  0  0  0  0  2  0  0  0  0  0  0
  188.4820  177.9890  147.5320 C   0  0  0  0  0  0  0  0  0  0  0  0
  186.4510  177.9330  146.2140 C   0  0  0  0  0  3  0  0  0  0  0  0
  189.1180  178.2610  148.6960 F   0  0  0  0  0  0  0  0  0  0  0  0
  189.2020  177.4860  146.4440 C   0  0  0  0  0  3  0  0  0  0  0  0
  187.1700  177.4290  145.1260 C   0  0  0  0  0  3  0  0  0  0  0  0
  188.5470  177.2030  145.2400 C   0  0  0  0  0  0  0  0  0  0  0  0
  187.1060  178.2120  147.4170 C   0  0  0  0  0  3  0  0  0  0  0  0
  1 12  1  0  0  0  0
  1  7  2  0  0  0  0
  2  1  1  0  0  0  0
  3  4  1  0  0  0  0
  4  2  2  0  0  0  0
  5  9  1  0  0  0  0
  6  8  1  0  0  0  0
  7 20  1  0  0  0  0
  8  3  2  0  0  0  0
  8 11  1  0  0  0  0
  9  7  1  0  0  0  0
 10  2  1  0  0  0  0
 10  5  2  0  0  0  0
 11 10  1  0  0  0  0
 14 13  1  6  0  0  0
 14 12  1  0  0  0  0
 14 15  1  0  0  0  0
 15 16  1  0  0  0  0
 16 17  1  0  0  0  0
 17 19  1  6  0  0  0
 17 18  1  0  0  0  0
 20 21  1  0  0  0  0
 21 23  1  0  0  0  0
 23 22  1  1  0  0  0
 24 23  1  0  0  0  0
 24 30  1  0  0  0  0
 25 27  1  0  0  0  0
 26 31  2  0  0  0  0
 28 25  2  0  0  0  0
 29 30  2  0  0  0  0
 29 26  1  0  0  0  0
 30 28  1  0  0  0  0
 31 25  1  0  0  0  0
M  END
>  <MODEL>
5

>  <REMARK>
 VINA RESULT:      -8.8      3.667      7.582
  Name = 
  10 active torsions:
  status: ('A' for Active; 'I' for Inactive)
    1  A    between atoms: C_2  and  C_13
    2  A    between atoms: C_3  and  C_9
    3  A    between atoms: C_3  and  C_22
    4  A    between atoms: C_4  and  N_12
    5  A    between atoms: C_9  and  C_23
    6  A    between atoms: N_12  and  C_27
    7  A    between atoms: C_13  and  C_28
    8  A    between atoms: C_15  and  C_21
    9  A    between atoms: C_15  and  C_23
   10  A    between atoms: C_27  and  C_28
                            x       y       z     vdW  Elec       q    Type
                         _______ _______ _______ _____ _____    ______ ____

>  <TORSDO>
F 10

$$$$
=
 OpenBabel10262419253D

 31 33  0  0  1  0  0  0  0  0999 V2000
  186.5330  178.4780  141.7790 C   0  0  0  0  0  0  0  0  0  0  0  0
  185.2420  178.5280  141.0550 C   0  0  0  0  0  0  0  0  0  0  0  0
  182.8130  178.5260  141.0460 C   0  0  0  0  0  3  0  0  0  0  0  0
  184.0220  178.4710  141.7460 C   0  0  0  0  0  3  0  0  0  0  0  0
  186.4750  178.6990  138.9670 N   0  0  0  0  0  0  0  0  0  0  0  0
  181.6130  178.6950  138.9600 O   0  0  0  0  0  1  0  0  0  0  0  0
  187.6890  178.5020  141.0680 C   0  0  0  0  0  0  0  0  0  0  0  0
  182.8150  178.6400  139.6530 C   0  0  0  0  0  0  0  0  0  0  0  0
  187.6610  178.6250  139.6700 O   0  0  0  0  0  0  0  0  0  0  0  0
  185.2320  178.6420  139.6580 C   0  0  0  0  0  0  0  0  0  0  0  0
  184.0260  178.6980  138.9570 C   0  0  0  0  0  2  0  0  0  0  0  0
  186.4930  178.3620  143.2140 N   0  0  0  0  0  2  0  0  0  0  0  0
  187.4940  176.3130  143.6840 O   0  0  0  0  0  1  0  0  0  0  0  0
  186.3990  177.1250  143.9790 C   0  0  1  0  0  3  0  0  0  0  0  0
  186.3900  177.4360  145.4630 C   0  0  0  0  0  2  0  0  0  0  0  0
  186.0540  178.8990  145.6890 C   0  0  0  0  0  2  0  0  0  0  0  0
  184.7160  179.0290  146.3930 C   0  0  2  0  0  3  0  0  0  0  0  0
  184.5520  177.9670  147.2610 F   0  0  0  0  0  0  0  0  0  0  0  0
  183.6400  179.0220  145.4180 N   0  0  0  0  0  1  0  0  0  0  0  0
  189.0310  178.3710  141.7090 C   0  0  0  0  0  2  0  0  0  0  0  0
  189.6890  177.0650  141.2860 C   0  0  0  0  0  2  0  0  0  0  0  0
  190.2470  175.5350  143.0350 F   0  0  0  0  0  0  0  0  0  0  0  0
  190.7290  176.6040  142.2980 C   0  0  2  0  0  3  0  0  0  0  0  0
  191.1390  177.7480  143.2160 C   0  0  0  0  0  2  0  0  0  0  0  0
  191.5840  176.1880  146.6390 C   0  0  0  0  0  0  0  0  0  0  0  0
  189.6380  177.6280  146.6920 C   0  0  0  0  0  3  0  0  0  0  0  0
  192.4300  175.3350  147.2640 F   0  0  0  0  0  0  0  0  0  0  0  0
  191.7870  176.5120  145.2940 C   0  0  0  0  0  3  0  0  0  0  0  0
  189.8400  177.9520  145.3460 C   0  0  0  0  0  3  0  0  0  0  0  0
  190.9140  177.3920  144.6450 C   0  0  0  0  0  0  0  0  0  0  0  0
  190.5090  176.7460  147.3380 C   0  0  0  0  0  3  0  0  0  0  0  0
  1 12  1  0  0  0  0
  2  4  2  0  0  0  0
  2  1  1  0  0  0  0
  3  4  1  0  0  0  0
  5 10  2  0  0  0  0
  5  9  1  0  0  0  0
  6  8  1  0  0  0  0
  7 20  1  0  0  0  0
  7  1  2  0  0  0  0
  8  3  2  0  0  0  0
  9  7  1  0  0  0  0
 10  2  1  0  0  0  0
 11  8  1  0  0  0  0
 11 10  1  0  0  0  0
 12 14  1  0  0  0  0
 14 13  1  1  0  0  0
 14 15  1  0  0  0  0
 15 16  1  0  0  0  0
 16 17  1  0  0  0  0
 17 19  1  6  0  0  0
 17 18  1  0  0  0  0
 21 20  1  0  0  0  0
 21 23  1  0  0  0  0
 23 22  1  1  0  0  0
 23 24  1  0  0  0  0
 24 30  1  0  0  0  0
 25 27  1  0  0  0  0
 25 31  1  0  0  0  0
 26 31  2  0  0  0  0
 28 25  2  0  0  0  0
 29 26  1  0  0  0  0
 30 28  1  0  0  0  0
 30 29  2  0  0  0  0
M  END
>  <MODEL>
6

>  <REMARK>
 VINA RESULT:      -8.7      1.961      4.699
  Name = 
  10 active torsions:
  status: ('A' for Active; 'I' for Inactive)
    1  A    between atoms: C_2  and  C_13
    2  A    between atoms: C_3  and  C_9
    3  A    between atoms: C_3  and  C_22
    4  A    between atoms: C_4  and  N_12
    5  A    between atoms: C_9  and  C_23
    6  A    between atoms: N_12  and  C_27
    7  A    between atoms: C_13  and  C_28
    8  A    between atoms: C_15  and  C_21
    9  A    between atoms: C_15  and  C_23
   10  A    between atoms: C_27  and  C_28
                            x       y       z     vdW  Elec       q    Type
                         _______ _______ _______ _____ _____    ______ ____

>  <TORSDO>
F 10

$$$$
=
 OpenBabel10262419253D

 31 33  0  0  1  0  0  0  0  0999 V2000
  189.2270  177.9070  140.6580 C   0  0  0  0  0  0  0  0  0  0  0  0
  189.9250  177.3840  139.4600 C   0  0  0  0  0  0  0  0  0  0  0  0
  191.8820  176.4120  138.4010 C   0  0  0  0  0  3  0  0  0  0  0  0
  191.2420  176.9090  139.5400 C   0  0  0  0  0  3  0  0  0  0  0  0
  187.9230  177.8370  138.1560 N   0  0  0  0  0  0  0  0  0  0  0  0
  191.8470  175.8920  136.0460 O   0  0  0  0  0  1  0  0  0  0  0  0
  187.9640  178.3880  140.5280 C   0  0  0  0  0  0  0  0  0  0  0  0
  191.2100  176.3860  137.1750 C   0  0  0  0  0  0  0  0  0  0  0  0
  187.3100  178.3410  139.2860 O   0  0  0  0  0  0  0  0  0  0  0  0
  189.2600  177.3530  138.2270 C   0  0  0  0  0  0  0  0  0  0  0  0
  189.8970  176.8560  137.0870 C   0  0  0  0  0  2  0  0  0  0  0  0
  189.9490  177.9190  141.9040 N   0  0  0  0  0  2  0  0  0  0  0  0
  189.2470  175.8060  142.5850 O   0  0  0  0  0  1  0  0  0  0  0  0
  189.7270  177.0340  143.0400 C   0  0  1  0  0  3  0  0  0  0  0  0
  191.0280  176.8180  143.7880 C   0  0  0  0  0  2  0  0  0  0  0  0
  191.0170  177.5990  145.0900 C   0  0  0  0  0  2  0  0  0  0  0  0
  191.6460  176.7780  146.2010 C   0  0  2  0  0  3  0  0  0  0  0  0
  192.0820  175.5720  145.6860 F   0  0  0  0  0  0  0  0  0  0  0  0
  190.6700  176.5280  147.2460 N   0  0  0  0  0  1  0  0  0  0  0  0
  187.2190  179.0100  141.6610 C   0  0  0  0  0  2  0  0  0  0  0  0
  185.7270  179.0340  141.3570 C   0  0  0  0  0  2  0  0  0  0  0  0
  183.9050  177.4960  141.5230 F   0  0  0  0  0  0  0  0  0  0  0  0
  184.9590  178.0510  142.2300 C   0  0  2  0  0  3  0  0  0  0  0  0
  184.4570  178.7280  143.5000 C   0  0  0  0  0  2  0  0  0  0  0  0
  186.1750  179.0310  146.8630 C   0  0  0  0  0  0  0  0  0  0  0  0
  187.1930  177.2080  145.6360 C   0  0  0  0  0  3  0  0  0  0  0  0
  186.0980  179.7970  147.9770 F   0  0  0  0  0  0  0  0  0  0  0  0
  185.3110  179.2710  145.7900 C   0  0  0  0  0  3  0  0  0  0  0  0
  186.3290  177.4480  144.5620 C   0  0  0  0  0  3  0  0  0  0  0  0
  185.3890  178.4810  144.6370 C   0  0  0  0  0  0  0  0  0  0  0  0
  187.1160  177.9990  146.7850 C   0  0  0  0  0  3  0  0  0  0  0  0
  1 12  1  0  0  0  0
  2  4  2  0  0  0  0
  2  1  1  0  0  0  0
  3  4  1  0  0  0  0
  5 10  2  0  0  0  0
  5  9  1  0  0  0  0
  6  8  1  0  0  0  0
  7  1  2  0  0  0  0
  7 20  1  0  0  0  0
  8  3  2  0  0  0  0
  9  7  1  0  0  0  0
 10  2  1  0  0  0  0
 11  8  1  0  0  0  0
 11 10  1  0  0  0  0
 12 14  1  0  0  0  0
 14 13  1  6  0  0  0
 14 15  1  0  0  0  0
 15 16  1  0  0  0  0
 16 17  1  0  0  0  0
 17 18  1  6  0  0  0
 17 19  1  0  0  0  0
 21 20  1  0  0  0  0
 21 23  1  0  0  0  0
 23 22  1  6  0  0  0
 23 24  1  0  0  0  0
 24 30  1  0  0  0  0
 25 27  1  0  0  0  0
 26 31  2  0  0  0  0
 28 25  2  0  0  0  0
 29 30  2  0  0  0  0
 29 26  1  0  0  0  0
 30 28  1  0  0  0  0
 31 25  1  0  0  0  0
M  END
>  <MODEL>
7

>  <REMARK>
 VINA RESULT:      -8.7      2.999      7.143
  Name = 
  10 active torsions:
  status: ('A' for Active; 'I' for Inactive)
    1  A    between atoms: C_2  and  C_13
    2  A    between atoms: C_3  and  C_9
    3  A    between atoms: C_3  and  C_22
    4  A    between atoms: C_4  and  N_12
    5  A    between atoms: C_9  and  C_23
    6  A    between atoms: N_12  and  C_27
    7  A    between atoms: C_13  and  C_28
    8  A    between atoms: C_15  and  C_21
    9  A    between atoms: C_15  and  C_23
   10  A    between atoms: C_27  and  C_28
                            x       y       z     vdW  Elec       q    Type
                         _______ _______ _______ _____ _____    ______ ____

>  <TORSDO>
F 10

$$$$
=
 OpenBabel10262419253D

 31 33  0  0  1  0  0  0  0  0999 V2000
  188.4850  178.2080  140.6840 C   0  0  0  0  0  0  0  0  0  0  0  0
  188.4270  177.6770  139.3020 C   0  0  0  0  0  0  0  0  0  0  0  0
  187.2620  177.3760  137.1920 C   0  0  0  0  0  3  0  0  0  0  0  0
  187.2960  177.8780  138.4960 C   0  0  0  0  0  3  0  0  0  0  0  0
  190.6630  176.7710  139.6080 N   0  0  0  0  0  0  0  0  0  0  0  0
  188.3220  176.1750  135.3890 O   0  0  0  0  0  1  0  0  0  0  0  0
  189.5860  177.9610  141.4400 C   0  0  0  0  0  0  0  0  0  0  0  0
  188.3580  176.6720  136.6840 C   0  0  0  0  0  0  0  0  0  0  0  0
  190.6750  177.2580  140.9000 O   0  0  0  0  0  0  0  0  0  0  0  0
  189.5200  176.9700  138.7830 C   0  0  0  0  0  0  0  0  0  0  0  0
  189.4890  176.4690  137.4800 C   0  0  0  0  0  2  0  0  0  0  0  0
  187.3390  178.9290  141.1740 N   0  0  0  0  0  2  0  0  0  0  0  0
  186.5370  177.4590  142.7910 O   0  0  0  0  0  1  0  0  0  0  0  0
  186.1530  178.3510  141.7900 C   0  0  1  0  0  3  0  0  0  0  0  0
  185.2990  179.4470  142.3960 C   0  0  0  0  0  2  0  0  0  0  0  0
  185.0060  179.1370  143.8530 C   0  0  0  0  0  2  0  0  0  0  0  0
  183.5680  179.4880  144.1870 C   0  0  2  0  0  3  0  0  0  0  0  0
  183.2470  178.9680  145.4260 F   0  0  0  0  0  0  0  0  0  0  0  0
  182.6760  178.9290  143.1870 N   0  0  0  0  0  1  0  0  0  0  0  0
  189.6940  178.3840  142.8670 C   0  0  0  0  0  2  0  0  0  0  0  0
  191.0460  177.9730  143.4340 C   0  0  0  0  0  2  0  0  0  0  0  0
  191.8450  176.2750  144.9150 F   0  0  0  0  0  0  0  0  0  0  0  0
  190.9040  177.2830  144.7850 C   0  0  2  0  0  3  0  0  0  0  0  0
  189.4960  176.7320  144.9690 C   0  0  0  0  0  2  0  0  0  0  0  0
  186.8800  178.2070  147.2790 C   0  0  0  0  0  0  0  0  0  0  0  0
  188.9760  178.0500  148.4830 C   0  0  0  0  0  3  0  0  0  0  0  0
  185.5690  178.5420  147.2460 F   0  0  0  0  0  0  0  0  0  0  0  0
  187.4920  177.6680  146.1430 C   0  0  0  0  0  3  0  0  0  0  0  0
  189.5890  177.5110  147.3470 C   0  0  0  0  0  3  0  0  0  0  0  0
  188.8480  177.3220  146.1750 C   0  0  0  0  0  0  0  0  0  0  0  0
  187.6230  178.3990  148.4490 C   0  0  0  0  0  3  0  0  0  0  0  0
  1 12  1  0  0  0  0
  1  7  2  0  0  0  0
  2  1  1  0  0  0  0
  3  4  1  0  0  0  0
  4  2  2  0  0  0  0
  5  9  1  0  0  0  0
  6  8  1  0  0  0  0
  7 20  1  0  0  0  0
  8  3  2  0  0  0  0
  8 11  1  0  0  0  0
  9  7  1  0  0  0  0
 10  2  1  0  0  0  0
 10  5  2  0  0  0  0
 11 10  1  0  0  0  0
 12 14  1  0  0  0  0
 14 15  1  0  0  0  0
 14 13  1  1  0  0  0
 15 16  1  0  0  0  0
 16 17  1  0  0  0  0
 17 19  1  6  0  0  0
 17 18  1  0  0  0  0
 20 21  1  0  0  0  0
 21 23  1  0  0  0  0
 23 22  1  6  0  0  0
 23 24  1  0  0  0  0
 24 30  1  0  0  0  0
 25 31  1  0  0  0  0
 27 25  1  0  0  0  0
 28 30  1  0  0  0  0
 28 25  2  0  0  0  0
 29 26  1  0  0  0  0
 30 29  2  0  0  0  0
 31 26  2  0  0  0  0
M  END
>  <MODEL>
8

>  <REMARK>
 VINA RESULT:      -8.7      2.616      6.174
  Name = 
  10 active torsions:
  status: ('A' for Active; 'I' for Inactive)
    1  A    between atoms: C_2  and  C_13
    2  A    between atoms: C_3  and  C_9
    3  A    between atoms: C_3  and  C_22
    4  A    between atoms: C_4  and  N_12
    5  A    between atoms: C_9  and  C_23
    6  A    between atoms: N_12  and  C_27
    7  A    between atoms: C_13  and  C_28
    8  A    between atoms: C_15  and  C_21
    9  A    between atoms: C_15  and  C_23
   10  A    between atoms: C_27  and  C_28
                            x       y       z     vdW  Elec       q    Type
                         _______ _______ _______ _____ _____    ______ ____

>  <TORSDO>
F 10

$$$$
=
 OpenBabel10262419253D

 31 33  0  0  1  0  0  0  0  0999 V2000
  184.0670  179.1820  142.4000 C   0  0  0  0  0  0  0  0  0  0  0  0
  182.9140  178.8990  141.5160 C   0  0  0  0  0  0  0  0  0  0  0  0
  181.9560  178.6220  139.3010 C   0  0  0  0  0  3  0  0  0  0  0  0
  183.0550  178.8980  140.1190 C   0  0  0  0  0  3  0  0  0  0  0  0
  181.5280  178.6190  143.4940 N   0  0  0  0  0  0  0  0  0  0  0  0
  179.6210  178.0680  139.0560 O   0  0  0  0  0  1  0  0  0  0  0  0
  183.8780  179.2050  143.7440 C   0  0  0  0  0  0  0  0  0  0  0  0
  180.7100  178.3420  139.8710 C   0  0  0  0  0  0  0  0  0  0  0  0
  182.6180  178.9120  144.2900 O   0  0  0  0  0  0  0  0  0  0  0  0
  181.6600  178.6170  142.0770 C   0  0  0  0  0  0  0  0  0  0  0  0
  180.5620  178.3390  141.2610 C   0  0  0  0  0  2  0  0  0  0  0  0
  185.3360  179.4640  141.7790 N   0  0  0  0  0  2  0  0  0  0  0  0
  186.4200  178.7000  139.8660 O   0  0  0  0  0  1  0  0  0  0  0  0
  186.2690  178.4860  141.2360 C   0  0  1  0  0  3  0  0  0  0  0  0
  187.6160  178.6250  141.9170 C   0  0  0  0  0  2  0  0  0  0  0  0
  188.3910  177.3240  141.8120 C   0  0  0  0  0  2  0  0  0  0  0  0
  189.5460  177.4760  140.8380 C   0  0  2  0  0  3  0  0  0  0  0  0
  189.2220  176.8590  139.6460 F   0  0  0  0  0  0  0  0  0  0  0  0
  190.7410  176.8610  141.3870 N   0  0  0  0  0  1  0  0  0  0  0  0
  184.9630  179.5640  144.7040 C   0  0  0  0  0  2  0  0  0  0  0  0
  185.3000  178.3680  145.5850 C   0  0  0  0  0  2  0  0  0  0  0  0
  186.6780  176.6160  144.7250 F   0  0  0  0  0  0  0  0  0  0  0  0
  186.7130  177.8610  145.3310 C   0  0  2  0  0  3  0  0  0  0  0  0
  187.5130  177.8080  146.6260 C   0  0  0  0  0  2  0  0  0  0  0  0
  191.0470  176.4970  147.0030 C   0  0  0  0  0  0  0  0  0  0  0  0
  190.8870  177.6960  144.9060 C   0  0  0  0  0  3  0  0  0  0  0  0
  191.7750  175.7780  147.8910 F   0  0  0  0  0  0  0  0  0  0  0  0
  189.7030  176.7780  147.2670 C   0  0  0  0  0  3  0  0  0  0  0  0
  189.5430  177.9780  145.1690 C   0  0  0  0  0  3  0  0  0  0  0  0
  188.9500  177.5210  146.3520 C   0  0  0  0  0  0  0  0  0  0  0  0
  191.6390  176.9570  145.8220 C   0  0  0  0  0  3  0  0  0  0  0  0
  1  7  2  0  0  0  0
  2 10  1  0  0  0  0
  2  1  1  0  0  0  0
  3  8  2  0  0  0  0
  3  4  1  0  0  0  0
  4  2  2  0  0  0  0
  5  9  1  0  0  0  0
  6  8  1  0  0  0  0
  7  9  1  0  0  0  0
  7 20  1  0  0  0  0
  8 11  1  0  0  0  0
 10  5  2  0  0  0  0
 11 10  1  0  0  0  0
 12  1  1  0  0  0  0
 14 13  1  6  0  0  0
 14 12  1  0  0  0  0
 14 15  1  0  0  0  0
 16 15  1  0  0  0  0
 17 18  1  6  0  0  0
 17 19  1  0  0  0  0
 17 16  1  0  0  0  0
 20 21  1  0  0  0  0
 23 22  1  1  0  0  0
 23 21  1  0  0  0  0
 23 24  1  0  0  0  0
 25 28  1  0  0  0  0
 25 27  1  0  0  0  0
 26 29  2  0  0  0  0
 26 31  1  0  0  0  0
 29 30  1  0  0  0  0
 30 24  1  0  0  0  0
 30 28  2  0  0  0  0
 31 25  2  0  0  0  0
M  END
>  <MODEL>
9

>  <REMARK>
 VINA RESULT:      -8.6      2.156      2.730
  Name = 
  10 active torsions:
  status: ('A' for Active; 'I' for Inactive)
    1  A    between atoms: C_2  and  C_13
    2  A    between atoms: C_3  and  C_9
    3  A    between atoms: C_3  and  C_22
    4  A    between atoms: C_4  and  N_12
    5  A    between atoms: C_9  and  C_23
    6  A    between atoms: N_12  and  C_27
    7  A    between atoms: C_13  and  C_28
    8  A    between atoms: C_15  and  C_21
    9  A    between atoms: C_15  and  C_23
   10  A    between atoms: C_27  and  C_28
                            x       y       z     vdW  Elec       q    Type
                         _______ _______ _______ _____ _____    ______ ____

>  <TORSDO>
F 10

$$$$
