=
 OpenBabel10262420113D

 27 31  0  0  1  0  0  0  0  0999 V2000
  188.0270  177.9150  141.7220 N   0  0  0  0  0  0  0  0  0  0  0  0
  187.1740  178.9890  141.2070 C   0  0  2  0  0  3  0  0  0  0  0  0
  188.0590  177.8430  139.3010 N   0  0  1  0  0  0  0  0  0  0  0  0
  183.4220  177.7010  139.6930 N   0  0  0  0  0  0  0  0  0  0  0  0
  183.0560  176.6260  137.5310 C   0  0  0  0  0  1  0  0  0  0  0  0
  185.9180  179.3870  142.0370 C   0  0  0  0  0  2  0  0  0  0  0  0
  185.2820  177.6240  138.3200 N   0  0  0  0  0  0  0  0  0  0  0  0
  190.9670  177.2690  139.6650 C   0  0  1  0  0  3  0  0  0  0  0  0
  188.6750  179.2540  137.3790 C   0  0  0  0  0  1  0  0  0  0  0  0
  191.8640  176.2420  139.3690 O   0  0  0  0  0  1  0  0  0  0  0  0
  185.6550  178.1980  139.4120 C   0  0  0  0  0  0  0  0  0  0  0  0
  183.8940  177.3220  138.5410 C   0  0  0  0  0  0  0  0  0  0  0  0
  184.5470  178.3020  140.3050 C   0  0  0  0  0  0  0  0  0  0  0  0
  188.4780  177.1600  140.5500 C   0  0  1  0  0  3  0  0  0  0  0  0
  187.0040  178.7690  139.7070 C   0  0  1  0  0  3  0  0  0  0  0  0
  190.3210  177.7440  138.3800 C   0  0  0  0  0  2  0  0  0  0  0  0
  184.6170  178.8110  141.5290 C   0  0  0  0  0  3  0  0  0  0  0  0
  190.3100  176.1190  141.6090 O   0  0  0  0  0  0  0  0  0  0  0  0
  189.9440  176.7930  140.6590 C   0  0  0  0  0  0  0  0  0  0  0  0
  189.1380  178.6390  138.6920 C   0  0  2  0  0  3  0  0  0  0  0  0
  187.4410  177.0300  142.7520 C   0  0  0  0  0  2  0  0  0  0  0  0
  188.5780  177.7030  146.8580 C   0  0  0  0  0  3  0  0  0  0  0  0
  187.8130  177.3210  144.1850 C   0  0  0  0  0  0  0  0  0  0  0  0
  189.1640  177.2730  144.5480 C   0  0  0  0  0  3  0  0  0  0  0  0
  189.5480  177.4760  145.8770 C   0  0  0  0  0  3  0  0  0  0  0  0
  187.2250  177.7130  146.5110 C   0  0  0  0  0  3  0  0  0  0  0  0
  186.8440  177.5100  145.1810 C   0  0  0  0  0  3  0  0  0  0  0  0
  1 21  1  0  0  0  0
  2  1  1  0  0  0  0
  2  6  1  1  0  0  0
  3 15  1  0  0  0  0
  3 14  1  0  0  0  0
  4 13  1  0  0  0  0
  5 12  1  0  0  0  0
  7 12  1  0  0  0  0
  7 11  2  0  0  0  0
  8 19  1  0  0  0  0
  9 20  1  0  0  0  0
 10  8  1  0  0  0  0
 11 15  1  0  0  0  0
 11 13  1  0  0  0  0
 12  4  2  0  0  0  0
 13 17  2  0  0  0  0
 14 19  1  0  0  0  0
 14  1  1  0  0  0  0
 15  2  1  0  0  0  0
 16 20  1  0  0  0  0
 16  8  1  0  0  0  0
 17  6  1  0  0  0  0
 19 18  2  0  0  0  0
 20  3  1  0  0  0  0
 21 23  1  0  0  0  0
 23 24  2  0  0  0  0
 23 27  1  0  0  0  0
 24 25  1  0  0  0  0
 25 22  2  0  0  0  0
 26 22  1  0  0  0  0
 27 26  2  0  0  0  0
M  END
>  <MODEL>
1

>  <REMARK>
 VINA RESULT:      -7.3      0.000      0.000
  Name = 
  2 active torsions:
  status: ('A' for Active; 'I' for Inactive)
    1  A    between atoms: N_1  and  C_15
    2  A    between atoms: C_9  and  C_15
                            x       y       z     vdW  Elec       q    Type
                         _______ _______ _______ _____ _____    ______ ____

>  <TORSDO>
F 2

$$$$
=
 OpenBabel10262420113D

 27 31  0  0  1  0  0  0  0  0999 V2000
  188.2920  177.7850  142.1670 N   0  0  0  0  0  0  0  0  0  0  0  0
  188.6110  178.4310  140.8930 C   0  0  2  0  0  3  0  0  0  0  0  0
  190.3870  176.8910  141.3440 N   0  0  1  0  0  0  0  0  0  0  0  0
  187.9670  176.0080  137.4650 N   0  0  0  0  0  0  0  0  0  0  0  0
  189.4280  174.2050  136.7050 C   0  0  0  0  0  1  0  0  0  0  0  0
  187.4300  178.8430  139.9640 C   0  0  0  0  0  2  0  0  0  0  0  0
  189.9590  175.8200  138.6250 N   0  0  0  0  0  0  0  0  0  0  0  0
  191.2210  177.0460  144.2070 C   0  0  1  0  0  3  0  0  0  0  0  0
  192.6530  177.6430  140.7410 C   0  0  0  0  0  1  0  0  0  0  0  0
  191.6350  176.1710  145.2130 O   0  0  0  0  0  1  0  0  0  0  0  0
  189.3110  176.7950  139.1640 C   0  0  0  0  0  0  0  0  0  0  0  0
  189.0850  175.3530  137.5840 C   0  0  0  0  0  0  0  0  0  0  0  0
  188.0730  176.9860  138.4820 C   0  0  0  0  0  0  0  0  0  0  0  0
  189.3300  176.7730  142.3790 C   0  0  1  0  0  3  0  0  0  0  0  0
  189.7850  177.6800  140.2720 C   0  0  1  0  0  3  0  0  0  0  0  0
  192.1610  176.9160  143.0260 C   0  0  0  0  0  2  0  0  0  0  0  0
  187.1620  177.8890  138.8240 C   0  0  0  0  0  3  0  0  0  0  0  0
  188.9790  176.5320  144.7000 O   0  0  0  0  0  0  0  0  0  0  0  0
  189.7980  176.7550  143.8210 C   0  0  0  0  0  0  0  0  0  0  0  0
  191.5750  177.6190  141.8170 C   0  0  2  0  0  3  0  0  0  0  0  0
  186.9340  177.2140  142.3070 C   0  0  0  0  0  2  0  0  0  0  0  0
  184.1500  179.2350  144.9090 C   0  0  0  0  0  3  0  0  0  0  0  0
  185.9680  177.9720  143.1840 C   0  0  0  0  0  0  0  0  0  0  0  0
  186.2330  178.0520  144.5560 C   0  0  0  0  0  3  0  0  0  0  0  0
  185.3340  178.6930  145.4160 C   0  0  0  0  0  3  0  0  0  0  0  0
  183.8590  179.1250  143.5470 C   0  0  0  0  0  3  0  0  0  0  0  0
  184.7590  178.4840  142.6900 C   0  0  0  0  0  3  0  0  0  0  0  0
  1 21  1  0  0  0  0
  1 14  1  0  0  0  0
  2  6  1  6  0  0  0
  2  1  1  0  0  0  0
  3 20  1  0  0  0  0
  3 14  1  0  0  0  0
  4 12  2  0  0  0  0
  4 13  1  0  0  0  0
  5 12  1  0  0  0  0
  7 11  2  0  0  0  0
  8 10  1  0  0  0  0
  9 20  1  0  0  0  0
 11 15  1  0  0  0  0
 12  7  1  0  0  0  0
 13 17  2  0  0  0  0
 13 11  1  0  0  0  0
 14 19  1  0  0  0  0
 15  2  1  0  0  0  0
 15  3  1  0  0  0  0
 16  8  1  0  0  0  0
 17  6  1  0  0  0  0
 19  8  1  0  0  0  0
 19 18  2  0  0  0  0
 20 16  1  0  0  0  0
 21 23  1  0  0  0  0
 22 25  1  0  0  0  0
 23 24  1  0  0  0  0
 24 25  2  0  0  0  0
 26 22  2  0  0  0  0
 27 23  2  0  0  0  0
 27 26  1  0  0  0  0
M  END
>  <MODEL>
2

>  <REMARK>
 VINA RESULT:      -7.0      2.589      4.108
  Name = 
  2 active torsions:
  status: ('A' for Active; 'I' for Inactive)
    1  A    between atoms: N_1  and  C_15
    2  A    between atoms: C_9  and  C_15
                            x       y       z     vdW  Elec       q    Type
                         _______ _______ _______ _____ _____    ______ ____

>  <TORSDO>
F 2

$$$$
=
 OpenBabel10262420113D

 27 31  0  0  1  0  0  0  0  0999 V2000
  187.5010  178.0870  143.2270 N   0  0  0  0  0  0  0  0  0  0  0  0
  188.1520  178.8850  142.1860 C   0  0  2  0  0  3  0  0  0  0  0  0
  189.8530  177.5090  143.1570 N   0  0  1  0  0  0  0  0  0  0  0  0
  189.0700  176.7530  138.6300 N   0  0  0  0  0  0  0  0  0  0  0  0
  190.9330  175.2010  138.3450 C   0  0  0  0  0  1  0  0  0  0  0  0
  187.3210  179.2550  140.9210 C   0  0  0  0  0  2  0  0  0  0  0  0
  190.5430  176.6690  140.4110 N   0  0  0  0  0  0  0  0  0  0  0  0
  189.6140  177.4720  146.1340 C   0  0  1  0  0  3  0  0  0  0  0  0
  192.0630  178.5570  143.4420 C   0  0  0  0  0  1  0  0  0  0  0  0
  189.7690  176.5540  147.1730 O   0  0  0  0  0  1  0  0  0  0  0  0
  189.6230  177.5110  140.7350 C   0  0  0  0  0  0  0  0  0  0  0  0
  190.1550  176.2140  139.1040 C   0  0  0  0  0  0  0  0  0  0  0  0
  188.6830  177.6330  139.6680 C   0  0  0  0  0  0  0  0  0  0  0  0
  188.5290  177.1770  143.7410 C   0  0  1  0  0  3  0  0  0  0  0  0
  189.5580  178.3290  141.9840 C   0  0  1  0  0  3  0  0  0  0  0  0
  190.9130  177.5610  145.3590 C   0  0  0  0  0  2  0  0  0  0  0  0
  187.5970  178.3940  139.7110 C   0  0  0  0  0  3  0  0  0  0  0  0
  187.4320  176.6740  145.7680 O   0  0  0  0  0  0  0  0  0  0  0  0
  188.4660  177.0690  145.2510 C   0  0  0  0  0  0  0  0  0  0  0  0
  190.6940  178.3120  144.0600 C   0  0  2  0  0  3  0  0  0  0  0  0
  186.2700  177.3620  142.8440 C   0  0  0  0  0  2  0  0  0  0  0  0
  182.4890  179.2000  143.8060 C   0  0  0  0  0  3  0  0  0  0  0  0
  184.9600  178.0490  143.1400 C   0  0  0  0  0  0  0  0  0  0  0  0
  184.6980  178.4500  144.4550 C   0  0  0  0  0  3  0  0  0  0  0  0
  183.4720  179.0360  144.7860 C   0  0  0  0  0  3  0  0  0  0  0  0
  182.7280  178.7670  142.4990 C   0  0  0  0  0  3  0  0  0  0  0  0
  183.9540  178.1820  142.1710 C   0  0  0  0  0  3  0  0  0  0  0  0
  1 14  1  0  0  0  0
  2  6  1  6  0  0  0
  2  1  1  0  0  0  0
  3 14  1  0  0  0  0
  3 20  1  0  0  0  0
  4 12  2  0  0  0  0
  4 13  1  0  0  0  0
  5 12  1  0  0  0  0
  7 11  2  0  0  0  0
  8 10  1  0  0  0  0
  9 20  1  0  0  0  0
 11 15  1  0  0  0  0
 12  7  1  0  0  0  0
 13 17  2  0  0  0  0
 13 11  1  0  0  0  0
 14 19  1  0  0  0  0
 15  2  1  0  0  0  0
 15  3  1  0  0  0  0
 16  8  1  0  0  0  0
 17  6  1  0  0  0  0
 19 18  2  0  0  0  0
 19  8  1  0  0  0  0
 20 16  1  0  0  0  0
 21 23  1  0  0  0  0
 21  1  1  0  0  0  0
 22 25  1  0  0  0  0
 23 24  1  0  0  0  0
 24 25  2  0  0  0  0
 26 22  2  0  0  0  0
 27 26  1  0  0  0  0
 27 23  2  0  0  0  0
M  END
>  <MODEL>
3

>  <REMARK>
 VINA RESULT:      -6.8      2.825      5.211
  Name = 
  2 active torsions:
  status: ('A' for Active; 'I' for Inactive)
    1  A    between atoms: N_1  and  C_15
    2  A    between atoms: C_9  and  C_15
                            x       y       z     vdW  Elec       q    Type
                         _______ _______ _______ _____ _____    ______ ____

>  <TORSDO>
F 2

$$$$
=
 OpenBabel10262420113D

 27 31  0  0  1  0  0  0  0  0999 V2000
  186.3120  177.9440  141.9950 N   0  0  0  0  0  0  0  0  0  0  0  0
  187.1770  176.9640  142.6540 C   0  0  2  0  0  3  0  0  0  0  0  0
  188.4720  177.9500  140.8980 N   0  0  1  0  0  0  0  0  0  0  0  0
  190.1440  178.6420  145.1880 N   0  0  0  0  0  0  0  0  0  0  0  0
  192.2170  179.6970  144.4440 C   0  0  0  0  0  1  0  0  0  0  0  0
  186.9930  176.7370  144.1840 C   0  0  0  0  0  2  0  0  0  0  0  0
  190.5620  178.4660  142.9200 N   0  0  0  0  0  0  0  0  0  0  0  0
  186.8560  178.1900  138.3980 C   0  0  1  0  0  3  0  0  0  0  0  0
  189.9690  176.4280  139.6710 C   0  0  0  0  0  1  0  0  0  0  0  0
  186.7010  179.0970  137.3490 O   0  0  0  0  0  1  0  0  0  0  0  0
  189.4330  177.8810  143.1320 C   0  0  0  0  0  0  0  0  0  0  0  0
  190.9620  178.9340  144.2190 C   0  0  0  0  0  0  0  0  0  0  0  0
  189.1180  177.9300  144.5220 C   0  0  0  0  0  0  0  0  0  0  0  0
  187.1470  178.6110  140.9920 C   0  0  1  0  0  3  0  0  0  0  0  0
  188.5940  177.1640  142.1240 C   0  0  1  0  0  3  0  0  0  0  0  0
  188.3070  177.7600  138.4660 C   0  0  0  0  0  2  0  0  0  0  0  0
  188.0020  177.4480  145.0540 C   0  0  0  0  0  3  0  0  0  0  0  0
  185.3630  179.4580  139.7010 O   0  0  0  0  0  0  0  0  0  0  0  0
  186.3960  178.8070  139.6900 C   0  0  0  0  0  0  0  0  0  0  0  0
  188.5690  177.0180  139.7620 C   0  0  2  0  0  3  0  0  0  0  0  0
  185.6170  178.9170  142.8650 C   0  0  0  0  0  2  0  0  0  0  0  0
  181.3160  178.6680  143.0720 C   0  0  0  0  0  3  0  0  0  0  0  0
  184.1180  178.7800  142.9730 C   0  0  0  0  0  0  0  0  0  0  0  0
  183.3740  178.6420  141.7950 C   0  0  0  0  0  3  0  0  0  0  0  0
  181.9780  178.5730  141.8440 C   0  0  0  0  0  3  0  0  0  0  0  0
  182.0500  178.8440  144.2470 C   0  0  0  0  0  3  0  0  0  0  0  0
  183.4450  178.9140  144.1960 C   0  0  0  0  0  3  0  0  0  0  0  0
  1  2  1  0  0  0  0
  1 21  1  0  0  0  0
  2  6  1  1  0  0  0
  3 14  1  0  0  0  0
  3 15  1  0  0  0  0
  6 17  1  0  0  0  0
  7 11  2  0  0  0  0
  7 12  1  0  0  0  0
  8 16  1  0  0  0  0
  8 19  1  0  0  0  0
  9 20  1  0  0  0  0
 10  8  1  0  0  0  0
 11 13  1  0  0  0  0
 12  5  1  0  0  0  0
 12  4  2  0  0  0  0
 13 17  2  0  0  0  0
 13  4  1  0  0  0  0
 14  1  1  0  0  0  0
 15  2  1  0  0  0  0
 15 11  1  0  0  0  0
 16 20  1  0  0  0  0
 19 18  2  0  0  0  0
 19 14  1  0  0  0  0
 20  3  1  0  0  0  0
 21 23  1  0  0  0  0
 22 26  1  0  0  0  0
 23 27  1  0  0  0  0
 24 25  1  0  0  0  0
 24 23  2  0  0  0  0
 25 22  2  0  0  0  0
 27 26  2  0  0  0  0
M  END
>  <MODEL>
4

>  <REMARK>
 VINA RESULT:      -6.8      2.637      5.710
  Name = 
  2 active torsions:
  status: ('A' for Active; 'I' for Inactive)
    1  A    between atoms: N_1  and  C_15
    2  A    between atoms: C_9  and  C_15
                            x       y       z     vdW  Elec       q    Type
                         _______ _______ _______ _____ _____    ______ ____

>  <TORSDO>
F 2

$$$$
=
 OpenBabel10262420113D

 27 31  0  0  1  0  0  0  0  0999 V2000
  186.8550  177.8150  142.9990 N   0  0  0  0  0  0  0  0  0  0  0  0
  186.8820  176.7950  144.0490 C   0  0  2  0  0  3  0  0  0  0  0  0
  189.1580  177.2030  143.4310 N   0  0  1  0  0  0  0  0  0  0  0  0
  188.1210  178.2040  147.8590 N   0  0  0  0  0  0  0  0  0  0  0  0
  190.4240  178.6790  148.5170 C   0  0  0  0  0  1  0  0  0  0  0  0
  185.7880  176.8540  145.1560 C   0  0  0  0  0  2  0  0  0  0  0  0
  189.7200  177.5910  146.3050 N   0  0  0  0  0  0  0  0  0  0  0  0
  189.4360  177.3730  140.4630 C   0  0  1  0  0  3  0  0  0  0  0  0
  190.6320  175.2320  143.3610 C   0  0  0  0  0  1  0  0  0  0  0  0
  190.1640  178.1160  139.5320 O   0  0  0  0  0  1  0  0  0  0  0  0
  188.5770  177.2910  145.7920 C   0  0  0  0  0  0  0  0  0  0  0  0
  189.3920  178.1650  147.5800 C   0  0  0  0  0  0  0  0  0  0  0  0
  187.5350  177.6230  146.7090 C   0  0  0  0  0  0  0  0  0  0  0  0
  188.2550  178.1300  142.7040 C   0  0  1  0  0  3  0  0  0  0  0  0
  188.3330  176.6120  144.4830 C   0  0  1  0  0  3  0  0  0  0  0  0
  190.4010  176.6710  141.3950 C   0  0  0  0  0  2  0  0  0  0  0  0
  186.2410  177.4710  146.4590 C   0  0  0  0  0  3  0  0  0  0  0  0
  187.8560  179.1110  140.5960 O   0  0  0  0  0  0  0  0  0  0  0  0
  188.4880  178.2670  141.2130 C   0  0  0  0  0  0  0  0  0  0  0  0
  189.6540  176.1040  142.5870 C   0  0  2  0  0  3  0  0  0  0  0  0
  186.0640  179.0360  143.2710 C   0  0  0  0  0  2  0  0  0  0  0  0
  181.8810  178.8170  142.2430 C   0  0  0  0  0  3  0  0  0  0  0  0
  184.6100  179.0040  142.8700 C   0  0  0  0  0  0  0  0  0  0  0  0
  183.6410  179.2320  143.8540 C   0  0  0  0  0  3  0  0  0  0  0  0
  182.2800  179.1520  143.5400 C   0  0  0  0  0  3  0  0  0  0  0  0
  182.8430  178.5510  141.2650 C   0  0  0  0  0  3  0  0  0  0  0  0
  184.2020  178.6310  141.5810 C   0  0  0  0  0  3  0  0  0  0  0  0
  1 21  1  0  0  0  0
  1  2  1  0  0  0  0
  2 15  1  0  0  0  0
  2  6  1  1  0  0  0
  3 15  1  0  0  0  0
  6 17  1  0  0  0  0
  7 12  1  0  0  0  0
  8 19  1  0  0  0  0
  8 16  1  0  0  0  0
 10  8  1  0  0  0  0
 11  7  2  0  0  0  0
 11 13  1  0  0  0  0
 12  4  2  0  0  0  0
 12  5  1  0  0  0  0
 13  4  1  0  0  0  0
 14  1  1  0  0  0  0
 14  3  1  0  0  0  0
 15 11  1  0  0  0  0
 16 20  1  0  0  0  0
 17 13  2  0  0  0  0
 18 19  2  0  0  0  0
 19 14  1  0  0  0  0
 20  9  1  0  0  0  0
 20  3  1  0  0  0  0
 22 25  1  0  0  0  0
 23 21  1  0  0  0  0
 23 24  1  0  0  0  0
 25 24  2  0  0  0  0
 26 27  1  0  0  0  0
 26 22  2  0  0  0  0
 27 23  2  0  0  0  0
M  END
>  <MODEL>
5

>  <REMARK>
 VINA RESULT:      -6.6      2.445      6.236
  Name = 
  2 active torsions:
  status: ('A' for Active; 'I' for Inactive)
    1  A    between atoms: N_1  and  C_15
    2  A    between atoms: C_9  and  C_15
                            x       y       z     vdW  Elec       q    Type
                         _______ _______ _______ _____ _____    ______ ____

>  <TORSDO>
F 2

$$$$
=
 OpenBabel10262420113D

 27 31  0  0  1  0  0  0  0  0999 V2000
  186.9940  178.1970  143.4710 N   0  0  0  0  0  0  0  0  0  0  0  0
  186.1830  179.2660  142.8860 C   0  0  2  0  0  3  0  0  0  0  0  0
  186.8670  177.8570  141.0750 N   0  0  1  0  0  0  0  0  0  0  0  0
  182.2650  178.0940  141.7400 N   0  0  0  0  0  0  0  0  0  0  0  0
  181.6920  176.8180  139.7390 C   0  0  0  0  0  1  0  0  0  0  0  0
  185.0100  179.8430  143.7340 C   0  0  0  0  0  2  0  0  0  0  0  0
  184.0240  177.7330  140.2840 N   0  0  0  0  0  0  0  0  0  0  0  0
  189.7480  177.1180  141.3400 C   0  0  1  0  0  3  0  0  0  0  0  0
  187.4510  179.0000  138.9740 C   0  0  0  0  0  1  0  0  0  0  0  0
  190.5560  176.0030  141.1120 O   0  0  0  0  0  1  0  0  0  0  0  0
  184.5030  178.3950  141.2810 C   0  0  0  0  0  0  0  0  0  0  0  0
  182.6370  177.5580  140.6150 C   0  0  0  0  0  0  0  0  0  0  0  0
  183.4640  178.6760  142.2170 C   0  0  0  0  0  0  0  0  0  0  0  0
  187.3190  177.2870  142.3690 C   0  0  1  0  0  3  0  0  0  0  0  0
  185.9030  178.8960  141.4320 C   0  0  1  0  0  3  0  0  0  0  0  0
  189.0550  177.4950  140.0470 C   0  0  0  0  0  2  0  0  0  0  0  0
  183.6450  179.3100  143.3680 C   0  0  0  0  0  3  0  0  0  0  0  0
  189.1430  176.2390  143.4360 O   0  0  0  0  0  0  0  0  0  0  0  0
  188.7620  176.8300  142.4370 C   0  0  0  0  0  0  0  0  0  0  0  0
  187.9550  178.5010  140.3210 C   0  0  2  0  0  3  0  0  0  0  0  0
  186.4190  177.4750  144.6260 C   0  0  0  0  0  2  0  0  0  0  0  0
  188.3240  178.2480  148.4170 C   0  0  0  0  0  3  0  0  0  0  0  0
  187.0930  177.6850  145.9590 C   0  0  0  0  0  0  0  0  0  0  0  0
  186.3900  178.3580  146.9650 C   0  0  0  0  0  3  0  0  0  0  0  0
  186.9970  178.6290  148.1960 C   0  0  0  0  0  3  0  0  0  0  0  0
  189.0450  177.6100  147.4050 C   0  0  0  0  0  3  0  0  0  0  0  0
  188.4350  177.3420  146.1760 C   0  0  0  0  0  3  0  0  0  0  0  0
  1 21  1  0  0  0  0
  2  1  1  0  0  0  0
  2  6  1  1  0  0  0
  3 15  1  0  0  0  0
  3 14  1  0  0  0  0
  4 13  1  0  0  0  0
  5 12  1  0  0  0  0
  7 12  1  0  0  0  0
  7 11  2  0  0  0  0
  8 19  1  0  0  0  0
  9 20  1  0  0  0  0
 10  8  1  0  0  0  0
 11 15  1  0  0  0  0
 11 13  1  0  0  0  0
 12  4  2  0  0  0  0
 13 17  2  0  0  0  0
 14 19  1  0  0  0  0
 14  1  1  0  0  0  0
 15  2  1  0  0  0  0
 16 20  1  0  0  0  0
 16  8  1  0  0  0  0
 17  6  1  0  0  0  0
 19 18  2  0  0  0  0
 20  3  1  0  0  0  0
 21 23  1  0  0  0  0
 23 27  2  0  0  0  0
 23 24  1  0  0  0  0
 24 25  2  0  0  0  0
 25 22  1  0  0  0  0
 26 22  2  0  0  0  0
 27 26  1  0  0  0  0
M  END
>  <MODEL>
6

>  <REMARK>
 VINA RESULT:      -6.3      1.536      2.290
  Name = 
  2 active torsions:
  status: ('A' for Active; 'I' for Inactive)
    1  A    between atoms: N_1  and  C_15
    2  A    between atoms: C_9  and  C_15
                            x       y       z     vdW  Elec       q    Type
                         _______ _______ _______ _____ _____    ______ ____

>  <TORSDO>
F 2

$$$$
=
 OpenBabel10262420113D

 27 31  0  0  1  0  0  0  0  0999 V2000
  183.9960  178.1080  139.3740 N   0  0  0  0  0  0  0  0  0  0  0  0
  182.6150  177.8360  138.9710 C   0  0  2  0  0  3  0  0  0  0  0  0
  182.5000  179.2900  140.8690 N   0  0  1  0  0  0  0  0  0  0  0  0
  180.6950  181.0390  136.9490 N   0  0  0  0  0  0  0  0  0  0  0  0
  179.7950  183.0490  138.0050 C   0  0  0  0  0  1  0  0  0  0  0  0
  182.3230  177.6240  137.4550 C   0  0  0  0  0  2  0  0  0  0  0  0
  180.7200  181.0140  139.2620 N   0  0  0  0  0  0  0  0  0  0  0  0
  184.4290  178.4300  142.9800 C   0  0  1  0  0  3  0  0  0  0  0  0
  180.6880  178.8360  142.4730 C   0  0  0  0  0  1  0  0  0  0  0  0
  185.2820  179.0290  143.9080 O   0  0  0  0  0  1  0  0  0  0  0  0
  181.2430  179.9010  138.8770 C   0  0  0  0  0  0  0  0  0  0  0  0
  180.4050  181.6940  138.0360 C   0  0  0  0  0  0  0  0  0  0  0  0
  181.2410  179.8340  137.4520 C   0  0  0  0  0  0  0  0  0  0  0  0
  183.9130  179.0790  140.4690 C   0  0  1  0  0  3  0  0  0  0  0  0
  181.7070  178.7810  139.7510 C   0  0  1  0  0  3  0  0  0  0  0  0
  183.0150  178.9120  143.2280 C   0  0  0  0  0  2  0  0  0  0  0  0
  181.7480  178.8290  136.7490 C   0  0  0  0  0  3  0  0  0  0  0  0
  186.0780  178.6840  141.3210 O   0  0  0  0  0  0  0  0  0  0  0  0
  184.8860  178.7410  141.5810 C   0  0  0  0  0  0  0  0  0  0  0  0
  182.1210  178.5230  142.0670 C   0  0  2  0  0  3  0  0  0  0  0  0
  184.9280  178.5530  138.3160 C   0  0  0  0  0  2  0  0  0  0  0  0
  188.1030  175.9090  137.0800 C   0  0  0  0  0  3  0  0  0  0  0  0
  186.0120  177.5830  137.9160 C   0  0  0  0  0  0  0  0  0  0  0  0
  187.3380  177.8920  138.2410 C   0  0  0  0  0  3  0  0  0  0  0  0
  188.3810  177.0510  137.8370 C   0  0  0  0  0  3  0  0  0  0  0  0
  186.7860  175.6140  136.7190 C   0  0  0  0  0  3  0  0  0  0  0  0
  185.7470  176.4560  137.1240 C   0  0  0  0  0  3  0  0  0  0  0  0
  1 14  1  0  0  0  0
  2  6  1  6  0  0  0
  2  1  1  0  0  0  0
  2 15  1  0  0  0  0
  3 20  1  0  0  0  0
  4 13  1  0  0  0  0
  4 12  2  0  0  0  0
  5 12  1  0  0  0  0
  8 16  1  0  0  0  0
  8 10  1  0  0  0  0
 11  7  2  0  0  0  0
 11 15  1  0  0  0  0
 12  7  1  0  0  0  0
 13 11  1  0  0  0  0
 14  3  1  0  0  0  0
 14 19  1  0  0  0  0
 15  3  1  0  0  0  0
 17 13  2  0  0  0  0
 17  6  1  0  0  0  0
 18 19  2  0  0  0  0
 19  8  1  0  0  0  0
 20  9  1  0  0  0  0
 20 16  1  0  0  0  0
 21  1  1  0  0  0  0
 22 25  1  0  0  0  0
 23 24  1  0  0  0  0
 23 21  1  0  0  0  0
 25 24  2  0  0  0  0
 26 22  2  0  0  0  0
 26 27  1  0  0  0  0
 27 23  2  0  0  0  0
M  END
>  <MODEL>
7

>  <REMARK>
 VINA RESULT:      -5.7      3.436      6.804
  Name = 
  2 active torsions:
  status: ('A' for Active; 'I' for Inactive)
    1  A    between atoms: N_1  and  C_15
    2  A    between atoms: C_9  and  C_15
                            x       y       z     vdW  Elec       q    Type
                         _______ _______ _______ _____ _____    ______ ____

>  <TORSDO>
F 2

$$$$
=
 OpenBabel10262420113D

 27 31  0  0  1  0  0  0  0  0999 V2000
  184.5620  177.7700  138.7800 N   0  0  0  0  0  0  0  0  0  0  0  0
  183.3420  177.1300  138.2830 C   0  0  2  0  0  3  0  0  0  0  0  0
  182.6490  178.7970  139.8560 N   0  0  1  0  0  0  0  0  0  0  0  0
  181.1240  179.4530  135.5060 N   0  0  0  0  0  0  0  0  0  0  0  0
  179.6820  181.3430  136.0660 C   0  0  0  0  0  1  0  0  0  0  0  0
  183.3290  176.6240  136.8100 C   0  0  0  0  0  2  0  0  0  0  0  0
  180.8100  179.7950  137.7710 N   0  0  0  0  0  0  0  0  0  0  0  0
  184.3790  178.7410  142.2890 C   0  0  1  0  0  3  0  0  0  0  0  0
  180.7520  178.1950  141.3060 C   0  0  0  0  0  1  0  0  0  0  0  0
  184.9420  179.6560  143.1800 O   0  0  0  0  0  1  0  0  0  0  0  0
  181.6030  178.7860  137.6590 C   0  0  0  0  0  0  0  0  0  0  0  0
  180.5480  180.1860  136.4140 C   0  0  0  0  0  0  0  0  0  0  0  0
  181.8260  178.4990  136.2790 C   0  0  0  0  0  0  0  0  0  0  0  0
  184.1190  178.8550  139.6600 C   0  0  1  0  0  3  0  0  0  0  0  0
  182.1530  177.9520  138.7710 C   0  0  1  0  0  3  0  0  0  0  0  0
  182.8750  178.9190  142.2870 C   0  0  0  0  0  2  0  0  0  0  0  0
  182.6280  177.5400  135.8350 C   0  0  0  0  0  3  0  0  0  0  0  0
  186.1670  179.1040  140.8040 O   0  0  0  0  0  0  0  0  0  0  0  0
  184.9640  178.9260  140.9170 C   0  0  0  0  0  0  0  0  0  0  0  0
  182.2630  178.1590  141.1250 C   0  0  2  0  0  3  0  0  0  0  0  0
  185.5280  178.2470  137.7670 C   0  0  0  0  0  2  0  0  0  0  0  0
  189.3560  176.2850  137.4440 C   0  0  0  0  0  3  0  0  0  0  0  0
  186.8470  177.5180  137.6950 C   0  0  0  0  0  0  0  0  0  0  0  0
  188.0160  178.2190  138.0150 C   0  0  0  0  0  3  0  0  0  0  0  0
  189.2660  177.6020  137.9030 C   0  0  0  0  0  3  0  0  0  0  0  0
  188.1970  175.5910  137.0850 C   0  0  0  0  0  3  0  0  0  0  0  0
  186.9490  176.2110  137.1980 C   0  0  0  0  0  3  0  0  0  0  0  0
  1 14  1  0  0  0  0
  2  6  1  6  0  0  0
  2 15  1  0  0  0  0
  2  1  1  0  0  0  0
  3 20  1  0  0  0  0
  4 13  1  0  0  0  0
  4 12  2  0  0  0  0
  5 12  1  0  0  0  0
  8 10  1  0  0  0  0
 11  7  2  0  0  0  0
 11 15  1  0  0  0  0
 12  7  1  0  0  0  0
 13 11  1  0  0  0  0
 14  3  1  0  0  0  0
 14 19  1  0  0  0  0
 15  3  1  0  0  0  0
 16  8  1  0  0  0  0
 17 13  2  0  0  0  0
 17  6  1  0  0  0  0
 18 19  2  0  0  0  0
 19  8  1  0  0  0  0
 20  9  1  0  0  0  0
 20 16  1  0  0  0  0
 21  1  1  0  0  0  0
 22 25  1  0  0  0  0
 23 21  1  0  0  0  0
 23 24  1  0  0  0  0
 25 24  2  0  0  0  0
 26 27  1  0  0  0  0
 26 22  2  0  0  0  0
 27 23  2  0  0  0  0
M  END
>  <MODEL>
8

>  <REMARK>
 VINA RESULT:      -5.6      3.513      6.609
  Name = 
  2 active torsions:
  status: ('A' for Active; 'I' for Inactive)
    1  A    between atoms: N_1  and  C_15
    2  A    between atoms: C_9  and  C_15
                            x       y       z     vdW  Elec       q    Type
                         _______ _______ _______ _____ _____    ______ ____

>  <TORSDO>
F 2

$$$$
=
 OpenBabel10262420113D

 27 31  0  0  1  0  0  0  0  0999 V2000
  183.1250  175.8080  137.6720 N   0  0  0  0  0  0  0  0  0  0  0  0
  183.8570  176.7530  136.8260 C   0  0  2  0  0  3  0  0  0  0  0  0
  183.4860  177.8530  138.9190 N   0  0  1  0  0  0  0  0  0  0  0  0
  187.9630  177.2050  137.8150 N   0  0  0  0  0  0  0  0  0  0  0  0
  188.8370  178.4960  139.6940 C   0  0  0  0  0  1  0  0  0  0  0  0
  184.8840  176.1780  135.8050 C   0  0  0  0  0  2  0  0  0  0  0  0
  186.3800  178.4410  138.9620 N   0  0  0  0  0  0  0  0  0  0  0  0
  180.6930  177.3980  139.8740 C   0  0  1  0  0  3  0  0  0  0  0  0
  182.9530  180.2540  138.8010 C   0  0  0  0  0  1  0  0  0  0  0  0
  180.0370  177.1760  141.0860 O   0  0  0  0  0  1  0  0  0  0  0  0
  185.7500  177.8140  138.0290 C   0  0  0  0  0  0  0  0  0  0  0  0
  187.7460  178.0260  138.8010 C   0  0  0  0  0  0  0  0  0  0  0  0
  186.6710  177.0420  137.2600 C   0  0  0  0  0  0  0  0  0  0  0  0
  182.9960  176.4540  138.9810 C   0  0  1  0  0  3  0  0  0  0  0  0
  184.2950  177.9210  137.7040 C   0  0  1  0  0  3  0  0  0  0  0  0
  181.4450  178.7110  139.9550 C   0  0  0  0  0  2  0  0  0  0  0  0
  186.3260  176.2540  136.2500 C   0  0  0  0  0  3  0  0  0  0  0  0
  181.2190  175.1080  139.7520 O   0  0  0  0  0  0  0  0  0  0  0  0
  181.6120  176.2490  139.5640 C   0  0  0  0  0  0  0  0  0  0  0  0
  182.3990  178.8370  138.7830 C   0  0  2  0  0  3  0  0  0  0  0  0
  183.6810  174.4420  137.7870 C   0  0  0  0  0  2  0  0  0  0  0  0
  181.5870  171.2690  135.7490 C   0  0  0  0  0  3  0  0  0  0  0  0
  182.9040  173.3370  137.1160 C   0  0  0  0  0  0  0  0  0  0  0  0
  183.5180  172.0890  136.9590 C   0  0  0  0  0  3  0  0  0  0  0  0
  182.8580  171.0530  136.2890 C   0  0  0  0  0  3  0  0  0  0  0  0
  180.9830  172.5240  135.8680 C   0  0  0  0  0  3  0  0  0  0  0  0
  181.6450  173.5570  136.5380 C   0  0  0  0  0  3  0  0  0  0  0  0
  1 21  1  0  0  0  0
  1 14  1  0  0  0  0
  2  6  1  1  0  0  0
  2  1  1  0  0  0  0
  2 15  1  0  0  0  0
  3 14  1  0  0  0  0
  4 12  2  0  0  0  0
  6 17  1  0  0  0  0
  8 16  1  0  0  0  0
  8 10  1  0  0  0  0
 11  7  2  0  0  0  0
 12  7  1  0  0  0  0
 12  5  1  0  0  0  0
 13  4  1  0  0  0  0
 13 11  1  0  0  0  0
 14 19  1  0  0  0  0
 15 11  1  0  0  0  0
 15  3  1  0  0  0  0
 17 13  2  0  0  0  0
 19 18  2  0  0  0  0
 19  8  1  0  0  0  0
 20  9  1  0  0  0  0
 20  3  1  0  0  0  0
 20 16  1  0  0  0  0
 22 26  2  0  0  0  0
 22 25  1  0  0  0  0
 23 21  1  0  0  0  0
 24 23  1  0  0  0  0
 25 24  2  0  0  0  0
 26 27  1  0  0  0  0
 27 23  2  0  0  0  0
M  END
>  <MODEL>
9

>  <REMARK>
 VINA RESULT:      -5.5      4.410      8.268
  Name = 
  2 active torsions:
  status: ('A' for Active; 'I' for Inactive)
    1  A    between atoms: N_1  and  C_15
    2  A    between atoms: C_9  and  C_15
                            x       y       z     vdW  Elec       q    Type
                         _______ _______ _______ _____ _____    ______ ____

>  <TORSDO>
F 2

$$$$
