=
 OpenBabel10262423233D

 34 39  0  0  1  0  0  0  0  0999 V2000
  186.7190  178.2340  144.2400 C   0  0  0  0  0  0  0  0  0  0  0  0
  188.0120  177.9170  147.6630 C   0  0  0  0  0  3  0  0  0  0  0  0
  185.9260  178.2120  146.8610 O   0  0  0  0  0  0  0  0  0  0  0  0
  186.2580  178.5760  141.9200 C   0  0  0  0  0  0  0  0  0  0  0  0
  187.1030  178.2460  142.9310 N   0  0  0  0  0  0  0  0  0  0  0  0
  184.4910  178.9070  143.5300 C   0  0  0  0  0  0  0  0  0  0  0  0
  183.0640  179.2810  143.7600 C   0  0  0  0  0  1  0  0  0  0  0  0
  184.9400  178.9150  142.2110 C   0  0  0  0  0  3  0  0  0  0  0  0
  186.6940  178.5870  140.5550 N   0  0  0  0  0  2  0  0  0  0  0  0
  185.0150  178.4840  145.9350 C   0  0  0  0  0  0  0  0  0  0  0  0
  185.3850  178.5580  144.5750 C   0  0  0  0  0  0  0  0  0  0  0  0
  183.8300  178.6900  146.3050 O   0  0  0  0  0  0  0  0  0  0  0  0
  189.5020  177.9560  147.6340 C   0  0  0  0  0  2  0  0  0  0  0  0
  190.1000  176.8020  146.9130 C   0  0  0  0  0  0  0  0  0  0  0  0
  189.8020  176.5610  145.6390 C   0  0  0  0  0  3  0  0  0  0  0  0
  187.2050  177.9670  146.5970 C   0  0  0  0  0  0  0  0  0  0  0  0
  188.7730  177.2520  144.8410 C   0  0  0  0  0  3  0  0  0  0  0  0
  187.6330  177.8520  145.2440 C   0  0  0  0  0  0  0  0  0  0  0  0
  190.2430  177.3320  140.5130 C   0  0  0  0  0  3  0  0  0  0  0  0
  188.1860  178.2340  138.7320 C   0  0  0  0  0  3  0  0  0  0  0  0
  191.5040  176.1790  137.1620 N   0  0  0  0  0  0  0  0  0  0  0  0
  192.6090  175.4330  136.6320 C   0  0  0  0  0  0  0  0  0  0  0  0
  191.3970  176.3980  138.5800 C   0  0  0  0  0  3  0  0  0  0  0  0
  192.6720  175.1780  135.4000 O   0  0  0  0  0  0  0  0  0  0  0  0
  190.4260  177.1720  139.0660 C   0  0  0  0  0  0  0  0  0  0  0  0
  193.6500  174.9750  137.4910 N   0  0  0  0  0  1  0  0  0  0  0  0
  189.4490  177.3710  136.7540 C   0  0  0  0  0  3  0  0  0  0  0  0
  189.5380  177.9600  138.1330 C   0  0  1  0  0  3  0  0  0  0  0  0
  190.4190  176.5710  136.3020 C   0  0  0  0  0  3  0  0  0  0  0  0
  187.9960  178.2450  140.0600 C   0  0  0  0  0  0  0  0  0  0  0  0
  189.1010  177.8520  140.9740 C   0  0  0  0  0  3  0  0  0  0  0  0
  191.1080  175.9380  147.6110 C   0  0  2  0  0  3  0  0  0  0  0  0
  192.1590  176.7490  148.2270 C   0  0  0  0  0  2  0  0  0  0  0  0
  192.4230  176.0660  146.9550 N   0  0  0  0  0  2  0  0  0  0  0  0
  1 11  2  0  0  0  0
  1 18  1  0  0  0  0
  4  8  1  0  0  0  0
  4  5  2  0  0  0  0
  5  1  1  0  0  0  0
  6  7  1  0  0  0  0
  6 11  1  0  0  0  0
  8  6  2  0  0  0  0
  9  4  1  0  0  0  0
 10 12  2  0  0  0  0
 10  3  1  0  0  0  0
 11 10  1  0  0  0  0
 13  2  1  0  0  0  0
 14 13  1  0  0  0  0
 15 14  2  0  0  0  0
 16  3  1  0  0  0  0
 16  2  2  0  0  0  0
 17 18  2  0  0  0  0
 17 15  1  0  0  0  0
 18 16  1  0  0  0  0
 19 31  2  0  0  0  0
 20 30  2  0  0  0  0
 21 23  1  0  0  0  0
 22 21  1  0  0  0  0
 22 26  1  0  0  0  0
 23 25  2  0  0  0  0
 24 22  2  0  0  0  0
 25 19  1  0  0  0  0
 28 27  1  6  0  0  0
 28 20  1  0  0  0  0
 28 25  1  0  0  0  0
 29 27  2  0  0  0  0
 29 21  1  0  0  0  0
 30  9  1  0  0  0  0
 30 31  1  0  0  0  0
 32 14  1  6  0  0  0
 32 33  1  0  0  0  0
 34 32  1  0  0  0  0
 34 33  1  0  0  0  0
M  END
>  <MODEL>
1

>  <REMARK>
 VINA RESULT:     -12.0      0.000      0.000
  Name = 
  2 active torsions:
  status: ('A' for Active; 'I' for Inactive)
    1  A    between atoms: C_3  and  C_25
    2  A    between atoms: N_18  and  C_30
                            x       y       z     vdW  Elec       q    Type
                         _______ _______ _______ _____ _____    ______ ____

>  <TORSDO>
F 2

$$$$
=
 OpenBabel10262423233D

 34 39  0  0  1  0  0  0  0  0999 V2000
  184.9210  178.5150  142.8710 C   0  0  0  0  0  0  0  0  0  0  0  0
  185.1730  178.6540  146.5330 C   0  0  0  0  0  3  0  0  0  0  0  0
  183.3980  178.5920  145.1450 O   0  0  0  0  0  0  0  0  0  0  0  0
  185.1300  178.6040  140.4920 C   0  0  0  0  0  0  0  0  0  0  0  0
  185.6700  178.4750  141.7310 N   0  0  0  0  0  0  0  0  0  0  0  0
  182.9420  178.8140  141.4870 C   0  0  0  0  0  0  0  0  0  0  0  0
  181.4780  179.0030  141.2600 C   0  0  0  0  0  1  0  0  0  0  0  0
  183.7570  178.7780  140.3570 C   0  0  0  0  0  3  0  0  0  0  0  0
  185.9460  178.5660  139.3140 N   0  0  0  0  0  2  0  0  0  0  0  0
  182.7760  178.6600  143.9750 C   0  0  0  0  0  0  0  0  0  0  0  0
  183.5200  178.6760  142.7760 C   0  0  0  0  0  0  0  0  0  0  0  0
  181.5190  178.7290  143.9690 O   0  0  0  0  0  0  0  0  0  0  0  0
  186.5920  178.8970  146.9210 C   0  0  0  0  0  2  0  0  0  0  0  0
  187.4990  177.7830  146.5380 C   0  0  0  0  0  0  0  0  0  0  0  0
  187.6180  177.4020  145.2690 C   0  0  0  0  0  3  0  0  0  0  0  0
  184.7160  178.5060  145.2840 C   0  0  0  0  0  0  0  0  0  0  0  0
  186.8010  177.8780  144.1380 C   0  0  0  0  0  3  0  0  0  0  0  0
  185.5340  178.3450  144.1300 C   0  0  0  0  0  0  0  0  0  0  0  0
  189.4710  177.8620  140.4310 C   0  0  0  0  0  3  0  0  0  0  0  0
  187.9330  178.2370  138.0430 C   0  0  0  0  0  3  0  0  0  0  0  0
  191.7720  176.5400  137.7660 N   0  0  0  0  0  0  0  0  0  0  0  0
  193.0590  175.9120  137.6760 C   0  0  0  0  0  0  0  0  0  0  0  0
  191.2340  176.8990  139.0500 C   0  0  0  0  0  3  0  0  0  0  0  0
  193.5050  175.5320  136.5610 O   0  0  0  0  0  0  0  0  0  0  0  0
  190.0830  177.5680  139.1300 C   0  0  0  0  0  0  0  0  0  0  0  0
  193.8490  175.7160  138.8450 N   0  0  0  0  0  1  0  0  0  0  0  0
  189.8040  177.3560  136.6370 C   0  0  0  0  0  3  0  0  0  0  0  0
  189.4220  178.1040  137.8840 C   0  0  1  0  0  3  0  0  0  0  0  0
  190.9470  176.6650  136.5930 C   0  0  0  0  0  3  0  0  0  0  0  0
  187.3650  178.3700  139.2500 C   0  0  0  0  0  0  0  0  0  0  0  0
  188.1930  178.2530  140.4790 C   0  0  0  0  0  3  0  0  0  0  0  0
  188.3440  177.1260  147.5880 C   0  0  2  0  0  3  0  0  0  0  0  0
  188.3030  177.8780  148.8430 C   0  0  0  0  0  2  0  0  0  0  0  0
  189.4660  178.0090  147.9580 N   0  0  0  0  0  2  0  0  0  0  0  0
  1 18  1  0  0  0  0
  2 13  1  0  0  0  0
  3 16  1  0  0  0  0
  4  5  2  0  0  0  0
  5  1  1  0  0  0  0
  6 11  1  0  0  0  0
  7  6  1  0  0  0  0
  8  4  1  0  0  0  0
  8  6  2  0  0  0  0
  9  4  1  0  0  0  0
 10  3  1  0  0  0  0
 11  1  2  0  0  0  0
 11 10  1  0  0  0  0
 12 10  2  0  0  0  0
 14 13  1  0  0  0  0
 15 14  2  0  0  0  0
 16  2  2  0  0  0  0
 17 15  1  0  0  0  0
 18 17  2  0  0  0  0
 18 16  1  0  0  0  0
 19 31  2  0  0  0  0
 20 30  2  0  0  0  0
 21 23  1  0  0  0  0
 22 21  1  0  0  0  0
 22 26  1  0  0  0  0
 23 25  2  0  0  0  0
 24 22  2  0  0  0  0
 25 19  1  0  0  0  0
 28 27  1  6  0  0  0
 28 20  1  0  0  0  0
 28 25  1  0  0  0  0
 29 27  2  0  0  0  0
 29 21  1  0  0  0  0
 30  9  1  0  0  0  0
 30 31  1  0  0  0  0
 32 14  1  6  0  0  0
 32 34  1  0  0  0  0
 32 33  1  0  0  0  0
 34 33  1  0  0  0  0
M  END
>  <MODEL>
2

>  <REMARK>
 VINA RESULT:     -11.8      1.570      2.258
  Name = 
  2 active torsions:
  status: ('A' for Active; 'I' for Inactive)
    1  A    between atoms: C_3  and  C_25
    2  A    between atoms: N_18  and  C_30
                            x       y       z     vdW  Elec       q    Type
                         _______ _______ _______ _____ _____    ______ ____

>  <TORSDO>
F 2

$$$$
=
 OpenBabel10262423233D

 34 39  0  0  1  0  0  0  0  0999 V2000
  184.6300  178.6550  142.2340 C   0  0  0  0  0  0  0  0  0  0  0  0
  185.6050  178.1450  138.7300 C   0  0  0  0  0  3  0  0  0  0  0  0
  183.6640  178.7940  139.6760 O   0  0  0  0  0  0  0  0  0  0  0  0
  184.2980  178.7160  144.6000 C   0  0  0  0  0  0  0  0  0  0  0  0
  185.1020  178.5910  143.5130 N   0  0  0  0  0  0  0  0  0  0  0  0
  182.4000  179.0120  143.1390 C   0  0  0  0  0  0  0  0  0  0  0  0
  180.9280  179.2380  143.0320 C   0  0  0  0  0  1  0  0  0  0  0  0
  182.9330  178.9250  144.4230 C   0  0  0  0  0  3  0  0  0  0  0  0
  184.8220  178.6350  145.9310 N   0  0  0  0  0  2  0  0  0  0  0  0
  182.8150  178.9920  140.6760 C   0  0  0  0  0  0  0  0  0  0  0  0
  183.2530  178.8810  142.0120 C   0  0  0  0  0  0  0  0  0  0  0  0
  181.6160  179.2610  140.3980 O   0  0  0  0  0  0  0  0  0  0  0  0
  186.9490  177.5020  138.6790 C   0  0  0  0  0  2  0  0  0  0  0  0
  188.0270  178.3630  139.2330 C   0  0  0  0  0  0  0  0  0  0  0  0
  187.9750  178.8050  140.4870 C   0  0  0  0  0  3  0  0  0  0  0  0
  184.9530  178.5140  139.8390 C   0  0  0  0  0  0  0  0  0  0  0  0
  186.8380  178.6610  141.4130 C   0  0  0  0  0  3  0  0  0  0  0  0
  185.5190  178.5500  141.1440 C   0  0  0  0  0  0  0  0  0  0  0  0
  187.8580  178.2020  148.1150 C   0  0  0  0  0  3  0  0  0  0  0  0
  187.0740  178.1090  145.3600 C   0  0  0  0  0  3  0  0  0  0  0  0
  190.7670  176.4480  146.4990 N   0  0  0  0  0  0  0  0  0  0  0  0
  192.0030  175.8350  146.8940 C   0  0  0  0  0  0  0  0  0  0  0  0
  189.9020  177.0290  147.4900 C   0  0  0  0  0  3  0  0  0  0  0  0
  192.7310  175.2640  146.0410 O   0  0  0  0  0  0  0  0  0  0  0  0
  188.8010  177.6830  147.1170 C   0  0  0  0  0  0  0  0  0  0  0  0
  192.4220  175.8690  148.2560 N   0  0  0  0  0  1  0  0  0  0  0  0
  189.2310  177.0130  144.7290 C   0  0  0  0  0  3  0  0  0  0  0  0
  188.5410  177.9710  145.6580 C   0  0  1  0  0  3  0  0  0  0  0  0
  190.3130  176.3440  145.1370 C   0  0  0  0  0  3  0  0  0  0  0  0
  186.1930  178.4520  146.3110 C   0  0  0  0  0  0  0  0  0  0  0  0
  186.6350  178.5760  147.7250 C   0  0  0  0  0  3  0  0  0  0  0  0
  189.2240  178.6810  138.3880 C   0  0  2  0  0  3  0  0  0  0  0  0
  189.3190  177.7700  137.2460 C   0  0  0  0  0  2  0  0  0  0  0  0
  190.1770  177.5550  138.4180 N   0  0  0  0  0  2  0  0  0  0  0  0
  1  5  1  0  0  0  0
  2 16  2  0  0  0  0
  3 16  1  0  0  0  0
  3 10  1  0  0  0  0
  4  9  1  0  0  0  0
  5  4  2  0  0  0  0
  6  8  2  0  0  0  0
  7  6  1  0  0  0  0
  8  4  1  0  0  0  0
  9 30  1  0  0  0  0
 10 11  1  0  0  0  0
 11  1  2  0  0  0  0
 11  6  1  0  0  0  0
 12 10  2  0  0  0  0
 13  2  1  0  0  0  0
 13 14  1  0  0  0  0
 14 15  2  0  0  0  0
 15 17  1  0  0  0  0
 16 18  1  0  0  0  0
 18 17  2  0  0  0  0
 18  1  1  0  0  0  0
 20 28  1  0  0  0  0
 20 30  2  0  0  0  0
 21 22  1  0  0  0  0
 21 23  1  0  0  0  0
 22 26  1  0  0  0  0
 24 22  2  0  0  0  0
 25 23  2  0  0  0  0
 25 19  1  0  0  0  0
 27 29  2  0  0  0  0
 28 27  1  6  0  0  0
 28 25  1  0  0  0  0
 29 21  1  0  0  0  0
 30 31  1  0  0  0  0
 31 19  2  0  0  0  0
 32 34  1  0  0  0  0
 32 14  1  1  0  0  0
 33 32  1  0  0  0  0
 33 34  1  0  0  0  0
M  END
>  <MODEL>
3

>  <REMARK>
 VINA RESULT:     -11.2      3.016      7.404
  Name = 
  2 active torsions:
  status: ('A' for Active; 'I' for Inactive)
    1  A    between atoms: C_3  and  C_25
    2  A    between atoms: N_18  and  C_30
                            x       y       z     vdW  Elec       q    Type
                         _______ _______ _______ _____ _____    ______ ____

>  <TORSDO>
F 2

$$$$
=
 OpenBabel10262423233D

 34 39  0  0  1  0  0  0  0  0999 V2000
  186.2200  178.2290  143.4860 C   0  0  0  0  0  0  0  0  0  0  0  0
  182.7350  178.5630  142.3770 C   0  0  0  0  0  3  0  0  0  0  0  0
  183.6850  178.6800  144.4180 O   0  0  0  0  0  0  0  0  0  0  0  0
  188.5380  177.7840  143.8640 C   0  0  0  0  0  0  0  0  0  0  0  0
  187.4880  178.0070  143.0320 N   0  0  0  0  0  0  0  0  0  0  0  0
  187.0620  178.0210  145.7590 C   0  0  0  0  0  0  0  0  0  0  0  0
  186.9250  178.0080  147.2460 C   0  0  0  0  0  1  0  0  0  0  0  0
  188.3340  177.7860  145.2410 C   0  0  0  0  0  3  0  0  0  0  0  0
  189.8570  177.5450  143.3560 N   0  0  0  0  0  2  0  0  0  0  0  0
  184.6610  178.5380  145.3060 C   0  0  0  0  0  0  0  0  0  0  0  0
  185.9750  178.2530  144.8780 C   0  0  0  0  0  0  0  0  0  0  0  0
  184.3770  178.6440  146.5280 O   0  0  0  0  0  0  0  0  0  0  0  0
  182.6350  178.1810  140.9390 C   0  0  0  0  0  2  0  0  0  0  0  0
  183.3890  179.0940  140.0410 C   0  0  0  0  0  0  0  0  0  0  0  0
  184.6990  179.2760  140.1920 C   0  0  0  0  0  3  0  0  0  0  0  0
  183.8580  178.5990  143.1030 C   0  0  0  0  0  0  0  0  0  0  0  0
  185.5260  178.7670  141.3010 C   0  0  0  0  0  3  0  0  0  0  0  0
  185.1750  178.4850  142.5740 C   0  0  0  0  0  0  0  0  0  0  0  0
  192.0700  177.2210  140.3290 C   0  0  0  0  0  3  0  0  0  0  0  0
  189.3120  177.5430  141.0380 C   0  0  0  0  0  3  0  0  0  0  0  0
  190.2990  176.3570  137.1250 N   0  0  0  0  0  0  0  0  0  0  0  0
  190.6320  175.9020  135.8050 C   0  0  0  0  0  0  0  0  0  0  0  0
  191.3380  176.5700  138.0970 C   0  0  0  0  0  3  0  0  0  0  0  0
  189.7230  175.6470  134.9710 O   0  0  0  0  0  0  0  0  0  0  0  0
  191.0410  177.0830  139.2910 C   0  0  0  0  0  0  0  0  0  0  0  0
  191.9950  175.7370  135.4210 N   0  0  0  0  0  1  0  0  0  0  0  0
  188.5940  176.9870  138.7080 C   0  0  0  0  0  3  0  0  0  0  0  0
  189.6540  177.6060  139.5750 C   0  0  1  0  0  3  0  0  0  0  0  0
  188.9210  176.4480  137.5300 C   0  0  0  0  0  3  0  0  0  0  0  0
  190.2650  177.5310  141.9810 C   0  0  0  0  0  0  0  0  0  0  0  0
  191.6970  177.4460  141.5920 C   0  0  0  0  0  3  0  0  0  0  0  0
  182.6770  179.7660  138.9050 C   0  0  2  0  0  3  0  0  0  0  0  0
  181.3250  179.2290  138.7410 C   0  0  0  0  0  2  0  0  0  0  0  0
  182.3950  178.7880  137.8380 N   0  0  0  0  0  2  0  0  0  0  0  0
  1 11  2  0  0  0  0
  2 16  2  0  0  0  0
  3 10  1  0  0  0  0
  4  8  1  0  0  0  0
  5  1  1  0  0  0  0
  5  4  2  0  0  0  0
  6  7  1  0  0  0  0
  8  6  2  0  0  0  0
  9  4  1  0  0  0  0
 10 12  2  0  0  0  0
 11 10  1  0  0  0  0
 11  6  1  0  0  0  0
 13  2  1  0  0  0  0
 14 15  2  0  0  0  0
 14 13  1  0  0  0  0
 15 17  1  0  0  0  0
 16  3  1  0  0  0  0
 17 18  2  0  0  0  0
 18 16  1  0  0  0  0
 18  1  1  0  0  0  0
 19 31  2  0  0  0  0
 20 30  2  0  0  0  0
 21 29  1  0  0  0  0
 21 23  1  0  0  0  0
 22 21  1  0  0  0  0
 23 25  2  0  0  0  0
 24 22  2  0  0  0  0
 25 28  1  0  0  0  0
 25 19  1  0  0  0  0
 26 22  1  0  0  0  0
 28 27  1  6  0  0  0
 28 20  1  0  0  0  0
 29 27  2  0  0  0  0
 30  9  1  0  0  0  0
 31 30  1  0  0  0  0
 32 14  1  1  0  0  0
 33 32  1  0  0  0  0
 34 33  1  0  0  0  0
 34 32  1  0  0  0  0
M  END
>  <MODEL>
4

>  <REMARK>
 VINA RESULT:     -11.2      2.011      5.699
  Name = 
  2 active torsions:
  status: ('A' for Active; 'I' for Inactive)
    1  A    between atoms: C_3  and  C_25
    2  A    between atoms: N_18  and  C_30
                            x       y       z     vdW  Elec       q    Type
                         _______ _______ _______ _____ _____    ______ ____

>  <TORSDO>
F 2

$$$$
=
 OpenBabel10262423233D

 34 39  0  0  1  0  0  0  0  0999 V2000
  188.8510  177.6820  144.7150 C   0  0  0  0  0  0  0  0  0  0  0  0
  191.6860  177.3590  142.4020 C   0  0  0  0  0  3  0  0  0  0  0  0
  191.5500  177.2270  144.6480 O   0  0  0  0  0  0  0  0  0  0  0  0
  186.8350  178.1230  145.9200 C   0  0  0  0  0  0  0  0  0  0  0  0
  187.5060  177.9070  144.7600 N   0  0  0  0  0  0  0  0  0  0  0  0
  188.9020  177.8740  147.1400 C   0  0  0  0  0  0  0  0  0  0  0  0
  189.5750  177.8780  148.4730 C   0  0  0  0  0  1  0  0  0  0  0  0
  187.5290  178.1120  147.1260 C   0  0  0  0  0  3  0  0  0  0  0  0
  185.4220  178.3640  145.9330 N   0  0  0  0  0  2  0  0  0  0  0  0
  190.9690  177.3630  145.8330 C   0  0  0  0  0  0  0  0  0  0  0  0
  189.5900  177.6490  145.9190 C   0  0  0  0  0  0  0  0  0  0  0  0
  191.6810  177.2480  146.8650 O   0  0  0  0  0  0  0  0  0  0  0  0
  191.2520  177.7500  141.0300 C   0  0  0  0  0  2  0  0  0  0  0  0
  190.2190  176.8430  140.4660 C   0  0  0  0  0  0  0  0  0  0  0  0
  189.0560  176.6590  141.0850 C   0  0  0  0  0  3  0  0  0  0  0  0
  190.9070  177.3170  143.4890 C   0  0  0  0  0  0  0  0  0  0  0  0
  188.6940  177.1600  142.4240 C   0  0  0  0  0  3  0  0  0  0  0  0
  189.4880  177.4340  143.4820 C   0  0  0  0  0  0  0  0  0  0  0  0
  182.2900  178.8600  143.9050 C   0  0  0  0  0  3  0  0  0  0  0  0
  185.0680  178.2370  143.5810 C   0  0  0  0  0  3  0  0  0  0  0  0
  182.8250  179.4200  140.2250 N   0  0  0  0  0  0  0  0  0  0  0  0
  182.0740  179.8740  139.0890 C   0  0  0  0  0  0  0  0  0  0  0  0
  182.2040  179.3580  141.5210 C   0  0  0  0  0  3  0  0  0  0  0  0
  182.6310  179.9970  137.9660 O   0  0  0  0  0  0  0  0  0  0  0  0
  182.8690  178.8470  142.5570 C   0  0  0  0  0  0  0  0  0  0  0  0
  180.6900  180.1860  139.2180 N   0  0  0  0  0  1  0  0  0  0  0  0
  184.9240  178.6400  141.1170 C   0  0  0  0  0  3  0  0  0  0  0  0
  184.2050  178.1740  142.3520 C   0  0  1  0  0  3  0  0  0  0  0  0
  184.2390  179.1800  140.1050 C   0  0  0  0  0  3  0  0  0  0  0  0
  184.5380  178.3870  144.8040 C   0  0  0  0  0  0  0  0  0  0  0  0
  183.0790  178.6280  144.9590 C   0  0  0  0  0  3  0  0  0  0  0  0
  190.4630  176.1790  139.1440 C   0  0  2  0  0  3  0  0  0  0  0  0
  191.6320  176.7530  138.4750 C   0  0  0  0  0  2  0  0  0  0  0  0
  190.2860  177.1530  138.0500 N   0  0  0  0  0  2  0  0  0  0  0  0
  1  5  1  0  0  0  0
  1 11  2  0  0  0  0
  2 16  2  0  0  0  0
  3 10  1  0  0  0  0
  4  9  1  0  0  0  0
  4  8  1  0  0  0  0
  5  4  2  0  0  0  0
  6  7  1  0  0  0  0
  8  6  2  0  0  0  0
 10 11  1  0  0  0  0
 10 12  2  0  0  0  0
 11  6  1  0  0  0  0
 13  2  1  0  0  0  0
 14 13  1  0  0  0  0
 14 15  2  0  0  0  0
 15 17  1  0  0  0  0
 16  3  1  0  0  0  0
 17 18  2  0  0  0  0
 18 16  1  0  0  0  0
 18  1  1  0  0  0  0
 19 31  2  0  0  0  0
 20 30  2  0  0  0  0
 21 23  1  0  0  0  0
 22 26  1  0  0  0  0
 22 21  1  0  0  0  0
 23 25  2  0  0  0  0
 24 22  2  0  0  0  0
 25 19  1  0  0  0  0
 28 27  1  6  0  0  0
 28 25  1  0  0  0  0
 28 20  1  0  0  0  0
 29 21  1  0  0  0  0
 29 27  2  0  0  0  0
 30 31  1  0  0  0  0
 30  9  1  0  0  0  0
 32 14  1  1  0  0  0
 33 32  1  0  0  0  0
 34 33  1  0  0  0  0
 34 32  1  0  0  0  0
M  END
>  <MODEL>
5

>  <REMARK>
 VINA RESULT:     -10.9      3.122      7.407
  Name = 
  2 active torsions:
  status: ('A' for Active; 'I' for Inactive)
    1  A    between atoms: C_3  and  C_25
    2  A    between atoms: N_18  and  C_30
                            x       y       z     vdW  Elec       q    Type
                         _______ _______ _______ _____ _____    ______ ____

>  <TORSDO>
F 2

$$$$
=
 OpenBabel10262423233D

 34 39  0  0  1  0  0  0  0  0999 V2000
  182.9480  178.6270  141.8880 C   0  0  0  0  0  0  0  0  0  0  0  0
  183.2650  177.9940  138.2840 C   0  0  0  0  0  3  0  0  0  0  0  0
  181.5230  178.6620  139.5500 O   0  0  0  0  0  0  0  0  0  0  0  0
  183.0580  178.7740  144.2710 C   0  0  0  0  0  0  0  0  0  0  0  0
  183.6490  178.6160  143.0590 N   0  0  0  0  0  0  0  0  0  0  0  0
  180.9180  178.9980  143.1780 C   0  0  0  0  0  0  0  0  0  0  0  0
  179.4490  179.2070  143.3390 C   0  0  0  0  0  1  0  0  0  0  0  0
  181.6820  178.9640  144.3440 C   0  0  0  0  0  3  0  0  0  0  0  0
  183.8220  178.7480  145.4840 N   0  0  0  0  0  2  0  0  0  0  0  0
  180.8700  178.8900  140.6830 C   0  0  0  0  0  0  0  0  0  0  0  0
  181.5500  178.8320  141.9180 C   0  0  0  0  0  0  0  0  0  0  0  0
  179.6370  179.1370  140.6230 O   0  0  0  0  0  0  0  0  0  0  0  0
  184.5860  177.3620  138.0080 C   0  0  0  0  0  2  0  0  0  0  0  0
  185.7340  178.2530  138.3210 C   0  0  0  0  0  0  0  0  0  0  0  0
  185.9090  178.7410  139.5460 C   0  0  0  0  0  3  0  0  0  0  0  0
  182.8240  178.3990  139.4810 C   0  0  0  0  0  0  0  0  0  0  0  0
  184.9650  178.6220  140.6720 C   0  0  0  0  0  3  0  0  0  0  0  0
  183.6210  178.4890  140.6560 C   0  0  0  0  0  0  0  0  0  0  0  0
  187.1990  178.2750  147.0770 C   0  0  0  0  0  3  0  0  0  0  0  0
  185.9530  178.3540  144.4970 C   0  0  0  0  0  3  0  0  0  0  0  0
  189.8300  176.7600  144.8550 N   0  0  0  0  0  0  0  0  0  0  0  0
  191.1310  176.1680  144.9840 C   0  0  0  0  0  0  0  0  0  0  0  0
  189.1340  177.2320  146.0220 C   0  0  0  0  0  3  0  0  0  0  0  0
  191.7150  175.6900  143.9760 O   0  0  0  0  0  0  0  0  0  0  0  0
  187.9690  177.8680  145.8950 C   0  0  0  0  0  0  0  0  0  0  0  0
  191.7780  176.1190  146.2530 N   0  0  0  0  0  1  0  0  0  0  0  0
  187.9970  177.3930  143.4230 C   0  0  0  0  0  3  0  0  0  0  0  0
  187.4530  178.2520  144.5300 C   0  0  1  0  0  3  0  0  0  0  0  0
  189.1500  176.7380  143.5870 C   0  0  0  0  0  3  0  0  0  0  0  0
  185.2420  178.5910  145.6090 C   0  0  0  0  0  0  0  0  0  0  0  0
  185.9180  178.6280  146.9320 C   0  0  0  0  0  3  0  0  0  0  0  0
  186.7490  178.5490  137.2570 C   0  0  2  0  0  3  0  0  0  0  0  0
  186.7200  177.5330  136.2040 C   0  0  0  0  0  2  0  0  0  0  0  0
  187.7720  177.4880  137.2260 N   0  0  0  0  0  2  0  0  0  0  0  0
  1 11  2  0  0  0  0
  1  5  1  0  0  0  0
  2 16  2  0  0  0  0
  3 10  1  0  0  0  0
  4  8  1  0  0  0  0
  4  9  1  0  0  0  0
  5  4  2  0  0  0  0
  6  7  1  0  0  0  0
  6  8  2  0  0  0  0
  9 30  1  0  0  0  0
 10 11  1  0  0  0  0
 11  6  1  0  0  0  0
 12 10  2  0  0  0  0
 13  2  1  0  0  0  0
 13 14  1  0  0  0  0
 14 15  2  0  0  0  0
 15 17  1  0  0  0  0
 16  3  1  0  0  0  0
 16 18  1  0  0  0  0
 18 17  2  0  0  0  0
 18  1  1  0  0  0  0
 20 28  1  0  0  0  0
 20 30  2  0  0  0  0
 21 22  1  0  0  0  0
 21 23  1  0  0  0  0
 22 26  1  0  0  0  0
 24 22  2  0  0  0  0
 25 23  2  0  0  0  0
 25 19  1  0  0  0  0
 27 29  2  0  0  0  0
 28 27  1  6  0  0  0
 28 25  1  0  0  0  0
 29 21  1  0  0  0  0
 30 31  1  0  0  0  0
 31 19  2  0  0  0  0
 32 14  1  1  0  0  0
 33 34  1  0  0  0  0
 33 32  1  0  0  0  0
 34 32  1  0  0  0  0
M  END
>  <MODEL>
6

>  <REMARK>
 VINA RESULT:     -10.8      3.595      7.645
  Name = 
  2 active torsions:
  status: ('A' for Active; 'I' for Inactive)
    1  A    between atoms: C_3  and  C_25
    2  A    between atoms: N_18  and  C_30
                            x       y       z     vdW  Elec       q    Type
                         _______ _______ _______ _____ _____    ______ ____

>  <TORSDO>
F 2

$$$$
=
 OpenBabel10262423233D

 34 39  0  0  1  0  0  0  0  0999 V2000
  188.6110  177.5220  144.6100 C   0  0  0  0  0  0  0  0  0  0  0  0
  185.3820  178.0460  146.2810 C   0  0  0  0  0  3  0  0  0  0  0  0
  187.4810  177.8580  147.0820 O   0  0  0  0  0  0  0  0  0  0  0  0
  190.4870  177.0060  143.2230 C   0  0  0  0  0  0  0  0  0  0  0  0
  189.1850  177.3560  143.3840 N   0  0  0  0  0  0  0  0  0  0  0  0
  190.7570  176.9790  145.6210 C   0  0  0  0  0  0  0  0  0  0  0  0
  191.6800  176.7530  146.7720 C   0  0  0  0  0  1  0  0  0  0  0  0
  191.2880  176.8100  144.3430 C   0  0  0  0  0  3  0  0  0  0  0  0
  191.0580  176.8300  141.9200 N   0  0  0  0  0  2  0  0  0  0  0  0
  188.7770  177.5790  147.0200 C   0  0  0  0  0  0  0  0  0  0  0  0
  189.3950  177.3470  145.7730 C   0  0  0  0  0  0  0  0  0  0  0  0
  189.4260  177.5100  148.0970 O   0  0  0  0  0  0  0  0  0  0  0  0
  184.2800  177.8770  145.2910 C   0  0  0  0  0  2  0  0  0  0  0  0
  184.3020  178.9030  144.2160 C   0  0  0  0  0  0  0  0  0  0  0  0
  185.3650  179.0490  143.4290 C   0  0  0  0  0  3  0  0  0  0  0  0
  186.6920  177.9660  146.0180 C   0  0  0  0  0  0  0  0  0  0  0  0
  186.6670  178.3770  143.5920 C   0  0  0  0  0  3  0  0  0  0  0  0
  187.2610  177.9170  144.7150 C   0  0  0  0  0  0  0  0  0  0  0  0
  190.2010  176.3670  138.2840 C   0  0  0  0  0  3  0  0  0  0  0  0
  189.2730  177.7310  140.6270 C   0  0  0  0  0  3  0  0  0  0  0  0
  186.7080  177.3670  137.3120 N   0  0  0  0  0  0  0  0  0  0  0  0
  185.8140  177.1980  136.2030 C   0  0  0  0  0  0  0  0  0  0  0  0
  188.0240  176.7880  137.2730 C   0  0  0  0  0  3  0  0  0  0  0  0
  184.6380  177.6440  136.2600 O   0  0  0  0  0  0  0  0  0  0  0  0
  188.8890  177.0240  138.2590 C   0  0  0  0  0  0  0  0  0  0  0  0
  186.2480  176.5290  135.0220 N   0  0  0  0  0  1  0  0  0  0  0  0
  187.0910  178.2520  139.5220 C   0  0  0  0  0  3  0  0  0  0  0  0
  188.5660  178.0320  139.3350 C   0  0  1  0  0  3  0  0  0  0  0  0
  186.2400  177.9760  138.5300 C   0  0  0  0  0  3  0  0  0  0  0  0
  190.4040  177.0110  140.6570 C   0  0  0  0  0  0  0  0  0  0  0  0
  190.9160  176.3780  139.4130 C   0  0  0  0  0  3  0  0  0  0  0  0
  183.0820  179.7390  143.9690 C   0  0  2  0  0  3  0  0  0  0  0  0
  181.8610  178.9860  144.2610 C   0  0  0  0  0  2  0  0  0  0  0  0
  182.2890  179.1610  142.8680 N   0  0  0  0  0  2  0  0  0  0  0  0
  1 18  1  0  0  0  0
  1 11  2  0  0  0  0
  4  5  2  0  0  0  0
  4  8  1  0  0  0  0
  5  1  1  0  0  0  0
  6 11  1  0  0  0  0
  6  7  1  0  0  0  0
  8  6  2  0  0  0  0
  9  4  1  0  0  0  0
 10  3  1  0  0  0  0
 10 12  2  0  0  0  0
 11 10  1  0  0  0  0
 13  2  1  0  0  0  0
 14 13  1  0  0  0  0
 15 17  1  0  0  0  0
 15 14  2  0  0  0  0
 16  2  2  0  0  0  0
 16  3  1  0  0  0  0
 17 18  2  0  0  0  0
 18 16  1  0  0  0  0
 19 31  2  0  0  0  0
 20 30  2  0  0  0  0
 21 29  1  0  0  0  0
 22 24  2  0  0  0  0
 22 21  1  0  0  0  0
 23 21  1  0  0  0  0
 23 25  2  0  0  0  0
 25 19  1  0  0  0  0
 25 28  1  0  0  0  0
 26 22  1  0  0  0  0
 28 27  1  1  0  0  0
 28 20  1  0  0  0  0
 29 27  2  0  0  0  0
 30  9  1  0  0  0  0
 31 30  1  0  0  0  0
 32 14  1  1  0  0  0
 32 33  1  0  0  0  0
 34 32  1  0  0  0  0
 34 33  1  0  0  0  0
M  END
>  <MODEL>
7

>  <REMARK>
 VINA RESULT:     -10.6      2.582      5.640
  Name = 
  2 active torsions:
  status: ('A' for Active; 'I' for Inactive)
    1  A    between atoms: C_3  and  C_25
    2  A    between atoms: N_18  and  C_30
                            x       y       z     vdW  Elec       q    Type
                         _______ _______ _______ _____ _____    ______ ____

>  <TORSDO>
F 2

$$$$
=
 OpenBabel10262423233D

 34 39  0  0  1  0  0  0  0  0999 V2000
  186.5890  178.1940  142.9450 C   0  0  0  0  0  0  0  0  0  0  0  0
  187.4770  178.1040  146.5080 C   0  0  0  0  0  3  0  0  0  0  0  0
  185.4960  178.3180  145.4530 O   0  0  0  0  0  0  0  0  0  0  0  0
  186.3990  178.3880  140.5710 C   0  0  0  0  0  0  0  0  0  0  0  0
  187.1220  178.1320  141.6910 N   0  0  0  0  0  0  0  0  0  0  0  0
  184.4540  178.7890  141.9420 C   0  0  0  0  0  0  0  0  0  0  0  0
  183.0070  179.1550  141.9820 C   0  0  0  0  0  1  0  0  0  0  0  0
  185.0540  178.7240  140.6850 C   0  0  0  0  0  3  0  0  0  0  0  0
  186.9910  178.3230  139.2670 N   0  0  0  0  0  2  0  0  0  0  0  0
  184.6970  178.5200  144.4130 C   0  0  0  0  0  0  0  0  0  0  0  0
  185.2220  178.5180  143.1030 C   0  0  0  0  0  0  0  0  0  0  0  0
  183.4750  178.7320  144.6300 O   0  0  0  0  0  0  0  0  0  0  0  0
  188.9600  178.1630  146.6500 C   0  0  0  0  0  2  0  0  0  0  0  0
  189.6470  176.9760  146.0750 C   0  0  0  0  0  0  0  0  0  0  0  0
  189.5010  176.6540  144.7930 C   0  0  0  0  0  3  0  0  0  0  0  0
  186.7990  178.0770  145.3550 C   0  0  0  0  0  0  0  0  0  0  0  0
  188.5670  177.2800  143.8400 C   0  0  0  0  0  3  0  0  0  0  0  0
  187.3820  177.8870  144.0700 C   0  0  0  0  0  0  0  0  0  0  0  0
  190.6040  177.3810  139.7430 C   0  0  0  0  0  3  0  0  0  0  0  0
  188.6320  177.6420  137.6810 C   0  0  0  0  0  3  0  0  0  0  0  0
  192.1760  175.5250  136.8730 N   0  0  0  0  0  0  0  0  0  0  0  0
  193.3610  174.7590  136.6130 C   0  0  0  0  0  0  0  0  0  0  0  0
  191.9530  176.0850  138.1790 C   0  0  0  0  0  3  0  0  0  0  0  0
  193.5300  174.2080  135.4930 O   0  0  0  0  0  0  0  0  0  0  0  0
  190.9020  176.8760  138.3970 C   0  0  0  0  0  0  0  0  0  0  0  0
  194.3620  174.6150  137.6170 N   0  0  0  0  0  1  0  0  0  0  0  0
  190.0870  176.4120  136.0610 C   0  0  0  0  0  3  0  0  0  0  0  0
  190.0380  177.3330  137.2470 C   0  0  1  0  0  3  0  0  0  0  0  0
  191.1350  175.6020  135.8830 C   0  0  0  0  0  3  0  0  0  0  0  0
  188.3450  177.9710  138.9490 C   0  0  0  0  0  0  0  0  0  0  0  0
  189.4020  177.9080  139.9920 C   0  0  0  0  0  3  0  0  0  0  0  0
  190.5730  176.1710  146.9370 C   0  0  2  0  0  3  0  0  0  0  0  0
  191.0450  176.9570  148.0790 C   0  0  0  0  0  2  0  0  0  0  0  0
  191.9230  176.7650  146.9190 N   0  0  0  0  0  2  0  0  0  0  0  0
  1 11  2  0  0  0  0
  1 18  1  0  0  0  0
  2 13  1  0  0  0  0
  4  8  1  0  0  0  0
  4  5  2  0  0  0  0
  5  1  1  0  0  0  0
  6  7  1  0  0  0  0
  6 11  1  0  0  0  0
  8  6  2  0  0  0  0
  9  4  1  0  0  0  0
 10 12  2  0  0  0  0
 10  3  1  0  0  0  0
 11 10  1  0  0  0  0
 14 13  1  0  0  0  0
 15 14  2  0  0  0  0
 16  3  1  0  0  0  0
 16  2  2  0  0  0  0
 17 18  2  0  0  0  0
 17 15  1  0  0  0  0
 18 16  1  0  0  0  0
 19 31  2  0  0  0  0
 20 30  2  0  0  0  0
 21 23  1  0  0  0  0
 22 21  1  0  0  0  0
 22 26  1  0  0  0  0
 23 25  2  0  0  0  0
 24 22  2  0  0  0  0
 25 19  1  0  0  0  0
 28 27  1  6  0  0  0
 28 20  1  0  0  0  0
 28 25  1  0  0  0  0
 29 27  2  0  0  0  0
 29 21  1  0  0  0  0
 30  9  1  0  0  0  0
 30 31  1  0  0  0  0
 32 14  1  6  0  0  0
 32 33  1  0  0  0  0
 34 32  1  0  0  0  0
 34 33  1  0  0  0  0
M  END
>  <MODEL>
8

>  <REMARK>
 VINA RESULT:     -10.3      1.046      1.235
  Name = 
  2 active torsions:
  status: ('A' for Active; 'I' for Inactive)
    1  A    between atoms: C_3  and  C_25
    2  A    between atoms: N_18  and  C_30
                            x       y       z     vdW  Elec       q    Type
                         _______ _______ _______ _____ _____    ______ ____

>  <TORSDO>
F 2

$$$$
=
 OpenBabel10262423233D

 34 39  0  0  1  0  0  0  0  0999 V2000
  188.4390  177.5850  142.8770 C   0  0  0  0  0  0  0  0  0  0  0  0
  191.7940  177.1230  141.4550 C   0  0  0  0  0  3  0  0  0  0  0  0
  191.0010  176.8910  143.5520 O   0  0  0  0  0  0  0  0  0  0  0  0
  186.1970  178.1450  143.4840 C   0  0  0  0  0  0  0  0  0  0  0  0
  187.1590  177.9280  142.5510 N   0  0  0  0  0  0  0  0  0  0  0  0
  187.7950  177.6500  145.2230 C   0  0  0  0  0  0  0  0  0  0  0  0
  188.0490  177.5250  146.6890 C   0  0  0  0  0  1  0  0  0  0  0  0
  186.5070  178.0110  144.8340 C   0  0  0  0  0  3  0  0  0  0  0  0
  184.8620  178.5120  143.1100 N   0  0  0  0  0  2  0  0  0  0  0  0
  190.1110  177.0190  144.5280 C   0  0  0  0  0  0  0  0  0  0  0  0
  188.7910  177.4250  144.2370 C   0  0  0  0  0  0  0  0  0  0  0  0
  190.4810  176.7890  145.7090 O   0  0  0  0  0  0  0  0  0  0  0  0
  191.8080  177.6210  140.0500 C   0  0  0  0  0  2  0  0  0  0  0  0
  190.9220  176.8400  139.1470 C   0  0  0  0  0  0  0  0  0  0  0  0
  189.6180  176.7310  139.3920 C   0  0  0  0  0  3  0  0  0  0  0  0
  190.7310  177.0970  142.2670 C   0  0  0  0  0  0  0  0  0  0  0  0
  188.9200  177.1940  140.6050 C   0  0  0  0  0  3  0  0  0  0  0  0
  189.3890  177.3420  141.8630 C   0  0  0  0  0  0  0  0  0  0  0  0
  184.8000  179.0980  139.3920 C   0  0  0  0  0  3  0  0  0  0  0  0
  183.0760  178.3250  141.5470 C   0  0  0  0  0  3  0  0  0  0  0  0
  181.8350  177.6530  137.5840 N   0  0  0  0  0  0  0  0  0  0  0  0
  181.4340  177.3760  136.2340 C   0  0  0  0  0  0  0  0  0  0  0  0
  183.1220  178.2390  137.8460 C   0  0  0  0  0  3  0  0  0  0  0  0
  180.3380  176.7990  136.0020 O   0  0  0  0  0  0  0  0  0  0  0  0
  183.4580  178.5860  139.0890 C   0  0  0  0  0  0  0  0  0  0  0  0
  182.2670  177.7520  135.1420 N   0  0  0  0  0  1  0  0  0  0  0  0
  181.3210  177.5610  139.9370 C   0  0  0  0  0  3  0  0  0  0  0  0
  182.4380  178.5310  140.2000 C   0  0  1  0  0  3  0  0  0  0  0  0
  181.0250  177.2020  138.6840 C   0  0  0  0  0  3  0  0  0  0  0  0
  184.3500  178.6720  141.7800 C   0  0  0  0  0  0  0  0  0  0  0  0
  185.2080  179.1490  140.6640 C   0  0  0  0  0  3  0  0  0  0  0  0
  191.4920  176.2240  137.9050 C   0  0  2  0  0  3  0  0  0  0  0  0
  190.6740  175.0980  137.4520 C   0  0  0  0  0  2  0  0  0  0  0  0
  191.9230  174.8400  138.1790 N   0  0  0  0  0  2  0  0  0  0  0  0
  1 11  2  0  0  0  0
  2 16  2  0  0  0  0
  3 10  1  0  0  0  0
  4  8  1  0  0  0  0
  5  1  1  0  0  0  0
  5  4  2  0  0  0  0
  6  7  1  0  0  0  0
  8  6  2  0  0  0  0
  9  4  1  0  0  0  0
 10 12  2  0  0  0  0
 11 10  1  0  0  0  0
 11  6  1  0  0  0  0
 13  2  1  0  0  0  0
 14 15  2  0  0  0  0
 14 13  1  0  0  0  0
 15 17  1  0  0  0  0
 16  3  1  0  0  0  0
 17 18  2  0  0  0  0
 18 16  1  0  0  0  0
 18  1  1  0  0  0  0
 19 31  2  0  0  0  0
 20 30  2  0  0  0  0
 21 23  1  0  0  0  0
 21 29  1  0  0  0  0
 22 21  1  0  0  0  0
 23 25  2  0  0  0  0
 24 22  2  0  0  0  0
 25 19  1  0  0  0  0
 25 28  1  0  0  0  0
 26 22  1  0  0  0  0
 28 27  1  6  0  0  0
 28 20  1  0  0  0  0
 29 27  2  0  0  0  0
 30  9  1  0  0  0  0
 31 30  1  0  0  0  0
 32 34  1  0  0  0  0
 32 14  1  1  0  0  0
 33 32  1  0  0  0  0
 33 34  1  0  0  0  0
M  END
>  <MODEL>
9

>  <REMARK>
 VINA RESULT:     -10.0      3.688      7.190
  Name = 
  2 active torsions:
  status: ('A' for Active; 'I' for Inactive)
    1  A    between atoms: C_3  and  C_25
    2  A    between atoms: N_18  and  C_30
                            x       y       z     vdW  Elec       q    Type
                         _______ _______ _______ _____ _____    ______ ____

>  <TORSDO>
F 2

$$$$
