=
 OpenBabel10262423173D

 34 37  0  0  1  0  0  0  0  0999 V2000
  188.0830  177.7570  143.9300 C   0  0  0  0  0  0  0  0  0  0  0  0
  184.9500  178.9710  145.3500 C   0  0  0  0  0  3  0  0  0  0  0  0
  186.5310  177.3870  146.3230 C   0  0  0  0  0  3  0  0  0  0  0  0
  190.1420  177.4480  145.2630 C   0  0  0  0  0  3  0  0  0  0  0  0
  189.9080  177.5790  147.7270 C   0  0  0  0  0  2  0  0  0  0  0  0
  190.7190  177.4340  146.4680 C   0  0  0  0  0  3  0  0  0  0  0  0
  187.8610  177.3070  146.3440 C   0  0  0  0  0  0  0  0  0  0  0  0
  188.6720  177.5130  145.1190 C   0  0  1  0  0  3  0  0  0  0  0  0
  188.5500  176.8860  147.6070 C   0  0  0  0  0  2  0  0  0  0  0  0
  184.0110  179.4090  144.5120 C   0  0  0  0  0  3  0  0  0  0  0  0
  183.6730  178.8070  143.1970 C   0  0  0  0  0  0  0  0  0  0  0  0
  184.6030  178.2640  142.3890 C   0  0  0  0  0  3  0  0  0  0  0  0
  185.7540  177.7450  145.0900 C   0  0  0  0  0  0  0  0  0  0  0  0
  186.0420  178.0770  142.6570 C   0  0  0  0  0  3  0  0  0  0  0  0
  186.6090  177.9030  143.8560 C   0  0  0  0  0  0  0  0  0  0  0  0
  182.3180  178.9290  142.7150 N   0  0  0  0  0  0  0  0  0  0  0  0
  181.9710  178.6640  141.3250 C   0  0  0  0  0  1  0  0  0  0  0  0
  181.2300  179.2830  143.6150 C   0  0  0  0  0  1  0  0  0  0  0  0
  188.8160  177.8850  142.7410 O   0  0  0  0  0  0  0  0  0  0  0  0
  189.3300  176.7720  142.0220 C   0  0  0  0  0  2  0  0  0  0  0  0
  190.6060  177.1710  141.2920 C   0  0  0  0  0  2  0  0  0  0  0  0
  190.9600  176.6620  137.6080 C   0  0  0  0  0  2  0  0  0  0  0  0
  189.0230  176.8960  139.5520 C   0  0  0  0  0  2  0  0  0  0  0  0
  189.8020  177.5910  137.2370 C   0  0  0  0  0  2  0  0  0  0  0  0
  188.5940  177.3920  138.1660 C   0  0  2  0  0  3  0  0  0  0  0  0
  190.3230  177.4680  139.8940 N   0  0  0  0  0  0  0  0  0  0  0  0
  191.3590  176.8110  139.0880 C   0  0  0  0  0  2  0  0  0  0  0  0
  187.9220  178.6090  138.2990 O   0  0  0  0  0  0  0  0  0  0  0  0
  186.8830  178.5590  137.3640 C   0  0  0  0  0  2  0  0  0  0  0  0
  185.6780  177.8060  137.9280 C   0  0  2  0  0  3  0  0  0  0  0  0
  185.1410  176.8060  136.9180 C   0  0  0  0  0  1  0  0  0  0  0  0
  184.5770  178.6970  138.4520 C   0  0  0  0  0  0  0  0  0  0  0  0
  184.8670  179.6540  139.1520 O   0  0  0  0  0  0  0  0  0  0  0  0
  183.1380  178.4710  138.1130 C   0  0  0  0  0  1  0  0  0  0  0  0
  1  8  1  0  0  0  0
  3  7  2  0  0  0  0
  4  6  2  0  0  0  0
  6  5  1  0  0  0  0
  7  9  1  0  0  0  0
  8  4  1  1  0  0  0
  8  7  1  0  0  0  0
  9  5  1  0  0  0  0
 10  2  1  0  0  0  0
 11 10  2  0  0  0  0
 12 14  2  0  0  0  0
 12 11  1  0  0  0  0
 13  2  2  0  0  0  0
 13  3  1  0  0  0  0
 14 15  1  0  0  0  0
 15  1  2  0  0  0  0
 15 13  1  0  0  0  0
 16 11  1  0  0  0  0
 16 18  1  0  0  0  0
 17 16  1  0  0  0  0
 19  1  1  0  0  0  0
 20 19  1  0  0  0  0
 21 20  1  0  0  0  0
 22 27  1  0  0  0  0
 23 26  1  0  0  0  0
 24 22  1  0  0  0  0
 24 25  1  0  0  0  0
 25 28  1  1  0  0  0
 25 23  1  0  0  0  0
 26 21  1  0  0  0  0
 27 26  1  0  0  0  0
 29 30  1  0  0  0  0
 29 28  1  0  0  0  0
 30 31  1  6  0  0  0
 30 32  1  0  0  0  0
 32 33  2  0  0  0  0
 34 32  1  0  0  0  0
M  END
>  <MODEL>
1

>  <REMARK>
 VINA RESULT:      -9.2      0.000      0.000
  Name = 
  9 active torsions:
  status: ('A' for Active; 'I' for Inactive)
    1  A    between atoms: C_1  and  O_9
    2  A    between atoms: N_3  and  C_25
    3  A    between atoms: C_7  and  C_11
    4  A    between atoms: C_7  and  C_29
    5  A    between atoms: C_8  and  O_9
    6  A    between atoms: C_8  and  C_18
    7  A    between atoms: C_18  and  N_30
    8  A    between atoms: O_26  and  C_28
    9  A    between atoms: O_26  and  C_29
                            x       y       z     vdW  Elec       q    Type
                         _______ _______ _______ _____ _____    ______ ____

>  <TORSDO>
F 9

$$$$
=
 OpenBabel10262423173D

 34 37  0  0  1  0  0  0  0  0999 V2000
  187.9490  177.4440  144.6570 C   0  0  0  0  0  0  0  0  0  0  0  0
  184.9190  179.4180  145.1330 C   0  0  0  0  0  3  0  0  0  0  0  0
  186.0770  178.0170  146.7640 C   0  0  0  0  0  3  0  0  0  0  0  0
  189.7480  177.2970  146.3470 C   0  0  0  0  0  3  0  0  0  0  0  0
  189.2400  178.1990  148.6000 C   0  0  0  0  0  2  0  0  0  0  0  0
  190.1620  177.5760  147.5860 C   0  0  0  0  0  3  0  0  0  0  0  0
  187.3610  177.7800  147.0280 C   0  0  0  0  0  0  0  0  0  0  0  0
  188.3390  177.5000  145.9480 C   0  0  1  0  0  3  0  0  0  0  0  0
  187.8090  177.6790  148.4550 C   0  0  0  0  0  2  0  0  0  0  0  0
  184.1780  179.6950  144.0620 C   0  0  0  0  0  3  0  0  0  0  0  0
  183.9050  178.7700  142.9320 C   0  0  0  0  0  0  0  0  0  0  0  0
  184.8200  177.8940  142.4770 C   0  0  0  0  0  3  0  0  0  0  0  0
  185.5280  178.0800  145.3670 C   0  0  0  0  0  0  0  0  0  0  0  0
  186.1640  177.6170  143.0230 C   0  0  0  0  0  3  0  0  0  0  0  0
  186.5420  177.7460  144.3000 C   0  0  0  0  0  0  0  0  0  0  0  0
  182.6600  178.9100  142.2170 N   0  0  0  0  0  0  0  0  0  0  0  0
  181.4140  179.2330  142.9010 C   0  0  0  0  0  1  0  0  0  0  0  0
  182.6060  178.7740  140.7690 C   0  0  0  0  0  1  0  0  0  0  0  0
  188.8330  177.1110  143.6190 O   0  0  0  0  0  0  0  0  0  0  0  0
  189.5450  178.0840  142.8660 C   0  0  0  0  0  2  0  0  0  0  0  0
  190.6400  177.4070  142.0500 C   0  0  0  0  0  2  0  0  0  0  0  0
  188.6470  177.8310  138.9180 C   0  0  0  0  0  2  0  0  0  0  0  0
  191.1780  177.1380  139.7590 C   0  0  0  0  0  2  0  0  0  0  0  0
  189.2250  176.5930  138.2290 C   0  0  0  0  0  2  0  0  0  0  0  0
  190.7420  176.4780  138.4450 C   0  0  2  0  0  3  0  0  0  0  0  0
  190.1220  176.9790  140.7570 N   0  0  0  0  0  0  0  0  0  0  0  0
  189.0060  177.8690  140.4160 C   0  0  0  0  0  2  0  0  0  0  0  0
  191.0930  175.1270  138.4690 O   0  0  0  0  0  0  0  0  0  0  0  0
  191.8350  174.9190  137.3010 C   0  0  0  0  0  2  0  0  0  0  0  0
  193.3120  175.2470  137.5300 C   0  0  2  0  0  3  0  0  0  0  0  0
  193.8550  176.1150  136.4060 C   0  0  0  0  0  1  0  0  0  0  0  0
  194.1890  174.0400  137.7580 C   0  0  0  0  0  0  0  0  0  0  0  0
  193.9860  173.0250  137.1120 O   0  0  0  0  0  0  0  0  0  0  0  0
  195.3280  174.0520  138.7280 C   0  0  0  0  0  1  0  0  0  0  0  0
  1  8  1  0  0  0  0
  2 13  2  0  0  0  0
  3  7  2  0  0  0  0
  4  6  2  0  0  0  0
  6  5  1  0  0  0  0
  7  9  1  0  0  0  0
  8  4  1  6  0  0  0
  8  7  1  0  0  0  0
  9  5  1  0  0  0  0
 10  2  1  0  0  0  0
 11 10  2  0  0  0  0
 12 11  1  0  0  0  0
 12 14  2  0  0  0  0
 13  3  1  0  0  0  0
 14 15  1  0  0  0  0
 15  1  2  0  0  0  0
 15 13  1  0  0  0  0
 16 17  1  0  0  0  0
 16 11  1  0  0  0  0
 18 16  1  0  0  0  0
 19  1  1  0  0  0  0
 20 19  1  0  0  0  0
 21 20  1  0  0  0  0
 22 27  1  0  0  0  0
 23 26  1  0  0  0  0
 24 25  1  0  0  0  0
 24 22  1  0  0  0  0
 25 28  1  1  0  0  0
 25 23  1  0  0  0  0
 26 21  1  0  0  0  0
 27 26  1  0  0  0  0
 29 30  1  0  0  0  0
 29 28  1  0  0  0  0
 30 31  1  6  0  0  0
 30 32  1  0  0  0  0
 32 34  1  0  0  0  0
 33 32  2  0  0  0  0
M  END
>  <MODEL>
2

>  <REMARK>
 VINA RESULT:      -9.1      2.269      4.459
  Name = 
  9 active torsions:
  status: ('A' for Active; 'I' for Inactive)
    1  A    between atoms: C_1  and  O_9
    2  A    between atoms: N_3  and  C_25
    3  A    between atoms: C_7  and  C_11
    4  A    between atoms: C_7  and  C_29
    5  A    between atoms: C_8  and  O_9
    6  A    between atoms: C_8  and  C_18
    7  A    between atoms: C_18  and  N_30
    8  A    between atoms: O_26  and  C_28
    9  A    between atoms: O_26  and  C_29
                            x       y       z     vdW  Elec       q    Type
                         _______ _______ _______ _____ _____    ______ ____

>  <TORSDO>
F 9

$$$$
=
 OpenBabel10262423173D

 34 37  0  0  1  0  0  0  0  0999 V2000
  187.9570  177.8060  143.9650 C   0  0  0  0  0  0  0  0  0  0  0  0
  184.7700  179.0130  145.2670 C   0  0  0  0  0  3  0  0  0  0  0  0
  186.3320  177.4540  146.3120 C   0  0  0  0  0  3  0  0  0  0  0  0
  189.9740  177.5330  145.3680 C   0  0  0  0  0  3  0  0  0  0  0  0
  189.6600  177.6930  147.8210 C   0  0  0  0  0  2  0  0  0  0  0  0
  190.5130  177.5390  146.5900 C   0  0  0  0  0  3  0  0  0  0  0  0
  187.6610  177.3860  146.3770 C   0  0  0  0  0  0  0  0  0  0  0  0
  188.5100  177.5830  145.1760 C   0  0  1  0  0  3  0  0  0  0  0  0
  188.3130  176.9870  147.6660 C   0  0  0  0  0  2  0  0  0  0  0  0
  183.8550  179.4310  144.3940 C   0  0  0  0  0  3  0  0  0  0  0  0
  183.5640  178.8100  143.0770 C   0  0  0  0  0  0  0  0  0  0  0  0
  184.5240  178.2630  142.3070 C   0  0  0  0  0  3  0  0  0  0  0  0
  185.5920  177.7900  145.0500 C   0  0  0  0  0  0  0  0  0  0  0  0
  185.9560  178.0930  142.6230 C   0  0  0  0  0  3  0  0  0  0  0  0
  186.4850  177.9390  143.8420 C   0  0  0  0  0  0  0  0  0  0  0  0
  182.2250  178.9140  142.5510 N   0  0  0  0  0  0  0  0  0  0  0  0
  181.9370  178.7060  141.1380 C   0  0  0  0  0  1  0  0  0  0  0  0
  181.0940  179.1920  143.4240 C   0  0  0  0  0  1  0  0  0  0  0  0
  188.7270  177.9260  142.7980 O   0  0  0  0  0  0  0  0  0  0  0  0
  189.2280  176.8050  142.0820 C   0  0  0  0  0  2  0  0  0  0  0  0
  190.5490  177.1660  141.4140 C   0  0  0  0  0  2  0  0  0  0  0  0
  191.1460  176.6650  137.7600 C   0  0  0  0  0  2  0  0  0  0  0  0
  189.0850  176.8410  139.5800 C   0  0  0  0  0  2  0  0  0  0  0  0
  189.9860  177.5580  137.3150 C   0  0  0  0  0  2  0  0  0  0  0  0
  188.7290  177.3240  138.1680 C   0  0  2  0  0  3  0  0  0  0  0  0
  190.3440  177.4530  140.0000 N   0  0  0  0  0  0  0  0  0  0  0  0
  191.4480  176.8270  139.2620 C   0  0  0  0  0  2  0  0  0  0  0  0
  188.0140  178.5190  138.2560 O   0  0  0  0  0  0  0  0  0  0  0  0
  186.7900  178.1730  138.8400 C   0  0  0  0  0  2  0  0  0  0  0  0
  185.6560  178.2610  137.8180 C   0  0  2  0  0  3  0  0  0  0  0  0
  184.3010  178.2340  138.5080 C   0  0  0  0  0  1  0  0  0  0  0  0
  185.7270  177.2300  136.7180 C   0  0  0  0  0  0  0  0  0  0  0  0
  186.1200  177.5650  135.6120 O   0  0  0  0  0  0  0  0  0  0  0  0
  185.3670  175.7960  136.9420 C   0  0  0  0  0  1  0  0  0  0  0  0
  1  8  1  0  0  0  0
  3  7  2  0  0  0  0
  4  6  2  0  0  0  0
  6  5  1  0  0  0  0
  7  9  1  0  0  0  0
  8  4  1  1  0  0  0
  8  7  1  0  0  0  0
  9  5  1  0  0  0  0
 10  2  1  0  0  0  0
 11 10  2  0  0  0  0
 12 14  2  0  0  0  0
 12 11  1  0  0  0  0
 13  2  2  0  0  0  0
 13  3  1  0  0  0  0
 14 15  1  0  0  0  0
 15  1  2  0  0  0  0
 15 13  1  0  0  0  0
 16 11  1  0  0  0  0
 16 18  1  0  0  0  0
 17 16  1  0  0  0  0
 19  1  1  0  0  0  0
 20 19  1  0  0  0  0
 21 20  1  0  0  0  0
 22 27  1  0  0  0  0
 23 26  1  0  0  0  0
 24 22  1  0  0  0  0
 24 25  1  0  0  0  0
 25 28  1  1  0  0  0
 25 23  1  0  0  0  0
 26 21  1  0  0  0  0
 27 26  1  0  0  0  0
 28 29  1  0  0  0  0
 30 31  1  1  0  0  0
 30 29  1  0  0  0  0
 32 34  1  0  0  0  0
 32 30  1  0  0  0  0
 33 32  2  0  0  0  0
M  END
>  <MODEL>
3

>  <REMARK>
 VINA RESULT:      -8.8      0.715      1.179
  Name = 
  9 active torsions:
  status: ('A' for Active; 'I' for Inactive)
    1  A    between atoms: C_1  and  O_9
    2  A    between atoms: N_3  and  C_25
    3  A    between atoms: C_7  and  C_11
    4  A    between atoms: C_7  and  C_29
    5  A    between atoms: C_8  and  O_9
    6  A    between atoms: C_8  and  C_18
    7  A    between atoms: C_18  and  N_30
    8  A    between atoms: O_26  and  C_28
    9  A    between atoms: O_26  and  C_29
                            x       y       z     vdW  Elec       q    Type
                         _______ _______ _______ _____ _____    ______ ____

>  <TORSDO>
F 9

$$$$
=
 OpenBabel10262423173D

 34 37  0  0  1  0  0  0  0  0999 V2000
  187.9730  177.3850  144.7000 C   0  0  0  0  0  0  0  0  0  0  0  0
  184.9980  179.4430  145.1630 C   0  0  0  0  0  3  0  0  0  0  0  0
  186.1400  178.0530  146.8130 C   0  0  0  0  0  3  0  0  0  0  0  0
  189.7870  177.2330  146.3730 C   0  0  0  0  0  3  0  0  0  0  0  0
  189.3280  178.1980  148.6090 C   0  0  0  0  0  2  0  0  0  0  0  0
  190.2230  177.5300  147.6000 C   0  0  0  0  0  3  0  0  0  0  0  0
  187.4210  177.7900  147.0680 C   0  0  0  0  0  0  0  0  0  0  0  0
  188.3800  177.4620  145.9840 C   0  0  1  0  0  3  0  0  0  0  0  0
  187.8830  177.7110  148.4920 C   0  0  0  0  0  2  0  0  0  0  0  0
  184.2510  179.7140  144.0930 C   0  0  0  0  0  3  0  0  0  0  0  0
  183.9430  178.7700  142.9890 C   0  0  0  0  0  0  0  0  0  0  0  0
  184.8320  177.8610  142.5440 C   0  0  0  0  0  3  0  0  0  0  0  0
  185.5770  178.0960  145.4210 C   0  0  0  0  0  0  0  0  0  0  0  0
  186.1740  177.5650  143.0820 C   0  0  0  0  0  3  0  0  0  0  0  0
  186.5700  177.7130  144.3510 C   0  0  0  0  0  0  0  0  0  0  0  0
  182.6930  178.9240  142.2840 N   0  0  0  0  0  0  0  0  0  0  0  0
  182.6030  178.7630  140.8390 C   0  0  0  0  0  1  0  0  0  0  0  0
  181.4580  179.2080  142.9990 C   0  0  0  0  0  1  0  0  0  0  0  0
  188.8370  177.0070  143.6600 O   0  0  0  0  0  0  0  0  0  0  0  0
  189.5500  177.9450  142.8650 C   0  0  0  0  0  2  0  0  0  0  0  0
  190.5140  177.2130  141.9400 C   0  0  0  0  0  2  0  0  0  0  0  0
  188.6220  178.3130  138.9120 C   0  0  0  0  0  2  0  0  0  0  0  0
  190.9720  177.0620  139.6210 C   0  0  0  0  0  2  0  0  0  0  0  0
  188.9400  177.0570  138.0970 C   0  0  0  0  0  2  0  0  0  0  0  0
  190.4060  176.6270  138.2630 C   0  0  2  0  0  3  0  0  0  0  0  0
  189.9130  177.0190  140.6270 N   0  0  0  0  0  0  0  0  0  0  0  0
  188.9920  178.1380  140.3970 C   0  0  0  0  0  2  0  0  0  0  0  0
  190.4840  175.2370  138.1550 O   0  0  0  0  0  0  0  0  0  0  0  0
  189.4390  174.8770  137.2970 C   0  0  0  0  0  2  0  0  0  0  0  0
  189.5350  173.3990  136.9150 C   0  0  2  0  0  3  0  0  0  0  0  0
  190.5210  173.1960  135.7750 C   0  0  0  0  0  1  0  0  0  0  0  0
  188.2080  172.7470  136.6100 C   0  0  0  0  0  0  0  0  0  0  0  0
  188.1880  171.7040  135.9770 O   0  0  0  0  0  0  0  0  0  0  0  0
  186.9110  173.3160  137.0880 C   0  0  0  0  0  1  0  0  0  0  0  0
  1  8  1  0  0  0  0
  2 13  2  0  0  0  0
  3  7  2  0  0  0  0
  4  6  2  0  0  0  0
  6  5  1  0  0  0  0
  7  9  1  0  0  0  0
  8  4  1  6  0  0  0
  8  7  1  0  0  0  0
  9  5  1  0  0  0  0
 10  2  1  0  0  0  0
 11 10  2  0  0  0  0
 12 11  1  0  0  0  0
 12 14  2  0  0  0  0
 13  3  1  0  0  0  0
 14 15  1  0  0  0  0
 15  1  2  0  0  0  0
 15 13  1  0  0  0  0
 16 11  1  0  0  0  0
 16 18  1  0  0  0  0
 17 16  1  0  0  0  0
 19  1  1  0  0  0  0
 20 19  1  0  0  0  0
 21 20  1  0  0  0  0
 22 27  1  0  0  0  0
 23 26  1  0  0  0  0
 24 25  1  0  0  0  0
 24 22  1  0  0  0  0
 25 28  1  1  0  0  0
 25 23  1  0  0  0  0
 26 21  1  0  0  0  0
 27 26  1  0  0  0  0
 29 28  1  0  0  0  0
 30 31  1  6  0  0  0
 30 29  1  0  0  0  0
 32 30  1  0  0  0  0
 32 34  1  0  0  0  0
 33 32  2  0  0  0  0
M  END
>  <MODEL>
4

>  <REMARK>
 VINA RESULT:      -8.8      2.207      3.169
  Name = 
  9 active torsions:
  status: ('A' for Active; 'I' for Inactive)
    1  A    between atoms: C_1  and  O_9
    2  A    between atoms: N_3  and  C_25
    3  A    between atoms: C_7  and  C_11
    4  A    between atoms: C_7  and  C_29
    5  A    between atoms: C_8  and  O_9
    6  A    between atoms: C_8  and  C_18
    7  A    between atoms: C_18  and  N_30
    8  A    between atoms: O_26  and  C_28
    9  A    between atoms: O_26  and  C_29
                            x       y       z     vdW  Elec       q    Type
                         _______ _______ _______ _____ _____    ______ ____

>  <TORSDO>
F 9

$$$$
=
 OpenBabel10262423173D

 34 37  0  0  1  0  0  0  0  0999 V2000
  186.9740  177.8650  143.5410 C   0  0  0  0  0  0  0  0  0  0  0  0
  187.5170  177.1470  147.0760 C   0  0  0  0  0  3  0  0  0  0  0  0
  185.9940  178.7770  146.0860 C   0  0  0  0  0  3  0  0  0  0  0  0
  184.7370  178.2810  142.5740 C   0  0  0  0  0  3  0  0  0  0  0  0
  182.8750  178.6290  144.1730 C   0  0  0  0  0  2  0  0  0  0  0  0
  183.4330  178.4820  142.7820 C   0  0  0  0  0  3  0  0  0  0  0  0
  185.2120  178.7720  145.0080 C   0  0  0  0  0  0  0  0  0  0  0  0
  185.7010  178.2870  143.6940 C   0  0  0  0  0  0  0  0  0  0  0  0
  183.8420  179.3750  145.0930 C   0  0  0  0  0  2  0  0  0  0  0  0
  188.6880  176.6230  147.4350 C   0  0  0  0  0  2  0  0  0  0  0  0
  190.0130  176.9900  146.8710 C   0  0  0  0  0  0  0  0  0  0  0  0
  190.1830  177.3100  145.5750 C   0  0  0  0  0  3  0  0  0  0  0  0
  187.3980  178.2470  146.0800 C   0  0  0  0  0  0  0  0  0  0  0  0
  189.1500  177.4480  144.5290 C   0  0  0  0  0  3  0  0  0  0  0  0
  187.8750  177.8050  144.7170 C   0  0  0  0  0  0  0  0  0  0  0  0
  191.1750  176.8690  147.7170 N   0  0  0  0  0  0  0  0  0  0  0  0
  192.1660  175.8210  147.5150 C   0  0  0  0  0  1  0  0  0  0  0  0
  191.4270  177.8220  148.7880 C   0  0  0  0  0  1  0  0  0  0  0  0
  187.4900  177.4680  142.2980 O   0  0  0  0  0  0  0  0  0  0  0  0
  188.1760  178.3550  141.4240 C   0  0  0  0  0  2  0  0  0  0  0  0
  188.8930  177.5620  140.3400 C   0  0  0  0  0  2  0  0  0  0  0  0
  188.8320  178.9790  136.8830 C   0  0  0  0  0  2  0  0  0  0  0  0
  188.4120  176.6100  138.2240 C   0  0  0  0  0  2  0  0  0  0  0  0
  187.5690  178.2280  136.4570 C   0  0  0  0  0  2  0  0  0  0  0  0
  187.5830  176.7700  136.9440 C   0  0  2  0  0  3  0  0  0  0  0  0
  188.2910  177.8180  139.0380 N   0  0  0  0  0  0  0  0  0  0  0  0
  189.0590  178.8970  138.4040 C   0  0  0  0  0  2  0  0  0  0  0  0
  186.2700  176.3630  137.1900 O   0  0  0  0  0  0  0  0  0  0  0  0
  185.4760  177.4660  136.8600 C   0  0  0  0  0  2  0  0  0  0  0  0
  184.2470  177.5430  137.7680 C   0  0  2  0  0  3  0  0  0  0  0  0
  182.9660  177.4960  136.9510 C   0  0  0  0  0  1  0  0  0  0  0  0
  184.2470  178.7170  138.7170 C   0  0  0  0  0  0  0  0  0  0  0  0
  185.3060  179.2550  138.9980 O   0  0  0  0  0  0  0  0  0  0  0  0
  182.9870  179.2710  139.3010 C   0  0  0  0  0  1  0  0  0  0  0  0
  1  8  2  0  0  0  0
  1 15  1  0  0  0  0
  2 10  1  0  0  0  0
  4  6  2  0  0  0  0
  4  8  1  0  0  0  0
  5  9  1  0  0  0  0
  6  5  1  0  0  0  0
  7  9  1  0  0  0  0
  7  3  2  0  0  0  0
  8  7  1  0  0  0  0
 11 10  1  0  0  0  0
 11 16  1  0  0  0  0
 12 11  2  0  0  0  0
 13  3  1  0  0  0  0
 13  2  2  0  0  0  0
 14 15  2  0  0  0  0
 14 12  1  0  0  0  0
 15 13  1  0  0  0  0
 16 18  1  0  0  0  0
 17 16  1  0  0  0  0
 19  1  1  0  0  0  0
 20 19  1  0  0  0  0
 21 20  1  0  0  0  0
 22 27  1  0  0  0  0
 23 26  1  0  0  0  0
 24 22  1  0  0  0  0
 24 25  1  0  0  0  0
 25 28  1  1  0  0  0
 25 23  1  0  0  0  0
 26 21  1  0  0  0  0
 27 26  1  0  0  0  0
 29 28  1  0  0  0  0
 29 30  1  0  0  0  0
 30 31  1  6  0  0  0
 30 32  1  0  0  0  0
 32 33  2  0  0  0  0
 32 34  1  0  0  0  0
M  END
>  <MODEL>
5

>  <REMARK>
 VINA RESULT:      -8.7      1.883      5.027
  Name = 
  9 active torsions:
  status: ('A' for Active; 'I' for Inactive)
    1  A    between atoms: C_1  and  O_9
    2  A    between atoms: N_3  and  C_25
    3  A    between atoms: C_7  and  C_11
    4  A    between atoms: C_7  and  C_29
    5  A    between atoms: C_8  and  O_9
    6  A    between atoms: C_8  and  C_18
    7  A    between atoms: C_18  and  N_30
    8  A    between atoms: O_26  and  C_28
    9  A    between atoms: O_26  and  C_29
                            x       y       z     vdW  Elec       q    Type
                         _______ _______ _______ _____ _____    ______ ____

>  <TORSDO>
F 9

$$$$
=
 OpenBabel10262423173D

 34 37  0  0  1  0  0  0  0  0999 V2000
  187.9370  177.4730  144.5030 C   0  0  0  0  0  0  0  0  0  0  0  0
  184.9020  179.4040  145.1030 C   0  0  0  0  0  3  0  0  0  0  0  0
  186.1150  177.9770  146.6690 C   0  0  0  0  0  3  0  0  0  0  0  0
  189.7800  177.3050  146.1420 C   0  0  0  0  0  3  0  0  0  0  0  0
  189.3230  178.1480  148.4280 C   0  0  0  0  0  2  0  0  0  0  0  0
  190.2240  177.5590  147.3760 C   0  0  0  0  0  3  0  0  0  0  0  0
  187.4070  177.7470  146.8950 C   0  0  0  0  0  0  0  0  0  0  0  0
  188.3600  177.5030  145.7830 C   0  0  1  0  0  3  0  0  0  0  0  0
  187.8930  177.6170  148.3070 C   0  0  0  0  0  2  0  0  0  0  0  0
  184.1300  179.6990  144.0580 C   0  0  0  0  0  3  0  0  0  0  0  0
  183.8370  178.7980  142.9140 C   0  0  0  0  0  0  0  0  0  0  0  0
  184.7490  177.9420  142.4150 C   0  0  0  0  0  3  0  0  0  0  0  0
  185.5300  178.0670  145.2890 C   0  0  0  0  0  0  0  0  0  0  0  0
  186.1090  177.6670  142.9200 C   0  0  0  0  0  3  0  0  0  0  0  0
  186.5190  177.7690  144.1880 C   0  0  0  0  0  0  0  0  0  0  0  0
  182.5730  178.9420  142.2340 N   0  0  0  0  0  0  0  0  0  0  0  0
  182.4750  178.9110  140.7810 C   0  0  0  0  0  1  0  0  0  0  0  0
  181.3310  179.0840  142.9800 C   0  0  0  0  0  1  0  0  0  0  0  0
  188.7970  177.1740  143.4350 O   0  0  0  0  0  0  0  0  0  0  0  0
  189.4010  178.1730  142.6220 C   0  0  0  0  0  2  0  0  0  0  0  0
  190.8240  177.7600  142.2670 C   0  0  0  0  0  2  0  0  0  0  0  0
  192.6340  176.7690  139.1520 C   0  0  0  0  0  2  0  0  0  0  0  0
  190.2080  176.4240  140.4100 C   0  0  0  0  0  2  0  0  0  0  0  0
  191.4190  176.9360  138.2370 C   0  0  0  0  0  2  0  0  0  0  0  0
  190.1420  176.3710  138.8790 C   0  0  2  0  0  3  0  0  0  0  0  0
  190.9640  177.6030  140.8250 N   0  0  0  0  0  0  0  0  0  0  0  0
  192.3880  177.3790  140.5450 C   0  0  0  0  0  2  0  0  0  0  0  0
  189.0470  177.1160  138.4380 O   0  0  0  0  0  0  0  0  0  0  0  0
  188.3170  176.2480  137.6200 C   0  0  0  0  0  2  0  0  0  0  0  0
  187.4020  177.0300  136.6760 C   0  0  2  0  0  3  0  0  0  0  0  0
  188.1040  177.3220  135.3600 C   0  0  0  0  0  1  0  0  0  0  0  0
  186.8190  178.2880  137.2740 C   0  0  0  0  0  0  0  0  0  0  0  0
  187.1830  179.3730  136.8490 O   0  0  0  0  0  0  0  0  0  0  0  0
  185.7800  178.2540  138.3490 C   0  0  0  0  0  1  0  0  0  0  0  0
  1  8  1  0  0  0  0
  2 13  2  0  0  0  0
  3  7  2  0  0  0  0
  4  6  2  0  0  0  0
  6  5  1  0  0  0  0
  7  9  1  0  0  0  0
  8  4  1  6  0  0  0
  8  7  1  0  0  0  0
  9  5  1  0  0  0  0
 10  2  1  0  0  0  0
 11 10  2  0  0  0  0
 12 11  1  0  0  0  0
 12 14  2  0  0  0  0
 13  3  1  0  0  0  0
 14 15  1  0  0  0  0
 15  1  2  0  0  0  0
 15 13  1  0  0  0  0
 16 11  1  0  0  0  0
 16 18  1  0  0  0  0
 17 16  1  0  0  0  0
 19  1  1  0  0  0  0
 20 19  1  0  0  0  0
 21 20  1  0  0  0  0
 22 27  1  0  0  0  0
 23 26  1  0  0  0  0
 24 25  1  0  0  0  0
 24 22  1  0  0  0  0
 25 28  1  6  0  0  0
 25 23  1  0  0  0  0
 26 21  1  0  0  0  0
 27 26  1  0  0  0  0
 29 28  1  0  0  0  0
 30 31  1  6  0  0  0
 30 32  1  0  0  0  0
 30 29  1  0  0  0  0
 32 34  1  0  0  0  0
 33 32  2  0  0  0  0
M  END
>  <MODEL>
6

>  <REMARK>
 VINA RESULT:      -8.7      1.229      1.597
  Name = 
  9 active torsions:
  status: ('A' for Active; 'I' for Inactive)
    1  A    between atoms: C_1  and  O_9
    2  A    between atoms: N_3  and  C_25
    3  A    between atoms: C_7  and  C_11
    4  A    between atoms: C_7  and  C_29
    5  A    between atoms: C_8  and  O_9
    6  A    between atoms: C_8  and  C_18
    7  A    between atoms: C_18  and  N_30
    8  A    between atoms: O_26  and  C_28
    9  A    between atoms: O_26  and  C_29
                            x       y       z     vdW  Elec       q    Type
                         _______ _______ _______ _____ _____    ______ ____

>  <TORSDO>
F 9

$$$$
=
 OpenBabel10262423173D

 34 37  0  0  1  0  0  0  0  0999 V2000
  187.6980  178.3090  142.4680 C   0  0  0  0  0  0  0  0  0  0  0  0
  184.9050  178.8550  144.7500 C   0  0  0  0  0  3  0  0  0  0  0  0
  186.8200  177.3690  145.0400 C   0  0  0  0  0  3  0  0  0  0  0  0
  190.0400  178.0820  143.2260 C   0  0  0  0  0  3  0  0  0  0  0  0
  190.4040  177.7990  145.6620 C   0  0  0  0  0  2  0  0  0  0  0  0
  190.8930  177.9600  144.2470 C   0  0  0  0  0  3  0  0  0  0  0  0
  188.1160  177.4670  144.7470 C   0  0  0  0  0  0  0  0  0  0  0  0
  188.5810  177.9680  143.4300 C   0  0  1  0  0  3  0  0  0  0  0  0
  189.1300  176.9540  145.7250 C   0  0  0  0  0  2  0  0  0  0  0  0
  183.7530  179.2850  144.2380 C   0  0  0  0  0  3  0  0  0  0  0  0
  183.1630  178.8520  142.9460 C   0  0  0  0  0  0  0  0  0  0  0  0
  183.9150  178.5710  141.8650 C   0  0  0  0  0  3  0  0  0  0  0  0
  185.7350  177.8040  144.0990 C   0  0  0  0  0  0  0  0  0  0  0  0
  185.3870  178.5420  141.7650 C   0  0  0  0  0  3  0  0  0  0  0  0
  186.2440  178.2640  142.7540 C   0  0  0  0  0  0  0  0  0  0  0  0
  181.7260  178.8620  142.8110 N   0  0  0  0  0  0  0  0  0  0  0  0
  181.0790  178.9450  141.5090 C   0  0  0  0  0  1  0  0  0  0  0  0
  180.8620  178.7460  143.9760 C   0  0  0  0  0  1  0  0  0  0  0  0
  188.1030  178.7180  141.1880 O   0  0  0  0  0  0  0  0  0  0  0  0
  188.4670  177.8050  140.1610 C   0  0  0  0  0  2  0  0  0  0  0  0
  189.0630  178.5630  138.9820 C   0  0  0  0  0  2  0  0  0  0  0  0
  188.3540  177.8080  135.3910 C   0  0  0  0  0  2  0  0  0  0  0  0
  187.4430  177.2000  137.9190 C   0  0  0  0  0  2  0  0  0  0  0  0
  186.8330  177.8660  135.5450 C   0  0  0  0  0  2  0  0  0  0  0  0
  186.3640  177.1650  136.8290 C   0  0  2  0  0  3  0  0  0  0  0  0
  188.2030  178.4440  137.8120 N   0  0  0  0  0  0  0  0  0  0  0  0
  189.0740  178.3680  136.6330 C   0  0  0  0  0  2  0  0  0  0  0  0
  185.2140  177.8020  137.2980 O   0  0  0  0  0  0  0  0  0  0  0  0
  184.3000  176.7730  137.5490 C   0  0  0  0  0  2  0  0  0  0  0  0
  182.9090  177.3400  137.8370 C   0  0  2  0  0  3  0  0  0  0  0  0
  182.9960  178.7890  138.2880 C   0  0  0  0  0  1  0  0  0  0  0  0
  182.0890  176.5170  138.8020 C   0  0  0  0  0  0  0  0  0  0  0  0
  182.6260  176.0590  139.7980 O   0  0  0  0  0  0  0  0  0  0  0  0
  180.6280  176.2710  138.6020 C   0  0  0  0  0  1  0  0  0  0  0  0
  1 15  2  0  0  0  0
  1  8  1  0  0  0  0
  4  6  2  0  0  0  0
  5  9  1  0  0  0  0
  6  5  1  0  0  0  0
  7  3  2  0  0  0  0
  7  9  1  0  0  0  0
  8  4  1  1  0  0  0
  8  7  1  0  0  0  0
 10  2  1  0  0  0  0
 11 10  2  0  0  0  0
 12 11  1  0  0  0  0
 13  2  2  0  0  0  0
 13  3  1  0  0  0  0
 14 12  2  0  0  0  0
 14 15  1  0  0  0  0
 15 13  1  0  0  0  0
 16 11  1  0  0  0  0
 16 18  1  0  0  0  0
 17 16  1  0  0  0  0
 19  1  1  0  0  0  0
 20 19  1  0  0  0  0
 21 20  1  0  0  0  0
 22 24  1  0  0  0  0
 22 27  1  0  0  0  0
 24 25  1  0  0  0  0
 25 28  1  1  0  0  0
 25 23  1  0  0  0  0
 26 23  1  0  0  0  0
 26 21  1  0  0  0  0
 27 26  1  0  0  0  0
 28 29  1  0  0  0  0
 29 30  1  0  0  0  0
 30 31  1  1  0  0  0
 30 32  1  0  0  0  0
 32 33  2  0  0  0  0
 34 32  1  0  0  0  0
M  END
>  <MODEL>
7

>  <REMARK>
 VINA RESULT:      -8.3      1.654      2.380
  Name = 
  9 active torsions:
  status: ('A' for Active; 'I' for Inactive)
    1  A    between atoms: C_1  and  O_9
    2  A    between atoms: N_3  and  C_25
    3  A    between atoms: C_7  and  C_11
    4  A    between atoms: C_7  and  C_29
    5  A    between atoms: C_8  and  O_9
    6  A    between atoms: C_8  and  C_18
    7  A    between atoms: C_18  and  N_30
    8  A    between atoms: O_26  and  C_28
    9  A    between atoms: O_26  and  C_29
                            x       y       z     vdW  Elec       q    Type
                         _______ _______ _______ _____ _____    ______ ____

>  <TORSDO>
F 9

$$$$
=
 OpenBabel10262423173D

 34 37  0  0  1  0  0  0  0  0999 V2000
  188.3130  177.8860  143.2780 C   0  0  0  0  0  0  0  0  0  0  0  0
  185.3310  178.8190  145.1600 C   0  0  0  0  0  3  0  0  0  0  0  0
  187.0880  177.2500  145.8000 C   0  0  0  0  0  3  0  0  0  0  0  0
  190.5330  177.5850  144.3230 C   0  0  0  0  0  3  0  0  0  0  0  0
  190.6010  177.5110  146.8000 C   0  0  0  0  0  2  0  0  0  0  0  0
  191.2550  177.5070  145.4440 C   0  0  0  0  0  3  0  0  0  0  0  0
  188.4110  177.2390  145.6540 C   0  0  0  0  0  0  0  0  0  0  0  0
  189.0550  177.5830  144.3620 C   0  0  1  0  0  3  0  0  0  0  0  0
  189.2700  176.7580  146.7860 C   0  0  0  0  0  2  0  0  0  0  0  0
  184.2770  179.2700  144.4800 C   0  0  0  0  0  3  0  0  0  0  0  0
  183.8050  178.7550  143.1700 C   0  0  0  0  0  0  0  0  0  0  0  0
  184.6500  178.3260  142.2130 C   0  0  0  0  0  3  0  0  0  0  0  0
  186.1490  177.6620  144.7040 C   0  0  0  0  0  0  0  0  0  0  0  0
  186.1180  178.1960  142.2900 C   0  0  0  0  0  3  0  0  0  0  0  0
  186.8370  177.9600  143.3930 C   0  0  0  0  0  0  0  0  0  0  0  0
  182.3970  178.8420  142.8660 N   0  0  0  0  0  0  0  0  0  0  0  0
  181.9000  178.7560  141.5000 C   0  0  0  0  0  1  0  0  0  0  0  0
  181.4070  178.9790  143.9250 C   0  0  0  0  0  1  0  0  0  0  0  0
  188.8870  178.1460  142.0230 O   0  0  0  0  0  0  0  0  0  0  0  0
  189.0690  177.1440  141.0320 C   0  0  0  0  0  2  0  0  0  0  0  0
  189.5200  177.7850  139.7250 C   0  0  0  0  0  2  0  0  0  0  0  0
  186.3940  178.2640  137.7350 C   0  0  0  0  0  2  0  0  0  0  0  0
  189.1160  178.0050  137.4010 C   0  0  0  0  0  2  0  0  0  0  0  0
  186.8050  177.3040  136.6160 C   0  0  0  0  0  2  0  0  0  0  0  0
  188.2800  177.4840  136.2250 C   0  0  2  0  0  3  0  0  0  0  0  0
  188.5860  177.4670  138.6520 N   0  0  0  0  0  0  0  0  0  0  0  0
  187.3190  178.1400  138.9610 C   0  0  0  0  0  2  0  0  0  0  0  0
  188.7890  176.2530  135.8070 O   0  0  0  0  0  0  0  0  0  0  0  0
  190.1600  176.4670  135.6230 C   0  0  0  0  0  2  0  0  0  0  0  0
  190.9630  175.2320  136.0360 C   0  0  2  0  0  3  0  0  0  0  0  0
  190.0750  173.9990  136.0850 C   0  0  0  0  0  1  0  0  0  0  0  0
  191.7400  175.3960  137.3200 C   0  0  0  0  0  0  0  0  0  0  0  0
  191.3150  174.8820  138.3420 O   0  0  0  0  0  0  0  0  0  0  0  0
  193.0360  176.1380  137.3790 C   0  0  0  0  0  1  0  0  0  0  0  0
  1 15  2  0  0  0  0
  1  8  1  0  0  0  0
  4  6  2  0  0  0  0
  6  5  1  0  0  0  0
  7  3  2  0  0  0  0
  7  9  1  0  0  0  0
  8  4  1  1  0  0  0
  8  7  1  0  0  0  0
  9  5  1  0  0  0  0
 10  2  1  0  0  0  0
 11 10  2  0  0  0  0
 12 14  2  0  0  0  0
 12 11  1  0  0  0  0
 13  2  2  0  0  0  0
 13  3  1  0  0  0  0
 14 15  1  0  0  0  0
 15 13  1  0  0  0  0
 16 11  1  0  0  0  0
 16 18  1  0  0  0  0
 17 16  1  0  0  0  0
 19  1  1  0  0  0  0
 20 19  1  0  0  0  0
 21 20  1  0  0  0  0
 22 27  1  0  0  0  0
 23 26  1  0  0  0  0
 24 22  1  0  0  0  0
 25 28  1  1  0  0  0
 25 24  1  0  0  0  0
 25 23  1  0  0  0  0
 26 27  1  0  0  0  0
 26 21  1  0  0  0  0
 29 28  1  0  0  0  0
 29 30  1  0  0  0  0
 30 31  1  1  0  0  0
 30 32  1  0  0  0  0
 32 34  1  0  0  0  0
 32 33  2  0  0  0  0
M  END
>  <MODEL>
8

>  <REMARK>
 VINA RESULT:      -8.3      1.606      3.490
  Name = 
  9 active torsions:
  status: ('A' for Active; 'I' for Inactive)
    1  A    between atoms: C_1  and  O_9
    2  A    between atoms: N_3  and  C_25
    3  A    between atoms: C_7  and  C_11
    4  A    between atoms: C_7  and  C_29
    5  A    between atoms: C_8  and  O_9
    6  A    between atoms: C_8  and  C_18
    7  A    between atoms: C_18  and  N_30
    8  A    between atoms: O_26  and  C_28
    9  A    between atoms: O_26  and  C_29
                            x       y       z     vdW  Elec       q    Type
                         _______ _______ _______ _____ _____    ______ ____

>  <TORSDO>
F 9

$$$$
=
 OpenBabel10262423173D

 34 37  0  0  1  0  0  0  0  0999 V2000
  188.2300  177.7680  143.4070 C   0  0  0  0  0  0  0  0  0  0  0  0
  185.1540  178.9230  144.9920 C   0  0  0  0  0  3  0  0  0  0  0  0
  186.8020  177.3490  145.8680 C   0  0  0  0  0  3  0  0  0  0  0  0
  190.3560  177.4720  144.6350 C   0  0  0  0  0  3  0  0  0  0  0  0
  190.2400  177.5710  147.1090 C   0  0  0  0  0  2  0  0  0  0  0  0
  190.9910  177.4520  145.8100 C   0  0  0  0  0  3  0  0  0  0  0  0
  188.1320  177.2870  145.8230 C   0  0  0  0  0  0  0  0  0  0  0  0
  188.8800  177.5190  144.5630 C   0  0  1  0  0  3  0  0  0  0  0  0
  188.8870  176.8610  147.0460 C   0  0  0  0  0  2  0  0  0  0  0  0
  184.1710  179.3580  144.2060 C   0  0  0  0  0  3  0  0  0  0  0  0
  183.7760  178.7670  142.9020 C   0  0  0  0  0  0  0  0  0  0  0  0
  184.6730  178.2450  142.0430 C   0  0  0  0  0  3  0  0  0  0  0  0
  185.9610  177.7120  144.6780 C   0  0  0  0  0  0  0  0  0  0  0  0
  186.1260  178.0750  142.2390 C   0  0  0  0  0  3  0  0  0  0  0  0
  186.7530  177.8950  143.4060 C   0  0  0  0  0  0  0  0  0  0  0  0
  182.3980  178.8760  142.4880 N   0  0  0  0  0  0  0  0  0  0  0  0
  181.9990  178.7070  141.0970 C   0  0  0  0  0  1  0  0  0  0  0  0
  181.3400  179.1190  143.4570 C   0  0  0  0  0  1  0  0  0  0  0  0
  188.9030  177.9200  142.1850 O   0  0  0  0  0  0  0  0  0  0  0  0
  189.3610  176.8210  141.4090 C   0  0  0  0  0  2  0  0  0  0  0  0
  189.7470  177.2960  140.0150 C   0  0  0  0  0  2  0  0  0  0  0  0
  187.1220  178.1590  137.4990 C   0  0  0  0  0  2  0  0  0  0  0  0
  189.3120  176.5190  137.8190 C   0  0  0  0  0  2  0  0  0  0  0  0
  186.9030  176.7160  137.0410 C   0  0  0  0  0  2  0  0  0  0  0  0
  188.2320  175.9600  136.8850 C   0  0  2  0  0  3  0  0  0  0  0  0
  188.6920  176.9820  139.0590 N   0  0  0  0  0  0  0  0  0  0  0  0
  187.9610  178.2260  138.7900 C   0  0  0  0  0  2  0  0  0  0  0  0
  188.0220  174.6120  137.1770 O   0  0  0  0  0  0  0  0  0  0  0  0
  186.6320  174.4600  137.2340 C   0  0  0  0  0  2  0  0  0  0  0  0
  186.2480  172.9800  137.2740 C   0  0  2  0  0  3  0  0  0  0  0  0
  187.1330  172.1650  136.3460 C   0  0  0  0  0  1  0  0  0  0  0  0
  184.7860  172.7100  137.0100 C   0  0  0  0  0  0  0  0  0  0  0  0
  184.4510  171.6180  136.5780 O   0  0  0  0  0  0  0  0  0  0  0  0
  183.7230  173.7220  137.2930 C   0  0  0  0  0  1  0  0  0  0  0  0
  1  8  1  0  0  0  0
  4  6  2  0  0  0  0
  6  5  1  0  0  0  0
  7  3  2  0  0  0  0
  7  9  1  0  0  0  0
  8  4  1  1  0  0  0
  8  7  1  0  0  0  0
  9  5  1  0  0  0  0
 10  2  1  0  0  0  0
 11 10  2  0  0  0  0
 12 14  2  0  0  0  0
 12 11  1  0  0  0  0
 13  2  2  0  0  0  0
 13  3  1  0  0  0  0
 14 15  1  0  0  0  0
 15  1  2  0  0  0  0
 15 13  1  0  0  0  0
 16 11  1  0  0  0  0
 16 18  1  0  0  0  0
 17 16  1  0  0  0  0
 19  1  1  0  0  0  0
 20 19  1  0  0  0  0
 21 20  1  0  0  0  0
 22 27  1  0  0  0  0
 23 26  1  0  0  0  0
 24 22  1  0  0  0  0
 25 24  1  0  0  0  0
 25 28  1  1  0  0  0
 25 23  1  0  0  0  0
 26 21  1  0  0  0  0
 27 26  1  0  0  0  0
 28 29  1  0  0  0  0
 29 30  1  0  0  0  0
 30 31  1  6  0  0  0
 32 30  1  0  0  0  0
 32 34  1  0  0  0  0
 33 32  2  0  0  0  0
M  END
>  <MODEL>
9

>  <REMARK>
 VINA RESULT:      -8.3      2.295      2.844
  Name = 
  9 active torsions:
  status: ('A' for Active; 'I' for Inactive)
    1  A    between atoms: C_1  and  O_9
    2  A    between atoms: N_3  and  C_25
    3  A    between atoms: C_7  and  C_11
    4  A    between atoms: C_7  and  C_29
    5  A    between atoms: C_8  and  O_9
    6  A    between atoms: C_8  and  C_18
    7  A    between atoms: C_18  and  N_30
    8  A    between atoms: O_26  and  C_28
    9  A    between atoms: O_26  and  C_29
                            x       y       z     vdW  Elec       q    Type
                         _______ _______ _______ _____ _____    ______ ____

>  <TORSDO>
F 9

$$$$
