=
 OpenBabel10262419403D

 31 33  0  0  1  0  0  0  0  0999 V2000
  189.1870  177.4860  137.8970 C   0  0  0  0  0  0  0  0  0  0  0  0
  185.7660  178.5640  138.9280 O   0  0  0  0  0  0  0  0  0  0  0  0
  187.1160  178.2090  138.9640 C   0  0  1  0  0  3  0  0  0  0  0  0
  189.8740  177.4890  139.0460 C   0  0  0  0  0  3  0  0  0  0  0  0
  185.7590  178.9700  141.2740 C   0  0  0  0  0  0  0  0  0  0  0  0
  190.0020  177.0460  136.4120 Cl  0  0  0  0  0  0  0  0  0  0  0  0
  187.1520  178.6040  141.3220 N   0  0  0  0  0  0  0  0  0  0  0  0
  185.0970  178.9600  140.0970 C   0  0  0  0  0  0  0  0  0  0  0  0
  187.7610  177.8530  137.8560 C   0  0  0  0  0  3  0  0  0  0  0  0
  187.8130  178.2450  140.2620 C   0  0  0  0  0  0  0  0  0  0  0  0
  189.2570  177.8500  140.3740 C   0  0  0  0  0  3  0  0  0  0  0  0
  183.6490  179.3350  140.0140 C   0  0  1  0  0  3  0  0  0  0  0  0
  181.5550  180.3160  138.3900 S   0  0  0  0  0  0  0  0  0  0  0  0
  183.3460  180.1450  138.7440 C   0  0  0  0  0  2  0  0  0  0  0  0
  180.9980  179.9480  140.0830 C   0  0  0  0  0  2  0  0  0  0  0  0
  181.1190  178.3140  141.9560 C   0  0  0  0  0  1  0  0  0  0  0  0
  182.7840  178.1530  140.1720 N   0  0  0  0  0  0  0  0  0  0  0  0
  181.3890  178.5200  140.4790 C   0  0  2  0  0  3  0  0  0  0  0  0
  182.7790  177.4360  139.0170 O   0  0  0  0  0  0  0  0  0  0  0  0
  182.6680  176.1040  139.4210 C   0  0  0  0  0  1  0  0  0  0  0  0
  185.0920  179.3890  142.5460 C   0  0  0  0  0  2  0  0  0  0  0  0
  184.9750  178.2490  143.4420 N   0  0  0  0  0  0  0  0  0  0  0  0
  183.9220  178.9640  145.5140 C   0  0  0  0  0  1  0  0  0  0  0  0
  183.7020  178.3740  144.1340 C   0  0  0  0  0  2  0  0  0  0  0  0
  186.0160  178.4020  144.4460 C   0  0  0  0  0  2  0  0  0  0  0  0
  186.8310  177.1280  144.5230 C   0  0  0  0  0  2  0  0  0  0  0  0
  188.0340  177.3520  145.4140 C   0  0  0  0  0  2  0  0  0  0  0  0
  187.5750  177.8990  146.7510 C   0  0  0  0  0  2  0  0  0  0  0  0
  188.5980  177.6180  147.7930 C   0  0  0  0  0  0  0  0  0  0  0  0
  188.4170  178.0180  148.9730 O   0  0  0  0  0  1  0  0  0  0  0  0
  189.7460  176.9060  147.4710 O   0  0  0  0  0  0  0  0  0  0  0  0
  1  4  1  0  0  0  0
  2  3  1  0  0  0  0
  2  8  1  0  0  0  0
  3  9  1  6  0  0  0
  3 10  1  0  0  0  0
  4 11  2  0  0  0  0
  5  7  1  0  0  0  0
  5 21  1  0  0  0  0
  6  1  1  0  0  0  0
  8  5  2  0  0  0  0
  9  1  2  0  0  0  0
 10 11  1  0  0  0  0
 10  7  2  0  0  0  0
 12  8  1  6  0  0  0
 12 17  1  0  0  0  0
 13 14  1  0  0  0  0
 13 15  1  0  0  0  0
 14 12  1  0  0  0  0
 15 18  1  0  0  0  0
 17 18  1  0  0  0  0
 18 16  1  1  0  0  0
 19 20  1  0  0  0  0
 19 17  1  0  0  0  0
 21 22  1  0  0  0  0
 22 24  1  0  0  0  0
 22 25  1  0  0  0  0
 24 23  1  0  0  0  0
 25 26  1  0  0  0  0
 26 27  1  0  0  0  0
 27 28  1  0  0  0  0
 28 29  1  0  0  0  0
 29 30  1  0  0  0  0
 31 29  2  0  0  0  0
M  END
>  <MODEL>
1

>  <REMARK>
 VINA RESULT:      -6.9      0.000      0.000
  Name = 
  10 active torsions:
  status: ('A' for Active; 'I' for Inactive)
    1  A    between atoms: C_1  and  C_24
    2  A    between atoms: C_5  and  C_21
    3  A    between atoms: C_6  and  C_7
    4  A    between atoms: C_6  and  C_19
    5  A    between atoms: C_7  and  N_9
    6  A    between atoms: N_9  and  C_22
    7  A    between atoms: N_9  and  C_23
    8  A    between atoms: C_15  and  C_23
    9  A    between atoms: O_17  and  N_30
   10  A    between atoms: C_19  and  C_24
                            x       y       z     vdW  Elec       q    Type
                         _______ _______ _______ _____ _____    ______ ____

>  <TORSDO>
F 10

$$$$
=
 OpenBabel10262419403D

 31 33  0  0  1  0  0  0  0  0999 V2000
  190.0880  176.7300  136.5200 C   0  0  0  0  0  0  0  0  0  0  0  0
  189.5750  177.4060  140.1540 O   0  0  0  0  0  0  0  0  0  0  0  0
  189.3770  177.3340  138.7740 C   0  0  0  0  0  0  0  0  0  0  0  0
  188.9650  177.1900  135.9560 C   0  0  0  0  0  3  0  0  0  0  0  0
  187.4400  178.4180  140.4570 C   0  0  0  0  0  0  0  0  0  0  0  0
  191.3230  176.0110  135.5090 Cl  0  0  0  0  0  0  0  0  0  0  0  0
  187.2290  178.3510  139.0340 N   0  0  0  0  0  0  0  0  0  0  0  0
  188.5840  177.9410  140.9940 C   0  0  0  0  0  0  0  0  0  0  0  0
  190.3030  176.8090  137.9760 C   0  0  0  0  0  3  0  0  0  0  0  0
  188.1120  177.8510  138.2220 C   0  0  0  0  0  0  0  0  0  0  0  0
  187.8490  177.8270  136.7440 C   0  0  0  0  0  2  0  0  0  0  0  0
  188.8350  177.9960  142.4700 C   0  0  1  0  0  3  0  0  0  0  0  0
  188.3090  176.8480  144.9980 S   0  0  0  0  0  0  0  0  0  0  0  0
  187.8390  177.1230  143.2470 C   0  0  0  0  0  2  0  0  0  0  0  0
  189.4340  178.2740  145.1100 C   0  0  0  0  0  2  0  0  0  0  0  0
  191.4090  179.3940  144.0920 C   0  0  0  0  0  1  0  0  0  0  0  0
  190.2430  177.6910  142.7810 N   0  0  0  0  0  0  0  0  0  0  0  0
  190.6140  178.1050  144.1470 C   0  0  2  0  0  3  0  0  0  0  0  0
  190.4500  176.3510  142.6830 O   0  0  0  0  0  0  0  0  0  0  0  0
  191.6510  176.1220  143.3600 C   0  0  0  0  0  1  0  0  0  0  0  0
  186.3540  178.9920  141.3100 C   0  0  0  0  0  2  0  0  0  0  0  0
  185.0940  178.3230  141.0240 N   0  0  0  0  0  0  0  0  0  0  0  0
  183.5790  178.5200  139.1320 C   0  0  0  0  0  1  0  0  0  0  0  0
  184.2760  179.2540  140.2620 C   0  0  0  0  0  2  0  0  0  0  0  0
  184.4290  178.1270  142.3010 C   0  0  0  0  0  2  0  0  0  0  0  0
  184.6070  179.3640  143.1570 C   0  0  0  0  0  2  0  0  0  0  0  0
  184.3880  179.0070  144.6110 C   0  0  0  0  0  2  0  0  0  0  0  0
  185.6520  179.2960  145.3960 C   0  0  0  0  0  2  0  0  0  0  0  0
  185.5480  178.7130  146.7600 C   0  0  0  0  0  0  0  0  0  0  0  0
  184.4500  178.2430  147.1580 O   0  0  0  0  0  0  0  0  0  0  0  0
  186.6600  178.6750  147.5900 O   0  0  0  0  0  1  0  0  0  0  0  0
  1  9  1  0  0  0  0
  2  8  1  0  0  0  0
  3  2  1  0  0  0  0
  4  1  2  0  0  0  0
  4 11  1  0  0  0  0
  5  8  2  0  0  0  0
  5 21  1  0  0  0  0
  6  1  1  0  0  0  0
  7  5  1  0  0  0  0
  9  3  2  0  0  0  0
 10  3  1  0  0  0  0
 10  7  2  0  0  0  0
 11 10  1  0  0  0  0
 12  8  1  6  0  0  0
 12 17  1  0  0  0  0
 12 14  1  0  0  0  0
 13 15  1  0  0  0  0
 14 13  1  0  0  0  0
 17 18  1  0  0  0  0
 18 16  1  6  0  0  0
 18 15  1  0  0  0  0
 19 17  1  0  0  0  0
 19 20  1  0  0  0  0
 22 21  1  0  0  0  0
 22 25  1  0  0  0  0
 23 24  1  0  0  0  0
 24 22  1  0  0  0  0
 25 26  1  0  0  0  0
 26 27  1  0  0  0  0
 27 28  1  0  0  0  0
 28 29  1  0  0  0  0
 29 30  2  0  0  0  0
 29 31  1  0  0  0  0
M  END
>  <MODEL>
2

>  <REMARK>
 VINA RESULT:      -6.7      2.954      5.597
  Name = 
  10 active torsions:
  status: ('A' for Active; 'I' for Inactive)
    1  A    between atoms: C_1  and  C_24
    2  A    between atoms: C_5  and  C_21
    3  A    between atoms: C_6  and  C_7
    4  A    between atoms: C_6  and  C_19
    5  A    between atoms: C_7  and  N_9
    6  A    between atoms: N_9  and  C_22
    7  A    between atoms: N_9  and  C_23
    8  A    between atoms: C_15  and  C_23
    9  A    between atoms: O_17  and  N_30
   10  A    between atoms: C_19  and  C_24
                            x       y       z     vdW  Elec       q    Type
                         _______ _______ _______ _____ _____    ______ ____

>  <TORSDO>
F 10

$$$$
=
 OpenBabel10262419403D

 31 33  0  0  1  0  0  0  0  0999 V2000
  190.6680  176.1370  143.7610 C   0  0  0  0  0  0  0  0  0  0  0  0
  189.0960  177.1770  140.5400 O   0  0  0  0  0  0  0  0  0  0  0  0
  189.3260  176.9690  141.9010 C   0  0  1  0  0  3  0  0  0  0  0  0
  189.7900  176.5490  144.6830 C   0  0  0  0  0  3  0  0  0  0  0  0
  187.0350  178.2770  141.0060 C   0  0  0  0  0  0  0  0  0  0  0  0
  192.1380  175.3380  144.2730 Cl  0  0  0  0  0  0  0  0  0  0  0  0
  187.2620  178.0640  142.4130 N   0  0  0  0  0  0  0  0  0  0  0  0
  187.9440  177.8510  140.1020 C   0  0  0  0  0  0  0  0  0  0  0  0
  190.4260  176.3500  142.3230 C   0  0  0  0  0  3  0  0  0  0  0  0
  188.3210  177.4580  142.8620 C   0  0  0  0  0  0  0  0  0  0  0  0
  188.4960  177.2430  144.3380 C   0  0  0  0  0  3  0  0  0  0  0  0
  187.7370  178.0570  138.6320 C   0  0  1  0  0  3  0  0  0  0  0  0
  188.9490  178.3630  136.0990 S   0  0  0  0  0  0  0  0  0  0  0  0
  189.0410  178.4580  137.9270 C   0  0  0  0  0  2  0  0  0  0  0  0
  187.1330  178.4230  136.0040 C   0  0  0  0  0  2  0  0  0  0  0  0
  185.0180  177.3800  136.7990 C   0  0  0  0  0  1  0  0  0  0  0  0
  187.0780  176.8900  138.0200 N   0  0  0  0  0  0  0  0  0  0  0  0
  186.5180  177.1980  136.6920 C   0  0  2  0  0  3  0  0  0  0  0  0
  187.9830  175.8870  137.8660 O   0  0  0  0  0  0  0  0  0  0  0  0
  187.2830  174.8670  137.2170 C   0  0  0  0  0  1  0  0  0  0  0  0
  185.7960  179.0030  140.5900 C   0  0  0  0  0  2  0  0  0  0  0  0
  184.6430  178.4560  141.2890 N   0  0  0  0  0  0  0  0  0  0  0  0
  183.0310  177.2240  139.9480 C   0  0  0  0  0  1  0  0  0  0  0  0
  183.4970  178.5940  140.4040 C   0  0  0  0  0  2  0  0  0  0  0  0
  184.4000  179.3230  142.4300 C   0  0  0  0  0  2  0  0  0  0  0  0
  183.3960  178.6670  143.3560 C   0  0  0  0  0  2  0  0  0  0  0  0
  183.7410  178.9990  144.7910 C   0  0  0  0  0  2  0  0  0  0  0  0
  185.2480  179.0630  144.9450 C   0  0  0  0  0  2  0  0  0  0  0  0
  185.6320  178.7000  146.3350 C   0  0  0  0  0  0  0  0  0  0  0  0
  185.9820  177.5210  146.6010 O   0  0  0  0  0  0  0  0  0  0  0  0
  185.6170  179.6620  147.3370 O   0  0  0  0  0  1  0  0  0  0  0  0
  1  6  1  0  0  0  0
  1  4  1  0  0  0  0
  2  3  1  0  0  0  0
  3  9  1  1  0  0  0
  3 10  1  0  0  0  0
  5  7  1  0  0  0  0
  7 10  2  0  0  0  0
  8  2  1  0  0  0  0
  8  5  2  0  0  0  0
  9  1  2  0  0  0  0
 10 11  1  0  0  0  0
 11  4  2  0  0  0  0
 12  8  1  1  0  0  0
 13 14  1  0  0  0  0
 14 12  1  0  0  0  0
 15 13  1  0  0  0  0
 15 18  1  0  0  0  0
 17 12  1  0  0  0  0
 18 16  1  1  0  0  0
 18 17  1  0  0  0  0
 19 17  1  0  0  0  0
 20 19  1  0  0  0  0
 21  5  1  0  0  0  0
 21 22  1  0  0  0  0
 22 25  1  0  0  0  0
 23 24  1  0  0  0  0
 24 22  1  0  0  0  0
 25 26  1  0  0  0  0
 26 27  1  0  0  0  0
 27 28  1  0  0  0  0
 28 29  1  0  0  0  0
 29 30  2  0  0  0  0
 29 31  1  0  0  0  0
M  END
>  <MODEL>
3

>  <REMARK>
 VINA RESULT:      -6.5      2.993      4.898
  Name = 
  10 active torsions:
  status: ('A' for Active; 'I' for Inactive)
    1  A    between atoms: C_1  and  C_24
    2  A    between atoms: C_5  and  C_21
    3  A    between atoms: C_6  and  C_7
    4  A    between atoms: C_6  and  C_19
    5  A    between atoms: C_7  and  N_9
    6  A    between atoms: N_9  and  C_22
    7  A    between atoms: N_9  and  C_23
    8  A    between atoms: C_15  and  C_23
    9  A    between atoms: O_17  and  N_30
   10  A    between atoms: C_19  and  C_24
                            x       y       z     vdW  Elec       q    Type
                         _______ _______ _______ _____ _____    ______ ____

>  <TORSDO>
F 10

$$$$
=
 OpenBabel10262419403D

 31 33  0  0  1  0  0  0  0  0999 V2000
  190.3370  177.0430  143.9300 C   0  0  0  0  0  0  0  0  0  0  0  0
  190.9500  176.6730  140.2670 O   0  0  0  0  0  0  0  0  0  0  0  0
  190.3450  176.9640  141.4910 C   0  0  1  0  0  3  0  0  0  0  0  0
  189.1050  177.5630  143.9880 C   0  0  0  0  0  3  0  0  0  0  0  0
  189.0420  177.4640  139.0810 C   0  0  0  0  0  0  0  0  0  0  0  0
  191.2110  176.7400  145.4150 Cl  0  0  0  0  0  0  0  0  0  0  0  0
  188.4080  177.7640  140.3400 N   0  0  0  0  0  0  0  0  0  0  0  0
  190.2880  176.9440  139.0580 C   0  0  0  0  0  0  0  0  0  0  0  0
  190.9760  176.7290  142.6390 C   0  0  0  0  0  3  0  0  0  0  0  0
  188.9900  177.5440  141.4810 C   0  0  0  0  0  0  0  0  0  0  0  0
  188.2740  177.8550  142.7640 C   0  0  0  0  0  3  0  0  0  0  0  0
  190.9740  176.6190  137.7660 C   0  0  1  0  0  3  0  0  0  0  0  0
  193.3140  175.6480  136.5150 S   0  0  0  0  0  0  0  0  0  0  0  0
  192.4810  176.4050  137.9630 C   0  0  0  0  0  2  0  0  0  0  0  0
  192.0240  176.0920  135.3110 C   0  0  0  0  0  2  0  0  0  0  0  0
  189.5950  175.9570  134.7870 C   0  0  0  0  0  1  0  0  0  0  0  0
  190.3100  175.4970  137.0790 N   0  0  0  0  0  0  0  0  0  0  0  0
  190.7010  175.4010  135.6610 C   0  0  2  0  0  3  0  0  0  0  0  0
  190.6530  174.3280  137.6840 O   0  0  0  0  0  0  0  0  0  0  0  0
  190.0400  173.3340  136.9190 C   0  0  0  0  0  1  0  0  0  0  0  0
  188.2980  177.7740  137.8210 C   0  0  0  0  0  2  0  0  0  0  0  0
  186.9450  177.2440  137.9010 N   0  0  0  0  0  0  0  0  0  0  0  0
  186.7300  174.9530  137.1160 C   0  0  0  0  0  1  0  0  0  0  0  0
  186.7360  176.4180  136.7230 C   0  0  0  0  0  2  0  0  0  0  0  0
  186.0460  178.3810  137.7840 C   0  0  0  0  0  2  0  0  0  0  0  0
  184.6250  177.9270  138.0440 C   0  0  0  0  0  2  0  0  0  0  0  0
  183.9820  178.8430  139.0630 C   0  0  0  0  0  2  0  0  0  0  0  0
  183.7470  178.0790  140.3500 C   0  0  0  0  0  2  0  0  0  0  0  0
  184.6260  178.6110  141.4250 C   0  0  0  0  0  0  0  0  0  0  0  0
  184.5160  178.1710  142.5990 O   0  0  0  0  0  1  0  0  0  0  0  0
  185.5750  179.5830  141.1350 O   0  0  0  0  0  0  0  0  0  0  0  0
  1  4  1  0  0  0  0
  1  6  1  0  0  0  0
  2  3  1  0  0  0  0
  3  9  1  6  0  0  0
  5  7  1  0  0  0  0
  7 10  2  0  0  0  0
  8  5  2  0  0  0  0
  8  2  1  0  0  0  0
  9  1  2  0  0  0  0
 10  3  1  0  0  0  0
 10 11  1  0  0  0  0
 11  4  2  0  0  0  0
 12 14  1  0  0  0  0
 12  8  1  1  0  0  0
 13 14  1  0  0  0  0
 15 18  1  0  0  0  0
 15 13  1  0  0  0  0
 17 19  1  0  0  0  0
 17 12  1  0  0  0  0
 18 16  1  6  0  0  0
 18 17  1  0  0  0  0
 20 19  1  0  0  0  0
 21 22  1  0  0  0  0
 21  5  1  0  0  0  0
 24 23  1  0  0  0  0
 24 22  1  0  0  0  0
 25 22  1  0  0  0  0
 25 26  1  0  0  0  0
 26 27  1  0  0  0  0
 27 28  1  0  0  0  0
 28 29  1  0  0  0  0
 29 30  1  0  0  0  0
 31 29  2  0  0  0  0
M  END
>  <MODEL>
4

>  <REMARK>
 VINA RESULT:      -6.3      4.186      7.750
  Name = 
  10 active torsions:
  status: ('A' for Active; 'I' for Inactive)
    1  A    between atoms: C_1  and  C_24
    2  A    between atoms: C_5  and  C_21
    3  A    between atoms: C_6  and  C_7
    4  A    between atoms: C_6  and  C_19
    5  A    between atoms: C_7  and  N_9
    6  A    between atoms: N_9  and  C_22
    7  A    between atoms: N_9  and  C_23
    8  A    between atoms: C_15  and  C_23
    9  A    between atoms: O_17  and  N_30
   10  A    between atoms: C_19  and  C_24
                            x       y       z     vdW  Elec       q    Type
                         _______ _______ _______ _____ _____    ______ ____

>  <TORSDO>
F 10

$$$$
=
 OpenBabel10262419403D

 31 33  0  0  1  0  0  0  0  0999 V2000
  183.7900  178.8410  143.2670 C   0  0  0  0  0  0  0  0  0  0  0  0
  186.7570  178.2240  141.0890 O   0  0  0  0  0  0  0  0  0  0  0  0
  185.9350  178.3600  142.2100 C   0  0  1  0  0  3  0  0  0  0  0  0
  184.2620  178.6320  144.5020 C   0  0  0  0  0  3  0  0  0  0  0  0
  188.6090  177.6230  142.4600 C   0  0  0  0  0  0  0  0  0  0  0  0
  182.1090  179.2760  143.0540 Cl  0  0  0  0  0  0  0  0  0  0  0  0
  187.7700  177.7630  143.6220 N   0  0  0  0  0  0  0  0  0  0  0  0
  188.1000  177.8380  141.2280 C   0  0  0  0  0  0  0  0  0  0  0  0
  184.6570  178.7050  142.0830 C   0  0  0  0  0  3  0  0  0  0  0  0
  186.5190  178.1040  143.5390 C   0  0  0  0  0  0  0  0  0  0  0  0
  185.6950  178.2580  144.7850 C   0  0  0  0  0  3  0  0  0  0  0  0
  188.9470  177.7010  139.9990 C   0  0  1  0  0  3  0  0  0  0  0  0
  190.4910  175.9780  138.3770 S   0  0  0  0  0  0  0  0  0  0  0  0
  189.7330  176.3810  139.9970 C   0  0  0  0  0  2  0  0  0  0  0  0
  190.4410  177.6760  137.7240 C   0  0  0  0  0  2  0  0  0  0  0  0
  188.9820  179.6400  137.2700 C   0  0  0  0  0  1  0  0  0  0  0  0
  188.1490  177.9060  138.7780 N   0  0  0  0  0  0  0  0  0  0  0  0
  188.9920  178.1610  137.5960 C   0  0  2  0  0  3  0  0  0  0  0  0
  187.4090  176.7930  138.5270 O   0  0  0  0  0  0  0  0  0  0  0  0
  186.4160  177.2140  137.6390 C   0  0  0  0  0  1  0  0  0  0  0  0
  190.0320  177.2050  142.6580 C   0  0  0  0  0  2  0  0  0  0  0  0
  190.4690  177.5590  144.0000 N   0  0  0  0  0  0  0  0  0  0  0  0
  191.2400  179.8570  144.1880 C   0  0  0  0  0  1  0  0  0  0  0  0
  191.6270  178.4270  143.8610 C   0  0  0  0  0  2  0  0  0  0  0  0
  190.9370  176.3310  144.6220 C   0  0  0  0  0  2  0  0  0  0  0  0
  191.6470  176.6620  145.9180 C   0  0  0  0  0  2  0  0  0  0  0  0
  190.7480  176.3240  147.0870 C   0  0  0  0  0  2  0  0  0  0  0  0
  190.2330  177.6050  147.7130 C   0  0  0  0  0  2  0  0  0  0  0  0
  188.7540  177.5390  147.8610 C   0  0  0  0  0  0  0  0  0  0  0  0
  188.0520  177.0610  146.9330 O   0  0  0  0  0  0  0  0  0  0  0  0
  188.1480  177.9950  149.0250 O   0  0  0  0  0  1  0  0  0  0  0  0
  1  4  1  0  0  0  0
  2  8  1  0  0  0  0
  2  3  1  0  0  0  0
  3  9  1  6  0  0  0
  3 10  1  0  0  0  0
  4 11  2  0  0  0  0
  5 21  1  0  0  0  0
  5  7  1  0  0  0  0
  6  1  1  0  0  0  0
  8  5  2  0  0  0  0
  9  1  2  0  0  0  0
 10  7  2  0  0  0  0
 10 11  1  0  0  0  0
 12  8  1  1  0  0  0
 13 14  1  0  0  0  0
 14 12  1  0  0  0  0
 15 13  1  0  0  0  0
 17 12  1  0  0  0  0
 18 16  1  1  0  0  0
 18 15  1  0  0  0  0
 18 17  1  0  0  0  0
 19 17  1  0  0  0  0
 20 19  1  0  0  0  0
 21 22  1  0  0  0  0
 22 25  1  0  0  0  0
 24 22  1  0  0  0  0
 24 23  1  0  0  0  0
 25 26  1  0  0  0  0
 26 27  1  0  0  0  0
 27 28  1  0  0  0  0
 28 29  1  0  0  0  0
 29 31  1  0  0  0  0
 30 29  2  0  0  0  0
M  END
>  <MODEL>
5

>  <REMARK>
 VINA RESULT:      -6.2      3.561      6.028
  Name = 
  10 active torsions:
  status: ('A' for Active; 'I' for Inactive)
    1  A    between atoms: C_1  and  C_24
    2  A    between atoms: C_5  and  C_21
    3  A    between atoms: C_6  and  C_7
    4  A    between atoms: C_6  and  C_19
    5  A    between atoms: C_7  and  N_9
    6  A    between atoms: N_9  and  C_22
    7  A    between atoms: N_9  and  C_23
    8  A    between atoms: C_15  and  C_23
    9  A    between atoms: O_17  and  N_30
   10  A    between atoms: C_19  and  C_24
                            x       y       z     vdW  Elec       q    Type
                         _______ _______ _______ _____ _____    ______ ____

>  <TORSDO>
F 10

$$$$
=
 OpenBabel10262419403D

 31 33  0  0  1  0  0  0  0  0999 V2000
  186.0070  178.1920  144.3820 C   0  0  0  0  0  0  0  0  0  0  0  0
  184.3230  178.0420  141.0540 O   0  0  0  0  0  0  0  0  0  0  0  0
  184.5630  178.2380  142.4160 C   0  0  1  0  0  3  0  0  0  0  0  0
  185.0460  178.6420  145.1970 C   0  0  0  0  0  3  0  0  0  0  0  0
  182.0750  178.7920  141.2930 C   0  0  0  0  0  0  0  0  0  0  0  0
  187.5970  177.8590  145.0320 Cl  0  0  0  0  0  0  0  0  0  0  0  0
  182.3120  178.9940  142.6990 N   0  0  0  0  0  0  0  0  0  0  0  0
  183.0680  178.3390  140.4980 C   0  0  0  0  0  0  0  0  0  0  0  0
  185.7560  177.9780  142.9450 C   0  0  0  0  0  3  0  0  0  0  0  0
  183.4620  178.7460  143.2530 C   0  0  0  0  0  0  0  0  0  0  0  0
  183.6470  178.9530  144.7290 C   0  0  0  0  0  3  0  0  0  0  0  0
  182.8540  178.1180  139.0310 C   0  0  1  0  0  3  0  0  0  0  0  0
  183.8760  177.0220  136.6360 S   0  0  0  0  0  0  0  0  0  0  0  0
  184.1440  177.6640  138.3320 C   0  0  0  0  0  2  0  0  0  0  0  0
  182.2590  177.8210  136.3920 C   0  0  0  0  0  2  0  0  0  0  0  0
  179.9710  178.1130  137.3270 C   0  0  0  0  0  1  0  0  0  0  0  0
  181.7130  177.2170  138.7910 N   0  0  0  0  0  0  0  0  0  0  0  0
  181.2350  177.2810  137.3980 C   0  0  2  0  0  3  0  0  0  0  0  0
  182.0860  175.9350  139.0440 O   0  0  0  0  0  0  0  0  0  0  0  0
  181.0120  175.3800  139.7460 C   0  0  0  0  0  1  0  0  0  0  0  0
  180.7240  179.1260  140.7460 C   0  0  0  0  0  2  0  0  0  0  0  0
  180.1120  180.1760  141.5470 N   0  0  0  0  0  0  0  0  0  0  0  0
  178.9350  180.0240  143.6700 C   0  0  0  0  0  1  0  0  0  0  0  0
  178.9610  179.5890  142.2170 C   0  0  0  0  0  2  0  0  0  0  0  0
  179.5970  181.1640  140.6140 C   0  0  0  0  0  2  0  0  0  0  0  0
  180.4710  181.1920  139.3780 C   0  0  0  0  0  2  0  0  0  0  0  0
  180.1220  182.4030  138.5410 C   0  0  0  0  0  2  0  0  0  0  0  0
  181.2480  182.6840  137.5660 C   0  0  0  0  0  2  0  0  0  0  0  0
  181.2890  184.1350  137.2410 C   0  0  0  0  0  0  0  0  0  0  0  0
  182.2900  184.8230  137.5720 O   0  0  0  0  0  1  0  0  0  0  0  0
  180.2320  184.7290  136.5640 O   0  0  0  0  0  0  0  0  0  0  0  0
  1  6  1  0  0  0  0
  1  4  1  0  0  0  0
  2  3  1  0  0  0  0
  3  9  1  6  0  0  0
  3 10  1  0  0  0  0
  5  7  1  0  0  0  0
  7 10  2  0  0  0  0
  8  2  1  0  0  0  0
  8  5  2  0  0  0  0
  9  1  2  0  0  0  0
 10 11  1  0  0  0  0
 11  4  2  0  0  0  0
 12  8  1  1  0  0  0
 13 14  1  0  0  0  0
 14 12  1  0  0  0  0
 15 13  1  0  0  0  0
 15 18  1  0  0  0  0
 17 12  1  0  0  0  0
 17 19  1  0  0  0  0
 18 16  1  1  0  0  0
 18 17  1  0  0  0  0
 19 20  1  0  0  0  0
 21  5  1  0  0  0  0
 21 22  1  0  0  0  0
 22 24  1  0  0  0  0
 24 23  1  0  0  0  0
 25 22  1  0  0  0  0
 26 25  1  0  0  0  0
 27 26  1  0  0  0  0
 28 27  1  0  0  0  0
 29 28  1  0  0  0  0
 29 30  1  0  0  0  0
 31 29  2  0  0  0  0
M  END
>  <MODEL>
6

>  <REMARK>
 VINA RESULT:      -5.9      3.888      7.404
  Name = 
  10 active torsions:
  status: ('A' for Active; 'I' for Inactive)
    1  A    between atoms: C_1  and  C_24
    2  A    between atoms: C_5  and  C_21
    3  A    between atoms: C_6  and  C_7
    4  A    between atoms: C_6  and  C_19
    5  A    between atoms: C_7  and  N_9
    6  A    between atoms: N_9  and  C_22
    7  A    between atoms: N_9  and  C_23
    8  A    between atoms: C_15  and  C_23
    9  A    between atoms: O_17  and  N_30
   10  A    between atoms: C_19  and  C_24
                            x       y       z     vdW  Elec       q    Type
                         _______ _______ _______ _____ _____    ______ ____

>  <TORSDO>
F 10

$$$$
=
 OpenBabel10262419403D

 31 33  0  0  1  0  0  0  0  0999 V2000
  182.8260  178.9630  142.5660 C   0  0  0  0  0  0  0  0  0  0  0  0
  185.9190  178.4990  140.5290 O   0  0  0  0  0  0  0  0  0  0  0  0
  185.0390  178.5880  141.6100 C   0  0  1  0  0  3  0  0  0  0  0  0
  183.2470  178.7640  143.8210 C   0  0  0  0  0  3  0  0  0  0  0  0
  187.7290  177.9690  141.9840 C   0  0  0  0  0  0  0  0  0  0  0  0
  181.1390  179.3230  142.2750 Cl  0  0  0  0  0  0  0  0  0  0  0  0
  186.8290  178.0610  143.1050 N   0  0  0  0  0  0  0  0  0  0  0  0
  187.2700  178.1720  140.7300 C   0  0  0  0  0  0  0  0  0  0  0  0
  183.7540  178.8770  141.4240 C   0  0  0  0  0  3  0  0  0  0  0  0
  185.5690  178.3470  142.9630 C   0  0  0  0  0  0  0  0  0  0  0  0
  184.6810  178.4530  144.1700 C   0  0  0  0  0  3  0  0  0  0  0  0
  188.1800  178.0840  139.5420 C   0  0  1  0  0  3  0  0  0  0  0  0
  190.2740  176.6740  138.2730 S   0  0  0  0  0  0  0  0  0  0  0  0
  189.3430  177.1120  139.7910 C   0  0  0  0  0  2  0  0  0  0  0  0
  189.7230  178.1100  137.3000 C   0  0  0  0  0  2  0  0  0  0  0  0
  187.7420  179.3770  136.4850 C   0  0  0  0  0  1  0  0  0  0  0  0
  187.4240  177.7860  138.3140 N   0  0  0  0  0  0  0  0  0  0  0  0
  188.2040  178.0700  137.0950 C   0  0  2  0  0  3  0  0  0  0  0  0
  187.0890  176.4680  138.2950 O   0  0  0  0  0  0  0  0  0  0  0  0
  186.3340  176.3050  137.1310 C   0  0  0  0  0  1  0  0  0  0  0  0
  189.1580  177.6140  142.2480 C   0  0  0  0  0  2  0  0  0  0  0  0
  189.5410  178.0600  143.5780 N   0  0  0  0  0  0  0  0  0  0  0  0
  191.2950  179.6600  144.1050 C   0  0  0  0  0  1  0  0  0  0  0  0
  190.9790  178.2800  143.5610 C   0  0  0  0  0  2  0  0  0  0  0  0
  189.2970  176.9440  144.4770 C   0  0  0  0  0  2  0  0  0  0  0  0
  188.8220  177.4710  145.8150 C   0  0  0  0  0  2  0  0  0  0  0  0
  189.4930  176.6970  146.9290 C   0  0  0  0  0  2  0  0  0  0  0  0
  190.8880  177.2440  147.1520 C   0  0  0  0  0  2  0  0  0  0  0  0
  191.8850  176.1440  147.0670 C   0  0  0  0  0  0  0  0  0  0  0  0
  192.4720  175.7480  148.1080 O   0  0  0  0  0  1  0  0  0  0  0  0
  192.1630  175.5450  145.8450 O   0  0  0  0  0  0  0  0  0  0  0  0
  1  4  1  0  0  0  0
  2  8  1  0  0  0  0
  2  3  1  0  0  0  0
  3  9  1  6  0  0  0
  3 10  1  0  0  0  0
  4 11  2  0  0  0  0
  5 21  1  0  0  0  0
  5  7  1  0  0  0  0
  6  1  1  0  0  0  0
  8  5  2  0  0  0  0
  9  1  2  0  0  0  0
 10  7  2  0  0  0  0
 10 11  1  0  0  0  0
 12 14  1  0  0  0  0
 12  8  1  1  0  0  0
 13 14  1  0  0  0  0
 15 13  1  0  0  0  0
 17 12  1  0  0  0  0
 18 16  1  1  0  0  0
 18 15  1  0  0  0  0
 18 17  1  0  0  0  0
 19 17  1  0  0  0  0
 20 19  1  0  0  0  0
 21 22  1  0  0  0  0
 22 25  1  0  0  0  0
 24 22  1  0  0  0  0
 24 23  1  0  0  0  0
 25 26  1  0  0  0  0
 26 27  1  0  0  0  0
 27 28  1  0  0  0  0
 29 28  1  0  0  0  0
 29 30  1  0  0  0  0
 31 29  2  0  0  0  0
M  END
>  <MODEL>
7

>  <REMARK>
 VINA RESULT:      -5.8      3.401      5.769
  Name = 
  10 active torsions:
  status: ('A' for Active; 'I' for Inactive)
    1  A    between atoms: C_1  and  C_24
    2  A    between atoms: C_5  and  C_21
    3  A    between atoms: C_6  and  C_7
    4  A    between atoms: C_6  and  C_19
    5  A    between atoms: C_7  and  N_9
    6  A    between atoms: N_9  and  C_22
    7  A    between atoms: N_9  and  C_23
    8  A    between atoms: C_15  and  C_23
    9  A    between atoms: O_17  and  N_30
   10  A    between atoms: C_19  and  C_24
                            x       y       z     vdW  Elec       q    Type
                         _______ _______ _______ _____ _____    ______ ____

>  <TORSDO>
F 10

$$$$
=
 OpenBabel10262419403D

 31 33  0  0  1  0  0  0  0  0999 V2000
  182.9320  178.6190  142.6480 C   0  0  0  0  0  0  0  0  0  0  0  0
  186.6390  178.3570  142.9960 O   0  0  0  0  0  0  0  0  0  0  0  0
  185.3600  178.4840  142.4500 C   0  0  0  0  0  0  0  0  0  0  0  0
  182.7520  178.7460  141.3280 C   0  0  0  0  0  3  0  0  0  0  0  0
  187.6290  178.5100  140.8350 C   0  0  0  0  0  0  0  0  0  0  0  0
  181.5410  178.6280  143.7090 Cl  0  0  0  0  0  0  0  0  0  0  0  0
  186.3140  178.6380  140.2630 N   0  0  0  0  0  0  0  0  0  0  0  0
  187.7760  178.3860  142.1720 C   0  0  0  0  0  0  0  0  0  0  0  0
  184.2800  178.4780  143.2270 C   0  0  0  0  0  3  0  0  0  0  0  0
  185.2360  178.6310  140.9890 C   0  0  0  0  0  0  0  0  0  0  0  0
  183.8880  178.7460  140.3370 C   0  0  0  0  0  2  0  0  0  0  0  0
  189.1310  178.2500  142.7990 C   0  0  1  0  0  3  0  0  0  0  0  0
  190.5980  177.7650  145.1640 S   0  0  0  0  0  0  0  0  0  0  0  0
  189.0520  178.2930  144.3320 C   0  0  0  0  0  2  0  0  0  0  0  0
  191.6800  178.0340  143.7260 C   0  0  0  0  0  2  0  0  0  0  0  0
  192.0410  177.5020  141.3210 C   0  0  0  0  0  1  0  0  0  0  0  0
  189.8370  177.0640  142.2840 N   0  0  0  0  0  0  0  0  0  0  0  0
  191.2820  177.1070  142.5720 C   0  0  2  0  0  3  0  0  0  0  0  0
  189.3310  175.9450  142.8690 O   0  0  0  0  0  0  0  0  0  0  0  0
  190.4450  175.1530  143.1550 C   0  0  0  0  0  1  0  0  0  0  0  0
  188.8100  178.5510  139.9170 C   0  0  0  0  0  2  0  0  0  0  0  0
  188.5500  177.7380  138.7390 N   0  0  0  0  0  0  0  0  0  0  0  0
  190.4230  176.7260  137.5640 C   0  0  0  0  0  1  0  0  0  0  0  0
  189.4960  176.6330  138.7610 C   0  0  0  0  0  2  0  0  0  0  0  0
  188.8860  178.5570  137.5860 C   0  0  0  0  0  2  0  0  0  0  0  0
  187.6180  178.9250  136.8440 C   0  0  0  0  0  2  0  0  0  0  0  0
  186.6030  177.8130  136.9970 C   0  0  0  0  0  2  0  0  0  0  0  0
  186.6220  176.9400  135.7590 C   0  0  0  0  0  2  0  0  0  0  0  0
  187.1990  175.6080  136.0860 C   0  0  0  0  0  0  0  0  0  0  0  0
  186.7760  174.9700  137.0850 O   0  0  0  0  0  1  0  0  0  0  0  0
  188.1950  175.0620  135.2860 O   0  0  0  0  0  0  0  0  0  0  0  0
  1  9  1  0  0  0  0
  1  6  1  0  0  0  0
  3  2  1  0  0  0  0
  3  9  2  0  0  0  0
  4  1  2  0  0  0  0
  5  8  2  0  0  0  0
  7  5  1  0  0  0  0
  7 10  2  0  0  0  0
  8  2  1  0  0  0  0
 10  3  1  0  0  0  0
 11 10  1  0  0  0  0
 11  4  1  0  0  0  0
 12  8  1  6  0  0  0
 12 14  1  0  0  0  0
 14 13  1  0  0  0  0
 15 13  1  0  0  0  0
 17 18  1  0  0  0  0
 17 12  1  0  0  0  0
 17 19  1  0  0  0  0
 18 16  1  6  0  0  0
 18 15  1  0  0  0  0
 19 20  1  0  0  0  0
 21  5  1  0  0  0  0
 22 24  1  0  0  0  0
 22 21  1  0  0  0  0
 23 24  1  0  0  0  0
 25 22  1  0  0  0  0
 26 27  1  0  0  0  0
 26 25  1  0  0  0  0
 28 29  1  0  0  0  0
 28 27  1  0  0  0  0
 29 30  1  0  0  0  0
 31 29  2  0  0  0  0
M  END
>  <MODEL>
8

>  <REMARK>
 VINA RESULT:      -5.8      3.902      8.348
  Name = 
  10 active torsions:
  status: ('A' for Active; 'I' for Inactive)
    1  A    between atoms: C_1  and  C_24
    2  A    between atoms: C_5  and  C_21
    3  A    between atoms: C_6  and  C_7
    4  A    between atoms: C_6  and  C_19
    5  A    between atoms: C_7  and  N_9
    6  A    between atoms: N_9  and  C_22
    7  A    between atoms: N_9  and  C_23
    8  A    between atoms: C_15  and  C_23
    9  A    between atoms: O_17  and  N_30
   10  A    between atoms: C_19  and  C_24
                            x       y       z     vdW  Elec       q    Type
                         _______ _______ _______ _____ _____    ______ ____

>  <TORSDO>
F 10

$$$$
=
 OpenBabel10262419403D

 31 33  0  0  1  0  0  0  0  0999 V2000
  183.7600  179.1680  139.4900 C   0  0  0  0  0  0  0  0  0  0  0  0
  187.1290  177.9580  138.4350 O   0  0  0  0  0  0  0  0  0  0  0  0
  186.0680  178.4260  139.2120 C   0  0  1  0  0  3  0  0  0  0  0  0
  183.9030  179.3800  140.8040 C   0  0  0  0  0  3  0  0  0  0  0  0
  188.5520  177.8760  140.3430 C   0  0  0  0  0  0  0  0  0  0  0  0
  182.2100  179.4690  138.7370 Cl  0  0  0  0  0  0  0  0  0  0  0  0
  187.4640  178.3620  141.1520 N   0  0  0  0  0  0  0  0  0  0  0  0
  188.3730  177.6700  139.0210 C   0  0  0  0  0  0  0  0  0  0  0  0
  184.8810  178.6810  138.6670 C   0  0  0  0  0  3  0  0  0  0  0  0
  186.2930  178.6270  140.6540 C   0  0  0  0  0  0  0  0  0  0  0  0
  185.2000  179.1530  141.5400 C   0  0  0  0  0  3  0  0  0  0  0  0
  189.4860  177.1660  138.1520 C   0  0  1  0  0  3  0  0  0  0  0  0
  191.7040  175.4320  137.9280 S   0  0  0  0  0  0  0  0  0  0  0  0
  190.5280  176.3830  138.9640 C   0  0  0  0  0  2  0  0  0  0  0  0
  191.4230  176.3890  136.4070 C   0  0  0  0  0  2  0  0  0  0  0  0
  189.7020  177.2170  134.8110 C   0  0  0  0  0  1  0  0  0  0  0  0
  188.9610  176.4150  136.9980 N   0  0  0  0  0  0  0  0  0  0  0  0
  189.9710  176.2420  135.9390 C   0  0  2  0  0  3  0  0  0  0  0  0
  188.5670  175.1790  137.4030 O   0  0  0  0  0  0  0  0  0  0  0  0
  187.4170  174.9060  136.6580 C   0  0  0  0  0  1  0  0  0  0  0  0
  189.8570  177.5800  141.0130 C   0  0  0  0  0  2  0  0  0  0  0  0
  189.7150  177.7160  142.4550 N   0  0  0  0  0  0  0  0  0  0  0  0
  190.8730  179.1980  143.9970 C   0  0  0  0  0  1  0  0  0  0  0  0
  191.0200  178.0780  142.9840 C   0  0  0  0  0  2  0  0  0  0  0  0
  189.4050  176.3920  142.9680 C   0  0  0  0  0  2  0  0  0  0  0  0
  187.9980  176.3860  143.5290 C   0  0  0  0  0  2  0  0  0  0  0  0
  187.9370  177.2790  144.7480 C   0  0  0  0  0  2  0  0  0  0  0  0
  186.5550  177.8900  144.8560 C   0  0  0  0  0  2  0  0  0  0  0  0
  186.2780  178.2760  146.2660 C   0  0  0  0  0  0  0  0  0  0  0  0
  185.2060  178.8680  146.5550 O   0  0  0  0  0  0  0  0  0  0  0  0
  187.1940  177.9750  147.2660 O   0  0  0  0  0  1  0  0  0  0  0  0
  1  4  1  0  0  0  0
  2  8  1  0  0  0  0
  2  3  1  0  0  0  0
  3  9  1  1  0  0  0
  3 10  1  0  0  0  0
  4 11  2  0  0  0  0
  5 21  1  0  0  0  0
  5  7  1  0  0  0  0
  6  1  1  0  0  0  0
  8  5  2  0  0  0  0
  9  1  2  0  0  0  0
 10  7  2  0  0  0  0
 10 11  1  0  0  0  0
 12 14  1  0  0  0  0
 12  8  1  1  0  0  0
 13 14  1  0  0  0  0
 15 13  1  0  0  0  0
 17 19  1  0  0  0  0
 17 12  1  0  0  0  0
 18 16  1  6  0  0  0
 18 15  1  0  0  0  0
 18 17  1  0  0  0  0
 20 19  1  0  0  0  0
 21 22  1  0  0  0  0
 22 25  1  0  0  0  0
 22 24  1  0  0  0  0
 24 23  1  0  0  0  0
 25 26  1  0  0  0  0
 26 27  1  0  0  0  0
 27 28  1  0  0  0  0
 28 29  1  0  0  0  0
 29 30  2  0  0  0  0
 29 31  1  0  0  0  0
M  END
>  <MODEL>
9

>  <REMARK>
 VINA RESULT:      -5.8      3.425      6.074
  Name = 
  10 active torsions:
  status: ('A' for Active; 'I' for Inactive)
    1  A    between atoms: C_1  and  C_24
    2  A    between atoms: C_5  and  C_21
    3  A    between atoms: C_6  and  C_7
    4  A    between atoms: C_6  and  C_19
    5  A    between atoms: C_7  and  N_9
    6  A    between atoms: N_9  and  C_22
    7  A    between atoms: N_9  and  C_23
    8  A    between atoms: C_15  and  C_23
    9  A    between atoms: O_17  and  N_30
   10  A    between atoms: C_19  and  C_24
                            x       y       z     vdW  Elec       q    Type
                         _______ _______ _______ _____ _____    ______ ____

>  <TORSDO>
F 10

$$$$
