=
 OpenBabel10262421353D

 32 36  0  0  1  0  0  0  0  0999 V2000
  181.4190  179.3030  142.9540 C   0  0  2  0  0  3  0  0  0  0  0  0
  186.2060  177.5690  143.4310 C   0  0  0  0  0  0  0  0  0  0  0  0
  187.4380  177.6380  148.1350 C   0  0  0  0  0  2  0  0  0  0  0  0
  188.8230  177.1300  147.7180 C   0  0  0  0  0  2  0  0  0  0  0  0
  184.0610  178.2710  142.5390 C   0  0  0  0  0  0  0  0  0  0  0  0
  184.7110  178.9090  144.7900 C   0  0  0  0  0  3  0  0  0  0  0  0
  182.5090  179.7200  143.9390 C   0  0  0  0  0  2  0  0  0  0  0  0
  186.4310  177.4830  146.9910 C   0  0  0  0  0  2  0  0  0  0  0  0
  185.9230  178.2260  144.6410 C   0  0  0  0  0  0  0  0  0  0  0  0
  186.9190  178.2530  145.7650 C   0  0  0  0  0  0  0  0  0  0  0  0
  188.5590  177.1230  144.2300 C   0  0  0  0  0  0  0  0  0  0  0  0
  181.9890  179.2910  141.5410 C   0  0  0  0  0  2  0  0  0  0  0  0
  183.7690  178.9210  143.7580 C   0  0  0  0  0  0  0  0  0  0  0  0
  183.0530  178.2020  141.4260 C   0  0  0  0  0  2  0  0  0  0  0  0
  189.3280  177.8740  146.4790 C   0  0  0  0  0  2  0  0  0  0  0  0
  188.2980  177.7630  145.3920 C   0  0  0  0  0  0  0  0  0  0  0  0
  185.2680  177.5840  142.3960 C   0  0  0  0  0  3  0  0  0  0  0  0
  187.4710  176.7890  143.2410 C   0  0  0  0  0  3  0  0  0  0  0  0
  180.3560  180.2040  143.0260 O   0  0  0  0  0  0  0  0  0  0  0  0
  179.6740  180.0500  141.8160 C   0  0  0  0  0  2  0  0  0  0  0  0
  179.0300  181.3630  141.4090 C   0  0  0  0  0  2  0  0  0  0  0  0
  179.0460  179.7170  139.3590 C   0  0  0  0  0  1  0  0  0  0  0  0
  178.9880  181.5150  139.5970 S   0  0  0  0  0  0  0  0  0  0  0  0
  189.9400  176.6210  143.9230 C   0  0  0  0  0  2  0  0  0  0  0  0
  190.5570  177.3940  142.7630 C   0  0  2  0  0  3  0  0  0  0  0  0
  189.6510  177.1580  140.3690 C   0  0  1  0  0  3  0  0  0  0  0  0
  191.1570  177.3180  140.3410 C   0  0  0  0  0  2  0  0  0  0  0  0
  190.5130  176.5560  141.4830 C   0  0  1  0  0  3  0  0  0  0  0  0
  189.0640  178.3700  140.7440 O   0  0  0  0  0  1  0  0  0  0  0  0
  191.9810  177.8610  143.0790 C   0  0  0  0  0  2  0  0  0  0  0  0
  192.0210  178.8840  144.2050 C   0  0  0  0  0  2  0  0  0  0  0  0
  190.9730  179.9480  143.9560 C   0  0  0  0  0  1  0  0  0  0  0  0
  1 19  1  6  0  0  0
  1  7  1  0  0  0  0
  2  9  1  0  0  0  0
  4  3  1  0  0  0  0
  5 13  1  0  0  0  0
  8  3  1  0  0  0  0
  9  6  1  0  0  0  0
  9 10  2  0  0  0  0
 10  8  1  0  0  0  0
 11 16  2  0  0  0  0
 12  1  1  0  0  0  0
 13  7  1  0  0  0  0
 13  6  2  0  0  0  0
 14 12  1  0  0  0  0
 14  5  1  0  0  0  0
 15  4  1  0  0  0  0
 16 10  1  0  0  0  0
 16 15  1  0  0  0  0
 17  5  2  0  0  0  0
 17  2  1  0  0  0  0
 18  2  2  0  0  0  0
 18 11  1  0  0  0  0
 20 19  1  0  0  0  0
 21 20  1  0  0  0  0
 22 23  1  0  0  0  0
 23 21  1  0  0  0  0
 24 11  1  0  0  0  0
 25 30  1  1  0  0  0
 25 24  1  0  0  0  0
 26 29  1  1  0  0  0
 26 28  1  0  0  0  0
 27 26  1  0  0  0  0
 27 28  1  0  0  0  0
 28 25  1  1  0  0  0
 30 31  1  0  0  0  0
 32 31  1  0  0  0  0
M  END
>  <MODEL>
1

>  <REMARK>
 VINA RESULT:      -7.9      0.000      0.000
  Name = 
  9 active torsions:
  status: ('A' for Active; 'I' for Inactive)
    1  A    between atoms: C_2  and  O_24
    2  A    between atoms: C_6  and  C_7
    3  A    between atoms: C_7  and  C_32
    4  A    between atoms: C_10  and  C_20
    5  A    between atoms: C_10  and  O_24
    6  A    between atoms: C_16  and  C_27
    7  A    between atoms: S_17  and  C_20
    8  A    between atoms: C_22  and  C_32
    9  A    between atoms: C_27  and  C_32
                            x       y       z     vdW  Elec       q    Type
                         _______ _______ _______ _____ _____    ______ ____

>  <TORSDO>
F 9

$$$$
=
 OpenBabel10262421353D

 32 36  0  0  1  0  0  0  0  0999 V2000
  189.2940  177.5720  137.4370 C   0  0  2  0  0  3  0  0  0  0  0  0
  188.6380  177.0200  142.4780 C   0  0  0  0  0  0  0  0  0  0  0  0
  184.2210  178.6680  143.6750 C   0  0  0  0  0  2  0  0  0  0  0  0
  184.5620  178.3440  145.1340 C   0  0  0  0  0  2  0  0  0  0  0  0
  189.5620  177.0040  140.2340 C   0  0  0  0  0  0  0  0  0  0  0  0
  187.6200  178.3720  140.7410 C   0  0  0  0  0  3  0  0  0  0  0  0
  188.5310  178.4570  138.4190 C   0  0  0  0  0  2  0  0  0  0  0  0
  185.2150  177.9990  142.7190 C   0  0  0  0  0  2  0  0  0  0  0  0
  187.6450  177.9260  142.0680 C   0  0  0  0  0  0  0  0  0  0  0  0
  186.6340  178.4670  143.0380 C   0  0  0  0  0  0  0  0  0  0  0  0
  187.8880  177.2920  144.8730 C   0  0  0  0  0  0  0  0  0  0  0  0
  190.6790  177.2690  137.9960 C   0  0  0  0  0  2  0  0  0  0  0  0
  188.5580  177.9040  139.8160 C   0  0  0  0  0  0  0  0  0  0  0  0
  190.5500  176.4240  139.2600 C   0  0  0  0  0  2  0  0  0  0  0  0
  185.9870  178.7890  145.4740 C   0  0  0  0  0  2  0  0  0  0  0  0
  186.9370  178.1720  144.4880 C   0  0  0  0  0  0  0  0  0  0  0  0
  189.5790  176.5550  141.5560 C   0  0  0  0  0  3  0  0  0  0  0  0
  188.6790  176.4840  143.8760 C   0  0  0  0  0  3  0  0  0  0  0  0
  189.4140  178.2280  136.2120 O   0  0  0  0  0  0  0  0  0  0  0  0
  188.3550  177.7410  135.4400 C   0  0  0  0  0  2  0  0  0  0  0  0
  188.3910  176.2240  135.4040 C   0  0  0  0  0  2  0  0  0  0  0  0
  186.3420  175.4710  136.8690 C   0  0  0  0  0  1  0  0  0  0  0  0
  186.7260  175.5570  135.0980 S   0  0  0  0  0  0  0  0  0  0  0  0
  188.1240  177.0050  146.3280 C   0  0  0  0  0  2  0  0  0  0  0  0
  189.5160  177.4600  146.7550 C   0  0  2  0  0  3  0  0  0  0  0  0
  191.7520  176.3320  146.1800 C   0  0  1  0  0  3  0  0  0  0  0  0
  191.7070  176.6750  147.6550 C   0  0  0  0  0  2  0  0  0  0  0  0
  190.4320  176.2500  146.9530 C   0  0  1  0  0  3  0  0  0  0  0  0
  191.8620  177.5090  145.4350 O   0  0  0  0  0  1  0  0  0  0  0  0
  189.4700  178.3400  148.0080 C   0  0  0  0  0  2  0  0  0  0  0  0
  188.0470  178.6360  148.4590 C   0  0  0  0  0  2  0  0  0  0  0  0
  187.6090  177.5910  149.4630 C   0  0  0  0  0  1  0  0  0  0  0  0
  1 19  1  6  0  0  0
  1 12  1  0  0  0  0
  1  7  1  0  0  0  0
  2 18  1  0  0  0  0
  3  4  1  0  0  0  0
  4 15  1  0  0  0  0
  5 17  1  0  0  0  0
  6  9  2  0  0  0  0
  7 13  1  0  0  0  0
  8 10  1  0  0  0  0
  8  3  1  0  0  0  0
  9  2  1  0  0  0  0
  9 10  1  0  0  0  0
 10 16  2  0  0  0  0
 11 24  1  0  0  0  0
 12 14  1  0  0  0  0
 13  5  2  0  0  0  0
 13  6  1  0  0  0  0
 14  5  1  0  0  0  0
 16 11  1  0  0  0  0
 16 15  1  0  0  0  0
 17  2  2  0  0  0  0
 18 11  2  0  0  0  0
 20 19  1  0  0  0  0
 21 20  1  0  0  0  0
 23 21  1  0  0  0  0
 23 22  1  0  0  0  0
 25 24  1  1  0  0  0
 25 30  1  0  0  0  0
 26 29  1  6  0  0  0
 26 28  1  0  0  0  0
 26 27  1  0  0  0  0
 28 25  1  6  0  0  0
 28 27  1  0  0  0  0
 30 31  1  0  0  0  0
 31 32  1  0  0  0  0
M  END
>  <MODEL>
2

>  <REMARK>
 VINA RESULT:      -7.7      3.833      6.735
  Name = 
  9 active torsions:
  status: ('A' for Active; 'I' for Inactive)
    1  A    between atoms: C_2  and  O_24
    2  A    between atoms: C_6  and  C_7
    3  A    between atoms: C_7  and  C_32
    4  A    between atoms: C_10  and  C_20
    5  A    between atoms: C_10  and  O_24
    6  A    between atoms: C_16  and  C_27
    7  A    between atoms: S_17  and  C_20
    8  A    between atoms: C_22  and  C_32
    9  A    between atoms: C_27  and  C_32
                            x       y       z     vdW  Elec       q    Type
                         _______ _______ _______ _____ _____    ______ ____

>  <TORSDO>
F 9

$$$$
=
 OpenBabel10262421353D

 32 36  0  0  1  0  0  0  0  0999 V2000
  181.6760  179.2030  142.4040 C   0  0  2  0  0  3  0  0  0  0  0  0
  186.3750  178.1880  144.1480 C   0  0  0  0  0  0  0  0  0  0  0  0
  189.4170  177.8680  140.3670 C   0  0  0  0  0  2  0  0  0  0  0  0
  190.5290  177.5340  141.3680 C   0  0  0  0  0  2  0  0  0  0  0  0
  183.9970  178.6510  143.9920 C   0  0  0  0  0  0  0  0  0  0  0  0
  185.2330  177.9540  142.0220 C   0  0  0  0  0  3  0  0  0  0  0  0
  182.7820  178.3580  141.7770 C   0  0  0  0  0  2  0  0  0  0  0  0
  188.1870  178.4350  141.0840 C   0  0  0  0  0  2  0  0  0  0  0  0
  186.4090  177.8810  142.7770 C   0  0  0  0  0  0  0  0  0  0  0  0
  187.6770  177.4260  142.1120 C   0  0  0  0  0  0  0  0  0  0  0  0
  188.7590  177.3920  144.3810 C   0  0  0  0  0  0  0  0  0  0  0  0
  181.4890  178.7970  143.8600 C   0  0  0  0  0  2  0  0  0  0  0  0
  184.0320  178.3550  142.6120 C   0  0  0  0  0  0  0  0  0  0  0  0
  182.7430  179.1480  144.6560 C   0  0  0  0  0  2  0  0  0  0  0  0
  190.0370  176.5370  142.4190 C   0  0  0  0  0  2  0  0  0  0  0  0
  188.7970  177.0830  143.0650 C   0  0  0  0  0  0  0  0  0  0  0  0
  185.1730  178.5850  144.7420 C   0  0  0  0  0  3  0  0  0  0  0  0
  187.6150  178.1660  144.9870 C   0  0  0  0  0  3  0  0  0  0  0  0
  180.4850  179.0070  141.7030 O   0  0  0  0  0  0  0  0  0  0  0  0
  180.8570  179.0140  140.3570 C   0  0  0  0  0  2  0  0  0  0  0  0
  180.3650  180.2840  139.6860 C   0  0  0  0  0  2  0  0  0  0  0  0
  181.0830  180.1940  137.1590 C   0  0  0  0  0  1  0  0  0  0  0  0
  181.6800  181.0140  138.6630 S   0  0  0  0  0  0  0  0  0  0  0  0
  189.9150  177.0640  145.2800 C   0  0  0  0  0  2  0  0  0  0  0  0
  189.4570  176.9120  146.7270 C   0  0  2  0  0  3  0  0  0  0  0  0
  188.1150  178.3100  148.4160 C   0  0  1  0  0  3  0  0  0  0  0  0
  189.5710  178.2500  148.8310 C   0  0  0  0  0  2  0  0  0  0  0  0
  189.2210  178.2870  147.3560 C   0  0  1  0  0  3  0  0  0  0  0  0
  187.5280  177.0550  148.6020 O   0  0  0  0  0  1  0  0  0  0  0  0
  190.4390  176.0780  147.5540 C   0  0  0  0  0  2  0  0  0  0  0  0
  191.8230  176.0140  146.9230 C   0  0  0  0  0  2  0  0  0  0  0  0
  192.8420  175.6470  147.9810 C   0  0  0  0  0  1  0  0  0  0  0  0
  1 19  1  6  0  0  0
  1 12  1  0  0  0  0
  2 17  2  0  0  0  0
  2 18  1  0  0  0  0
  3  8  1  0  0  0  0
  3  4  1  0  0  0  0
  4 15  1  0  0  0  0
  5 14  1  0  0  0  0
  5 17  1  0  0  0  0
  6 13  1  0  0  0  0
  6  9  2  0  0  0  0
  7  1  1  0  0  0  0
  7 13  1  0  0  0  0
  8 10  1  0  0  0  0
  9  2  1  0  0  0  0
 10  9  1  0  0  0  0
 10 16  2  0  0  0  0
 11 18  2  0  0  0  0
 11 24  1  0  0  0  0
 12 14  1  0  0  0  0
 13  5  2  0  0  0  0
 15 16  1  0  0  0  0
 16 11  1  0  0  0  0
 20 19  1  0  0  0  0
 21 20  1  0  0  0  0
 22 23  1  0  0  0  0
 23 21  1  0  0  0  0
 25 24  1  6  0  0  0
 25 30  1  0  0  0  0
 26 29  1  6  0  0  0
 26 27  1  0  0  0  0
 28 25  1  6  0  0  0
 28 26  1  0  0  0  0
 28 27  1  0  0  0  0
 31 30  1  0  0  0  0
 31 32  1  0  0  0  0
M  END
>  <MODEL>
3

>  <REMARK>
 VINA RESULT:      -7.5      2.143      4.396
  Name = 
  9 active torsions:
  status: ('A' for Active; 'I' for Inactive)
    1  A    between atoms: C_2  and  O_24
    2  A    between atoms: C_6  and  C_7
    3  A    between atoms: C_7  and  C_32
    4  A    between atoms: C_10  and  C_20
    5  A    between atoms: C_10  and  O_24
    6  A    between atoms: C_16  and  C_27
    7  A    between atoms: S_17  and  C_20
    8  A    between atoms: C_22  and  C_32
    9  A    between atoms: C_27  and  C_32
                            x       y       z     vdW  Elec       q    Type
                         _______ _______ _______ _____ _____    ______ ____

>  <TORSDO>
F 9

$$$$
=
 OpenBabel10262421353D

 32 36  0  0  1  0  0  0  0  0999 V2000
  180.2380  179.8900  141.9370 C   0  0  2  0  0  3  0  0  0  0  0  0
  184.6460  178.2760  143.9690 C   0  0  0  0  0  0  0  0  0  0  0  0
  188.1240  178.5370  140.5790 C   0  0  0  0  0  2  0  0  0  0  0  0
  189.0900  177.9470  141.6120 C   0  0  0  0  0  2  0  0  0  0  0  0
  182.3230  178.8980  143.6370 C   0  0  0  0  0  0  0  0  0  0  0  0
  183.7720  178.5360  141.7220 C   0  0  0  0  0  3  0  0  0  0  0  0
  181.3850  179.1220  141.2840 C   0  0  0  0  0  2  0  0  0  0  0  0
  186.8340  179.0210  141.2500 C   0  0  0  0  0  2  0  0  0  0  0  0
  184.8410  178.2460  142.5770 C   0  0  0  0  0  0  0  0  0  0  0  0
  186.1660  177.8590  141.9840 C   0  0  0  0  0  0  0  0  0  0  0  0
  186.9540  177.3120  144.3080 C   0  0  0  0  0  0  0  0  0  0  0  0
  179.8580  179.2140  143.2490 C   0  0  0  0  0  2  0  0  0  0  0  0
  182.5200  178.8810  142.2390 C   0  0  0  0  0  0  0  0  0  0  0  0
  181.0140  179.3260  144.2390 C   0  0  0  0  0  2  0  0  0  0  0  0
  188.4380  176.7900  142.3730 C   0  0  0  0  0  2  0  0  0  0  0  0
  187.1460  177.2690  142.9700 C   0  0  0  0  0  0  0  0  0  0  0  0
  183.3940  178.6160  144.4880 C   0  0  0  0  0  3  0  0  0  0  0  0
  185.7700  178.0150  144.9220 C   0  0  0  0  0  3  0  0  0  0  0  0
  179.1390  179.9060  141.0790 O   0  0  0  0  0  0  0  0  0  0  0  0
  179.5650  180.6350  139.9660 C   0  0  0  0  0  2  0  0  0  0  0  0
  178.9370  182.0180  139.9760 C   0  0  0  0  0  2  0  0  0  0  0  0
  180.3350  181.5490  137.8000 C   0  0  0  0  0  1  0  0  0  0  0  0
  179.2280  182.8600  138.3900 S   0  0  0  0  0  0  0  0  0  0  0  0
  187.9780  176.7450  145.2480 C   0  0  0  0  0  2  0  0  0  0  0  0
  189.1730  177.6830  145.3840 C   0  0  2  0  0  3  0  0  0  0  0  0
  191.4520  177.9620  144.2290 C   0  0  1  0  0  3  0  0  0  0  0  0
  191.6460  177.4860  145.6540 C   0  0  0  0  0  2  0  0  0  0  0  0
  190.4430  177.0030  144.8680 C   0  0  1  0  0  3  0  0  0  0  0  0
  191.0090  179.2880  144.2400 O   0  0  0  0  0  1  0  0  0  0  0  0
  189.3480  178.1820  146.8210 C   0  0  0  0  0  2  0  0  0  0  0  0
  188.6380  177.2960  147.8350 C   0  0  0  0  0  2  0  0  0  0  0  0
  187.9250  178.1650  148.8500 C   0  0  0  0  0  1  0  0  0  0  0  0
  1 19  1  6  0  0  0
  1 12  1  0  0  0  0
  2 17  2  0  0  0  0
  2 18  1  0  0  0  0
  3  8  1  0  0  0  0
  3  4  1  0  0  0  0
  4 15  1  0  0  0  0
  5 14  1  0  0  0  0
  5 17  1  0  0  0  0
  6 13  1  0  0  0  0
  6  9  2  0  0  0  0
  7  1  1  0  0  0  0
  7 13  1  0  0  0  0
  8 10  1  0  0  0  0
  9  2  1  0  0  0  0
 10  9  1  0  0  0  0
 10 16  2  0  0  0  0
 11 18  2  0  0  0  0
 11 24  1  0  0  0  0
 12 14  1  0  0  0  0
 13  5  2  0  0  0  0
 15 16  1  0  0  0  0
 16 11  1  0  0  0  0
 20 21  1  0  0  0  0
 20 19  1  0  0  0  0
 22 23  1  0  0  0  0
 23 21  1  0  0  0  0
 25 24  1  1  0  0  0
 25 30  1  0  0  0  0
 26 29  1  1  0  0  0
 26 28  1  0  0  0  0
 26 27  1  0  0  0  0
 28 25  1  1  0  0  0
 28 27  1  0  0  0  0
 30 31  1  0  0  0  0
 31 32  1  0  0  0  0
M  END
>  <MODEL>
4

>  <REMARK>
 VINA RESULT:      -7.5      1.523      3.746
  Name = 
  9 active torsions:
  status: ('A' for Active; 'I' for Inactive)
    1  A    between atoms: C_2  and  O_24
    2  A    between atoms: C_6  and  C_7
    3  A    between atoms: C_7  and  C_32
    4  A    between atoms: C_10  and  C_20
    5  A    between atoms: C_10  and  O_24
    6  A    between atoms: C_16  and  C_27
    7  A    between atoms: S_17  and  C_20
    8  A    between atoms: C_22  and  C_32
    9  A    between atoms: C_27  and  C_32
                            x       y       z     vdW  Elec       q    Type
                         _______ _______ _______ _____ _____    ______ ____

>  <TORSDO>
F 9

$$$$
=
 OpenBabel10262421353D

 32 36  0  0  1  0  0  0  0  0999 V2000
  190.6580  177.1350  139.6120 C   0  0  2  0  0  3  0  0  0  0  0  0
  186.5440  178.6530  142.2430 C   0  0  0  0  0  0  0  0  0  0  0  0
  187.3530  177.9150  146.9820 C   0  0  0  0  0  2  0  0  0  0  0  0
  185.9350  178.4350  147.2430 C   0  0  0  0  0  2  0  0  0  0  0  0
  188.1120  178.1380  140.4630 C   0  0  0  0  0  0  0  0  0  0  0  0
  188.4250  177.1840  142.6740 C   0  0  0  0  0  3  0  0  0  0  0  0
  190.0570  176.5580  140.8920 C   0  0  0  0  0  2  0  0  0  0  0  0
  187.8060  178.2510  145.5570 C   0  0  0  0  0  2  0  0  0  0  0  0
  187.2800  177.8470  143.1290 C   0  0  0  0  0  0  0  0  0  0  0  0
  186.8340  177.6400  144.5490 C   0  0  0  0  0  0  0  0  0  0  0  0
  184.7420  178.9200  143.9910 C   0  0  0  0  0  0  0  0  0  0  0  0
  189.5580  177.3210  138.5740 C   0  0  0  0  0  2  0  0  0  0  0  0
  188.8590  177.3380  141.3540 C   0  0  0  0  0  0  0  0  0  0  0  0
  188.5740  178.3850  139.0540 C   0  0  0  0  0  2  0  0  0  0  0  0
  184.9440  177.8510  146.2350 C   0  0  0  0  0  2  0  0  0  0  0  0
  185.4380  178.1370  144.8450 C   0  0  0  0  0  0  0  0  0  0  0  0
  186.9730  178.8040  140.9220 C   0  0  0  0  0  3  0  0  0  0  0  0
  185.3370  179.4140  142.6970 C   0  0  0  0  0  3  0  0  0  0  0  0
  191.6290  176.2630  139.1180 O   0  0  0  0  0  0  0  0  0  0  0  0
  191.5600  176.4000  137.7290 C   0  0  0  0  0  2  0  0  0  0  0  0
  192.8930  176.0340  137.1020 C   0  0  0  0  0  2  0  0  0  0  0  0
  190.9070  175.9910  135.3800 C   0  0  0  0  0  1  0  0  0  0  0  0
  192.6630  175.5350  135.3680 S   0  0  0  0  0  0  0  0  0  0  0  0
  183.3730  179.4190  144.3500 C   0  0  0  0  0  2  0  0  0  0  0  0
  182.3650  179.0820  143.2570 C   0  0  2  0  0  3  0  0  0  0  0  0
  179.8540  179.5210  143.5870 C   0  0  1  0  0  3  0  0  0  0  0  0
  180.0590  178.2530  142.7830 C   0  0  0  0  0  2  0  0  0  0  0  0
  181.0490  178.6070  143.8760 C   0  0  1  0  0  3  0  0  0  0  0  0
  180.2040  180.6250  142.8050 O   0  0  0  0  0  1  0  0  0  0  0  0
  182.9200  178.0560  142.2630 C   0  0  0  0  0  2  0  0  0  0  0  0
  182.7290  178.4860  140.8160 C   0  0  0  0  0  2  0  0  0  0  0  0
  183.4280  177.5020  139.9020 C   0  0  0  0  0  1  0  0  0  0  0  0
  1 19  1  6  0  0  0
  1  7  1  0  0  0  0
  2 18  2  0  0  0  0
  2  9  1  0  0  0  0
  3  4  1  0  0  0  0
  5 17  2  0  0  0  0
  5 13  1  0  0  0  0
  6  9  1  0  0  0  0
  7 13  1  0  0  0  0
  8  3  1  0  0  0  0
  9 10  2  0  0  0  0
 10 16  1  0  0  0  0
 10  8  1  0  0  0  0
 11 24  1  0  0  0  0
 11 16  2  0  0  0  0
 12 14  1  0  0  0  0
 12  1  1  0  0  0  0
 13  6  2  0  0  0  0
 14  5  1  0  0  0  0
 15  4  1  0  0  0  0
 16 15  1  0  0  0  0
 17  2  1  0  0  0  0
 18 11  1  0  0  0  0
 20 19  1  0  0  0  0
 21 20  1  0  0  0  0
 23 22  1  0  0  0  0
 23 21  1  0  0  0  0
 25 30  1  6  0  0  0
 25 24  1  0  0  0  0
 26 29  1  6  0  0  0
 26 28  1  0  0  0  0
 27 26  1  0  0  0  0
 27 28  1  0  0  0  0
 28 25  1  6  0  0  0
 31 30  1  0  0  0  0
 32 31  1  0  0  0  0
M  END
>  <MODEL>
5

>  <REMARK>
 VINA RESULT:      -7.2      3.363      8.365
  Name = 
  9 active torsions:
  status: ('A' for Active; 'I' for Inactive)
    1  A    between atoms: C_2  and  O_24
    2  A    between atoms: C_6  and  C_7
    3  A    between atoms: C_7  and  C_32
    4  A    between atoms: C_10  and  C_20
    5  A    between atoms: C_10  and  O_24
    6  A    between atoms: C_16  and  C_27
    7  A    between atoms: S_17  and  C_20
    8  A    between atoms: C_22  and  C_32
    9  A    between atoms: C_27  and  C_32
                            x       y       z     vdW  Elec       q    Type
                         _______ _______ _______ _____ _____    ______ ____

>  <TORSDO>
F 9

$$$$
=
 OpenBabel10262421353D

 32 36  0  0  1  0  0  0  0  0999 V2000
  189.0320  177.9210  145.3810 C   0  0  2  0  0  3  0  0  0  0  0  0
  191.3870  177.2110  140.8980 C   0  0  0  0  0  0  0  0  0  0  0  0
  188.3230  178.3970  137.3110 C   0  0  0  0  0  2  0  0  0  0  0  0
  189.4170  177.9820  136.3210 C   0  0  0  0  0  2  0  0  0  0  0  0
  190.8740  177.3250  143.2670 C   0  0  0  0  0  0  0  0  0  0  0  0
  189.0820  177.3860  141.6300 C   0  0  0  0  0  3  0  0  0  0  0  0
  188.4560  177.4570  144.0450 C   0  0  0  0  0  2  0  0  0  0  0  0
  188.8950  178.5530  138.7240 C   0  0  0  0  0  2  0  0  0  0  0  0
  190.0170  177.2940  140.5930 C   0  0  0  0  0  0  0  0  0  0  0  0
  189.5300  177.2380  139.1730 C   0  0  0  0  0  0  0  0  0  0  0  0
  191.8950  176.7590  138.4660 C   0  0  0  0  0  0  0  0  0  0  0  0
  190.2830  177.1120  145.7030 C   0  0  0  0  0  2  0  0  0  0  0  0
  189.4990  177.4220  142.9630 C   0  0  0  0  0  0  0  0  0  0  0  0
  191.3730  177.4250  144.6820 C   0  0  0  0  0  2  0  0  0  0  0  0
  190.0820  176.6740  136.7570 C   0  0  0  0  0  2  0  0  0  0  0  0
  190.5780  176.8270  138.1660 C   0  0  0  0  0  0  0  0  0  0  0  0
  191.8060  177.2410  142.2310 C   0  0  0  0  0  3  0  0  0  0  0  0
  192.4260  177.1540  139.8210 C   0  0  0  0  0  3  0  0  0  0  0  0
  188.0820  177.7400  146.3870 O   0  0  0  0  0  0  0  0  0  0  0  0
  186.8580  177.6800  145.7160 C   0  0  0  0  0  2  0  0  0  0  0  0
  185.7690  178.3210  146.5580 C   0  0  0  0  0  2  0  0  0  0  0  0
  185.1640  178.2280  144.0020 C   0  0  0  0  0  1  0  0  0  0  0  0
  184.4320  178.9490  145.4970 S   0  0  0  0  0  0  0  0  0  0  0  0
  192.9020  176.3830  137.4190 C   0  0  0  0  0  2  0  0  0  0  0  0
  193.4770  174.9960  137.6870 C   0  0  2  0  0  3  0  0  0  0  0  0
  196.0130  174.7390  138.0160 C   0  0  1  0  0  3  0  0  0  0  0  0
  195.4460  173.4990  137.3560 C   0  0  0  0  0  2  0  0  0  0  0  0
  194.8500  174.8530  137.0260 C   0  0  1  0  0  3  0  0  0  0  0  0
  195.5880  174.7900  139.3460 O   0  0  0  0  0  1  0  0  0  0  0  0
  192.5220  173.8850  137.2410 C   0  0  0  0  0  2  0  0  0  0  0  0
  192.2260  173.9360  135.7490 C   0  0  0  0  0  2  0  0  0  0  0  0
  190.8910  173.2750  135.4780 C   0  0  0  0  0  1  0  0  0  0  0  0
  1 12  1  0  0  0  0
  1 19  1  1  0  0  0
  2 17  1  0  0  0  0
  3  8  1  0  0  0  0
  4 15  1  0  0  0  0
  4  3  1  0  0  0  0
  5 14  1  0  0  0  0
  6 13  2  0  0  0  0
  7  1  1  0  0  0  0
  8 10  1  0  0  0  0
  9  2  1  0  0  0  0
  9  6  1  0  0  0  0
 10  9  2  0  0  0  0
 11 18  1  0  0  0  0
 13  5  1  0  0  0  0
 13  7  1  0  0  0  0
 14 12  1  0  0  0  0
 15 16  1  0  0  0  0
 16 11  2  0  0  0  0
 16 10  1  0  0  0  0
 17  5  2  0  0  0  0
 18  2  2  0  0  0  0
 20 19  1  0  0  0  0
 20 21  1  0  0  0  0
 22 23  1  0  0  0  0
 23 21  1  0  0  0  0
 24 25  1  0  0  0  0
 24 11  1  0  0  0  0
 25 30  1  6  0  0  0
 26 29  1  1  0  0  0
 27 26  1  0  0  0  0
 28 27  1  0  0  0  0
 28 25  1  1  0  0  0
 28 26  1  0  0  0  0
 31 30  1  0  0  0  0
 32 31  1  0  0  0  0
M  END
>  <MODEL>
6

>  <REMARK>
 VINA RESULT:      -7.2      3.841      7.953
  Name = 
  9 active torsions:
  status: ('A' for Active; 'I' for Inactive)
    1  A    between atoms: C_2  and  O_24
    2  A    between atoms: C_6  and  C_7
    3  A    between atoms: C_7  and  C_32
    4  A    between atoms: C_10  and  C_20
    5  A    between atoms: C_10  and  O_24
    6  A    between atoms: C_16  and  C_27
    7  A    between atoms: S_17  and  C_20
    8  A    between atoms: C_22  and  C_32
    9  A    between atoms: C_27  and  C_32
                            x       y       z     vdW  Elec       q    Type
                         _______ _______ _______ _____ _____    ______ ____

>  <TORSDO>
F 9

$$$$
=
 OpenBabel10262421353D

 32 36  0  0  1  0  0  0  0  0999 V2000
  181.4780  178.9940  141.7930 C   0  0  2  0  0  3  0  0  0  0  0  0
  186.1200  178.4290  143.8630 C   0  0  0  0  0  0  0  0  0  0  0  0
  189.3640  177.8010  140.2930 C   0  0  0  0  0  2  0  0  0  0  0  0
  190.4360  177.6460  141.3770 C   0  0  0  0  0  2  0  0  0  0  0  0
  183.7360  178.7520  143.5420 C   0  0  0  0  0  0  0  0  0  0  0  0
  185.1010  177.8830  141.7310 C   0  0  0  0  0  3  0  0  0  0  0  0
  182.6510  178.1340  141.3270 C   0  0  0  0  0  2  0  0  0  0  0  0
  188.0760  178.3910  140.8780 C   0  0  0  0  0  2  0  0  0  0  0  0
  186.2380  177.9600  142.5430 C   0  0  0  0  0  0  0  0  0  0  0  0
  187.5570  177.4900  141.9980 C   0  0  0  0  0  0  0  0  0  0  0  0
  188.5210  177.7840  144.3010 C   0  0  0  0  0  0  0  0  0  0  0  0
  181.2340  178.7590  143.2780 C   0  0  0  0  0  2  0  0  0  0  0  0
  183.8540  178.2930  142.2120 C   0  0  0  0  0  0  0  0  0  0  0  0
  182.4300  179.2650  144.0810 C   0  0  0  0  0  2  0  0  0  0  0  0
  189.9350  176.7610  142.5200 C   0  0  0  0  0  2  0  0  0  0  0  0
  188.6400  177.3210  143.0370 C   0  0  0  0  0  0  0  0  0  0  0  0
  184.8740  178.8350  144.3470 C   0  0  0  0  0  3  0  0  0  0  0  0
  187.3160  178.5690  144.7530 C   0  0  0  0  0  3  0  0  0  0  0  0
  180.3350  178.6560  141.0680 O   0  0  0  0  0  0  0  0  0  0  0  0
  180.5780  177.3640  140.5970 C   0  0  0  0  0  2  0  0  0  0  0  0
  179.3650  176.4830  140.8370 C   0  0  0  0  0  2  0  0  0  0  0  0
  179.2630  173.9200  141.4110 C   0  0  0  0  0  1  0  0  0  0  0  0
  179.5220  174.9210  139.9190 S   0  0  0  0  0  0  0  0  0  0  0  0
  189.6430  177.6250  145.2850 C   0  0  0  0  0  2  0  0  0  0  0  0
  189.1190  177.1610  146.6410 C   0  0  2  0  0  3  0  0  0  0  0  0
  187.3690  178.4670  147.9960 C   0  0  1  0  0  3  0  0  0  0  0  0
  188.4230  177.8960  148.9220 C   0  0  0  0  0  2  0  0  0  0  0  0
  188.8270  178.3650  147.5380 C   0  0  1  0  0  3  0  0  0  0  0  0
  186.5790  177.4270  147.4970 O   0  0  0  0  0  1  0  0  0  0  0  0
  190.0760  176.1760  147.3180 C   0  0  0  0  0  2  0  0  0  0  0  0
  191.5070  176.3210  146.8210 C   0  0  0  0  0  2  0  0  0  0  0  0
  192.4580  175.7420  147.8470 C   0  0  0  0  0  1  0  0  0  0  0  0
  1 19  1  6  0  0  0
  1 12  1  0  0  0  0
  2 17  2  0  0  0  0
  2 18  1  0  0  0  0
  3  8  1  0  0  0  0
  3  4  1  0  0  0  0
  4 15  1  0  0  0  0
  5 14  1  0  0  0  0
  5 17  1  0  0  0  0
  6 13  1  0  0  0  0
  6  9  2  0  0  0  0
  7  1  1  0  0  0  0
  7 13  1  0  0  0  0
  8 10  1  0  0  0  0
  9  2  1  0  0  0  0
 10  9  1  0  0  0  0
 10 16  2  0  0  0  0
 11 18  2  0  0  0  0
 11 24  1  0  0  0  0
 12 14  1  0  0  0  0
 13  5  2  0  0  0  0
 15 16  1  0  0  0  0
 16 11  1  0  0  0  0
 20 21  1  0  0  0  0
 20 19  1  0  0  0  0
 23 21  1  0  0  0  0
 23 22  1  0  0  0  0
 25 24  1  6  0  0  0
 25 30  1  0  0  0  0
 26 29  1  6  0  0  0
 26 27  1  0  0  0  0
 28 25  1  6  0  0  0
 28 26  1  0  0  0  0
 28 27  1  0  0  0  0
 31 30  1  0  0  0  0
 31 32  1  0  0  0  0
M  END
>  <MODEL>
7

>  <REMARK>
 VINA RESULT:      -7.2      2.512      4.675
  Name = 
  9 active torsions:
  status: ('A' for Active; 'I' for Inactive)
    1  A    between atoms: C_2  and  O_24
    2  A    between atoms: C_6  and  C_7
    3  A    between atoms: C_7  and  C_32
    4  A    between atoms: C_10  and  C_20
    5  A    between atoms: C_10  and  O_24
    6  A    between atoms: C_16  and  C_27
    7  A    between atoms: S_17  and  C_20
    8  A    between atoms: C_22  and  C_32
    9  A    between atoms: C_27  and  C_32
                            x       y       z     vdW  Elec       q    Type
                         _______ _______ _______ _____ _____    ______ ____

>  <TORSDO>
F 9

$$$$
=
 OpenBabel10262421353D

 32 36  0  0  1  0  0  0  0  0999 V2000
  189.3760  177.6630  144.0880 C   0  0  2  0  0  3  0  0  0  0  0  0
  185.3270  178.6920  141.1390 C   0  0  0  0  0  0  0  0  0  0  0  0
  181.4200  179.2600  143.9800 C   0  0  0  0  0  2  0  0  0  0  0  0
  180.5970  179.4660  142.7030 C   0  0  0  0  0  2  0  0  0  0  0  0
  187.5650  178.1840  141.9280 C   0  0  0  0  0  0  0  0  0  0  0  0
  185.6560  177.8590  143.3920 C   0  0  0  0  0  3  0  0  0  0  0  0
  187.9140  177.2620  144.2720 C   0  0  0  0  0  2  0  0  0  0  0  0
  182.9210  179.3650  143.6860 C   0  0  0  0  0  2  0  0  0  0  0  0
  184.7970  178.3090  142.3830 C   0  0  0  0  0  0  0  0  0  0  0  0
  183.3170  178.3260  142.6380 C   0  0  0  0  0  0  0  0  0  0  0  0
  182.9870  178.9010  140.2130 C   0  0  0  0  0  0  0  0  0  0  0  0
  189.8160  177.3390  142.6660 C   0  0  0  0  0  2  0  0  0  0  0  0
  187.0370  177.8120  143.1820 C   0  0  0  0  0  0  0  0  0  0  0  0
  189.0480  178.2120  141.6780 C   0  0  0  0  0  2  0  0  0  0  0  0
  180.9870  178.4470  141.6300 C   0  0  0  0  0  2  0  0  0  0  0  0
  182.4700  178.5230  141.4030 C   0  0  0  0  0  0  0  0  0  0  0  0
  186.7070  178.6410  140.9250 C   0  0  0  0  0  3  0  0  0  0  0  0
  184.4520  179.2200  140.0440 C   0  0  0  0  0  3  0  0  0  0  0  0
  190.1700  176.9650  144.9980 O   0  0  0  0  0  0  0  0  0  0  0  0
  189.6780  177.3290  146.2540 C   0  0  0  0  0  2  0  0  0  0  0  0
  190.5840  176.7870  147.3460 C   0  0  0  0  0  2  0  0  0  0  0  0
  192.7940  175.6820  148.2430 C   0  0  0  0  0  1  0  0  0  0  0  0
  192.0380  175.9710  146.6190 S   0  0  0  0  0  0  0  0  0  0  0  0
  182.0980  179.1210  139.0240 C   0  0  0  0  0  2  0  0  0  0  0  0
  181.9660  177.8460  138.1970 C   0  0  2  0  0  3  0  0  0  0  0  0
  183.9950  177.1000  136.8070 C   0  0  1  0  0  3  0  0  0  0  0  0
  182.7110  176.6690  136.1270 C   0  0  0  0  0  2  0  0  0  0  0  0
  182.7440  177.9810  136.8870 C   0  0  1  0  0  3  0  0  0  0  0  0
  184.1850  176.3380  137.9630 O   0  0  0  0  0  1  0  0  0  0  0  0
  180.5010  177.4770  137.9450 C   0  0  0  0  0  2  0  0  0  0  0  0
  180.0170  176.3600  138.8580 C   0  0  0  0  0  2  0  0  0  0  0  0
  181.2070  175.5830  139.3770 C   0  0  0  0  0  1  0  0  0  0  0  0
  1  7  1  0  0  0  0
  1 19  1  1  0  0  0
  2  9  1  0  0  0  0
  4  3  1  0  0  0  0
  5 13  1  0  0  0  0
  8  3  1  0  0  0  0
  9 10  2  0  0  0  0
  9  6  1  0  0  0  0
 10  8  1  0  0  0  0
 11 16  2  0  0  0  0
 12  1  1  0  0  0  0
 13  6  2  0  0  0  0
 13  7  1  0  0  0  0
 14  5  1  0  0  0  0
 14 12  1  0  0  0  0
 15  4  1  0  0  0  0
 16 15  1  0  0  0  0
 16 10  1  0  0  0  0
 17  2  1  0  0  0  0
 17  5  2  0  0  0  0
 18 11  1  0  0  0  0
 18  2  2  0  0  0  0
 19 20  1  0  0  0  0
 20 21  1  0  0  0  0
 23 21  1  0  0  0  0
 23 22  1  0  0  0  0
 24 11  1  0  0  0  0
 25 30  1  6  0  0  0
 25 24  1  0  0  0  0
 26 28  1  0  0  0  0
 26 29  1  1  0  0  0
 27 26  1  0  0  0  0
 27 28  1  0  0  0  0
 28 25  1  1  0  0  0
 30 31  1  0  0  0  0
 31 32  1  0  0  0  0
M  END
>  <MODEL>
8

>  <REMARK>
 VINA RESULT:      -7.1      3.908      8.929
  Name = 
  9 active torsions:
  status: ('A' for Active; 'I' for Inactive)
    1  A    between atoms: C_2  and  O_24
    2  A    between atoms: C_6  and  C_7
    3  A    between atoms: C_7  and  C_32
    4  A    between atoms: C_10  and  C_20
    5  A    between atoms: C_10  and  O_24
    6  A    between atoms: C_16  and  C_27
    7  A    between atoms: S_17  and  C_20
    8  A    between atoms: C_22  and  C_32
    9  A    between atoms: C_27  and  C_32
                            x       y       z     vdW  Elec       q    Type
                         _______ _______ _______ _____ _____    ______ ____

>  <TORSDO>
F 9

$$$$
=
 OpenBabel10262421353D

 32 36  0  0  1  0  0  0  0  0999 V2000
  191.6860  176.5840  137.7630 C   0  0  2  0  0  3  0  0  0  0  0  0
  187.8180  178.1750  140.7050 C   0  0  0  0  0  0  0  0  0  0  0  0
  188.9400  177.3320  145.3620 C   0  0  0  0  0  2  0  0  0  0  0  0
  187.5600  177.8890  145.7320 C   0  0  0  0  0  2  0  0  0  0  0  0
  189.2380  177.6460  138.8090 C   0  0  0  0  0  0  0  0  0  0  0  0
  189.6790  176.6450  140.9770 C   0  0  0  0  0  3  0  0  0  0  0  0
  191.1610  176.0030  139.0740 C   0  0  0  0  0  2  0  0  0  0  0  0
  189.2990  177.6800  143.9140 C   0  0  0  0  0  2  0  0  0  0  0  0
  188.5900  177.3330  141.5240 C   0  0  0  0  0  0  0  0  0  0  0  0
  188.2400  177.1150  142.9680 C   0  0  0  0  0  0  0  0  0  0  0  0
  186.1540  178.4640  142.5820 C   0  0  0  0  0  0  0  0  0  0  0  0
  190.5210  176.8200  136.8100 C   0  0  0  0  0  2  0  0  0  0  0  0
  190.0220  176.8090  139.6320 C   0  0  0  0  0  0  0  0  0  0  0  0
  189.6060  177.9030  137.3750 C   0  0  0  0  0  2  0  0  0  0  0  0
  186.4820  177.3510  144.7890 C   0  0  0  0  0  2  0  0  0  0  0  0
  186.8850  177.6460  143.3720 C   0  0  0  0  0  0  0  0  0  0  0  0
  188.1550  178.3360  139.3590 C   0  0  0  0  0  3  0  0  0  0  0  0
  186.6690  178.9630  141.2560 C   0  0  0  0  0  3  0  0  0  0  0  0
  192.5930  175.6930  137.1870 O   0  0  0  0  0  0  0  0  0  0  0  0
  193.7350  175.7800  137.9870 C   0  0  0  0  0  2  0  0  0  0  0  0
  194.6600  174.6100  137.7030 C   0  0  0  0  0  2  0  0  0  0  0  0
  197.2370  174.1780  137.9930 C   0  0  0  0  0  1  0  0  0  0  0  0
  195.8050  174.3540  139.0930 S   0  0  0  0  0  0  0  0  0  0  0  0
  184.8290  178.9960  143.0460 C   0  0  0  0  0  2  0  0  0  0  0  0
  183.7040  178.5390  142.1230 C   0  0  2  0  0  3  0  0  0  0  0  0
  183.6130  177.8920  139.6370 C   0  0  1  0  0  3  0  0  0  0  0  0
  182.7090  179.0790  139.8990 C   0  0  0  0  0  2  0  0  0  0  0  0
  184.0030  178.9460  140.6790 C   0  0  1  0  0  3  0  0  0  0  0  0
  183.0550  176.7490  140.2180 O   0  0  0  0  0  1  0  0  0  0  0  0
  182.3390  179.0630  142.5820 C   0  0  0  0  0  2  0  0  0  0  0  0
  181.9970  178.6280  144.0000 C   0  0  0  0  0  2  0  0  0  0  0  0
  180.4930  178.5890  144.1650 C   0  0  0  0  0  1  0  0  0  0  0  0
  1 19  1  6  0  0  0
  1  7  1  0  0  0  0
  2 18  2  0  0  0  0
  2  9  1  0  0  0  0
  3  4  1  0  0  0  0
  5 17  2  0  0  0  0
  5 13  1  0  0  0  0
  6  9  1  0  0  0  0
  7 13  1  0  0  0  0
  8  3  1  0  0  0  0
  9 10  2  0  0  0  0
 10 16  1  0  0  0  0
 10  8  1  0  0  0  0
 11 24  1  0  0  0  0
 11 16  2  0  0  0  0
 12 14  1  0  0  0  0
 12  1  1  0  0  0  0
 13  6  2  0  0  0  0
 14  5  1  0  0  0  0
 15  4  1  0  0  0  0
 16 15  1  0  0  0  0
 17  2  1  0  0  0  0
 18 11  1  0  0  0  0
 19 20  1  0  0  0  0
 21 20  1  0  0  0  0
 21 23  1  0  0  0  0
 22 23  1  0  0  0  0
 25 30  1  1  0  0  0
 25 24  1  0  0  0  0
 26 27  1  0  0  0  0
 26 29  1  1  0  0  0
 26 28  1  0  0  0  0
 27 28  1  0  0  0  0
 28 25  1  1  0  0  0
 30 31  1  0  0  0  0
 31 32  1  0  0  0  0
M  END
>  <MODEL>
9

>  <REMARK>
 VINA RESULT:      -6.9      4.197      9.204
  Name = 
  9 active torsions:
  status: ('A' for Active; 'I' for Inactive)
    1  A    between atoms: C_2  and  O_24
    2  A    between atoms: C_6  and  C_7
    3  A    between atoms: C_7  and  C_32
    4  A    between atoms: C_10  and  C_20
    5  A    between atoms: C_10  and  O_24
    6  A    between atoms: C_16  and  C_27
    7  A    between atoms: S_17  and  C_20
    8  A    between atoms: C_22  and  C_32
    9  A    between atoms: C_27  and  C_32
                            x       y       z     vdW  Elec       q    Type
                         _______ _______ _______ _____ _____    ______ ____

>  <TORSDO>
F 9

$$$$
