=
 OpenBabel10262421153D

 32 37  0  0  1  0  0  0  0  0999 V2000
  185.3350  178.1190  144.7230 C   0  0  2  0  0  3  0  0  0  0  0  0
  187.4870  177.1090  143.6630 C   0  0  2  0  0  3  0  0  0  0  0  0
  185.3660  179.5360  145.3080 C   0  0  0  0  0  2  0  0  0  0  0  0
  186.6860  177.3740  144.9080 C   0  0  1  0  0  3  0  0  0  0  0  0
  188.8100  176.4000  143.8950 C   0  0  1  0  0  3  0  0  0  0  0  0
  189.0550  179.0030  139.4460 C   0  0  0  0  0  2  0  0  0  0  0  0
  187.1230  177.6050  142.4660 C   0  0  0  0  0  0  0  0  0  0  0  0
  190.3990  177.1130  140.4410 C   0  0  0  0  0  2  0  0  0  0  0  0
  189.5000  177.3480  141.6620 C   0  0  2  0  0  3  0  0  0  0  0  0
  187.6230  178.1000  145.8880 C   0  0  2  0  0  3  0  0  0  0  0  0
  189.6440  176.1840  142.6250 C   0  0  0  0  0  2  0  0  0  0  0  0
  188.7640  177.2530  146.2200 N   0  0  0  0  0  2  0  0  0  0  0  0
  186.8650  178.5240  147.1390 C   0  0  0  0  0  2  0  0  0  0  0  0
  185.8000  178.1130  142.2890 N   0  0  0  0  0  0  0  0  0  0  0  0
  184.8630  178.1370  143.3340 N   0  0  0  0  0  0  0  0  0  0  0  0
  188.0260  177.4950  141.2610 C   0  0  2  0  0  3  0  0  0  0  0  0
  189.5950  177.1050  145.0180 C   0  0  1  0  0  3  0  0  0  0  0  0
  185.7280  179.5030  146.7990 C   0  0  0  0  0  2  0  0  0  0  0  0
  189.8550  177.7390  139.1500 C   0  0  0  0  0  2  0  0  0  0  0  0
  187.8290  178.6920  140.3130 C   0  0  0  0  0  2  0  0  0  0  0  0
  182.0440  179.0140  141.0850 C   0  0  0  0  0  0  0  0  0  0  0  0
  179.1450  179.4350  142.9660 O   0  0  0  0  0  1  0  0  0  0  0  0
  181.6720  178.8890  139.7500 O   0  0  0  0  0  1  0  0  0  0  0  0
  181.1230  178.6280  143.9420 C   0  0  0  0  0  3  0  0  0  0  0  0
  183.4620  178.3050  143.0220 C   0  0  0  0  0  0  0  0  0  0  0  0
  181.3230  180.0180  141.9190 C   0  0  0  0  0  2  0  0  0  0  0  0
  182.5790  178.4060  144.0380 C   0  0  0  0  0  3  0  0  0  0  0  0
  183.0220  178.2440  141.5930 C   0  0  0  0  0  0  0  0  0  0  0  0
  183.6880  177.2500  140.6940 C   0  0  0  0  0  1  0  0  0  0  0  0
  180.5290  179.3250  142.9750 C   0  0  0  0  0  0  0  0  0  0  0  0
  190.8820  176.3620  145.3730 C   0  0  0  0  0  2  0  0  0  0  0  0
  191.6800  177.1280  146.3170 N   0  0  0  0  0  1  0  0  0  0  0  0
  1  4  1  0  0  0  0
  1  3  1  6  0  0  0
  2  7  1  1  0  0  0
  2  5  1  0  0  0  0
  2  4  1  0  0  0  0
  3 18  1  0  0  0  0
  4 10  1  0  0  0  0
  5 17  1  0  0  0  0
  6 20  1  0  0  0  0
  8  9  1  0  0  0  0
  9 11  1  0  0  0  0
 10 12  1  0  0  0  0
 10 13  1  0  0  0  0
 11  5  1  0  0  0  0
 14  7  2  0  0  0  0
 14 15  1  0  0  0  0
 15  1  1  0  0  0  0
 16  9  1  0  0  0  0
 16  7  1  0  0  0  0
 17 31  1  0  0  0  0
 17 12  1  0  0  0  0
 18 13  1  0  0  0  0
 19  6  1  0  0  0  0
 19  8  1  0  0  0  0
 20 16  1  0  0  0  0
 21 28  2  0  0  0  0
 21 26  1  0  0  0  0
 22 30  1  0  0  0  0
 23 21  1  0  0  0  0
 24 27  1  0  0  0  0
 25 15  1  0  0  0  0
 25 27  2  0  0  0  0
 26 30  1  0  0  0  0
 28 25  1  0  0  0  0
 29 28  1  0  0  0  0
 30 24  2  0  0  0  0
 31 32  1  0  0  0  0
M  END
>  <MODEL>
1

>  <REMARK>
 VINA RESULT:      -8.5      0.000      0.000
  Name = 
  2 active torsions:
  status: ('A' for Active; 'I' for Inactive)
    1  A    between atoms: C_13  and  C_29
    2  A    between atoms: C_16  and  N_27
                            x       y       z     vdW  Elec       q    Type
                         _______ _______ _______ _____ _____    ______ ____

>  <TORSDO>
F 2

$$$$
=
 OpenBabel10262421153D

 32 37  0  0  1  0  0  0  0  0999 V2000
  184.9490  178.2560  138.1570 C   0  0  2  0  0  3  0  0  0  0  0  0
  187.2020  178.2710  139.4600 C   0  0  2  0  0  3  0  0  0  0  0  0
  184.2400  176.9260  137.8750 C   0  0  0  0  0  2  0  0  0  0  0  0
  186.4960  178.1160  138.1420 C   0  0  1  0  0  3  0  0  0  0  0  0
  188.7100  178.1030  139.4000 C   0  0  1  0  0  3  0  0  0  0  0  0
  187.1000  177.1170  144.2020 C   0  0  0  0  0  2  0  0  0  0  0  0
  186.5260  178.3920  140.6170 C   0  0  0  0  0  0  0  0  0  0  0  0
  189.3420  177.6810  143.1930 C   0  0  0  0  0  2  0  0  0  0  0  0
  188.5700  177.6080  141.8690 C   0  0  2  0  0  3  0  0  0  0  0  0
  186.9530  176.7710  137.5520 C   0  0  2  0  0  3  0  0  0  0  0  0
  189.4140  178.2070  140.7590 C   0  0  0  0  0  2  0  0  0  0  0  0
  188.3960  176.7790  137.3290 N   0  0  0  0  0  2  0  0  0  0  0  0
  186.1970  176.4630  136.2680 C   0  0  0  0  0  2  0  0  0  0  0  0
  185.1330  178.7070  140.5870 N   0  0  0  0  0  0  0  0  0  0  0  0
  184.4310  178.8740  139.3830 N   0  0  0  0  0  0  0  0  0  0  0  0
  187.2330  178.3570  141.9500 C   0  0  2  0  0  3  0  0  0  0  0  0
  189.0660  176.8110  138.6360 C   0  0  1  0  0  3  0  0  0  0  0  0
  184.6840  176.3480  136.5230 C   0  0  0  0  0  2  0  0  0  0  0  0
  188.4360  177.8150  144.4240 C   0  0  0  0  0  2  0  0  0  0  0  0
  186.3280  177.7530  143.0400 C   0  0  0  0  0  2  0  0  0  0  0  0
  180.7760  179.0370  140.0080 C   0  0  0  0  0  0  0  0  0  0  0  0
  179.4470  181.8290  138.4080 O   0  0  0  0  0  1  0  0  0  0  0  0
  179.8350  178.5830  140.9270 O   0  0  0  0  0  1  0  0  0  0  0  0
  181.7660  181.4650  138.4950 C   0  0  0  0  0  3  0  0  0  0  0  0
  183.1500  179.5440  139.4000 C   0  0  0  0  0  0  0  0  0  0  0  0
  180.2850  179.5050  138.6800 C   0  0  0  0  0  2  0  0  0  0  0  0
  182.9930  180.6600  138.6570 C   0  0  0  0  0  3  0  0  0  0  0  0
  182.0830  179.0510  140.3250 C   0  0  0  0  0  0  0  0  0  0  0  0
  182.4940  178.5780  141.6840 C   0  0  0  0  0  1  0  0  0  0  0  0
  180.5300  180.9700  138.5340 C   0  0  0  0  0  0  0  0  0  0  0  0
  190.5730  176.6550  138.4440 C   0  0  0  0  0  2  0  0  0  0  0  0
  190.9340  175.2540  138.2930 N   0  0  0  0  0  1  0  0  0  0  0  0
  1  3  1  1  0  0  0
  1 15  1  0  0  0  0
  2  7  1  1  0  0  0
  4  1  1  0  0  0  0
  4  2  1  0  0  0  0
  5  2  1  0  0  0  0
  5 11  1  0  0  0  0
  6 19  1  0  0  0  0
  7 16  1  0  0  0  0
  8 19  1  0  0  0  0
  9 16  1  0  0  0  0
  9  8  1  0  0  0  0
 10  4  1  0  0  0  0
 11  9  1  0  0  0  0
 12 10  1  0  0  0  0
 12 17  1  0  0  0  0
 13 18  1  0  0  0  0
 13 10  1  0  0  0  0
 14  7  2  0  0  0  0
 15 25  1  0  0  0  0
 15 14  1  0  0  0  0
 16 20  1  0  0  0  0
 17  5  1  0  0  0  0
 18  3  1  0  0  0  0
 20  6  1  0  0  0  0
 21 28  2  0  0  0  0
 21 23  1  0  0  0  0
 22 30  1  0  0  0  0
 24 30  2  0  0  0  0
 24 27  1  0  0  0  0
 25 28  1  0  0  0  0
 26 21  1  0  0  0  0
 27 25  2  0  0  0  0
 28 29  1  0  0  0  0
 30 26  1  0  0  0  0
 31 17  1  0  0  0  0
 32 31  1  0  0  0  0
M  END
>  <MODEL>
2

>  <REMARK>
 VINA RESULT:      -8.4      2.884      5.648
  Name = 
  2 active torsions:
  status: ('A' for Active; 'I' for Inactive)
    1  A    between atoms: C_13  and  C_29
    2  A    between atoms: C_16  and  N_27
                            x       y       z     vdW  Elec       q    Type
                         _______ _______ _______ _____ _____    ______ ____

>  <TORSDO>
F 2

$$$$
=
 OpenBabel10262421153D

 32 37  0  0  1  0  0  0  0  0999 V2000
  189.1580  176.9950  138.2590 C   0  0  2  0  0  3  0  0  0  0  0  0
  188.4820  177.1990  140.7640 C   0  0  2  0  0  3  0  0  0  0  0  0
  189.4830  178.2570  137.4510 C   0  0  0  0  0  2  0  0  0  0  0  0
  188.0540  177.2410  139.3230 C   0  0  1  0  0  3  0  0  0  0  0  0
  187.3750  177.4690  141.7670 C   0  0  1  0  0  3  0  0  0  0  0  0
  191.9200  178.5640  143.9480 C   0  0  0  0  0  2  0  0  0  0  0  0
  189.7750  177.0850  141.1170 C   0  0  0  0  0  0  0  0  0  0  0  0
  189.6100  178.1110  144.8570 C   0  0  0  0  0  2  0  0  0  0  0  0
  189.2240  178.0680  143.3730 C   0  0  2  0  0  3  0  0  0  0  0  0
  187.3360  178.5860  139.1160 C   0  0  2  0  0  3  0  0  0  0  0  0
  187.8330  177.4780  143.2310 C   0  0  0  0  0  2  0  0  0  0  0  0
  186.1570  178.6690  139.9730 N   0  0  0  0  0  2  0  0  0  0  0  0
  186.9700  178.7790  137.6520 C   0  0  0  0  0  2  0  0  0  0  0  0
  190.7360  176.6720  140.1430 N   0  0  0  0  0  0  0  0  0  0  0  0
  190.3800  176.4000  138.8120 N   0  0  0  0  0  0  0  0  0  0  0  0
  190.2160  177.2320  142.5530 C   0  0  2  0  0  3  0  0  0  0  0  0
  186.6040  178.7450  141.3700 C   0  0  1  0  0  3  0  0  0  0  0  0
  188.2240  178.8010  136.7600 C   0  0  0  0  0  2  0  0  0  0  0  0
  191.1190  177.9720  145.1020 C   0  0  0  0  0  2  0  0  0  0  0  0
  191.6360  177.8210  142.6380 C   0  0  0  0  0  2  0  0  0  0  0  0
  193.3270  176.0430  136.5840 C   0  0  0  0  0  0  0  0  0  0  0  0
  193.1640  172.9870  134.9240 O   0  0  0  0  0  1  0  0  0  0  0  0
  194.6220  176.5330  136.4500 O   0  0  0  0  0  1  0  0  0  0  0  0
  191.6380  173.5310  136.6250 C   0  0  0  0  0  3  0  0  0  0  0  0
  191.2880  175.6430  137.9800 C   0  0  0  0  0  0  0  0  0  0  0  0
  192.7050  175.3830  135.4010 C   0  0  0  0  0  2  0  0  0  0  0  0
  190.8930  174.4370  137.5200 C   0  0  0  0  0  3  0  0  0  0  0  0
  192.6720  176.1640  137.7530 C   0  0  0  0  0  0  0  0  0  0  0  0
  193.3710  176.8260  138.8980 C   0  0  0  0  0  1  0  0  0  0  0  0
  192.4880  173.9330  135.6820 C   0  0  0  0  0  0  0  0  0  0  0  0
  185.4040  178.9970  142.2800 C   0  0  0  0  0  2  0  0  0  0  0  0
  184.2400  178.2550  141.8220 N   0  0  0  0  0  1  0  0  0  0  0  0
  1  3  1  1  0  0  0
  1 15  1  0  0  0  0
  1  4  1  0  0  0  0
  2  7  1  6  0  0  0
  2  5  1  0  0  0  0
  4  2  1  0  0  0  0
  5 11  1  0  0  0  0
  6 19  1  0  0  0  0
  7 16  1  0  0  0  0
  8 19  1  0  0  0  0
  9  8  1  0  0  0  0
 10  4  1  0  0  0  0
 10 12  1  0  0  0  0
 11  9  1  0  0  0  0
 12 17  1  0  0  0  0
 13 10  1  0  0  0  0
 14  7  2  0  0  0  0
 15 14  1  0  0  0  0
 16 20  1  0  0  0  0
 16  9  1  0  0  0  0
 17  5  1  0  0  0  0
 17 31  1  0  0  0  0
 18  3  1  0  0  0  0
 18 13  1  0  0  0  0
 20  6  1  0  0  0  0
 21 28  2  0  0  0  0
 22 30  1  0  0  0  0
 23 21  1  0  0  0  0
 24 27  1  0  0  0  0
 25 15  1  0  0  0  0
 26 30  1  0  0  0  0
 26 21  1  0  0  0  0
 27 25  2  0  0  0  0
 28 25  1  0  0  0  0
 28 29  1  0  0  0  0
 30 24  2  0  0  0  0
 32 31  1  0  0  0  0
M  END
>  <MODEL>
3

>  <REMARK>
 VINA RESULT:      -8.2      4.822      8.888
  Name = 
  2 active torsions:
  status: ('A' for Active; 'I' for Inactive)
    1  A    between atoms: C_13  and  C_29
    2  A    between atoms: C_16  and  N_27
                            x       y       z     vdW  Elec       q    Type
                         _______ _______ _______ _____ _____    ______ ____

>  <TORSDO>
F 2

$$$$
=
 OpenBabel10262421153D

 32 37  0  0  1  0  0  0  0  0999 V2000
  189.4270  177.7570  142.8090 C   0  0  2  0  0  3  0  0  0  0  0  0
  189.7840  176.9370  140.3640 C   0  0  2  0  0  3  0  0  0  0  0  0
  189.8980  179.1570  143.2200 C   0  0  0  0  0  2  0  0  0  0  0  0
  190.3550  177.1100  141.7440 C   0  0  1  0  0  3  0  0  0  0  0  0
  190.7340  176.3220  139.3530 C   0  0  1  0  0  3  0  0  0  0  0  0
  187.1470  179.0510  136.8420 C   0  0  0  0  0  2  0  0  0  0  0  0
  188.5800  177.4360  140.0270 C   0  0  0  0  0  0  0  0  0  0  0  0
  188.7630  177.2410  136.1540 C   0  0  0  0  0  2  0  0  0  0  0  0
  189.2610  177.3770  137.5990 C   0  0  2  0  0  3  0  0  0  0  0  0
  191.6780  177.8780  141.5810 C   0  0  2  0  0  3  0  0  0  0  0  0
  190.1610  176.2020  137.9350 C   0  0  0  0  0  2  0  0  0  0  0  0
  192.6120  177.1090  140.7650 N   0  0  0  0  0  2  0  0  0  0  0  0
  192.2750  178.2110  142.9410 C   0  0  0  0  0  2  0  0  0  0  0  0
  187.6780  177.8490  141.0540 N   0  0  0  0  0  0  0  0  0  0  0  0
  188.0130  177.7770  142.4160 N   0  0  0  0  0  0  0  0  0  0  0  0
  188.0960  177.4240  138.5970 C   0  0  2  0  0  3  0  0  0  0  0  0
  192.0910  177.0540  139.3920 C   0  0  1  0  0  3  0  0  0  0  0  0
  191.3340  179.1120  143.7600 C   0  0  0  0  0  2  0  0  0  0  0  0
  187.3780  177.8590  135.9220 C   0  0  0  0  0  2  0  0  0  0  0  0
  187.1780  178.6280  138.3160 C   0  0  0  0  0  2  0  0  0  0  0  0
  184.8060  179.0670  143.7660 C   0  0  0  0  0  0  0  0  0  0  0  0
  184.5550  178.2530  147.1420 O   0  0  0  0  0  1  0  0  0  0  0  0
  183.5410  179.4420  143.3230 O   0  0  0  0  0  1  0  0  0  0  0  0
  186.3060  177.4200  145.8150 C   0  0  0  0  0  3  0  0  0  0  0  0
  186.9620  177.8490  143.4060 C   0  0  0  0  0  0  0  0  0  0  0  0
  185.2350  179.5260  145.1180 C   0  0  0  0  0  2  0  0  0  0  0  0
  187.2130  177.3960  144.6520 C   0  0  0  0  0  3  0  0  0  0  0  0
  185.6010  178.3100  142.9900 C   0  0  0  0  0  0  0  0  0  0  0  0
  185.0900  177.8780  141.6510 C   0  0  0  0  0  1  0  0  0  0  0  0
  185.3810  178.3540  146.0310 C   0  0  0  0  0  0  0  0  0  0  0  0
  193.1240  176.3990  138.4770 C   0  0  0  0  0  2  0  0  0  0  0  0
  194.3050  176.0040  139.2270 N   0  0  0  0  0  1  0  0  0  0  0  0
  1  3  1  6  0  0  0
  2  7  1  6  0  0  0
  2  4  1  0  0  0  0
  3 18  1  0  0  0  0
  4  1  1  0  0  0  0
  5 17  1  0  0  0  0
  5  2  1  0  0  0  0
  6 20  1  0  0  0  0
  7 14  2  0  0  0  0
  8  9  1  0  0  0  0
  9 11  1  0  0  0  0
  9 16  1  0  0  0  0
 10  4  1  0  0  0  0
 10 13  1  0  0  0  0
 11  5  1  0  0  0  0
 12 10  1  0  0  0  0
 13 18  1  0  0  0  0
 14 15  1  0  0  0  0
 15  1  1  0  0  0  0
 15 25  1  0  0  0  0
 16  7  1  0  0  0  0
 17 12  1  0  0  0  0
 19  8  1  0  0  0  0
 19  6  1  0  0  0  0
 20 16  1  0  0  0  0
 21 26  1  0  0  0  0
 23 21  1  0  0  0  0
 24 30  2  0  0  0  0
 25 27  2  0  0  0  0
 26 30  1  0  0  0  0
 27 24  1  0  0  0  0
 28 25  1  0  0  0  0
 28 21  2  0  0  0  0
 29 28  1  0  0  0  0
 30 22  1  0  0  0  0
 31 32  1  0  0  0  0
 31 17  1  0  0  0  0
M  END
>  <MODEL>
4

>  <REMARK>
 VINA RESULT:      -7.9      2.957      4.895
  Name = 
  2 active torsions:
  status: ('A' for Active; 'I' for Inactive)
    1  A    between atoms: C_13  and  C_29
    2  A    between atoms: C_16  and  N_27
                            x       y       z     vdW  Elec       q    Type
                         _______ _______ _______ _____ _____    ______ ____

>  <TORSDO>
F 2

$$$$
=
 OpenBabel10262421153D

 32 37  0  0  1  0  0  0  0  0999 V2000
  189.3200  177.1920  138.2380 C   0  0  2  0  0  3  0  0  0  0  0  0
  188.6640  177.2280  140.7570 C   0  0  2  0  0  3  0  0  0  0  0  0
  189.5610  178.5110  137.4940 C   0  0  0  0  0  2  0  0  0  0  0  0
  188.2160  177.3190  139.3240 C   0  0  1  0  0  3  0  0  0  0  0  0
  187.5550  177.3810  141.7830 C   0  0  1  0  0  3  0  0  0  0  0  0
  192.0550  178.6300  143.9750 C   0  0  0  0  0  2  0  0  0  0  0  0
  189.9660  177.1730  141.0910 C   0  0  0  0  0  0  0  0  0  0  0  0
  189.7870  177.9960  144.8810 C   0  0  0  0  0  2  0  0  0  0  0  0
  189.3860  178.0060  143.4000 C   0  0  2  0  0  3  0  0  0  0  0  0
  187.4190  178.6280  139.1940 C   0  0  2  0  0  3  0  0  0  0  0  0
  188.0300  177.3420  143.2410 C   0  0  0  0  0  2  0  0  0  0  0  0
  186.2480  178.5970  140.0640 N   0  0  0  0  0  2  0  0  0  0  0  0
  187.0250  178.8730  137.7440 C   0  0  0  0  0  2  0  0  0  0  0  0
  190.9370  176.8670  140.0890 N   0  0  0  0  0  0  0  0  0  0  0  0
  190.5810  176.6430  138.7490 N   0  0  0  0  0  0  0  0  0  0  0  0
  190.4150  177.2720  142.5290 C   0  0  2  0  0  3  0  0  0  0  0  0
  186.7070  178.6280  141.4590 C   0  0  1  0  0  3  0  0  0  0  0  0
  188.2640  179.0140  136.8440 C   0  0  0  0  0  2  0  0  0  0  0  0
  191.3040  177.9340  145.1040 C   0  0  0  0  0  2  0  0  0  0  0  0
  191.7990  177.9390  142.6310 C   0  0  0  0  0  2  0  0  0  0  0  0
  191.8660  173.7290  136.8430 C   0  0  0  0  0  0  0  0  0  0  0  0
  195.1570  174.3310  135.8790 O   0  0  0  0  0  1  0  0  0  0  0  0
  191.3910  172.6570  136.0940 O   0  0  0  0  0  1  0  0  0  0  0  0
  193.8590  176.0070  136.8910 C   0  0  0  0  0  3  0  0  0  0  0  0
  191.5220  175.9850  137.8700 C   0  0  0  0  0  0  0  0  0  0  0  0
  193.2670  173.6600  137.3480 C   0  0  0  0  0  2  0  0  0  0  0  0
  192.7420  176.5350  137.6980 C   0  0  0  0  0  3  0  0  0  0  0  0
  191.0750  174.7870  137.0920 C   0  0  0  0  0  0  0  0  0  0  0  0
  189.6850  174.7870  136.5380 C   0  0  0  0  0  1  0  0  0  0  0  0
  194.0970  174.7110  136.6910 C   0  0  0  0  0  0  0  0  0  0  0  0
  185.5050  178.7620  142.3920 C   0  0  0  0  0  2  0  0  0  0  0  0
  184.2970  178.2560  141.7590 N   0  0  0  0  0  1  0  0  0  0  0  0
  1  3  1  1  0  0  0
  1 15  1  0  0  0  0
  1  4  1  0  0  0  0
  2  7  1  1  0  0  0
  2  5  1  0  0  0  0
  4  2  1  0  0  0  0
  5 11  1  0  0  0  0
  6 19  1  0  0  0  0
  7 16  1  0  0  0  0
  8 19  1  0  0  0  0
  9  8  1  0  0  0  0
 10  4  1  0  0  0  0
 10 12  1  0  0  0  0
 11  9  1  0  0  0  0
 12 17  1  0  0  0  0
 13 10  1  0  0  0  0
 14  7  2  0  0  0  0
 15 14  1  0  0  0  0
 16 20  1  0  0  0  0
 16  9  1  0  0  0  0
 17  5  1  0  0  0  0
 17 31  1  0  0  0  0
 18  3  1  0  0  0  0
 18 13  1  0  0  0  0
 20  6  1  0  0  0  0
 21 28  2  0  0  0  0
 21 26  1  0  0  0  0
 22 30  1  0  0  0  0
 23 21  1  0  0  0  0
 24 27  1  0  0  0  0
 25 15  1  0  0  0  0
 27 25  2  0  0  0  0
 28 25  1  0  0  0  0
 29 28  1  0  0  0  0
 30 24  2  0  0  0  0
 30 26  1  0  0  0  0
 32 31  1  0  0  0  0
M  END
>  <MODEL>
5

>  <REMARK>
 VINA RESULT:      -7.7      4.550      8.894
  Name = 
  2 active torsions:
  status: ('A' for Active; 'I' for Inactive)
    1  A    between atoms: C_13  and  C_29
    2  A    between atoms: C_16  and  N_27
                            x       y       z     vdW  Elec       q    Type
                         _______ _______ _______ _____ _____    ______ ____

>  <TORSDO>
F 2

$$$$
=
 OpenBabel10262421153D

 32 37  0  0  1  0  0  0  0  0999 V2000
  191.1010  176.7390  143.4600 C   0  0  2  0  0  3  0  0  0  0  0  0
  189.1820  177.8900  144.7890 C   0  0  2  0  0  3  0  0  0  0  0  0
  191.1680  175.2090  143.3870 C   0  0  0  0  0  2  0  0  0  0  0  0
  190.5390  177.2430  144.8170 C   0  0  1  0  0  3  0  0  0  0  0  0
  188.6640  178.3450  146.1420 C   0  0  1  0  0  3  0  0  0  0  0  0
  184.6600  177.6020  142.9720 C   0  0  0  0  0  2  0  0  0  0  0  0
  188.4310  177.9150  143.6730 C   0  0  0  0  0  0  0  0  0  0  0  0
  184.9630  178.8560  145.1410 C   0  0  0  0  0  2  0  0  0  0  0  0
  186.3730  178.2540  145.0910 C   0  0  2  0  0  3  0  0  0  0  0  0
  190.4730  176.1240  145.8710 C   0  0  2  0  0  3  0  0  0  0  0  0
  187.2560  178.9520  146.1100 C   0  0  0  0  0  2  0  0  0  0  0  0
  190.1770  176.6830  147.1860 N   0  0  0  0  0  2  0  0  0  0  0  0
  191.7680  175.3250  145.8880 C   0  0  0  0  0  2  0  0  0  0  0  0
  189.0370  177.6240  142.4120 N   0  0  0  0  0  0  0  0  0  0  0  0
  190.3950  177.2870  142.2960 N   0  0  0  0  0  0  0  0  0  0  0  0
  187.0000  178.3950  143.6970 C   0  0  2  0  0  3  0  0  0  0  0  0
  188.8030  177.2030  147.1700 C   0  0  1  0  0  3  0  0  0  0  0  0
  192.0240  174.6460  144.5310 C   0  0  0  0  0  2  0  0  0  0  0  0
  184.2290  178.8110  143.7940 C   0  0  0  0  0  2  0  0  0  0  0  0
  186.1550  177.6650  142.6360 C   0  0  0  0  0  2  0  0  0  0  0  0
  190.4600  176.9700  138.5990 C   0  0  0  0  0  0  0  0  0  0  0  0
  193.7590  176.9860  137.4890 O   0  0  0  0  0  1  0  0  0  0  0  0
  189.6380  177.1990  137.4990 O   0  0  0  0  0  1  0  0  0  0  0  0
  193.2290  177.4160  139.7370 C   0  0  0  0  0  3  0  0  0  0  0  0
  191.0340  177.3680  141.0020 C   0  0  0  0  0  0  0  0  0  0  0  0
  191.6390  176.0780  138.4140 C   0  0  0  0  0  2  0  0  0  0  0  0
  192.3820  177.3850  140.9450 C   0  0  0  0  0  3  0  0  0  0  0  0
  190.1860  177.5480  139.7820 C   0  0  0  0  0  0  0  0  0  0  0  0
  188.9920  178.4430  139.8810 C   0  0  0  0  0  1  0  0  0  0  0  0
  192.9000  176.8600  138.5720 C   0  0  0  0  0  0  0  0  0  0  0  0
  188.4050  177.6460  148.5770 C   0  0  0  0  0  2  0  0  0  0  0  0
  189.4000  178.5470  149.1380 N   0  0  0  0  0  1  0  0  0  0  0  0
  1  3  1  1  0  0  0
  1  4  1  0  0  0  0
  2  7  1  1  0  0  0
  2  4  1  0  0  0  0
  2  5  1  0  0  0  0
  3 18  1  0  0  0  0
  4 10  1  0  0  0  0
  5 17  1  0  0  0  0
  6 19  1  0  0  0  0
  7 16  1  0  0  0  0
  9  8  1  0  0  0  0
  9 11  1  0  0  0  0
 10 13  1  0  0  0  0
 10 12  1  0  0  0  0
 11  5  1  0  0  0  0
 14  7  2  0  0  0  0
 15 14  1  0  0  0  0
 15  1  1  0  0  0  0
 16  9  1  0  0  0  0
 17 12  1  0  0  0  0
 17 31  1  0  0  0  0
 18 13  1  0  0  0  0
 19  8  1  0  0  0  0
 20  6  1  0  0  0  0
 20 16  1  0  0  0  0
 21 28  2  0  0  0  0
 22 30  1  0  0  0  0
 23 21  1  0  0  0  0
 24 27  1  0  0  0  0
 25 15  1  0  0  0  0
 26 30  1  0  0  0  0
 26 21  1  0  0  0  0
 27 25  2  0  0  0  0
 28 29  1  0  0  0  0
 28 25  1  0  0  0  0
 30 24  2  0  0  0  0
 31 32  1  0  0  0  0
M  END
>  <MODEL>
6

>  <REMARK>
 VINA RESULT:      -7.6      3.282      7.220
  Name = 
  2 active torsions:
  status: ('A' for Active; 'I' for Inactive)
    1  A    between atoms: C_13  and  C_29
    2  A    between atoms: C_16  and  N_27
                            x       y       z     vdW  Elec       q    Type
                         _______ _______ _______ _____ _____    ______ ____

>  <TORSDO>
F 2

$$$$
=
 OpenBabel10262421153D

 32 37  0  0  1  0  0  0  0  0999 V2000
  188.7960  177.6220  141.4830 C   0  0  2  0  0  3  0  0  0  0  0  0
  186.4240  178.6150  141.0770 C   0  0  2  0  0  3  0  0  0  0  0  0
  188.9430  176.2180  142.0800 C   0  0  0  0  0  2  0  0  0  0  0  0
  187.5550  178.3740  142.0380 C   0  0  1  0  0  3  0  0  0  0  0  0
  185.2240  179.3320  141.6700 C   0  0  1  0  0  3  0  0  0  0  0  0
  183.6990  176.6360  137.5440 C   0  0  0  0  0  2  0  0  0  0  0  0
  186.4240  178.0930  139.8370 C   0  0  0  0  0  0  0  0  0  0  0  0
  182.6980  178.5490  138.8480 C   0  0  0  0  0  2  0  0  0  0  0  0
  183.9150  178.3380  139.7580 C   0  0  2  0  0  3  0  0  0  0  0  0
  186.9490  177.6710  143.2650 C   0  0  2  0  0  3  0  0  0  0  0  0
  184.0550  179.5230  140.6960 C   0  0  0  0  0  2  0  0  0  0  0  0
  185.9510  178.5270  143.8980 N   0  0  0  0  0  2  0  0  0  0  0  0
  188.0400  177.2720  144.2480 C   0  0  0  0  0  2  0  0  0  0  0  0
  187.6390  177.5770  139.2910 N   0  0  0  0  0  0  0  0  0  0  0  0
  188.8410  177.5730  140.0170 N   0  0  0  0  0  0  0  0  0  0  0  0
  185.2080  178.1790  138.9460 C   0  0  2  0  0  3  0  0  0  0  0  0
  184.8040  178.6520  142.9890 C   0  0  1  0  0  3  0  0  0  0  0  0
  189.0330  176.2840  143.6110 C   0  0  0  0  0  2  0  0  0  0  0  0
  182.8430  177.8940  137.4680 C   0  0  0  0  0  2  0  0  0  0  0  0
  185.1230  176.9610  138.0070 C   0  0  0  0  0  2  0  0  0  0  0  0
  190.8870  176.5810  137.0830 C   0  0  0  0  0  0  0  0  0  0  0  0
  194.2220  176.2900  138.0380 O   0  0  0  0  0  1  0  0  0  0  0  0
  190.8430  176.6290  135.6930 O   0  0  0  0  0  1  0  0  0  0  0  0
  192.6040  177.1420  139.5120 C   0  0  0  0  0  3  0  0  0  0  0  0
  190.0900  177.3950  139.3120 C   0  0  0  0  0  0  0  0  0  0  0  0
  191.8460  175.6330  137.7190 C   0  0  0  0  0  2  0  0  0  0  0  0
  191.2370  177.3600  140.0230 C   0  0  0  0  0  3  0  0  0  0  0  0
  190.0850  177.3740  137.8160 C   0  0  0  0  0  0  0  0  0  0  0  0
  189.1600  178.3100  137.1020 C   0  0  0  0  0  1  0  0  0  0  0  0
  192.9010  176.3920  138.4520 C   0  0  0  0  0  0  0  0  0  0  0  0
  183.6740  179.4060  143.6890 C   0  0  0  0  0  2  0  0  0  0  0  0
  183.6790  179.1370  145.1180 N   0  0  0  0  0  1  0  0  0  0  0  0
  1  4  1  0  0  0  0
  1  3  1  1  0  0  0
  2  7  1  1  0  0  0
  2  5  1  0  0  0  0
  2  4  1  0  0  0  0
  3 18  1  0  0  0  0
  4 10  1  0  0  0  0
  5 17  1  0  0  0  0
  6 20  1  0  0  0  0
  8  9  1  0  0  0  0
  9 11  1  0  0  0  0
 10 12  1  0  0  0  0
 10 13  1  0  0  0  0
 11  5  1  0  0  0  0
 14  7  2  0  0  0  0
 14 15  1  0  0  0  0
 15  1  1  0  0  0  0
 16  9  1  0  0  0  0
 16  7  1  0  0  0  0
 17 31  1  0  0  0  0
 17 12  1  0  0  0  0
 18 13  1  0  0  0  0
 19  6  1  0  0  0  0
 19  8  1  0  0  0  0
 20 16  1  0  0  0  0
 21 26  1  0  0  0  0
 21 28  2  0  0  0  0
 22 30  1  0  0  0  0
 23 21  1  0  0  0  0
 24 27  1  0  0  0  0
 25 15  1  0  0  0  0
 25 27  2  0  0  0  0
 26 30  1  0  0  0  0
 28 25  1  0  0  0  0
 29 28  1  0  0  0  0
 30 24  2  0  0  0  0
 31 32  1  0  0  0  0
M  END
>  <MODEL>
7

>  <REMARK>
 VINA RESULT:      -7.6      3.810      7.613
  Name = 
  2 active torsions:
  status: ('A' for Active; 'I' for Inactive)
    1  A    between atoms: C_13  and  C_29
    2  A    between atoms: C_16  and  N_27
                            x       y       z     vdW  Elec       q    Type
                         _______ _______ _______ _____ _____    ______ ____

>  <TORSDO>
F 2

$$$$
=
 OpenBabel10262421153D

 32 37  0  0  1  0  0  0  0  0999 V2000
  186.1310  177.9480  137.9250 C   0  0  2  0  0  3  0  0  0  0  0  0
  188.5670  177.8760  138.8390 C   0  0  2  0  0  3  0  0  0  0  0  0
  185.3850  176.6400  137.6360 C   0  0  0  0  0  2  0  0  0  0  0  0
  187.6540  177.8360  137.6450 C   0  0  1  0  0  3  0  0  0  0  0  0
  190.0440  177.7390  138.5190 C   0  0  1  0  0  3  0  0  0  0  0  0
  189.2430  176.2780  143.4020 C   0  0  0  0  0  2  0  0  0  0  0  0
  188.0890  177.8770  140.0970 C   0  0  0  0  0  0  0  0  0  0  0  0
  191.2890  176.9720  142.0990 C   0  0  0  0  0  2  0  0  0  0  0  0
  190.3110  177.0110  140.9180 C   0  0  2  0  0  3  0  0  0  0  0  0
  188.0090  176.5590  136.8620 C   0  0  2  0  0  3  0  0  0  0  0  0
  190.9610  177.7260  139.7480 C   0  0  0  0  0  2  0  0  0  0  0  0
  189.3960  176.6120  136.4090 N   0  0  0  0  0  2  0  0  0  0  0  0
  187.0530  176.3630  135.6950 C   0  0  0  0  0  2  0  0  0  0  0  0
  186.7100  178.1710  140.3250 N   0  0  0  0  0  0  0  0  0  0  0  0
  185.8200  178.4400  139.2720 N   0  0  0  0  0  0  0  0  0  0  0  0
  189.0050  177.7280  141.2880 C   0  0  2  0  0  3  0  0  0  0  0  0
  190.2710  176.5320  137.5860 C   0  0  1  0  0  3  0  0  0  0  0  0
  185.6030  176.1990  136.1810 C   0  0  0  0  0  2  0  0  0  0  0  0
  190.5970  176.9740  143.4690 C   0  0  0  0  0  2  0  0  0  0  0  0
  188.2910  177.0090  142.4470 C   0  0  0  0  0  2  0  0  0  0  0  0
  182.6490  178.8370  141.1610 C   0  0  0  0  0  0  0  0  0  0  0  0
  180.4930  180.9150  139.3860 O   0  0  0  0  0  1  0  0  0  0  0  0
  182.1690  178.7350  142.4630 O   0  0  0  0  0  1  0  0  0  0  0  0
  182.7120  180.5850  138.6910 C   0  0  0  0  0  3  0  0  0  0  0  0
  184.5590  179.0840  139.5620 C   0  0  0  0  0  0  0  0  0  0  0  0
  181.6570  178.8220  140.0480 C   0  0  0  0  0  2  0  0  0  0  0  0
  184.0050  179.8770  138.6200 C   0  0  0  0  0  3  0  0  0  0  0  0
  183.9700  178.9490  140.9300 C   0  0  0  0  0  0  0  0  0  0  0  0
  184.9000  178.9710  142.1020 C   0  0  0  0  0  1  0  0  0  0  0  0
  181.6470  180.1440  139.3570 C   0  0  0  0  0  0  0  0  0  0  0  0
  191.7270  176.4180  137.1370 C   0  0  0  0  0  2  0  0  0  0  0  0
  191.8180  175.7870  135.8300 N   0  0  0  0  0  1  0  0  0  0  0  0
  1  3  1  1  0  0  0
  1 15  1  0  0  0  0
  2  7  1  1  0  0  0
  4  1  1  0  0  0  0
  4  2  1  0  0  0  0
  5  2  1  0  0  0  0
  5 11  1  0  0  0  0
  6 19  1  0  0  0  0
  7 14  2  0  0  0  0
  7 16  1  0  0  0  0
  8 19  1  0  0  0  0
  9 16  1  0  0  0  0
  9  8  1  0  0  0  0
 10  4  1  0  0  0  0
 11  9  1  0  0  0  0
 12 10  1  0  0  0  0
 12 17  1  0  0  0  0
 13 18  1  0  0  0  0
 13 10  1  0  0  0  0
 15 25  1  0  0  0  0
 15 14  1  0  0  0  0
 16 20  1  0  0  0  0
 17  5  1  0  0  0  0
 18  3  1  0  0  0  0
 20  6  1  0  0  0  0
 21 23  1  0  0  0  0
 24 30  2  0  0  0  0
 25 28  1  0  0  0  0
 26 21  1  0  0  0  0
 27 24  1  0  0  0  0
 27 25  2  0  0  0  0
 28 21  2  0  0  0  0
 28 29  1  0  0  0  0
 30 22  1  0  0  0  0
 30 26  1  0  0  0  0
 31 17  1  0  0  0  0
 32 31  1  0  0  0  0
M  END
>  <MODEL>
8

>  <REMARK>
 VINA RESULT:      -7.4      3.101      5.953
  Name = 
  2 active torsions:
  status: ('A' for Active; 'I' for Inactive)
    1  A    between atoms: C_13  and  C_29
    2  A    between atoms: C_16  and  N_27
                            x       y       z     vdW  Elec       q    Type
                         _______ _______ _______ _____ _____    ______ ____

>  <TORSDO>
F 2

$$$$
=
 OpenBabel10262421153D

 32 37  0  0  1  0  0  0  0  0999 V2000
  189.4220  177.4830  139.1600 C   0  0  2  0  0  3  0  0  0  0  0  0
  187.0400  177.4970  138.1080 C   0  0  2  0  0  3  0  0  0  0  0  0
  189.6520  176.8120  140.5190 C   0  0  0  0  0  2  0  0  0  0  0  0
  188.0180  178.1390  139.0540 C   0  0  1  0  0  3  0  0  0  0  0  0
  185.6750  178.1580  138.0560 C   0  0  1  0  0  3  0  0  0  0  0  0
  185.2270  173.2540  136.5160 C   0  0  0  0  0  2  0  0  0  0  0  0
  187.3150  176.3380  137.4840 C   0  0  0  0  0  0  0  0  0  0  0  0
  183.7790  175.3050  136.2620 C   0  0  0  0  0  2  0  0  0  0  0  0
  184.8440  175.9550  137.1530 C   0  0  2  0  0  3  0  0  0  0  0  0
  187.3140  178.2320  140.4190 C   0  0  2  0  0  3  0  0  0  0  0  0
  184.6690  177.4630  137.1310 C   0  0  0  0  0  2  0  0  0  0  0  0
  186.1200  179.0660  140.3190 N   0  0  0  0  0  2  0  0  0  0  0  0
  188.2700  178.7590  141.4800 C   0  0  0  0  0  2  0  0  0  0  0  0
  188.6620  175.8630  137.4450 N   0  0  0  0  0  0  0  0  0  0  0  0
  189.7160  176.5550  138.0620 N   0  0  0  0  0  0  0  0  0  0  0  0
  186.2640  175.6040  136.6860 C   0  0  2  0  0  3  0  0  0  0  0  0
  185.1340  178.3640  139.4860 C   0  0  1  0  0  3  0  0  0  0  0  0
  189.4760  177.8210  141.6620 C   0  0  0  0  0  2  0  0  0  0  0  0
  184.2370  173.9880  135.6200 C   0  0  0  0  0  2  0  0  0  0  0  0
  186.4990  174.0830  136.7320 C   0  0  0  0  0  2  0  0  0  0  0  0
  192.2890  174.8070  136.0360 C   0  0  0  0  0  0  0  0  0  0  0  0
  195.3850  175.0810  137.6040 O   0  0  0  0  0  1  0  0  0  0  0  0
  192.5090  174.3960  134.7250 O   0  0  0  0  0  1  0  0  0  0  0  0
  193.5100  176.2510  138.4000 C   0  0  0  0  0  3  0  0  0  0  0  0
  191.0780  176.2460  137.6880 C   0  0  0  0  0  0  0  0  0  0  0  0
  193.1180  174.1900  137.1100 C   0  0  0  0  0  2  0  0  0  0  0  0
  192.0690  176.5260  138.5600 C   0  0  0  0  0  3  0  0  0  0  0  0
  191.3560  175.7370  136.3090 C   0  0  0  0  0  0  0  0  0  0  0  0
  190.5750  176.3200  135.1730 C   0  0  0  0  0  1  0  0  0  0  0  0
  194.0090  175.2190  137.7210 C   0  0  0  0  0  0  0  0  0  0  0  0
  183.8140  179.1330  139.4960 C   0  0  0  0  0  2  0  0  0  0  0  0
  183.9950  180.4810  138.9800 N   0  0  0  0  0  1  0  0  0  0  0  0
  1  3  1  1  0  0  0
  2  7  1  1  0  0  0
  2  4  1  0  0  0  0
  3 18  1  0  0  0  0
  4  1  1  0  0  0  0
  4 10  1  0  0  0  0
  5  2  1  0  0  0  0
  5 17  1  0  0  0  0
  6 20  1  0  0  0  0
  8  9  1  0  0  0  0
 10 13  1  0  0  0  0
 11  9  1  0  0  0  0
 11  5  1  0  0  0  0
 12 10  1  0  0  0  0
 13 18  1  0  0  0  0
 14  7  2  0  0  0  0
 14 15  1  0  0  0  0
 15  1  1  0  0  0  0
 16 20  1  0  0  0  0
 16  9  1  0  0  0  0
 16  7  1  0  0  0  0
 17 31  1  0  0  0  0
 17 12  1  0  0  0  0
 19  8  1  0  0  0  0
 19  6  1  0  0  0  0
 21 28  2  0  0  0  0
 21 26  1  0  0  0  0
 22 30  1  0  0  0  0
 23 21  1  0  0  0  0
 24 27  1  0  0  0  0
 25 15  1  0  0  0  0
 25 27  2  0  0  0  0
 26 30  1  0  0  0  0
 28 25  1  0  0  0  0
 29 28  1  0  0  0  0
 30 24  2  0  0  0  0
 32 31  1  0  0  0  0
M  END
>  <MODEL>
9

>  <REMARK>
 VINA RESULT:      -7.4      5.271      9.226
  Name = 
  2 active torsions:
  status: ('A' for Active; 'I' for Inactive)
    1  A    between atoms: C_13  and  C_29
    2  A    between atoms: C_16  and  N_27
                            x       y       z     vdW  Elec       q    Type
                         _______ _______ _______ _____ _____    ______ ____

>  <TORSDO>
F 2

$$$$
