=
 OpenBabel10262419523D

 25 29  0  0  0  0  0  0  0  0999 V2000
  186.8760  178.0250  145.0990 N   0  0  0  0  0  0  0  0  0  0  0  0
  188.0850  177.7280  144.5450 C   0  0  0  0  0  0  0  0  0  0  0  0
  187.6850  177.7150  147.3270 C   0  0  0  0  0  3  0  0  0  0  0  0
  185.7030  178.3600  144.5360 C   0  0  0  0  0  0  0  0  0  0  0  0
  183.1160  179.0760  143.8540 C   0  0  0  0  0  3  0  0  0  0  0  0
  188.9460  177.4040  146.7970 C   0  0  0  0  0  3  0  0  0  0  0  0
  184.7630  178.5680  145.5180 C   0  0  0  0  0  0  0  0  0  0  0  0
  183.4540  178.9280  145.2110 C   0  0  0  0  0  3  0  0  0  0  0  0
  190.3970  177.1020  144.8260 C   0  0  0  0  0  0  0  0  0  0  0  0
  191.5840  176.7510  145.6610 C   0  0  0  0  0  1  0  0  0  0  0  0
  188.2720  177.7360  143.1990 N   0  0  0  0  0  0  0  0  0  0  0  0
  184.0810  178.8630  142.8460 C   0  0  0  0  0  3  0  0  0  0  0  0
  186.6610  178.0250  146.4340 C   0  0  0  0  0  0  0  0  0  0  0  0
  185.3470  178.3600  146.7600 C   0  0  0  0  0  3  0  0  0  0  0  0
  190.5290  177.1250  143.4730 N   0  0  0  0  0  0  0  0  0  0  0  0
  185.3960  178.4990  143.1820 C   0  0  0  0  0  3  0  0  0  0  0  0
  189.4840  177.4370  142.6570 C   0  0  0  0  0  0  0  0  0  0  0  0
  189.1580  177.4060  145.4040 C   0  0  0  0  0  0  0  0  0  0  0  0
  188.8930  178.0550  138.9820 C   0  0  0  0  0  0  0  0  0  0  0  0
  189.6630  177.4520  141.1930 C   0  0  0  0  0  0  0  0  0  0  0  0
  188.7040  178.0510  140.3660 C   0  0  0  0  0  3  0  0  0  0  0  0
  187.9240  178.6610  138.1360 N   0  0  0  0  0  1  0  0  0  0  0  0
  190.7950  176.8680  140.6110 C   0  0  0  0  0  3  0  0  0  0  0  0
  190.0020  177.4800  138.4440 N   0  0  0  0  0  0  0  0  0  0  0  0
  190.9480  176.8920  139.2230 C   0  0  0  0  0  3  0  0  0  0  0  0
  1 13  1  0  0  0  0
  2  1  1  0  0  0  0
  2 18  2  0  0  0  0
  4  1  1  0  0  0  0
  4  7  1  0  0  0  0
  5  8  1  0  0  0  0
  6  3  2  0  0  0  0
  7 14  1  0  0  0  0
  8  7  2  0  0  0  0
  9 18  1  0  0  0  0
  9 10  1  0  0  0  0
 11  2  1  0  0  0  0
 12 16  1  0  0  0  0
 12  5  2  0  0  0  0
 13 14  2  0  0  0  0
 13  3  1  0  0  0  0
 15  9  2  0  0  0  0
 16  4  2  0  0  0  0
 17 11  2  0  0  0  0
 17 15  1  0  0  0  0
 18  6  1  0  0  0  0
 19 21  1  0  0  0  0
 20 17  1  0  0  0  0
 21 20  2  0  0  0  0
 22 19  1  0  0  0  0
 23 20  1  0  0  0  0
 24 19  2  0  0  0  0
 24 25  1  0  0  0  0
 25 23  2  0  0  0  0
M  END
>  <MODEL>
1

>  <REMARK>
 VINA RESULT:     -11.6      0.000      0.000
  Name = 
  1 active torsions:
  status: ('A' for Active; 'I' for Inactive)
    1  A    between atoms: C_6  and  C_23
                            x       y       z     vdW  Elec       q    Type
                         _______ _______ _______ _____ _____    ______ ____

>  <TORSDO>
F 1

$$$$
=
 OpenBabel10262419523D

 25 29  0  0  0  0  0  0  0  0999 V2000
  186.8190  178.0080  144.9610 N   0  0  0  0  0  0  0  0  0  0  0  0
  188.0210  177.7180  144.3890 C   0  0  0  0  0  0  0  0  0  0  0  0
  187.6580  177.6740  147.1760 C   0  0  0  0  0  3  0  0  0  0  0  0
  185.6380  178.3470  144.4180 C   0  0  0  0  0  0  0  0  0  0  0  0
  183.0420  179.0690  143.7790 C   0  0  0  0  0  3  0  0  0  0  0  0
  188.9110  177.3700  146.6250 C   0  0  0  0  0  3  0  0  0  0  0  0
  184.7120  178.5440  145.4150 C   0  0  0  0  0  0  0  0  0  0  0  0
  183.3980  178.9070  145.1290 C   0  0  0  0  0  3  0  0  0  0  0  0
  190.3370  177.0900  144.6320 C   0  0  0  0  0  0  0  0  0  0  0  0
  191.5340  176.7320  145.4470 C   0  0  0  0  0  1  0  0  0  0  0  0
  188.1890  177.7400  143.0400 N   0  0  0  0  0  0  0  0  0  0  0  0
  183.9930  178.8680  142.7560 C   0  0  0  0  0  3  0  0  0  0  0  0
  186.6210  177.9930  146.3000 C   0  0  0  0  0  0  0  0  0  0  0  0
  185.3120  178.3230  146.6470 C   0  0  0  0  0  3  0  0  0  0  0  0
  190.4510  177.1280  143.2780 N   0  0  0  0  0  0  0  0  0  0  0  0
  185.3130  178.5010  143.0690 C   0  0  0  0  0  3  0  0  0  0  0  0
  189.3940  177.4480  142.4790 C   0  0  0  0  0  0  0  0  0  0  0  0
  189.1050  177.3880  145.2290 C   0  0  0  0  0  0  0  0  0  0  0  0
  190.7290  176.8140  139.0080 C   0  0  0  0  0  0  0  0  0  0  0  0
  189.5540  177.4790  141.0130 C   0  0  0  0  0  0  0  0  0  0  0  0
  190.5950  176.7720  140.3970 C   0  0  0  0  0  3  0  0  0  0  0  0
  191.7830  176.0990  138.3750 N   0  0  0  0  0  1  0  0  0  0  0  0
  188.6680  178.2160  140.2170 C   0  0  0  0  0  3  0  0  0  0  0  0
  189.8540  177.5380  138.2600 N   0  0  0  0  0  0  0  0  0  0  0  0
  188.8350  178.2330  138.8310 C   0  0  0  0  0  3  0  0  0  0  0  0
  1 13  1  0  0  0  0
  2  1  1  0  0  0  0
  2 18  2  0  0  0  0
  4  1  1  0  0  0  0
  4  7  1  0  0  0  0
  5  8  1  0  0  0  0
  6  3  2  0  0  0  0
  7 14  1  0  0  0  0
  8  7  2  0  0  0  0
  9 18  1  0  0  0  0
  9 10  1  0  0  0  0
 11  2  1  0  0  0  0
 12 16  1  0  0  0  0
 12  5  2  0  0  0  0
 13 14  2  0  0  0  0
 13  3  1  0  0  0  0
 15  9  2  0  0  0  0
 16  4  2  0  0  0  0
 17 11  2  0  0  0  0
 17 15  1  0  0  0  0
 18  6  1  0  0  0  0
 19 21  1  0  0  0  0
 20 17  1  0  0  0  0
 21 20  2  0  0  0  0
 22 19  1  0  0  0  0
 23 20  1  0  0  0  0
 24 25  1  0  0  0  0
 24 19  2  0  0  0  0
 25 23  2  0  0  0  0
M  END
>  <MODEL>
2

>  <REMARK>
 VINA RESULT:     -11.3      0.489      1.343
  Name = 
  1 active torsions:
  status: ('A' for Active; 'I' for Inactive)
    1  A    between atoms: C_6  and  C_23
                            x       y       z     vdW  Elec       q    Type
                         _______ _______ _______ _____ _____    ______ ____

>  <TORSDO>
F 1

$$$$
=
 OpenBabel10262419523D

 25 29  0  0  0  0  0  0  0  0999 V2000
  188.1460  177.5620  145.3700 N   0  0  0  0  0  0  0  0  0  0  0  0
  187.6040  177.8320  144.1500 C   0  0  0  0  0  0  0  0  0  0  0  0
  186.1030  178.0420  146.5170 C   0  0  0  0  0  3  0  0  0  0  0  0
  189.3820  177.1730  145.7230 C   0  0  0  0  0  0  0  0  0  0  0  0
  191.7470  176.3780  146.9250 C   0  0  0  0  0  3  0  0  0  0  0  0
  185.5080  178.3290  145.2800 C   0  0  0  0  0  3  0  0  0  0  0  0
  189.4460  177.0260  147.0890 C   0  0  0  0  0  0  0  0  0  0  0  0
  190.6190  176.6280  147.7260 C   0  0  0  0  0  3  0  0  0  0  0  0
  185.7020  178.5050  142.8280 C   0  0  0  0  0  0  0  0  0  0  0  0
  184.2800  178.9290  142.6710 C   0  0  0  0  0  1  0  0  0  0  0  0
  188.3350  177.7300  143.0090 N   0  0  0  0  0  0  0  0  0  0  0  0
  191.6810  176.5290  145.5230 C   0  0  0  0  0  3  0  0  0  0  0  0
  187.4430  177.6560  146.5220 C   0  0  0  0  0  0  0  0  0  0  0  0
  188.2090  177.3300  147.6400 C   0  0  0  0  0  3  0  0  0  0  0  0
  186.4780  178.3860  141.7180 N   0  0  0  0  0  0  0  0  0  0  0  0
  190.4860  176.9330  144.9030 C   0  0  0  0  0  3  0  0  0  0  0  0
  187.7840  178.0030  141.7950 C   0  0  0  0  0  0  0  0  0  0  0  0
  186.2510  178.2280  144.0870 C   0  0  0  0  0  0  0  0  0  0  0  0
  189.0530  178.5020  138.2770 C   0  0  0  0  0  0  0  0  0  0  0  0
  188.5960  177.8850  140.5700 C   0  0  0  0  0  0  0  0  0  0  0  0
  188.2710  178.6270  139.4270 C   0  0  0  0  0  3  0  0  0  0  0  0
  188.7290  179.2510  137.1130 N   0  0  0  0  0  1  0  0  0  0  0  0
  189.7040  177.0280  140.5320 C   0  0  0  0  0  3  0  0  0  0  0  0
  190.1230  177.6620  138.2690 N   0  0  0  0  0  0  0  0  0  0  0  0
  190.4610  176.9300  139.3630 C   0  0  0  0  0  3  0  0  0  0  0  0
  1  4  1  0  0  0  0
  1 13  1  0  0  0  0
  2  1  1  0  0  0  0
  3 13  1  0  0  0  0
  4  7  1  0  0  0  0
  5  8  1  0  0  0  0
  6  3  2  0  0  0  0
  7 14  1  0  0  0  0
  7  8  2  0  0  0  0
  9 18  1  0  0  0  0
 10  9  1  0  0  0  0
 11  2  1  0  0  0  0
 12  5  2  0  0  0  0
 13 14  2  0  0  0  0
 15 17  1  0  0  0  0
 15  9  2  0  0  0  0
 16 12  1  0  0  0  0
 16  4  2  0  0  0  0
 17 11  2  0  0  0  0
 18  2  2  0  0  0  0
 18  6  1  0  0  0  0
 19 21  1  0  0  0  0
 20 17  1  0  0  0  0
 21 20  2  0  0  0  0
 22 19  1  0  0  0  0
 23 20  1  0  0  0  0
 24 19  2  0  0  0  0
 24 25  1  0  0  0  0
 25 23  2  0  0  0  0
M  END
>  <MODEL>
3

>  <REMARK>
 VINA RESULT:     -10.8      1.057      4.330
  Name = 
  1 active torsions:
  status: ('A' for Active; 'I' for Inactive)
    1  A    between atoms: C_6  and  C_23
                            x       y       z     vdW  Elec       q    Type
                         _______ _______ _______ _____ _____    ______ ____

>  <TORSDO>
F 1

$$$$
=
 OpenBabel10262419523D

 25 29  0  0  0  0  0  0  0  0999 V2000
  188.1440  177.5760  145.5260 N   0  0  0  0  0  0  0  0  0  0  0  0
  187.5280  177.8550  144.3440 C   0  0  0  0  0  0  0  0  0  0  0  0
  186.1760  178.0490  146.8010 C   0  0  0  0  0  3  0  0  0  0  0  0
  189.3990  177.1830  145.8000 C   0  0  0  0  0  0  0  0  0  0  0  0
  191.8330  176.3780  146.8480 C   0  0  0  0  0  3  0  0  0  0  0  0
  185.5070  178.3460  145.6050 C   0  0  0  0  0  3  0  0  0  0  0  0
  189.5470  177.0270  147.1580 C   0  0  0  0  0  0  0  0  0  0  0  0
  190.7570  176.6230  147.7190 C   0  0  0  0  0  3  0  0  0  0  0  0
  185.5490  178.5390  143.1460 C   0  0  0  0  0  0  0  0  0  0  0  0
  184.1200  178.9650  143.0810 C   0  0  0  0  0  1  0  0  0  0  0  0
  188.1870  177.7600  143.1590 N   0  0  0  0  0  0  0  0  0  0  0  0
  191.6800  176.5390  145.4540 C   0  0  0  0  0  3  0  0  0  0  0  0
  187.5130  177.6620  146.7200 C   0  0  0  0  0  0  0  0  0  0  0  0
  188.3470  177.3280  147.7860 C   0  0  0  0  0  3  0  0  0  0  0  0
  186.2550  178.4270  141.9900 N   0  0  0  0  0  0  0  0  0  0  0  0
  190.4500  176.9470  144.9120 C   0  0  0  0  0  3  0  0  0  0  0  0
  187.5620  178.0420  141.9840 C   0  0  0  0  0  0  0  0  0  0  0  0
  186.1740  178.2530  144.3670 C   0  0  0  0  0  0  0  0  0  0  0  0
  190.3100  177.4040  139.4780 C   0  0  0  0  0  0  0  0  0  0  0  0
  188.2970  177.9310  140.7100 C   0  0  0  0  0  0  0  0  0  0  0  0
  189.6310  177.5030  140.6940 C   0  0  0  0  0  3  0  0  0  0  0  0
  191.6640  176.9700  139.4540 N   0  0  0  0  0  1  0  0  0  0  0  0
  187.6720  178.2530  139.4990 C   0  0  0  0  0  3  0  0  0  0  0  0
  189.6780  177.7230  138.3170 N   0  0  0  0  0  0  0  0  0  0  0  0
  188.3840  178.1410  138.3030 C   0  0  0  0  0  3  0  0  0  0  0  0
  1  4  1  0  0  0  0
  1 13  1  0  0  0  0
  2 18  2  0  0  0  0
  2  1  1  0  0  0  0
  4  7  1  0  0  0  0
  5  8  1  0  0  0  0
  6  3  2  0  0  0  0
  7  8  2  0  0  0  0
  7 14  1  0  0  0  0
  9 18  1  0  0  0  0
 10  9  1  0  0  0  0
 11  2  1  0  0  0  0
 12  5  2  0  0  0  0
 13  3  1  0  0  0  0
 13 14  2  0  0  0  0
 15  9  2  0  0  0  0
 16 12  1  0  0  0  0
 16  4  2  0  0  0  0
 17 15  1  0  0  0  0
 17 11  2  0  0  0  0
 18  6  1  0  0  0  0
 19 21  1  0  0  0  0
 20 17  1  0  0  0  0
 21 20  2  0  0  0  0
 22 19  1  0  0  0  0
 23 20  1  0  0  0  0
 24 19  2  0  0  0  0
 25 24  1  0  0  0  0
 25 23  2  0  0  0  0
M  END
>  <MODEL>
4

>  <REMARK>
 VINA RESULT:     -10.7      1.100      4.533
  Name = 
  1 active torsions:
  status: ('A' for Active; 'I' for Inactive)
    1  A    between atoms: C_6  and  C_23
                            x       y       z     vdW  Elec       q    Type
                         _______ _______ _______ _____ _____    ______ ____

>  <TORSDO>
F 1

$$$$
=
 OpenBabel10262419523D

 25 29  0  0  0  0  0  0  0  0999 V2000
  187.7420  177.8390  145.5940 N   0  0  0  0  0  0  0  0  0  0  0  0
  186.8400  178.1860  144.6340 C   0  0  0  0  0  0  0  0  0  0  0  0
  186.1930  178.2500  147.3680 C   0  0  0  0  0  3  0  0  0  0  0  0
  189.0170  177.4270  145.5030 C   0  0  0  0  0  0  0  0  0  0  0  0
  191.6270  176.5550  145.8220 C   0  0  0  0  0  3  0  0  0  0  0  0
  185.2360  178.6150  146.4100 C   0  0  0  0  0  3  0  0  0  0  0  0
  189.5180  177.1950  146.7620 C   0  0  0  0  0  0  0  0  0  0  0  0
  190.8250  176.7570  146.9600 C   0  0  0  0  0  3  0  0  0  0  0  0
  184.6270  178.9430  144.0430 C   0  0  0  0  0  0  0  0  0  0  0  0
  183.2410  179.3780  144.3820 C   0  0  0  0  0  1  0  0  0  0  0  0
  187.1600  178.1530  143.3130 N   0  0  0  0  0  0  0  0  0  0  0  0
  191.1130  176.7930  144.5290 C   0  0  0  0  0  3  0  0  0  0  0  0
  187.4530  177.8630  146.9150 C   0  0  0  0  0  0  0  0  0  0  0  0
  188.5330  177.4670  147.7020 C   0  0  0  0  0  3  0  0  0  0  0  0
  184.9990  178.8910  142.7360 N   0  0  0  0  0  0  0  0  0  0  0  0
  189.7910  177.2360  144.3560 C   0  0  0  0  0  3  0  0  0  0  0  0
  186.2500  178.5020  142.3620 C   0  0  0  0  0  0  0  0  0  0  0  0
  185.5490  178.5870  145.0370 C   0  0  0  0  0  0  0  0  0  0  0  0
  188.2780  178.2070  139.1940 C   0  0  0  0  0  0  0  0  0  0  0  0
  186.6190  178.4590  140.9350 C   0  0  0  0  0  0  0  0  0  0  0  0
  187.9490  178.2460  140.5510 C   0  0  0  0  0  3  0  0  0  0  0  0
  189.6260  177.9920  138.7970 N   0  0  0  0  0  1  0  0  0  0  0  0
  185.6440  178.6290  139.9440 C   0  0  0  0  0  3  0  0  0  0  0  0
  187.3110  178.3760  138.2530 N   0  0  0  0  0  0  0  0  0  0  0  0
  186.0120  178.5840  138.5980 C   0  0  0  0  0  3  0  0  0  0  0  0
  1 13  1  0  0  0  0
  2 18  2  0  0  0  0
  2  1  1  0  0  0  0
  4  1  1  0  0  0  0
  4  7  1  0  0  0  0
  5  8  1  0  0  0  0
  6  3  2  0  0  0  0
  7  8  2  0  0  0  0
  7 14  1  0  0  0  0
  9 10  1  0  0  0  0
  9 18  1  0  0  0  0
 11  2  1  0  0  0  0
 12  5  2  0  0  0  0
 13  3  1  0  0  0  0
 13 14  2  0  0  0  0
 15  9  2  0  0  0  0
 16 12  1  0  0  0  0
 16  4  2  0  0  0  0
 17 15  1  0  0  0  0
 17 11  2  0  0  0  0
 18  6  1  0  0  0  0
 19 21  1  0  0  0  0
 20 17  1  0  0  0  0
 21 20  2  0  0  0  0
 22 19  1  0  0  0  0
 23 20  1  0  0  0  0
 24 25  1  0  0  0  0
 24 19  2  0  0  0  0
 25 23  2  0  0  0  0
M  END
>  <MODEL>
5

>  <REMARK>
 VINA RESULT:     -10.6      1.451      4.708
  Name = 
  1 active torsions:
  status: ('A' for Active; 'I' for Inactive)
    1  A    between atoms: C_6  and  C_23
                            x       y       z     vdW  Elec       q    Type
                         _______ _______ _______ _____ _____    ______ ____

>  <TORSDO>
F 1

$$$$
=
 OpenBabel10262419523D

 25 29  0  0  0  0  0  0  0  0999 V2000
  186.1290  178.3490  144.8150 N   0  0  0  0  0  0  0  0  0  0  0  0
  186.0670  178.4030  143.4550 C   0  0  0  0  0  0  0  0  0  0  0  0
  183.8110  178.8840  145.0600 C   0  0  0  0  0  3  0  0  0  0  0  0
  187.1510  178.0860  145.6460 C   0  0  0  0  0  0  0  0  0  0  0  0
  188.9160  177.6120  147.7260 C   0  0  0  0  0  3  0  0  0  0  0  0
  183.7070  178.9490  143.6630 C   0  0  0  0  0  3  0  0  0  0  0  0
  186.7150  178.1500  146.9480 C   0  0  0  0  0  0  0  0  0  0  0  0
  187.5750  177.9180  148.0180 C   0  0  0  0  0  3  0  0  0  0  0  0
  184.7780  178.7630  141.4490 C   0  0  0  0  0  0  0  0  0  0  0  0
  183.5110  179.0810  140.7270 C   0  0  0  0  0  1  0  0  0  0  0  0
  187.1630  178.1690  142.6850 N   0  0  0  0  0  0  0  0  0  0  0  0
  189.3640  177.5460  146.3890 C   0  0  0  0  0  3  0  0  0  0  0  0
  185.0560  178.5780  145.6070 C   0  0  0  0  0  0  0  0  0  0  0  0
  185.3630  178.4660  146.9620 C   0  0  0  0  0  3  0  0  0  0  0  0
  185.9030  178.5210  140.7260 N   0  0  0  0  0  0  0  0  0  0  0  0
  188.4760  177.7850  145.3260 C   0  0  0  0  0  3  0  0  0  0  0  0
  187.0900  178.2260  141.3270 C   0  0  0  0  0  0  0  0  0  0  0  0
  184.8310  178.7100  142.8480 C   0  0  0  0  0  0  0  0  0  0  0  0
  189.4230  177.9520  138.3740 C   0  0  0  0  0  0  0  0  0  0  0  0
  188.2910  177.9680  140.5110 C   0  0  0  0  0  0  0  0  0  0  0  0
  188.2750  178.2020  139.1290 C   0  0  0  0  0  3  0  0  0  0  0  0
  189.4140  178.1860  136.9720 N   0  0  0  0  0  1  0  0  0  0  0  0
  189.4640  177.4870  141.1060 C   0  0  0  0  0  3  0  0  0  0  0  0
  190.5480  177.4840  138.9780 N   0  0  0  0  0  0  0  0  0  0  0  0
  190.5920  177.2500  140.3160 C   0  0  0  0  0  3  0  0  0  0  0  0
  1 13  1  0  0  0  0
  1  4  1  0  0  0  0
  2  1  1  0  0  0  0
  3 13  1  0  0  0  0
  4  7  1  0  0  0  0
  5  8  1  0  0  0  0
  6  3  2  0  0  0  0
  7 14  1  0  0  0  0
  7  8  2  0  0  0  0
  9 18  1  0  0  0  0
 10  9  1  0  0  0  0
 11  2  1  0  0  0  0
 12  5  2  0  0  0  0
 13 14  2  0  0  0  0
 15 17  1  0  0  0  0
 15  9  2  0  0  0  0
 16  4  2  0  0  0  0
 16 12  1  0  0  0  0
 17 11  2  0  0  0  0
 18  2  2  0  0  0  0
 18  6  1  0  0  0  0
 19 24  2  0  0  0  0
 19 21  1  0  0  0  0
 20 23  1  0  0  0  0
 20 17  1  0  0  0  0
 21 20  2  0  0  0  0
 22 19  1  0  0  0  0
 24 25  1  0  0  0  0
 25 23  2  0  0  0  0
M  END
>  <MODEL>
6

>  <REMARK>
 VINA RESULT:     -10.6      1.266      4.175
  Name = 
  1 active torsions:
  status: ('A' for Active; 'I' for Inactive)
    1  A    between atoms: C_6  and  C_23
                            x       y       z     vdW  Elec       q    Type
                         _______ _______ _______ _____ _____    ______ ____

>  <TORSDO>
F 1

$$$$
=
 OpenBabel10262419523D

 25 29  0  0  0  0  0  0  0  0999 V2000
  189.7100  177.3600  143.5050 N   0  0  0  0  0  0  0  0  0  0  0  0
  188.6780  177.5510  144.3730 C   0  0  0  0  0  0  0  0  0  0  0  0
  191.2710  176.9380  145.2660 C   0  0  0  0  0  3  0  0  0  0  0  0
  189.7590  177.4080  142.1630 C   0  0  0  0  0  0  0  0  0  0  0  0
  190.3510  177.3940  139.4580 C   0  0  0  0  0  3  0  0  0  0  0  0
  190.2350  177.1270  146.1920 C   0  0  0  0  0  3  0  0  0  0  0  0
  191.0390  177.1430  141.7390 C   0  0  0  0  0  0  0  0  0  0  0  0
  191.3720  177.1270  140.3870 C   0  0  0  0  0  3  0  0  0  0  0  0
  187.8640  177.6340  146.6420 C   0  0  0  0  0  0  0  0  0  0  0  0
  188.0450  177.5300  148.1200 C   0  0  0  0  0  1  0  0  0  0  0  0
  187.4260  177.8480  143.9350 N   0  0  0  0  0  0  0  0  0  0  0  0
  189.0360  177.6660  139.8940 C   0  0  0  0  0  3  0  0  0  0  0  0
  190.9660  177.0650  143.9120 C   0  0  0  0  0  0  0  0  0  0  0  0
  191.8490  176.9150  142.8430 C   0  0  0  0  0  3  0  0  0  0  0  0
  186.6310  177.9280  146.1500 N   0  0  0  0  0  0  0  0  0  0  0  0
  188.7250  177.6760  141.2640 C   0  0  0  0  0  3  0  0  0  0  0  0
  186.4020  178.0380  144.8110 C   0  0  0  0  0  0  0  0  0  0  0  0
  188.9310  177.4360  145.7560 C   0  0  0  0  0  0  0  0  0  0  0  0
  183.4890  178.6300  142.4890 C   0  0  0  0  0  0  0  0  0  0  0  0
  185.0520  178.3590  144.3130 C   0  0  0  0  0  0  0  0  0  0  0  0
  184.7740  178.3240  142.9400 C   0  0  0  0  0  3  0  0  0  0  0  0
  183.1990  178.5970  141.0970 N   0  0  0  0  0  1  0  0  0  0  0  0
  184.0290  178.7030  145.2060 C   0  0  0  0  0  3  0  0  0  0  0  0
  182.5140  178.9620  143.3780 N   0  0  0  0  0  0  0  0  0  0  0  0
  182.7560  179.0030  144.7150 C   0  0  0  0  0  3  0  0  0  0  0  0
  1 13  1  0  0  0  0
  1  2  1  0  0  0  0
  2 18  2  0  0  0  0
  3  6  2  0  0  0  0
  4  1  1  0  0  0  0
  5 12  2  0  0  0  0
  5  8  1  0  0  0  0
  7  4  1  0  0  0  0
  7 14  1  0  0  0  0
  8  7  2  0  0  0  0
  9 10  1  0  0  0  0
 11  2  1  0  0  0  0
 11 17  2  0  0  0  0
 12 16  1  0  0  0  0
 13  3  1  0  0  0  0
 14 13  2  0  0  0  0
 15  9  2  0  0  0  0
 16  4  2  0  0  0  0
 17 15  1  0  0  0  0
 18  6  1  0  0  0  0
 18  9  1  0  0  0  0
 19 21  2  0  0  0  0
 19 24  1  0  0  0  0
 20 17  1  0  0  0  0
 20 23  2  0  0  0  0
 21 20  1  0  0  0  0
 22 19  1  0  0  0  0
 24 25  2  0  0  0  0
 25 23  1  0  0  0  0
M  END
>  <MODEL>
7

>  <REMARK>
 VINA RESULT:     -10.6      1.750      5.861
  Name = 
  1 active torsions:
  status: ('A' for Active; 'I' for Inactive)
    1  A    between atoms: C_6  and  C_23
                            x       y       z     vdW  Elec       q    Type
                         _______ _______ _______ _____ _____    ______ ____

>  <TORSDO>
F 1

$$$$
=
 OpenBabel10262419523D

 25 29  0  0  0  0  0  0  0  0999 V2000
  189.5430  177.5760  144.2060 N   0  0  0  0  0  0  0  0  0  0  0  0
  188.9250  177.7780  143.0080 C   0  0  0  0  0  0  0  0  0  0  0  0
  191.6800  177.2490  143.1830 C   0  0  0  0  0  3  0  0  0  0  0  0
  189.0640  177.5750  145.4600 C   0  0  0  0  0  0  0  0  0  0  0  0
  188.5550  177.4760  148.1810 C   0  0  0  0  0  3  0  0  0  0  0  0
  191.0810  177.4510  141.9320 C   0  0  0  0  0  3  0  0  0  0  0  0
  190.0860  177.3200  146.3440 C   0  0  0  0  0  0  0  0  0  0  0  0
  189.8660  177.2630  147.7180 C   0  0  0  0  0  3  0  0  0  0  0  0
  189.0580  177.9250  140.6050 C   0  0  0  0  0  0  0  0  0  0  0  0
  189.8030  177.8780  139.3130 C   0  0  0  0  0  1  0  0  0  0  0  0
  187.5920  178.0330  142.9300 N   0  0  0  0  0  0  0  0  0  0  0  0
  187.5060  177.7380  147.2740 C   0  0  0  0  0  3  0  0  0  0  0  0
  190.8670  177.3200  144.3140 C   0  0  0  0  0  0  0  0  0  0  0  0
  191.2680  177.1490  145.6380 C   0  0  0  0  0  3  0  0  0  0  0  0
  187.7210  178.1770  140.5840 N   0  0  0  0  0  0  0  0  0  0  0  0
  187.7540  177.7900  145.8910 C   0  0  0  0  0  3  0  0  0  0  0  0
  186.9850  178.2330  141.7290 C   0  0  0  0  0  0  0  0  0  0  0  0
  189.7010  177.7160  141.8310 C   0  0  0  0  0  0  0  0  0  0  0  0
  183.4020  178.8040  142.7620 C   0  0  0  0  0  0  0  0  0  0  0  0
  185.5380  178.5080  141.6680 C   0  0  0  0  0  0  0  0  0  0  0  0
  184.7710  178.5410  142.8400 C   0  0  0  0  0  3  0  0  0  0  0  0
  182.6170  178.8380  143.9470 N   0  0  0  0  0  1  0  0  0  0  0  0
  184.9100  178.7420  140.4380 C   0  0  0  0  0  3  0  0  0  0  0  0
  182.8190  179.0270  141.5540 N   0  0  0  0  0  0  0  0  0  0  0  0
  183.5390  179.0020  140.4010 C   0  0  0  0  0  3  0  0  0  0  0  0
  1 13  1  0  0  0  0
  1  4  1  0  0  0  0
  2  1  1  0  0  0  0
  3 13  1  0  0  0  0
  4 16  2  0  0  0  0
  4  7  1  0  0  0  0
  6  3  2  0  0  0  0
  7  8  2  0  0  0  0
  8  5  1  0  0  0  0
  9 18  1  0  0  0  0
 10  9  1  0  0  0  0
 11  2  1  0  0  0  0
 12  5  2  0  0  0  0
 13 14  2  0  0  0  0
 14  7  1  0  0  0  0
 15  9  2  0  0  0  0
 15 17  1  0  0  0  0
 16 12  1  0  0  0  0
 17 11  2  0  0  0  0
 18  6  1  0  0  0  0
 18  2  2  0  0  0  0
 19 21  1  0  0  0  0
 19 22  1  0  0  0  0
 20 17  1  0  0  0  0
 20 21  2  0  0  0  0
 23 20  1  0  0  0  0
 24 19  2  0  0  0  0
 25 23  2  0  0  0  0
 25 24  1  0  0  0  0
M  END
>  <MODEL>
8

>  <REMARK>
 VINA RESULT:     -10.1      1.954      5.430
  Name = 
  1 active torsions:
  status: ('A' for Active; 'I' for Inactive)
    1  A    between atoms: C_6  and  C_23
                            x       y       z     vdW  Elec       q    Type
                         _______ _______ _______ _____ _____    ______ ____

>  <TORSDO>
F 1

$$$$
=
 OpenBabel10262419523D

 25 29  0  0  0  0  0  0  0  0999 V2000
  186.2630  178.3940  142.0440 N   0  0  0  0  0  0  0  0  0  0  0  0
  187.5740  178.0650  142.2120 C   0  0  0  0  0  0  0  0  0  0  0  0
  186.4790  178.5420  139.6680 C   0  0  0  0  0  3  0  0  0  0  0  0
  185.2710  178.5570  142.9350 C   0  0  0  0  0  0  0  0  0  0  0  0
  182.9390  178.9940  144.3640 C   0  0  0  0  0  3  0  0  0  0  0  0
  187.8340  178.2060  139.7980 C   0  0  0  0  0  3  0  0  0  0  0  0
  184.1100  178.8900  142.2760 C   0  0  0  0  0  0  0  0  0  0  0  0
  182.9200  179.1170  142.9630 C   0  0  0  0  0  3  0  0  0  0  0  0
  189.7420  177.6270  141.2490 C   0  0  0  0  0  0  0  0  0  0  0  0
  190.6780  177.5010  140.0940 C   0  0  0  0  0  1  0  0  0  0  0  0
  188.0980  177.8350  143.4450 N   0  0  0  0  0  0  0  0  0  0  0  0
  184.1290  178.6510  145.0400 C   0  0  0  0  0  3  0  0  0  0  0  0
  185.7140  178.6280  140.8300 C   0  0  0  0  0  0  0  0  0  0  0  0
  184.3590  178.9450  140.9120 C   0  0  0  0  0  3  0  0  0  0  0  0
  190.2140  177.4080  142.5050 N   0  0  0  0  0  0  0  0  0  0  0  0
  185.3180  178.4280  144.3240 C   0  0  0  0  0  3  0  0  0  0  0  0
  189.4100  177.5090  143.6000 C   0  0  0  0  0  0  0  0  0  0  0  0
  188.3950  177.9650  141.0680 C   0  0  0  0  0  0  0  0  0  0  0  0
  189.7930  177.4480  147.3530 C   0  0  0  0  0  0  0  0  0  0  0  0
  189.9560  177.2640  144.9480 C   0  0  0  0  0  0  0  0  0  0  0  0
  189.2590  177.6900  146.0860 C   0  0  0  0  0  3  0  0  0  0  0  0
  189.0910  177.8770  148.5130 N   0  0  0  0  0  1  0  0  0  0  0  0
  191.1800  176.6020  145.1080 C   0  0  0  0  0  3  0  0  0  0  0  0
  190.9840  176.8030  147.4790 N   0  0  0  0  0  0  0  0  0  0  0  0
  191.6810  176.3790  146.3930 C   0  0  0  0  0  3  0  0  0  0  0  0
  1  2  1  0  0  0  0
  1  4  1  0  0  0  0
  2 11  1  0  0  0  0
  3  6  2  0  0  0  0
  3 13  1  0  0  0  0
  4 16  1  0  0  0  0
  5 12  1  0  0  0  0
  6 18  1  0  0  0  0
  7  4  2  0  0  0  0
  7  8  1  0  0  0  0
  8  5  2  0  0  0  0
  9 15  2  0  0  0  0
 10  9  1  0  0  0  0
 11 17  2  0  0  0  0
 13 14  2  0  0  0  0
 13  1  1  0  0  0  0
 14  7  1  0  0  0  0
 15 17  1  0  0  0  0
 16 12  2  0  0  0  0
 17 20  1  0  0  0  0
 18  9  1  0  0  0  0
 18  2  2  0  0  0  0
 19 24  1  0  0  0  0
 19 22  1  0  0  0  0
 20 23  2  0  0  0  0
 20 21  1  0  0  0  0
 21 19  2  0  0  0  0
 23 25  1  0  0  0  0
 25 24  2  0  0  0  0
M  END
>  <MODEL>
9

>  <REMARK>
 VINA RESULT:     -10.1      1.649      5.188
  Name = 
  1 active torsions:
  status: ('A' for Active; 'I' for Inactive)
    1  A    between atoms: C_6  and  C_23
                            x       y       z     vdW  Elec       q    Type
                         _______ _______ _______ _____ _____    ______ ____

>  <TORSDO>
F 1

$$$$
