=
 OpenBabel10262419393D

 31 34  0  0  1  0  0  0  0  0999 V2000
  187.8430  177.2510  144.5260 C   0  0  2  0  0  3  0  0  0  0  0  0
  188.4810  177.1670  145.9250 C   0  0  2  0  0  3  0  0  0  0  0  0
  189.2350  178.3930  147.9500 C   0  0  0  0  0  2  0  0  0  0  0  0
  188.6600  178.5530  146.5510 C   0  0  0  0  0  2  0  0  0  0  0  0
  190.5310  176.5660  144.4940 C   0  0  0  0  0  2  0  0  0  0  0  0
  190.5210  177.6220  147.9140 C   0  0  0  0  0  3  0  0  0  0  0  0
  188.6810  177.9810  143.5510 N   0  0  1  0  0  0  0  0  0  0  0  0
  191.9980  175.9610  147.0750 N   0  0  0  0  0  1  0  0  0  0  0  0
  190.1370  177.8760  143.8030 C   0  0  0  0  0  2  0  0  0  0  0  0
  189.8260  176.4060  145.8470 C   0  0  1  0  0  3  0  0  0  0  0  0
  190.7750  176.6860  146.9930 C   0  0  0  0  0  0  0  0  0  0  0  0
  184.4000  178.3970  143.4170 C   0  0  0  0  0  0  0  0  0  0  0  0
  186.4410  177.7910  144.5770 C   0  0  0  0  0  0  0  0  0  0  0  0
  183.8150  178.7710  144.6310 C   0  0  0  0  0  3  0  0  0  0  0  0
  183.6940  178.5060  142.2650 F   0  0  0  0  0  0  0  0  0  0  0  0
  185.7090  177.9080  143.3910 C   0  0  0  0  0  3  0  0  0  0  0  0
  185.8490  178.1630  145.7960 C   0  0  0  0  0  3  0  0  0  0  0  0
  184.5380  178.6530  145.8210 C   0  0  0  0  0  3  0  0  0  0  0  0
  189.1120  178.6390  140.2010 C   0  0  2  0  0  3  0  0  0  0  0  0
  189.5950  177.2030  140.2460 C   0  0  2  0  0  3  0  0  0  0  0  0
  188.3340  177.5390  142.1920 C   0  0  1  0  0  3  0  0  0  0  0  0
  188.0750  178.7300  141.2900 C   0  0  0  0  0  2  0  0  0  0  0  0
  189.3780  176.7020  141.5960 N   0  0  0  0  0  2  0  0  0  0  0  0
  191.2870  176.3560  138.6170 C   0  0  0  0  0  1  0  0  0  0  0  0
  191.0740  177.1200  139.9100 C   0  0  0  0  0  2  0  0  0  0  0  0
  188.5240  178.9150  138.9630 O   0  0  0  0  0  0  0  0  0  0  0  0
  187.7130  177.4630  138.5230 S   0  0  0  0  0  0  0  0  0  0  0  0
  186.3060  178.3700  137.7920 C   0  0  0  0  0  2  0  0  0  0  0  0
  184.9910  178.1080  138.5230 C   0  0  0  0  0  3  0  0  0  0  0  0
  184.4260  179.3790  139.1340 C   0  0  0  0  0  1  0  0  0  0  0  0
  183.9700  177.4530  137.6110 C   0  0  0  0  0  1  0  0  0  0  0  0
  1 13  1  1  0  0  0
  1  2  1  0  0  0  0
  2  4  1  6  0  0  0
  4  3  1  0  0  0  0
  6  3  1  0  0  0  0
  7  9  1  1  0  0  0
  7  1  1  0  0  0  0
  9  5  1  0  0  0  0
 10  5  1  6  0  0  0
 10  2  1  0  0  0  0
 10 11  1  0  0  0  0
 11  8  1  0  0  0  0
 11  6  2  0  0  0  0
 12 14  1  0  0  0  0
 13 17  2  0  0  0  0
 14 18  2  0  0  0  0
 15 12  1  0  0  0  0
 16 12  2  0  0  0  0
 16 13  1  0  0  0  0
 17 18  1  0  0  0  0
 19 26  1  6  0  0  0
 19 20  1  0  0  0  0
 19 22  1  0  0  0  0
 20 25  1  1  0  0  0
 20 23  1  0  0  0  0
 21 22  1  6  0  0  0
 21  7  1  0  0  0  0
 23 21  1  0  0  0  0
 24 25  1  0  0  0  0
 27 26  1  0  0  0  0
 28 29  1  0  0  0  0
 28 27  1  0  0  0  0
 29 30  1  0  0  0  0
 31 29  1  0  0  0  0
M  END
>  <MODEL>
1

>  <REMARK>
 VINA RESULT:      -8.6      0.000      0.000
  Name = 
  7 active torsions:
  status: ('A' for Active; 'I' for Inactive)
    1  A    between atoms: C_1  and  C_24
    2  A    between atoms: C_4  and  C_12
    3  A    between atoms: O_6  and  C_7
    4  A    between atoms: O_6  and  S_19
    5  A    between atoms: C_9  and  C_22
    6  A    between atoms: C_15  and  N_21
    7  A    between atoms: S_19  and  C_24
                            x       y       z     vdW  Elec       q    Type
                         _______ _______ _______ _____ _____    ______ ____

>  <TORSDO>
F 7

$$$$
=
 OpenBabel10262419393D

 31 34  0  0  1  0  0  0  0  0999 V2000
  187.8210  177.3210  144.6590 C   0  0  2  0  0  3  0  0  0  0  0  0
  188.5400  177.1530  146.0100 C   0  0  2  0  0  3  0  0  0  0  0  0
  189.4300  178.2570  148.0490 C   0  0  0  0  0  2  0  0  0  0  0  0
  188.7760  178.5000  146.6990 C   0  0  0  0  0  2  0  0  0  0  0  0
  190.4930  176.6120  144.4270 C   0  0  0  0  0  2  0  0  0  0  0  0
  190.7020  177.4770  147.8940 C   0  0  0  0  0  3  0  0  0  0  0  0
  188.6090  178.0950  143.6760 N   0  0  1  0  0  0  0  0  0  0  0  0
  192.1040  175.8510  146.8780 N   0  0  0  0  0  1  0  0  0  0  0  0
  190.0760  177.9620  143.8330 C   0  0  0  0  0  2  0  0  0  0  0  0
  189.8690  176.3840  145.8100 C   0  0  1  0  0  3  0  0  0  0  0  0
  190.8880  176.5910  146.9090 C   0  0  0  0  0  0  0  0  0  0  0  0
  184.3550  178.6170  143.8200 C   0  0  0  0  0  0  0  0  0  0  0  0
  186.4320  177.8710  144.8250 C   0  0  0  0  0  0  0  0  0  0  0  0
  183.8280  178.8740  145.0890 C   0  0  0  0  0  3  0  0  0  0  0  0
  183.6040  178.8510  142.7160 F   0  0  0  0  0  0  0  0  0  0  0  0
  185.6530  178.1160  143.6880 C   0  0  0  0  0  3  0  0  0  0  0  0
  185.8970  178.1260  146.0990 C   0  0  0  0  0  3  0  0  0  0  0  0
  184.5980  178.6270  146.2290 C   0  0  0  0  0  3  0  0  0  0  0  0
  189.1860  178.6140  140.3240 C   0  0  2  0  0  3  0  0  0  0  0  0
  189.3340  177.1060  140.3800 C   0  0  2  0  0  3  0  0  0  0  0  0
  188.1750  177.7320  142.3180 C   0  0  1  0  0  3  0  0  0  0  0  0
  188.1930  178.9440  141.4080 C   0  0  0  0  0  2  0  0  0  0  0  0
  189.0060  176.6780  141.7330 N   0  0  0  0  0  2  0  0  0  0  0  0
  191.7520  177.5030  140.8590 C   0  0  0  0  0  1  0  0  0  0  0  0
  190.7580  176.6910  140.0510 C   0  0  0  0  0  2  0  0  0  0  0  0
  188.6790  179.0060  139.0810 O   0  0  0  0  0  0  0  0  0  0  0  0
  187.4220  177.8810  138.7400 S   0  0  0  0  0  0  0  0  0  0  0  0
  187.7310  177.9520  136.9420 C   0  0  0  0  0  2  0  0  0  0  0  0
  188.4590  176.7160  136.4190 C   0  0  0  0  0  3  0  0  0  0  0  0
  189.9670  176.8950  136.4550 C   0  0  0  0  0  1  0  0  0  0  0  0
  188.0490  175.4670  137.1790 C   0  0  0  0  0  1  0  0  0  0  0  0
  1 13  1  1  0  0  0
  1  2  1  0  0  0  0
  2  4  1  6  0  0  0
  4  3  1  0  0  0  0
  6  3  1  0  0  0  0
  7  9  1  6  0  0  0
  7  1  1  0  0  0  0
  8 11  1  0  0  0  0
  9  5  1  0  0  0  0
 10  5  1  6  0  0  0
 10  2  1  0  0  0  0
 10 11  1  0  0  0  0
 11  6  2  0  0  0  0
 12 14  1  0  0  0  0
 13 17  2  0  0  0  0
 14 18  2  0  0  0  0
 15 12  1  0  0  0  0
 16 12  2  0  0  0  0
 16 13  1  0  0  0  0
 17 18  1  0  0  0  0
 19 26  1  6  0  0  0
 19 20  1  0  0  0  0
 19 22  1  0  0  0  0
 20 25  1  1  0  0  0
 20 23  1  0  0  0  0
 21 22  1  6  0  0  0
 21  7  1  0  0  0  0
 23 21  1  0  0  0  0
 25 24  1  0  0  0  0
 27 26  1  0  0  0  0
 28 27  1  0  0  0  0
 29 30  1  0  0  0  0
 29 28  1  0  0  0  0
 29 31  1  0  0  0  0
M  END
>  <MODEL>
2

>  <REMARK>
 VINA RESULT:      -8.5      1.279      1.754
  Name = 
  7 active torsions:
  status: ('A' for Active; 'I' for Inactive)
    1  A    between atoms: C_1  and  C_24
    2  A    between atoms: C_4  and  C_12
    3  A    between atoms: O_6  and  C_7
    4  A    between atoms: O_6  and  S_19
    5  A    between atoms: C_9  and  C_22
    6  A    between atoms: C_15  and  N_21
    7  A    between atoms: S_19  and  C_24
                            x       y       z     vdW  Elec       q    Type
                         _______ _______ _______ _____ _____    ______ ____

>  <TORSDO>
F 7

$$$$
=
 OpenBabel10262419393D

 31 34  0  0  1  0  0  0  0  0999 V2000
  188.9420  178.0660  140.4520 C   0  0  2  0  0  3  0  0  0  0  0  0
  189.9960  177.6820  139.3980 C   0  0  2  0  0  3  0  0  0  0  0  0
  190.7460  176.0250  137.7060 C   0  0  0  0  0  2  0  0  0  0  0  0
  189.7050  176.3130  138.7770 C   0  0  0  0  0  2  0  0  0  0  0  0
  191.4130  177.4100  141.5260 C   0  0  0  0  0  2  0  0  0  0  0  0
  192.1320  176.1010  138.2730 C   0  0  0  0  0  3  0  0  0  0  0  0
  188.9160  177.1450  141.6080 N   0  0  1  0  0  0  0  0  0  0  0  0
  193.8060  176.9590  139.7240 N   0  0  0  0  0  1  0  0  0  0  0  0
  190.2250  176.5250  141.9200 C   0  0  0  0  0  2  0  0  0  0  0  0
  191.4110  177.7270  140.0250 C   0  0  1  0  0  3  0  0  0  0  0  0
  192.4500  176.9070  139.2920 C   0  0  0  0  0  0  0  0  0  0  0  0
  186.1300  178.1160  137.9040 C   0  0  0  0  0  0  0  0  0  0  0  0
  187.5770  178.2450  139.8450 C   0  0  0  0  0  0  0  0  0  0  0  0
  185.0460  178.5410  138.6780 C   0  0  0  0  0  3  0  0  0  0  0  0
  185.9550  177.8440  136.5870 F   0  0  0  0  0  0  0  0  0  0  0  0
  187.3920  177.9670  138.4860 C   0  0  0  0  0  3  0  0  0  0  0  0
  186.4850  178.6670  140.6210 C   0  0  0  0  0  3  0  0  0  0  0  0
  185.2230  178.8150  140.0380 C   0  0  0  0  0  3  0  0  0  0  0  0
  187.6590  176.7350  144.7850 C   0  0  2  0  0  3  0  0  0  0  0  0
  188.7770  177.7170  145.0740 C   0  0  2  0  0  3  0  0  0  0  0  0
  188.3590  177.8490  142.7730 C   0  0  1  0  0  3  0  0  0  0  0  0
  187.2170  177.0590  143.3810 C   0  0  0  0  0  2  0  0  0  0  0  0
  189.3690  178.1050  143.8020 N   0  0  0  0  0  2  0  0  0  0  0  0
  189.5830  177.3850  147.4140 C   0  0  0  0  0  1  0  0  0  0  0  0
  189.8420  177.0790  145.9510 C   0  0  0  0  0  2  0  0  0  0  0  0
  186.5980  176.9330  145.6730 O   0  0  0  0  0  0  0  0  0  0  0  0
  186.4590  178.6410  145.8260 S   0  0  0  0  0  0  0  0  0  0  0  0
  184.6350  178.5840  145.7550 C   0  0  0  0  0  2  0  0  0  0  0  0
  184.0970  178.6860  144.3300 C   0  0  0  0  0  3  0  0  0  0  0  0
  182.5810  178.7870  144.3070 C   0  0  0  0  0  1  0  0  0  0  0  0
  184.7220  179.8510  143.5830 C   0  0  0  0  0  1  0  0  0  0  0  0
  1 13  1  6  0  0  0
  1  7  1  0  0  0  0
  2  4  1  1  0  0  0
  2 10  1  0  0  0  0
  2  1  1  0  0  0  0
  3  6  1  0  0  0  0
  3  4  1  0  0  0  0
  5  9  1  0  0  0  0
  6 11  2  0  0  0  0
  7  9  1  1  0  0  0
  7 21  1  0  0  0  0
 10  5  1  1  0  0  0
 11  8  1  0  0  0  0
 11 10  1  0  0  0  0
 12 16  2  0  0  0  0
 12 14  1  0  0  0  0
 13 17  2  0  0  0  0
 14 18  2  0  0  0  0
 15 12  1  0  0  0  0
 16 13  1  0  0  0  0
 18 17  1  0  0  0  0
 19 20  1  0  0  0  0
 19 26  1  1  0  0  0
 20 25  1  1  0  0  0
 21 22  1  1  0  0  0
 21 23  1  0  0  0  0
 22 19  1  0  0  0  0
 23 20  1  0  0  0  0
 25 24  1  0  0  0  0
 26 27  1  0  0  0  0
 28 27  1  0  0  0  0
 29 28  1  0  0  0  0
 30 29  1  0  0  0  0
 31 29  1  0  0  0  0
M  END
>  <MODEL>
3

>  <REMARK>
 VINA RESULT:      -8.1      2.571      6.243
  Name = 
  7 active torsions:
  status: ('A' for Active; 'I' for Inactive)
    1  A    between atoms: C_1  and  C_24
    2  A    between atoms: C_4  and  C_12
    3  A    between atoms: O_6  and  C_7
    4  A    between atoms: O_6  and  S_19
    5  A    between atoms: C_9  and  C_22
    6  A    between atoms: C_15  and  N_21
    7  A    between atoms: S_19  and  C_24
                            x       y       z     vdW  Elec       q    Type
                         _______ _______ _______ _____ _____    ______ ____

>  <TORSDO>
F 7

$$$$
=
 OpenBabel10262419393D

 31 34  0  0  1  0  0  0  0  0999 V2000
  189.9530  176.6320  139.1010 C   0  0  2  0  0  3  0  0  0  0  0  0
  188.9700  176.9920  137.9730 C   0  0  2  0  0  3  0  0  0  0  0  0
  188.5450  178.3390  135.9290 C   0  0  0  0  0  2  0  0  0  0  0  0
  189.5370  178.0770  137.0520 C   0  0  0  0  0  2  0  0  0  0  0  0
  187.7410  178.0680  139.9590 C   0  0  0  0  0  2  0  0  0  0  0  0
  187.2020  178.7170  136.4800 C   0  0  0  0  0  3  0  0  0  0  0  0
  190.2340  177.7640  140.0090 N   0  0  1  0  0  0  0  0  0  0  0  0
  185.4390  178.6260  138.0690 N   0  0  0  0  0  1  0  0  0  0  0  0
  189.1130  178.7220  140.1490 C   0  0  0  0  0  2  0  0  0  0  0  0
  187.6090  177.4200  138.5740 C   0  0  1  0  0  3  0  0  0  0  0  0
  186.7530  178.2640  137.6550 C   0  0  0  0  0  0  0  0  0  0  0  0
  192.2980  174.2150  137.3510 C   0  0  0  0  0  0  0  0  0  0  0  0
  191.2160  176.0090  138.5710 C   0  0  0  0  0  0  0  0  0  0  0  0
  193.5410  174.8270  137.5450 C   0  0  0  0  0  3  0  0  0  0  0  0
  192.2190  173.0500  136.6630 F   0  0  0  0  0  0  0  0  0  0  0  0
  191.1390  174.8060  137.8620 C   0  0  0  0  0  3  0  0  0  0  0  0
  192.4650  176.6240  138.7600 C   0  0  0  0  0  3  0  0  0  0  0  0
  193.6240  176.0330  138.2490 C   0  0  0  0  0  3  0  0  0  0  0  0
  189.7440  177.9780  143.4080 C   0  0  2  0  0  3  0  0  0  0  0  0
  189.4990  176.4950  143.2050 C   0  0  2  0  0  3  0  0  0  0  0  0
  190.6650  177.2410  141.3140 C   0  0  1  0  0  3  0  0  0  0  0  0
  190.7390  178.3530  142.3410 C   0  0  0  0  0  2  0  0  0  0  0  0
  189.7780  176.1860  141.8090 N   0  0  0  0  0  2  0  0  0  0  0  0
  187.1850  177.3780  143.5130 C   0  0  0  0  0  1  0  0  0  0  0  0
  188.0570  176.1380  143.5220 C   0  0  0  0  0  2  0  0  0  0  0  0
  190.2950  178.2090  144.6720 O   0  0  0  0  0  0  0  0  0  0  0  0
  191.2590  176.8220  144.9970 S   0  0  0  0  0  0  0  0  0  0  0  0
  190.7360  176.7650  146.7470 C   0  0  0  0  0  2  0  0  0  0  0  0
  189.4870  177.6000  147.0160 C   0  0  0  0  0  3  0  0  0  0  0  0
  188.2290  176.7470  147.0080 C   0  0  0  0  0  1  0  0  0  0  0  0
  189.6030  178.3680  148.3210 C   0  0  0  0  0  1  0  0  0  0  0  0
  1 13  1  6  0  0  0
  1  7  1  0  0  0  0
  2  4  1  1  0  0  0
  2 10  1  0  0  0  0
  2  1  1  0  0  0  0
  3  6  1  0  0  0  0
  3  4  1  0  0  0  0
  5  9  1  0  0  0  0
  6 11  2  0  0  0  0
  7  9  1  1  0  0  0
  7 21  1  0  0  0  0
 10  5  1  1  0  0  0
 11  8  1  0  0  0  0
 11 10  1  0  0  0  0
 12 14  2  0  0  0  0
 12 16  1  0  0  0  0
 13 17  1  0  0  0  0
 14 18  1  0  0  0  0
 15 12  1  0  0  0  0
 16 13  2  0  0  0  0
 18 17  2  0  0  0  0
 19 26  1  1  0  0  0
 20 19  1  0  0  0  0
 20 25  1  6  0  0  0
 21 23  1  0  0  0  0
 21 22  1  1  0  0  0
 22 19  1  0  0  0  0
 23 20  1  0  0  0  0
 24 25  1  0  0  0  0
 26 27  1  0  0  0  0
 27 28  1  0  0  0  0
 28 29  1  0  0  0  0
 29 31  1  0  0  0  0
 30 29  1  0  0  0  0
M  END
>  <MODEL>
4

>  <REMARK>
 VINA RESULT:      -7.9      3.394      8.492
  Name = 
  7 active torsions:
  status: ('A' for Active; 'I' for Inactive)
    1  A    between atoms: C_1  and  C_24
    2  A    between atoms: C_4  and  C_12
    3  A    between atoms: O_6  and  C_7
    4  A    between atoms: O_6  and  S_19
    5  A    between atoms: C_9  and  C_22
    6  A    between atoms: C_15  and  N_21
    7  A    between atoms: S_19  and  C_24
                            x       y       z     vdW  Elec       q    Type
                         _______ _______ _______ _____ _____    ______ ____

>  <TORSDO>
F 7

$$$$
=
 OpenBabel10262419393D

 31 34  0  0  1  0  0  0  0  0999 V2000
  185.2770  179.0510  141.2430 C   0  0  2  0  0  3  0  0  0  0  0  0
  183.8030  179.0040  140.7980 C   0  0  2  0  0  3  0  0  0  0  0  0
  181.7240  177.6570  140.6130 C   0  0  0  0  0  2  0  0  0  0  0  0
  183.1900  177.6170  141.0140 C   0  0  0  0  0  2  0  0  0  0  0  0
  184.9330  179.1270  138.4920 C   0  0  0  0  0  2  0  0  0  0  0  0
  181.5690  178.1260  139.1960 C   0  0  0  0  0  3  0  0  0  0  0  0
  186.1470  178.1470  140.4610 N   0  0  1  0  0  0  0  0  0  0  0  0
  182.1660  179.4130  137.2920 N   0  0  0  0  0  1  0  0  0  0  0  0
  185.7000  177.9300  139.0660 C   0  0  0  0  0  2  0  0  0  0  0  0
  183.6830  179.4490  139.3210 C   0  0  1  0  0  3  0  0  0  0  0  0
  182.4270  178.9750  138.6210 C   0  0  0  0  0  0  0  0  0  0  0  0
  186.4450  177.6160  144.5560 C   0  0  0  0  0  0  0  0  0  0  0  0
  185.4260  178.8330  142.7240 C   0  0  0  0  0  0  0  0  0  0  0  0
  185.7510  178.4100  145.4750 C   0  0  0  0  0  3  0  0  0  0  0  0
  187.2780  176.6420  144.9970 F   0  0  0  0  0  0  0  0  0  0  0  0
  186.2830  177.8280  143.1840 C   0  0  0  0  0  3  0  0  0  0  0  0
  184.7340  179.6330  143.6490 C   0  0  0  0  0  3  0  0  0  0  0  0
  184.8970  179.4200  145.0220 C   0  0  0  0  0  3  0  0  0  0  0  0
  189.4580  177.2280  140.2780 C   0  0  2  0  0  3  0  0  0  0  0  0
  189.4190  178.2720  139.1790 C   0  0  2  0  0  3  0  0  0  0  0  0
  187.5300  178.6440  140.5150 C   0  0  1  0  0  3  0  0  0  0  0  0
  188.4180  177.6760  141.2720 C   0  0  0  0  0  2  0  0  0  0  0  0
  188.0910  178.8710  139.1820 N   0  0  0  0  0  2  0  0  0  0  0  0
  188.9370  178.3830  136.7320 C   0  0  0  0  0  1  0  0  0  0  0  0
  189.6840  177.6400  137.8230 C   0  0  0  0  0  2  0  0  0  0  0  0
  190.7170  177.2080  140.8840 O   0  0  0  0  0  0  0  0  0  0  0  0
  190.4740  176.4030  142.3850 S   0  0  0  0  0  0  0  0  0  0  0  0
  191.8240  177.3280  143.1960 C   0  0  0  0  0  2  0  0  0  0  0  0
  191.4540  177.8020  144.6000 C   0  0  0  0  0  3  0  0  0  0  0  0
  190.0670  178.4210  144.6360 C   0  0  0  0  0  1  0  0  0  0  0  0
  191.5640  176.6770  145.6130 C   0  0  0  0  0  1  0  0  0  0  0  0
  1 13  1  1  0  0  0
  2  4  1  6  0  0  0
  2  1  1  0  0  0  0
  3  4  1  0  0  0  0
  5  9  1  0  0  0  0
  6  3  1  0  0  0  0
  7  9  1  6  0  0  0
  7 21  1  0  0  0  0
  7  1  1  0  0  0  0
  8 11  1  0  0  0  0
 10  5  1  6  0  0  0
 10  2  1  0  0  0  0
 11  6  2  0  0  0  0
 11 10  1  0  0  0  0
 12 15  1  0  0  0  0
 12 14  1  0  0  0  0
 13 16  1  0  0  0  0
 13 17  2  0  0  0  0
 16 12  2  0  0  0  0
 17 18  1  0  0  0  0
 18 14  2  0  0  0  0
 19 26  1  1  0  0  0
 19 22  1  0  0  0  0
 20 25  1  6  0  0  0
 20 23  1  0  0  0  0
 20 19  1  0  0  0  0
 21 22  1  6  0  0  0
 23 21  1  0  0  0  0
 24 25  1  0  0  0  0
 26 27  1  0  0  0  0
 27 28  1  0  0  0  0
 28 29  1  0  0  0  0
 29 30  1  0  0  0  0
 29 31  1  0  0  0  0
M  END
>  <MODEL>
5

>  <REMARK>
 VINA RESULT:      -7.9      2.766      6.777
  Name = 
  7 active torsions:
  status: ('A' for Active; 'I' for Inactive)
    1  A    between atoms: C_1  and  C_24
    2  A    between atoms: C_4  and  C_12
    3  A    between atoms: O_6  and  C_7
    4  A    between atoms: O_6  and  S_19
    5  A    between atoms: C_9  and  C_22
    6  A    between atoms: C_15  and  N_21
    7  A    between atoms: S_19  and  C_24
                            x       y       z     vdW  Elec       q    Type
                         _______ _______ _______ _____ _____    ______ ____

>  <TORSDO>
F 7

$$$$
=
 OpenBabel10262419393D

 31 34  0  0  1  0  0  0  0  0999 V2000
  188.3550  177.1060  142.5610 C   0  0  2  0  0  3  0  0  0  0  0  0
  189.0670  176.8000  143.8910 C   0  0  2  0  0  3  0  0  0  0  0  0
  190.1390  177.7110  145.9380 C   0  0  0  0  0  2  0  0  0  0  0  0
  189.5000  178.0820  144.6090 C   0  0  0  0  0  2  0  0  0  0  0  0
  190.8970  176.0390  142.2520 C   0  0  0  0  0  2  0  0  0  0  0  0
  191.2860  176.7660  145.7350 C   0  0  0  0  0  3  0  0  0  0  0  0
  189.2250  177.7910  141.5810 N   0  0  1  0  0  0  0  0  0  0  0  0
  192.4290  174.9910  144.6470 N   0  0  0  0  0  1  0  0  0  0  0  0
  190.6610  177.4510  141.7030 C   0  0  0  0  0  2  0  0  0  0  0  0
  190.2710  175.8600  143.6420 C   0  0  1  0  0  3  0  0  0  0  0  0
  191.3290  175.8920  144.7240 C   0  0  0  0  0  0  0  0  0  0  0  0
  185.1980  178.4030  144.2190 C   0  0  0  0  0  0  0  0  0  0  0  0
  187.0580  177.8390  142.7710 C   0  0  0  0  0  0  0  0  0  0  0  0
  184.6520  179.2070  143.2130 C   0  0  0  0  0  3  0  0  0  0  0  0
  184.5630  178.2880  145.4110 F   0  0  0  0  0  0  0  0  0  0  0  0
  186.3980  177.7220  143.9980 C   0  0  0  0  0  3  0  0  0  0  0  0
  186.5110  178.6510  141.7640 C   0  0  0  0  0  3  0  0  0  0  0  0
  185.3100  179.3330  141.9860 C   0  0  0  0  0  3  0  0  0  0  0  0
  189.5940  178.6030  138.2580 C   0  0  2  0  0  3  0  0  0  0  0  0
  189.7770  177.1000  138.1780 C   0  0  2  0  0  3  0  0  0  0  0  0
  188.7200  177.5310  140.2240 C   0  0  1  0  0  3  0  0  0  0  0  0
  188.6590  178.8150  139.4200 C   0  0  0  0  0  2  0  0  0  0  0  0
  189.5380  176.5510  139.5060 N   0  0  0  0  0  2  0  0  0  0  0  0
  191.4740  175.2810  137.9720 C   0  0  0  0  0  1  0  0  0  0  0  0
  191.1880  176.7510  137.7350 C   0  0  0  0  0  2  0  0  0  0  0  0
  189.0070  179.0830  137.0840 O   0  0  0  0  0  0  0  0  0  0  0  0
  188.5700  177.6740  136.1980 S   0  0  0  0  0  0  0  0  0  0  0  0
  186.8480  178.2430  135.9800 C   0  0  0  0  0  2  0  0  0  0  0  0
  185.8570  177.4660  136.8440 C   0  0  0  0  0  3  0  0  0  0  0  0
  186.3950  176.0980  137.2240 C   0  0  0  0  0  1  0  0  0  0  0  0
  185.4660  178.2510  138.0830 C   0  0  0  0  0  1  0  0  0  0  0  0
  1 13  1  1  0  0  0
  1  2  1  0  0  0  0
  2  4  1  6  0  0  0
  4  3  1  0  0  0  0
  6  3  1  0  0  0  0
  7  9  1  6  0  0  0
  7  1  1  0  0  0  0
  8 11  1  0  0  0  0
  9  5  1  0  0  0  0
 10  5  1  6  0  0  0
 10  2  1  0  0  0  0
 10 11  1  0  0  0  0
 11  6  2  0  0  0  0
 12 15  1  0  0  0  0
 13 16  2  0  0  0  0
 14 12  2  0  0  0  0
 16 12  1  0  0  0  0
 17 18  2  0  0  0  0
 17 13  1  0  0  0  0
 18 14  1  0  0  0  0
 19 26  1  6  0  0  0
 19 22  1  0  0  0  0
 20 25  1  1  0  0  0
 20 19  1  0  0  0  0
 20 23  1  0  0  0  0
 21 22  1  6  0  0  0
 21  7  1  0  0  0  0
 23 21  1  0  0  0  0
 25 24  1  0  0  0  0
 27 26  1  0  0  0  0
 28 27  1  0  0  0  0
 28 29  1  0  0  0  0
 29 30  1  0  0  0  0
 29 31  1  0  0  0  0
M  END
>  <MODEL>
6

>  <REMARK>
 VINA RESULT:      -7.6      1.658      2.383
  Name = 
  7 active torsions:
  status: ('A' for Active; 'I' for Inactive)
    1  A    between atoms: C_1  and  C_24
    2  A    between atoms: C_4  and  C_12
    3  A    between atoms: O_6  and  C_7
    4  A    between atoms: O_6  and  S_19
    5  A    between atoms: C_9  and  C_22
    6  A    between atoms: C_15  and  N_21
    7  A    between atoms: S_19  and  C_24
                            x       y       z     vdW  Elec       q    Type
                         _______ _______ _______ _____ _____    ______ ____

>  <TORSDO>
F 7

$$$$
=
 OpenBabel10262419393D

 31 34  0  0  1  0  0  0  0  0999 V2000
  189.2190  177.9800  142.8280 C   0  0  2  0  0  3  0  0  0  0  0  0
  190.4350  177.3440  143.5250 C   0  0  2  0  0  3  0  0  0  0  0  0
  191.7400  175.2750  143.9640 C   0  0  0  0  0  2  0  0  0  0  0  0
  190.4860  175.8290  143.3050 C   0  0  0  0  0  2  0  0  0  0  0  0
  189.0100  177.8930  145.5930 C   0  0  0  0  0  2  0  0  0  0  0  0
  191.7800  175.6330  145.4200 C   0  0  0  0  0  3  0  0  0  0  0  0
  187.9280  177.4960  143.3610 N   0  0  1  0  0  0  0  0  0  0  0  0
  191.3690  177.0380  147.2900 N   0  0  0  0  0  1  0  0  0  0  0  0
  187.9670  177.1090  144.7900 C   0  0  0  0  0  2  0  0  0  0  0  0
  190.4240  177.6930  145.0320 C   0  0  1  0  0  3  0  0  0  0  0  0
  191.2270  176.7510  145.9030 C   0  0  0  0  0  0  0  0  0  0  0  0
  188.2730  178.1900  139.1590 C   0  0  0  0  0  0  0  0  0  0  0  0
  189.2940  177.8510  141.3320 C   0  0  0  0  0  0  0  0  0  0  0  0
  189.4030  177.6510  138.5380 C   0  0  0  0  0  3  0  0  0  0  0  0
  187.2290  178.6200  138.4080 F   0  0  0  0  0  0  0  0  0  0  0  0
  188.2190  178.2910  140.5520 C   0  0  0  0  0  3  0  0  0  0  0  0
  190.4310  177.3140  140.7050 C   0  0  0  0  0  3  0  0  0  0  0  0
  190.4840  177.2130  139.3100 C   0  0  0  0  0  3  0  0  0  0  0  0
  184.5360  178.0220  143.1130 C   0  0  2  0  0  3  0  0  0  0  0  0
  184.8790  179.0480  144.1750 C   0  0  2  0  0  3  0  0  0  0  0  0
  186.8900  178.5060  143.1010 C   0  0  1  0  0  3  0  0  0  0  0  0
  185.7730  177.9240  142.2590 C   0  0  0  0  0  2  0  0  0  0  0  0
  186.3260  179.0520  144.3380 N   0  0  0  0  0  2  0  0  0  0  0  0
  185.2590  178.6280  146.6060 C   0  0  0  0  0  1  0  0  0  0  0  0
  184.2240  178.6940  145.5000 C   0  0  0  0  0  2  0  0  0  0  0  0
  183.4590  178.4650  142.3400 O   0  0  0  0  0  0  0  0  0  0  0  0
  184.0490  178.4760  140.7230 S   0  0  0  0  0  0  0  0  0  0  0  0
  182.7550  177.3190  140.1540 C   0  0  0  0  0  2  0  0  0  0  0  0
  182.8640  176.9990  138.6650 C   0  0  0  0  0  3  0  0  0  0  0  0
  184.1690  177.5060  138.0760 C   0  0  0  0  0  1  0  0  0  0  0  0
  182.7010  175.5120  138.4040 C   0  0  0  0  0  1  0  0  0  0  0  0
  1 13  1  6  0  0  0
  1  7  1  0  0  0  0
  1  2  1  0  0  0  0
  2  4  1  1  0  0  0
  2 10  1  0  0  0  0
  3  6  1  0  0  0  0
  4  3  1  0  0  0  0
  6 11  2  0  0  0  0
  7  9  1  1  0  0  0
  9  5  1  0  0  0  0
 10  5  1  1  0  0  0
 10 11  1  0  0  0  0
 11  8  1  0  0  0  0
 12 16  1  0  0  0  0
 14 12  2  0  0  0  0
 14 18  1  0  0  0  0
 15 12  1  0  0  0  0
 16 13  2  0  0  0  0
 17 13  1  0  0  0  0
 18 17  2  0  0  0  0
 19 26  1  6  0  0  0
 19 20  1  0  0  0  0
 20 23  1  0  0  0  0
 20 25  1  1  0  0  0
 21 22  1  6  0  0  0
 21  7  1  0  0  0  0
 21 23  1  0  0  0  0
 22 19  1  0  0  0  0
 25 24  1  0  0  0  0
 27 26  1  0  0  0  0
 28 27  1  0  0  0  0
 29 28  1  0  0  0  0
 30 29  1  0  0  0  0
 31 29  1  0  0  0  0
M  END
>  <MODEL>
7

>  <REMARK>
 VINA RESULT:      -7.6      2.126      4.987
  Name = 
  7 active torsions:
  status: ('A' for Active; 'I' for Inactive)
    1  A    between atoms: C_1  and  C_24
    2  A    between atoms: C_4  and  C_12
    3  A    between atoms: O_6  and  C_7
    4  A    between atoms: O_6  and  S_19
    5  A    between atoms: C_9  and  C_22
    6  A    between atoms: C_15  and  N_21
    7  A    between atoms: S_19  and  C_24
                            x       y       z     vdW  Elec       q    Type
                         _______ _______ _______ _____ _____    ______ ____

>  <TORSDO>
F 7

$$$$
=
 OpenBabel10262419393D

 31 34  0  0  1  0  0  0  0  0999 V2000
  186.5080  177.5970  144.1060 C   0  0  2  0  0  3  0  0  0  0  0  0
  186.7470  177.5550  145.6260 C   0  0  2  0  0  3  0  0  0  0  0  0
  186.9130  178.8400  147.7460 C   0  0  0  0  0  2  0  0  0  0  0  0
  186.7350  178.9590  146.2410 C   0  0  0  0  0  2  0  0  0  0  0  0
  189.1130  176.9610  144.8160 C   0  0  0  0  0  2  0  0  0  0  0  0
  188.1700  178.0930  148.0780 C   0  0  0  0  0  3  0  0  0  0  0  0
  187.5690  178.3200  143.3730 N   0  0  1  0  0  0  0  0  0  0  0  0
  189.8380  176.4420  147.7120 N   0  0  0  0  0  1  0  0  0  0  0  0
  188.9050  178.2480  144.0100 C   0  0  0  0  0  2  0  0  0  0  0  0
  188.0720  176.8180  145.9340 C   0  0  1  0  0  3  0  0  0  0  0  0
  188.6740  177.1420  147.2840 C   0  0  0  0  0  0  0  0  0  0  0  0
  183.4620  178.6130  142.0850 C   0  0  0  0  0  0  0  0  0  0  0  0
  185.1370  178.1120  143.7640 C   0  0  0  0  0  0  0  0  0  0  0  0
  182.5820  179.0420  143.0840 C   0  0  0  0  0  3  0  0  0  0  0  0
  183.0760  178.6450  140.7860 F   0  0  0  0  0  0  0  0  0  0  0  0
  184.7360  178.1490  142.4240 C   0  0  0  0  0  3  0  0  0  0  0  0
  184.2500  178.5380  144.7660 C   0  0  0  0  0  3  0  0  0  0  0  0
  182.9750  179.0030  144.4250 C   0  0  0  0  0  3  0  0  0  0  0  0
  189.0920  178.7290  140.3140 C   0  0  2  0  0  3  0  0  0  0  0  0
  189.3540  177.2520  140.5380 C   0  0  2  0  0  3  0  0  0  0  0  0
  187.6060  177.8410  141.9830 C   0  0  1  0  0  3  0  0  0  0  0  0
  187.7890  178.9990  141.0220 C   0  0  0  0  0  2  0  0  0  0  0  0
  188.6700  176.8590  141.7620 N   0  0  0  0  0  2  0  0  0  0  0  0
  191.5450  177.1240  139.3470 C   0  0  0  0  0  1  0  0  0  0  0  0
  190.8430  176.9850  140.6840 C   0  0  0  0  0  2  0  0  0  0  0  0
  188.9540  178.9960  138.9490 O   0  0  0  0  0  0  0  0  0  0  0  0
  187.9250  177.7510  138.3550 S   0  0  0  0  0  0  0  0  0  0  0  0
  188.7930  177.6840  136.7490 C   0  0  0  0  0  2  0  0  0  0  0  0
  188.8530  176.2720  136.1700 C   0  0  0  0  0  3  0  0  0  0  0  0
  189.1600  175.2390  137.2400 C   0  0  0  0  0  1  0  0  0  0  0  0
  187.5720  175.9190  135.4360 C   0  0  0  0  0  1  0  0  0  0  0  0
  1 13  1  1  0  0  0
  1  2  1  0  0  0  0
  2 10  1  0  0  0  0
  2  4  1  6  0  0  0
  3  6  1  0  0  0  0
  4  3  1  0  0  0  0
  7  9  1  1  0  0  0
  7  1  1  0  0  0  0
  9  5  1  0  0  0  0
 10  5  1  6  0  0  0
 10 11  1  0  0  0  0
 11  8  1  0  0  0  0
 11  6  2  0  0  0  0
 12 16  2  0  0  0  0
 12 14  1  0  0  0  0
 13 17  2  0  0  0  0
 14 18  2  0  0  0  0
 15 12  1  0  0  0  0
 16 13  1  0  0  0  0
 18 17  1  0  0  0  0
 19 26  1  6  0  0  0
 19 20  1  0  0  0  0
 19 22  1  0  0  0  0
 20 25  1  1  0  0  0
 20 23  1  0  0  0  0
 21 22  1  6  0  0  0
 21  7  1  0  0  0  0
 23 21  1  0  0  0  0
 24 25  1  0  0  0  0
 27 26  1  0  0  0  0
 28 27  1  0  0  0  0
 29 28  1  0  0  0  0
 29 30  1  0  0  0  0
 31 29  1  0  0  0  0
M  END
>  <MODEL>
8

>  <REMARK>
 VINA RESULT:      -7.5      1.708      2.271
  Name = 
  7 active torsions:
  status: ('A' for Active; 'I' for Inactive)
    1  A    between atoms: C_1  and  C_24
    2  A    between atoms: C_4  and  C_12
    3  A    between atoms: O_6  and  C_7
    4  A    between atoms: O_6  and  S_19
    5  A    between atoms: C_9  and  C_22
    6  A    between atoms: C_15  and  N_21
    7  A    between atoms: S_19  and  C_24
                            x       y       z     vdW  Elec       q    Type
                         _______ _______ _______ _____ _____    ______ ____

>  <TORSDO>
F 7

$$$$
=
 OpenBabel10262419393D

 31 34  0  0  1  0  0  0  0  0999 V2000
  181.9150  178.9530  140.1740 C   0  0  2  0  0  3  0  0  0  0  0  0
  181.2630  178.3750  138.9050 C   0  0  2  0  0  3  0  0  0  0  0  0
  179.9970  176.4980  137.8820 C   0  0  0  0  0  2  0  0  0  0  0  0
  180.6770  176.9810  139.1530 C   0  0  0  0  0  2  0  0  0  0  0  0
  183.7360  178.1890  138.2260 C   0  0  0  0  0  2  0  0  0  0  0  0
  180.9550  176.5070  136.7270 C   0  0  0  0  0  3  0  0  0  0  0  0
  183.0670  178.1570  140.6470 N   0  0  1  0  0  0  0  0  0  0  0  0
  182.7870  177.3510  135.4730 N   0  0  0  0  0  1  0  0  0  0  0  0
  183.8060  177.4570  139.5700 C   0  0  0  0  0  2  0  0  0  0  0  0
  182.2880  178.3550  137.7460 C   0  0  1  0  0  3  0  0  0  0  0  0
  181.9660  177.3770  136.6370 C   0  0  0  0  0  0  0  0  0  0  0  0
  179.9170  178.5010  143.3680 C   0  0  0  0  0  0  0  0  0  0  0  0
  180.9090  179.1910  141.2660 C   0  0  0  0  0  0  0  0  0  0  0  0
  179.0650  179.6100  143.3360 C   0  0  0  0  0  3  0  0  0  0  0  0
  179.8530  177.6300  144.4050 F   0  0  0  0  0  0  0  0  0  0  0  0
  180.8370  178.2930  142.3370 C   0  0  0  0  0  3  0  0  0  0  0  0
  180.0560  180.3060  141.2380 C   0  0  0  0  0  3  0  0  0  0  0  0
  179.1350  180.5140  142.2710 C   0  0  0  0  0  3  0  0  0  0  0  0
  185.6450  178.1730  142.9270 C   0  0  2  0  0  3  0  0  0  0  0  0
  186.2670  179.0130  141.8280 C   0  0  2  0  0  3  0  0  0  0  0  0
  183.9560  179.0190  141.4410 C   0  0  1  0  0  3  0  0  0  0  0  0
  184.1660  178.4420  142.8270 C   0  0  0  0  0  2  0  0  0  0  0  0
  185.2570  179.2160  140.7990 N   0  0  0  0  0  2  0  0  0  0  0  0
  187.3520  178.2530  139.7130 C   0  0  0  0  0  1  0  0  0  0  0  0
  187.4690  178.3080  141.2240 C   0  0  0  0  0  2  0  0  0  0  0  0
  186.1180  178.5820  144.1770 O   0  0  0  0  0  0  0  0  0  0  0  0
  187.1330  177.2980  144.7090 S   0  0  0  0  0  0  0  0  0  0  0  0
  187.1010  177.8780  146.4410 C   0  0  0  0  0  2  0  0  0  0  0  0
  188.2670  177.3370  147.2650 C   0  0  0  0  0  3  0  0  0  0  0  0
  189.5180  177.1620  146.4210 C   0  0  0  0  0  1  0  0  0  0  0  0
  188.5520  178.2180  148.4680 C   0  0  0  0  0  1  0  0  0  0  0  0
  1  7  1  0  0  0  0
  1 13  1  1  0  0  0
  2  4  1  1  0  0  0
  2  1  1  0  0  0  0
  3  4  1  0  0  0  0
  5  9  1  0  0  0  0
  6  3  1  0  0  0  0
  7  9  1  6  0  0  0
  7 21  1  0  0  0  0
  8 11  1  0  0  0  0
 10  5  1  1  0  0  0
 10  2  1  0  0  0  0
 11  6  2  0  0  0  0
 11 10  1  0  0  0  0
 12 15  1  0  0  0  0
 13 16  1  0  0  0  0
 14 12  1  0  0  0  0
 16 12  2  0  0  0  0
 17 13  2  0  0  0  0
 17 18  1  0  0  0  0
 18 14  2  0  0  0  0
 19 26  1  1  0  0  0
 20 25  1  6  0  0  0
 20 19  1  0  0  0  0
 21 22  1  1  0  0  0
 22 19  1  0  0  0  0
 23 21  1  0  0  0  0
 23 20  1  0  0  0  0
 24 25  1  0  0  0  0
 26 27  1  0  0  0  0
 27 28  1  0  0  0  0
 28 29  1  0  0  0  0
 29 31  1  0  0  0  0
 30 29  1  0  0  0  0
M  END
>  <MODEL>
9

>  <REMARK>
 VINA RESULT:      -7.4      3.813      8.502
  Name = 
  7 active torsions:
  status: ('A' for Active; 'I' for Inactive)
    1  A    between atoms: C_1  and  C_24
    2  A    between atoms: C_4  and  C_12
    3  A    between atoms: O_6  and  C_7
    4  A    between atoms: O_6  and  S_19
    5  A    between atoms: C_9  and  C_22
    6  A    between atoms: C_15  and  N_21
    7  A    between atoms: S_19  and  C_24
                            x       y       z     vdW  Elec       q    Type
                         _______ _______ _______ _____ _____    ______ ____

>  <TORSDO>
F 7

$$$$
