=
 OpenBabel10262421203D

 32 33  0  0  1  0  0  0  0  0999 V2000
  192.0960  177.2690  139.8530 C   0  0  0  0  0  0  0  0  0  0  0  0
  193.3240  177.2710  139.5800 O   0  0  0  0  0  0  0  0  0  0  0  0
  189.3370  177.3530  140.3750 C   0  0  0  0  0  3  0  0  0  0  0  0
  191.6510  177.5410  141.2630 C   0  0  0  0  0  2  0  0  0  0  0  0
  189.8640  177.0050  139.0450 C   0  0  0  0  0  0  0  0  0  0  0  0
  191.1420  176.9870  138.8230 N   0  0  0  0  0  0  0  0  0  0  0  0
  190.1530  177.6330  141.3940 C   0  0  0  0  0  0  0  0  0  0  0  0
  188.9210  176.7230  137.9260 C   0  0  0  0  0  2  0  0  0  0  0  0
  189.0890  179.3980  137.6500 O   0  0  0  0  0  0  0  0  0  0  0  0
  189.6480  178.0330  135.6960 O   0  0  0  0  0  0  0  0  0  0  0  0
  188.7280  178.1580  136.8800 S   0  0  0  0  0  0  0  0  0  0  0  0
  187.0880  178.2810  136.3380 N   0  0  0  0  0  2  0  0  0  0  0  0
  186.2250  177.7940  137.4120 C   0  0  2  0  0  3  0  0  0  0  0  0
  185.0880  176.9310  136.8710 C   0  0  0  0  0  2  0  0  0  0  0  0
  185.4350  175.5820  136.9510 O   0  0  0  0  0  1  0  0  0  0  0  0
  185.7690  178.8440  138.2420 O   0  0  0  0  0  0  0  0  0  0  0  0
  184.6780  178.3900  139.0010 C   0  0  0  0  0  3  0  0  0  0  0  0
  184.7620  178.9740  140.3970 C   0  0  0  0  0  2  0  0  0  0  0  0
  183.8120  179.5730  139.3850 C   0  0  0  0  0  2  0  0  0  0  0  0
  189.5730  177.9900  142.7260 C   0  0  0  0  0  2  0  0  0  0  0  0
  189.2990  176.7690  143.6080 C   0  0  1  0  0  3  0  0  0  0  0  0
  190.0860  176.8120  144.7660 O   0  0  0  0  0  0  0  0  0  0  0  0
  189.2390  176.6340  145.7600 O   0  0  0  0  0  0  0  0  0  0  0  0
  189.9340  177.0460  146.8990 C   0  0  0  0  0  2  0  0  0  0  0  0
  191.8970  175.6550  147.4680 C   0  0  0  0  0  1  0  0  0  0  0  0
  191.4200  176.8560  146.6790 C   0  0  0  0  0  2  0  0  0  0  0  0
  187.8240  176.6630  143.9700 C   0  0  0  0  0  2  0  0  0  0  0  0
  186.9970  177.6120  143.1200 C   0  0  0  0  0  2  0  0  0  0  0  0
  185.7160  177.9850  143.8440 C   0  0  0  0  0  2  0  0  0  0  0  0
  185.9710  178.1160  145.3330 C   0  0  0  0  0  2  0  0  0  0  0  0
  183.4880  179.0650  144.7600 S   0  0  0  0  0  1  0  0  0  0  0  0
  184.7260  178.6420  146.0150 C   0  0  0  0  0  2  0  0  0  0  0  0
  1  4  1  0  0  0  0
  2  1  2  0  0  0  0
  3  7  2  0  0  0  0
  4  7  1  0  0  0  0
  5  3  1  0  0  0  0
  6  5  2  0  0  0  0
  6  1  1  0  0  0  0
  7 20  1  0  0  0  0
  8  5  1  0  0  0  0
 10 11  2  0  0  0  0
 11  9  2  0  0  0  0
 11  8  1  0  0  0  0
 12 11  1  0  0  0  0
 12 13  1  0  0  0  0
 13 14  1  6  0  0  0
 13 16  1  0  0  0  0
 14 15  1  0  0  0  0
 16 17  1  0  0  0  0
 17 19  1  0  0  0  0
 17 18  1  0  0  0  0
 19 18  1  0  0  0  0
 21 20  1  1  0  0  0
 21 27  1  0  0  0  0
 21 22  1  0  0  0  0
 22 23  1  0  0  0  0
 23 24  1  0  0  0  0
 26 24  1  0  0  0  0
 26 25  1  0  0  0  0
 28 29  1  0  0  0  0
 28 27  1  0  0  0  0
 29 30  1  0  0  0  0
 30 32  1  0  0  0  0
 31 32  1  0  0  0  0
M  END
>  <MODEL>
1

>  <REMARK>
 VINA RESULT:      -6.3      0.000      0.000
  Name = 
  18 active torsions:
  status: ('A' for Active; 'I' for Inactive)
    1  A    between atoms: C_1  and  O_30
    2  A    between atoms: N_2  and  C_5
    3  A    between atoms: N_2  and  S_27
    4  A    between atoms: C_5  and  C_14
    5  A    between atoms: C_5  and  O_30
    6  A    between atoms: C_6  and  C_17
    7  A    between atoms: C_6  and  C_31
    8  A    between atoms: C_7  and  C_26
    9  A    between atoms: C_7  and  C_31
   10  A    between atoms: O_9  and  C_31
   11  A    between atoms: O_9  and  O_32
   12  A    between atoms: C_12  and  C_28
   13  A    between atoms: C_12  and  O_32
   14  A    between atoms: C_16  and  C_20
   15  A    between atoms: C_16  and  S_27
   16  A    between atoms: C_17  and  C_29
   17  A    between atoms: C_18  and  C_25
   18  A    between atoms: C_18  and  C_29
                            x       y       z     vdW  Elec       q    Type
                         _______ _______ _______ _____ _____    ______ ____

>  <TORSDO>
F 18

$$$$
=
 OpenBabel10262421203D

 32 33  0  0  1  0  0  0  0  0999 V2000
  184.5570  178.8570  144.4650 C   0  0  0  0  0  0  0  0  0  0  0  0
  183.6970  179.1940  145.3200 O   0  0  0  0  0  0  0  0  0  0  0  0
  186.3870  178.0480  142.4930 C   0  0  0  0  0  3  0  0  0  0  0  0
  185.7700  178.0820  144.9000 C   0  0  0  0  0  2  0  0  0  0  0  0
  185.2210  178.8860  142.1700 C   0  0  0  0  0  0  0  0  0  0  0  0
  184.3800  179.2350  143.0950 N   0  0  0  0  0  0  0  0  0  0  0  0
  186.6300  177.6470  143.7430 C   0  0  0  0  0  0  0  0  0  0  0  0
  184.9700  179.2930  140.7590 C   0  0  0  0  0  2  0  0  0  0  0  0
  183.8420  178.0950  138.6250 O   0  0  0  0  0  0  0  0  0  0  0  0
  183.4210  177.0990  140.8210 O   0  0  0  0  0  0  0  0  0  0  0  0
  183.5850  178.3960  140.0750 S   0  0  0  0  0  0  0  0  0  0  0  0
  182.1400  179.3400  140.2150 N   0  0  0  0  0  2  0  0  0  0  0  0
  181.1700  178.5610  140.9820 C   0  0  2  0  0  3  0  0  0  0  0  0
  179.9650  178.1690  140.1300 C   0  0  0  0  0  2  0  0  0  0  0  0
  180.2800  177.0620  139.3420 O   0  0  0  0  0  1  0  0  0  0  0  0
  180.8050  179.2080  142.1850 O   0  0  0  0  0  0  0  0  0  0  0  0
  179.6910  178.5550  142.7380 C   0  0  0  0  0  3  0  0  0  0  0  0
  179.9600  178.2590  144.2000 C   0  0  0  0  0  2  0  0  0  0  0  0
  179.0860  179.4310  143.8170 C   0  0  0  0  0  2  0  0  0  0  0  0
  187.8230  176.7880  144.0240 C   0  0  0  0  0  2  0  0  0  0  0  0
  189.1490  177.5360  143.8710 C   0  0  1  0  0  3  0  0  0  0  0  0
  189.6090  177.9810  145.1170 O   0  0  0  0  0  0  0  0  0  0  0  0
  189.9690  176.8880  145.7580 O   0  0  0  0  0  0  0  0  0  0  0  0
  189.9180  177.2330  147.1090 C   0  0  0  0  0  2  0  0  0  0  0  0
  188.2150  178.0480  148.7050 C   0  0  0  0  0  1  0  0  0  0  0  0
  188.5120  177.0240  147.6310 C   0  0  0  0  0  2  0  0  0  0  0  0
  190.2020  176.6710  143.1930 C   0  0  0  0  0  2  0  0  0  0  0  0
  190.7230  177.3500  141.9390 C   0  0  0  0  0  2  0  0  0  0  0  0
  189.9110  176.9190  140.7310 C   0  0  0  0  0  2  0  0  0  0  0  0
  189.1260  178.0930  140.1780 C   0  0  0  0  0  2  0  0  0  0  0  0
  188.9720  178.6540  137.5210 S   0  0  0  0  0  1  0  0  0  0  0  0
  188.3920  177.6650  138.9260 C   0  0  0  0  0  2  0  0  0  0  0  0
  1  4  1  0  0  0  0
  1  2  2  0  0  0  0
  3  7  2  0  0  0  0
  5  3  1  0  0  0  0
  5  6  2  0  0  0  0
  6  1  1  0  0  0  0
  7 20  1  0  0  0  0
  7  4  1  0  0  0  0
  8  5  1  0  0  0  0
  9 11  2  0  0  0  0
 11 12  1  0  0  0  0
 11  8  1  0  0  0  0
 11 10  2  0  0  0  0
 12 13  1  0  0  0  0
 13 14  1  6  0  0  0
 13 16  1  0  0  0  0
 15 14  1  0  0  0  0
 16 17  1  0  0  0  0
 17 19  1  0  0  0  0
 17 18  1  0  0  0  0
 19 18  1  0  0  0  0
 21 27  1  1  0  0  0
 21 20  1  0  0  0  0
 21 22  1  0  0  0  0
 22 23  1  0  0  0  0
 23 24  1  0  0  0  0
 24 26  1  0  0  0  0
 26 25  1  0  0  0  0
 28 27  1  0  0  0  0
 29 28  1  0  0  0  0
 30 29  1  0  0  0  0
 31 32  1  0  0  0  0
 32 30  1  0  0  0  0
M  END
>  <MODEL>
2

>  <REMARK>
 VINA RESULT:      -6.2      3.518      5.973
  Name = 
  18 active torsions:
  status: ('A' for Active; 'I' for Inactive)
    1  A    between atoms: C_1  and  O_30
    2  A    between atoms: N_2  and  C_5
    3  A    between atoms: N_2  and  S_27
    4  A    between atoms: C_5  and  C_14
    5  A    between atoms: C_5  and  O_30
    6  A    between atoms: C_6  and  C_17
    7  A    between atoms: C_6  and  C_31
    8  A    between atoms: C_7  and  C_26
    9  A    between atoms: C_7  and  C_31
   10  A    between atoms: O_9  and  C_31
   11  A    between atoms: O_9  and  O_32
   12  A    between atoms: C_12  and  C_28
   13  A    between atoms: C_12  and  O_32
   14  A    between atoms: C_16  and  C_20
   15  A    between atoms: C_16  and  S_27
   16  A    between atoms: C_17  and  C_29
   17  A    between atoms: C_18  and  C_25
   18  A    between atoms: C_18  and  C_29
                            x       y       z     vdW  Elec       q    Type
                         _______ _______ _______ _____ _____    ______ ____

>  <TORSDO>
F 18

$$$$
=
 OpenBabel10262421203D

 32 33  0  0  1  0  0  0  0  0999 V2000
  183.2500  178.9530  143.7730 C   0  0  0  0  0  0  0  0  0  0  0  0
  182.5400  179.2840  144.7580 O   0  0  0  0  0  0  0  0  0  0  0  0
  184.7650  178.1130  141.5620 C   0  0  0  0  0  3  0  0  0  0  0  0
  184.7330  178.7870  143.9550 C   0  0  0  0  0  2  0  0  0  0  0  0
  183.3230  178.3880  141.4540 C   0  0  0  0  0  0  0  0  0  0  0  0
  182.6400  178.7610  142.4930 N   0  0  0  0  0  0  0  0  0  0  0  0
  185.4160  178.2630  142.7180 C   0  0  0  0  0  0  0  0  0  0  0  0
  182.6270  178.1840  140.1520 C   0  0  0  0  0  2  0  0  0  0  0  0
  182.7840  178.8990  137.5590 O   0  0  0  0  0  0  0  0  0  0  0  0
  184.1830  180.1290  139.1470 O   0  0  0  0  0  0  0  0  0  0  0  0
  183.6280  178.7750  138.7970 S   0  0  0  0  0  0  0  0  0  0  0  0
  184.9260  177.6700  138.4930 N   0  0  0  0  0  2  0  0  0  0  0  0
  185.7290  178.2130  137.3990 C   0  0  2  0  0  3  0  0  0  0  0  0
  185.9650  177.1720  136.3070 C   0  0  0  0  0  2  0  0  0  0  0  0
  186.4450  177.7930  135.1540 O   0  0  0  0  0  1  0  0  0  0  0  0
  186.9260  178.8040  137.8630 O   0  0  0  0  0  0  0  0  0  0  0  0
  187.7590  177.8020  138.3880 C   0  0  0  0  0  3  0  0  0  0  0  0
  189.2050  178.2380  138.2630 C   0  0  0  0  0  2  0  0  0  0  0  0
  188.4960  178.3500  139.5940 C   0  0  0  0  0  2  0  0  0  0  0  0
  186.8810  177.9630  142.7840 C   0  0  0  0  0  2  0  0  0  0  0  0
  187.2540  177.0500  143.9550 C   0  0  1  0  0  3  0  0  0  0  0  0
  188.0970  176.0180  143.5250 O   0  0  0  0  0  0  0  0  0  0  0  0
  188.8550  176.5630  142.5940 O   0  0  0  0  0  0  0  0  0  0  0  0
  190.1230  176.0170  142.8010 C   0  0  0  0  0  2  0  0  0  0  0  0
  191.1270  178.2120  143.3340 C   0  0  0  0  0  1  0  0  0  0  0  0
  191.1780  177.0250  142.3960 C   0  0  0  0  0  2  0  0  0  0  0  0
  187.9040  177.8330  145.0870 C   0  0  0  0  0  2  0  0  0  0  0  0
  187.1780  177.5800  146.3960 C   0  0  0  0  0  2  0  0  0  0  0  0
  188.1540  177.6270  147.5570 C   0  0  0  0  0  2  0  0  0  0  0  0
  189.5820  177.6390  147.0450 C   0  0  0  0  0  2  0  0  0  0  0  0
  191.8440  176.2220  146.5260 S   0  0  0  0  0  1  0  0  0  0  0  0
  190.2550  176.3290  147.3920 C   0  0  0  0  0  2  0  0  0  0  0  0
  1  4  1  0  0  0  0
  1  2  2  0  0  0  0
  3  7  2  0  0  0  0
  5  3  1  0  0  0  0
  5  6  2  0  0  0  0
  6  1  1  0  0  0  0
  7 20  1  0  0  0  0
  7  4  1  0  0  0  0
  8  5  1  0  0  0  0
  9 11  2  0  0  0  0
 11 10  2  0  0  0  0
 11  8  1  0  0  0  0
 12 11  1  0  0  0  0
 13 14  1  6  0  0  0
 13 16  1  0  0  0  0
 13 12  1  0  0  0  0
 15 14  1  0  0  0  0
 16 17  1  0  0  0  0
 17 19  1  0  0  0  0
 18 17  1  0  0  0  0
 18 19  1  0  0  0  0
 21 20  1  6  0  0  0
 21 27  1  0  0  0  0
 22 21  1  0  0  0  0
 23 24  1  0  0  0  0
 23 22  1  0  0  0  0
 26 24  1  0  0  0  0
 26 25  1  0  0  0  0
 27 28  1  0  0  0  0
 28 29  1  0  0  0  0
 30 32  1  0  0  0  0
 30 29  1  0  0  0  0
 31 32  1  0  0  0  0
M  END
>  <MODEL>
3

>  <REMARK>
 VINA RESULT:      -6.0      3.141      5.554
  Name = 
  18 active torsions:
  status: ('A' for Active; 'I' for Inactive)
    1  A    between atoms: C_1  and  O_30
    2  A    between atoms: N_2  and  C_5
    3  A    between atoms: N_2  and  S_27
    4  A    between atoms: C_5  and  C_14
    5  A    between atoms: C_5  and  O_30
    6  A    between atoms: C_6  and  C_17
    7  A    between atoms: C_6  and  C_31
    8  A    between atoms: C_7  and  C_26
    9  A    between atoms: C_7  and  C_31
   10  A    between atoms: O_9  and  C_31
   11  A    between atoms: O_9  and  O_32
   12  A    between atoms: C_12  and  C_28
   13  A    between atoms: C_12  and  O_32
   14  A    between atoms: C_16  and  C_20
   15  A    between atoms: C_16  and  S_27
   16  A    between atoms: C_17  and  C_29
   17  A    between atoms: C_18  and  C_25
   18  A    between atoms: C_18  and  C_29
                            x       y       z     vdW  Elec       q    Type
                         _______ _______ _______ _____ _____    ______ ____

>  <TORSDO>
F 18

$$$$
=
 OpenBabel10262421203D

 32 33  0  0  1  0  0  0  0  0999 V2000
  185.9230  178.8860  141.1370 C   0  0  0  0  0  0  0  0  0  0  0  0
  184.8240  179.4160  140.8280 O   0  0  0  0  0  0  0  0  0  0  0  0
  188.3630  177.6290  141.7310 C   0  0  0  0  0  3  0  0  0  0  0  0
  186.1050  178.3130  142.5150 C   0  0  0  0  0  2  0  0  0  0  0  0
  188.1300  178.2970  140.4400 C   0  0  0  0  0  0  0  0  0  0  0  0
  186.9890  178.8580  140.1820 N   0  0  0  0  0  0  0  0  0  0  0  0
  187.4240  177.6040  142.6800 C   0  0  0  0  0  0  0  0  0  0  0  0
  189.1940  178.2820  139.3960 C   0  0  0  0  0  2  0  0  0  0  0  0
  187.4250  176.7640  138.0440 O   0  0  0  0  0  0  0  0  0  0  0  0
  187.9780  178.9520  137.0960 O   0  0  0  0  0  0  0  0  0  0  0  0
  188.5320  177.7570  137.8230 S   0  0  0  0  0  0  0  0  0  0  0  0
  189.7780  177.0180  136.8730 N   0  0  0  0  0  2  0  0  0  0  0  0
  190.0250  175.6840  137.4190 C   0  0  2  0  0  3  0  0  0  0  0  0
  191.4010  175.5920  138.0730 C   0  0  0  0  0  2  0  0  0  0  0  0
  192.0910  176.7910  137.8990 O   0  0  0  0  0  1  0  0  0  0  0  0
  189.8040  174.6710  136.4580 O   0  0  0  0  0  0  0  0  0  0  0  0
  188.8840  173.7420  136.9730 C   0  0  0  0  0  3  0  0  0  0  0  0
  187.6600  173.7050  136.0810 C   0  0  0  0  0  2  0  0  0  0  0  0
  188.7040  172.6160  135.9750 C   0  0  0  0  0  2  0  0  0  0  0  0
  187.7020  176.9050  143.9740 C   0  0  0  0  0  2  0  0  0  0  0  0
  187.9010  177.8700  145.1460 C   0  0  1  0  0  3  0  0  0  0  0  0
  187.3320  177.3470  146.3150 O   0  0  0  0  0  0  0  0  0  0  0  0
  186.0380  177.3000  146.0720 O   0  0  0  0  0  0  0  0  0  0  0  0
  185.6050  178.6220  146.1780 C   0  0  0  0  0  2  0  0  0  0  0  0
  183.7930  179.3460  144.6600 C   0  0  0  0  0  1  0  0  0  0  0  0
  184.1050  178.6800  145.9830 C   0  0  0  0  0  2  0  0  0  0  0  0
  189.3740  178.1850  145.3650 C   0  0  0  0  0  2  0  0  0  0  0  0
  190.0620  177.0400  146.0840 C   0  0  0  0  0  2  0  0  0  0  0  0
  191.4470  176.8100  145.5050 C   0  0  0  0  0  2  0  0  0  0  0  0
  191.5950  177.5470  144.1870 C   0  0  0  0  0  2  0  0  0  0  0  0
  192.0710  177.4040  141.5140 S   0  0  0  0  0  1  0  0  0  0  0  0
  191.6320  176.5480  143.0510 C   0  0  0  0  0  2  0  0  0  0  0  0
  1  4  1  0  0  0  0
  2  1  2  0  0  0  0
  3  7  2  0  0  0  0
  4  7  1  0  0  0  0
  5  3  1  0  0  0  0
  6  5  2  0  0  0  0
  6  1  1  0  0  0  0
  7 20  1  0  0  0  0
  8  5  1  0  0  0  0
 10 11  2  0  0  0  0
 11  9  2  0  0  0  0
 11  8  1  0  0  0  0
 12 13  1  0  0  0  0
 12 11  1  0  0  0  0
 13 14  1  6  0  0  0
 15 14  1  0  0  0  0
 16 17  1  0  0  0  0
 16 13  1  0  0  0  0
 18 17  1  0  0  0  0
 19 18  1  0  0  0  0
 19 17  1  0  0  0  0
 21 20  1  6  0  0  0
 21 27  1  0  0  0  0
 21 22  1  0  0  0  0
 23 24  1  0  0  0  0
 23 22  1  0  0  0  0
 25 26  1  0  0  0  0
 26 24  1  0  0  0  0
 27 28  1  0  0  0  0
 29 28  1  0  0  0  0
 30 29  1  0  0  0  0
 31 32  1  0  0  0  0
 32 30  1  0  0  0  0
M  END
>  <MODEL>
4

>  <REMARK>
 VINA RESULT:      -5.9      2.590      5.577
  Name = 
  18 active torsions:
  status: ('A' for Active; 'I' for Inactive)
    1  A    between atoms: C_1  and  O_30
    2  A    between atoms: N_2  and  C_5
    3  A    between atoms: N_2  and  S_27
    4  A    between atoms: C_5  and  C_14
    5  A    between atoms: C_5  and  O_30
    6  A    between atoms: C_6  and  C_17
    7  A    between atoms: C_6  and  C_31
    8  A    between atoms: C_7  and  C_26
    9  A    between atoms: C_7  and  C_31
   10  A    between atoms: O_9  and  C_31
   11  A    between atoms: O_9  and  O_32
   12  A    between atoms: C_12  and  C_28
   13  A    between atoms: C_12  and  O_32
   14  A    between atoms: C_16  and  C_20
   15  A    between atoms: C_16  and  S_27
   16  A    between atoms: C_17  and  C_29
   17  A    between atoms: C_18  and  C_25
   18  A    between atoms: C_18  and  C_29
                            x       y       z     vdW  Elec       q    Type
                         _______ _______ _______ _____ _____    ______ ____

>  <TORSDO>
F 18

$$$$
=
 OpenBabel10262421203D

 32 33  0  0  1  0  0  0  0  0999 V2000
  181.9530  179.0530  143.0570 C   0  0  0  0  0  0  0  0  0  0  0  0
  180.7880  179.3860  143.3980 O   0  0  0  0  0  0  0  0  0  0  0  0
  184.5070  178.1990  142.2610 C   0  0  0  0  0  3  0  0  0  0  0  0
  183.0680  179.1270  144.0620 C   0  0  0  0  0  2  0  0  0  0  0  0
  183.3780  178.2470  141.3180 C   0  0  0  0  0  0  0  0  0  0  0  0
  182.2020  178.6310  141.7120 N   0  0  0  0  0  0  0  0  0  0  0  0
  184.3650  178.5720  143.5350 C   0  0  0  0  0  0  0  0  0  0  0  0
  183.5700  177.7990  139.9100 C   0  0  0  0  0  2  0  0  0  0  0  0
  184.3070  180.2140  138.9690 O   0  0  0  0  0  0  0  0  0  0  0  0
  186.0670  178.7880  139.8980 O   0  0  0  0  0  0  0  0  0  0  0  0
  184.8000  178.7990  139.0870 S   0  0  0  0  0  0  0  0  0  0  0  0
  185.1120  178.1700  137.5030 N   0  0  0  0  0  2  0  0  0  0  0  0
  186.5080  177.7410  137.4600 C   0  0  2  0  0  3  0  0  0  0  0  0
  187.3350  178.6130  136.5190 C   0  0  0  0  0  2  0  0  0  0  0  0
  188.2010  179.4200  137.2570 O   0  0  0  0  0  1  0  0  0  0  0  0
  186.6290  176.3610  137.1770 O   0  0  0  0  0  0  0  0  0  0  0  0
  187.7840  176.1490  136.4060 C   0  0  0  0  0  3  0  0  0  0  0  0
  188.4760  174.8870  136.8780 C   0  0  0  0  0  2  0  0  0  0  0  0
  187.6310  174.8600  135.6250 C   0  0  0  0  0  2  0  0  0  0  0  0
  185.5390  178.4980  144.4610 C   0  0  0  0  0  2  0  0  0  0  0  0
  186.6360  177.5530  143.9630 C   0  0  1  0  0  3  0  0  0  0  0  0
  187.4180  178.1800  142.9840 O   0  0  0  0  0  0  0  0  0  0  0  0
  188.6450  177.7540  143.2040 O   0  0  0  0  0  0  0  0  0  0  0  0
  189.2800  177.8380  141.9640 C   0  0  0  0  0  2  0  0  0  0  0  0
  191.3770  177.3290  140.7590 C   0  0  0  0  0  1  0  0  0  0  0  0
  190.5580  177.0270  141.9950 C   0  0  0  0  0  2  0  0  0  0  0  0
  187.5090  177.0610  145.1090 C   0  0  0  0  0  2  0  0  0  0  0  0
  186.9450  177.5170  146.4420 C   0  0  0  0  0  2  0  0  0  0  0  0
  188.0720  177.8340  147.4090 C   0  0  0  0  0  2  0  0  0  0  0  0
  189.4070  177.8030  146.6900 C   0  0  0  0  0  2  0  0  0  0  0  0
  191.7000  176.4150  146.2290 S   0  0  0  0  0  1  0  0  0  0  0  0
  190.2990  176.7590  147.3270 C   0  0  0  0  0  2  0  0  0  0  0  0
  1  2  2  0  0  0  0
  1  4  1  0  0  0  0
  3  7  2  0  0  0  0
  5  6  2  0  0  0  0
  5  3  1  0  0  0  0
  6  1  1  0  0  0  0
  7  4  1  0  0  0  0
  7 20  1  0  0  0  0
  8  5  1  0  0  0  0
  9 11  2  0  0  0  0
 11 10  2  0  0  0  0
 11  8  1  0  0  0  0
 12 11  1  0  0  0  0
 13 14  1  6  0  0  0
 13 12  1  0  0  0  0
 14 15  1  0  0  0  0
 16 13  1  0  0  0  0
 17 18  1  0  0  0  0
 17 16  1  0  0  0  0
 19 17  1  0  0  0  0
 19 18  1  0  0  0  0
 21 20  1  1  0  0  0
 21 27  1  0  0  0  0
 22 23  1  0  0  0  0
 22 21  1  0  0  0  0
 24 26  1  0  0  0  0
 24 23  1  0  0  0  0
 25 26  1  0  0  0  0
 27 28  1  0  0  0  0
 28 29  1  0  0  0  0
 30 32  1  0  0  0  0
 30 29  1  0  0  0  0
 31 32  1  0  0  0  0
M  END
>  <MODEL>
5

>  <REMARK>
 VINA RESULT:      -5.9      3.082      6.006
  Name = 
  18 active torsions:
  status: ('A' for Active; 'I' for Inactive)
    1  A    between atoms: C_1  and  O_30
    2  A    between atoms: N_2  and  C_5
    3  A    between atoms: N_2  and  S_27
    4  A    between atoms: C_5  and  C_14
    5  A    between atoms: C_5  and  O_30
    6  A    between atoms: C_6  and  C_17
    7  A    between atoms: C_6  and  C_31
    8  A    between atoms: C_7  and  C_26
    9  A    between atoms: C_7  and  C_31
   10  A    between atoms: O_9  and  C_31
   11  A    between atoms: O_9  and  O_32
   12  A    between atoms: C_12  and  C_28
   13  A    between atoms: C_12  and  O_32
   14  A    between atoms: C_16  and  C_20
   15  A    between atoms: C_16  and  S_27
   16  A    between atoms: C_17  and  C_29
   17  A    between atoms: C_18  and  C_25
   18  A    between atoms: C_18  and  C_29
                            x       y       z     vdW  Elec       q    Type
                         _______ _______ _______ _____ _____    ______ ____

>  <TORSDO>
F 18

$$$$
=
 OpenBabel10262421203D

 32 33  0  0  1  0  0  0  0  0999 V2000
  187.2340  177.9590  146.4700 C   0  0  0  0  0  0  0  0  0  0  0  0
  187.6800  178.0500  147.6440 O   0  0  0  0  0  0  0  0  0  0  0  0
  186.3500  177.7920  143.8090 C   0  0  0  0  0  3  0  0  0  0  0  0
  186.0080  178.7370  146.0830 C   0  0  0  0  0  2  0  0  0  0  0  0
  187.4870  176.9950  144.2990 C   0  0  0  0  0  0  0  0  0  0  0  0
  187.8870  177.1000  145.5290 N   0  0  0  0  0  0  0  0  0  0  0  0
  185.6840  178.6210  144.6160 C   0  0  0  0  0  0  0  0  0  0  0  0
  188.2220  176.0990  143.3620 C   0  0  0  0  0  2  0  0  0  0  0  0
  189.7290  178.3090  143.0330 O   0  0  0  0  0  0  0  0  0  0  0  0
  190.8610  176.2870  143.8240 O   0  0  0  0  0  0  0  0  0  0  0  0
  189.7930  176.8120  142.9030 S   0  0  0  0  0  0  0  0  0  0  0  0
  190.1760  176.3990  141.2650 N   0  0  0  0  0  2  0  0  0  0  0  0
  189.9730  177.5920  140.4440 C   0  0  2  0  0  3  0  0  0  0  0  0
  188.5440  177.6690  139.9120 C   0  0  0  0  0  2  0  0  0  0  0  0
  188.4350  178.7130  138.9930 O   0  0  0  0  0  1  0  0  0  0  0  0
  190.9460  177.7040  139.4250 O   0  0  0  0  0  0  0  0  0  0  0  0
  191.2180  176.4270  138.9060 C   0  0  0  0  0  3  0  0  0  0  0  0
  191.1430  176.4750  137.3940 C   0  0  0  0  0  2  0  0  0  0  0  0
  192.4890  176.4850  138.0830 C   0  0  0  0  0  2  0  0  0  0  0  0
  184.5400  179.4180  144.0720 C   0  0  0  0  0  2  0  0  0  0  0  0
  183.4250  178.5470  143.4880 C   0  0  1  0  0  3  0  0  0  0  0  0
  182.2690  178.6350  144.2740 O   0  0  0  0  0  0  0  0  0  0  0  0
  181.3880  179.2540  143.5150 O   0  0  0  0  0  0  0  0  0  0  0  0
  180.1460  178.8560  144.0120 C   0  0  0  0  0  2  0  0  0  0  0  0
  179.6540  177.9250  141.7760 C   0  0  0  0  0  1  0  0  0  0  0  0
  179.1380  178.8190  142.8830 C   0  0  0  0  0  2  0  0  0  0  0  0
  183.1200  178.9250  142.0460 C   0  0  0  0  0  2  0  0  0  0  0  0
  183.8830  178.0300  141.0860 C   0  0  0  0  0  2  0  0  0  0  0  0
  184.8970  178.8440  140.3030 C   0  0  0  0  0  2  0  0  0  0  0  0
  184.8410  178.4800  138.8310 C   0  0  0  0  0  2  0  0  0  0  0  0
  182.3990  178.2900  137.6500 S   0  0  0  0  0  1  0  0  0  0  0  0
  183.7210  177.4890  138.5980 C   0  0  0  0  0  2  0  0  0  0  0  0
  1  2  2  0  0  0  0
  3  5  1  0  0  0  0
  3  7  2  0  0  0  0
  4  1  1  0  0  0  0
  5  6  2  0  0  0  0
  6  1  1  0  0  0  0
  7  4  1  0  0  0  0
  8  5  1  0  0  0  0
 11  9  2  0  0  0  0
 11  8  1  0  0  0  0
 11 10  2  0  0  0  0
 12 11  1  0  0  0  0
 13 14  1  6  0  0  0
 13 12  1  0  0  0  0
 15 14  1  0  0  0  0
 16 13  1  0  0  0  0
 17 16  1  0  0  0  0
 18 19  1  0  0  0  0
 18 17  1  0  0  0  0
 19 17  1  0  0  0  0
 20  7  1  0  0  0  0
 21 27  1  6  0  0  0
 21 20  1  0  0  0  0
 21 22  1  0  0  0  0
 23 24  1  0  0  0  0
 23 22  1  0  0  0  0
 25 26  1  0  0  0  0
 26 24  1  0  0  0  0
 28 27  1  0  0  0  0
 29 28  1  0  0  0  0
 30 29  1  0  0  0  0
 31 32  1  0  0  0  0
 32 30  1  0  0  0  0
M  END
>  <MODEL>
6

>  <REMARK>
 VINA RESULT:      -5.9      3.468      7.372
  Name = 
  18 active torsions:
  status: ('A' for Active; 'I' for Inactive)
    1  A    between atoms: C_1  and  O_30
    2  A    between atoms: N_2  and  C_5
    3  A    between atoms: N_2  and  S_27
    4  A    between atoms: C_5  and  C_14
    5  A    between atoms: C_5  and  O_30
    6  A    between atoms: C_6  and  C_17
    7  A    between atoms: C_6  and  C_31
    8  A    between atoms: C_7  and  C_26
    9  A    between atoms: C_7  and  C_31
   10  A    between atoms: O_9  and  C_31
   11  A    between atoms: O_9  and  O_32
   12  A    between atoms: C_12  and  C_28
   13  A    between atoms: C_12  and  O_32
   14  A    between atoms: C_16  and  C_20
   15  A    between atoms: C_16  and  S_27
   16  A    between atoms: C_17  and  C_29
   17  A    between atoms: C_18  and  C_25
   18  A    between atoms: C_18  and  C_29
                            x       y       z     vdW  Elec       q    Type
                         _______ _______ _______ _____ _____    ______ ____

>  <TORSDO>
F 18

$$$$
=
 OpenBabel10262421203D

 32 33  0  0  1  0  0  0  0  0999 V2000
  191.7270  176.8960  139.1310 C   0  0  0  0  0  0  0  0  0  0  0  0
  192.8900  176.7320  138.6790 O   0  0  0  0  0  0  0  0  0  0  0  0
  189.1100  177.3450  140.0500 C   0  0  0  0  0  3  0  0  0  0  0  0
  191.5410  177.2950  140.5680 C   0  0  0  0  0  2  0  0  0  0  0  0
  189.3800  176.8650  138.6850 C   0  0  0  0  0  0  0  0  0  0  0  0
  190.5980  176.6780  138.2770 N   0  0  0  0  0  0  0  0  0  0  0  0
  190.1030  177.5760  140.9130 C   0  0  0  0  0  0  0  0  0  0  0  0
  188.2480  176.6410  137.7410 C   0  0  0  0  0  2  0  0  0  0  0  0
  188.3490  179.3120  137.3980 O   0  0  0  0  0  0  0  0  0  0  0  0
  186.6930  178.0760  136.0860 O   0  0  0  0  0  0  0  0  0  0  0  0
  187.3760  178.1670  137.4240 S   0  0  0  0  0  0  0  0  0  0  0  0
  186.2000  178.4460  138.6650 N   0  0  0  0  0  2  0  0  0  0  0  0
  184.8760  178.2410  138.0800 C   0  0  2  0  0  3  0  0  0  0  0  0
  183.8560  179.2280  138.6440 C   0  0  0  0  0  2  0  0  0  0  0  0
  184.4840  180.1140  139.5180 O   0  0  0  0  0  1  0  0  0  0  0  0
  184.4550  176.8960  138.1840 O   0  0  0  0  0  0  0  0  0  0  0  0
  183.0590  176.8620  138.3360 C   0  0  0  0  0  3  0  0  0  0  0  0
  182.4560  176.0080  137.2400 C   0  0  0  0  0  2  0  0  0  0  0  0
  182.6250  175.4400  138.6310 C   0  0  0  0  0  2  0  0  0  0  0  0
  189.7820  178.0730  142.2880 C   0  0  0  0  0  2  0  0  0  0  0  0
  189.8080  176.9670  143.3460 C   0  0  1  0  0  3  0  0  0  0  0  0
  190.4630  177.4100  144.5040 O   0  0  0  0  0  0  0  0  0  0  0  0
  191.0880  176.3470  144.9680 O   0  0  0  0  0  0  0  0  0  0  0  0
  191.6200  176.7530  146.1930 C   0  0  0  0  0  2  0  0  0  0  0  0
  189.8810  177.5120  147.7780 C   0  0  0  0  0  1  0  0  0  0  0  0
  190.6950  176.3230  147.3120 C   0  0  0  0  0  2  0  0  0  0  0  0
  188.4040  176.4830  143.6800 C   0  0  0  0  0  2  0  0  0  0  0  0
  187.8510  177.2350  144.8770 C   0  0  0  0  0  2  0  0  0  0  0  0
  186.4970  177.8330  144.5430 C   0  0  0  0  0  2  0  0  0  0  0  0
  186.0500  178.7750  145.6440 C   0  0  0  0  0  2  0  0  0  0  0  0
  183.6620  179.0410  144.3720 S   0  0  0  0  0  1  0  0  0  0  0  0
  184.5650  178.6070  145.8830 C   0  0  0  0  0  2  0  0  0  0  0  0
  1  4  1  0  0  0  0
  2  1  2  0  0  0  0
  3  7  2  0  0  0  0
  4  7  1  0  0  0  0
  5  3  1  0  0  0  0
  6  5  2  0  0  0  0
  6  1  1  0  0  0  0
  7 20  1  0  0  0  0
  8  5  1  0  0  0  0
  9 11  2  0  0  0  0
 10 11  2  0  0  0  0
 11  8  1  0  0  0  0
 11 12  1  0  0  0  0
 13 16  1  0  0  0  0
 13 14  1  1  0  0  0
 13 12  1  0  0  0  0
 14 15  1  0  0  0  0
 16 17  1  0  0  0  0
 17 19  1  0  0  0  0
 18 17  1  0  0  0  0
 18 19  1  0  0  0  0
 21 20  1  6  0  0  0
 21 27  1  0  0  0  0
 21 22  1  0  0  0  0
 22 23  1  0  0  0  0
 23 24  1  0  0  0  0
 24 26  1  0  0  0  0
 26 25  1  0  0  0  0
 27 28  1  0  0  0  0
 29 28  1  0  0  0  0
 29 30  1  0  0  0  0
 30 32  1  0  0  0  0
 31 32  1  0  0  0  0
M  END
>  <MODEL>
7

>  <REMARK>
 VINA RESULT:      -5.8      1.407      2.098
  Name = 
  18 active torsions:
  status: ('A' for Active; 'I' for Inactive)
    1  A    between atoms: C_1  and  O_30
    2  A    between atoms: N_2  and  C_5
    3  A    between atoms: N_2  and  S_27
    4  A    between atoms: C_5  and  C_14
    5  A    between atoms: C_5  and  O_30
    6  A    between atoms: C_6  and  C_17
    7  A    between atoms: C_6  and  C_31
    8  A    between atoms: C_7  and  C_26
    9  A    between atoms: C_7  and  C_31
   10  A    between atoms: O_9  and  C_31
   11  A    between atoms: O_9  and  O_32
   12  A    between atoms: C_12  and  C_28
   13  A    between atoms: C_12  and  O_32
   14  A    between atoms: C_16  and  C_20
   15  A    between atoms: C_16  and  S_27
   16  A    between atoms: C_17  and  C_29
   17  A    between atoms: C_18  and  C_25
   18  A    between atoms: C_18  and  C_29
                            x       y       z     vdW  Elec       q    Type
                         _______ _______ _______ _____ _____    ______ ____

>  <TORSDO>
F 18

$$$$
=
 OpenBabel10262421203D

 32 33  0  0  1  0  0  0  0  0999 V2000
  192.0740  177.5070  140.7500 C   0  0  0  0  0  0  0  0  0  0  0  0
  193.0920  177.3330  140.0300 O   0  0  0  0  0  0  0  0  0  0  0  0
  189.8440  177.8070  142.4320 C   0  0  0  0  0  3  0  0  0  0  0  0
  190.7060  177.3900  140.1380 C   0  0  0  0  0  2  0  0  0  0  0  0
  191.2180  177.9940  142.9260 C   0  0  0  0  0  0  0  0  0  0  0  0
  192.2340  177.8360  142.1340 N   0  0  0  0  0  0  0  0  0  0  0  0
  189.6010  177.4960  141.1560 C   0  0  0  0  0  0  0  0  0  0  0  0
  191.4500  178.3160  144.3620 C   0  0  0  0  0  2  0  0  0  0  0  0
  191.9180  175.6810  144.6780 O   0  0  0  0  0  0  0  0  0  0  0  0
  191.9900  177.0800  146.6860 O   0  0  0  0  0  0  0  0  0  0  0  0
  191.2870  176.8540  145.3750 S   0  0  0  0  0  0  0  0  0  0  0  0
  189.6120  176.5150  145.6590 N   0  0  0  0  0  2  0  0  0  0  0  0
  189.0100  177.7050  146.2580 C   0  0  2  0  0  3  0  0  0  0  0  0
  188.5970  177.4560  147.7060 C   0  0  0  0  0  2  0  0  0  0  0  0
  189.3330  178.2790  148.5580 O   0  0  0  0  0  1  0  0  0  0  0  0
  187.9570  178.2190  145.4670 O   0  0  0  0  0  0  0  0  0  0  0  0
  186.7300  177.8110  146.0140 C   0  0  0  0  0  3  0  0  0  0  0  0
  185.7800  178.9910  146.0480 C   0  0  0  0  0  2  0  0  0  0  0  0
  185.6470  177.9470  144.9620 C   0  0  0  0  0  2  0  0  0  0  0  0
  188.1890  177.3050  140.6990 C   0  0  0  0  0  2  0  0  0  0  0  0
  187.4460  178.6260  140.4800 C   0  0  1  0  0  3  0  0  0  0  0  0
  186.7430  178.5990  139.2690 O   0  0  0  0  0  0  0  0  0  0  0  0
  187.2240  177.5590  138.6190 O   0  0  0  0  0  0  0  0  0  0  0  0
  187.0150  177.8530  137.2700 C   0  0  0  0  0  2  0  0  0  0  0  0
  189.4100  178.1210  136.7200 C   0  0  0  0  0  1  0  0  0  0  0  0
  188.0740  178.8270  136.7960 C   0  0  0  0  0  2  0  0  0  0  0  0
  186.5040  178.9340  141.6360 C   0  0  0  0  0  2  0  0  0  0  0  0
  185.0960  179.1780  141.1260 C   0  0  0  0  0  2  0  0  0  0  0  0
  184.2390  177.9430  141.3340 C   0  0  0  0  0  2  0  0  0  0  0  0
  182.9250  178.0810  140.5890 C   0  0  0  0  0  2  0  0  0  0  0  0
  180.8580  176.7680  139.4070 S   0  0  0  0  0  1  0  0  0  0  0  0
  182.6080  176.7840  139.8770 C   0  0  0  0  0  2  0  0  0  0  0  0
  1  6  1  0  0  0  0
  2  1  2  0  0  0  0
  3  5  1  0  0  0  0
  4  1  1  0  0  0  0
  4  7  1  0  0  0  0
  5  8  1  0  0  0  0
  6  5  2  0  0  0  0
  7  3  2  0  0  0  0
  8 11  1  0  0  0  0
  9 11  2  0  0  0  0
 11 12  1  0  0  0  0
 11 10  2  0  0  0  0
 12 13  1  0  0  0  0
 13 14  1  1  0  0  0
 14 15  1  0  0  0  0
 16 17  1  0  0  0  0
 16 13  1  0  0  0  0
 17 18  1  0  0  0  0
 19 17  1  0  0  0  0
 19 18  1  0  0  0  0
 20  7  1  0  0  0  0
 21 20  1  1  0  0  0
 21 27  1  0  0  0  0
 22 21  1  0  0  0  0
 23 22  1  0  0  0  0
 24 23  1  0  0  0  0
 25 26  1  0  0  0  0
 26 24  1  0  0  0  0
 28 29  1  0  0  0  0
 28 27  1  0  0  0  0
 30 29  1  0  0  0  0
 31 32  1  0  0  0  0
 32 30  1  0  0  0  0
M  END
>  <MODEL>
8

>  <REMARK>
 VINA RESULT:      -5.8      3.014      7.146
  Name = 
  18 active torsions:
  status: ('A' for Active; 'I' for Inactive)
    1  A    between atoms: C_1  and  O_30
    2  A    between atoms: N_2  and  C_5
    3  A    between atoms: N_2  and  S_27
    4  A    between atoms: C_5  and  C_14
    5  A    between atoms: C_5  and  O_30
    6  A    between atoms: C_6  and  C_17
    7  A    between atoms: C_6  and  C_31
    8  A    between atoms: C_7  and  C_26
    9  A    between atoms: C_7  and  C_31
   10  A    between atoms: O_9  and  C_31
   11  A    between atoms: O_9  and  O_32
   12  A    between atoms: C_12  and  C_28
   13  A    between atoms: C_12  and  O_32
   14  A    between atoms: C_16  and  C_20
   15  A    between atoms: C_16  and  S_27
   16  A    between atoms: C_17  and  C_29
   17  A    between atoms: C_18  and  C_25
   18  A    between atoms: C_18  and  C_29
                            x       y       z     vdW  Elec       q    Type
                         _______ _______ _______ _____ _____    ______ ____

>  <TORSDO>
F 18

$$$$
=
 OpenBabel10262421203D

 32 33  0  0  1  0  0  0  0  0999 V2000
  191.3440  177.4020  140.8330 C   0  0  0  0  0  0  0  0  0  0  0  0
  192.5900  177.5680  140.7640 O   0  0  0  0  0  0  0  0  0  0  0  0
  188.5490  177.1520  140.9570 C   0  0  0  0  0  3  0  0  0  0  0  0
  190.7390  176.8540  142.0950 C   0  0  0  0  0  2  0  0  0  0  0  0
  189.2340  177.5940  139.7310 C   0  0  0  0  0  0  0  0  0  0  0  0
  190.5260  177.7160  139.7010 N   0  0  0  0  0  0  0  0  0  0  0  0
  189.2340  176.8410  142.0610 C   0  0  0  0  0  0  0  0  0  0  0  0
  188.4340  177.9570  138.5270 C   0  0  0  0  0  2  0  0  0  0  0  0
  187.4060  176.5950  136.4410 O   0  0  0  0  0  0  0  0  0  0  0  0
  189.7550  177.2690  136.2900 O   0  0  0  0  0  0  0  0  0  0  0  0
  188.6820  176.7670  137.2180 S   0  0  0  0  0  0  0  0  0  0  0  0
  189.1520  175.2400  137.8860 N   0  0  0  0  0  2  0  0  0  0  0  0
  190.3300  174.7760  137.1560 C   0  0  2  0  0  3  0  0  0  0  0  0
  190.0660  173.4490  136.4500 C   0  0  0  0  0  2  0  0  0  0  0  0
  188.6950  173.1940  136.4140 O   0  0  0  0  0  1  0  0  0  0  0  0
  191.4820  174.7430  137.9760 O   0  0  0  0  0  0  0  0  0  0  0  0
  192.6170  174.9770  137.1830 C   0  0  0  0  0  3  0  0  0  0  0  0
  193.1370  176.3740  137.4540 C   0  0  0  0  0  2  0  0  0  0  0  0
  193.8190  175.1800  138.0830 C   0  0  0  0  0  2  0  0  0  0  0  0
  188.4950  176.4050  143.2880 C   0  0  0  0  0  2  0  0  0  0  0  0
  187.8170  177.5650  144.0220 C   0  0  1  0  0  3  0  0  0  0  0  0
  186.5790  177.1630  144.5380 O   0  0  0  0  0  0  0  0  0  0  0  0
  185.8790  178.2740  144.6490 O   0  0  0  0  0  0  0  0  0  0  0  0
  185.4020  178.5250  143.3610 C   0  0  0  0  0  2  0  0  0  0  0  0
  183.3780  178.9660  144.7110 C   0  0  0  0  0  1  0  0  0  0  0  0
  183.8880  178.4890  143.3680 C   0  0  0  0  0  2  0  0  0  0  0  0
  188.7030  178.1160  145.1310 C   0  0  0  0  0  2  0  0  0  0  0  0
  188.6460  177.2190  146.3540 C   0  0  0  0  0  2  0  0  0  0  0  0
  190.0450  176.9690  146.8890 C   0  0  0  0  0  2  0  0  0  0  0  0
  191.0680  177.1180  145.7800 C   0  0  0  0  0  2  0  0  0  0  0  0
  192.2680  175.4940  147.6010 S   0  0  0  0  0  1  0  0  0  0  0  0
  192.0770  175.9940  145.8690 C   0  0  0  0  0  2  0  0  0  0  0  0
  1  4  1  0  0  0  0
  2  1  2  0  0  0  0
  3  7  2  0  0  0  0
  5  3  1  0  0  0  0
  6  5  2  0  0  0  0
  6  1  1  0  0  0  0
  7  4  1  0  0  0  0
  7 20  1  0  0  0  0
  8  5  1  0  0  0  0
  9 11  2  0  0  0  0
 10 11  2  0  0  0  0
 11 12  1  0  0  0  0
 11  8  1  0  0  0  0
 13 14  1  1  0  0  0
 13 12  1  0  0  0  0
 13 16  1  0  0  0  0
 15 14  1  0  0  0  0
 17 18  1  0  0  0  0
 17 16  1  0  0  0  0
 17 19  1  0  0  0  0
 18 19  1  0  0  0  0
 21 20  1  1  0  0  0
 21 22  1  0  0  0  0
 21 27  1  0  0  0  0
 22 23  1  0  0  0  0
 24 26  1  0  0  0  0
 24 23  1  0  0  0  0
 26 25  1  0  0  0  0
 27 28  1  0  0  0  0
 28 29  1  0  0  0  0
 30 32  1  0  0  0  0
 30 29  1  0  0  0  0
 32 31  1  0  0  0  0
M  END
>  <MODEL>
9

>  <REMARK>
 VINA RESULT:      -5.8      2.785      5.370
  Name = 
  18 active torsions:
  status: ('A' for Active; 'I' for Inactive)
    1  A    between atoms: C_1  and  O_30
    2  A    between atoms: N_2  and  C_5
    3  A    between atoms: N_2  and  S_27
    4  A    between atoms: C_5  and  C_14
    5  A    between atoms: C_5  and  O_30
    6  A    between atoms: C_6  and  C_17
    7  A    between atoms: C_6  and  C_31
    8  A    between atoms: C_7  and  C_26
    9  A    between atoms: C_7  and  C_31
   10  A    between atoms: O_9  and  C_31
   11  A    between atoms: O_9  and  O_32
   12  A    between atoms: C_12  and  C_28
   13  A    between atoms: C_12  and  O_32
   14  A    between atoms: C_16  and  C_20
   15  A    between atoms: C_16  and  S_27
   16  A    between atoms: C_17  and  C_29
   17  A    between atoms: C_18  and  C_25
   18  A    between atoms: C_18  and  C_29
                            x       y       z     vdW  Elec       q    Type
                         _______ _______ _______ _____ _____    ______ ____

>  <TORSDO>
F 18

$$$$
