=
 OpenBabel10252414593D

 34 39  0  0  1  0  0  0  0  0999 V2000
  186.0250  178.2950  145.7600 C   0  0  0  0  0  0  0  0  0  0  0  0
  187.6030  177.2460  144.2410 C   0  0  0  0  0  0  0  0  0  0  0  0
  185.4290  178.2310  143.3820 C   0  0  0  0  0  0  0  0  0  0  0  0
  184.7460  178.5110  141.0720 C   0  0  0  0  0  0  0  0  0  0  0  0
  188.2000  177.6120  146.5640 C   0  0  0  0  0  3  0  0  0  0  0  0
  188.5130  177.1340  145.2950 C   0  0  0  0  0  3  0  0  0  0  0  0
  186.9930  178.2830  141.4660 N   0  0  0  0  0  0  0  0  0  0  0  0
  186.3710  177.9390  144.4260 C   0  0  0  0  0  0  0  0  0  0  0  0
  188.1170  178.4410  139.2970 N   0  0  0  0  0  2  0  0  0  0  0  0
  185.3850  178.6280  139.5250 S   0  0  0  0  0  0  0  0  0  0  0  0
  186.9460  178.1640  146.8000 C   0  0  0  0  0  3  0  0  0  0  0  0
  184.0860  178.5840  143.7390 C   0  0  0  0  0  0  0  0  0  0  0  0
  184.7460  178.7400  146.0700 C   0  0  0  0  0  3  0  0  0  0  0  0
  187.9080  176.5650  143.0710 O   0  0  0  0  0  1  0  0  0  0  0  0
  183.4600  178.7220  141.4170 N   0  0  0  0  0  0  0  0  0  0  0  0
  183.0900  178.7560  142.7290 C   0  0  0  0  0  0  0  0  0  0  0  0
  186.9530  178.4300  140.1190 C   0  0  0  0  0  0  0  0  0  0  0  0
  185.7450  178.2910  142.0030 C   0  0  0  0  0  0  0  0  0  0  0  0
  183.7830  178.8510  145.0780 C   0  0  0  0  0  3  0  0  0  0  0  0
  179.6080  180.2890  142.7190 C   0  0  0  0  0  0  0  0  0  0  0  0
  178.9720  179.5160  143.6930 C   0  0  0  0  0  3  0  0  0  0  0  0
  181.6580  179.0130  143.0300 C   0  0  0  0  0  0  0  0  0  0  0  0
  179.6740  178.4990  144.3440 C   0  0  0  0  0  3  0  0  0  0  0  0
  180.9450  180.0420  142.3940 C   0  0  0  0  0  3  0  0  0  0  0  0
  181.0100  178.2530  144.0170 C   0  0  0  0  0  3  0  0  0  0  0  0
  178.9310  181.2800  142.0920 F   0  0  0  0  0  0  0  0  0  0  0  0
  189.4470  178.2740  139.8580 C   0  0  0  0  0  2  0  0  0  0  0  0
  192.0210  177.1860  140.6950 F   0  0  0  0  0  0  0  0  0  0  0  0
  190.1590  177.1140  139.1820 C   0  0  2  0  0  3  0  0  0  0  0  0
  191.6820  177.2260  139.3540 C   0  0  2  0  0  3  0  0  0  0  0  0
  192.1550  176.3780  137.3120 C   0  0  0  0  0  2  0  0  0  0  0  0
  190.6950  176.1470  136.9270 C   0  0  0  0  0  2  0  0  0  0  0  0
  189.8230  177.1370  137.6920 C   0  0  0  0  0  2  0  0  0  0  0  0
  192.3220  176.1610  138.6910 O   0  0  0  0  0  0  0  0  0  0  0  0
  1 13  1  0  0  0  0
  1 11  2  0  0  0  0
  2  8  2  0  0  0  0
  2  6  1  0  0  0  0
  3 12  1  0  0  0  0
  3  8  1  0  0  0  0
  4 15  2  0  0  0  0
  4 18  1  0  0  0  0
  5 11  1  0  0  0  0
  6  5  2  0  0  0  0
  7 18  1  0  0  0  0
  8  1  1  0  0  0  0
  9 27  1  0  0  0  0
  9 17  1  0  0  0  0
 10 17  1  0  0  0  0
 10  4  1  0  0  0  0
 12 19  1  0  0  0  0
 14  2  1  0  0  0  0
 15 16  1  0  0  0  0
 16 22  1  0  0  0  0
 16 12  2  0  0  0  0
 17  7  2  0  0  0  0
 18  3  2  0  0  0  0
 19 13  2  0  0  0  0
 20 21  1  0  0  0  0
 21 23  2  0  0  0  0
 22 25  2  0  0  0  0
 24 20  2  0  0  0  0
 24 22  1  0  0  0  0
 25 23  1  0  0  0  0
 26 20  1  0  0  0  0
 29 30  1  0  0  0  0
 29 27  1  1  0  0  0
 30 28  1  1  0  0  0
 31 34  1  0  0  0  0
 32 31  1  0  0  0  0
 32 33  1  0  0  0  0
 33 29  1  0  0  0  0
 34 30  1  0  0  0  0
M  END
>  <MODEL>
1

>  <REMARK>
 VINA RESULT:     -10.9      0.000      0.000
  Name = 
  3 active torsions:
  status: ('A' for Active; 'I' for Inactive)
    1  A    between atoms: C_3  and  C_13
    2  A    between atoms: C_3  and  N_17
    3  A    between atoms: C_12  and  C_28
                            x       y       z     vdW  Elec       q    Type
                         _______ _______ _______ _____ _____    ______ ____

>  <TORSDO>
F 3

$$$$
=
 OpenBabel10252414593D

 34 39  0  0  1  0  0  0  0  0999 V2000
  185.1480  178.1840  144.1940 C   0  0  0  0  0  0  0  0  0  0  0  0
  185.1640  179.1560  141.9700 C   0  0  0  0  0  0  0  0  0  0  0  0
  187.2370  178.0440  142.9190 C   0  0  0  0  0  0  0  0  0  0  0  0
  189.3150  177.5650  141.7640 C   0  0  0  0  0  0  0  0  0  0  0  0
  183.0890  178.9910  143.2160 C   0  0  0  0  0  3  0  0  0  0  0  0
  183.7890  179.3770  142.0760 C   0  0  0  0  0  3  0  0  0  0  0  0
  187.4580  177.8880  140.4600 N   0  0  0  0  0  0  0  0  0  0  0  0
  185.8600  178.4450  142.9900 C   0  0  0  0  0  0  0  0  0  0  0  0
  188.1610  177.5940  138.1330 N   0  0  0  0  0  2  0  0  0  0  0  0
  189.9310  177.3460  140.2190 S   0  0  0  0  0  0  0  0  0  0  0  0
  183.7750  178.4230  144.2830 C   0  0  0  0  0  3  0  0  0  0  0  0
  187.9170  177.6810  144.1280 C   0  0  0  0  0  0  0  0  0  0  0  0
  185.8070  177.7270  145.3290 C   0  0  0  0  0  3  0  0  0  0  0  0
  185.8160  179.7530  140.8990 O   0  0  0  0  0  1  0  0  0  0  0  0
  189.9730  177.3440  142.9200 N   0  0  0  0  0  0  0  0  0  0  0  0
  189.3180  177.4010  144.1130 C   0  0  0  0  0  0  0  0  0  0  0  0
  188.4160  177.6350  139.5350 C   0  0  0  0  0  0  0  0  0  0  0  0
  187.9700  177.8860  141.7180 C   0  0  0  0  0  0  0  0  0  0  0  0
  187.1760  177.5100  145.3020 C   0  0  0  0  0  3  0  0  0  0  0  0
  190.5350  177.4420  147.7180 C   0  0  0  0  0  0  0  0  0  0  0  0
  191.6810  176.6500  147.6230 C   0  0  0  0  0  3  0  0  0  0  0  0
  190.1080  177.1270  145.3420 C   0  0  0  0  0  0  0  0  0  0  0  0
  192.0510  176.1040  146.3920 C   0  0  0  0  0  3  0  0  0  0  0  0
  189.7560  177.6840  146.5830 C   0  0  0  0  0  3  0  0  0  0  0  0
  191.2710  176.3450  145.2580 C   0  0  0  0  0  3  0  0  0  0  0  0
  190.1790  177.9790  148.9100 F   0  0  0  0  0  0  0  0  0  0  0  0
  186.8350  177.8440  137.5930 C   0  0  0  0  0  2  0  0  0  0  0  0
  184.0510  177.3540  136.8750 F   0  0  0  0  0  0  0  0  0  0  0  0
  186.3350  176.6190  136.8460 C   0  0  2  0  0  3  0  0  0  0  0  0
  184.8780  176.3010  137.2190 C   0  0  2  0  0  3  0  0  0  0  0  0
  185.1490  174.0590  137.1000 C   0  0  0  0  0  2  0  0  0  0  0  0
  186.6180  174.1280  136.6880 C   0  0  0  0  0  2  0  0  0  0  0  0
  187.2160  175.4270  137.2180 C   0  0  0  0  0  2  0  0  0  0  0  0
  184.4480  175.1430  136.5430 O   0  0  0  0  0  0  0  0  0  0  0  0
  1 11  1  0  0  0  0
  1 13  1  0  0  0  0
  2  6  2  0  0  0  0
  2  8  1  0  0  0  0
  3  8  1  0  0  0  0
  3 12  1  0  0  0  0
  4 15  2  0  0  0  0
  5 11  2  0  0  0  0
  6  5  1  0  0  0  0
  7 18  1  0  0  0  0
  8  1  2  0  0  0  0
  9 17  1  0  0  0  0
 10  4  1  0  0  0  0
 12 19  1  0  0  0  0
 14  2  1  0  0  0  0
 15 16  1  0  0  0  0
 16 12  2  0  0  0  0
 16 22  1  0  0  0  0
 17 10  1  0  0  0  0
 17  7  2  0  0  0  0
 18  4  1  0  0  0  0
 18  3  2  0  0  0  0
 19 13  2  0  0  0  0
 20 26  1  0  0  0  0
 21 20  1  0  0  0  0
 22 24  1  0  0  0  0
 23 21  2  0  0  0  0
 24 20  2  0  0  0  0
 25 22  2  0  0  0  0
 25 23  1  0  0  0  0
 27  9  1  0  0  0  0
 29 33  1  0  0  0  0
 29 30  1  0  0  0  0
 29 27  1  1  0  0  0
 30 28  1  6  0  0  0
 32 31  1  0  0  0  0
 32 33  1  0  0  0  0
 34 31  1  0  0  0  0
 34 30  1  0  0  0  0
M  END
>  <MODEL>
2

>  <REMARK>
 VINA RESULT:     -10.3      3.527      6.872
  Name = 
  3 active torsions:
  status: ('A' for Active; 'I' for Inactive)
    1  A    between atoms: C_3  and  C_13
    2  A    between atoms: C_3  and  N_17
    3  A    between atoms: C_12  and  C_28
                            x       y       z     vdW  Elec       q    Type
                         _______ _______ _______ _____ _____    ______ ____

>  <TORSDO>
F 3

$$$$
=
 OpenBabel10252414593D

 34 39  0  0  1  0  0  0  0  0999 V2000
  184.9460  178.2360  144.0150 C   0  0  0  0  0  0  0  0  0  0  0  0
  185.0120  179.1690  141.7740 C   0  0  0  0  0  0  0  0  0  0  0  0
  187.0700  178.0960  142.7990 C   0  0  0  0  0  0  0  0  0  0  0  0
  189.1830  177.6190  141.7090 C   0  0  0  0  0  0  0  0  0  0  0  0
  182.9060  179.0030  142.9670 C   0  0  0  0  0  3  0  0  0  0  0  0
  183.6320  179.3770  141.8400 C   0  0  0  0  0  3  0  0  0  0  0  0
  187.3590  177.8990  140.3490 N   0  0  0  0  0  0  0  0  0  0  0  0
  185.6870  178.4830  142.8260 C   0  0  0  0  0  0  0  0  0  0  0  0
  188.1270  177.5710  138.0480 N   0  0  0  0  0  2  0  0  0  0  0  0
  189.8430  177.3790  140.1850 S   0  0  0  0  0  0  0  0  0  0  0  0
  183.5680  178.4620  144.0630 C   0  0  0  0  0  3  0  0  0  0  0  0
  187.7210  177.7630  144.0320 C   0  0  0  0  0  0  0  0  0  0  0  0
  185.5790  177.8070  145.1750 C   0  0  0  0  0  3  0  0  0  0  0  0
  185.6860  179.7530  140.7110 O   0  0  0  0  0  1  0  0  0  0  0  0
  189.8120  177.4260  142.8860 N   0  0  0  0  0  0  0  0  0  0  0  0
  189.1240  177.4980  144.0600 C   0  0  0  0  0  0  0  0  0  0  0  0
  188.3430  177.6400  139.4550 C   0  0  0  0  0  0  0  0  0  0  0  0
  187.8370  177.9250  141.6210 C   0  0  0  0  0  0  0  0  0  0  0  0
  186.9510  177.6050  145.1890 C   0  0  0  0  0  3  0  0  0  0  0  0
  191.7040  176.1930  146.5340 C   0  0  0  0  0  0  0  0  0  0  0  0
  191.2400  176.7540  147.7260 C   0  0  0  0  0  3  0  0  0  0  0  0
  189.8840  177.2550  145.3140 C   0  0  0  0  0  0  0  0  0  0  0  0
  190.0970  177.5560  147.7200 C   0  0  0  0  0  3  0  0  0  0  0  0
  191.0260  176.4370  145.3360 C   0  0  0  0  0  3  0  0  0  0  0  0
  189.4210  177.8010  146.5220 C   0  0  0  0  0  3  0  0  0  0  0  0
  192.8080  175.4090  146.5390 F   0  0  0  0  0  0  0  0  0  0  0  0
  186.8130  177.7960  137.4680 C   0  0  0  0  0  2  0  0  0  0  0  0
  184.0110  177.2060  136.9140 F   0  0  0  0  0  0  0  0  0  0  0  0
  186.3100  176.5270  136.8020 C   0  0  2  0  0  3  0  0  0  0  0  0
  184.8820  176.1900  137.2630 C   0  0  2  0  0  3  0  0  0  0  0  0
  185.2070  173.9530  137.2290 C   0  0  0  0  0  2  0  0  0  0  0  0
  186.6510  174.0390  136.7410 C   0  0  0  0  0  2  0  0  0  0  0  0
  187.2400  175.3750  137.1820 C   0  0  0  0  0  2  0  0  0  0  0  0
  184.4500  174.9930  136.6610 O   0  0  0  0  0  0  0  0  0  0  0  0
  1 11  1  0  0  0  0
  1 13  1  0  0  0  0
  2  6  2  0  0  0  0
  2  8  1  0  0  0  0
  3  8  1  0  0  0  0
  3 12  1  0  0  0  0
  4 15  2  0  0  0  0
  5 11  2  0  0  0  0
  6  5  1  0  0  0  0
  7 18  1  0  0  0  0
  8  1  2  0  0  0  0
  9 17  1  0  0  0  0
 10  4  1  0  0  0  0
 12 16  2  0  0  0  0
 12 19  1  0  0  0  0
 13 19  2  0  0  0  0
 14  2  1  0  0  0  0
 15 16  1  0  0  0  0
 16 22  1  0  0  0  0
 17 10  1  0  0  0  0
 17  7  2  0  0  0  0
 18  4  1  0  0  0  0
 18  3  2  0  0  0  0
 20 26  1  0  0  0  0
 20 21  1  0  0  0  0
 22 24  1  0  0  0  0
 22 25  2  0  0  0  0
 23 21  2  0  0  0  0
 24 20  2  0  0  0  0
 25 23  1  0  0  0  0
 27  9  1  0  0  0  0
 29 33  1  0  0  0  0
 29 30  1  0  0  0  0
 29 27  1  1  0  0  0
 30 28  1  6  0  0  0
 32 33  1  0  0  0  0
 32 31  1  0  0  0  0
 34 31  1  0  0  0  0
 34 30  1  0  0  0  0
M  END
>  <MODEL>
3

>  <REMARK>
 VINA RESULT:     -10.1      3.339      6.922
  Name = 
  3 active torsions:
  status: ('A' for Active; 'I' for Inactive)
    1  A    between atoms: C_3  and  C_13
    2  A    between atoms: C_3  and  N_17
    3  A    between atoms: C_12  and  C_28
                            x       y       z     vdW  Elec       q    Type
                         _______ _______ _______ _____ _____    ______ ____

>  <TORSDO>
F 3

$$$$
=
 OpenBabel10252414593D

 34 39  0  0  1  0  0  0  0  0999 V2000
  184.4070  178.7330  144.6680 C   0  0  0  0  0  0  0  0  0  0  0  0
  186.5760  177.7170  145.0690 C   0  0  0  0  0  0  0  0  0  0  0  0
  185.8470  178.3440  142.7220 C   0  0  0  0  0  0  0  0  0  0  0  0
  187.1830  178.2910  140.6980 C   0  0  0  0  0  0  0  0  0  0  0  0
  185.1810  178.3990  146.9340 C   0  0  0  0  0  3  0  0  0  0  0  0
  186.3510  177.8260  146.4440 C   0  0  0  0  0  3  0  0  0  0  0  0
  188.3210  178.3700  142.6860 N   0  0  0  0  0  0  0  0  0  0  0  0
  185.6490  178.2780  144.1420 C   0  0  0  0  0  0  0  0  0  0  0  0
  190.7070  178.4220  142.1410 N   0  0  0  0  0  2  0  0  0  0  0  0
  188.7800  178.3140  140.1850 S   0  0  0  0  0  0  0  0  0  0  0  0
  184.2000  178.8240  146.0460 C   0  0  0  0  0  3  0  0  0  0  0  0
  184.7140  178.5750  141.8740 C   0  0  0  0  0  0  0  0  0  0  0  0
  183.3520  179.0580  143.8250 C   0  0  0  0  0  3  0  0  0  0  0  0
  187.6630  176.9540  144.6680 O   0  0  0  0  0  1  0  0  0  0  0  0
  186.0940  178.3870  139.9080 N   0  0  0  0  0  0  0  0  0  0  0  0
  184.8520  178.5190  140.4530 C   0  0  0  0  0  0  0  0  0  0  0  0
  189.3290  178.3650  141.7810 C   0  0  0  0  0  0  0  0  0  0  0  0
  187.1080  178.2910  142.0790 C   0  0  0  0  0  0  0  0  0  0  0  0
  183.4950  178.9480  142.4490 C   0  0  0  0  0  3  0  0  0  0  0  0
  182.1420  179.9780  138.2140 C   0  0  0  0  0  0  0  0  0  0  0  0
  181.4730  178.8200  137.8130 C   0  0  0  0  0  3  0  0  0  0  0  0
  183.7030  178.6380  139.5170 C   0  0  0  0  0  0  0  0  0  0  0  0
  181.9070  177.5720  138.2660 C   0  0  0  0  0  3  0  0  0  0  0  0
  183.2470  179.8880  139.0660 C   0  0  0  0  0  3  0  0  0  0  0  0
  183.0130  177.4830  139.1170 C   0  0  0  0  0  3  0  0  0  0  0  0
  181.7180  181.1900  137.7820 F   0  0  0  0  0  0  0  0  0  0  0  0
  191.1290  178.4730  143.5300 C   0  0  0  0  0  2  0  0  0  0  0  0
  190.1430  178.0670  146.2450 F   0  0  0  0  0  0  0  0  0  0  0  0
  190.9330  177.1170  144.1870 C   0  0  2  0  0  3  0  0  0  0  0  0
  191.0940  177.2150  145.7130 C   0  0  2  0  0  3  0  0  0  0  0  0
  192.0650  175.1830  145.9190 C   0  0  0  0  0  2  0  0  0  0  0  0
  191.9860  174.8500  144.4310 C   0  0  0  0  0  2  0  0  0  0  0  0
  191.9810  176.1520  143.6370 C   0  0  0  0  0  2  0  0  0  0  0  0
  190.9430  175.9420  146.2970 O   0  0  0  0  0  0  0  0  0  0  0  0
  1 11  2  0  0  0  0
  2  6  1  0  0  0  0
  3  8  1  0  0  0  0
  4 18  2  0  0  0  0
  6  5  2  0  0  0  0
  8  1  1  0  0  0  0
  8  2  2  0  0  0  0
  9 27  1  0  0  0  0
 10  4  1  0  0  0  0
 10 17  1  0  0  0  0
 11  5  1  0  0  0  0
 12 19  1  0  0  0  0
 12  3  2  0  0  0  0
 13  1  1  0  0  0  0
 14  2  1  0  0  0  0
 15 16  2  0  0  0  0
 15  4  1  0  0  0  0
 16 12  1  0  0  0  0
 17  9  1  0  0  0  0
 17  7  2  0  0  0  0
 18  7  1  0  0  0  0
 18  3  1  0  0  0  0
 19 13  2  0  0  0  0
 20 24  1  0  0  0  0
 21 20  2  0  0  0  0
 21 23  1  0  0  0  0
 22 16  1  0  0  0  0
 23 25  2  0  0  0  0
 24 22  2  0  0  0  0
 25 22  1  0  0  0  0
 26 20  1  0  0  0  0
 29 27  1  6  0  0  0
 29 30  1  0  0  0  0
 30 28  1  1  0  0  0
 30 34  1  0  0  0  0
 31 34  1  0  0  0  0
 32 31  1  0  0  0  0
 33 29  1  0  0  0  0
 33 32  1  0  0  0  0
M  END
>  <MODEL>
4

>  <REMARK>
 VINA RESULT:      -9.8      3.160      4.439
  Name = 
  3 active torsions:
  status: ('A' for Active; 'I' for Inactive)
    1  A    between atoms: C_3  and  C_13
    2  A    between atoms: C_3  and  N_17
    3  A    between atoms: C_12  and  C_28
                            x       y       z     vdW  Elec       q    Type
                         _______ _______ _______ _____ _____    ______ ____

>  <TORSDO>
F 3

$$$$
=
 OpenBabel10252414593D

 34 39  0  0  1  0  0  0  0  0999 V2000
  183.4960  178.5560  142.1720 C   0  0  0  0  0  0  0  0  0  0  0  0
  183.9800  179.4200  139.9550 C   0  0  0  0  0  0  0  0  0  0  0  0
  185.8330  178.5160  141.4330 C   0  0  0  0  0  0  0  0  0  0  0  0
  188.1520  178.1420  140.8290 C   0  0  0  0  0  0  0  0  0  0  0  0
  181.6830  179.1560  140.6890 C   0  0  0  0  0  3  0  0  0  0  0  0
  182.6080  179.5410  139.7220 C   0  0  0  0  0  3  0  0  0  0  0  0
  186.6430  178.2610  139.1090 N   0  0  0  0  0  0  0  0  0  0  0  0
  184.4560  178.8130  141.1530 C   0  0  0  0  0  0  0  0  0  0  0  0
  187.8960  177.9110  137.0350 N   0  0  0  0  0  2  0  0  0  0  0  0
  189.1310  177.8980  139.4890 S   0  0  0  0  0  0  0  0  0  0  0  0
  182.1290  178.6930  141.9210 C   0  0  0  0  0  3  0  0  0  0  0  0
  186.2270  178.2630  142.7880 C   0  0  0  0  0  0  0  0  0  0  0  0
  183.8930  178.2050  143.4560 C   0  0  0  0  0  3  0  0  0  0  0  0
  184.8290  180.0130  139.0310 O   0  0  0  0  0  1  0  0  0  0  0  0
  188.5290  178.0270  142.1190 N   0  0  0  0  0  0  0  0  0  0  0  0
  187.6060  178.0910  143.1200 C   0  0  0  0  0  0  0  0  0  0  0  0
  187.8070  178.0380  138.4520 C   0  0  0  0  0  0  0  0  0  0  0  0
  186.8400  178.3570  140.4500 C   0  0  0  0  0  0  0  0  0  0  0  0
  185.2410  178.0930  143.7650 C   0  0  0  0  0  3  0  0  0  0  0  0
  189.8750  177.4750  146.1110 C   0  0  0  0  0  0  0  0  0  0  0  0
  188.9620  177.5690  147.1640 C   0  0  0  0  0  3  0  0  0  0  0  0
  188.0970  177.9370  144.5140 C   0  0  0  0  0  0  0  0  0  0  0  0
  187.6170  177.8360  146.8990 C   0  0  0  0  0  3  0  0  0  0  0  0
  189.4430  177.6520  144.7940 C   0  0  0  0  0  3  0  0  0  0  0  0
  187.1870  178.0140  145.5810 C   0  0  0  0  0  3  0  0  0  0  0  0
  191.1780  177.2090  146.3660 F   0  0  0  0  0  0  0  0  0  0  0  0
  186.7240  178.0330  136.1840 C   0  0  0  0  0  2  0  0  0  0  0  0
  184.0180  177.0810  136.7140 F   0  0  0  0  0  0  0  0  0  0  0  0
  186.2010  176.6550  135.8130 C   0  0  2  0  0  3  0  0  0  0  0  0
  185.0890  176.2090  136.7760 C   0  0  2  0  0  3  0  0  0  0  0  0
  185.6910  174.0290  136.7430 C   0  0  0  0  0  2  0  0  0  0  0  0
  186.8430  174.2280  135.7610 C   0  0  0  0  0  2  0  0  0  0  0  0
  187.3560  175.6590  135.8890 C   0  0  0  0  0  2  0  0  0  0  0  0
  184.6450  174.9170  136.4340 O   0  0  0  0  0  0  0  0  0  0  0  0
  1 13  1  0  0  0  0
  2  8  1  0  0  0  0
  3 12  1  0  0  0  0
  4 15  2  0  0  0  0
  5 11  2  0  0  0  0
  6  2  2  0  0  0  0
  6  5  1  0  0  0  0
  7 18  1  0  0  0  0
  8  3  1  0  0  0  0
  8  1  2  0  0  0  0
  9 17  1  0  0  0  0
 10  4  1  0  0  0  0
 11  1  1  0  0  0  0
 12 16  2  0  0  0  0
 12 19  1  0  0  0  0
 13 19  2  0  0  0  0
 14  2  1  0  0  0  0
 15 16  1  0  0  0  0
 16 22  1  0  0  0  0
 17  7  2  0  0  0  0
 17 10  1  0  0  0  0
 18  4  1  0  0  0  0
 18  3  2  0  0  0  0
 20 26  1  0  0  0  0
 20 21  1  0  0  0  0
 22 24  1  0  0  0  0
 22 25  2  0  0  0  0
 23 21  2  0  0  0  0
 24 20  2  0  0  0  0
 25 23  1  0  0  0  0
 27  9  1  0  0  0  0
 29 33  1  0  0  0  0
 29 27  1  1  0  0  0
 29 30  1  0  0  0  0
 30 28  1  6  0  0  0
 32 33  1  0  0  0  0
 32 31  1  0  0  0  0
 34 31  1  0  0  0  0
 34 30  1  0  0  0  0
M  END
>  <MODEL>
5

>  <REMARK>
 VINA RESULT:      -9.7      3.313      6.439
  Name = 
  3 active torsions:
  status: ('A' for Active; 'I' for Inactive)
    1  A    between atoms: C_3  and  C_13
    2  A    between atoms: C_3  and  N_17
    3  A    between atoms: C_12  and  C_28
                            x       y       z     vdW  Elec       q    Type
                         _______ _______ _______ _____ _____    ______ ____

>  <TORSDO>
F 3

$$$$
=
 OpenBabel10252414593D

 34 39  0  0  1  0  0  0  0  0999 V2000
  189.5590  177.2160  146.1360 C   0  0  0  0  0  0  0  0  0  0  0  0
  191.0720  176.1420  144.5710 C   0  0  0  0  0  0  0  0  0  0  0  0
  188.9550  177.2800  143.7610 C   0  0  0  0  0  0  0  0  0  0  0  0
  188.2840  177.6890  141.4660 C   0  0  0  0  0  0  0  0  0  0  0  0
  191.6940  176.3820  146.9030 C   0  0  0  0  0  3  0  0  0  0  0  0
  191.9780  175.9370  145.6150 C   0  0  0  0  0  3  0  0  0  0  0  0
  190.5150  177.3210  141.8410 N   0  0  0  0  0  0  0  0  0  0  0  0
  189.8810  176.8940  144.7880 C   0  0  0  0  0  0  0  0  0  0  0  0
  191.6420  177.5010  139.6750 N   0  0  0  0  0  2  0  0  0  0  0  0
  188.9250  177.8310  139.9220 S   0  0  0  0  0  0  0  0  0  0  0  0
  190.4740  176.9930  147.1670 C   0  0  0  0  0  3  0  0  0  0  0  0
  187.6350  177.6930  144.1370 C   0  0  0  0  0  0  0  0  0  0  0  0
  188.3080  177.7200  146.4700 C   0  0  0  0  0  3  0  0  0  0  0  0
  191.3360  175.4920  143.3730 O   0  0  0  0  0  1  0  0  0  0  0  0
  187.0120  177.9580  141.8250 N   0  0  0  0  0  0  0  0  0  0  0  0
  186.6480  177.9600  143.1390 C   0  0  0  0  0  0  0  0  0  0  0  0
  190.4810  177.5230  140.5020 C   0  0  0  0  0  0  0  0  0  0  0  0
  189.2710  177.3770  142.3840 C   0  0  0  0  0  0  0  0  0  0  0  0
  187.3510  177.9240  145.4870 C   0  0  0  0  0  3  0  0  0  0  0  0
  182.9200  178.6280  142.7790 C   0  0  0  0  0  0  0  0  0  0  0  0
  182.5840  178.9870  144.0860 C   0  0  0  0  0  3  0  0  0  0  0  0
  185.2330  178.2840  143.4560 C   0  0  0  0  0  0  0  0  0  0  0  0
  183.5670  179.0050  145.0780 C   0  0  0  0  0  3  0  0  0  0  0  0
  184.2380  178.2850  142.4650 C   0  0  0  0  0  3  0  0  0  0  0  0
  184.8840  178.6610  144.7630 C   0  0  0  0  0  3  0  0  0  0  0  0
  181.9690  178.6170  141.8140 F   0  0  0  0  0  0  0  0  0  0  0  0
  192.9620  177.2380  140.2230 C   0  0  0  0  0  2  0  0  0  0  0  0
  192.1730  176.7550  137.4570 F   0  0  0  0  0  0  0  0  0  0  0  0
  193.8530  176.6120  139.1640 C   0  0  2  0  0  3  0  0  0  0  0  0
  193.0180  175.8730  138.1050 C   0  0  2  0  0  3  0  0  0  0  0  0
  194.5310  174.2190  137.8080 C   0  0  0  0  0  2  0  0  0  0  0  0
  195.5390  174.7850  138.8050 C   0  0  0  0  0  2  0  0  0  0  0  0
  194.7900  175.6140  139.8430 C   0  0  0  0  0  2  0  0  0  0  0  0
  193.8660  175.2720  137.1550 O   0  0  0  0  0  0  0  0  0  0  0  0
  1 13  1  0  0  0  0
  1 11  2  0  0  0  0
  2  8  2  0  0  0  0
  2  6  1  0  0  0  0
  3 12  1  0  0  0  0
  3  8  1  0  0  0  0
  4 15  2  0  0  0  0
  4 18  1  0  0  0  0
  5 11  1  0  0  0  0
  6  5  2  0  0  0  0
  7 18  1  0  0  0  0
  8  1  1  0  0  0  0
  9 27  1  0  0  0  0
  9 17  1  0  0  0  0
 10 17  1  0  0  0  0
 10  4  1  0  0  0  0
 12 19  1  0  0  0  0
 14  2  1  0  0  0  0
 15 16  1  0  0  0  0
 16 22  1  0  0  0  0
 16 12  2  0  0  0  0
 17  7  2  0  0  0  0
 18  3  2  0  0  0  0
 19 13  2  0  0  0  0
 20 21  1  0  0  0  0
 21 23  2  0  0  0  0
 22 25  2  0  0  0  0
 24 20  2  0  0  0  0
 24 22  1  0  0  0  0
 25 23  1  0  0  0  0
 26 20  1  0  0  0  0
 29 33  1  0  0  0  0
 29 27  1  1  0  0  0
 30 28  1  6  0  0  0
 30 29  1  0  0  0  0
 31 32  1  0  0  0  0
 32 33  1  0  0  0  0
 34 31  1  0  0  0  0
 34 30  1  0  0  0  0
M  END
>  <MODEL>
6

>  <REMARK>
 VINA RESULT:      -9.7      2.441      3.756
  Name = 
  3 active torsions:
  status: ('A' for Active; 'I' for Inactive)
    1  A    between atoms: C_3  and  C_13
    2  A    between atoms: C_3  and  N_17
    3  A    between atoms: C_12  and  C_28
                            x       y       z     vdW  Elec       q    Type
                         _______ _______ _______ _____ _____    ______ ____

>  <TORSDO>
F 3

$$$$
=
 OpenBabel10252414593D

 34 39  0  0  1  0  0  0  0  0999 V2000
  187.4910  177.8740  145.5690 C   0  0  0  0  0  0  0  0  0  0  0  0
  189.0970  176.8200  144.0840 C   0  0  0  0  0  0  0  0  0  0  0  0
  186.9550  177.8300  143.1770 C   0  0  0  0  0  0  0  0  0  0  0  0
  186.3330  178.1300  140.8520 C   0  0  0  0  0  0  0  0  0  0  0  0
  189.6390  177.1670  146.4240 C   0  0  0  0  0  3  0  0  0  0  0  0
  189.9800  176.6930  145.1600 C   0  0  0  0  0  3  0  0  0  0  0  0
  188.5670  177.8800  141.3010 N   0  0  0  0  0  0  0  0  0  0  0  0
  187.8670  177.5230  144.2420 C   0  0  0  0  0  0  0  0  0  0  0  0
  189.7470  178.0400  139.1620 N   0  0  0  0  0  2  0  0  0  0  0  0
  187.0120  178.2500  139.3230 S   0  0  0  0  0  0  0  0  0  0  0  0
  188.3850  177.7280  146.6320 C   0  0  0  0  0  3  0  0  0  0  0  0
  185.6060  178.1920  143.5020 C   0  0  0  0  0  0  0  0  0  0  0  0
  186.2090  178.3290  145.8500 C   0  0  0  0  0  3  0  0  0  0  0  0
  189.4260  176.1430  142.9180 O   0  0  0  0  0  1  0  0  0  0  0  0
  185.0400  178.3500  141.1660 N   0  0  0  0  0  0  0  0  0  0  0  0
  184.6380  178.3800  142.4680 C   0  0  0  0  0  0  0  0  0  0  0  0
  188.5620  178.0350  139.9550 C   0  0  0  0  0  0  0  0  0  0  0  0
  187.3060  177.8950  141.8070 C   0  0  0  0  0  0  0  0  0  0  0  0
  185.2720  178.4540  144.8350 C   0  0  0  0  0  3  0  0  0  0  0  0
  180.9050  178.9210  141.9720 C   0  0  0  0  0  0  0  0  0  0  0  0
  180.5050  179.2430  143.2710 C   0  0  0  0  0  3  0  0  0  0  0  0
  183.2010  178.6470  142.7340 C   0  0  0  0  0  0  0  0  0  0  0  0
  181.4480  179.2780  144.3010 C   0  0  0  0  0  3  0  0  0  0  0  0
  182.2450  178.6310  141.7050 C   0  0  0  0  0  3  0  0  0  0  0  0
  182.7880  178.9870  144.0330 C   0  0  0  0  0  3  0  0  0  0  0  0
  179.9930  178.8930  140.9710 F   0  0  0  0  0  0  0  0  0  0  0  0
  191.0610  177.8580  139.7550 C   0  0  0  0  0  2  0  0  0  0  0  0
  193.8440  177.1290  140.2380 F   0  0  0  0  0  0  0  0  0  0  0  0
  191.7820  176.7010  139.0860 C   0  0  2  0  0  3  0  0  0  0  0  0
  193.2900  176.9770  138.9790 C   0  0  2  0  0  3  0  0  0  0  0  0
  193.5200  175.9440  136.9810 C   0  0  0  0  0  2  0  0  0  0  0  0
  192.0530  175.5300  136.8800 C   0  0  0  0  0  2  0  0  0  0  0  0
  191.2090  176.5160  137.6820 C   0  0  0  0  0  2  0  0  0  0  0  0
  193.9320  175.9080  138.3250 O   0  0  0  0  0  0  0  0  0  0  0  0
  1 13  1  0  0  0  0
  1 11  2  0  0  0  0
  2  8  2  0  0  0  0
  2  6  1  0  0  0  0
  3 12  1  0  0  0  0
  3  8  1  0  0  0  0
  4 15  2  0  0  0  0
  4 18  1  0  0  0  0
  5 11  1  0  0  0  0
  6  5  2  0  0  0  0
  7 18  1  0  0  0  0
  8  1  1  0  0  0  0
  9 27  1  0  0  0  0
  9 17  1  0  0  0  0
 10 17  1  0  0  0  0
 10  4  1  0  0  0  0
 12 19  1  0  0  0  0
 14  2  1  0  0  0  0
 15 16  1  0  0  0  0
 16 22  1  0  0  0  0
 16 12  2  0  0  0  0
 17  7  2  0  0  0  0
 18  3  2  0  0  0  0
 19 13  2  0  0  0  0
 20 21  1  0  0  0  0
 21 23  2  0  0  0  0
 22 25  2  0  0  0  0
 24 20  2  0  0  0  0
 24 22  1  0  0  0  0
 25 23  1  0  0  0  0
 26 20  1  0  0  0  0
 29 27  1  6  0  0  0
 30 29  1  0  0  0  0
 30 28  1  1  0  0  0
 31 34  1  0  0  0  0
 32 31  1  0  0  0  0
 32 33  1  0  0  0  0
 33 29  1  0  0  0  0
 34 30  1  0  0  0  0
M  END
>  <MODEL>
7

>  <REMARK>
 VINA RESULT:      -9.6      1.346      1.704
  Name = 
  3 active torsions:
  status: ('A' for Active; 'I' for Inactive)
    1  A    between atoms: C_3  and  C_13
    2  A    between atoms: C_3  and  N_17
    3  A    between atoms: C_12  and  C_28
                            x       y       z     vdW  Elec       q    Type
                         _______ _______ _______ _____ _____    ______ ____

>  <TORSDO>
F 3

$$$$
=
 OpenBabel10252414593D

 34 39  0  0  1  0  0  0  0  0999 V2000
  187.1200  177.5090  144.5860 C   0  0  0  0  0  0  0  0  0  0  0  0
  185.2190  178.9860  144.2720 C   0  0  0  0  0  0  0  0  0  0  0  0
  186.6160  178.2250  142.2960 C   0  0  0  0  0  0  0  0  0  0  0  0
  186.1640  178.5910  139.9410 C   0  0  0  0  0  0  0  0  0  0  0  0
  185.6520  177.9960  146.4440 C   0  0  0  0  0  3  0  0  0  0  0  0
  184.8920  178.8210  145.6210 C   0  0  0  0  0  3  0  0  0  0  0  0
  184.3830  178.7590  141.3740 N   0  0  0  0  0  0  0  0  0  0  0  0
  186.2840  178.2370  143.6930 C   0  0  0  0  0  0  0  0  0  0  0  0
  182.4120  179.2510  140.0070 N   0  0  0  0  0  2  0  0  0  0  0  0
  184.9020  178.9320  138.8900 S   0  0  0  0  0  0  0  0  0  0  0  0
  186.7810  177.3660  145.9330 C   0  0  0  0  0  3  0  0  0  0  0  0
  187.9070  177.7490  141.8940 C   0  0  0  0  0  0  0  0  0  0  0  0
  188.3200  176.9590  144.1520 C   0  0  0  0  0  3  0  0  0  0  0  0
  184.5410  179.9780  143.5770 O   0  0  0  0  0  1  0  0  0  0  0  0
  187.4220  178.2560  139.5890 N   0  0  0  0  0  0  0  0  0  0  0  0
  188.3180  177.8420  140.5290 C   0  0  0  0  0  0  0  0  0  0  0  0
  183.8050  178.9970  140.1720 C   0  0  0  0  0  0  0  0  0  0  0  0
  185.7220  178.5650  141.2520 C   0  0  0  0  0  0  0  0  0  0  0  0
  188.7210  177.1070  142.8320 C   0  0  0  0  0  3  0  0  0  0  0  0
  191.1620  176.3270  138.5050 C   0  0  0  0  0  0  0  0  0  0  0  0
  192.2690  176.7250  139.2580 C   0  0  0  0  0  3  0  0  0  0  0  0
  189.6800  177.4720  140.0600 C   0  0  0  0  0  0  0  0  0  0  0  0
  192.0880  177.4870  140.4140 C   0  0  0  0  0  3  0  0  0  0  0  0
  189.8750  176.6930  138.9080 C   0  0  0  0  0  3  0  0  0  0  0  0
  190.8000  177.8540  140.8150 C   0  0  0  0  0  3  0  0  0  0  0  0
  191.3360  175.5820  137.3870 F   0  0  0  0  0  0  0  0  0  0  0  0
  181.5060  179.2890  141.1430 C   0  0  0  0  0  2  0  0  0  0  0  0
  179.9570  177.8020  143.1170 F   0  0  0  0  0  0  0  0  0  0  0  0
  180.2490  178.4920  140.8370 C   0  0  2  0  0  3  0  0  0  0  0  0
  180.0810  177.3260  141.8250 C   0  0  2  0  0  3  0  0  0  0  0  0
  179.1980  175.9190  140.2900 C   0  0  0  0  0  2  0  0  0  0  0  0
  179.2410  176.9310  139.1470 C   0  0  0  0  0  2  0  0  0  0  0  0
  180.3590  177.9320  139.4200 C   0  0  0  0  0  2  0  0  0  0  0  0
  178.9310  176.5810  141.5010 O   0  0  0  0  0  0  0  0  0  0  0  0
  1 11  2  0  0  0  0
  2  6  1  0  0  0  0
  3  8  1  0  0  0  0
  4 18  1  0  0  0  0
  6  5  2  0  0  0  0
  8  2  2  0  0  0  0
  8  1  1  0  0  0  0
  9 17  1  0  0  0  0
  9 27  1  0  0  0  0
 10  4  1  0  0  0  0
 10 17  1  0  0  0  0
 11  5  1  0  0  0  0
 12  3  1  0  0  0  0
 12 19  1  0  0  0  0
 13  1  1  0  0  0  0
 14  2  1  0  0  0  0
 15  4  2  0  0  0  0
 15 16  1  0  0  0  0
 16 12  2  0  0  0  0
 17  7  2  0  0  0  0
 18  7  1  0  0  0  0
 18  3  2  0  0  0  0
 19 13  2  0  0  0  0
 20 24  2  0  0  0  0
 20 21  1  0  0  0  0
 21 23  2  0  0  0  0
 22 16  1  0  0  0  0
 22 25  2  0  0  0  0
 23 25  1  0  0  0  0
 24 22  1  0  0  0  0
 26 20  1  0  0  0  0
 29 27  1  1  0  0  0
 29 30  1  0  0  0  0
 30 28  1  1  0  0  0
 31 34  1  0  0  0  0
 32 33  1  0  0  0  0
 32 31  1  0  0  0  0
 33 29  1  0  0  0  0
 34 30  1  0  0  0  0
M  END
>  <MODEL>
8

>  <REMARK>
 VINA RESULT:      -9.4      2.660      8.281
  Name = 
  3 active torsions:
  status: ('A' for Active; 'I' for Inactive)
    1  A    between atoms: C_3  and  C_13
    2  A    between atoms: C_3  and  N_17
    3  A    between atoms: C_12  and  C_28
                            x       y       z     vdW  Elec       q    Type
                         _______ _______ _______ _____ _____    ______ ____

>  <TORSDO>
F 3

$$$$
=
 OpenBabel10252414593D

 34 39  0  0  1  0  0  0  0  0999 V2000
  187.7120  178.4330  139.6480 C   0  0  0  0  0  0  0  0  0  0  0  0
  185.7890  177.9040  138.2640 C   0  0  0  0  0  0  0  0  0  0  0  0
  185.5180  178.3800  140.7400 C   0  0  0  0  0  0  0  0  0  0  0  0
  183.4470  178.6320  141.9770 C   0  0  0  0  0  0  0  0  0  0  0  0
  187.9660  178.2530  137.2500 C   0  0  0  0  0  3  0  0  0  0  0  0
  186.6120  177.9500  137.1350 C   0  0  0  0  0  3  0  0  0  0  0  0
  183.3400  178.9370  139.7080 N   0  0  0  0  0  0  0  0  0  0  0  0
  186.3040  178.2600  139.5440 C   0  0  0  0  0  0  0  0  0  0  0  0
  181.0200  179.5060  139.1730 N   0  0  0  0  0  2  0  0  0  0  0  0
  181.8270  179.0030  141.7500 S   0  0  0  0  0  0  0  0  0  0  0  0
  188.5180  178.4650  138.5080 C   0  0  0  0  0  3  0  0  0  0  0  0
  186.1830  178.3680  142.0110 C   0  0  0  0  0  0  0  0  0  0  0  0
  188.3300  178.5300  140.8890 C   0  0  0  0  0  3  0  0  0  0  0  0
  184.5100  177.3950  138.0890 O   0  0  0  0  0  1  0  0  0  0  0  0
  184.0730  178.4990  143.1640 N   0  0  0  0  0  0  0  0  0  0  0  0
  185.4270  178.3560  143.2230 C   0  0  0  0  0  0  0  0  0  0  0  0
  182.0580  179.1570  140.0850 C   0  0  0  0  0  0  0  0  0  0  0  0
  184.1210  178.6040  140.7690 C   0  0  0  0  0  0  0  0  0  0  0  0
  187.5780  178.4660  142.0520 C   0  0  0  0  0  3  0  0  0  0  0  0
  187.7970  177.4120  146.0450 C   0  0  0  0  0  0  0  0  0  0  0  0
  187.1320  177.9550  147.1470 C   0  0  0  0  0  3  0  0  0  0  0  0
  186.0440  178.2340  144.5690 C   0  0  0  0  0  0  0  0  0  0  0  0
  185.9210  178.6280  146.9680 C   0  0  0  0  0  3  0  0  0  0  0  0
  187.2530  177.5460  144.7650 C   0  0  0  0  0  3  0  0  0  0  0  0
  185.3790  178.7620  145.6870 C   0  0  0  0  0  3  0  0  0  0  0  0
  188.9670  176.7520  146.2180 F   0  0  0  0  0  0  0  0  0  0  0  0
  181.2710  179.6340  137.7470 C   0  0  0  0  0  2  0  0  0  0  0  0
  180.2910  179.9160  135.0140 F   0  0  0  0  0  0  0  0  0  0  0  0
  180.5710  180.8670  137.2000 C   0  0  2  0  0  3  0  0  0  0  0  0
  180.8060  181.0090  135.6880 C   0  0  2  0  0  3  0  0  0  0  0  0
  180.8910  183.2680  135.7330 C   0  0  0  0  0  2  0  0  0  0  0  0
  180.6400  183.3770  137.2350 C   0  0  0  0  0  2  0  0  0  0  0  0
  181.1300  182.0990  137.9090 C   0  0  0  0  0  2  0  0  0  0  0  0
  180.1780  182.1760  135.2100 O   0  0  0  0  0  0  0  0  0  0  0  0
  1 13  1  0  0  0  0
  2  8  1  0  0  0  0
  3 18  2  0  0  0  0
  3 12  1  0  0  0  0
  4 15  2  0  0  0  0
  5 11  2  0  0  0  0
  6  5  1  0  0  0  0
  6  2  2  0  0  0  0
  7 17  2  0  0  0  0
  7 18  1  0  0  0  0
  8  1  2  0  0  0  0
  8  3  1  0  0  0  0
  9 17  1  0  0  0  0
 10  4  1  0  0  0  0
 11  1  1  0  0  0  0
 12 19  1  0  0  0  0
 12 16  2  0  0  0  0
 13 19  2  0  0  0  0
 14  2  1  0  0  0  0
 15 16  1  0  0  0  0
 16 22  1  0  0  0  0
 17 10  1  0  0  0  0
 18  4  1  0  0  0  0
 20 26  1  0  0  0  0
 20 21  1  0  0  0  0
 22 24  1  0  0  0  0
 22 25  2  0  0  0  0
 23 21  2  0  0  0  0
 24 20  2  0  0  0  0
 25 23  1  0  0  0  0
 27  9  1  0  0  0  0
 29 27  1  1  0  0  0
 29 33  1  0  0  0  0
 30 28  1  6  0  0  0
 30 29  1  0  0  0  0
 31 32  1  0  0  0  0
 32 33  1  0  0  0  0
 34 30  1  0  0  0  0
 34 31  1  0  0  0  0
M  END
>  <MODEL>
9

>  <REMARK>
 VINA RESULT:      -9.3      4.110      7.961
  Name = 
  3 active torsions:
  status: ('A' for Active; 'I' for Inactive)
    1  A    between atoms: C_3  and  C_13
    2  A    between atoms: C_3  and  N_17
    3  A    between atoms: C_12  and  C_28
                            x       y       z     vdW  Elec       q    Type
                         _______ _______ _______ _____ _____    ______ ____

>  <TORSDO>
F 3

$$$$
