=
 OpenBabel10262421163D

 32 35  0  0  1  0  0  0  0  0999 V2000
  187.4020  177.6400  145.5470 C   0  0  0  0  0  3  0  0  0  0  0  0
  189.8800  177.6010  143.7600 C   0  0  0  0  0  0  0  0  0  0  0  0
  187.7500  178.3090  146.6440 C   0  0  0  0  0  3  0  0  0  0  0  0
  190.0070  178.1770  145.0240 O   0  0  0  0  0  0  0  0  0  0  0  0
  190.6360  176.5420  143.4510 C   0  0  0  0  0  0  0  0  0  0  0  0
  188.8530  178.1420  142.7820 C   0  0  2  0  0  3  0  0  0  0  0  0
  190.4840  177.2030  141.1830 O   0  0  0  0  0  0  0  0  0  0  0  0
  190.4840  177.4150  146.0930 C   0  0  0  0  0  0  0  0  0  0  0  0
  190.6300  176.0820  142.0230 C   0  0  0  0  0  2  0  0  0  0  0  0
  191.2070  176.3620  145.8520 N   0  0  0  0  0  0  0  0  0  0  0  0
  190.0460  177.7570  147.4890 C   0  0  0  0  0  2  0  0  0  0  0  0
  187.5040  177.6670  143.1290 N   0  0  0  0  0  2  0  0  0  0  0  0
  186.9680  178.3550  144.3070 C   0  0  1  0  0  3  0  0  0  0  0  0
  189.1540  177.6580  141.3440 C   0  0  2  0  0  3  0  0  0  0  0  0
  191.6150  176.0140  144.4810 C   0  0  1  0  0  3  0  0  0  0  0  0
  188.5260  177.5820  147.7010 C   0  0  0  0  0  2  0  0  0  0  0  0
  181.3260  178.8200  144.2570 F   0  0  0  0  0  0  0  0  0  0  0  0
  183.3750  178.5920  145.4490 C   0  0  0  0  0  3  0  0  0  0  0  0
  185.4730  178.4780  144.2300 C   0  0  0  0  0  0  0  0  0  0  0  0
  183.3670  178.7100  143.0340 C   0  0  0  0  0  3  0  0  0  0  0  0
  184.7670  178.4780  145.4380 C   0  0  0  0  0  3  0  0  0  0  0  0
  184.7630  178.5950  143.0110 C   0  0  0  0  0  0  0  0  0  0  0  0
  182.6750  178.7090  144.2470 C   0  0  0  0  0  0  0  0  0  0  0  0
  185.4540  178.5880  141.6800 C   0  0  0  0  0  2  0  0  0  0  0  0
  184.4540  178.7110  140.5390 C   0  0  0  0  0  2  0  0  0  0  0  0
  184.7640  179.8150  139.7460 O   0  0  0  0  0  1  0  0  0  0  0  0
  191.8210  174.5070  144.3670 C   0  0  0  0  0  2  0  0  0  0  0  0
  192.7440  174.0630  145.3170 O   0  0  0  0  0  1  0  0  0  0  0  0
  188.8540  178.7690  140.3520 C   0  0  0  0  0  2  0  0  0  0  0  0
  188.2370  178.2190  139.0730 C   0  0  0  0  0  2  0  0  0  0  0  0
  189.9440  177.4220  137.4300 C   0  0  0  0  0  1  0  0  0  0  0  0
  189.0700  178.5870  137.8550 C   0  0  0  0  0  2  0  0  0  0  0  0
  1  3  2  0  0  0  0
  2  4  1  0  0  0  0
  3 16  1  0  0  0  0
  4  8  1  0  0  0  0
  5  2  2  0  0  0  0
  5 15  1  0  0  0  0
  6 12  1  1  0  0  0
  6  2  1  0  0  0  0
  7 14  1  0  0  0  0
  7  9  1  0  0  0  0
  8 11  1  0  0  0  0
  9  5  1  0  0  0  0
 10  8  2  0  0  0  0
 11 16  1  0  0  0  0
 12 13  1  0  0  0  0
 13 19  1  6  0  0  0
 13  1  1  0  0  0  0
 14 29  1  6  0  0  0
 14  6  1  0  0  0  0
 15 27  1  1  0  0  0
 15 10  1  0  0  0  0
 19 21  2  0  0  0  0
 20 23  1  0  0  0  0
 21 18  1  0  0  0  0
 22 20  2  0  0  0  0
 22 19  1  0  0  0  0
 23 17  1  0  0  0  0
 23 18  2  0  0  0  0
 24 22  1  0  0  0  0
 25 24  1  0  0  0  0
 26 25  1  0  0  0  0
 27 28  1  0  0  0  0
 30 29  1  0  0  0  0
 31 32  1  0  0  0  0
 32 30  1  0  0  0  0
M  END
>  <MODEL>
1

>  <REMARK>
 VINA RESULT:      -8.5      0.000      0.000
  Name = 
  7 active torsions:
  status: ('A' for Active; 'I' for Inactive)
    1  A    between atoms: C_3  and  C_23
    2  A    between atoms: C_9  and  C_31
    3  A    between atoms: C_9  and  C_32
    4  A    between atoms: C_13  and  CA_29
    5  A    between atoms: C_16  and  C_27
    6  A    between atoms: C_22  and  C_23
    7  A    between atoms: C_28  and  C_32
                            x       y       z     vdW  Elec       q    Type
                         _______ _______ _______ _____ _____    ______ ____

>  <TORSDO>
F 7

$$$$
=
 OpenBabel10262421163D

 32 35  0  0  1  0  0  0  0  0999 V2000
  187.6830  177.5810  141.3140 C   0  0  0  0  0  3  0  0  0  0  0  0
  184.9720  178.4440  140.2000 C   0  0  0  0  0  0  0  0  0  0  0  0
  188.5970  178.2720  140.6360 C   0  0  0  0  0  3  0  0  0  0  0  0
  186.1140  178.9670  139.5930 O   0  0  0  0  0  0  0  0  0  0  0  0
  184.1290  177.7080  139.4690 C   0  0  0  0  0  0  0  0  0  0  0  0
  184.7350  178.6650  141.6830 C   0  0  2  0  0  3  0  0  0  0  0  0
  182.3980  178.3930  140.9320 O   0  0  0  0  0  0  0  0  0  0  0  0
  186.6430  178.3520  138.4560 C   0  0  0  0  0  0  0  0  0  0  0  0
  182.8130  177.3420  140.0910 C   0  0  0  0  0  2  0  0  0  0  0  0
  185.8740  177.6080  137.7170 N   0  0  0  0  0  0  0  0  0  0  0  0
  188.1170  178.4630  138.1820 C   0  0  0  0  0  2  0  0  0  0  0  0
  185.5710  177.7570  142.4840 N   0  0  0  0  0  2  0  0  0  0  0  0
  186.9770  178.1730  142.4920 C   0  0  1  0  0  3  0  0  0  0  0  0
  183.2610  178.3780  142.0530 C   0  0  2  0  0  3  0  0  0  0  0  0
  184.4350  177.4800  138.0010 C   0  0  1  0  0  3  0  0  0  0  0  0
  188.9810  177.7890  139.2700 C   0  0  0  0  0  2  0  0  0  0  0  0
  189.6910  176.7160  147.2420 F   0  0  0  0  0  0  0  0  0  0  0  0
  189.6250  176.9060  144.8700 C   0  0  0  0  0  3  0  0  0  0  0  0
  187.6450  177.8030  143.7850 C   0  0  0  0  0  0  0  0  0  0  0  0
  187.7350  177.6000  146.2080 C   0  0  0  0  0  3  0  0  0  0  0  0
  188.9370  177.2710  143.7100 C   0  0  0  0  0  3  0  0  0  0  0  0
  187.0350  177.9680  145.0530 C   0  0  0  0  0  0  0  0  0  0  0  0
  189.0240  177.0710  146.1180 C   0  0  0  0  0  0  0  0  0  0  0  0
  185.6490  178.5180  145.2060 C   0  0  0  0  0  2  0  0  0  0  0  0
  185.1850  178.4480  146.6530 C   0  0  0  0  0  2  0  0  0  0  0  0
  185.5320  179.6190  147.3260 O   0  0  0  0  0  1  0  0  0  0  0  0
  183.9250  176.1320  137.5040 C   0  0  0  0  0  2  0  0  0  0  0  0
  184.9920  175.2820  137.2040 O   0  0  0  0  0  1  0  0  0  0  0  0
  182.7860  179.3760  143.0960 C   0  0  0  0  0  2  0  0  0  0  0  0
  182.0250  178.6850  144.2190 C   0  0  0  0  0  2  0  0  0  0  0  0
  180.0820  179.8530  143.1650 C   0  0  0  0  0  1  0  0  0  0  0  0
  180.5360  178.6150  143.9150 C   0  0  0  0  0  2  0  0  0  0  0  0
  1 13  1  0  0  0  0
  3  1  2  0  0  0  0
  4  2  1  0  0  0  0
  5  9  1  0  0  0  0
  5  2  2  0  0  0  0
  6  2  1  6  0  0  0
  6 14  1  0  0  0  0
  6 12  1  0  0  0  0
  7 14  1  0  0  0  0
  8  4  1  0  0  0  0
  9  7  1  0  0  0  0
 10 15  1  0  0  0  0
 10  8  2  0  0  0  0
 11  8  1  0  0  0  0
 11 16  1  0  0  0  0
 12 13  1  0  0  0  0
 13 19  1  1  0  0  0
 14 29  1  1  0  0  0
 15 27  1  1  0  0  0
 15  5  1  0  0  0  0
 16  3  1  0  0  0  0
 18 23  1  0  0  0  0
 19 22  2  0  0  0  0
 21 19  1  0  0  0  0
 21 18  2  0  0  0  0
 22 24  1  0  0  0  0
 22 20  1  0  0  0  0
 23 20  2  0  0  0  0
 23 17  1  0  0  0  0
 24 25  1  0  0  0  0
 25 26  1  0  0  0  0
 28 27  1  0  0  0  0
 29 30  1  0  0  0  0
 31 32  1  0  0  0  0
 32 30  1  0  0  0  0
M  END
>  <MODEL>
2

>  <REMARK>
 VINA RESULT:      -8.1      3.212      7.423
  Name = 
  7 active torsions:
  status: ('A' for Active; 'I' for Inactive)
    1  A    between atoms: C_3  and  C_23
    2  A    between atoms: C_9  and  C_31
    3  A    between atoms: C_9  and  C_32
    4  A    between atoms: C_13  and  CA_29
    5  A    between atoms: C_16  and  C_27
    6  A    between atoms: C_22  and  C_23
    7  A    between atoms: C_28  and  C_32
                            x       y       z     vdW  Elec       q    Type
                         _______ _______ _______ _____ _____    ______ ____

>  <TORSDO>
F 7

$$$$
=
 OpenBabel10262421163D

 32 35  0  0  1  0  0  0  0  0999 V2000
  182.9840  178.8920  143.5810 C   0  0  0  0  0  3  0  0  0  0  0  0
  183.1630  178.7000  140.5360 C   0  0  0  0  0  0  0  0  0  0  0  0
  181.9580  178.1230  143.9390 C   0  0  0  0  0  3  0  0  0  0  0  0
  182.1030  178.0430  141.1620 O   0  0  0  0  0  0  0  0  0  0  0  0
  182.8940  179.6650  139.6500 C   0  0  0  0  0  0  0  0  0  0  0  0
  184.5930  178.3570  140.9110 C   0  0  2  0  0  3  0  0  0  0  0  0
  184.9570  179.1580  138.6040 O   0  0  0  0  0  0  0  0  0  0  0  0
  180.8620  178.6730  141.2790 C   0  0  0  0  0  0  0  0  0  0  0  0
  184.0400  180.2010  138.8440 C   0  0  0  0  0  2  0  0  0  0  0  0
  180.5550  179.6330  140.4570 N   0  0  0  0  0  0  0  0  0  0  0  0
  179.9640  178.3150  142.4290 C   0  0  0  0  0  2  0  0  0  0  0  0
  184.9610  178.9880  142.1890 N   0  0  0  0  0  2  0  0  0  0  0  0
  184.3390  178.3120  143.3310 C   0  0  1  0  0  3  0  0  0  0  0  0
  185.5810  178.8770  139.8410 C   0  0  2  0  0  3  0  0  0  0  0  0
  181.4470  179.9990  139.3440 C   0  0  1  0  0  3  0  0  0  0  0  0
  180.5720  178.6790  143.8010 C   0  0  0  0  0  2  0  0  0  0  0  0
  187.4550  178.7390  148.0400 F   0  0  0  0  0  0  0  0  0  0  0  0
  185.4620  179.2120  146.8250 C   0  0  0  0  0  3  0  0  0  0  0  0
  185.2120  178.3930  144.5510 C   0  0  0  0  0  0  0  0  0  0  0  0
  187.2390  177.9220  145.8120 C   0  0  0  0  0  3  0  0  0  0  0  0
  184.7110  179.0960  145.6530 C   0  0  0  0  0  3  0  0  0  0  0  0
  186.4960  177.8000  144.6320 C   0  0  0  0  0  0  0  0  0  0  0  0
  186.7260  178.6260  146.9040 C   0  0  0  0  0  0  0  0  0  0  0  0
  187.1000  177.0460  143.4860 C   0  0  0  0  0  2  0  0  0  0  0  0
  188.5850  176.8000  143.7090 C   0  0  0  0  0  2  0  0  0  0  0  0
  189.1050  176.0280  142.6720 O   0  0  0  0  0  1  0  0  0  0  0  0
  181.2540  181.4690  138.9870 C   0  0  0  0  0  2  0  0  0  0  0  0
  179.9550  181.8830  139.2890 O   0  0  0  0  0  1  0  0  0  0  0  0
  186.7060  177.8720  139.6460 C   0  0  0  0  0  2  0  0  0  0  0  0
  188.0130  178.3830  140.2380 C   0  0  0  0  0  2  0  0  0  0  0  0
  189.0260  178.7120  137.9760 C   0  0  0  0  0  1  0  0  0  0  0  0
  189.1920  178.0570  139.3350 C   0  0  0  0  0  2  0  0  0  0  0  0
  1  3  2  0  0  0  0
  2  4  1  0  0  0  0
  4  8  1  0  0  0  0
  5  2  2  0  0  0  0
  6  2  1  6  0  0  0
  6 12  1  0  0  0  0
  7  9  1  0  0  0  0
  7 14  1  0  0  0  0
  8 11  1  0  0  0  0
  9  5  1  0  0  0  0
 10  8  2  0  0  0  0
 11 16  1  0  0  0  0
 12 13  1  0  0  0  0
 13  1  1  0  0  0  0
 13 19  1  1  0  0  0
 14 29  1  6  0  0  0
 14  6  1  0  0  0  0
 15 27  1  1  0  0  0
 15  5  1  0  0  0  0
 15 10  1  0  0  0  0
 16  3  1  0  0  0  0
 18 23  1  0  0  0  0
 19 22  2  0  0  0  0
 19 21  1  0  0  0  0
 20 23  2  0  0  0  0
 21 18  2  0  0  0  0
 22 20  1  0  0  0  0
 23 17  1  0  0  0  0
 24 25  1  0  0  0  0
 24 22  1  0  0  0  0
 26 25  1  0  0  0  0
 27 28  1  0  0  0  0
 29 30  1  0  0  0  0
 31 32  1  0  0  0  0
 32 30  1  0  0  0  0
M  END
>  <MODEL>
3

>  <REMARK>
 VINA RESULT:      -8.0      2.820      7.353
  Name = 
  7 active torsions:
  status: ('A' for Active; 'I' for Inactive)
    1  A    between atoms: C_3  and  C_23
    2  A    between atoms: C_9  and  C_31
    3  A    between atoms: C_9  and  C_32
    4  A    between atoms: C_13  and  CA_29
    5  A    between atoms: C_16  and  C_27
    6  A    between atoms: C_22  and  C_23
    7  A    between atoms: C_28  and  C_32
                            x       y       z     vdW  Elec       q    Type
                         _______ _______ _______ _____ _____    ______ ____

>  <TORSDO>
F 7

$$$$
=
 OpenBabel10262421163D

 32 35  0  0  1  0  0  0  0  0999 V2000
  186.8270  177.8960  141.4190 C   0  0  0  0  0  3  0  0  0  0  0  0
  185.4680  178.2750  138.7080 C   0  0  0  0  0  0  0  0  0  0  0  0
  187.9910  178.5370  141.3400 C   0  0  0  0  0  3  0  0  0  0  0  0
  186.7580  178.7870  138.8600 O   0  0  0  0  0  0  0  0  0  0  0  0
  185.2470  177.3400  137.7790 C   0  0  0  0  0  0  0  0  0  0  0  0
  184.3570  178.7390  139.6330 C   0  0  2  0  0  3  0  0  0  0  0  0
  183.0120  178.1100  137.6600 O   0  0  0  0  0  0  0  0  0  0  0  0
  187.8600  178.0290  138.4590 C   0  0  0  0  0  0  0  0  0  0  0  0
  183.8210  176.9680  137.4980 C   0  0  0  0  0  2  0  0  0  0  0  0
  187.7010  177.0920  137.5720 N   0  0  0  0  0  0  0  0  0  0  0  0
  189.1780  178.2300  139.1520 C   0  0  0  0  0  2  0  0  0  0  0  0
  184.4610  178.0780  140.9430 N   0  0  0  0  0  2  0  0  0  0  0  0
  185.5610  178.6220  141.7440 C   0  0  1  0  0  3  0  0  0  0  0  0
  182.9710  178.3830  139.0470 C   0  0  2  0  0  3  0  0  0  0  0  0
  186.4030  176.8800  136.9110 C   0  0  1  0  0  3  0  0  0  0  0  0
  189.1330  177.8530  140.6490 C   0  0  0  0  0  2  0  0  0  0  0  0
  184.5990  178.3180  147.3150 F   0  0  0  0  0  0  0  0  0  0  0  0
  186.0440  178.0310  145.4450 C   0  0  0  0  0  3  0  0  0  0  0  0
  185.2460  178.5610  143.2110 C   0  0  0  0  0  0  0  0  0  0  0  0
  183.7870  178.8450  145.1380 C   0  0  0  0  0  3  0  0  0  0  0  0
  186.2590  178.1130  144.0670 C   0  0  0  0  0  3  0  0  0  0  0  0
  183.9920  178.9300  143.7550 C   0  0  0  0  0  0  0  0  0  0  0  0
  184.8080  178.3980  145.9800 C   0  0  0  0  0  0  0  0  0  0  0  0
  182.8580  179.4040  142.8970 C   0  0  0  0  0  2  0  0  0  0  0  0
  181.5150  179.1460  143.5650 C   0  0  0  0  0  2  0  0  0  0  0  0
  180.5860  180.1050  143.1630 O   0  0  0  0  0  1  0  0  0  0  0  0
  186.2660  175.4210  136.4900 C   0  0  0  0  0  2  0  0  0  0  0  0
  187.1250  174.6110  137.2370 O   0  0  0  0  0  1  0  0  0  0  0  0
  181.9860  179.5040  139.3340 C   0  0  0  0  0  2  0  0  0  0  0  0
  180.6540  178.9580  139.8320 C   0  0  0  0  0  2  0  0  0  0  0  0
  179.5710  177.0930  141.0960 C   0  0  0  0  0  1  0  0  0  0  0  0
  180.7870  177.5140  140.2930 C   0  0  0  0  0  2  0  0  0  0  0  0
  1 13  1  0  0  0  0
  2  4  1  0  0  0  0
  3  1  2  0  0  0  0
  5  2  2  0  0  0  0
  6  2  1  6  0  0  0
  6 12  1  0  0  0  0
  7 14  1  0  0  0  0
  8  4  1  0  0  0  0
  8 11  1  0  0  0  0
  9  7  1  0  0  0  0
  9  5  1  0  0  0  0
 10  8  2  0  0  0  0
 11 16  1  0  0  0  0
 12 13  1  0  0  0  0
 13 19  1  1  0  0  0
 14 29  1  6  0  0  0
 14  6  1  0  0  0  0
 15 27  1  1  0  0  0
 15 10  1  0  0  0  0
 15  5  1  0  0  0  0
 16  3  1  0  0  0  0
 18 23  1  0  0  0  0
 19 22  2  0  0  0  0
 19 21  1  0  0  0  0
 20 23  2  0  0  0  0
 21 18  2  0  0  0  0
 22 20  1  0  0  0  0
 23 17  1  0  0  0  0
 24 25  1  0  0  0  0
 24 22  1  0  0  0  0
 26 25  1  0  0  0  0
 27 28  1  0  0  0  0
 29 30  1  0  0  0  0
 30 32  1  0  0  0  0
 32 31  1  0  0  0  0
M  END
>  <MODEL>
4

>  <REMARK>
 VINA RESULT:      -7.8      3.718      6.583
  Name = 
  7 active torsions:
  status: ('A' for Active; 'I' for Inactive)
    1  A    between atoms: C_3  and  C_23
    2  A    between atoms: C_9  and  C_31
    3  A    between atoms: C_9  and  C_32
    4  A    between atoms: C_13  and  CA_29
    5  A    between atoms: C_16  and  C_27
    6  A    between atoms: C_22  and  C_23
    7  A    between atoms: C_28  and  C_32
                            x       y       z     vdW  Elec       q    Type
                         _______ _______ _______ _____ _____    ______ ____

>  <TORSDO>
F 7

$$$$
=
 OpenBabel10262421163D

 32 35  0  0  1  0  0  0  0  0999 V2000
  186.9250  177.9350  141.4560 C   0  0  0  0  0  3  0  0  0  0  0  0
  185.0530  178.2660  139.0630 C   0  0  0  0  0  0  0  0  0  0  0  0
  188.0020  178.6680  141.1850 C   0  0  0  0  0  3  0  0  0  0  0  0
  186.3060  178.8750  138.9900 O   0  0  0  0  0  0  0  0  0  0  0  0
  184.7300  177.3370  138.1570 C   0  0  0  0  0  0  0  0  0  0  0  0
  184.1050  178.6180  140.1960 C   0  0  2  0  0  3  0  0  0  0  0  0
  182.4610  177.9280  138.4870 O   0  0  0  0  0  0  0  0  0  0  0  0
  187.3650  178.2170  138.3620 C   0  0  0  0  0  0  0  0  0  0  0  0
  183.3080  176.8590  138.1350 C   0  0  0  0  0  2  0  0  0  0  0  0
  187.1110  177.2900  137.4860 N   0  0  0  0  0  0  0  0  0  0  0  0
  188.7730  178.5060  138.8030 C   0  0  0  0  0  2  0  0  0  0  0  0
  184.5050  177.9380  141.4380 N   0  0  0  0  0  2  0  0  0  0  0  0
  185.6930  178.5490  142.0390 C   0  0  1  0  0  3  0  0  0  0  0  0
  182.6630  178.1650  139.8670 C   0  0  2  0  0  3  0  0  0  0  0  0
  185.7300  176.9900  137.0720 C   0  0  1  0  0  3  0  0  0  0  0  0
  189.0390  178.0930  140.2670 C   0  0  0  0  0  2  0  0  0  0  0  0
  185.4100  178.2530  147.6860 F   0  0  0  0  0  0  0  0  0  0  0  0
  184.6460  179.1540  145.6190 C   0  0  0  0  0  3  0  0  0  0  0  0
  185.6670  178.4300  143.5360 C   0  0  0  0  0  0  0  0  0  0  0  0
  186.4310  177.5230  145.6610 C   0  0  0  0  0  3  0  0  0  0  0  0
  184.7330  179.2120  144.2260 C   0  0  0  0  0  3  0  0  0  0  0  0
  186.5280  177.5740  144.2650 C   0  0  0  0  0  0  0  0  0  0  0  0
  185.4940  178.3090  146.3360 C   0  0  0  0  0  0  0  0  0  0  0  0
  187.5600  176.7200  143.5920 C   0  0  0  0  0  2  0  0  0  0  0  0
  188.8830  176.7590  144.3430 C   0  0  0  0  0  2  0  0  0  0  0  0
  189.9290  176.4000  143.4930 O   0  0  0  0  0  1  0  0  0  0  0  0
  185.6260  175.5350  136.6300 C   0  0  0  0  0  2  0  0  0  0  0  0
  186.6470  174.7720  137.2010 O   0  0  0  0  0  1  0  0  0  0  0  0
  181.6700  179.1980  140.3750 C   0  0  0  0  0  2  0  0  0  0  0  0
  180.8130  178.6350  141.5010 C   0  0  0  0  0  2  0  0  0  0  0  0
  180.4140  178.6180  143.9690 C   0  0  0  0  0  1  0  0  0  0  0  0
  181.3790  179.0060  142.8630 C   0  0  0  0  0  2  0  0  0  0  0  0
  1 13  1  0  0  0  0
  3  1  2  0  0  0  0
  4  2  1  0  0  0  0
  5  2  2  0  0  0  0
  6  2  1  6  0  0  0
  6 12  1  0  0  0  0
  7 14  1  0  0  0  0
  8 11  1  0  0  0  0
  8  4  1  0  0  0  0
  9  5  1  0  0  0  0
  9  7  1  0  0  0  0
 10  8  2  0  0  0  0
 11 16  1  0  0  0  0
 12 13  1  0  0  0  0
 13 19  1  1  0  0  0
 14  6  1  0  0  0  0
 14 29  1  6  0  0  0
 15 27  1  1  0  0  0
 15 10  1  0  0  0  0
 15  5  1  0  0  0  0
 16  3  1  0  0  0  0
 18 23  1  0  0  0  0
 19 21  1  0  0  0  0
 19 22  2  0  0  0  0
 20 23  2  0  0  0  0
 21 18  2  0  0  0  0
 22 20  1  0  0  0  0
 23 17  1  0  0  0  0
 24 22  1  0  0  0  0
 24 25  1  0  0  0  0
 26 25  1  0  0  0  0
 27 28  1  0  0  0  0
 29 30  1  0  0  0  0
 30 32  1  0  0  0  0
 32 31  1  0  0  0  0
M  END
>  <MODEL>
5

>  <REMARK>
 VINA RESULT:      -7.7      2.690      6.913
  Name = 
  7 active torsions:
  status: ('A' for Active; 'I' for Inactive)
    1  A    between atoms: C_3  and  C_23
    2  A    between atoms: C_9  and  C_31
    3  A    between atoms: C_9  and  C_32
    4  A    between atoms: C_13  and  CA_29
    5  A    between atoms: C_16  and  C_27
    6  A    between atoms: C_22  and  C_23
    7  A    between atoms: C_28  and  C_32
                            x       y       z     vdW  Elec       q    Type
                         _______ _______ _______ _____ _____    ______ ____

>  <TORSDO>
F 7

$$$$
=
 OpenBabel10262421163D

 32 35  0  0  1  0  0  0  0  0999 V2000
  187.9740  177.4860  141.0390 C   0  0  0  0  0  3  0  0  0  0  0  0
  185.1760  178.5270  140.3850 C   0  0  0  0  0  0  0  0  0  0  0  0
  188.8000  178.0930  140.1900 C   0  0  0  0  0  3  0  0  0  0  0  0
  186.2280  178.9500  139.5710 O   0  0  0  0  0  0  0  0  0  0  0  0
  184.1680  177.8410  139.8360 C   0  0  0  0  0  0  0  0  0  0  0  0
  185.2200  178.7950  141.8780 C   0  0  2  0  0  3  0  0  0  0  0  0
  182.7740  178.6830  141.5550 O   0  0  0  0  0  0  0  0  0  0  0  0
  186.5040  178.2740  138.3810 C   0  0  0  0  0  0  0  0  0  0  0  0
  182.9600  177.5870  140.6890 C   0  0  0  0  0  2  0  0  0  0  0  0
  185.5670  177.5740  137.8120 N   0  0  0  0  0  0  0  0  0  0  0  0
  187.9110  178.2680  137.8510 C   0  0  0  0  0  2  0  0  0  0  0  0
  186.1190  177.8440  142.5510 N   0  0  0  0  0  2  0  0  0  0  0  0
  187.5290  178.1530  142.3010 C   0  0  1  0  0  3  0  0  0  0  0  0
  183.8170  178.6260  142.5080 C   0  0  2  0  0  3  0  0  0  0  0  0
  184.1950  177.5610  138.3460 C   0  0  1  0  0  3  0  0  0  0  0  0
  188.9040  177.5550  138.7940 C   0  0  0  0  0  2  0  0  0  0  0  0
  190.5620  176.6170  146.8280 F   0  0  0  0  0  0  0  0  0  0  0  0
  188.4610  176.9430  145.7560 C   0  0  0  0  0  3  0  0  0  0  0  0
  188.3870  177.7610  143.4700 C   0  0  0  0  0  0  0  0  0  0  0  0
  190.5220  177.4210  144.5860 C   0  0  0  0  0  3  0  0  0  0  0  0
  187.7320  177.3270  144.6290 C   0  0  0  0  0  3  0  0  0  0  0  0
  189.8020  177.8100  143.4490 C   0  0  0  0  0  0  0  0  0  0  0  0
  189.8550  176.9890  145.7350 C   0  0  0  0  0  0  0  0  0  0  0  0
  190.5670  178.2780  142.2480 C   0  0  0  0  0  2  0  0  0  0  0  0
  191.7430  177.3600  141.9520 C   0  0  0  0  0  2  0  0  0  0  0  0
  192.2730  177.6480  140.6950 O   0  0  0  0  0  1  0  0  0  0  0  0
  183.5120  176.2440  137.9910 C   0  0  0  0  0  2  0  0  0  0  0  0
  184.0240  175.7310  136.7960 O   0  0  0  0  0  1  0  0  0  0  0  0
  183.6050  179.6790  143.5840 C   0  0  0  0  0  2  0  0  0  0  0  0
  183.5970  179.0570  144.9740 C   0  0  0  0  0  2  0  0  0  0  0  0
  185.0110  178.3190  146.8990 C   0  0  0  0  0  1  0  0  0  0  0  0
  184.9690  179.1410  145.6240 C   0  0  0  0  0  2  0  0  0  0  0  0
  1 13  1  0  0  0  0
  3  1  2  0  0  0  0
  4  2  1  0  0  0  0
  5  2  2  0  0  0  0
  5  9  1  0  0  0  0
  6  2  1  6  0  0  0
  6 14  1  0  0  0  0
  6 12  1  0  0  0  0
  7 14  1  0  0  0  0
  8  4  1  0  0  0  0
  9  7  1  0  0  0  0
 10 15  1  0  0  0  0
 10  8  2  0  0  0  0
 11  8  1  0  0  0  0
 11 16  1  0  0  0  0
 13 12  1  0  0  0  0
 13 19  1  1  0  0  0
 14 29  1  1  0  0  0
 15 27  1  1  0  0  0
 15  5  1  0  0  0  0
 16  3  1  0  0  0  0
 19 21  1  0  0  0  0
 20 23  2  0  0  0  0
 21 18  2  0  0  0  0
 22 19  2  0  0  0  0
 22 20  1  0  0  0  0
 23 18  1  0  0  0  0
 23 17  1  0  0  0  0
 24 22  1  0  0  0  0
 25 24  1  0  0  0  0
 26 25  1  0  0  0  0
 28 27  1  0  0  0  0
 29 30  1  0  0  0  0
 30 32  1  0  0  0  0
 32 31  1  0  0  0  0
M  END
>  <MODEL>
6

>  <REMARK>
 VINA RESULT:      -7.7      2.806      7.508
  Name = 
  7 active torsions:
  status: ('A' for Active; 'I' for Inactive)
    1  A    between atoms: C_3  and  C_23
    2  A    between atoms: C_9  and  C_31
    3  A    between atoms: C_9  and  C_32
    4  A    between atoms: C_13  and  CA_29
    5  A    between atoms: C_16  and  C_27
    6  A    between atoms: C_22  and  C_23
    7  A    between atoms: C_28  and  C_32
                            x       y       z     vdW  Elec       q    Type
                         _______ _______ _______ _____ _____    ______ ____

>  <TORSDO>
F 7

$$$$
=
 OpenBabel10262421163D

 32 35  0  0  1  0  0  0  0  0999 V2000
  189.7290  177.2020  142.4020 C   0  0  0  0  0  3  0  0  0  0  0  0
  188.5210  177.9520  139.6960 C   0  0  0  0  0  0  0  0  0  0  0  0
  190.9430  177.7470  142.4270 C   0  0  0  0  0  3  0  0  0  0  0  0
  189.8400  178.3360  139.9420 O   0  0  0  0  0  0  0  0  0  0  0  0
  188.2650  177.1320  138.6720 C   0  0  0  0  0  0  0  0  0  0  0  0
  187.4130  178.4170  140.6230 C   0  0  2  0  0  3  0  0  0  0  0  0
  186.1060  178.0950  138.5530 O   0  0  0  0  0  0  0  0  0  0  0  0
  190.8940  177.5300  139.5060 C   0  0  0  0  0  0  0  0  0  0  0  0
  186.8270  176.9100  138.3070 C   0  0  0  0  0  2  0  0  0  0  0  0
  190.6980  176.6980  138.5260 N   0  0  0  0  0  0  0  0  0  0  0  0
  192.1930  177.5510  140.2610 C   0  0  0  0  0  2  0  0  0  0  0  0
  187.4080  177.6270  141.8650 N   0  0  0  0  0  2  0  0  0  0  0  0
  188.5130  177.9970  142.7530 C   0  0  1  0  0  3  0  0  0  0  0  0
  186.0280  178.2370  139.9580 C   0  0  2  0  0  3  0  0  0  0  0  0
  189.4150  176.6610  137.8030 C   0  0  1  0  0  3  0  0  0  0  0  0
  192.0540  177.0380  141.7110 C   0  0  0  0  0  2  0  0  0  0  0  0
  187.3090  177.3170  148.2440 F   0  0  0  0  0  0  0  0  0  0  0  0
  188.8910  177.4140  146.4670 C   0  0  0  0  0  3  0  0  0  0  0  0
  188.1310  177.8230  144.1950 C   0  0  0  0  0  0  0  0  0  0  0  0
  186.5330  177.7190  146.0270 C   0  0  0  0  0  3  0  0  0  0  0  0
  189.1660  177.5840  145.1080 C   0  0  0  0  0  3  0  0  0  0  0  0
  186.7960  177.8900  144.6620 C   0  0  0  0  0  0  0  0  0  0  0  0
  187.5750  177.4820  146.9260 C   0  0  0  0  0  0  0  0  0  0  0  0
  185.6390  178.1290  143.7400 C   0  0  0  0  0  2  0  0  0  0  0  0
  184.8110  179.3230  144.1910 C   0  0  0  0  0  2  0  0  0  0  0  0
  183.5100  178.9200  144.4880 O   0  0  0  0  0  1  0  0  0  0  0  0
  189.1800  175.2650  137.2350 C   0  0  0  0  0  2  0  0  0  0  0  0
  190.1480  174.3740  137.7030 O   0  0  0  0  0  1  0  0  0  0  0  0
  185.1260  179.4050  140.3200 C   0  0  0  0  0  2  0  0  0  0  0  0
  183.6560  179.0110  140.2530 C   0  0  0  0  0  2  0  0  0  0  0  0
  182.6660  176.7520  139.8440 C   0  0  0  0  0  1  0  0  0  0  0  0
  183.4310  177.6200  140.8260 C   0  0  0  0  0  2  0  0  0  0  0  0
  1  3  2  0  0  0  0
  1 13  1  0  0  0  0
  2  4  1  0  0  0  0
  5  2  2  0  0  0  0
  6  2  1  6  0  0  0
  6 12  1  0  0  0  0
  7 14  1  0  0  0  0
  8  4  1  0  0  0  0
  8 11  1  0  0  0  0
  9  7  1  0  0  0  0
  9  5  1  0  0  0  0
 10  8  2  0  0  0  0
 11 16  1  0  0  0  0
 12 13  1  0  0  0  0
 13 19  1  1  0  0  0
 14 29  1  6  0  0  0
 14  6  1  0  0  0  0
 15 27  1  1  0  0  0
 15 10  1  0  0  0  0
 15  5  1  0  0  0  0
 16  3  1  0  0  0  0
 18 23  1  0  0  0  0
 19 22  2  0  0  0  0
 19 21  1  0  0  0  0
 20 23  2  0  0  0  0
 21 18  2  0  0  0  0
 22 20  1  0  0  0  0
 23 17  1  0  0  0  0
 24 25  1  0  0  0  0
 24 22  1  0  0  0  0
 25 26  1  0  0  0  0
 27 28  1  0  0  0  0
 30 29  1  0  0  0  0
 30 32  1  0  0  0  0
 31 32  1  0  0  0  0
M  END
>  <MODEL>
7

>  <REMARK>
 VINA RESULT:      -7.5      2.759      5.392
  Name = 
  7 active torsions:
  status: ('A' for Active; 'I' for Inactive)
    1  A    between atoms: C_3  and  C_23
    2  A    between atoms: C_9  and  C_31
    3  A    between atoms: C_9  and  C_32
    4  A    between atoms: C_13  and  CA_29
    5  A    between atoms: C_16  and  C_27
    6  A    between atoms: C_22  and  C_23
    7  A    between atoms: C_28  and  C_32
                            x       y       z     vdW  Elec       q    Type
                         _______ _______ _______ _____ _____    ______ ____

>  <TORSDO>
F 7

$$$$
=
 OpenBabel10262421163D

 32 35  0  0  1  0  0  0  0  0999 V2000
  182.6780  178.9950  143.5210 C   0  0  0  0  0  3  0  0  0  0  0  0
  182.6370  178.8460  140.4690 C   0  0  0  0  0  0  0  0  0  0  0  0
  181.6560  178.2540  143.9400 C   0  0  0  0  0  3  0  0  0  0  0  0
  181.6030  178.2130  141.1590 O   0  0  0  0  0  0  0  0  0  0  0  0
  182.3390  179.8320  139.6170 C   0  0  0  0  0  0  0  0  0  0  0  0
  184.0790  178.4520  140.7370 C   0  0  2  0  0  3  0  0  0  0  0  0
  184.3050  179.2760  138.4210 O   0  0  0  0  0  0  0  0  0  0  0  0
  180.3950  178.8800  141.3710 C   0  0  0  0  0  0  0  0  0  0  0  0
  183.4430  180.3440  138.7390 C   0  0  0  0  0  2  0  0  0  0  0  0
  180.0620  179.8620  140.5860 N   0  0  0  0  0  0  0  0  0  0  0  0
  179.5680  178.5330  142.5780 C   0  0  0  0  0  2  0  0  0  0  0  0
  184.5560  179.0500  141.9940 N   0  0  0  0  0  2  0  0  0  0  0  0
  183.9940  178.3770  143.1680 C   0  0  1  0  0  3  0  0  0  0  0  0
  185.0060  178.9560  139.6070 C   0  0  2  0  0  3  0  0  0  0  0  0
  180.8860  180.2170  139.4180 C   0  0  1  0  0  3  0  0  0  0  0  0
  180.2830  178.8560  143.9080 C   0  0  0  0  0  2  0  0  0  0  0  0
  187.4350  178.6100  147.6580 F   0  0  0  0  0  0  0  0  0  0  0  0
  185.3370  179.0720  146.6300 C   0  0  0  0  0  3  0  0  0  0  0  0
  184.9520  178.4110  144.3240 C   0  0  0  0  0  0  0  0  0  0  0  0
  187.0880  177.9500  145.3950 C   0  0  0  0  0  3  0  0  0  0  0  0
  184.5050  179.0040  145.5110 C   0  0  0  0  0  3  0  0  0  0  0  0
  186.2630  177.8780  144.2660 C   0  0  0  0  0  0  0  0  0  0  0  0
  186.6280  178.5450  146.5730 C   0  0  0  0  0  0  0  0  0  0  0  0
  186.8110  177.2420  143.0240 C   0  0  0  0  0  2  0  0  0  0  0  0
  188.2720  177.6140  142.8130 C   0  0  0  0  0  2  0  0  0  0  0  0
  188.3740  178.6550  141.8910 O   0  0  0  0  0  1  0  0  0  0  0  0
  180.7170  181.6970  139.0950 C   0  0  0  0  0  2  0  0  0  0  0  0
  179.6510  181.8900  138.2130 O   0  0  0  0  0  1  0  0  0  0  0  0
  186.0800  177.9190  139.3200 C   0  0  0  0  0  2  0  0  0  0  0  0
  186.7940  178.2110  138.0070 C   0  0  0  0  0  2  0  0  0  0  0  0
  185.5660  176.3540  136.8690 C   0  0  0  0  0  1  0  0  0  0  0  0
  186.9290  176.9540  137.1610 C   0  0  0  0  0  2  0  0  0  0  0  0
  1  3  2  0  0  0  0
  2  4  1  0  0  0  0
  4  8  1  0  0  0  0
  5  2  2  0  0  0  0
  6  2  1  6  0  0  0
  6 12  1  0  0  0  0
  7  9  1  0  0  0  0
  7 14  1  0  0  0  0
  8 11  1  0  0  0  0
  9  5  1  0  0  0  0
 10  8  2  0  0  0  0
 11 16  1  0  0  0  0
 12 13  1  0  0  0  0
 13  1  1  0  0  0  0
 13 19  1  1  0  0  0
 14 29  1  6  0  0  0
 14  6  1  0  0  0  0
 15 27  1  1  0  0  0
 15  5  1  0  0  0  0
 15 10  1  0  0  0  0
 16  3  1  0  0  0  0
 19 21  1  0  0  0  0
 20 23  2  0  0  0  0
 21 18  2  0  0  0  0
 22 19  2  0  0  0  0
 22 20  1  0  0  0  0
 23 18  1  0  0  0  0
 23 17  1  0  0  0  0
 24 22  1  0  0  0  0
 25 24  1  0  0  0  0
 26 25  1  0  0  0  0
 28 27  1  0  0  0  0
 30 29  1  0  0  0  0
 31 32  1  0  0  0  0
 32 30  1  0  0  0  0
M  END
>  <MODEL>
8

>  <REMARK>
 VINA RESULT:      -7.4      3.217      7.623
  Name = 
  7 active torsions:
  status: ('A' for Active; 'I' for Inactive)
    1  A    between atoms: C_3  and  C_23
    2  A    between atoms: C_9  and  C_31
    3  A    between atoms: C_9  and  C_32
    4  A    between atoms: C_13  and  CA_29
    5  A    between atoms: C_16  and  C_27
    6  A    between atoms: C_22  and  C_23
    7  A    between atoms: C_28  and  C_32
                            x       y       z     vdW  Elec       q    Type
                         _______ _______ _______ _____ _____    ______ ____

>  <TORSDO>
F 7

$$$$
=
 OpenBabel10262421163D

 32 35  0  0  1  0  0  0  0  0999 V2000
  188.9300  177.3080  140.4870 C   0  0  0  0  0  3  0  0  0  0  0  0
  186.2030  178.6270  140.0780 C   0  0  0  0  0  0  0  0  0  0  0  0
  189.7510  177.8800  139.6090 C   0  0  0  0  0  3  0  0  0  0  0  0
  187.2330  178.9950  139.2110 O   0  0  0  0  0  0  0  0  0  0  0  0
  185.1020  178.0630  139.5730 C   0  0  0  0  0  0  0  0  0  0  0  0
  186.3710  178.8160  141.5750 C   0  0  2  0  0  3  0  0  0  0  0  0
  183.9100  178.9400  141.4210 O   0  0  0  0  0  0  0  0  0  0  0  0
  187.3660  178.3570  137.9760 C   0  0  0  0  0  0  0  0  0  0  0  0
  183.9350  177.8760  140.4970 C   0  0  0  0  0  2  0  0  0  0  0  0
  186.3330  177.7730  137.4450 N   0  0  0  0  0  0  0  0  0  0  0  0
  188.7280  178.2510  137.3490 C   0  0  0  0  0  2  0  0  0  0  0  0
  187.2200  177.7560  142.1410 N   0  0  0  0  0  2  0  0  0  0  0  0
  188.6330  177.9490  141.8050 C   0  0  1  0  0  3  0  0  0  0  0  0
  185.0040  178.7430  142.2940 C   0  0  2  0  0  3  0  0  0  0  0  0
  185.0030  177.8560  138.0740 C   0  0  1  0  0  3  0  0  0  0  0  0
  189.7110  177.4050  138.1870 C   0  0  0  0  0  2  0  0  0  0  0  0
  192.1700  175.9300  145.7380 F   0  0  0  0  0  0  0  0  0  0  0  0
  191.6740  176.4430  143.4660 C   0  0  0  0  0  3  0  0  0  0  0  0
  189.5270  177.4240  142.8920 C   0  0  0  0  0  0  0  0  0  0  0  0
  190.0560  176.8900  145.2070 C   0  0  0  0  0  3  0  0  0  0  0  0
  190.7860  176.9450  142.5130 C   0  0  0  0  0  3  0  0  0  0  0  0
  189.1560  177.3940  144.2590 C   0  0  0  0  0  0  0  0  0  0  0  0
  191.3090  176.4160  144.8130 C   0  0  0  0  0  0  0  0  0  0  0  0
  187.8190  177.8780  144.7340 C   0  0  0  0  0  2  0  0  0  0  0  0
  187.8340  178.1590  146.2300 C   0  0  0  0  0  2  0  0  0  0  0  0
  187.1880  177.1330  146.9180 O   0  0  0  0  0  1  0  0  0  0  0  0
  184.1790  176.6260  137.7100 C   0  0  0  0  0  2  0  0  0  0  0  0
  184.9960  175.6250  137.1800 O   0  0  0  0  0  1  0  0  0  0  0  0
  184.9620  179.7550  143.4270 C   0  0  0  0  0  2  0  0  0  0  0  0
  183.5750  179.8320  144.0510 C   0  0  0  0  0  2  0  0  0  0  0  0
  184.2420  178.6240  146.1360 C   0  0  0  0  0  1  0  0  0  0  0  0
  183.3040  178.6300  144.9440 C   0  0  0  0  0  2  0  0  0  0  0  0
  1 13  1  0  0  0  0
  3  1  2  0  0  0  0
  4  2  1  0  0  0  0
  5  2  2  0  0  0  0
  5  9  1  0  0  0  0
  6  2  1  6  0  0  0
  6 12  1  0  0  0  0
  6 14  1  0  0  0  0
  7 14  1  0  0  0  0
  8  4  1  0  0  0  0
  9  7  1  0  0  0  0
 10  8  2  0  0  0  0
 10 15  1  0  0  0  0
 11  8  1  0  0  0  0
 11 16  1  0  0  0  0
 13 12  1  0  0  0  0
 13 19  1  1  0  0  0
 14 29  1  1  0  0  0
 15 27  1  1  0  0  0
 15  5  1  0  0  0  0
 16  3  1  0  0  0  0
 18 23  1  0  0  0  0
 19 22  2  0  0  0  0
 21 19  1  0  0  0  0
 21 18  2  0  0  0  0
 22 24  1  0  0  0  0
 22 20  1  0  0  0  0
 23 20  2  0  0  0  0
 23 17  1  0  0  0  0
 24 25  1  0  0  0  0
 25 26  1  0  0  0  0
 28 27  1  0  0  0  0
 29 30  1  0  0  0  0
 30 32  1  0  0  0  0
 32 31  1  0  0  0  0
M  END
>  <MODEL>
9

>  <REMARK>
 VINA RESULT:      -7.4      2.925      7.598
  Name = 
  7 active torsions:
  status: ('A' for Active; 'I' for Inactive)
    1  A    between atoms: C_3  and  C_23
    2  A    between atoms: C_9  and  C_31
    3  A    between atoms: C_9  and  C_32
    4  A    between atoms: C_13  and  CA_29
    5  A    between atoms: C_16  and  C_27
    6  A    between atoms: C_22  and  C_23
    7  A    between atoms: C_28  and  C_32
                            x       y       z     vdW  Elec       q    Type
                         _______ _______ _______ _____ _____    ______ ____

>  <TORSDO>
F 7

$$$$
