=
 OpenBabel10252415103D

 34 36  0  0  1  0  0  0  0  0999 V2000
  188.2930  177.0540  144.9340 C   0  0  2  0  0  3  0  0  0  0  0  0
  186.4810  177.9380  143.4980 N   0  0  0  0  0  0  0  0  0  0  0  0
  186.0260  177.5220  145.8870 C   0  0  0  0  0  1  0  0  0  0  0  0
  189.2230  177.2240  143.7240 C   0  0  1  0  0  3  0  0  0  0  0  0
  187.4260  178.3450  142.6020 O   0  0  0  0  0  0  0  0  0  0  0  0
  188.3330  177.2780  142.4790 C   0  0  1  0  0  3  0  0  0  0  0  0
  187.0570  177.9840  144.8600 C   0  0  1  0  0  3  0  0  0  0  0  0
  189.3360  178.2460  138.9550 C   0  0  0  0  0  0  0  0  0  0  0  0
  190.4920  177.4840  138.7650 C   0  0  0  0  0  3  0  0  0  0  0  0
  189.1040  177.3450  141.1940 C   0  0  0  0  0  0  0  0  0  0  0  0
  190.9550  176.6480  139.7860 C   0  0  0  0  0  3  0  0  0  0  0  0
  188.6410  178.1740  140.1660 C   0  0  0  0  0  3  0  0  0  0  0  0
  190.2610  176.5780  140.9990 C   0  0  0  0  0  3  0  0  0  0  0  0
  188.8870  179.0540  137.9650 F   0  0  0  0  0  0  0  0  0  0  0  0
  189.0220  178.3320  146.8410 O   0  0  0  0  0  1  0  0  0  0  0  0
  189.0440  177.0560  146.2770 C   0  0  2  0  0  3  0  0  0  0  0  0
  190.4210  176.6100  146.1160 N   0  0  0  0  0  2  0  0  0  0  0  0
  191.0810  176.7850  147.3980 C   0  0  0  0  0  2  0  0  0  0  0  0
  193.1490  175.9760  148.5830 N   0  0  0  0  0  1  0  0  0  0  0  0
  192.2360  175.8530  147.4990 C   0  0  0  0  0  0  0  0  0  0  0  0
  192.5160  175.0710  146.5110 N   0  0  0  0  0  2  0  0  0  0  0  0
  190.7450  179.4250  143.9370 C   0  0  0  0  0  3  0  0  0  0  0  0
  190.0600  178.4370  143.8420 C   0  0  0  0  0  0  0  0  0  0  0  0
  185.4080  178.9220  143.4110 C   0  0  0  0  0  2  0  0  0  0  0  0
  183.9240  178.3400  141.4880 C   0  0  0  0  0  3  0  0  0  0  0  0
  184.1970  178.2930  142.7960 C   0  0  0  0  0  3  0  0  0  0  0  0
  184.7780  179.0450  140.4720 C   0  0  0  0  0  2  0  0  0  0  0  0
  182.3710  179.5120  138.8000 O   0  0  0  0  0  1  0  0  0  0  0  0
  184.5520  178.5700  139.0620 C   0  0  0  0  0  0  0  0  0  0  0  0
  183.1200  178.3490  138.6160 C   0  0  2  0  0  3  0  0  0  0  0  0
  184.0530  176.8560  136.8250 C   0  0  0  0  0  2  0  0  0  0  0  0
  185.4160  177.5160  136.9680 C   0  0  0  0  0  2  0  0  0  0  0  0
  185.5870  178.0900  138.3460 C   0  0  0  0  0  3  0  0  0  0  0  0
  182.9820  177.8810  137.1660 C   0  0  0  0  0  2  0  0  0  0  0  0
  1 16  1  1  0  0  0
  2  7  1  0  0  0  0
  4 23  1  1  0  0  0
  4  1  1  0  0  0  0
  5  2  1  0  0  0  0
  6 10  1  6  0  0  0
  6  5  1  0  0  0  0
  6  4  1  0  0  0  0
  7  1  1  0  0  0  0
  7  3  1  1  0  0  0
  8 12  1  0  0  0  0
  9  8  2  0  0  0  0
  9 11  1  0  0  0  0
 11 13  2  0  0  0  0
 12 10  2  0  0  0  0
 13 10  1  0  0  0  0
 14  8  1  0  0  0  0
 16 15  1  6  0  0  0
 17 16  1  0  0  0  0
 17 18  1  0  0  0  0
 18 20  1  0  0  0  0
 20 19  1  0  0  0  0
 21 20  2  0  0  0  0
 23 22  3  0  0  0  0
 24  2  1  0  0  0  0
 25 26  2  0  0  0  0
 26 24  1  0  0  0  0
 27 25  1  0  0  0  0
 29 27  1  0  0  0  0
 30 28  1  6  0  0  0
 30 29  1  0  0  0  0
 31 32  1  0  0  0  0
 31 34  1  0  0  0  0
 32 33  1  0  0  0  0
 33 29  2  0  0  0  0
 34 30  1  0  0  0  0
M  END
>  <MODEL>
1

>  <REMARK>
 VINA RESULT:      -8.2      0.000      0.000
  Name = 
  10 active torsions:
  status: ('A' for Active; 'I' for Inactive)
    1  A    between atoms: C_3  and  C_13
    2  A    between atoms: C_3  and  C_17
    3  A    between atoms: C_4  and  C_15
    4  A    between atoms: N_5  and  C_18
    5  A    between atoms: C_6  and  C_9
    6  A    between atoms: C_9  and  N_25
    7  A    between atoms: C_12  and  C_28
    8  A    between atoms: C_15  and  N_25
    9  A    between atoms: C_18  and  C_29
   10  A    between atoms: C_21  and  C_32
                            x       y       z     vdW  Elec       q    Type
                         _______ _______ _______ _____ _____    ______ ____

>  <TORSDO>
F 10

$$$$
=
 OpenBabel10252415103D

 34 36  0  0  1  0  0  0  0  0999 V2000
  189.1420  177.9350  138.4680 C   0  0  2  0  0  3  0  0  0  0  0  0
  190.3570  177.0480  140.4340 N   0  0  0  0  0  0  0  0  0  0  0  0
  188.4240  178.5400  140.7880 C   0  0  0  0  0  1  0  0  0  0  0  0
  190.0360  177.0270  137.6100 C   0  0  1  0  0  3  0  0  0  0  0  0
  190.8690  176.0630  139.6400 O   0  0  0  0  0  0  0  0  0  0  0  0
  191.2720  176.6920  138.4490 C   0  0  1  0  0  3  0  0  0  0  0  0
  189.0210  177.4300  139.9260 C   0  0  1  0  0  3  0  0  0  0  0  0
  194.2550  175.8180  136.2810 C   0  0  0  0  0  0  0  0  0  0  0  0
  194.2170  174.4220  136.2890 C   0  0  0  0  0  3  0  0  0  0  0  0
  192.2970  175.8840  137.7100 C   0  0  0  0  0  0  0  0  0  0  0  0
  193.2180  173.7520  137.0030 C   0  0  0  0  0  3  0  0  0  0  0  0
  193.2950  176.5490  136.9880 C   0  0  0  0  0  3  0  0  0  0  0  0
  192.2590  174.4820  137.7120 C   0  0  0  0  0  3  0  0  0  0  0  0
  195.2220  176.4660  135.5890 F   0  0  0  0  0  0  0  0  0  0  0  0
  187.9280  179.5310  137.1360 O   0  0  0  0  0  1  0  0  0  0  0  0
  187.8150  178.2990  137.7800 C   0  0  2  0  0  3  0  0  0  0  0  0
  186.7160  178.3380  138.7350 N   0  0  0  0  0  2  0  0  0  0  0  0
  185.4910  178.1070  137.9870 C   0  0  0  0  0  2  0  0  0  0  0  0
  183.0200  178.3640  138.3880 N   0  0  0  0  0  2  0  0  0  0  0  0
  184.3520  178.7730  138.6730 C   0  0  0  0  0  0  0  0  0  0  0  0
  184.5580  179.8390  139.3710 N   0  0  0  0  0  1  0  0  0  0  0  0
  188.7440  174.8030  136.8410 C   0  0  0  0  0  3  0  0  0  0  0  0
  189.3250  175.8020  137.1850 C   0  0  0  0  0  0  0  0  0  0  0  0
  190.2020  176.4470  141.7530 C   0  0  0  0  0  2  0  0  0  0  0  0
  191.3620  177.6570  143.6050 C   0  0  0  0  0  3  0  0  0  0  0  0
  191.3920  176.7760  142.6000 C   0  0  0  0  0  3  0  0  0  0  0  0
  190.1450  178.4460  144.0020 C   0  0  0  0  0  2  0  0  0  0  0  0
  187.3170  177.5490  143.9400 O   0  0  0  0  0  1  0  0  0  0  0  0
  189.3690  177.8280  145.1330 C   0  0  0  0  0  0  0  0  0  0  0  0
  187.8650  178.0130  145.1360 C   0  0  2  0  0  3  0  0  0  0  0  0
  187.9470  177.5230  147.5980 C   0  0  0  0  0  2  0  0  0  0  0  0
  189.3000  176.8480  147.4300 C   0  0  0  0  0  2  0  0  0  0  0  0
  190.0200  177.3910  146.2280 C   0  0  0  0  0  3  0  0  0  0  0  0
  187.1550  177.3410  146.3130 C   0  0  0  0  0  2  0  0  0  0  0  0
  1 16  1  6  0  0  0
  1  7  1  0  0  0  0
  2 24  1  0  0  0  0
  4 23  1  1  0  0  0
  4  6  1  0  0  0  0
  4  1  1  0  0  0  0
  5  2  1  0  0  0  0
  6 10  1  6  0  0  0
  6  5  1  0  0  0  0
  7  2  1  0  0  0  0
  7  3  1  1  0  0  0
  8  9  2  0  0  0  0
  8 12  1  0  0  0  0
  9 11  1  0  0  0  0
 10 13  1  0  0  0  0
 11 13  2  0  0  0  0
 12 10  2  0  0  0  0
 14  8  1  0  0  0  0
 16 15  1  1  0  0  0
 16 17  1  0  0  0  0
 18 20  1  0  0  0  0
 18 17  1  0  0  0  0
 19 20  2  0  0  0  0
 20 21  1  0  0  0  0
 22 23  3  0  0  0  0
 24 26  1  0  0  0  0
 25 27  1  0  0  0  0
 26 25  2  0  0  0  0
 27 29  1  0  0  0  0
 29 30  1  0  0  0  0
 29 33  2  0  0  0  0
 30 28  1  6  0  0  0
 30 34  1  0  0  0  0
 32 31  1  0  0  0  0
 33 32  1  0  0  0  0
 34 31  1  0  0  0  0
M  END
>  <MODEL>
2

>  <REMARK>
 VINA RESULT:      -7.9      3.301      8.110
  Name = 
  10 active torsions:
  status: ('A' for Active; 'I' for Inactive)
    1  A    between atoms: C_3  and  C_13
    2  A    between atoms: C_3  and  C_17
    3  A    between atoms: C_4  and  C_15
    4  A    between atoms: N_5  and  C_18
    5  A    between atoms: C_6  and  C_9
    6  A    between atoms: C_9  and  N_25
    7  A    between atoms: C_12  and  C_28
    8  A    between atoms: C_15  and  N_25
    9  A    between atoms: C_18  and  C_29
   10  A    between atoms: C_21  and  C_32
                            x       y       z     vdW  Elec       q    Type
                         _______ _______ _______ _____ _____    ______ ____

>  <TORSDO>
F 10

$$$$
=
 OpenBabel10252415103D

 34 36  0  0  1  0  0  0  0  0999 V2000
  188.4040  176.9990  144.8990 C   0  0  2  0  0  3  0  0  0  0  0  0
  186.5450  177.8010  143.4750 N   0  0  0  0  0  0  0  0  0  0  0  0
  186.1260  177.3690  145.8670 C   0  0  0  0  0  1  0  0  0  0  0  0
  189.3170  177.2070  143.6820 C   0  0  1  0  0  3  0  0  0  0  0  0
  187.4650  178.2480  142.5720 O   0  0  0  0  0  0  0  0  0  0  0  0
  188.4170  177.2220  142.4430 C   0  0  1  0  0  3  0  0  0  0  0  0
  187.1290  177.8740  144.8330 C   0  0  1  0  0  3  0  0  0  0  0  0
  189.3590  178.2390  138.9160 C   0  0  0  0  0  0  0  0  0  0  0  0
  190.5380  177.5170  138.7150 C   0  0  0  0  0  3  0  0  0  0  0  0
  189.1750  177.3200  141.1530 C   0  0  0  0  0  0  0  0  0  0  0  0
  191.0370  176.6920  139.7270 C   0  0  0  0  0  3  0  0  0  0  0  0
  188.6770  178.1380  140.1330 C   0  0  0  0  0  3  0  0  0  0  0  0
  190.3560  176.5930  140.9450 C   0  0  0  0  0  3  0  0  0  0  0  0
  188.8760  179.0360  137.9350 F   0  0  0  0  0  0  0  0  0  0  0  0
  189.0180  178.2840  146.8410 O   0  0  0  0  0  1  0  0  0  0  0  0
  189.1640  177.0350  146.2360 C   0  0  2  0  0  3  0  0  0  0  0  0
  190.5770  176.7360  146.0520 N   0  0  0  0  0  2  0  0  0  0  0  0
  191.2120  176.8520  147.3540 C   0  0  0  0  0  2  0  0  0  0  0  0
  193.2290  175.9280  148.5430 N   0  0  0  0  0  1  0  0  0  0  0  0
  192.2920  175.8360  147.4770 C   0  0  0  0  0  0  0  0  0  0  0  0
  192.4940  174.9960  146.5180 N   0  0  0  0  0  2  0  0  0  0  0  0
  190.7380  179.4760  143.8820 C   0  0  0  0  0  3  0  0  0  0  0  0
  190.1010  178.4560  143.7930 C   0  0  0  0  0  0  0  0  0  0  0  0
  185.4300  178.7370  143.3950 C   0  0  0  0  0  2  0  0  0  0  0  0
  184.5590  179.0610  141.0760 C   0  0  0  0  0  3  0  0  0  0  0  0
  185.4170  179.3900  142.0480 C   0  0  0  0  0  3  0  0  0  0  0  0
  183.5180  177.9840  141.1980 C   0  0  0  0  0  2  0  0  0  0  0  0
  181.3160  177.8120  139.2150 O   0  0  0  0  0  1  0  0  0  0  0  0
  182.1190  178.5130  141.3540 C   0  0  0  0  0  0  0  0  0  0  0  0
  181.3660  178.8940  140.0950 C   0  0  2  0  0  3  0  0  0  0  0  0
  179.9120  180.3250  141.5600 C   0  0  0  0  0  2  0  0  0  0  0  0
  180.3330  179.5210  142.7820 C   0  0  0  0  0  2  0  0  0  0  0  0
  181.6840  178.8990  142.5700 C   0  0  0  0  0  3  0  0  0  0  0  0
  179.9480  179.4100  140.3460 C   0  0  0  0  0  2  0  0  0  0  0  0
  1 16  1  1  0  0  0
  2  7  1  0  0  0  0
  4 23  1  1  0  0  0
  4  1  1  0  0  0  0
  5  2  1  0  0  0  0
  6 10  1  6  0  0  0
  6  5  1  0  0  0  0
  6  4  1  0  0  0  0
  7  1  1  0  0  0  0
  7  3  1  1  0  0  0
  8 12  1  0  0  0  0
  9  8  2  0  0  0  0
  9 11  1  0  0  0  0
 11 13  2  0  0  0  0
 12 10  2  0  0  0  0
 13 10  1  0  0  0  0
 14  8  1  0  0  0  0
 16 15  1  6  0  0  0
 17 16  1  0  0  0  0
 17 18  1  0  0  0  0
 18 20  1  0  0  0  0
 20 19  1  0  0  0  0
 21 20  2  0  0  0  0
 23 22  3  0  0  0  0
 24  2  1  0  0  0  0
 25 27  1  0  0  0  0
 25 26  2  0  0  0  0
 26 24  1  0  0  0  0
 27 29  1  0  0  0  0
 29 33  2  0  0  0  0
 30 28  1  6  0  0  0
 30 34  1  0  0  0  0
 30 29  1  0  0  0  0
 31 32  1  0  0  0  0
 33 32  1  0  0  0  0
 34 31  1  0  0  0  0
M  END
>  <MODEL>
3

>  <REMARK>
 VINA RESULT:      -7.9      1.529      2.422
  Name = 
  10 active torsions:
  status: ('A' for Active; 'I' for Inactive)
    1  A    between atoms: C_3  and  C_13
    2  A    between atoms: C_3  and  C_17
    3  A    between atoms: C_4  and  C_15
    4  A    between atoms: N_5  and  C_18
    5  A    between atoms: C_6  and  C_9
    6  A    between atoms: C_9  and  N_25
    7  A    between atoms: C_12  and  C_28
    8  A    between atoms: C_15  and  N_25
    9  A    between atoms: C_18  and  C_29
   10  A    between atoms: C_21  and  C_32
                            x       y       z     vdW  Elec       q    Type
                         _______ _______ _______ _____ _____    ______ ____

>  <TORSDO>
F 10

$$$$
=
 OpenBabel10252415103D

 34 36  0  0  1  0  0  0  0  0999 V2000
  181.5760  179.0310  140.8940 C   0  0  2  0  0  3  0  0  0  0  0  0
  183.1050  179.0790  142.8400 N   0  0  0  0  0  0  0  0  0  0  0  0
  180.7010  179.5100  143.1900 C   0  0  0  0  0  1  0  0  0  0  0  0
  182.7790  178.5550  140.0660 C   0  0  1  0  0  3  0  0  0  0  0  0
  184.0110  178.3630  142.1130 O   0  0  0  0  0  0  0  0  0  0  0  0
  184.0410  178.9530  140.8380 C   0  0  1  0  0  3  0  0  0  0  0  0
  181.7400  178.7160  142.4010 C   0  0  1  0  0  3  0  0  0  0  0  0
  187.7170  178.3310  140.1610 C   0  0  0  0  0  0  0  0  0  0  0  0
  187.7190  178.0920  138.7840 C   0  0  0  0  0  3  0  0  0  0  0  0
  185.3130  178.6420  140.1070 C   0  0  0  0  0  0  0  0  0  0  0  0
  186.5210  178.1310  138.0640 C   0  0  0  0  0  3  0  0  0  0  0  0
  186.5160  178.6080  140.8200 C   0  0  0  0  0  3  0  0  0  0  0  0
  185.3200  178.4060  138.7240 C   0  0  0  0  0  3  0  0  0  0  0  0
  188.8780  178.2940  140.8570 F   0  0  0  0  0  0  0  0  0  0  0  0
  179.3490  179.7210  140.2920 O   0  0  0  0  0  1  0  0  0  0  0  0
  180.2240  178.6350  140.2770 C   0  0  2  0  0  3  0  0  0  0  0  0
  179.6280  177.5100  140.9830 N   0  0  0  0  0  2  0  0  0  0  0  0
  178.9620  176.6840  139.9900 C   0  0  0  0  0  2  0  0  0  0  0  0
  178.9880  174.8880  141.7530 N   0  0  0  0  0  1  0  0  0  0  0  0
  179.0610  175.2520  140.3800 C   0  0  0  0  0  0  0  0  0  0  0  0
  179.4040  174.3710  139.5010 N   0  0  0  0  0  2  0  0  0  0  0  0
  182.6960  175.9080  139.6270 C   0  0  0  0  0  3  0  0  0  0  0  0
  182.7340  177.0980  139.8220 C   0  0  0  0  0  0  0  0  0  0  0  0
  183.2820  178.6470  144.2220 C   0  0  0  0  0  2  0  0  0  0  0  0
  185.4150  179.0360  145.4620 C   0  0  0  0  0  3  0  0  0  0  0  0
  184.3030  179.5120  144.8940 C   0  0  0  0  0  3  0  0  0  0  0  0
  185.7760  177.5780  145.5220 C   0  0  0  0  0  2  0  0  0  0  0  0
  187.9030  177.1670  147.5500 O   0  0  0  0  0  1  0  0  0  0  0  0
  187.2320  177.3060  145.2610 C   0  0  0  0  0  0  0  0  0  0  0  0
  188.2280  177.7360  146.3180 C   0  0  2  0  0  3  0  0  0  0  0  0
  189.9680  177.6810  144.5070 C   0  0  0  0  0  2  0  0  0  0  0  0
  189.0820  176.7710  143.6690 C   0  0  0  0  0  2  0  0  0  0  0  0
  187.6340  176.9670  144.0200 C   0  0  0  0  0  3  0  0  0  0  0  0
  189.6830  177.4090  145.9770 C   0  0  0  0  0  2  0  0  0  0  0  0
  1 16  1  6  0  0  0
  1  7  1  0  0  0  0
  2 24  1  0  0  0  0
  4 23  1  1  0  0  0
  4  6  1  0  0  0  0
  4  1  1  0  0  0  0
  5  2  1  0  0  0  0
  6 10  1  6  0  0  0
  6  5  1  0  0  0  0
  7  2  1  0  0  0  0
  7  3  1  1  0  0  0
  8 12  1  0  0  0  0
  8 14  1  0  0  0  0
  9  8  2  0  0  0  0
 10 12  2  0  0  0  0
 11 13  2  0  0  0  0
 11  9  1  0  0  0  0
 13 10  1  0  0  0  0
 16 15  1  1  0  0  0
 16 17  1  0  0  0  0
 18 20  1  0  0  0  0
 18 17  1  0  0  0  0
 20 19  1  0  0  0  0
 21 20  2  0  0  0  0
 22 23  3  0  0  0  0
 24 26  1  0  0  0  0
 25 27  1  0  0  0  0
 26 25  2  0  0  0  0
 29 27  1  0  0  0  0
 29 30  1  0  0  0  0
 30 28  1  1  0  0  0
 31 34  1  0  0  0  0
 32 33  1  0  0  0  0
 32 31  1  0  0  0  0
 33 29  2  0  0  0  0
 34 30  1  0  0  0  0
M  END
>  <MODEL>
4

>  <REMARK>
 VINA RESULT:      -7.8      3.732      8.448
  Name = 
  10 active torsions:
  status: ('A' for Active; 'I' for Inactive)
    1  A    between atoms: C_3  and  C_13
    2  A    between atoms: C_3  and  C_17
    3  A    between atoms: C_4  and  C_15
    4  A    between atoms: N_5  and  C_18
    5  A    between atoms: C_6  and  C_9
    6  A    between atoms: C_9  and  N_25
    7  A    between atoms: C_12  and  C_28
    8  A    between atoms: C_15  and  N_25
    9  A    between atoms: C_18  and  C_29
   10  A    between atoms: C_21  and  C_32
                            x       y       z     vdW  Elec       q    Type
                         _______ _______ _______ _____ _____    ______ ____

>  <TORSDO>
F 10

$$$$
=
 OpenBabel10252415103D

 34 36  0  0  1  0  0  0  0  0999 V2000
  181.6320  179.0560  140.8590 C   0  0  2  0  0  3  0  0  0  0  0  0
  183.1330  178.9810  142.8260 N   0  0  0  0  0  0  0  0  0  0  0  0
  180.7350  179.4500  143.1620 C   0  0  0  0  0  1  0  0  0  0  0  0
  182.8360  178.5900  140.0260 C   0  0  1  0  0  3  0  0  0  0  0  0
  184.0340  178.2770  142.0790 O   0  0  0  0  0  0  0  0  0  0  0  0
  184.0950  178.9240  140.8320 C   0  0  1  0  0  3  0  0  0  0  0  0
  181.7670  178.6690  142.3520 C   0  0  1  0  0  3  0  0  0  0  0  0
  187.7750  178.3070  140.1680 C   0  0  0  0  0  0  0  0  0  0  0  0
  187.7830  178.0740  138.7900 C   0  0  0  0  0  3  0  0  0  0  0  0
  185.3700  178.6160  140.1060 C   0  0  0  0  0  0  0  0  0  0  0  0
  186.5880  178.1150  138.0660 C   0  0  0  0  0  3  0  0  0  0  0  0
  186.5710  178.5810  140.8240 C   0  0  0  0  0  3  0  0  0  0  0  0
  185.3830  178.3860  138.7220 C   0  0  0  0  0  3  0  0  0  0  0  0
  188.9330  178.2680  140.8690 F   0  0  0  0  0  0  0  0  0  0  0  0
  179.8400  177.4650  140.6270 O   0  0  0  0  0  1  0  0  0  0  0  0
  180.2810  178.7200  140.2060 C   0  0  2  0  0  3  0  0  0  0  0  0
  180.3710  178.7500  138.7530 N   0  0  0  0  0  2  0  0  0  0  0  0
  179.7000  179.9600  138.3070 C   0  0  0  0  0  2  0  0  0  0  0  0
  181.1550  182.0120  138.3530 N   0  0  0  0  0  1  0  0  0  0  0  0
  180.6810  180.8670  137.6550 C   0  0  0  0  0  0  0  0  0  0  0  0
  180.9490  180.7260  136.4000 N   0  0  0  0  0  2  0  0  0  0  0  0
  182.7000  175.9690  139.4600 C   0  0  0  0  0  3  0  0  0  0  0  0
  182.7620  177.1470  139.7160 C   0  0  0  0  0  0  0  0  0  0  0  0
  183.2800  178.4820  144.1880 C   0  0  0  0  0  2  0  0  0  0  0  0
  185.3320  179.1830  145.4290 C   0  0  0  0  0  3  0  0  0  0  0  0
  184.0960  179.4460  144.9920 C   0  0  0  0  0  3  0  0  0  0  0  0
  186.0530  177.8850  145.1930 C   0  0  0  0  0  2  0  0  0  0  0  0
  188.7300  177.9410  143.9140 O   0  0  0  0  0  1  0  0  0  0  0  0
  187.3860  177.8020  145.8850 C   0  0  0  0  0  0  0  0  0  0  0  0
  188.5500  177.2300  145.1010 C   0  0  2  0  0  3  0  0  0  0  0  0
  189.6380  176.7680  147.3170 C   0  0  0  0  0  2  0  0  0  0  0  0
  188.7370  177.7950  147.9870 C   0  0  0  0  0  2  0  0  0  0  0  0
  187.4540  177.9560  147.2220 C   0  0  0  0  0  3  0  0  0  0  0  0
  189.8690  177.1960  145.8760 C   0  0  0  0  0  2  0  0  0  0  0  0
  1 16  1  6  0  0  0
  1  7  1  0  0  0  0
  2 24  1  0  0  0  0
  4 23  1  1  0  0  0
  4  6  1  0  0  0  0
  4  1  1  0  0  0  0
  5  2  1  0  0  0  0
  6 10  1  6  0  0  0
  6  5  1  0  0  0  0
  7  2  1  0  0  0  0
  7  3  1  1  0  0  0
  8 12  1  0  0  0  0
  8 14  1  0  0  0  0
  9  8  2  0  0  0  0
 10 12  2  0  0  0  0
 11 13  2  0  0  0  0
 11  9  1  0  0  0  0
 13 10  1  0  0  0  0
 16 15  1  6  0  0  0
 17 16  1  0  0  0  0
 18 17  1  0  0  0  0
 20 18  1  0  0  0  0
 20 19  1  0  0  0  0
 21 20  2  0  0  0  0
 22 23  3  0  0  0  0
 24 26  1  0  0  0  0
 26 25  2  0  0  0  0
 27 25  1  0  0  0  0
 27 29  1  0  0  0  0
 29 33  2  0  0  0  0
 30 28  1  6  0  0  0
 30 34  1  0  0  0  0
 30 29  1  0  0  0  0
 31 32  1  0  0  0  0
 33 32  1  0  0  0  0
 34 31  1  0  0  0  0
M  END
>  <MODEL>
5

>  <REMARK>
 VINA RESULT:      -7.6      3.758      8.867
  Name = 
  10 active torsions:
  status: ('A' for Active; 'I' for Inactive)
    1  A    between atoms: C_3  and  C_13
    2  A    between atoms: C_3  and  C_17
    3  A    between atoms: C_4  and  C_15
    4  A    between atoms: N_5  and  C_18
    5  A    between atoms: C_6  and  C_9
    6  A    between atoms: C_9  and  N_25
    7  A    between atoms: C_12  and  C_28
    8  A    between atoms: C_15  and  N_25
    9  A    between atoms: C_18  and  C_29
   10  A    between atoms: C_21  and  C_32
                            x       y       z     vdW  Elec       q    Type
                         _______ _______ _______ _____ _____    ______ ____

>  <TORSDO>
F 10

$$$$
=
 OpenBabel10252415103D

 34 36  0  0  1  0  0  0  0  0999 V2000
  181.8410  179.0340  140.8160 C   0  0  2  0  0  3  0  0  0  0  0  0
  183.4060  179.0450  142.7340 N   0  0  0  0  0  0  0  0  0  0  0  0
  181.0120  179.4840  143.1350 C   0  0  0  0  0  1  0  0  0  0  0  0
  183.0260  178.5620  139.9590 C   0  0  1  0  0  3  0  0  0  0  0  0
  184.2940  178.3340  141.9800 O   0  0  0  0  0  0  0  0  0  0  0  0
  184.3040  178.9410  140.7130 C   0  0  1  0  0  3  0  0  0  0  0  0
  182.0310  178.6960  142.3150 C   0  0  1  0  0  3  0  0  0  0  0  0
  187.9570  178.2640  139.9660 C   0  0  0  0  0  0  0  0  0  0  0  0
  187.9380  178.0850  138.5800 C   0  0  0  0  0  3  0  0  0  0  0  0
  185.5600  178.6320  139.9550 C   0  0  0  0  0  0  0  0  0  0  0  0
  186.7340  178.1830  137.8770 C   0  0  0  0  0  3  0  0  0  0  0  0
  186.7700  178.5400  140.6520 C   0  0  0  0  0  3  0  0  0  0  0  0
  185.5460  178.4570  138.5630 C   0  0  0  0  0  3  0  0  0  0  0  0
  189.1240  178.1700  140.6460 F   0  0  0  0  0  0  0  0  0  0  0  0
  180.0930  177.3860  140.6550 O   0  0  0  0  0  1  0  0  0  0  0  0
  180.4760  178.6540  140.2190 C   0  0  2  0  0  3  0  0  0  0  0  0
  180.5050  178.6890  138.7630 N   0  0  0  0  0  2  0  0  0  0  0  0
  179.6540  177.6090  138.2920 C   0  0  0  0  0  2  0  0  0  0  0  0
  181.1800  177.7840  136.2980 N   0  0  0  0  0  2  0  0  0  0  0  0
  180.2090  177.0480  137.0310 C   0  0  0  0  0  0  0  0  0  0  0  0
  179.6730  175.9970  136.5070 N   0  0  0  0  0  1  0  0  0  0  0  0
  182.9190  175.9230  139.4780 C   0  0  0  0  0  3  0  0  0  0  0  0
  182.9670  177.1080  139.6960 C   0  0  0  0  0  0  0  0  0  0  0  0
  183.6060  178.5920  144.1060 C   0  0  0  0  0  2  0  0  0  0  0  0
  185.4110  179.2490  145.7030 C   0  0  0  0  0  3  0  0  0  0  0  0
  184.4390  179.5880  144.8500 C   0  0  0  0  0  3  0  0  0  0  0  0
  185.7780  177.8310  146.0440 C   0  0  0  0  0  2  0  0  0  0  0  0
  188.2380  177.1340  147.5520 O   0  0  0  0  0  1  0  0  0  0  0  0
  187.0970  177.3950  145.4670 C   0  0  0  0  0  0  0  0  0  0  0  0
  188.3470  177.6850  146.2740 C   0  0  2  0  0  3  0  0  0  0  0  0
  189.6230  177.4600  144.1220 C   0  0  0  0  0  2  0  0  0  0  0  0
  188.4720  176.6770  143.5090 C   0  0  0  0  0  2  0  0  0  0  0  0
  187.1720  177.0340  144.1720 C   0  0  0  0  0  3  0  0  0  0  0  0
  189.6410  177.1960  145.6200 C   0  0  0  0  0  2  0  0  0  0  0  0
  1 16  1  6  0  0  0
  1  7  1  0  0  0  0
  2 24  1  0  0  0  0
  4 23  1  1  0  0  0
  4  6  1  0  0  0  0
  4  1  1  0  0  0  0
  5  2  1  0  0  0  0
  6 10  1  6  0  0  0
  6  5  1  0  0  0  0
  7  2  1  0  0  0  0
  7  3  1  1  0  0  0
  8 14  1  0  0  0  0
  8 12  1  0  0  0  0
  9  8  2  0  0  0  0
 10 12  2  0  0  0  0
 11 13  2  0  0  0  0
 11  9  1  0  0  0  0
 13 10  1  0  0  0  0
 16 15  1  6  0  0  0
 17 16  1  0  0  0  0
 18 17  1  0  0  0  0
 19 20  2  0  0  0  0
 20 18  1  0  0  0  0
 21 20  1  0  0  0  0
 22 23  3  0  0  0  0
 24 26  1  0  0  0  0
 25 27  1  0  0  0  0
 26 25  2  0  0  0  0
 29 27  1  0  0  0  0
 29 30  1  0  0  0  0
 30 28  1  1  0  0  0
 31 34  1  0  0  0  0
 32 31  1  0  0  0  0
 32 33  1  0  0  0  0
 33 29  2  0  0  0  0
 34 30  1  0  0  0  0
M  END
>  <MODEL>
6

>  <REMARK>
 VINA RESULT:      -7.4      3.657      8.599
  Name = 
  10 active torsions:
  status: ('A' for Active; 'I' for Inactive)
    1  A    between atoms: C_3  and  C_13
    2  A    between atoms: C_3  and  C_17
    3  A    between atoms: C_4  and  C_15
    4  A    between atoms: N_5  and  C_18
    5  A    between atoms: C_6  and  C_9
    6  A    between atoms: C_9  and  N_25
    7  A    between atoms: C_12  and  C_28
    8  A    between atoms: C_15  and  N_25
    9  A    between atoms: C_18  and  C_29
   10  A    between atoms: C_21  and  C_32
                            x       y       z     vdW  Elec       q    Type
                         _______ _______ _______ _____ _____    ______ ____

>  <TORSDO>
F 10

$$$$
=
 OpenBabel10252415103D

 34 36  0  0  1  0  0  0  0  0999 V2000
  189.9330  177.7350  141.6430 C   0  0  2  0  0  3  0  0  0  0  0  0
  187.7520  178.1430  142.7400 N   0  0  0  0  0  0  0  0  0  0  0  0
  187.9280  178.3800  140.2910 C   0  0  0  0  0  1  0  0  0  0  0  0
  190.4470  177.2850  143.0190 C   0  0  1  0  0  3  0  0  0  0  0  0
  188.1940  177.4390  143.8220 O   0  0  0  0  0  0  0  0  0  0  0  0
  189.5040  177.8840  144.0680 C   0  0  1  0  0  3  0  0  0  0  0  0
  188.3950  177.6050  141.5210 C   0  0  1  0  0  3  0  0  0  0  0  0
  189.4130  177.6460  147.8490 C   0  0  0  0  0  0  0  0  0  0  0  0
  190.6900  177.1550  148.1360 C   0  0  0  0  0  3  0  0  0  0  0  0
  189.9310  177.6140  145.4800 C   0  0  0  0  0  0  0  0  0  0  0  0
  191.5910  176.8960  147.0990 C   0  0  0  0  0  3  0  0  0  0  0  0
  189.0360  177.8780  146.5230 C   0  0  0  0  0  3  0  0  0  0  0  0
  191.2130  177.1260  145.7730 C   0  0  0  0  0  3  0  0  0  0  0  0
  188.5420  177.8970  148.8530 F   0  0  0  0  0  0  0  0  0  0  0  0
  192.0900  177.4890  140.6000 O   0  0  0  0  0  1  0  0  0  0  0  0
  190.7430  177.1470  140.4750 C   0  0  2  0  0  3  0  0  0  0  0  0
  190.2330  177.6060  139.1910 N   0  0  0  0  0  2  0  0  0  0  0  0
  190.8750  176.8040  138.1630 C   0  0  0  0  0  2  0  0  0  0  0  0
  190.6290  174.3650  137.5940 N   0  0  0  0  0  1  0  0  0  0  0  0
  190.0230  175.6280  137.8390 C   0  0  0  0  0  0  0  0  0  0  0  0
  188.7680  175.7960  137.5910 N   0  0  0  0  0  2  0  0  0  0  0  0
  190.5560  174.6100  143.2180 C   0  0  0  0  0  3  0  0  0  0  0  0
  190.5070  175.8120  143.1270 C   0  0  0  0  0  0  0  0  0  0  0  0
  186.3180  177.8850  142.6640 C   0  0  0  0  0  2  0  0  0  0  0  0
  184.6260  178.5460  144.3770 C   0  0  0  0  0  3  0  0  0  0  0  0
  185.7340  177.8780  144.0420 C   0  0  0  0  0  3  0  0  0  0  0  0
  183.8370  179.4060  143.4290 C   0  0  0  0  0  2  0  0  0  0  0  0
  183.1970  177.8670  140.9730 O   0  0  0  0  0  1  0  0  0  0  0  0
  182.5040  178.8210  143.0520 C   0  0  0  0  0  0  0  0  0  0  0  0
  182.2060  178.6420  141.5770 C   0  0  2  0  0  3  0  0  0  0  0  0
  179.7760  178.6070  142.2120 C   0  0  0  0  0  2  0  0  0  0  0  0
  180.1440  178.2530  143.6450 C   0  0  0  0  0  2  0  0  0  0  0  0
  181.5260  178.7410  143.9760 C   0  0  0  0  0  3  0  0  0  0  0  0
  180.8350  178.0290  141.2850 C   0  0  0  0  0  2  0  0  0  0  0  0
  1 16  1  6  0  0  0
  1  4  1  0  0  0  0
  2  5  1  0  0  0  0
  4 23  1  6  0  0  0
  4  6  1  0  0  0  0
  5  6  1  0  0  0  0
  6 10  1  1  0  0  0
  7  3  1  6  0  0  0
  7  1  1  0  0  0  0
  7  2  1  0  0  0  0
  8  9  1  0  0  0  0
  8 14  1  0  0  0  0
 10 13  2  0  0  0  0
 10 12  1  0  0  0  0
 11  9  2  0  0  0  0
 12  8  2  0  0  0  0
 13 11  1  0  0  0  0
 16 15  1  1  0  0  0
 17 16  1  0  0  0  0
 18 17  1  0  0  0  0
 19 20  1  0  0  0  0
 20 18  1  0  0  0  0
 21 20  2  0  0  0  0
 23 22  3  0  0  0  0
 24  2  1  0  0  0  0
 24 26  1  0  0  0  0
 26 25  2  0  0  0  0
 27 25  1  0  0  0  0
 29 27  1  0  0  0  0
 29 33  2  0  0  0  0
 30 28  1  1  0  0  0
 30 29  1  0  0  0  0
 31 32  1  0  0  0  0
 32 33  1  0  0  0  0
 34 30  1  0  0  0  0
 34 31  1  0  0  0  0
M  END
>  <MODEL>
7

>  <REMARK>
 VINA RESULT:      -7.1      3.506      6.253
  Name = 
  10 active torsions:
  status: ('A' for Active; 'I' for Inactive)
    1  A    between atoms: C_3  and  C_13
    2  A    between atoms: C_3  and  C_17
    3  A    between atoms: C_4  and  C_15
    4  A    between atoms: N_5  and  C_18
    5  A    between atoms: C_6  and  C_9
    6  A    between atoms: C_9  and  N_25
    7  A    between atoms: C_12  and  C_28
    8  A    between atoms: C_15  and  N_25
    9  A    between atoms: C_18  and  C_29
   10  A    between atoms: C_21  and  C_32
                            x       y       z     vdW  Elec       q    Type
                         _______ _______ _______ _____ _____    ______ ____

>  <TORSDO>
F 10

$$$$
=
 OpenBabel10252415103D

 34 36  0  0  1  0  0  0  0  0999 V2000
  185.3490  178.2540  139.8220 C   0  0  2  0  0  3  0  0  0  0  0  0
  184.9520  178.5970  142.2410 N   0  0  0  0  0  0  0  0  0  0  0  0
  187.2640  178.6470  141.3840 C   0  0  0  0  0  1  0  0  0  0  0  0
  183.8220  178.2700  139.6540 C   0  0  1  0  0  3  0  0  0  0  0  0
  183.6540  178.9130  141.9570 O   0  0  0  0  0  0  0  0  0  0  0  0
  183.2160  177.9560  141.0250 C   0  0  1  0  0  3  0  0  0  0  0  0
  185.8060  178.9970  141.1010 C   0  0  1  0  0  3  0  0  0  0  0  0
  179.7310  176.7800  140.1120 C   0  0  0  0  0  0  0  0  0  0  0  0
  178.9320  177.6010  140.9130 C   0  0  0  0  0  3  0  0  0  0  0  0
  181.7210  177.8390  141.0060 C   0  0  0  0  0  0  0  0  0  0  0  0
  179.5230  178.5450  141.7580 C   0  0  0  0  0  3  0  0  0  0  0  0
  181.1230  176.9010  140.1570 C   0  0  0  0  0  3  0  0  0  0  0  0
  180.9160  178.6640  141.8040 C   0  0  0  0  0  3  0  0  0  0  0  0
  179.1580  175.8670  139.2930 F   0  0  0  0  0  0  0  0  0  0  0  0
  185.6260  177.8740  137.4610 O   0  0  0  0  0  1  0  0  0  0  0  0
  186.1020  178.6270  138.5340 C   0  0  2  0  0  3  0  0  0  0  0  0
  187.5370  178.4280  138.6810 N   0  0  0  0  0  2  0  0  0  0  0  0
  187.8770  177.2120  137.9610 C   0  0  0  0  0  2  0  0  0  0  0  0
  188.9030  177.7820  135.7350 N   0  0  0  0  0  2  0  0  0  0  0  0
  189.0710  177.4530  137.1080 C   0  0  0  0  0  0  0  0  0  0  0  0
  190.2480  177.1730  137.5590 N   0  0  0  0  0  1  0  0  0  0  0  0
  182.9500  180.6310  138.7180 C   0  0  0  0  0  3  0  0  0  0  0  0
  183.3420  179.5700  139.1370 C   0  0  0  0  0  0  0  0  0  0  0  0
  185.3070  179.4090  143.3990 C   0  0  0  0  0  2  0  0  0  0  0  0
  185.7950  177.7250  145.1780 C   0  0  0  0  0  3  0  0  0  0  0  0
  184.9940  178.6590  144.6560 C   0  0  0  0  0  3  0  0  0  0  0  0
  187.0970  177.2890  144.5650 C   0  0  0  0  0  2  0  0  0  0  0  0
  189.9220  177.7840  143.8010 O   0  0  0  0  0  1  0  0  0  0  0  0
  188.2730  177.4200  145.4930 C   0  0  0  0  0  0  0  0  0  0  0  0
  189.6390  177.0480  144.9520 C   0  0  2  0  0  3  0  0  0  0  0  0
  190.3550  176.7560  147.3420 C   0  0  0  0  0  2  0  0  0  0  0  0
  189.1930  177.6210  147.8070 C   0  0  0  0  0  2  0  0  0  0  0  0
  188.0660  177.5760  146.8150 C   0  0  0  0  0  3  0  0  0  0  0  0
  190.7790  177.2230  145.9580 C   0  0  0  0  0  2  0  0  0  0  0  0
  1 16  1  6  0  0  0
  1  7  1  0  0  0  0
  2 24  1  0  0  0  0
  4 23  1  1  0  0  0
  4  1  1  0  0  0  0
  4  6  1  0  0  0  0
  5  2  1  0  0  0  0
  6 10  1  6  0  0  0
  6  5  1  0  0  0  0
  7  3  1  1  0  0  0
  7  2  1  0  0  0  0
  8 12  2  0  0  0  0
  8  9  1  0  0  0  0
  9 11  2  0  0  0  0
 10 13  2  0  0  0  0
 11 13  1  0  0  0  0
 12 10  1  0  0  0  0
 14  8  1  0  0  0  0
 16 15  1  6  0  0  0
 16 17  1  0  0  0  0
 18 17  1  0  0  0  0
 19 20  2  0  0  0  0
 20 21  1  0  0  0  0
 20 18  1  0  0  0  0
 22 23  3  0  0  0  0
 24 26  1  0  0  0  0
 26 25  2  0  0  0  0
 27 25  1  0  0  0  0
 27 29  1  0  0  0  0
 29 33  2  0  0  0  0
 30 28  1  6  0  0  0
 30 29  1  0  0  0  0
 30 34  1  0  0  0  0
 31 32  1  0  0  0  0
 33 32  1  0  0  0  0
 34 31  1  0  0  0  0
M  END
>  <MODEL>
8

>  <REMARK>
 VINA RESULT:      -7.1      3.793      8.607
  Name = 
  10 active torsions:
  status: ('A' for Active; 'I' for Inactive)
    1  A    between atoms: C_3  and  C_13
    2  A    between atoms: C_3  and  C_17
    3  A    between atoms: C_4  and  C_15
    4  A    between atoms: N_5  and  C_18
    5  A    between atoms: C_6  and  C_9
    6  A    between atoms: C_9  and  N_25
    7  A    between atoms: C_12  and  C_28
    8  A    between atoms: C_15  and  N_25
    9  A    between atoms: C_18  and  C_29
   10  A    between atoms: C_21  and  C_32
                            x       y       z     vdW  Elec       q    Type
                         _______ _______ _______ _____ _____    ______ ____

>  <TORSDO>
F 10

$$$$
=
 OpenBabel10252415103D

 34 36  0  0  1  0  0  0  0  0999 V2000
  190.4990  177.7460  141.5460 C   0  0  2  0  0  3  0  0  0  0  0  0
  188.2110  178.5460  142.0490 N   0  0  0  0  0  0  0  0  0  0  0  0
  189.0380  178.6530  139.7270 C   0  0  0  0  0  1  0  0  0  0  0  0
  190.5660  177.2750  143.0070 C   0  0  1  0  0  3  0  0  0  0  0  0
  188.2410  177.8240  143.2070 O   0  0  0  0  0  0  0  0  0  0  0  0
  189.5020  178.0600  143.7810 C   0  0  1  0  0  3  0  0  0  0  0  0
  189.0430  177.8630  141.0340 C   0  0  1  0  0  3  0  0  0  0  0  0
  188.3080  177.7210  147.3610 C   0  0  0  0  0  0  0  0  0  0  0  0
  189.4710  177.3020  148.0130 C   0  0  0  0  0  3  0  0  0  0  0  0
  189.5070  177.7810  145.2540 C   0  0  0  0  0  0  0  0  0  0  0  0
  190.6550  177.1250  147.2910 C   0  0  0  0  0  3  0  0  0  0  0  0
  188.3270  177.9630  145.9840 C   0  0  0  0  0  3  0  0  0  0  0  0
  190.6730  177.3650  145.9130 C   0  0  0  0  0  3  0  0  0  0  0  0
  187.1630  177.8940  148.0620 F   0  0  0  0  0  0  0  0  0  0  0  0
  192.4310  177.8600  140.1130 O   0  0  0  0  0  1  0  0  0  0  0  0
  191.4680  176.9880  140.6230 C   0  0  2  0  0  3  0  0  0  0  0  0
  190.7590  176.3390  139.5280 N   0  0  0  0  0  2  0  0  0  0  0  0
  191.6330  176.3790  138.3680 C   0  0  0  0  0  2  0  0  0  0  0  0
  190.5710  174.2410  137.5730 N   0  0  0  0  0  2  0  0  0  0  0  0
  191.7430  175.0190  137.7760 C   0  0  0  0  0  0  0  0  0  0  0  0
  192.9060  174.4760  137.6310 N   0  0  0  0  0  1  0  0  0  0  0  0
  190.1760  174.6270  143.2150 C   0  0  0  0  0  3  0  0  0  0  0  0
  190.3500  175.8170  143.1220 C   0  0  0  0  0  0  0  0  0  0  0  0
  186.8210  178.5210  141.6080 C   0  0  0  0  0  2  0  0  0  0  0  0
  184.6470  178.1500  142.7810 C   0  0  0  0  0  3  0  0  0  0  0  0
  185.9620  177.9300  142.6820 C   0  0  0  0  0  3  0  0  0  0  0  0
  183.8660  179.0330  141.8480 C   0  0  0  0  0  2  0  0  0  0  0  0
  184.5920  179.8860  139.1000 O   0  0  0  0  0  1  0  0  0  0  0  0
  183.4800  178.3560  140.5610 C   0  0  0  0  0  0  0  0  0  0  0  0
  183.3880  179.2150  139.3160 C   0  0  2  0  0  3  0  0  0  0  0  0
  181.9200  177.4200  138.3520 C   0  0  0  0  0  2  0  0  0  0  0  0
  182.4700  176.4160  139.3530 C   0  0  0  0  0  2  0  0  0  0  0  0
  182.9610  177.1130  140.5910 C   0  0  0  0  0  3  0  0  0  0  0  0
  183.0030  178.4450  138.0520 C   0  0  0  0  0  2  0  0  0  0  0  0
  1 16  1  6  0  0  0
  1  4  1  0  0  0  0
  2  5  1  0  0  0  0
  4 23  1  6  0  0  0
  4  6  1  0  0  0  0
  5  6  1  0  0  0  0
  6 10  1  1  0  0  0
  7  3  1  6  0  0  0
  7  1  1  0  0  0  0
  7  2  1  0  0  0  0
  8  9  1  0  0  0  0
  8 14  1  0  0  0  0
 10 13  2  0  0  0  0
 10 12  1  0  0  0  0
 11  9  2  0  0  0  0
 12  8  2  0  0  0  0
 13 11  1  0  0  0  0
 16 15  1  6  0  0  0
 17 16  1  0  0  0  0
 18 17  1  0  0  0  0
 19 20  2  0  0  0  0
 20 18  1  0  0  0  0
 21 20  1  0  0  0  0
 23 22  3  0  0  0  0
 24  2  1  0  0  0  0
 24 26  1  0  0  0  0
 26 25  2  0  0  0  0
 27 25  1  0  0  0  0
 29 33  2  0  0  0  0
 29 27  1  0  0  0  0
 30 28  1  6  0  0  0
 30 29  1  0  0  0  0
 31 32  1  0  0  0  0
 32 33  1  0  0  0  0
 34 31  1  0  0  0  0
 34 30  1  0  0  0  0
M  END
>  <MODEL>
9

>  <REMARK>
 VINA RESULT:      -7.0      3.391      5.718
  Name = 
  10 active torsions:
  status: ('A' for Active; 'I' for Inactive)
    1  A    between atoms: C_3  and  C_13
    2  A    between atoms: C_3  and  C_17
    3  A    between atoms: C_4  and  C_15
    4  A    between atoms: N_5  and  C_18
    5  A    between atoms: C_6  and  C_9
    6  A    between atoms: C_9  and  N_25
    7  A    between atoms: C_12  and  C_28
    8  A    between atoms: C_15  and  N_25
    9  A    between atoms: C_18  and  C_29
   10  A    between atoms: C_21  and  C_32
                            x       y       z     vdW  Elec       q    Type
                         _______ _______ _______ _____ _____    ______ ____

>  <TORSDO>
F 10

$$$$
