=
 OpenBabel10262423073D

 37 40  0  0  1  0  0  0  0  0999 V2000
  191.5210  177.4490  141.1370 C   0  0  0  0  0  2  0  0  0  0  0  0
  189.0150  177.0570  140.6050 C   0  0  2  0  0  3  0  0  0  0  0  0
  190.9040  175.8920  138.4220 C   0  0  0  0  0  0  0  0  0  0  0  0
  190.3220  176.5020  141.2040 C   0  0  2  0  0  3  0  0  0  0  0  0
  191.9190  177.8130  139.7100 C   0  0  0  0  0  2  0  0  0  0  0  0
  188.9220  177.2220  139.1070 C   0  0  0  0  0  3  0  0  0  0  0  0
  192.1720  176.5780  138.8470 C   0  0  0  0  0  2  0  0  0  0  0  0
  191.0150  174.6780  137.9010 C   0  0  0  0  0  2  0  0  0  0  0  0
  189.6830  176.6790  138.1470 C   0  0  0  0  0  0  0  0  0  0  0  0
  190.0860  175.9220  142.9010 S   0  0  2  0  0  0  0  0  0  0  0  0
  188.6790  175.3410  142.8920 O   0  0  0  0  0  0  0  0  0  0  0  0
  189.9450  177.4010  143.9400 C   0  0  0  0  0  2  0  0  0  0  0  0
  191.9470  178.7880  144.4460 C   0  0  0  0  0  1  0  0  0  0  0  0
  191.1470  177.5680  144.8600 C   0  0  1  0  0  3  0  0  0  0  0  0
  190.6720  177.7430  146.3020 C   0  0  1  0  0  3  0  0  0  0  0  0
  192.1790  175.6870  146.7090 C   0  0  0  0  0  1  0  0  0  0  0  0
  189.8590  176.5390  146.7430 C   0  0  0  0  0  2  0  0  0  0  0  0
  191.2520  176.7360  147.3060 C   0  0  2  0  0  3  0  0  0  0  0  0
  189.3090  176.9740  136.7280 C   0  0  0  0  0  2  0  0  0  0  0  0
  187.9040  176.4850  136.3970 C   0  0  2  0  0  0  0  0  0  0  0  0
  187.6210  175.0640  136.8630 C   0  0  2  0  0  3  0  0  0  0  0  0
  187.8310  175.3690  135.3830 C   0  0  0  0  0  2  0  0  0  0  0  0
  186.7380  177.4660  136.3830 C   0  0  0  0  0  1  0  0  0  0  0  0
  186.1460  173.5010  137.3740 C   0  0  0  0  0  1  0  0  0  0  0  0
  186.2590  174.8650  137.1070 O   0  0  0  0  0  0  0  0  0  0  0  0
  188.3850  178.2320  141.3570 C   0  0  0  0  0  2  0  0  0  0  0  0
  186.8620  178.1960  141.3230 C   0  0  2  0  0  3  0  0  0  0  0  0
  186.4210  179.0690  140.3250 O   0  0  0  0  0  1  0  0  0  0  0  0
  186.2560  178.5860  142.6790 C   0  0  1  0  0  3  0  0  0  0  0  0
  184.0330  177.8910  141.7510 O   0  0  0  0  0  0  0  0  0  0  0  0
  184.7700  178.7270  142.5840 C   0  0  0  0  0  0  0  0  0  0  0  0
  184.1780  179.5710  143.3030 O   0  0  0  0  0  1  0  0  0  0  0  0
  186.5670  177.5430  143.7460 C   0  0  0  0  0  2  0  0  0  0  0  0
  187.0360  178.2040  145.0280 C   0  0  0  0  0  2  0  0  0  0  0  0
  186.6740  178.3470  147.4610 C   0  0  0  0  0  2  0  0  0  0  0  0
  185.3460  178.6030  146.7840 C   0  0  0  0  0  2  0  0  0  0  0  0
  186.3080  177.5870  146.2030 C   0  0  0  0  0  3  0  0  0  0  0  0
  1  4  1  0  0  0  0
  2  4  1  0  0  0  0
  2 26  1  1  0  0  0
  3  7  1  0  0  0  0
  4 10  1  1  0  0  0
  5  1  1  0  0  0  0
  6  2  1  0  0  0  0
  7  5  1  0  0  0  0
  8  3  2  0  0  0  0
  9  3  1  0  0  0  0
  9  6  2  0  0  0  0
 10 11  2  6  0  0  0
 10 12  1  0  0  0  0
 12 14  1  0  0  0  0
 14 13  1  6  0  0  0
 15 14  1  6  0  0  0
 15 17  1  0  0  0  0
 15 18  1  0  0  0  0
 17 18  1  0  0  0  0
 18 16  1  6  0  0  0
 19  9  1  0  0  0  0
 20 23  1  1  0  0  0
 20 19  1  0  0  0  0
 20 21  1  0  0  0  0
 21 25  1  6  0  0  0
 22 20  1  0  0  0  0
 22 21  1  0  0  0  0
 25 24  1  0  0  0  0
 27 28  1  6  0  0  0
 27 26  1  0  0  0  0
 27 29  1  0  0  0  0
 29 33  1  1  0  0  0
 30 31  2  0  0  0  0
 31 29  1  0  0  0  0
 31 32  1  0  0  0  0
 33 34  1  0  0  0  0
 34 37  1  0  0  0  0
 36 35  1  0  0  0  0
 37 36  1  0  0  0  0
 37 35  1  0  0  0  0
M  END
>  <MODEL>
1

>  <REMARK>
 VINA RESULT:      -7.0      0.000      0.000
  Name = 
  14 active torsions:
  status: ('A' for Active; 'I' for Inactive)
    1  A    between atoms: C_1  and  C_26
    2  A    between atoms: C_2  and  C_35
    3  A    between atoms: C_4  and  C_13
    4  A    between atoms: C_4  and  C_28
    5  A    between atoms: C_5  and  O_23
    6  A    between atoms: C_6  and  S_31
    7  A    between atoms: C_6  and  C_35
    8  A    between atoms: C_10  and  C_28
    9  A    between atoms: C_13  and  C_16
   10  A    between atoms: C_13  and  C_20
   11  A    between atoms: C_14  and  S_31
   12  A    between atoms: C_20  and  C_25
   13  A    between atoms: C_25  and  C_32
   14  A    between atoms: C_26  and  C_36
                            x       y       z     vdW  Elec       q    Type
                         _______ _______ _______ _____ _____    ______ ____

>  <TORSDO>
F 14

$$$$
=
 OpenBabel10262423073D

 37 40  0  0  1  0  0  0  0  0999 V2000
  182.1860  175.6440  139.3950 C   0  0  0  0  0  2  0  0  0  0  0  0
  183.4090  177.9190  139.5910 C   0  0  2  0  0  3  0  0  0  0  0  0
  183.2270  176.9010  136.6550 C   0  0  0  0  0  0  0  0  0  0  0  0
  182.0920  177.1680  139.3180 C   0  0  2  0  0  3  0  0  0  0  0  0
  183.1450  175.0490  138.3690 C   0  0  0  0  0  2  0  0  0  0  0  0
  184.5110  177.8390  138.5620 C   0  0  0  0  0  3  0  0  0  0  0  0
  182.8120  175.4860  136.9430 C   0  0  0  0  0  2  0  0  0  0  0  0
  182.7520  177.4600  135.5500 C   0  0  0  0  0  2  0  0  0  0  0  0
  184.4430  177.4670  137.2760 C   0  0  0  0  0  0  0  0  0  0  0  0
  180.7530  177.7590  140.3800 S   0  0  2  0  0  0  0  0  0  0  0  0
  179.9310  176.5070  140.6560 O   0  0  0  0  0  0  0  0  0  0  0  0
  179.6720  178.7740  139.3370 C   0  0  0  0  0  2  0  0  0  0  0  0
  179.8330  180.5500  141.0710 C   0  0  0  0  0  1  0  0  0  0  0  0
  179.8760  180.2630  139.5820 C   0  0  1  0  0  3  0  0  0  0  0  0
  181.2320  180.6960  139.0250 C   0  0  1  0  0  3  0  0  0  0  0  0
  179.7780  182.2740  137.5920 C   0  0  0  0  0  1  0  0  0  0  0  0
  181.3330  180.3540  137.5490 C   0  0  0  0  0  2  0  0  0  0  0  0
  181.1760  181.8030  137.9630 C   0  0  2  0  0  3  0  0  0  0  0  0
  185.7020  177.5510  136.4700 C   0  0  0  0  0  2  0  0  0  0  0  0
  186.7900  176.6370  137.0200 C   0  0  2  0  0  0  0  0  0  0  0  0
  187.4170  175.7270  135.9730 C   0  0  2  0  0  3  0  0  0  0  0  0
  186.4580  175.1630  137.0180 C   0  0  0  0  0  2  0  0  0  0  0  0
  187.6800  177.1090  138.1630 C   0  0  0  0  0  1  0  0  0  0  0  0
  189.4900  175.7740  135.2120 C   0  0  0  0  0  1  0  0  0  0  0  0
  188.7280  175.3810  136.3120 O   0  0  0  0  0  0  0  0  0  0  0  0
  183.9460  177.8230  141.0210 C   0  0  0  0  0  2  0  0  0  0  0  0
  184.3030  179.1860  141.6020 C   0  0  2  0  0  3  0  0  0  0  0  0
  185.4060  179.6890  140.9070 O   0  0  0  0  0  1  0  0  0  0  0  0
  184.6140  179.0970  143.1030 C   0  0  1  0  0  3  0  0  0  0  0  0
  183.4150  179.1260  145.3050 O   0  0  0  0  0  1  0  0  0  0  0  0
  183.3580  179.1280  143.9160 C   0  0  0  0  0  0  0  0  0  0  0  0
  182.2450  179.2090  143.3370 O   0  0  0  0  0  0  0  0  0  0  0  0
  185.3650  177.8140  143.4390 C   0  0  0  0  0  2  0  0  0  0  0  0
  186.5920  178.1110  144.2790 C   0  0  0  0  0  2  0  0  0  0  0  0
  187.7860  177.5390  146.3580 C   0  0  0  0  0  2  0  0  0  0  0  0
  186.5690  178.3550  146.7370 C   0  0  0  0  0  2  0  0  0  0  0  0
  186.4900  177.3650  145.5920 C   0  0  0  0  0  3  0  0  0  0  0  0
  2 26  1  1  0  0  0
  3  7  1  0  0  0  0
  3  9  1  0  0  0  0
  4  1  1  0  0  0  0
  4  2  1  0  0  0  0
  4 10  1  1  0  0  0
  5  1  1  0  0  0  0
  6  2  1  0  0  0  0
  7  5  1  0  0  0  0
  8  3  2  0  0  0  0
  9  6  2  0  0  0  0
 10 11  2  6  0  0  0
 12 14  1  0  0  0  0
 12 10  1  0  0  0  0
 14 13  1  1  0  0  0
 15 14  1  6  0  0  0
 17 18  1  0  0  0  0
 17 15  1  0  0  0  0
 18 16  1  6  0  0  0
 18 15  1  0  0  0  0
 19 20  1  0  0  0  0
 19  9  1  0  0  0  0
 20 23  1  1  0  0  0
 21 25  1  1  0  0  0
 21 22  1  0  0  0  0
 21 20  1  0  0  0  0
 22 20  1  0  0  0  0
 24 25  1  0  0  0  0
 26 27  1  0  0  0  0
 27 28  1  6  0  0  0
 27 29  1  0  0  0  0
 29 33  1  6  0  0  0
 29 31  1  0  0  0  0
 31 30  1  0  0  0  0
 32 31  2  0  0  0  0
 33 34  1  0  0  0  0
 34 37  1  0  0  0  0
 35 36  1  0  0  0  0
 37 35  1  0  0  0  0
 37 36  1  0  0  0  0
M  END
>  <MODEL>
2

>  <REMARK>
 VINA RESULT:      -6.7      3.904      7.597
  Name = 
  14 active torsions:
  status: ('A' for Active; 'I' for Inactive)
    1  A    between atoms: C_1  and  C_26
    2  A    between atoms: C_2  and  C_35
    3  A    between atoms: C_4  and  C_13
    4  A    between atoms: C_4  and  C_28
    5  A    between atoms: C_5  and  O_23
    6  A    between atoms: C_6  and  S_31
    7  A    between atoms: C_6  and  C_35
    8  A    between atoms: C_10  and  C_28
    9  A    between atoms: C_13  and  C_16
   10  A    between atoms: C_13  and  C_20
   11  A    between atoms: C_14  and  S_31
   12  A    between atoms: C_20  and  C_25
   13  A    between atoms: C_25  and  C_32
   14  A    between atoms: C_26  and  C_36
                            x       y       z     vdW  Elec       q    Type
                         _______ _______ _______ _____ _____    ______ ____

>  <TORSDO>
F 14

$$$$
=
 OpenBabel10262423073D

 37 40  0  0  1  0  0  0  0  0999 V2000
  189.3000  178.5610  137.6160 C   0  0  0  0  0  2  0  0  0  0  0  0
  187.4580  177.3600  138.9870 C   0  0  2  0  0  3  0  0  0  0  0  0
  188.3390  175.7390  136.4790 C   0  0  0  0  0  0  0  0  0  0  0  0
  188.9610  177.5240  138.6880 C   0  0  2  0  0  3  0  0  0  0  0  0
  188.7080  178.2270  136.2500 C   0  0  0  0  0  2  0  0  0  0  0  0
  186.5830  176.7080  137.9430 C   0  0  0  0  0  3  0  0  0  0  0  0
  189.0990  176.8290  135.7750 C   0  0  0  0  0  2  0  0  0  0  0  0
  188.7840  174.4990  136.3360 C   0  0  0  0  0  2  0  0  0  0  0  0
  186.9370  175.9520  136.8940 C   0  0  0  0  0  0  0  0  0  0  0  0
  189.9090  177.8580  140.1920 S   0  0  2  0  0  0  0  0  0  0  0  0
  191.3450  177.5560  139.7870 O   0  0  0  0  0  0  0  0  0  0  0  0
  189.4970  176.5420  141.3690 C   0  0  0  0  0  2  0  0  0  0  0  0
  187.8690  176.6750  143.2450 C   0  0  0  0  0  1  0  0  0  0  0  0
  189.2490  177.0860  142.7690 C   0  0  1  0  0  3  0  0  0  0  0  0
  190.3000  176.5320  143.7310 C   0  0  1  0  0  3  0  0  0  0  0  0
  190.9220  179.0240  143.9780 C   0  0  0  0  0  1  0  0  0  0  0  0
  191.6980  176.8080  143.2060 C   0  0  0  0  0  2  0  0  0  0  0  0
  191.1890  177.5880  144.4020 C   0  0  2  0  0  3  0  0  0  0  0  0
  185.8340  175.3800  136.0600 C   0  0  0  0  0  2  0  0  0  0  0  0
  185.0290  174.3340  136.8220 C   0  0  2  0  0  0  0  0  0  0  0  0
  183.6650  174.0430  136.2140 C   0  0  2  0  0  3  0  0  0  0  0  0
  183.7840  174.8480  137.5050 C   0  0  0  0  0  2  0  0  0  0  0  0
  185.7430  173.1880  137.5290 C   0  0  0  0  0  1  0  0  0  0  0  0
  182.8910  172.1970  135.2800 C   0  0  0  0  0  1  0  0  0  0  0  0
  183.2350  172.7470  136.5140 O   0  0  0  0  0  0  0  0  0  0  0  0
  186.7760  178.5610  139.6450 C   0  0  0  0  0  2  0  0  0  0  0  0
  185.2650  178.5570  139.4420 C   0  0  2  0  0  3  0  0  0  0  0  0
  184.9500  179.4780  138.4400 O   0  0  0  0  0  1  0  0  0  0  0  0
  184.5190  178.9030  140.7390 C   0  0  1  0  0  3  0  0  0  0  0  0
  183.0870  176.9210  140.1830 O   0  0  0  0  0  0  0  0  0  0  0  0
  183.2410  178.1340  140.8460 C   0  0  0  0  0  0  0  0  0  0  0  0
  182.3170  178.5620  141.5850 O   0  0  0  0  0  1  0  0  0  0  0  0
  185.3660  178.5900  141.9670 C   0  0  0  0  0  2  0  0  0  0  0  0
  184.8510  179.3360  143.1830 C   0  0  0  0  0  2  0  0  0  0  0  0
  185.3070  178.9840  145.5780 C   0  0  0  0  0  2  0  0  0  0  0  0
  183.8060  178.9840  145.3920 C   0  0  0  0  0  2  0  0  0  0  0  0
  184.7000  178.3670  144.3350 C   0  0  0  0  0  3  0  0  0  0  0  0
  1  4  1  0  0  0  0
  2 26  1  6  0  0  0
  3  9  1  0  0  0  0
  4  2  1  0  0  0  0
  4 10  1  1  0  0  0
  5  1  1  0  0  0  0
  6  2  1  0  0  0  0
  7  5  1  0  0  0  0
  7  3  1  0  0  0  0
  8  3  2  0  0  0  0
  9  6  2  0  0  0  0
 10 11  2  6  0  0  0
 10 12  1  0  0  0  0
 12 14  1  0  0  0  0
 14 13  1  1  0  0  0
 15 14  1  6  0  0  0
 15 18  1  0  0  0  0
 17 15  1  0  0  0  0
 17 18  1  0  0  0  0
 18 16  1  6  0  0  0
 19 20  1  0  0  0  0
 19  9  1  0  0  0  0
 20 22  1  0  0  0  0
 20 23  1  1  0  0  0
 21 25  1  1  0  0  0
 21 20  1  0  0  0  0
 21 22  1  0  0  0  0
 24 25  1  0  0  0  0
 27 28  1  6  0  0  0
 27 26  1  0  0  0  0
 27 29  1  0  0  0  0
 29 31  1  0  0  0  0
 29 33  1  1  0  0  0
 30 31  2  0  0  0  0
 31 32  1  0  0  0  0
 33 34  1  0  0  0  0
 34 37  1  0  0  0  0
 36 35  1  0  0  0  0
 37 36  1  0  0  0  0
 37 35  1  0  0  0  0
M  END
>  <MODEL>
3

>  <REMARK>
 VINA RESULT:      -6.6      2.170      3.390
  Name = 
  14 active torsions:
  status: ('A' for Active; 'I' for Inactive)
    1  A    between atoms: C_1  and  C_26
    2  A    between atoms: C_2  and  C_35
    3  A    between atoms: C_4  and  C_13
    4  A    between atoms: C_4  and  C_28
    5  A    between atoms: C_5  and  O_23
    6  A    between atoms: C_6  and  S_31
    7  A    between atoms: C_6  and  C_35
    8  A    between atoms: C_10  and  C_28
    9  A    between atoms: C_13  and  C_16
   10  A    between atoms: C_13  and  C_20
   11  A    between atoms: C_14  and  S_31
   12  A    between atoms: C_20  and  C_25
   13  A    between atoms: C_25  and  C_32
   14  A    between atoms: C_26  and  C_36
                            x       y       z     vdW  Elec       q    Type
                         _______ _______ _______ _____ _____    ______ ____

>  <TORSDO>
F 14

$$$$
=
 OpenBabel10262423073D

 37 40  0  0  1  0  0  0  0  0999 V2000
  189.4140  178.2630  137.4140 C   0  0  0  0  0  2  0  0  0  0  0  0
  188.2610  177.2640  139.5090 C   0  0  2  0  0  3  0  0  0  0  0  0
  186.2390  177.9940  137.2560 C   0  0  0  0  0  0  0  0  0  0  0  0
  188.8450  177.0220  138.1040 C   0  0  2  0  0  3  0  0  0  0  0  0
  188.3690  179.3480  137.1740 C   0  0  0  0  0  2  0  0  0  0  0  0
  186.9710  178.0400  139.6290 C   0  0  0  0  0  3  0  0  0  0  0  0
  187.1570  178.8260  136.4050 C   0  0  0  0  0  2  0  0  0  0  0  0
  185.3110  177.2810  136.6320 C   0  0  0  0  0  2  0  0  0  0  0  0
  186.0550  178.3100  138.6880 C   0  0  0  0  0  0  0  0  0  0  0  0
  190.0780  175.6990  138.1110 S   0  0  2  0  0  0  0  0  0  0  0  0
  191.4020  176.4390  137.9720 O   0  0  0  0  0  0  0  0  0  0  0  0
  189.9010  174.8140  136.5390 C   0  0  0  0  0  2  0  0  0  0  0  0
  188.3310  175.6990  134.8250 C   0  0  0  0  0  1  0  0  0  0  0  0
  188.4600  174.8100  136.0470 C   0  0  1  0  0  3  0  0  0  0  0  0
  188.0450  173.3850  135.6780 C   0  0  1  0  0  3  0  0  0  0  0  0
  186.1860  173.8230  137.4140 C   0  0  0  0  0  1  0  0  0  0  0  0
  188.1810  172.4660  136.8790 C   0  0  0  0  0  2  0  0  0  0  0  0
  186.7970  172.8630  136.4050 C   0  0  2  0  0  3  0  0  0  0  0  0
  184.8290  179.0530  139.1200 C   0  0  0  0  0  2  0  0  0  0  0  0
  183.8550  178.1530  139.8720 C   0  0  2  0  0  0  0  0  0  0  0  0
  182.9560  178.8990  140.8480 C   0  0  2  0  0  3  0  0  0  0  0  0
  184.1040  178.0300  141.3560 C   0  0  0  0  0  2  0  0  0  0  0  0
  183.2820  176.9140  139.1950 C   0  0  0  0  0  1  0  0  0  0  0  0
  180.7680  179.1820  140.7610 C   0  0  0  0  0  1  0  0  0  0  0  0
  181.7460  178.2290  141.0460 O   0  0  0  0  0  0  0  0  0  0  0  0
  189.2710  177.6500  140.5910 C   0  0  0  0  0  2  0  0  0  0  0  0
  188.5980  178.1040  141.8810 C   0  0  2  0  0  3  0  0  0  0  0  0
  189.3700  179.1200  142.4510 O   0  0  0  0  0  1  0  0  0  0  0  0
  188.4310  176.9420  142.8710 C   0  0  1  0  0  3  0  0  0  0  0  0
  190.4490  176.7260  144.3450 O   0  0  0  0  0  1  0  0  0  0  0  0
  189.7530  176.3280  143.2080 C   0  0  0  0  0  0  0  0  0  0  0  0
  190.2140  175.4080  142.4850 O   0  0  0  0  0  0  0  0  0  0  0  0
  187.7810  177.4080  144.1690 C   0  0  0  0  0  2  0  0  0  0  0  0
  186.2760  177.5190  144.0090 C   0  0  0  0  0  2  0  0  0  0  0  0
  185.5800  179.3910  145.4510 C   0  0  0  0  0  2  0  0  0  0  0  0
  184.3410  178.5940  145.1050 C   0  0  0  0  0  2  0  0  0  0  0  0
  185.6590  177.8820  145.3420 C   0  0  0  0  0  3  0  0  0  0  0  0
  1  4  1  0  0  0  0
  2  6  1  0  0  0  0
  2 26  1  1  0  0  0
  3  9  1  0  0  0  0
  4 10  1  1  0  0  0
  4  2  1  0  0  0  0
  5  1  1  0  0  0  0
  7  5  1  0  0  0  0
  7  3  1  0  0  0  0
  8  3  2  0  0  0  0
  9 19  1  0  0  0  0
  9  6  2  0  0  0  0
 10 11  2  6  0  0  0
 12 10  1  0  0  0  0
 14 13  1  6  0  0  0
 14 12  1  0  0  0  0
 15 14  1  1  0  0  0
 15 18  1  0  0  0  0
 15 17  1  0  0  0  0
 18 17  1  0  0  0  0
 18 16  1  1  0  0  0
 19 20  1  0  0  0  0
 20 23  1  6  0  0  0
 20 21  1  0  0  0  0
 20 22  1  0  0  0  0
 21 25  1  1  0  0  0
 21 22  1  0  0  0  0
 24 25  1  0  0  0  0
 26 27  1  0  0  0  0
 27 28  1  1  0  0  0
 27 29  1  0  0  0  0
 29 31  1  0  0  0  0
 29 33  1  1  0  0  0
 31 30  1  0  0  0  0
 32 31  2  0  0  0  0
 34 33  1  0  0  0  0
 34 37  1  0  0  0  0
 36 37  1  0  0  0  0
 36 35  1  0  0  0  0
 37 35  1  0  0  0  0
M  END
>  <MODEL>
4

>  <REMARK>
 VINA RESULT:      -6.5      2.529      6.421
  Name = 
  14 active torsions:
  status: ('A' for Active; 'I' for Inactive)
    1  A    between atoms: C_1  and  C_26
    2  A    between atoms: C_2  and  C_35
    3  A    between atoms: C_4  and  C_13
    4  A    between atoms: C_4  and  C_28
    5  A    between atoms: C_5  and  O_23
    6  A    between atoms: C_6  and  S_31
    7  A    between atoms: C_6  and  C_35
    8  A    between atoms: C_10  and  C_28
    9  A    between atoms: C_13  and  C_16
   10  A    between atoms: C_13  and  C_20
   11  A    between atoms: C_14  and  S_31
   12  A    between atoms: C_20  and  C_25
   13  A    between atoms: C_25  and  C_32
   14  A    between atoms: C_26  and  C_36
                            x       y       z     vdW  Elec       q    Type
                         _______ _______ _______ _____ _____    ______ ____

>  <TORSDO>
F 14

$$$$
=
 OpenBabel10262423073D

 37 40  0  0  1  0  0  0  0  0999 V2000
  189.4790  176.3450  141.3730 C   0  0  0  0  0  2  0  0  0  0  0  0
  188.1010  178.2580  142.4490 C   0  0  2  0  0  3  0  0  0  0  0  0
  191.0200  178.1280  143.5230 C   0  0  0  0  0  0  0  0  0  0  0  0
  189.1020  177.8270  141.3600 C   0  0  2  0  0  3  0  0  0  0  0  0
  190.1640  175.9120  142.6660 C   0  0  0  0  0  2  0  0  0  0  0  0
  188.5690  178.2920  143.8840 C   0  0  0  0  0  3  0  0  0  0  0  0
  191.3850  176.7710  142.9900 C   0  0  0  0  0  2  0  0  0  0  0  0
  191.9840  179.0360  143.5840 C   0  0  0  0  0  2  0  0  0  0  0  0
  189.8200  178.3030  144.3670 C   0  0  0  0  0  0  0  0  0  0  0  0
  188.5400  178.3060  139.7090 S   0  0  2  0  0  0  0  0  0  0  0  0
  187.6610  177.1400  139.2740 O   0  0  0  0  0  0  0  0  0  0  0  0
  189.9830  178.2010  138.6170 C   0  0  0  0  0  2  0  0  0  0  0  0
  189.2500  178.0600  136.2440 C   0  0  0  0  0  1  0  0  0  0  0  0
  189.7410  177.2660  137.4400 C   0  0  1  0  0  3  0  0  0  0  0  0
  191.0430  176.5540  137.0710 C   0  0  1  0  0  3  0  0  0  0  0  0
  189.5540  174.4500  137.2090 C   0  0  0  0  0  1  0  0  0  0  0  0
  191.4840  175.6370  138.1970 C   0  0  0  0  0  2  0  0  0  0  0  0
  190.9310  175.0300  136.9240 C   0  0  2  0  0  3  0  0  0  0  0  0
  189.9800  178.4070  145.8510 C   0  0  0  0  0  2  0  0  0  0  0  0
  190.0900  177.0360  146.5090 C   0  0  2  0  0  0  0  0  0  0  0  0
  191.5220  176.5880  146.7630 C   0  0  2  0  0  3  0  0  0  0  0  0
  190.6960  175.9540  145.6470 C   0  0  0  0  0  2  0  0  0  0  0  0
  189.0230  176.5740  147.4940 C   0  0  0  0  0  1  0  0  0  0  0  0
  192.8900  175.8750  148.3430 C   0  0  0  0  0  1  0  0  0  0  0  0
  191.6000  175.7040  147.8420 O   0  0  0  0  0  0  0  0  0  0  0  0
  186.6870  177.6890  142.3150 C   0  0  0  0  0  2  0  0  0  0  0  0
  185.7160  178.6830  141.6870 C   0  0  2  0  0  3  0  0  0  0  0  0
  186.4030  179.8740  141.4350 O   0  0  0  0  0  1  0  0  0  0  0  0
  184.5080  178.9460  142.5970 C   0  0  1  0  0  3  0  0  0  0  0  0
  182.0070  178.7720  142.5340 O   0  0  0  0  0  1  0  0  0  0  0  0
  183.2370  178.4960  141.9470 C   0  0  0  0  0  0  0  0  0  0  0  0
  183.2800  177.9100  140.8360 O   0  0  0  0  0  0  0  0  0  0  0  0
  184.6460  178.2140  143.9270 C   0  0  0  0  0  2  0  0  0  0  0  0
  184.7280  179.1980  145.0780 C   0  0  0  0  0  2  0  0  0  0  0  0
  186.1650  177.6440  146.3400 C   0  0  0  0  0  2  0  0  0  0  0  0
  186.0950  178.9390  147.1190 C   0  0  0  0  0  2  0  0  0  0  0  0
  184.8730  178.4350  146.3770 C   0  0  0  0  0  3  0  0  0  0  0  0
  1  5  1  0  0  0  0
  2 26  1  1  0  0  0
  2  6  1  0  0  0  0
  3  8  2  0  0  0  0
  3  9  1  0  0  0  0
  4 10  1  6  0  0  0
  4  1  1  0  0  0  0
  4  2  1  0  0  0  0
  5  7  1  0  0  0  0
  6  9  2  0  0  0  0
  7  3  1  0  0  0  0
  9 19  1  0  0  0  0
 10 11  2  6  0  0  0
 12 10  1  0  0  0  0
 14 13  1  6  0  0  0
 14 12  1  0  0  0  0
 15 14  1  1  0  0  0
 15 17  1  0  0  0  0
 18 15  1  0  0  0  0
 18 16  1  1  0  0  0
 18 17  1  0  0  0  0
 19 20  1  0  0  0  0
 20 21  1  0  0  0  0
 20 23  1  1  0  0  0
 21 25  1  1  0  0  0
 22 20  1  0  0  0  0
 22 21  1  0  0  0  0
 25 24  1  0  0  0  0
 27 28  1  1  0  0  0
 27 26  1  0  0  0  0
 27 29  1  0  0  0  0
 29 33  1  1  0  0  0
 31 30  1  0  0  0  0
 31 29  1  0  0  0  0
 32 31  2  0  0  0  0
 33 34  1  0  0  0  0
 34 37  1  0  0  0  0
 35 37  1  0  0  0  0
 35 36  1  0  0  0  0
 37 36  1  0  0  0  0
M  END
>  <MODEL>
5

>  <REMARK>
 VINA RESULT:      -6.5      1.845      6.736
  Name = 
  14 active torsions:
  status: ('A' for Active; 'I' for Inactive)
    1  A    between atoms: C_1  and  C_26
    2  A    between atoms: C_2  and  C_35
    3  A    between atoms: C_4  and  C_13
    4  A    between atoms: C_4  and  C_28
    5  A    between atoms: C_5  and  O_23
    6  A    between atoms: C_6  and  S_31
    7  A    between atoms: C_6  and  C_35
    8  A    between atoms: C_10  and  C_28
    9  A    between atoms: C_13  and  C_16
   10  A    between atoms: C_13  and  C_20
   11  A    between atoms: C_14  and  S_31
   12  A    between atoms: C_20  and  C_25
   13  A    between atoms: C_25  and  C_32
   14  A    between atoms: C_26  and  C_36
                            x       y       z     vdW  Elec       q    Type
                         _______ _______ _______ _____ _____    ______ ____

>  <TORSDO>
F 14

$$$$
=
 OpenBabel10262423073D

 37 40  0  0  1  0  0  0  0  0999 V2000
  189.8210  176.3100  141.1600 C   0  0  0  0  0  2  0  0  0  0  0  0
  188.8040  178.6260  141.7230 C   0  0  2  0  0  3  0  0  0  0  0  0
  191.2900  177.9490  143.4690 C   0  0  0  0  0  0  0  0  0  0  0  0
  189.8610  177.8230  140.9410 C   0  0  2  0  0  3  0  0  0  0  0  0
  190.0780  175.9070  142.6090 C   0  0  0  0  0  2  0  0  0  0  0  0
  188.9510  178.7430  143.2210 C   0  0  0  0  0  3  0  0  0  0  0  0
  191.3870  176.4840  143.1470 C   0  0  0  0  0  2  0  0  0  0  0  0
  192.4250  178.5990  143.6870 C   0  0  0  0  0  2  0  0  0  0  0  0
  190.0290  178.5200  143.9860 C   0  0  0  0  0  0  0  0  0  0  0  0
  189.8070  178.1920  139.1710 S   0  0  2  0  0  0  0  0  0  0  0  0
  188.5110  178.9740  139.0050 O   0  0  0  0  0  0  0  0  0  0  0  0
  189.4860  176.6230  138.3220 C   0  0  0  0  0  2  0  0  0  0  0  0
  190.5510  176.3800  136.0880 C   0  0  0  0  0  1  0  0  0  0  0  0
  189.2980  176.8130  136.8240 C   0  0  1  0  0  3  0  0  0  0  0  0
  188.1160  175.9720  136.3420 C   0  0  1  0  0  3  0  0  0  0  0  0
  187.1480  178.2790  135.7060 C   0  0  0  0  0  1  0  0  0  0  0  0
  186.8710  176.2920  137.1500 C   0  0  0  0  0  2  0  0  0  0  0  0
  186.9620  176.7690  135.7150 C   0  0  2  0  0  3  0  0  0  0  0  0
  189.8940  178.7850  145.4530 C   0  0  0  0  0  2  0  0  0  0  0  0
  189.3370  177.5790  146.1990 C   0  0  2  0  0  0  0  0  0  0  0  0
  189.4320  177.6940  147.7140 C   0  0  2  0  0  3  0  0  0  0  0  0
  190.3580  176.7540  146.9470 C   0  0  0  0  0  2  0  0  0  0  0  0
  188.1570  176.8040  145.6260 C   0  0  0  0  0  1  0  0  0  0  0  0
  187.7380  177.8770  149.1180 C   0  0  0  0  0  1  0  0  0  0  0  0
  188.4360  176.9470  148.3490 O   0  0  0  0  0  0  0  0  0  0  0  0
  187.3500  178.4000  141.3000 C   0  0  0  0  0  2  0  0  0  0  0  0
  186.3880  178.4340  142.4820 C   0  0  2  0  0  3  0  0  0  0  0  0
  186.0440  177.1200  142.8110 O   0  0  0  0  0  1  0  0  0  0  0  0
  185.1280  179.2500  142.1610 C   0  0  1  0  0  3  0  0  0  0  0  0
  183.8190  177.8700  140.5270 O   0  0  0  0  0  1  0  0  0  0  0  0
  184.6400  178.9650  140.7760 C   0  0  0  0  0  0  0  0  0  0  0  0
  184.9300  179.7530  139.8400 O   0  0  0  0  0  0  0  0  0  0  0  0
  183.9990  178.9340  143.1360 C   0  0  0  0  0  2  0  0  0  0  0  0
  184.2710  179.5500  144.4950 C   0  0  0  0  0  2  0  0  0  0  0  0
  185.6800  179.3770  146.5090 C   0  0  0  0  0  2  0  0  0  0  0  0
  184.5740  178.3530  146.6350 C   0  0  0  0  0  2  0  0  0  0  0  0
  185.1910  178.6390  145.2800 C   0  0  0  0  0  3  0  0  0  0  0  0
  1  5  1  0  0  0  0
  2 26  1  1  0  0  0
  2  6  1  0  0  0  0
  3  8  2  0  0  0  0
  3  9  1  0  0  0  0
  4 10  1  6  0  0  0
  4  1  1  0  0  0  0
  4  2  1  0  0  0  0
  5  7  1  0  0  0  0
  6  9  2  0  0  0  0
  7  3  1  0  0  0  0
  9 19  1  0  0  0  0
 10 11  2  1  0  0  0
 12 10  1  0  0  0  0
 14 13  1  6  0  0  0
 14 12  1  0  0  0  0
 15 14  1  1  0  0  0
 15 17  1  0  0  0  0
 18 16  1  1  0  0  0
 18 15  1  0  0  0  0
 18 17  1  0  0  0  0
 19 20  1  0  0  0  0
 20 23  1  6  0  0  0
 20 22  1  0  0  0  0
 20 21  1  0  0  0  0
 21 25  1  1  0  0  0
 22 21  1  0  0  0  0
 25 24  1  0  0  0  0
 26 27  1  0  0  0  0
 27 28  1  6  0  0  0
 29 27  1  0  0  0  0
 29 33  1  1  0  0  0
 30 31  1  0  0  0  0
 31 29  1  0  0  0  0
 32 31  2  0  0  0  0
 33 34  1  0  0  0  0
 34 37  1  0  0  0  0
 35 36  1  0  0  0  0
 37 35  1  0  0  0  0
 37 36  1  0  0  0  0
M  END
>  <MODEL>
6

>  <REMARK>
 VINA RESULT:      -6.1      1.912      7.001
  Name = 
  14 active torsions:
  status: ('A' for Active; 'I' for Inactive)
    1  A    between atoms: C_1  and  C_26
    2  A    between atoms: C_2  and  C_35
    3  A    between atoms: C_4  and  C_13
    4  A    between atoms: C_4  and  C_28
    5  A    between atoms: C_5  and  O_23
    6  A    between atoms: C_6  and  S_31
    7  A    between atoms: C_6  and  C_35
    8  A    between atoms: C_10  and  C_28
    9  A    between atoms: C_13  and  C_16
   10  A    between atoms: C_13  and  C_20
   11  A    between atoms: C_14  and  S_31
   12  A    between atoms: C_20  and  C_25
   13  A    between atoms: C_25  and  C_32
   14  A    between atoms: C_26  and  C_36
                            x       y       z     vdW  Elec       q    Type
                         _______ _______ _______ _____ _____    ______ ____

>  <TORSDO>
F 14

$$$$
=
 OpenBabel10262423073D

 37 40  0  0  1  0  0  0  0  0999 V2000
  189.4820  176.4070  141.9040 C   0  0  0  0  0  2  0  0  0  0  0  0
  188.1260  177.9890  143.4440 C   0  0  2  0  0  3  0  0  0  0  0  0
  191.1420  177.8610  144.2080 C   0  0  0  0  0  0  0  0  0  0  0  0
  189.0320  177.8370  142.2070 C   0  0  2  0  0  3  0  0  0  0  0  0
  190.3150  175.7890  143.0230 C   0  0  0  0  0  2  0  0  0  0  0  0
  188.7350  177.7880  144.8120 C   0  0  0  0  0  3  0  0  0  0  0  0
  191.5180  176.6540  143.3940 C   0  0  0  0  0  2  0  0  0  0  0  0
  192.0610  178.8060  144.3540 C   0  0  0  0  0  2  0  0  0  0  0  0
  190.0250  177.7940  145.1740 C   0  0  0  0  0  0  0  0  0  0  0  0
  188.2830  178.5750  140.7360 S   0  0  2  0  0  0  0  0  0  0  0  0
  187.2780  177.5260  140.2780 O   0  0  0  0  0  0  0  0  0  0  0  0
  189.5540  178.5600  139.4430 C   0  0  0  0  0  2  0  0  0  0  0  0
  188.6710  179.2240  137.2140 C   0  0  0  0  0  1  0  0  0  0  0  0
  189.0110  178.0520  138.1150 C   0  0  1  0  0  3  0  0  0  0  0  0
  190.0610  177.1780  137.4290 C   0  0  1  0  0  3  0  0  0  0  0  0
  188.0740  175.5480  137.1820 C   0  0  0  0  0  1  0  0  0  0  0  0
  190.2890  175.9020  138.2210 C   0  0  0  0  0  2  0  0  0  0  0  0
  189.5430  175.8300  136.9040 C   0  0  2  0  0  3  0  0  0  0  0  0
  190.3290  177.6320  146.6300 C   0  0  0  0  0  2  0  0  0  0  0  0
  189.0600  177.5040  147.4640 C   0  0  2  0  0  0  0  0  0  0  0  0
  188.2740  178.8010  147.5930 C   0  0  2  0  0  3  0  0  0  0  0  0
  189.0700  178.2540  148.7750 C   0  0  0  0  0  2  0  0  0  0  0  0
  188.2690  176.2010  147.4570 C   0  0  0  0  0  1  0  0  0  0  0  0
  186.2920  179.7690  147.4930 C   0  0  0  0  0  1  0  0  0  0  0  0
  186.9130  178.5590  147.7990 O   0  0  0  0  0  0  0  0  0  0  0  0
  186.7360  177.3600  143.3320 C   0  0  0  0  0  2  0  0  0  0  0  0
  185.6990  178.0840  144.1830 C   0  0  2  0  0  3  0  0  0  0  0  0
  185.5080  177.3570  145.3620 O   0  0  0  0  0  1  0  0  0  0  0  0
  184.3670  178.2460  143.4360 C   0  0  1  0  0  3  0  0  0  0  0  0
  182.3520  179.7310  143.5880 O   0  0  0  0  0  0  0  0  0  0  0  0
  183.4080  179.0830  144.2210 C   0  0  0  0  0  0  0  0  0  0  0  0
  183.5260  179.1590  145.4710 O   0  0  0  0  0  1  0  0  0  0  0  0
  184.5710  178.9070  142.0770 C   0  0  0  0  0  2  0  0  0  0  0  0
  183.9210  178.0890  140.9770 C   0  0  0  0  0  2  0  0  0  0  0  0
  183.6830  179.7080  139.1350 C   0  0  0  0  0  2  0  0  0  0  0  0
  182.8580  178.4890  138.7840 C   0  0  0  0  0  2  0  0  0  0  0  0
  182.9400  178.9600  140.2220 C   0  0  0  0  0  3  0  0  0  0  0  0
  1  4  1  0  0  0  0
  1  5  1  0  0  0  0
  2 26  1  6  0  0  0
  2  6  1  0  0  0  0
  3  8  2  0  0  0  0
  3  9  1  0  0  0  0
  4 10  1  6  0  0  0
  4  2  1  0  0  0  0
  5  7  1  0  0  0  0
  6  9  2  0  0  0  0
  7  3  1  0  0  0  0
  9 19  1  0  0  0  0
 10 11  2  6  0  0  0
 12 10  1  0  0  0  0
 14 13  1  6  0  0  0
 14 12  1  0  0  0  0
 15 14  1  1  0  0  0
 15 17  1  0  0  0  0
 18 16  1  1  0  0  0
 18 15  1  0  0  0  0
 18 17  1  0  0  0  0
 19 20  1  0  0  0  0
 20 23  1  6  0  0  0
 20 21  1  0  0  0  0
 20 22  1  0  0  0  0
 21 25  1  1  0  0  0
 21 22  1  0  0  0  0
 24 25  1  0  0  0  0
 26 27  1  0  0  0  0
 27 28  1  1  0  0  0
 29 33  1  6  0  0  0
 29 27  1  0  0  0  0
 29 31  1  0  0  0  0
 30 31  2  0  0  0  0
 31 32  1  0  0  0  0
 34 33  1  0  0  0  0
 35 37  1  0  0  0  0
 36 35  1  0  0  0  0
 36 37  1  0  0  0  0
 37 34  1  0  0  0  0
M  END
>  <MODEL>
7

>  <REMARK>
 VINA RESULT:      -6.1      2.118      7.388
  Name = 
  14 active torsions:
  status: ('A' for Active; 'I' for Inactive)
    1  A    between atoms: C_1  and  C_26
    2  A    between atoms: C_2  and  C_35
    3  A    between atoms: C_4  and  C_13
    4  A    between atoms: C_4  and  C_28
    5  A    between atoms: C_5  and  O_23
    6  A    between atoms: C_6  and  S_31
    7  A    between atoms: C_6  and  C_35
    8  A    between atoms: C_10  and  C_28
    9  A    between atoms: C_13  and  C_16
   10  A    between atoms: C_13  and  C_20
   11  A    between atoms: C_14  and  S_31
   12  A    between atoms: C_20  and  C_25
   13  A    between atoms: C_25  and  C_32
   14  A    between atoms: C_26  and  C_36
                            x       y       z     vdW  Elec       q    Type
                         _______ _______ _______ _____ _____    ______ ____

>  <TORSDO>
F 14

$$$$
=
 OpenBabel10262423073D

 37 40  0  0  1  0  0  0  0  0999 V2000
  190.0910  176.1830  141.2370 C   0  0  0  0  0  2  0  0  0  0  0  0
  188.5270  178.2000  141.6830 C   0  0  2  0  0  3  0  0  0  0  0  0
  190.8660  178.0160  143.7300 C   0  0  0  0  0  0  0  0  0  0  0  0
  189.8240  177.6750  141.0370 C   0  0  2  0  0  3  0  0  0  0  0  0
  190.2490  175.7920  142.7030 C   0  0  0  0  0  2  0  0  0  0  0  0
  188.4580  178.2910  143.1890 C   0  0  0  0  0  3  0  0  0  0  0  0
  191.3220  176.6200  143.4090 C   0  0  0  0  0  2  0  0  0  0  0  0
  191.7940  178.8880  144.0970 C   0  0  0  0  0  2  0  0  0  0  0  0
  189.4560  178.2790  144.0850 C   0  0  0  0  0  0  0  0  0  0  0  0
  189.9090  178.0890  139.2790 S   0  0  2  0  0  0  0  0  0  0  0  0
  188.9730  179.2830  139.1430 O   0  0  0  0  0  0  0  0  0  0  0  0
  189.0570  176.7580  138.3900 C   0  0  0  0  0  2  0  0  0  0  0  0
  189.3940  177.6570  136.0950 C   0  0  0  0  0  1  0  0  0  0  0  0
  189.6790  176.4940  137.0260 C   0  0  1  0  0  3  0  0  0  0  0  0
  191.1910  176.3260  137.1730 C   0  0  1  0  0  3  0  0  0  0  0  0
  190.7750  174.2250  135.7340 C   0  0  0  0  0  1  0  0  0  0  0  0
  191.5120  175.0560  137.9410 C   0  0  0  0  0  2  0  0  0  0  0  0
  191.7840  175.1070  136.4510 C   0  0  2  0  0  3  0  0  0  0  0  0
  189.0860  178.4550  145.5240 C   0  0  0  0  0  2  0  0  0  0  0  0
  187.8130  177.6950  145.8800 C   0  0  2  0  0  0  0  0  0  0  0  0
  186.7640  178.5460  146.5810 C   0  0  2  0  0  3  0  0  0  0  0  0
  187.5660  177.5060  147.3580 C   0  0  0  0  0  2  0  0  0  0  0  0
  187.3190  176.5690  144.9810 C   0  0  0  0  0  1  0  0  0  0  0  0
  184.8900  179.0000  145.5040 C   0  0  0  0  0  1  0  0  0  0  0  0
  185.4730  178.0600  146.3530 O   0  0  0  0  0  0  0  0  0  0  0  0
  187.2230  177.6790  141.0750 C   0  0  0  0  0  2  0  0  0  0  0  0
  186.2230  178.7960  140.7970 C   0  0  2  0  0  3  0  0  0  0  0  0
  185.5910  179.1340  141.9960 O   0  0  0  0  0  1  0  0  0  0  0  0
  185.1850  178.3770  139.7470 C   0  0  1  0  0  3  0  0  0  0  0  0
  182.8390  179.1070  140.2480 O   0  0  0  0  0  1  0  0  0  0  0  0
  184.0720  179.3730  139.6620 C   0  0  0  0  0  0  0  0  0  0  0  0
  184.2710  180.4820  139.1040 O   0  0  0  0  0  0  0  0  0  0  0  0
  185.8140  178.2500  138.3640 C   0  0  0  0  0  2  0  0  0  0  0  0
  184.8920  177.5060  137.4170 C   0  0  0  0  0  2  0  0  0  0  0  0
  186.1480  175.6430  136.4050 C   0  0  0  0  0  2  0  0  0  0  0  0
  184.9500  175.9210  135.5230 C   0  0  0  0  0  2  0  0  0  0  0  0
  185.6760  177.0680  136.1990 C   0  0  0  0  0  3  0  0  0  0  0  0
  1  5  1  0  0  0  0
  2 26  1  1  0  0  0
  2  6  1  0  0  0  0
  3  9  1  0  0  0  0
  3  8  2  0  0  0  0
  4 10  1  6  0  0  0
  4  1  1  0  0  0  0
  4  2  1  0  0  0  0
  5  7  1  0  0  0  0
  6  9  2  0  0  0  0
  7  3  1  0  0  0  0
  9 19  1  0  0  0  0
 10 11  2  1  0  0  0
 12 10  1  0  0  0  0
 14 13  1  6  0  0  0
 14 12  1  0  0  0  0
 15 14  1  6  0  0  0
 15 17  1  0  0  0  0
 18 16  1  6  0  0  0
 18 15  1  0  0  0  0
 18 17  1  0  0  0  0
 19 20  1  0  0  0  0
 20 23  1  6  0  0  0
 20 21  1  0  0  0  0
 20 22  1  0  0  0  0
 21 25  1  6  0  0  0
 21 22  1  0  0  0  0
 24 25  1  0  0  0  0
 27 26  1  0  0  0  0
 27 28  1  1  0  0  0
 29 33  1  6  0  0  0
 29 27  1  0  0  0  0
 31 29  1  0  0  0  0
 31 30  1  0  0  0  0
 32 31  2  0  0  0  0
 34 33  1  0  0  0  0
 36 37  1  0  0  0  0
 36 35  1  0  0  0  0
 37 35  1  0  0  0  0
 37 34  1  0  0  0  0
M  END
>  <MODEL>
8

>  <REMARK>
 VINA RESULT:      -6.0      2.163      7.404
  Name = 
  14 active torsions:
  status: ('A' for Active; 'I' for Inactive)
    1  A    between atoms: C_1  and  C_26
    2  A    between atoms: C_2  and  C_35
    3  A    between atoms: C_4  and  C_13
    4  A    between atoms: C_4  and  C_28
    5  A    between atoms: C_5  and  O_23
    6  A    between atoms: C_6  and  S_31
    7  A    between atoms: C_6  and  C_35
    8  A    between atoms: C_10  and  C_28
    9  A    between atoms: C_13  and  C_16
   10  A    between atoms: C_13  and  C_20
   11  A    between atoms: C_14  and  S_31
   12  A    between atoms: C_20  and  C_25
   13  A    between atoms: C_25  and  C_32
   14  A    between atoms: C_26  and  C_36
                            x       y       z     vdW  Elec       q    Type
                         _______ _______ _______ _____ _____    ______ ____

>  <TORSDO>
F 14

$$$$
=
 OpenBabel10262423073D

 37 40  0  0  1  0  0  0  0  0999 V2000
  188.4440  178.0470  136.9720 C   0  0  0  0  0  2  0  0  0  0  0  0
  186.1290  177.4480  137.9690 C   0  0  2  0  0  3  0  0  0  0  0  0
  187.4670  175.0460  136.5080 C   0  0  0  0  0  0  0  0  0  0  0  0
  187.6600  177.4450  138.1390 C   0  0  2  0  0  3  0  0  0  0  0  0
  188.2380  177.2970  135.6600 C   0  0  0  0  0  2  0  0  0  0  0  0
  185.5150  176.5170  136.9520 C   0  0  0  0  0  3  0  0  0  0  0  0
  188.5470  175.8060  135.7910 C   0  0  0  0  0  2  0  0  0  0  0  0
  187.7520  173.8140  136.9050 C   0  0  0  0  0  2  0  0  0  0  0  0
  186.0500  175.4390  136.3590 C   0  0  0  0  0  0  0  0  0  0  0  0
  188.1620  178.2290  139.6900 S   0  0  2  0  0  0  0  0  0  0  0  0
  189.0540  179.3790  139.2410 O   0  0  0  0  0  0  0  0  0  0  0  0
  189.3020  177.0800  140.5070 C   0  0  0  0  0  2  0  0  0  0  0  0
  188.2280  176.7600  142.7280 C   0  0  0  0  0  1  0  0  0  0  0  0
  189.4170  177.3570  142.0000 C   0  0  1  0  0  3  0  0  0  0  0  0
  190.7040  176.7340  142.5420 C   0  0  1  0  0  3  0  0  0  0  0  0
  190.9360  179.0210  143.7150 C   0  0  0  0  0  1  0  0  0  0  0  0
  191.9160  177.4950  142.0360 C   0  0  0  0  0  2  0  0  0  0  0  0
  191.5120  177.6320  143.4900 C   0  0  2  0  0  3  0  0  0  0  0  0
  185.1710  174.6620  135.4300 C   0  0  0  0  0  2  0  0  0  0  0  0
  184.0600  173.9320  136.1770 C   0  0  2  0  0  0  0  0  0  0  0  0
  183.1480  173.1110  135.2760 C   0  0  2  0  0  3  0  0  0  0  0  0
  182.6600  174.4200  135.8900 C   0  0  0  0  0  2  0  0  0  0  0  0
  184.3010  173.4170  137.5910 C   0  0  0  0  0  1  0  0  0  0  0  0
  182.8900  170.9190  135.1890 C   0  0  0  0  0  1  0  0  0  0  0  0
  182.5800  172.0360  135.9640 O   0  0  0  0  0  0  0  0  0  0  0  0
  185.4620  178.8250  137.9690 C   0  0  0  0  0  2  0  0  0  0  0  0
  184.1820  178.8530  138.7950 C   0  0  2  0  0  3  0  0  0  0  0  0
  183.8730  180.1840  139.0890 O   0  0  0  0  0  1  0  0  0  0  0  0
  184.3270  178.0410  140.0900 C   0  0  1  0  0  3  0  0  0  0  0  0
  185.6840  179.7510  141.3250 O   0  0  0  0  0  0  0  0  0  0  0  0
  184.5560  178.9390  141.2650 C   0  0  0  0  0  0  0  0  0  0  0  0
  183.6960  178.9980  142.1800 O   0  0  0  0  0  1  0  0  0  0  0  0
  183.0800  177.2090  140.3660 C   0  0  0  0  0  2  0  0  0  0  0  0
  182.6240  176.4890  139.1110 C   0  0  0  0  0  2  0  0  0  0  0  0
  180.2440  176.4800  139.7460 C   0  0  0  0  0  2  0  0  0  0  0  0
  180.3610  175.7980  138.4010 C   0  0  0  0  0  2  0  0  0  0  0  0
  181.4420  175.6040  139.4450 C   0  0  0  0  0  3  0  0  0  0  0  0
  1  4  1  0  0  0  0
  2 26  1  6  0  0  0
  2  4  1  0  0  0  0
  3  8  2  0  0  0  0
  4 10  1  1  0  0  0
  5  7  1  0  0  0  0
  5  1  1  0  0  0  0
  6  2  1  0  0  0  0
  7  3  1  0  0  0  0
  9  3  1  0  0  0  0
  9  6  2  0  0  0  0
 10 11  2  6  0  0  0
 10 12  1  0  0  0  0
 12 14  1  0  0  0  0
 14 13  1  1  0  0  0
 15 14  1  6  0  0  0
 15 18  1  0  0  0  0
 17 15  1  0  0  0  0
 17 18  1  0  0  0  0
 18 16  1  6  0  0  0
 19 20  1  0  0  0  0
 19  9  1  0  0  0  0
 20 23  1  1  0  0  0
 21 22  1  0  0  0  0
 21 25  1  1  0  0  0
 21 20  1  0  0  0  0
 22 20  1  0  0  0  0
 24 25  1  0  0  0  0
 26 27  1  0  0  0  0
 27 28  1  1  0  0  0
 27 29  1  0  0  0  0
 29 33  1  1  0  0  0
 29 31  1  0  0  0  0
 31 30  2  0  0  0  0
 31 32  1  0  0  0  0
 34 37  1  0  0  0  0
 34 33  1  0  0  0  0
 36 37  1  0  0  0  0
 36 35  1  0  0  0  0
 37 35  1  0  0  0  0
M  END
>  <MODEL>
9

>  <REMARK>
 VINA RESULT:      -6.0      2.959      5.051
  Name = 
  14 active torsions:
  status: ('A' for Active; 'I' for Inactive)
    1  A    between atoms: C_1  and  C_26
    2  A    between atoms: C_2  and  C_35
    3  A    between atoms: C_4  and  C_13
    4  A    between atoms: C_4  and  C_28
    5  A    between atoms: C_5  and  O_23
    6  A    between atoms: C_6  and  S_31
    7  A    between atoms: C_6  and  C_35
    8  A    between atoms: C_10  and  C_28
    9  A    between atoms: C_13  and  C_16
   10  A    between atoms: C_13  and  C_20
   11  A    between atoms: C_14  and  S_31
   12  A    between atoms: C_20  and  C_25
   13  A    between atoms: C_25  and  C_32
   14  A    between atoms: C_26  and  C_36
                            x       y       z     vdW  Elec       q    Type
                         _______ _______ _______ _____ _____    ______ ____

>  <TORSDO>
F 14

$$$$
