=
 OpenBabel10262423033D

 37 43  0  0  1  0  0  0  0  0999 V2000
  186.3780  177.0320  144.6670 C   0  0  0  0  0  2  0  0  0  0  0  0
  191.0470  178.5900  143.5140 C   0  0  0  0  0  0  0  0  0  0  0  0
  185.6330  178.3350  144.9150 C   0  0  1  0  0  3  0  0  0  0  0  0
  187.8400  178.4880  141.3150 C   0  0  1  0  0  3  0  0  0  0  0  0
  189.5840  178.7850  143.2140 C   0  0  1  0  0  3  0  0  0  0  0  0
  185.5540  180.0180  142.0120 O   0  0  0  0  0  0  0  0  0  0  0  0
  186.0550  178.3690  147.4260 C   0  0  0  0  0  2  0  0  0  0  0  0
  189.3080  178.3600  141.7580 C   0  0  1  0  0  3  0  0  0  0  0  0
  184.6810  178.5990  143.7660 C   0  0  0  0  0  2  0  0  0  0  0  0
  189.2500  177.6620  145.5780 C   0  0  2  0  0  3  0  0  0  0  0  0
  188.3540  177.6350  146.8370 C   0  0  2  0  0  3  0  0  0  0  0  0
  191.8100  177.5770  142.7100 C   0  0  0  0  0  2  0  0  0  0  0  0
  185.0100  178.4320  146.2980 C   0  0  0  0  0  2  0  0  0  0  0  0
  187.4500  178.8540  147.0140 C   0  0  0  0  0  2  0  0  0  0  0  0
  185.5000  178.6920  142.4790 C   0  0  2  0  0  0  0  0  0  0  0  0
  187.1130  177.1520  141.1400 C   0  0  0  0  0  2  0  0  0  0  0  0
  191.7030  179.4750  144.2580 C   0  0  0  0  0  2  0  0  0  0  0  0
  188.5950  178.1970  144.2660 C   0  0  2  0  0  3  0  0  0  0  0  0
  190.0380  177.0630  141.3130 C   0  0  2  0  0  3  0  0  0  0  0  0
  186.8770  177.9740  142.3840 C   0  0  1  0  0  0  0  0  0  0  0  0
  184.7850  179.1100  141.2540 C   0  0  0  0  0  2  0  0  0  0  0  0
  187.4820  177.3170  143.6500 C   0  0  2  0  0  3  0  0  0  0  0  0
  190.9450  176.5500  142.2740 O   0  0  0  0  0  0  0  0  0  0  0  0
  191.7920  177.8960  139.7310 O   0  0  0  0  0  1  0  0  0  0  0  0
  190.6530  177.0970  139.9040 C   0  0  1  0  0  0  0  0  0  0  0  0
  190.1780  177.8350  137.5140 C   0  0  0  0  0  1  0  0  0  0  0  0
  190.5970  175.8150  139.0780 C   0  0  1  0  0  3  0  0  0  0  0  0
  189.6990  177.0220  138.7160 C   0  0  1  0  0  3  0  0  0  0  0  0
  191.6710  174.3630  137.3650 C   0  0  0  0  0  1  0  0  0  0  0  0
  191.8280  175.6230  138.1920 C   0  0  0  0  0  2  0  0  0  0  0  0
  190.0360  176.3520  145.3860 C   0  0  0  0  0  2  0  0  0  0  0  0
  191.4520  176.3880  145.9490 C   0  0  0  0  0  2  0  0  0  0  0  0
  191.6700  175.2520  146.9290 C   0  0  0  0  0  2  0  0  0  0  0  0
  192.7690  175.6220  147.8990 C   0  0  0  0  0  1  0  0  0  0  0  0
  189.1560  177.3730  148.1140 C   0  0  0  0  0  2  0  0  0  0  0  0
  189.8050  178.6370  148.6520 C   0  0  0  0  0  2  0  0  0  0  0  0
  191.1870  178.3130  149.1800 C   0  0  0  0  0  1  0  0  0  0  0  0
  1  3  1  0  0  0  0
  2 17  2  0  0  0  0
  3  9  1  6  0  0  0
  3 13  1  0  0  0  0
  4 16  1  6  0  0  0
  4  8  1  0  0  0  0
  4 20  1  0  0  0  0
  5  2  1  1  0  0  0
  5 18  1  0  0  0  0
  6 15  1  0  0  0  0
  8  5  1  0  0  0  0
 10 11  1  0  0  0  0
 11 14  1  0  0  0  0
 11 35  1  0  0  0  0
 12  2  1  0  0  0  0
 13  7  1  0  0  0  0
 14  7  1  0  0  0  0
 15  9  1  0  0  0  0
 16 20  1  0  0  0  0
 18 10  1  0  0  0  0
 19  8  1  0  0  0  0
 19 23  1  0  0  0  0
 20 15  1  0  0  0  0
 20 22  1  0  0  0  0
 21  6  1  0  0  0  0
 21 15  1  0  0  0  0
 22 18  1  0  0  0  0
 22  1  1  0  0  0  0
 23 12  1  0  0  0  0
 24 25  1  0  0  0  0
 25 19  1  0  0  0  0
 26 28  1  0  0  0  0
 27 25  1  0  0  0  0
 28 27  1  0  0  0  0
 28 25  1  0  0  0  0
 29 30  1  0  0  0  0
 30 27  1  0  0  0  0
 31 10  1  0  0  0  0
 31 32  1  0  0  0  0
 32 33  1  0  0  0  0
 33 34  1  0  0  0  0
 35 36  1  0  0  0  0
 36 37  1  0  0  0  0
M  END
>  <MODEL>
1

>  <REMARK>
 VINA RESULT:      -6.8      0.000      0.000
  Name = 
  7 active torsions:
  status: ('A' for Active; 'I' for Inactive)
    1  A    between atoms: C_3  and  C_32
    2  A    between atoms: C_8  and  C_31
    3  A    between atoms: C_9  and  C_13
    4  A    between atoms: C_9  and  C_16
    5  A    between atoms: C_13  and  C_20
    6  A    between atoms: C_18  and  C_35
    7  A    between atoms: C_21  and  C_32
                            x       y       z     vdW  Elec       q    Type
                         _______ _______ _______ _____ _____    ______ ____

>  <TORSDO>
F 7

$$$$
=
 OpenBabel10262423033D

 37 43  0  0  1  0  0  0  0  0999 V2000
  186.7620  176.7710  145.3450 C   0  0  0  0  0  2  0  0  0  0  0  0
  190.7280  178.2880  142.6030 C   0  0  0  0  0  0  0  0  0  0  0  0
  186.4120  178.0090  146.1560 C   0  0  1  0  0  3  0  0  0  0  0  0
  186.9330  178.9480  142.0700 C   0  0  1  0  0  3  0  0  0  0  0  0
  189.3270  178.6410  143.0240 C   0  0  1  0  0  3  0  0  0  0  0  0
  185.4240  180.3820  143.9980 O   0  0  0  0  0  0  0  0  0  0  0  0
  187.8300  177.3730  148.1740 C   0  0  0  0  0  2  0  0  0  0  0  0
  188.4090  178.6210  141.7850 C   0  0  1  0  0  3  0  0  0  0  0  0
  185.1290  178.6170  145.6250 C   0  0  0  0  0  2  0  0  0  0  0  0
  189.8150  176.9720  145.0080 C   0  0  2  0  0  3  0  0  0  0  0  0
  189.5260  176.6760  146.4970 C   0  0  2  0  0  3  0  0  0  0  0  0
  190.9130  177.4710  141.3560 C   0  0  0  0  0  2  0  0  0  0  0  0
  186.4400  177.7860  147.6590 C   0  0  0  0  0  2  0  0  0  0  0  0
  188.9900  177.8620  147.2990 C   0  0  0  0  0  2  0  0  0  0  0  0
  185.3490  178.9870  144.1580 C   0  0  2  0  0  0  0  0  0  0  0  0
  185.9880  177.7480  141.9620 C   0  0  0  0  0  2  0  0  0  0  0  0
  191.7700  178.9110  143.1460 C   0  0  0  0  0  2  0  0  0  0  0  0
  188.7760  177.8640  144.2580 C   0  0  2  0  0  3  0  0  0  0  0  0
  188.6650  177.4400  140.8090 C   0  0  2  0  0  3  0  0  0  0  0  0
  186.4250  178.2360  143.3230 C   0  0  1  0  0  0  0  0  0  0  0  0
  184.2720  179.7470  143.4870 C   0  0  0  0  0  2  0  0  0  0  0  0
  187.3800  177.2410  144.0290 C   0  0  2  0  0  3  0  0  0  0  0  0
  189.7890  176.6450  141.1450 O   0  0  0  0  0  0  0  0  0  0  0  0
  189.0570  179.0910  138.9670 O   0  0  0  0  0  1  0  0  0  0  0  0
  188.6410  177.7980  139.3140 C   0  0  1  0  0  0  0  0  0  0  0  0
  187.0620  178.1360  137.3460 C   0  0  0  0  0  1  0  0  0  0  0  0
  188.9780  176.6920  138.3180 C   0  0  1  0  0  3  0  0  0  0  0  0
  187.5240  177.2010  138.4630 C   0  0  1  0  0  3  0  0  0  0  0  0
  191.0670  176.4920  136.9790 C   0  0  0  0  0  1  0  0  0  0  0  0
  189.7350  177.2040  137.0920 C   0  0  0  0  0  2  0  0  0  0  0  0
  190.2230  175.7100  144.2250 C   0  0  0  0  0  2  0  0  0  0  0  0
  191.7250  175.5770  144.0000 C   0  0  0  0  0  2  0  0  0  0  0  0
  192.3450  174.6640  145.0390 C   0  0  0  0  0  2  0  0  0  0  0  0
  191.9660  173.2300  144.7450 C   0  0  0  0  0  1  0  0  0  0  0  0
  190.7270  176.0480  147.2070 C   0  0  0  0  0  2  0  0  0  0  0  0
  191.6300  177.0940  147.8400 C   0  0  0  0  0  2  0  0  0  0  0  0
  192.7560  176.4080  148.5850 C   0  0  0  0  0  1  0  0  0  0  0  0
  2 17  2  0  0  0  0
  3  1  1  6  0  0  0
  3 13  1  0  0  0  0
  4 16  1  6  0  0  0
  4 20  1  0  0  0  0
  5  2  1  6  0  0  0
  5 18  1  0  0  0  0
  6 15  1  0  0  0  0
  8  4  1  0  0  0  0
  8  5  1  0  0  0  0
  9  3  1  0  0  0  0
 10 11  1  0  0  0  0
 11 35  1  0  0  0  0
 11 14  1  0  0  0  0
 12  2  1  0  0  0  0
 13  7  1  0  0  0  0
 14  7  1  0  0  0  0
 15  9  1  0  0  0  0
 16 20  1  0  0  0  0
 18 10  1  0  0  0  0
 19 23  1  0  0  0  0
 19  8  1  0  0  0  0
 20 22  1  0  0  0  0
 20 15  1  0  0  0  0
 21  6  1  0  0  0  0
 21 15  1  0  0  0  0
 22 18  1  0  0  0  0
 22  1  1  0  0  0  0
 23 12  1  0  0  0  0
 24 25  1  0  0  0  0
 25 19  1  0  0  0  0
 26 28  1  0  0  0  0
 27 28  1  0  0  0  0
 27 25  1  0  0  0  0
 28 25  1  0  0  0  0
 29 30  1  0  0  0  0
 30 27  1  0  0  0  0
 31 10  1  0  0  0  0
 32 31  1  0  0  0  0
 32 33  1  0  0  0  0
 34 33  1  0  0  0  0
 35 36  1  0  0  0  0
 36 37  1  0  0  0  0
M  END
>  <MODEL>
2

>  <REMARK>
 VINA RESULT:      -6.5      1.494      1.964
  Name = 
  7 active torsions:
  status: ('A' for Active; 'I' for Inactive)
    1  A    between atoms: C_3  and  C_32
    2  A    between atoms: C_8  and  C_31
    3  A    between atoms: C_9  and  C_13
    4  A    between atoms: C_9  and  C_16
    5  A    between atoms: C_13  and  C_20
    6  A    between atoms: C_18  and  C_35
    7  A    between atoms: C_21  and  C_32
                            x       y       z     vdW  Elec       q    Type
                         _______ _______ _______ _____ _____    ______ ____

>  <TORSDO>
F 7

$$$$
=
 OpenBabel10262423033D

 37 43  0  0  1  0  0  0  0  0999 V2000
  183.8210  177.5500  141.9260 C   0  0  0  0  0  2  0  0  0  0  0  0
  188.6860  178.7630  141.2850 C   0  0  0  0  0  0  0  0  0  0  0  0
  183.1480  178.9040  142.0890 C   0  0  1  0  0  3  0  0  0  0  0  0
  185.7380  178.8670  138.7500 C   0  0  1  0  0  3  0  0  0  0  0  0
  187.2830  179.0580  140.8280 C   0  0  1  0  0  3  0  0  0  0  0  0
  183.5040  180.5610  139.1910 O   0  0  0  0  0  0  0  0  0  0  0  0
  183.2960  178.9330  144.6300 C   0  0  0  0  0  2  0  0  0  0  0  0
  187.1370  178.6390  139.3510 C   0  0  1  0  0  3  0  0  0  0  0  0
  182.3470  179.2240  140.8420 C   0  0  0  0  0  2  0  0  0  0  0  0
  186.6140  177.9840  143.1430 C   0  0  2  0  0  3  0  0  0  0  0  0
  185.5880  178.0320  144.2970 C   0  0  2  0  0  3  0  0  0  0  0  0
  189.4580  177.6910  140.5710 C   0  0  0  0  0  2  0  0  0  0  0  0
  182.3870  179.0590  143.3950 C   0  0  0  0  0  2  0  0  0  0  0  0
  184.7580  179.3140  144.3720 C   0  0  0  0  0  2  0  0  0  0  0  0
  183.3060  179.2470  139.6520 C   0  0  2  0  0  0  0  0  0  0  0  0
  184.9410  177.5840  138.4990 C   0  0  0  0  0  2  0  0  0  0  0  0
  189.3200  179.6060  142.0940 C   0  0  0  0  0  2  0  0  0  0  0  0
  186.1460  178.5520  141.7670 C   0  0  2  0  0  3  0  0  0  0  0  0
  187.8160  177.2890  138.9910 C   0  0  2  0  0  3  0  0  0  0  0  0
  184.6300  178.4320  139.7090 C   0  0  1  0  0  0  0  0  0  0  0  0
  182.7600  179.7020  138.3550 C   0  0  0  0  0  2  0  0  0  0  0  0
  185.0460  177.7460  141.0350 C   0  0  2  0  0  3  0  0  0  0  0  0
  188.5750  176.7230  140.0460 O   0  0  0  0  0  0  0  0  0  0  0  0
  189.1020  178.4880  137.2070 O   0  0  0  0  0  1  0  0  0  0  0  0
  188.5810  177.2670  137.6570 C   0  0  1  0  0  0  0  0  0  0  0  0
  188.2740  176.8570  135.1630 C   0  0  0  0  0  1  0  0  0  0  0  0
  189.4060  176.0230  137.3370 C   0  0  1  0  0  3  0  0  0  0  0  0
  188.0880  176.3080  136.5770 C   0  0  1  0  0  3  0  0  0  0  0  0
  191.8690  176.3280  137.5200 C   0  0  0  0  0  1  0  0  0  0  0  0
  190.6890  176.3400  136.5700 C   0  0  0  0  0  2  0  0  0  0  0  0
  187.3210  176.6200  143.0400 C   0  0  0  0  0  2  0  0  0  0  0  0
  188.5510  176.4880  143.9320 C   0  0  0  0  0  2  0  0  0  0  0  0
  189.6520  175.7280  143.2190 C   0  0  0  0  0  2  0  0  0  0  0  0
  190.9990  176.2630  143.6510 C   0  0  0  0  0  1  0  0  0  0  0  0
  186.2250  177.7270  145.6550 C   0  0  0  0  0  2  0  0  0  0  0  0
  186.0600  178.8750  146.6360 C   0  0  0  0  0  2  0  0  0  0  0  0
  187.0500  178.7190  147.7710 C   0  0  0  0  0  1  0  0  0  0  0  0
  1  3  1  0  0  0  0
  2 17  2  0  0  0  0
  3  9  1  6  0  0  0
  3 13  1  0  0  0  0
  4 16  1  6  0  0  0
  4  8  1  0  0  0  0
  4 20  1  0  0  0  0
  5  2  1  1  0  0  0
  5 18  1  0  0  0  0
  6 15  1  0  0  0  0
  8  5  1  0  0  0  0
 10 11  1  0  0  0  0
 11 14  1  0  0  0  0
 11 35  1  0  0  0  0
 12  2  1  0  0  0  0
 13  7  1  0  0  0  0
 14  7  1  0  0  0  0
 15 20  1  0  0  0  0
 15  9  1  0  0  0  0
 16 20  1  0  0  0  0
 18 10  1  0  0  0  0
 19  8  1  0  0  0  0
 19 23  1  0  0  0  0
 20 22  1  0  0  0  0
 21  6  1  0  0  0  0
 21 15  1  0  0  0  0
 22 18  1  0  0  0  0
 22  1  1  0  0  0  0
 23 12  1  0  0  0  0
 24 25  1  0  0  0  0
 25 19  1  0  0  0  0
 26 28  1  0  0  0  0
 27 25  1  0  0  0  0
 28 27  1  0  0  0  0
 28 25  1  0  0  0  0
 30 27  1  0  0  0  0
 30 29  1  0  0  0  0
 31 10  1  0  0  0  0
 31 32  1  0  0  0  0
 33 34  1  0  0  0  0
 33 32  1  0  0  0  0
 35 36  1  0  0  0  0
 36 37  1  0  0  0  0
M  END
>  <MODEL>
3

>  <REMARK>
 VINA RESULT:      -5.5      2.192      3.528
  Name = 
  7 active torsions:
  status: ('A' for Active; 'I' for Inactive)
    1  A    between atoms: C_3  and  C_32
    2  A    between atoms: C_8  and  C_31
    3  A    between atoms: C_9  and  C_13
    4  A    between atoms: C_9  and  C_16
    5  A    between atoms: C_13  and  C_20
    6  A    between atoms: C_18  and  C_35
    7  A    between atoms: C_21  and  C_32
                            x       y       z     vdW  Elec       q    Type
                         _______ _______ _______ _____ _____    ______ ____

>  <TORSDO>
F 7

$$$$
=
 OpenBabel10262423033D

 37 43  0  0  1  0  0  0  0  0999 V2000
  184.3010  173.2240  137.6810 C   0  0  0  0  0  2  0  0  0  0  0  0
  186.9420  176.9450  135.5050 C   0  0  0  0  0  0  0  0  0  0  0  0
  183.6320  172.5420  136.4980 C   0  0  1  0  0  3  0  0  0  0  0  0
  187.7520  173.1510  135.7900 C   0  0  1  0  0  3  0  0  0  0  0  0
  186.6370  175.4720  135.4550 C   0  0  1  0  0  3  0  0  0  0  0  0
  186.0580  171.2120  134.5980 O   0  0  0  0  0  0  0  0  0  0  0  0
  181.4850  173.9060  136.6270 C   0  0  0  0  0  2  0  0  0  0  0  0
  187.9200  174.6810  135.7850 C   0  0  1  0  0  3  0  0  0  0  0  0
  184.2910  171.2000  136.2500 C   0  0  0  0  0  2  0  0  0  0  0  0
  184.4800  176.1690  136.8030 C   0  0  2  0  0  3  0  0  0  0  0  0
  182.9880  175.8410  137.0390 C   0  0  2  0  0  3  0  0  0  0  0  0
  188.0930  177.4060  136.3520 C   0  0  0  0  0  2  0  0  0  0  0  0
  182.1150  172.5020  136.5900 C   0  0  0  0  0  2  0  0  0  0  0  0
  182.3340  174.9900  135.9520 C   0  0  0  0  0  2  0  0  0  0  0  0
  185.7710  171.4430  135.9550 C   0  0  2  0  0  0  0  0  0  0  0  0
  187.8000  172.5140  137.1810 C   0  0  0  0  0  2  0  0  0  0  0  0
  186.4010  177.7730  134.6160 C   0  0  0  0  0  2  0  0  0  0  0  0
  185.3690  175.0170  136.2390 C   0  0  2  0  0  3  0  0  0  0  0  0
  188.7630  175.2730  136.9480 C   0  0  2  0  0  3  0  0  0  0  0  0
  186.4680  172.7220  136.4990 C   0  0  1  0  0  0  0  0  0  0  0  0
  186.5720  170.2770  135.5210 C   0  0  0  0  0  2  0  0  0  0  0  0
  185.6180  173.8200  137.1860 C   0  0  2  0  0  3  0  0  0  0  0  0
  188.2890  176.5180  137.4310 O   0  0  0  0  0  0  0  0  0  0  0  0
  190.7400  175.8200  135.5110 O   0  0  0  0  0  1  0  0  0  0  0  0
  190.2840  175.2850  136.7250 C   0  0  1  0  0  0  0  0  0  0  0  0
  192.2900  173.7470  136.4200 C   0  0  0  0  0  1  0  0  0  0  0  0
  191.1740  175.5190  137.9420 C   0  0  1  0  0  3  0  0  0  0  0  0
  191.0900  174.1190  137.2890 C   0  0  1  0  0  3  0  0  0  0  0  0
  193.0580  176.8390  138.8930 C   0  0  0  0  0  1  0  0  0  0  0  0
  192.4330  176.3220  137.6140 C   0  0  0  0  0  2  0  0  0  0  0  0
  185.1140  176.9120  137.9930 C   0  0  0  0  0  2  0  0  0  0  0  0
  184.9730  178.4290  137.9260 C   0  0  0  0  0  2  0  0  0  0  0  0
  184.5840  178.9920  139.2790 C   0  0  0  0  0  2  0  0  0  0  0  0
  183.4350  179.9610  139.1140 C   0  0  0  0  0  1  0  0  0  0  0  0
  182.1540  177.0940  137.3140 C   0  0  0  0  0  2  0  0  0  0  0  0
  181.8000  177.8370  136.0360 C   0  0  0  0  0  2  0  0  0  0  0  0
  181.1160  179.1430  136.3820 C   0  0  0  0  0  1  0  0  0  0  0  0
  2 12  1  0  0  0  0
  3  9  1  1  0  0  0
  3 13  1  0  0  0  0
  3  1  1  0  0  0  0
  4 20  1  0  0  0  0
  4 16  1  1  0  0  0
  5  2  1  1  0  0  0
  5  8  1  0  0  0  0
  5 18  1  0  0  0  0
  6 21  1  0  0  0  0
  6 15  1  0  0  0  0
  8  4  1  0  0  0  0
  8 19  1  0  0  0  0
 10 11  1  0  0  0  0
 10 31  1  0  0  0  0
 11 35  1  0  0  0  0
 12 23  1  0  0  0  0
 13  7  1  0  0  0  0
 14  7  1  0  0  0  0
 14 11  1  0  0  0  0
 15  9  1  0  0  0  0
 15 20  1  0  0  0  0
 17  2  2  0  0  0  0
 18 10  1  0  0  0  0
 18 22  1  0  0  0  0
 19 23  1  0  0  0  0
 20 16  1  0  0  0  0
 20 22  1  0  0  0  0
 21 15  1  0  0  0  0
 22  1  1  0  0  0  0
 24 25  1  0  0  0  0
 25 19  1  0  0  0  0
 25 28  1  0  0  0  0
 25 27  1  0  0  0  0
 26 28  1  0  0  0  0
 28 27  1  0  0  0  0
 30 27  1  0  0  0  0
 30 29  1  0  0  0  0
 32 31  1  0  0  0  0
 32 33  1  0  0  0  0
 34 33  1  0  0  0  0
 36 37  1  0  0  0  0
 36 35  1  0  0  0  0
M  END
>  <MODEL>
4

>  <REMARK>
 VINA RESULT:      -5.3      6.118      9.448
  Name = 
  7 active torsions:
  status: ('A' for Active; 'I' for Inactive)
    1  A    between atoms: C_3  and  C_32
    2  A    between atoms: C_8  and  C_31
    3  A    between atoms: C_9  and  C_13
    4  A    between atoms: C_9  and  C_16
    5  A    between atoms: C_13  and  C_20
    6  A    between atoms: C_18  and  C_35
    7  A    between atoms: C_21  and  C_32
                            x       y       z     vdW  Elec       q    Type
                         _______ _______ _______ _____ _____    ______ ____

>  <TORSDO>
F 7

$$$$
=
 OpenBabel10262423033D

 37 43  0  0  1  0  0  0  0  0999 V2000
  181.7750  174.8190  139.5700 C   0  0  0  0  0  2  0  0  0  0  0  0
  183.5620  179.4660  138.6930 C   0  0  0  0  0  0  0  0  0  0  0  0
  180.5300  174.7610  138.6980 C   0  0  1  0  0  3  0  0  0  0  0  0
  183.8490  176.2400  136.5410 C   0  0  1  0  0  3  0  0  0  0  0  0
  183.0600  178.2060  138.0400 C   0  0  1  0  0  3  0  0  0  0  0  0
  181.5300  174.9780  135.5010 O   0  0  0  0  0  0  0  0  0  0  0  0
  178.9310  175.5320  140.5230 C   0  0  0  0  0  2  0  0  0  0  0  0
  184.2140  177.5550  137.2510 C   0  0  1  0  0  3  0  0  0  0  0  0
  180.7880  173.8540  137.5100 C   0  0  0  0  0  2  0  0  0  0  0  0
  181.9380  177.7820  140.3900 C   0  0  2  0  0  3  0  0  0  0  0  0
  180.7110  177.1660  141.1000 C   0  0  2  0  0  3  0  0  0  0  0  0
  185.0310  179.5820  138.9830 C   0  0  0  0  0  2  0  0  0  0  0  0
  179.2550  174.4600  139.4680 C   0  0  0  0  0  2  0  0  0  0  0  0
  179.5000  176.9180  140.2010 C   0  0  0  0  0  2  0  0  0  0  0  0
  181.9640  174.4270  136.7200 C   0  0  2  0  0  0  0  0  0  0  0  0
  184.4630  174.9880  137.1740 C   0  0  0  0  0  2  0  0  0  0  0  0
  182.7890  180.5460  138.7520 C   0  0  0  0  0  2  0  0  0  0  0  0
  182.2700  177.2330  138.9670 C   0  0  2  0  0  3  0  0  0  0  0  0
  185.5870  177.5730  137.9790 C   0  0  2  0  0  3  0  0  0  0  0  0
  183.0140  175.3240  137.4360 C   0  0  1  0  0  0  0  0  0  0  0  0
  182.2810  173.7860  135.4250 C   0  0  0  0  0  2  0  0  0  0  0  0
  182.7660  175.7690  138.8980 C   0  0  2  0  0  3  0  0  0  0  0  0
  185.5880  178.3030  139.1930 O   0  0  0  0  0  0  0  0  0  0  0  0
  187.0590  179.2820  136.8890 O   0  0  0  0  0  1  0  0  0  0  0  0
  186.7990  177.9200  137.0990 C   0  0  1  0  0  0  0  0  0  0  0  0
  187.6880  177.7240  134.7210 C   0  0  0  0  0  1  0  0  0  0  0  0
  188.0190  177.0070  137.1860 C   0  0  1  0  0  3  0  0  0  0  0  0
  187.1140  176.9890  135.9310 C   0  0  1  0  0  3  0  0  0  0  0  0
  190.2130  177.5140  138.2470 C   0  0  0  0  0  1  0  0  0  0  0  0
  189.3400  177.7600  137.0330 C   0  0  0  0  0  2  0  0  0  0  0  0
  183.1650  177.8830  141.3150 C   0  0  0  0  0  2  0  0  0  0  0  0
  183.1260  179.0690  142.2720 C   0  0  0  0  0  2  0  0  0  0  0  0
  184.1680  178.9130  143.3620 C   0  0  0  0  0  2  0  0  0  0  0  0
  183.4970  178.9690  144.7160 C   0  0  0  0  0  1  0  0  0  0  0  0
  180.3020  177.9590  142.3430 C   0  0  0  0  0  2  0  0  0  0  0  0
  179.3880  179.1240  142.0040 C   0  0  0  0  0  2  0  0  0  0  0  0
  179.6880  180.2890  142.9240 C   0  0  0  0  0  1  0  0  0  0  0  0
  2 17  2  0  0  0  0
  2 12  1  0  0  0  0
  3  9  1  6  0  0  0
  3 13  1  0  0  0  0
  3  1  1  0  0  0  0
  4 16  1  1  0  0  0
  4  8  1  0  0  0  0
  4 20  1  0  0  0  0
  5  2  1  1  0  0  0
  5 18  1  0  0  0  0
  6 15  1  0  0  0  0
  8 19  1  0  0  0  0
  8  5  1  0  0  0  0
 10 11  1  0  0  0  0
 10 31  1  0  0  0  0
 11 35  1  0  0  0  0
 12 23  1  0  0  0  0
 13  7  1  0  0  0  0
 14  7  1  0  0  0  0
 14 11  1  0  0  0  0
 15 20  1  0  0  0  0
 15  9  1  0  0  0  0
 16 20  1  0  0  0  0
 18 10  1  0  0  0  0
 19 23  1  0  0  0  0
 20 22  1  0  0  0  0
 21  6  1  0  0  0  0
 21 15  1  0  0  0  0
 22 18  1  0  0  0  0
 22  1  1  0  0  0  0
 24 25  1  0  0  0  0
 25 27  1  0  0  0  0
 25 19  1  0  0  0  0
 26 28  1  0  0  0  0
 28 25  1  0  0  0  0
 28 27  1  0  0  0  0
 30 27  1  0  0  0  0
 30 29  1  0  0  0  0
 31 32  1  0  0  0  0
 32 33  1  0  0  0  0
 33 34  1  0  0  0  0
 36 35  1  0  0  0  0
 36 37  1  0  0  0  0
M  END
>  <MODEL>
5

>  <REMARK>
 VINA RESULT:      -5.3      5.001      8.211
  Name = 
  7 active torsions:
  status: ('A' for Active; 'I' for Inactive)
    1  A    between atoms: C_3  and  C_32
    2  A    between atoms: C_8  and  C_31
    3  A    between atoms: C_9  and  C_13
    4  A    between atoms: C_9  and  C_16
    5  A    between atoms: C_13  and  C_20
    6  A    between atoms: C_18  and  C_35
    7  A    between atoms: C_21  and  C_32
                            x       y       z     vdW  Elec       q    Type
                         _______ _______ _______ _____ _____    ______ ____

>  <TORSDO>
F 7

$$$$
=
 OpenBabel10262423033D

 37 43  0  0  1  0  0  0  0  0999 V2000
  183.4430  175.2640  138.1650 C   0  0  0  0  0  2  0  0  0  0  0  0
  187.0770  178.2590  136.3280 C   0  0  0  0  0  0  0  0  0  0  0  0
  182.5080  175.0910  136.9780 C   0  0  1  0  0  3  0  0  0  0  0  0
  186.5320  174.4350  135.8720 C   0  0  1  0  0  3  0  0  0  0  0  0
  186.2770  177.0100  136.0720 C   0  0  1  0  0  3  0  0  0  0  0  0
  184.2010  173.4430  134.5940 O   0  0  0  0  0  0  0  0  0  0  0  0
  180.9820  177.0330  137.6000 C   0  0  0  0  0  2  0  0  0  0  0  0
  187.2210  175.7920  136.1020 C   0  0  1  0  0  3  0  0  0  0  0  0
  182.6430  173.6850  136.4280 C   0  0  0  0  0  2  0  0  0  0  0  0
  184.5820  178.0970  137.7760 C   0  0  2  0  0  3  0  0  0  0  0  0
  183.0860  178.2390  138.1390 C   0  0  2  0  0  3  0  0  0  0  0  0
  188.3650  178.1350  137.0900 C   0  0  0  0  0  2  0  0  0  0  0  0
  181.0810  175.5370  137.2500 C   0  0  0  0  0  2  0  0  0  0  0  0
  182.1120  177.8870  137.0150 C   0  0  0  0  0  2  0  0  0  0  0  0
  184.0950  173.4800  135.9960 C   0  0  2  0  0  0  0  0  0  0  0  0
  186.4390  173.5530  137.1200 C   0  0  0  0  0  2  0  0  0  0  0  0
  186.8060  179.3790  135.6650 C   0  0  0  0  0  2  0  0  0  0  0  0
  184.9790  176.8530  136.9210 C   0  0  2  0  0  3  0  0  0  0  0  0
  188.2860  175.8270  137.2330 C   0  0  2  0  0  3  0  0  0  0  0  0
  185.2250  174.3210  136.6550 C   0  0  1  0  0  0  0  0  0  0  0  0
  184.4120  172.2270  135.2770 C   0  0  0  0  0  2  0  0  0  0  0  0
  184.8520  175.4780  137.6160 C   0  0  2  0  0  3  0  0  0  0  0  0
  188.3050  177.0360  137.9730 O   0  0  0  0  0  0  0  0  0  0  0  0
  190.1850  175.8570  135.6000 O   0  0  0  0  0  1  0  0  0  0  0  0
  189.7000  175.3800  136.8260 C   0  0  1  0  0  0  0  0  0  0  0  0
  191.0610  173.3250  136.1890 C   0  0  0  0  0  1  0  0  0  0  0  0
  190.7320  175.2060  137.9370 C   0  0  1  0  0  3  0  0  0  0  0  0
  190.1360  173.9720  137.2190 C   0  0  1  0  0  3  0  0  0  0  0  0
  192.6720  176.6910  138.4130 C   0  0  0  0  0  1  0  0  0  0  0  0
  192.1450  175.5990  137.5050 C   0  0  0  0  0  2  0  0  0  0  0  0
  185.5060  178.3350  138.9850 C   0  0  0  0  0  2  0  0  0  0  0  0
  184.7850  178.3350  140.3290 C   0  0  0  0  0  2  0  0  0  0  0  0
  185.6380  178.9940  141.3950 C   0  0  0  0  0  2  0  0  0  0  0  0
  187.0900  178.6300  141.1790 C   0  0  0  0  0  1  0  0  0  0  0  0
  182.7580  179.6160  138.7210 C   0  0  0  0  0  2  0  0  0  0  0  0
  181.5560  180.2520  138.0430 C   0  0  0  0  0  2  0  0  0  0  0  0
  181.5630  181.7450  138.2940 C   0  0  0  0  0  1  0  0  0  0  0  0
  2 12  1  0  0  0  0
  3  9  1  1  0  0  0
  3 13  1  0  0  0  0
  3  1  1  0  0  0  0
  4  8  1  0  0  0  0
  4 20  1  0  0  0  0
  4 16  1  1  0  0  0
  5  8  1  0  0  0  0
  5  2  1  1  0  0  0
  5 18  1  0  0  0  0
  6 21  1  0  0  0  0
  6 15  1  0  0  0  0
  8 19  1  0  0  0  0
 10 11  1  0  0  0  0
 10 31  1  0  0  0  0
 11 35  1  0  0  0  0
 12 23  1  0  0  0  0
 13  7  1  0  0  0  0
 14  7  1  0  0  0  0
 14 11  1  0  0  0  0
 15  9  1  0  0  0  0
 15 20  1  0  0  0  0
 17  2  2  0  0  0  0
 18 22  1  0  0  0  0
 18 10  1  0  0  0  0
 19 23  1  0  0  0  0
 20 16  1  0  0  0  0
 20 22  1  0  0  0  0
 21 15  1  0  0  0  0
 22  1  1  0  0  0  0
 24 25  1  0  0  0  0
 25 28  1  0  0  0  0
 25 19  1  0  0  0  0
 25 27  1  0  0  0  0
 26 28  1  0  0  0  0
 28 27  1  0  0  0  0
 30 27  1  0  0  0  0
 30 29  1  0  0  0  0
 31 32  1  0  0  0  0
 32 33  1  0  0  0  0
 34 33  1  0  0  0  0
 36 37  1  0  0  0  0
 36 35  1  0  0  0  0
M  END
>  <MODEL>
6

>  <REMARK>
 VINA RESULT:      -4.8      4.759      8.318
  Name = 
  7 active torsions:
  status: ('A' for Active; 'I' for Inactive)
    1  A    between atoms: C_3  and  C_32
    2  A    between atoms: C_8  and  C_31
    3  A    between atoms: C_9  and  C_13
    4  A    between atoms: C_9  and  C_16
    5  A    between atoms: C_13  and  C_20
    6  A    between atoms: C_18  and  C_35
    7  A    between atoms: C_21  and  C_32
                            x       y       z     vdW  Elec       q    Type
                         _______ _______ _______ _____ _____    ______ ____

>  <TORSDO>
F 7

$$$$
=
 OpenBabel10262423033D

 37 43  0  0  1  0  0  0  0  0999 V2000
  184.8820  179.7530  142.8550 C   0  0  0  0  0  2  0  0  0  0  0  0
  184.5420  177.4160  138.3850 C   0  0  0  0  0  0  0  0  0  0  0  0
  184.6740  178.6210  143.8500 C   0  0  1  0  0  3  0  0  0  0  0  0
  187.5070  177.5700  140.8960 C   0  0  1  0  0  3  0  0  0  0  0  0
  185.1910  177.3700  139.7420 C   0  0  1  0  0  3  0  0  0  0  0  0
  187.2520  176.4970  143.5110 O   0  0  0  0  0  0  0  0  0  0  0  0
  182.1590  178.9560  144.0620 C   0  0  0  0  0  2  0  0  0  0  0  0
  186.7110  177.5760  139.5800 C   0  0  1  0  0  3  0  0  0  0  0  0
  185.9910  178.2950  144.5260 C   0  0  0  0  0  2  0  0  0  0  0  0
  183.1670  178.9090  140.4410 C   0  0  2  0  0  3  0  0  0  0  0  0
  182.2050  179.2680  141.5970 C   0  0  2  0  0  3  0  0  0  0  0  0
  185.2380  178.1680  137.2870 C   0  0  0  0  0  2  0  0  0  0  0  0
  183.5060  178.8420  144.7960 C   0  0  0  0  0  2  0  0  0  0  0  0
  182.1190  178.2270  142.7130 C   0  0  0  0  0  2  0  0  0  0  0  0
  186.9910  177.8780  143.4470 C   0  0  2  0  0  0  0  0  0  0  0  0
  188.0400  178.9420  141.3190 C   0  0  0  0  0  2  0  0  0  0  0  0
  183.5420  176.5900  138.0900 C   0  0  0  0  0  2  0  0  0  0  0  0
  184.5250  178.2520  140.8400 C   0  0  2  0  0  3  0  0  0  0  0  0
  187.1090  178.6700  138.5520 C   0  0  2  0  0  3  0  0  0  0  0  0
  186.8080  178.3810  141.9870 C   0  0  1  0  0  0  0  0  0  0  0  0
  188.2970  177.3590  143.9060 C   0  0  0  0  0  2  0  0  0  0  0  0
  185.5230  179.1560  141.6030 C   0  0  2  0  0  3  0  0  0  0  0  0
  186.0160  179.2120  137.8310 O   0  0  0  0  0  0  0  0  0  0  0  0
  189.1070  179.3770  137.2180 O   0  0  0  0  0  1  0  0  0  0  0  0
  188.2870  178.3170  137.6300 C   0  0  1  0  0  0  0  0  0  0  0  0
  188.8360  177.4280  135.3080 C   0  0  0  0  0  1  0  0  0  0  0  0
  188.9810  176.9760  137.8530 C   0  0  1  0  0  3  0  0  0  0  0  0
  188.0790  177.1960  136.6150 C   0  0  1  0  0  3  0  0  0  0  0  0
  191.2420  176.7460  138.8690 C   0  0  0  0  0  1  0  0  0  0  0  0
  190.4860  177.0320  137.5880 C   0  0  0  0  0  2  0  0  0  0  0  0
  183.3100  180.0520  139.4190 C   0  0  0  0  0  2  0  0  0  0  0  0
  182.2300  180.0640  138.3440 C   0  0  0  0  0  2  0  0  0  0  0  0
  181.6020  181.4390  138.2290 C   0  0  0  0  0  2  0  0  0  0  0  0
  180.1560  181.3030  137.8080 C   0  0  0  0  0  1  0  0  0  0  0  0
  180.8060  179.6330  141.0960 C   0  0  0  0  0  2  0  0  0  0  0  0
  179.8500  178.4540  141.1600 C   0  0  0  0  0  2  0  0  0  0  0  0
  179.6520  177.8850  139.7700 C   0  0  0  0  0  1  0  0  0  0  0  0
  3  1  1  1  0  0  0
  3  9  1  0  0  0  0
  3 13  1  0  0  0  0
  4 16  1  6  0  0  0
  4 20  1  0  0  0  0
  5  2  1  6  0  0  0
  5 18  1  0  0  0  0
  6 21  1  0  0  0  0
  7 13  1  0  0  0  0
  8  5  1  0  0  0  0
  8  4  1  0  0  0  0
 10 18  1  0  0  0  0
 10 11  1  0  0  0  0
 11 14  1  0  0  0  0
 12 23  1  0  0  0  0
 12  2  1  0  0  0  0
 14  7  1  0  0  0  0
 15  6  1  0  0  0  0
 15 21  1  0  0  0  0
 15  9  1  0  0  0  0
 16 20  1  0  0  0  0
 17  2  2  0  0  0  0
 18 22  1  0  0  0  0
 19  8  1  0  0  0  0
 20 15  1  0  0  0  0
 22 20  1  0  0  0  0
 22  1  1  0  0  0  0
 23 19  1  0  0  0  0
 24 25  1  0  0  0  0
 25 27  1  0  0  0  0
 25 19  1  0  0  0  0
 26 28  1  0  0  0  0
 28 25  1  0  0  0  0
 28 27  1  0  0  0  0
 30 27  1  0  0  0  0
 30 29  1  0  0  0  0
 31 10  1  0  0  0  0
 32 31  1  0  0  0  0
 33 32  1  0  0  0  0
 34 33  1  0  0  0  0
 35 36  1  0  0  0  0
 35 11  1  0  0  0  0
 37 36  1  0  0  0  0
M  END
>  <MODEL>
7

>  <REMARK>
 VINA RESULT:      -4.7      2.954      7.370
  Name = 
  7 active torsions:
  status: ('A' for Active; 'I' for Inactive)
    1  A    between atoms: C_3  and  C_32
    2  A    between atoms: C_8  and  C_31
    3  A    between atoms: C_9  and  C_13
    4  A    between atoms: C_9  and  C_16
    5  A    between atoms: C_13  and  C_20
    6  A    between atoms: C_18  and  C_35
    7  A    between atoms: C_21  and  C_32
                            x       y       z     vdW  Elec       q    Type
                         _______ _______ _______ _____ _____    ______ ____

>  <TORSDO>
F 7

$$$$
=
 OpenBabel10262423033D

 37 43  0  0  1  0  0  0  0  0999 V2000
  184.3730  172.2540  137.0510 C   0  0  0  0  0  2  0  0  0  0  0  0
  185.8220  176.8770  135.6110 C   0  0  0  0  0  0  0  0  0  0  0  0
  184.3520  171.4780  135.7430 C   0  0  1  0  0  3  0  0  0  0  0  0
  187.9410  173.6650  136.1730 C   0  0  1  0  0  3  0  0  0  0  0  0
  186.1380  175.4100  135.5060 C   0  0  1  0  0  3  0  0  0  0  0  0
  187.5050  171.3450  134.5990 O   0  0  0  0  0  0  0  0  0  0  0  0
  181.8890  171.9090  135.2570 C   0  0  0  0  0  2  0  0  0  0  0  0
  187.4950  175.1380  136.1880 C   0  0  1  0  0  3  0  0  0  0  0  0
  185.5210  170.5140  135.7070 C   0  0  0  0  0  2  0  0  0  0  0  0
  183.6110  175.1130  136.2030 C   0  0  2  0  0  3  0  0  0  0  0  0
  182.3590  174.2240  136.0290 C   0  0  2  0  0  3  0  0  0  0  0  0
  186.4410  177.6620  136.7320 C   0  0  0  0  0  2  0  0  0  0  0  0
  183.0020  170.8590  135.4180 C   0  0  0  0  0  2  0  0  0  0  0  0
  182.3920  173.2900  134.8200 C   0  0  0  0  0  2  0  0  0  0  0  0
  186.8110  171.3260  135.8230 C   0  0  2  0  0  0  0  0  0  0  0  0
  187.8720  172.9710  137.5360 C   0  0  0  0  0  2  0  0  0  0  0  0
  185.2500  177.5160  134.5940 C   0  0  0  0  0  2  0  0  0  0  0  0
  184.9910  174.4400  135.9230 C   0  0  2  0  0  3  0  0  0  0  0  0
  187.7110  175.8980  137.5250 C   0  0  2  0  0  3  0  0  0  0  0  0
  186.7900  172.7190  136.5140 C   0  0  1  0  0  0  0  0  0  0  0  0
  188.0850  170.5950  135.6440 C   0  0  0  0  0  2  0  0  0  0  0  0
  185.4330  173.3460  136.9230 C   0  0  2  0  0  3  0  0  0  0  0  0
  186.6830  176.8210  137.8390 O   0  0  0  0  0  0  0  0  0  0  0  0
  189.3670  177.7220  137.0770 O   0  0  0  0  0  1  0  0  0  0  0  0
  189.1090  176.5050  137.7250 C   0  0  1  0  0  0  0  0  0  0  0  0
  191.5730  176.0990  137.2320 C   0  0  0  0  0  1  0  0  0  0  0  0
  189.7760  176.3100  139.0830 C   0  0  1  0  0  3  0  0  0  0  0  0
  190.2870  175.5430  137.8400 C   0  0  1  0  0  3  0  0  0  0  0  0
  191.1680  177.2810  140.9040 C   0  0  0  0  0  1  0  0  0  0  0  0
  190.6230  177.5090  139.5090 C   0  0  0  0  0  2  0  0  0  0  0  0
  183.5770  175.9300  137.5070 C   0  0  0  0  0  2  0  0  0  0  0  0
  182.7230  177.1910  137.4290 C   0  0  0  0  0  2  0  0  0  0  0  0
  183.3370  178.3070  138.2520 C   0  0  0  0  0  2  0  0  0  0  0  0
  183.4460  177.8700  139.6960 C   0  0  0  0  0  1  0  0  0  0  0  0
  181.0630  175.0370  136.0440 C   0  0  0  0  0  2  0  0  0  0  0  0
  179.9450  174.3190  136.7810 C   0  0  0  0  0  2  0  0  0  0  0  0
  180.1640  174.4390  138.2750 C   0  0  0  0  0  1  0  0  0  0  0  0
  2 12  1  0  0  0  0
  3 13  1  1  0  0  0
  3  1  1  0  0  0  0
  4  8  1  0  0  0  0
  4 20  1  0  0  0  0
  4 16  1  1  0  0  0
  5  2  1  1  0  0  0
  5 18  1  0  0  0  0
  5  8  1  0  0  0  0
  6 21  1  0  0  0  0
  6 15  1  0  0  0  0
  7 13  1  0  0  0  0
  8 19  1  0  0  0  0
  9  3  1  0  0  0  0
  9 15  1  0  0  0  0
 10 31  1  0  0  0  0
 11 35  1  0  0  0  0
 11 10  1  0  0  0  0
 12 23  1  0  0  0  0
 14  7  1  0  0  0  0
 14 11  1  0  0  0  0
 15 20  1  0  0  0  0
 17  2  2  0  0  0  0
 18 10  1  0  0  0  0
 18 22  1  0  0  0  0
 19 25  1  0  0  0  0
 19 23  1  0  0  0  0
 20 22  1  0  0  0  0
 20 16  1  0  0  0  0
 21 15  1  0  0  0  0
 22  1  1  0  0  0  0
 24 25  1  0  0  0  0
 25 28  1  0  0  0  0
 25 27  1  0  0  0  0
 26 28  1  0  0  0  0
 27 30  1  0  0  0  0
 28 27  1  0  0  0  0
 30 29  1  0  0  0  0
 32 31  1  0  0  0  0
 32 33  1  0  0  0  0
 33 34  1  0  0  0  0
 35 36  1  0  0  0  0
 36 37  1  0  0  0  0
M  END
>  <MODEL>
8

>  <REMARK>
 VINA RESULT:      -4.5      5.728     10.029
  Name = 
  7 active torsions:
  status: ('A' for Active; 'I' for Inactive)
    1  A    between atoms: C_3  and  C_32
    2  A    between atoms: C_8  and  C_31
    3  A    between atoms: C_9  and  C_13
    4  A    between atoms: C_9  and  C_16
    5  A    between atoms: C_13  and  C_20
    6  A    between atoms: C_18  and  C_35
    7  A    between atoms: C_21  and  C_32
                            x       y       z     vdW  Elec       q    Type
                         _______ _______ _______ _____ _____    ______ ____

>  <TORSDO>
F 7

$$$$
=
 OpenBabel10262423033D

 37 43  0  0  1  0  0  0  0  0999 V2000
  187.4820  179.2350  139.7730 C   0  0  0  0  0  2  0  0  0  0  0  0
  188.9560  176.0840  143.4410 C   0  0  0  0  0  0  0  0  0  0  0  0
  186.7180  178.3240  138.8250 C   0  0  1  0  0  3  0  0  0  0  0  0
  185.4940  177.7460  142.8270 C   0  0  1  0  0  3  0  0  0  0  0  0
  187.7800  176.5350  142.6170 C   0  0  1  0  0  3  0  0  0  0  0  0
  184.0170  177.1950  140.4670 O   0  0  0  0  0  0  0  0  0  0  0  0
  188.7200  177.8070  137.3380 C   0  0  0  0  0  2  0  0  0  0  0  0
  186.7490  177.2150  143.5410 C   0  0  1  0  0  3  0  0  0  0  0  0
  185.2340  178.6130  138.9310 C   0  0  0  0  0  2  0  0  0  0  0  0
  189.6430  177.3910  140.9570 C   0  0  2  0  0  3  0  0  0  0  0  0
  189.9860  177.6190  139.4670 C   0  0  2  0  0  3  0  0  0  0  0  0
  189.2350  176.7960  144.7340 C   0  0  0  0  0  2  0  0  0  0  0  0
  187.2680  178.3130  137.4080 C   0  0  0  0  0  2  0  0  0  0  0  0
  189.1060  176.8570  138.4770 C   0  0  0  0  0  2  0  0  0  0  0  0
  184.8010  178.3600  140.3750 C   0  0  2  0  0  0  0  0  0  0  0  0
  185.4200  179.2730  142.7300 C   0  0  0  0  0  2  0  0  0  0  0  0
  189.5510  174.9240  143.1830 C   0  0  0  0  0  2  0  0  0  0  0  0
  188.1280  177.3350  141.3240 C   0  0  2  0  0  3  0  0  0  0  0  0
  187.3640  178.1520  144.6170 C   0  0  2  0  0  3  0  0  0  0  0  0
  185.8420  178.4670  141.5250 C   0  0  1  0  0  0  0  0  0  0  0  0
  183.3520  178.4240  140.6640 C   0  0  0  0  0  2  0  0  0  0  0  0
  187.3410  178.6590  141.1810 C   0  0  2  0  0  3  0  0  0  0  0  0
  188.7800  178.1300  144.6630 O   0  0  0  0  0  0  0  0  0  0  0  0
  186.5050  176.7590  146.5120 O   0  0  0  0  0  1  0  0  0  0  0  0
  186.7420  178.0500  146.0190 C   0  0  1  0  0  0  0  0  0  0  0  0
  184.6250  178.5810  147.3300 C   0  0  0  0  0  1  0  0  0  0  0  0
  187.1450  179.1020  147.0490 C   0  0  1  0  0  3  0  0  0  0  0  0
  185.7300  179.1190  146.4220 C   0  0  1  0  0  3  0  0  0  0  0  0
  188.6480  178.1070  148.7650 C   0  0  0  0  0  1  0  0  0  0  0  0
  187.2280  178.5440  148.4690 C   0  0  0  0  0  2  0  0  0  0  0  0
  190.4740  178.2850  141.8960 C   0  0  0  0  0  2  0  0  0  0  0  0
  191.7630  177.6390  142.3910 C   0  0  0  0  0  2  0  0  0  0  0  0
  192.1050  178.1240  143.7860 C   0  0  0  0  0  2  0  0  0  0  0  0
  191.5410  179.5120  143.9920 C   0  0  0  0  0  1  0  0  0  0  0  0
  191.4670  177.3720  139.1680 C   0  0  0  0  0  2  0  0  0  0  0  0
  191.6890  176.0750  138.4080 C   0  0  0  0  0  2  0  0  0  0  0  0
  192.7660  176.2770  137.3630 C   0  0  0  0  0  1  0  0  0  0  0  0
  1 22  1  0  0  0  0
  2 12  1  0  0  0  0
  3 13  1  6  0  0  0
  3  9  1  0  0  0  0
  3  1  1  0  0  0  0
  4 16  1  1  0  0  0
  4  8  1  0  0  0  0
  5  2  1  1  0  0  0
  5  8  1  0  0  0  0
  6 21  1  0  0  0  0
  7 13  1  0  0  0  0
  7 14  1  0  0  0  0
  8 19  1  0  0  0  0
  9 15  1  0  0  0  0
 10 18  1  0  0  0  0
 10 31  1  0  0  0  0
 11 10  1  0  0  0  0
 14 11  1  0  0  0  0
 15  6  1  0  0  0  0
 15 21  1  0  0  0  0
 15 20  1  0  0  0  0
 17  2  2  0  0  0  0
 18  5  1  0  0  0  0
 19 23  1  0  0  0  0
 19 25  1  0  0  0  0
 20 16  1  0  0  0  0
 20  4  1  0  0  0  0
 22 18  1  0  0  0  0
 22 20  1  0  0  0  0
 23 12  1  0  0  0  0
 25 28  1  0  0  0  0
 25 24  1  0  0  0  0
 25 27  1  0  0  0  0
 27 30  1  0  0  0  0
 28 27  1  0  0  0  0
 28 26  1  0  0  0  0
 30 29  1  0  0  0  0
 31 32  1  0  0  0  0
 32 33  1  0  0  0  0
 33 34  1  0  0  0  0
 35 11  1  0  0  0  0
 36 35  1  0  0  0  0
 37 36  1  0  0  0  0
M  END
>  <MODEL>
9

>  <REMARK>
 VINA RESULT:      -4.4      2.012      6.858
  Name = 
  7 active torsions:
  status: ('A' for Active; 'I' for Inactive)
    1  A    between atoms: C_3  and  C_32
    2  A    between atoms: C_8  and  C_31
    3  A    between atoms: C_9  and  C_13
    4  A    between atoms: C_9  and  C_16
    5  A    between atoms: C_13  and  C_20
    6  A    between atoms: C_18  and  C_35
    7  A    between atoms: C_21  and  C_32
                            x       y       z     vdW  Elec       q    Type
                         _______ _______ _______ _____ _____    ______ ____

>  <TORSDO>
F 7

$$$$
