=
 OpenBabel10262419523D

 25 29  0  0  1  0  0  0  0  0999 V2000
  189.5680  177.4720  143.2930 C   0  0  0  0  0  0  0  0  0  0  0  0
  190.4530  178.2320  143.9250 C   0  0  0  0  0  0  0  0  0  0  0  0
  191.3190  179.2780  143.3140 C   0  0  0  0  0  1  0  0  0  0  0  0
  188.9140  176.5490  144.2680 C   0  0  0  0  0  2  0  0  0  0  0  0
  189.5850  176.9040  145.5990 C   0  0  1  0  0  3  0  0  0  0  0  0
  190.4980  177.9420  145.2740 O   0  0  0  0  0  0  0  0  0  0  0  0
  188.0850  178.0200  141.2700 C   0  0  0  0  0  0  0  0  0  0  0  0
  189.1600  177.4590  139.2510 C   0  0  0  0  0  3  0  0  0  0  0  0
  186.8670  178.7200  141.7450 C   0  0  1  0  0  3  0  0  0  0  0  0
  184.0100  178.7290  141.3730 C   0  0  0  0  0  3  0  0  0  0  0  0
  190.1770  177.0110  140.5350 S   0  0  0  0  0  0  0  0  0  0  0  0
  186.1950  178.9480  140.4070 C   0  0  0  0  0  0  0  0  0  0  0  0
  184.7510  179.1900  140.3560 C   0  0  0  0  0  3  0  0  0  0  0  0
  184.6320  177.9560  142.4810 C   0  0  0  0  0  3  0  0  0  0  0  0
  188.0700  178.0140  139.9050 C   0  0  0  0  0  0  0  0  0  0  0  0
  186.8760  178.5550  139.3690 N   0  0  0  0  0  0  0  0  0  0  0  0
  185.9660  177.8910  142.6250 C   0  0  0  0  0  3  0  0  0  0  0  0
  189.2310  177.5070  141.8530 C   0  0  0  0  0  0  0  0  0  0  0  0
  186.3210  178.2490  146.9970 C   0  0  0  0  0  0  0  0  0  0  0  0
  188.5740  177.3880  146.5880 C   0  0  0  0  0  0  0  0  0  0  0  0
  187.1610  177.5880  146.1950 C   0  0  0  0  0  3  0  0  0  0  0  0
  184.6510  178.4600  146.5220 Cl  0  0  0  0  0  0  0  0  0  0  0  0
  188.9610  177.6560  147.8400 C   0  0  0  0  0  3  0  0  0  0  0  0
  186.8300  178.8980  148.2570 C   0  0  0  0  0  2  0  0  0  0  0  0
  187.9540  178.0660  148.8810 C   0  0  0  0  0  2  0  0  0  0  0  0
  1  2  2  0  0  0  0
  1  4  1  0  0  0  0
  2  6  1  0  0  0  0
  3  2  1  0  0  0  0
  4  5  1  0  0  0  0
  5 20  1  1  0  0  0
  6  5  1  0  0  0  0
  7  9  1  0  0  0  0
  7 18  2  0  0  0  0
  8 15  2  0  0  0  0
  8 11  1  0  0  0  0
  9 17  1  1  0  0  0
 10 14  1  0  0  0  0
 11 18  1  0  0  0  0
 12  9  1  0  0  0  0
 13 12  1  0  0  0  0
 13 10  2  0  0  0  0
 14 17  2  0  0  0  0
 15  7  1  0  0  0  0
 16 15  1  0  0  0  0
 16 12  2  0  0  0  0
 18  1  1  0  0  0  0
 19 24  1  0  0  0  0
 20 23  2  0  0  0  0
 21 20  1  0  0  0  0
 21 19  2  0  0  0  0
 22 19  1  0  0  0  0
 23 25  1  0  0  0  0
 24 25  1  0  0  0  0
M  END
>  <MODEL>
1

>  <REMARK>
 VINA RESULT:      -9.3      0.000      0.000
  Name = 
  2 active torsions:
  status: ('A' for Active; 'I' for Inactive)
    1  A    between atoms: C_3  and  C_24
    2  A    between atoms: C_6  and  C_20
                            x       y       z     vdW  Elec       q    Type
                         _______ _______ _______ _____ _____    ______ ____

>  <TORSDO>
F 2

$$$$
=
 OpenBabel10262419523D

 25 29  0  0  1  0  0  0  0  0999 V2000
  189.3540  177.6690  143.1190 C   0  0  0  0  0  0  0  0  0  0  0  0
  190.3100  178.3290  143.7600 C   0  0  0  0  0  0  0  0  0  0  0  0
  191.1850  179.3930  143.1950 C   0  0  0  0  0  1  0  0  0  0  0  0
  188.7190  176.6840  144.0430 C   0  0  0  0  0  2  0  0  0  0  0  0
  189.4850  176.8820  145.3550 C   0  0  1  0  0  3  0  0  0  0  0  0
  190.4230  177.9090  145.0700 O   0  0  0  0  0  0  0  0  0  0  0  0
  189.5900  177.4280  140.5740 C   0  0  0  0  0  0  0  0  0  0  0  0
  187.7140  178.3150  139.4580 C   0  0  0  0  0  3  0  0  0  0  0  0
  190.8140  176.6460  140.2780 C   0  0  1  0  0  3  0  0  0  0  0  0
  193.1010  176.6580  138.5260 C   0  0  0  0  0  3  0  0  0  0  0  0
  187.5080  178.5670  141.1250 S   0  0  0  0  0  0  0  0  0  0  0  0
  190.7140  176.6230  138.7670 C   0  0  0  0  0  0  0  0  0  0  0  0
  191.9170  176.3730  137.9680 C   0  0  0  0  0  3  0  0  0  0  0  0
  193.1800  177.2550  139.8870 C   0  0  0  0  0  3  0  0  0  0  0  0
  188.9290  177.6490  139.3990 C   0  0  0  0  0  0  0  0  0  0  0  0
  189.6490  177.1840  138.2720 N   0  0  0  0  0  0  0  0  0  0  0  0
  192.1020  177.3130  140.6860 C   0  0  0  0  0  3  0  0  0  0  0  0
  188.9320  177.8570  141.7130 C   0  0  0  0  0  0  0  0  0  0  0  0
  186.3560  178.1610  147.0860 C   0  0  0  0  0  0  0  0  0  0  0  0
  188.5590  177.3090  146.4480 C   0  0  0  0  0  0  0  0  0  0  0  0
  187.1230  177.5470  146.1800 C   0  0  0  0  0  3  0  0  0  0  0  0
  184.6580  178.4170  146.7560 Cl  0  0  0  0  0  0  0  0  0  0  0  0
  189.0450  177.4900  147.6820 C   0  0  0  0  0  3  0  0  0  0  0  0
  186.9690  178.7210  148.3420 C   0  0  0  0  0  2  0  0  0  0  0  0
  188.1260  177.8400  148.8220 C   0  0  0  0  0  2  0  0  0  0  0  0
  1  2  2  0  0  0  0
  1  4  1  0  0  0  0
  2  6  1  0  0  0  0
  3  2  1  0  0  0  0
  4  5  1  0  0  0  0
  5 20  1  1  0  0  0
  6  5  1  0  0  0  0
  7 18  2  0  0  0  0
  8 11  1  0  0  0  0
  9  7  1  0  0  0  0
  9 17  1  6  0  0  0
 10 14  1  0  0  0  0
 11 18  1  0  0  0  0
 12  9  1  0  0  0  0
 13 10  2  0  0  0  0
 13 12  1  0  0  0  0
 14 17  2  0  0  0  0
 15  8  2  0  0  0  0
 15  7  1  0  0  0  0
 16 12  2  0  0  0  0
 16 15  1  0  0  0  0
 18  1  1  0  0  0  0
 19 24  1  0  0  0  0
 20 23  2  0  0  0  0
 21 20  1  0  0  0  0
 21 19  2  0  0  0  0
 22 19  1  0  0  0  0
 23 25  1  0  0  0  0
 24 25  1  0  0  0  0
M  END
>  <MODEL>
2

>  <REMARK>
 VINA RESULT:      -8.5      1.877      3.802
  Name = 
  2 active torsions:
  status: ('A' for Active; 'I' for Inactive)
    1  A    between atoms: C_3  and  C_24
    2  A    between atoms: C_6  and  C_20
                            x       y       z     vdW  Elec       q    Type
                         _______ _______ _______ _____ _____    ______ ____

>  <TORSDO>
F 2

$$$$
=
 OpenBabel10262419523D

 25 29  0  0  1  0  0  0  0  0999 V2000
  186.6150  178.0380  146.2580 C   0  0  0  0  0  0  0  0  0  0  0  0
  185.9430  179.0960  146.6930 C   0  0  0  0  0  0  0  0  0  0  0  0
  186.4470  180.1470  147.6200 C   0  0  0  0  0  1  0  0  0  0  0  0
  185.7460  177.2320  145.3500 C   0  0  0  0  0  2  0  0  0  0  0  0
  184.4270  178.0130  145.3340 C   0  0  1  0  0  3  0  0  0  0  0  0
  184.6620  179.1290  146.1790 O   0  0  0  0  0  0  0  0  0  0  0  0
  189.0900  177.6350  145.7080 C   0  0  0  0  0  0  0  0  0  0  0  0
  190.3180  177.1160  147.6500 C   0  0  0  0  0  3  0  0  0  0  0  0
  189.3170  177.9360  144.2750 C   0  0  1  0  0  3  0  0  0  0  0  0
  190.6450  176.8670  141.9520 C   0  0  0  0  0  3  0  0  0  0  0  0
  188.6890  177.3080  148.0890 S   0  0  0  0  0  0  0  0  0  0  0  0
  190.8050  177.6550  144.2130 C   0  0  0  0  0  0  0  0  0  0  0  0
  191.4300  177.3580  142.9210 C   0  0  0  0  0  3  0  0  0  0  0  0
  189.2050  176.5880  142.2030 C   0  0  0  0  0  3  0  0  0  0  0  0
  190.2980  177.3650  146.2860 C   0  0  0  0  0  0  0  0  0  0  0  0
  191.3580  177.3380  145.3470 N   0  0  0  0  0  0  0  0  0  0  0  0
  188.5940  177.0270  143.3160 C   0  0  0  0  0  3  0  0  0  0  0  0
  188.0140  177.6790  146.5770 C   0  0  0  0  0  0  0  0  0  0  0  0
  182.3760  179.0100  142.2980 C   0  0  0  0  0  0  0  0  0  0  0  0
  184.0990  178.4670  143.9480 C   0  0  0  0  0  0  0  0  0  0  0  0
  182.7160  178.8450  143.5800 C   0  0  0  0  0  3  0  0  0  0  0  0
  180.7410  179.4740  141.8850 Cl  0  0  0  0  0  0  0  0  0  0  0  0
  185.0700  178.5170  143.0300 C   0  0  0  0  0  3  0  0  0  0  0  0
  183.3660  178.6990  141.2070 C   0  0  0  0  0  2  0  0  0  0  0  0
  184.7900  179.0480  141.6490 C   0  0  0  0  0  2  0  0  0  0  0  0
  1 18  1  0  0  0  0
  1  2  2  0  0  0  0
  2  3  1  0  0  0  0
  4  1  1  0  0  0  0
  5 20  1  6  0  0  0
  5  4  1  0  0  0  0
  5  6  1  0  0  0  0
  6  2  1  0  0  0  0
  7 15  1  0  0  0  0
  7 18  2  0  0  0  0
  8 11  1  0  0  0  0
  9 17  1  6  0  0  0
  9  7  1  0  0  0  0
 10 14  1  0  0  0  0
 10 13  2  0  0  0  0
 12  9  1  0  0  0  0
 12 16  2  0  0  0  0
 13 12  1  0  0  0  0
 14 17  2  0  0  0  0
 15  8  2  0  0  0  0
 16 15  1  0  0  0  0
 18 11  1  0  0  0  0
 19 21  2  0  0  0  0
 21 20  1  0  0  0  0
 22 19  1  0  0  0  0
 23 20  2  0  0  0  0
 24 25  1  0  0  0  0
 24 19  1  0  0  0  0
 25 23  1  0  0  0  0
M  END
>  <MODEL>
3

>  <REMARK>
 VINA RESULT:      -8.5      3.131      6.083
  Name = 
  2 active torsions:
  status: ('A' for Active; 'I' for Inactive)
    1  A    between atoms: C_3  and  C_24
    2  A    between atoms: C_6  and  C_20
                            x       y       z     vdW  Elec       q    Type
                         _______ _______ _______ _____ _____    ______ ____

>  <TORSDO>
F 2

$$$$
=
 OpenBabel10262419523D

 25 29  0  0  1  0  0  0  0  0999 V2000
  190.2410  176.7230  141.6200 C   0  0  0  0  0  0  0  0  0  0  0  0
  191.5100  177.1000  141.7080 C   0  0  0  0  0  0  0  0  0  0  0  0
  192.2510  177.9530  140.7390 C   0  0  0  0  0  1  0  0  0  0  0  0
  189.8890  175.8690  142.7920 C   0  0  0  0  0  2  0  0  0  0  0  0
  191.1940  175.8070  143.5920 C   0  0  1  0  0  3  0  0  0  0  0  0
  192.1100  176.5940  142.8440 O   0  0  0  0  0  0  0  0  0  0  0  0
  188.0930  177.7830  140.6950 C   0  0  0  0  0  0  0  0  0  0  0  0
  187.9880  177.5840  138.3500 C   0  0  0  0  0  3  0  0  0  0  0  0
  187.3720  178.4490  141.8050 C   0  0  1  0  0  3  0  0  0  0  0  0
  184.7180  178.7330  142.8920 C   0  0  0  0  0  3  0  0  0  0  0  0
  189.4010  176.8090  138.8850 S   0  0  0  0  0  0  0  0  0  0  0  0
  186.1970  178.9980  141.0220 C   0  0  0  0  0  0  0  0  0  0  0  0
  184.9590  179.3440  141.7240 C   0  0  0  0  0  3  0  0  0  0  0  0
  185.6540  177.7030  143.4220 C   0  0  0  0  0  3  0  0  0  0  0  0
  187.4380  178.0630  139.5300 C   0  0  0  0  0  0  0  0  0  0  0  0
  186.2380  178.7850  139.7380 N   0  0  0  0  0  0  0  0  0  0  0  0
  186.8680  177.5200  142.8790 C   0  0  0  0  0  3  0  0  0  0  0  0
  189.2780  177.0820  140.5550 C   0  0  0  0  0  0  0  0  0  0  0  0
  191.6530  176.3780  147.3180 C   0  0  0  0  0  0  0  0  0  0  0  0
  191.0060  176.3820  144.9580 C   0  0  0  0  0  0  0  0  0  0  0  0
  191.9530  176.0710  146.0520 C   0  0  0  0  0  3  0  0  0  0  0  0
  192.7930  176.0180  148.5940 Cl  0  0  0  0  0  0  0  0  0  0  0  0
  189.9570  177.1790  145.1930 C   0  0  0  0  0  3  0  0  0  0  0  0
  190.2980  176.9390  147.6600 C   0  0  0  0  0  2  0  0  0  0  0  0
  189.7830  177.8400  146.5340 C   0  0  0  0  0  2  0  0  0  0  0  0
  1  2  2  0  0  0  0
  1  4  1  0  0  0  0
  2  6  1  0  0  0  0
  3  2  1  0  0  0  0
  4  5  1  0  0  0  0
  5 20  1  1  0  0  0
  6  5  1  0  0  0  0
  7  9  1  0  0  0  0
  8 11  1  0  0  0  0
  8 15  2  0  0  0  0
  9 17  1  1  0  0  0
 10 14  1  0  0  0  0
 11 18  1  0  0  0  0
 12 13  1  0  0  0  0
 12  9  1  0  0  0  0
 13 10  2  0  0  0  0
 15 16  1  0  0  0  0
 15  7  1  0  0  0  0
 16 12  2  0  0  0  0
 17 14  2  0  0  0  0
 18  7  2  0  0  0  0
 18  1  1  0  0  0  0
 19 24  1  0  0  0  0
 19 22  1  0  0  0  0
 20 23  2  0  0  0  0
 20 21  1  0  0  0  0
 21 19  2  0  0  0  0
 23 25  1  0  0  0  0
 25 24  1  0  0  0  0
M  END
>  <MODEL>
4

>  <REMARK>
 VINA RESULT:      -8.2      2.541      3.075
  Name = 
  2 active torsions:
  status: ('A' for Active; 'I' for Inactive)
    1  A    between atoms: C_3  and  C_24
    2  A    between atoms: C_6  and  C_20
                            x       y       z     vdW  Elec       q    Type
                         _______ _______ _______ _____ _____    ______ ____

>  <TORSDO>
F 2

$$$$
=
 OpenBabel10262419523D

 25 29  0  0  1  0  0  0  0  0999 V2000
  189.4260  177.4640  143.0820 C   0  0  0  0  0  0  0  0  0  0  0  0
  189.9210  176.3890  142.4810 C   0  0  0  0  0  0  0  0  0  0  0  0
  190.3410  175.1210  143.1380 C   0  0  0  0  0  1  0  0  0  0  0  0
  189.1390  178.5180  142.0660 C   0  0  0  0  0  2  0  0  0  0  0  0
  189.5640  177.8660  140.7460 C   0  0  1  0  0  3  0  0  0  0  0  0
  190.0180  176.5720  141.1160 O   0  0  0  0  0  0  0  0  0  0  0  0
  187.9300  177.7210  145.1530 C   0  0  0  0  0  0  0  0  0  0  0  0
  189.2160  177.7920  147.1260 C   0  0  0  0  0  3  0  0  0  0  0  0
  186.5120  177.6430  144.7320 C   0  0  1  0  0  3  0  0  0  0  0  0
  183.9820  178.9570  145.1540 C   0  0  0  0  0  3  0  0  0  0  0  0
  190.2780  177.6810  145.8050 S   0  0  0  0  0  0  0  0  0  0  0  0
  185.8590  177.7920  146.0910 C   0  0  0  0  0  0  0  0  0  0  0  0
  184.4660  178.2400  146.1780 C   0  0  0  0  0  3  0  0  0  0  0  0
  184.8490  179.3230  144.0010 C   0  0  0  0  0  3  0  0  0  0  0  0
  187.9700  177.7770  146.5170 C   0  0  0  0  0  0  0  0  0  0  0  0
  186.6810  177.8610  147.0980 N   0  0  0  0  0  0  0  0  0  0  0  0
  186.0580  178.7640  143.8320 C   0  0  0  0  0  3  0  0  0  0  0  0
  189.1620  177.6330  144.5280 C   0  0  0  0  0  0  0  0  0  0  0  0
  187.5700  177.1070  137.6050 C   0  0  0  0  0  0  0  0  0  0  0  0
  188.4030  177.7630  139.8090 C   0  0  0  0  0  0  0  0  0  0  0  0
  188.5090  176.9950  138.5480 C   0  0  0  0  0  3  0  0  0  0  0  0
  187.7050  176.1780  136.1290 Cl  0  0  0  0  0  0  0  0  0  0  0  0
  187.2600  178.3880  140.1140 C   0  0  0  0  0  3  0  0  0  0  0  0
  186.4520  178.1040  137.7630 C   0  0  0  0  0  2  0  0  0  0  0  0
  186.0480  178.2370  139.2340 C   0  0  0  0  0  2  0  0  0  0  0  0
  1 18  1  0  0  0  0
  2  1  2  0  0  0  0
  2  3  1  0  0  0  0
  4  1  1  0  0  0  0
  5 20  1  6  0  0  0
  5  6  1  0  0  0  0
  5  4  1  0  0  0  0
  6  2  1  0  0  0  0
  7 15  1  0  0  0  0
  9 17  1  6  0  0  0
  9  7  1  0  0  0  0
  9 12  1  0  0  0  0
 10 13  2  0  0  0  0
 11  8  1  0  0  0  0
 12 13  1  0  0  0  0
 12 16  2  0  0  0  0
 14 10  1  0  0  0  0
 15 16  1  0  0  0  0
 15  8  2  0  0  0  0
 17 14  2  0  0  0  0
 18  7  2  0  0  0  0
 18 11  1  0  0  0  0
 19 24  1  0  0  0  0
 19 21  2  0  0  0  0
 20 23  2  0  0  0  0
 21 20  1  0  0  0  0
 22 19  1  0  0  0  0
 24 25  1  0  0  0  0
 25 23  1  0  0  0  0
M  END
>  <MODEL>
5

>  <REMARK>
 VINA RESULT:      -8.0      3.371      6.275
  Name = 
  2 active torsions:
  status: ('A' for Active; 'I' for Inactive)
    1  A    between atoms: C_3  and  C_24
    2  A    between atoms: C_6  and  C_20
                            x       y       z     vdW  Elec       q    Type
                         _______ _______ _______ _____ _____    ______ ____

>  <TORSDO>
F 2

$$$$
=
 OpenBabel10262419523D

 25 29  0  0  1  0  0  0  0  0999 V2000
  189.5480  177.4750  142.7920 C   0  0  0  0  0  0  0  0  0  0  0  0
  189.8350  178.3620  143.7360 C   0  0  0  0  0  0  0  0  0  0  0  0
  190.9300  179.3700  143.7010 C   0  0  0  0  0  1  0  0  0  0  0  0
  188.3810  176.6480  143.2210 C   0  0  0  0  0  2  0  0  0  0  0  0
  188.0350  177.2100  144.6030 C   0  0  1  0  0  3  0  0  0  0  0  0
  188.9790  178.2500  144.8130 O   0  0  0  0  0  0  0  0  0  0  0  0
  189.8000  177.7390  140.2510 C   0  0  0  0  0  0  0  0  0  0  0  0
  191.8650  176.8820  139.5080 C   0  0  0  0  0  3  0  0  0  0  0  0
  188.6460  178.5110  139.7320 C   0  0  1  0  0  3  0  0  0  0  0  0
  186.7360  178.4920  137.5750 C   0  0  0  0  0  3  0  0  0  0  0  0
  191.7510  176.6150  141.1820 S   0  0  0  0  0  0  0  0  0  0  0  0
  189.0320  178.5490  138.2680 C   0  0  0  0  0  0  0  0  0  0  0  0
  188.0020  178.7940  137.2550 C   0  0  0  0  0  3  0  0  0  0  0  0
  186.4060  177.8810  138.8910 C   0  0  0  0  0  3  0  0  0  0  0  0
  190.6760  177.5350  139.2220 C   0  0  0  0  0  0  0  0  0  0  0  0
  190.1790  178.0040  137.9820 N   0  0  0  0  0  0  0  0  0  0  0  0
  187.3110  177.8260  139.8810 C   0  0  0  0  0  3  0  0  0  0  0  0
  190.2330  177.3050  141.4920 C   0  0  0  0  0  0  0  0  0  0  0  0
  184.7280  178.5870  143.3440 C   0  0  0  0  0  0  0  0  0  0  0  0
  186.6440  177.7570  144.6190 C   0  0  0  0  0  0  0  0  0  0  0  0
  185.8600  177.8780  143.3680 C   0  0  0  0  0  3  0  0  0  0  0  0
  183.8080  178.7040  141.8610 Cl  0  0  0  0  0  0  0  0  0  0  0  0
  186.1100  178.1520  145.7800 C   0  0  0  0  0  3  0  0  0  0  0  0
  184.2950  179.3660  144.5580 C   0  0  0  0  0  2  0  0  0  0  0  0
  184.6840  178.6290  145.8430 C   0  0  0  0  0  2  0  0  0  0  0  0
  1  4  1  0  0  0  0
  1  2  2  0  0  0  0
  2  6  1  0  0  0  0
  3  2  1  0  0  0  0
  4  5  1  0  0  0  0
  5 20  1  6  0  0  0
  5  6  1  0  0  0  0
  7 18  2  0  0  0  0
  8 11  1  0  0  0  0
  9 17  1  6  0  0  0
  9  7  1  0  0  0  0
 10 14  1  0  0  0  0
 11 18  1  0  0  0  0
 12  9  1  0  0  0  0
 13 10  2  0  0  0  0
 13 12  1  0  0  0  0
 14 17  2  0  0  0  0
 15  8  2  0  0  0  0
 15  7  1  0  0  0  0
 16 12  2  0  0  0  0
 16 15  1  0  0  0  0
 18  1  1  0  0  0  0
 19 21  2  0  0  0  0
 19 24  1  0  0  0  0
 20 23  2  0  0  0  0
 21 20  1  0  0  0  0
 22 19  1  0  0  0  0
 23 25  1  0  0  0  0
 24 25  1  0  0  0  0
M  END
>  <MODEL>
6

>  <REMARK>
 VINA RESULT:      -7.6      2.114      3.111
  Name = 
  2 active torsions:
  status: ('A' for Active; 'I' for Inactive)
    1  A    between atoms: C_3  and  C_24
    2  A    between atoms: C_6  and  C_20
                            x       y       z     vdW  Elec       q    Type
                         _______ _______ _______ _____ _____    ______ ____

>  <TORSDO>
F 2

$$$$
=
 OpenBabel10262419523D

 25 29  0  0  1  0  0  0  0  0999 V2000
  187.3520  178.0050  142.4510 C   0  0  0  0  0  0  0  0  0  0  0  0
  188.2130  176.9970  142.3890 C   0  0  0  0  0  0  0  0  0  0  0  0
  188.2590  175.8140  143.2910 C   0  0  0  0  0  1  0  0  0  0  0  0
  187.6520  178.9870  141.3680 C   0  0  0  0  0  2  0  0  0  0  0  0
  188.8610  178.3730  140.6550 C   0  0  1  0  0  3  0  0  0  0  0  0
  189.1120  177.1630  141.3540 O   0  0  0  0  0  0  0  0  0  0  0  0
  186.3290  178.3540  144.7790 C   0  0  0  0  0  0  0  0  0  0  0  0
  183.9830  178.5350  144.6590 C   0  0  0  0  0  3  0  0  0  0  0  0
  187.4240  178.5120  145.7650 C   0  0  1  0  0  3  0  0  0  0  0  0
  188.2120  177.6210  148.3890 C   0  0  0  0  0  3  0  0  0  0  0  0
  184.5740  178.2470  143.0920 S   0  0  0  0  0  0  0  0  0  0  0  0
  186.5870  178.7220  147.0100 C   0  0  0  0  0  0  0  0  0  0  0  0
  187.1760  178.4690  148.3270 C   0  0  0  0  0  3  0  0  0  0  0  0
  188.7050  176.9280  147.1680 C   0  0  0  0  0  3  0  0  0  0  0  0
  185.1420  178.5720  145.4190 C   0  0  0  0  0  0  0  0  0  0  0  0
  185.3010  178.7610  146.8140 N   0  0  0  0  0  0  0  0  0  0  0  0
  188.2930  177.2930  145.9440 C   0  0  0  0  0  3  0  0  0  0  0  0
  186.2380  178.1660  143.4110 C   0  0  0  0  0  0  0  0  0  0  0  0
  186.8490  177.5340  137.5450 C   0  0  0  0  0  0  0  0  0  0  0  0
  188.5420  178.0900  139.2220 C   0  0  0  0  0  0  0  0  0  0  0  0
  187.1390  178.0250  138.7530 C   0  0  0  0  0  3  0  0  0  0  0  0
  185.1860  177.4820  137.0040 Cl  0  0  0  0  0  0  0  0  0  0  0  0
  189.5420  177.8800  138.3590 C   0  0  0  0  0  3  0  0  0  0  0  0
  187.9340  176.9320  136.6920 C   0  0  0  0  0  2  0  0  0  0  0  0
  189.2580  177.6740  136.8950 C   0  0  0  0  0  2  0  0  0  0  0  0
  1 18  1  0  0  0  0
  2  1  2  0  0  0  0
  2  3  1  0  0  0  0
  4  1  1  0  0  0  0
  5 20  1  6  0  0  0
  5  6  1  0  0  0  0
  5  4  1  0  0  0  0
  6  2  1  0  0  0  0
  7 15  1  0  0  0  0
  7  9  1  0  0  0  0
  8 15  2  0  0  0  0
  9 17  1  1  0  0  0
  9 12  1  0  0  0  0
 11 18  1  0  0  0  0
 11  8  1  0  0  0  0
 12 13  1  0  0  0  0
 13 10  2  0  0  0  0
 14 10  1  0  0  0  0
 15 16  1  0  0  0  0
 16 12  2  0  0  0  0
 17 14  2  0  0  0  0
 18  7  2  0  0  0  0
 19 21  2  0  0  0  0
 21 20  1  0  0  0  0
 22 19  1  0  0  0  0
 23 20  2  0  0  0  0
 24 25  1  0  0  0  0
 24 19  1  0  0  0  0
 25 23  1  0  0  0  0
M  END
>  <MODEL>
7

>  <REMARK>
 VINA RESULT:      -7.6      3.296      7.043
  Name = 
  2 active torsions:
  status: ('A' for Active; 'I' for Inactive)
    1  A    between atoms: C_3  and  C_24
    2  A    between atoms: C_6  and  C_20
                            x       y       z     vdW  Elec       q    Type
                         _______ _______ _______ _____ _____    ______ ____

>  <TORSDO>
F 2

$$$$
=
 OpenBabel10262419523D

 25 29  0  0  1  0  0  0  0  0999 V2000
  188.6230  177.6530  142.3830 C   0  0  0  0  0  0  0  0  0  0  0  0
  189.5320  176.7870  141.9550 C   0  0  0  0  0  0  0  0  0  0  0  0
  190.0190  175.5810  142.6800 C   0  0  0  0  0  1  0  0  0  0  0  0
  188.4270  178.7210  141.3590 C   0  0  0  0  0  2  0  0  0  0  0  0
  189.3980  178.3260  140.2420 C   0  0  1  0  0  3  0  0  0  0  0  0
  190.0130  177.1330  140.7080 O   0  0  0  0  0  0  0  0  0  0  0  0
  188.3960  177.6860  144.9410 C   0  0  0  0  0  0  0  0  0  0  0  0
  186.1350  177.5980  145.5950 C   0  0  0  0  0  3  0  0  0  0  0  0
  189.7370  177.8910  145.5380 C   0  0  1  0  0  3  0  0  0  0  0  0
  191.4170  176.8870  147.6520 C   0  0  0  0  0  3  0  0  0  0  0  0
  186.2000  177.5120  143.9000 S   0  0  0  0  0  0  0  0  0  0  0  0
  189.3410  177.8980  147.0000 C   0  0  0  0  0  0  0  0  0  0  0  0
  190.3490  177.6090  148.0230 C   0  0  0  0  0  3  0  0  0  0  0  0
  191.5390  176.3600  146.2670 C   0  0  0  0  0  3  0  0  0  0  0  0
  187.4720  177.7100  145.9460 C   0  0  0  0  0  0  0  0  0  0  0  0
  188.0640  177.8010  147.2290 N   0  0  0  0  0  0  0  0  0  0  0  0
  190.7170  176.7730  145.2880 C   0  0  0  0  0  3  0  0  0  0  0  0
  187.8770  177.6020  143.6600 C   0  0  0  0  0  0  0  0  0  0  0  0
  188.7640  177.7210  136.5470 C   0  0  0  0  0  0  0  0  0  0  0  0
  188.6620  178.0690  138.9670 C   0  0  0  0  0  0  0  0  0  0  0  0
  189.3880  177.7070  137.7290 C   0  0  0  0  0  3  0  0  0  0  0  0
  189.6350  177.2730  135.0980 Cl  0  0  0  0  0  0  0  0  0  0  0  0
  187.3290  178.1830  138.9480 C   0  0  0  0  0  3  0  0  0  0  0  0
  187.3460  178.2180  136.4460 C   0  0  0  0  0  2  0  0  0  0  0  0
  186.5510  177.8520  137.7020 C   0  0  0  0  0  2  0  0  0  0  0  0
  1 18  1  0  0  0  0
  2  1  2  0  0  0  0
  2  3  1  0  0  0  0
  4  1  1  0  0  0  0
  5 20  1  6  0  0  0
  5  6  1  0  0  0  0
  5  4  1  0  0  0  0
  6  2  1  0  0  0  0
  7  9  1  0  0  0  0
  7 15  1  0  0  0  0
  8 15  2  0  0  0  0
  9 17  1  1  0  0  0
  9 12  1  0  0  0  0
 10 13  2  0  0  0  0
 11  8  1  0  0  0  0
 12 16  2  0  0  0  0
 12 13  1  0  0  0  0
 14 10  1  0  0  0  0
 15 16  1  0  0  0  0
 17 14  2  0  0  0  0
 18 11  1  0  0  0  0
 18  7  2  0  0  0  0
 19 21  2  0  0  0  0
 21 20  1  0  0  0  0
 22 19  1  0  0  0  0
 23 20  2  0  0  0  0
 24 19  1  0  0  0  0
 24 25  1  0  0  0  0
 25 23  1  0  0  0  0
M  END
>  <MODEL>
8

>  <REMARK>
 VINA RESULT:      -7.4      3.782      7.501
  Name = 
  2 active torsions:
  status: ('A' for Active; 'I' for Inactive)
    1  A    between atoms: C_3  and  C_24
    2  A    between atoms: C_6  and  C_20
                            x       y       z     vdW  Elec       q    Type
                         _______ _______ _______ _____ _____    ______ ____

>  <TORSDO>
F 2

$$$$
=
 OpenBabel10262419523D

 25 29  0  0  1  0  0  0  0  0999 V2000
  189.9300  177.5890  139.2820 C   0  0  0  0  0  0  0  0  0  0  0  0
  190.2620  176.7890  138.2760 C   0  0  0  0  0  0  0  0  0  0  0  0
  191.1900  175.6260  138.3380 C   0  0  0  0  0  1  0  0  0  0  0  0
  188.9800  178.6330  138.7980 C   0  0  0  0  0  2  0  0  0  0  0  0
  188.8160  178.3030  137.3100 C   0  0  1  0  0  3  0  0  0  0  0  0
  189.6350  177.1620  137.1040 O   0  0  0  0  0  0  0  0  0  0  0  0
  189.6080  177.3010  141.8120 C   0  0  0  0  0  0  0  0  0  0  0  0
  191.6790  177.2510  142.9330 C   0  0  0  0  0  3  0  0  0  0  0  0
  188.1680  177.0840  142.0900 C   0  0  1  0  0  3  0  0  0  0  0  0
  186.0890  177.9330  143.8950 C   0  0  0  0  0  3  0  0  0  0  0  0
  191.9770  177.5030  141.2800 S   0  0  0  0  0  0  0  0  0  0  0  0
  188.2440  176.9230  143.5940 C   0  0  0  0  0  0  0  0  0  0  0  0
  187.0450  177.1440  144.4060 C   0  0  0  0  0  3  0  0  0  0  0  0
  186.2710  178.5960  142.5750 C   0  0  0  0  0  3  0  0  0  0  0  0
  190.2970  177.1500  142.9820 C   0  0  0  0  0  0  0  0  0  0  0  0
  189.4450  176.9540  144.0960 N   0  0  0  0  0  0  0  0  0  0  0  0
  187.2770  178.2520  141.7540 C   0  0  0  0  0  3  0  0  0  0  0  0
  190.3880  177.4910  140.6850 C   0  0  0  0  0  0  0  0  0  0  0  0
  185.0920  177.7440  137.7970 C   0  0  0  0  0  0  0  0  0  0  0  0
  187.3900  177.9860  136.9940 C   0  0  0  0  0  0  0  0  0  0  0  0
  186.3150  178.2500  137.9770 C   0  0  0  0  0  3  0  0  0  0  0  0
  183.8310  178.0810  138.9620 Cl  0  0  0  0  0  0  0  0  0  0  0  0
  187.0890  177.4440  135.8080 C   0  0  0  0  0  3  0  0  0  0  0  0
  184.8210  176.8050  136.6510 C   0  0  0  0  0  2  0  0  0  0  0  0
  185.6550  177.1880  135.4260 C   0  0  0  0  0  2  0  0  0  0  0  0
  1 18  1  0  0  0  0
  2  3  1  0  0  0  0
  2  1  2  0  0  0  0
  4  1  1  0  0  0  0
  5 20  1  1  0  0  0
  5  4  1  0  0  0  0
  6  5  1  0  0  0  0
  6  2  1  0  0  0  0
  7  9  1  0  0  0  0
  7 15  1  0  0  0  0
  8 15  2  0  0  0  0
  9 17  1  1  0  0  0
  9 12  1  0  0  0  0
 10 13  2  0  0  0  0
 11  8  1  0  0  0  0
 12 16  2  0  0  0  0
 12 13  1  0  0  0  0
 14 10  1  0  0  0  0
 15 16  1  0  0  0  0
 17 14  2  0  0  0  0
 18 11  1  0  0  0  0
 18  7  2  0  0  0  0
 19 21  2  0  0  0  0
 19 22  1  0  0  0  0
 20 21  1  0  0  0  0
 23 20  2  0  0  0  0
 24 19  1  0  0  0  0
 25 23  1  0  0  0  0
 25 24  1  0  0  0  0
M  END
>  <MODEL>
9

>  <REMARK>
 VINA RESULT:      -7.3      3.351      6.898
  Name = 
  2 active torsions:
  status: ('A' for Active; 'I' for Inactive)
    1  A    between atoms: C_3  and  C_24
    2  A    between atoms: C_6  and  C_20
                            x       y       z     vdW  Elec       q    Type
                         _______ _______ _______ _____ _____    ______ ____

>  <TORSDO>
F 2

$$$$
