=
 OpenBabel10262423103D

 34 39  0  0  1  0  0  0  0  0999 V2000
  182.4470  178.5420  141.4830 C   0  0  0  0  0  0  0  0  0  0  0  0
  180.3460  177.0270  138.5030 C   0  0  0  0  0  2  0  0  0  0  0  0
  179.7820  177.6690  140.7930 C   0  0  0  0  0  3  0  0  0  0  0  0
  183.8850  178.8250  143.3310 C   0  0  0  0  0  0  0  0  0  0  0  0
  183.6730  178.6690  142.0050 O   0  0  0  0  0  0  0  0  0  0  0  0
  181.5310  178.7390  143.7160 C   0  0  0  0  0  0  0  0  0  0  0  0
  180.3670  178.3590  144.2830 N   0  0  0  0  0  2  0  0  0  0  0  0
  182.8050  178.8110  144.2610 C   0  0  0  0  0  3  0  0  0  0  0  0
  180.1350  178.2320  142.1030 C   0  0  0  0  0  0  0  0  0  0  0  0
  181.3820  178.6730  142.3250 C   0  0  0  0  0  0  0  0  0  0  0  0
  179.5160  178.0480  143.2960 N   0  0  0  0  0  0  0  0  0  0  0  0
  181.5240  176.9680  137.5290 C   0  0  0  0  0  2  0  0  0  0  0  0
  181.8970  178.3290  136.9220 C   0  0  2  0  0  3  0  0  0  0  0  0
  181.6840  179.5240  137.8580 C   0  0  0  0  0  2  0  0  0  0  0  0
  180.7230  177.6480  139.8190 C   0  0  0  0  0  0  0  0  0  0  0  0
  182.4790  179.4310  139.1630 C   0  0  0  0  0  2  0  0  0  0  0  0
  182.1570  178.2080  140.0360 C   0  0  0  0  0  0  0  0  0  0  0  0
  187.3670  178.1330  143.7140 C   0  0  0  0  0  2  0  0  0  0  0  0
  185.6100  178.2100  146.2240 C   0  0  0  0  0  2  0  0  0  0  0  0
  189.7670  177.0600  146.4360 C   0  0  0  0  0  0  0  0  0  0  0  0
  189.2090  177.3700  145.1900 C   0  0  0  0  0  3  0  0  0  0  0  0
  187.8680  177.7530  145.0790 C   0  0  0  0  0  0  0  0  0  0  0  0
  185.2900  178.9760  143.8170 C   0  0  1  0  0  3  0  0  0  0  0  0
  187.6340  177.5380  147.4880 C   0  0  0  0  0  3  0  0  0  0  0  0
  187.0730  177.8600  146.2480 C   0  0  0  0  0  0  0  0  0  0  0  0
  188.9700  177.1460  147.5840 C   0  0  0  0  0  3  0  0  0  0  0  0
  185.3090  179.3870  145.3000 C   0  0  0  0  0  2  0  0  0  0  0  0
  186.0160  177.7960  143.5690 O   0  0  0  0  0  0  0  0  0  0  0  0
  191.1430  176.6630  146.5320 N   0  0  0  0  0  0  0  0  0  0  0  0
  191.7410  176.2060  145.5370 O   0  0  0  0  0  0  0  0  0  0  0  0
  191.8170  176.7810  147.7250 O   0  0  0  0  0  0  0  0  0  0  0  0
  181.1580  178.5470  135.6450 C   0  0  0  0  0  0  0  0  0  0  0  0
  180.8640  179.8340  135.2100 O   0  0  0  0  0  1  0  0  0  0  0  0
  180.7950  177.5570  134.9580 O   0  0  0  0  0  0  0  0  0  0  0  0
  1  5  1  0  0  0  0
  1 10  1  0  0  0  0
  2 15  1  0  0  0  0
  3  9  1  0  0  0  0
  4  8  2  0  0  0  0
  5  4  1  0  0  0  0
  6  8  1  0  0  0  0
  6  7  1  0  0  0  0
  9 10  1  0  0  0  0
  9 11  2  0  0  0  0
 10  6  2  0  0  0  0
 11  7  1  0  0  0  0
 12  2  1  0  0  0  0
 13 32  1  6  0  0  0
 13 12  1  0  0  0  0
 13 14  1  0  0  0  0
 14 16  1  0  0  0  0
 15 17  1  0  0  0  0
 15  3  2  0  0  0  0
 16 17  1  0  0  0  0
 17  1  2  0  0  0  0
 18 22  1  0  0  0  0
 19 25  1  0  0  0  0
 20 29  1  0  0  0  0
 20 26  1  0  0  0  0
 21 20  2  0  0  0  0
 22 21  1  0  0  0  0
 22 25  2  0  0  0  0
 23  4  1  1  0  0  0
 23 27  1  0  0  0  0
 24 26  2  0  0  0  0
 25 24  1  0  0  0  0
 27 19  1  0  0  0  0
 28 18  1  0  0  0  0
 28 23  1  0  0  0  0
 29 31  2  0  0  0  0
 30 29  2  0  0  0  0
 33 32  1  0  0  0  0
 34 32  2  0  0  0  0
M  END
>  <MODEL>
1

>  <REMARK>
 VINA RESULT:     -10.7      0.000      0.000
  Name = 
  3 active torsions:
  status: ('A' for Active; 'I' for Inactive)
    1  A    between atoms: C_3  and  C_25
    2  A    between atoms: C_7  and  N_11
    3  A    between atoms: C_8  and  C_18
                            x       y       z     vdW  Elec       q    Type
                         _______ _______ _______ _____ _____    ______ ____

>  <TORSDO>
F 3

$$$$
=
 OpenBabel10262423103D

 34 39  0  0  1  0  0  0  0  0999 V2000
  190.5390  176.3340  138.4260 C   0  0  0  0  0  0  0  0  0  0  0  0
  192.4430  173.5690  136.3460 C   0  0  0  0  0  2  0  0  0  0  0  0
  190.2980  174.7050  136.0540 C   0  0  0  0  0  3  0  0  0  0  0  0
  189.2410  177.4700  140.0350 C   0  0  0  0  0  0  0  0  0  0  0  0
  190.3940  176.8880  139.6360 O   0  0  0  0  0  0  0  0  0  0  0  0
  188.2550  176.9570  137.9230 C   0  0  0  0  0  0  0  0  0  0  0  0
  187.3350  176.5020  137.0470 N   0  0  0  0  0  0  0  0  0  0  0  0
  188.0870  177.4790  139.1980 C   0  0  0  0  0  3  0  0  0  0  0  0
  189.2910  175.6930  136.4630 C   0  0  0  0  0  0  0  0  0  0  0  0
  189.5060  176.4550  137.5450 C   0  0  0  0  0  0  0  0  0  0  0  0
  187.9700  175.7270  136.1570 N   0  0  0  0  0  0  0  0  0  0  0  0
  193.6460  173.5020  137.2890 C   0  0  0  0  0  2  0  0  0  0  0  0
  194.6270  174.6740  137.1280 C   0  0  2  0  0  3  0  0  0  0  0  0
  193.9710  176.0070  136.7520 C   0  0  0  0  0  2  0  0  0  0  0  0
  191.4490  174.6180  136.7620 C   0  0  0  0  0  0  0  0  0  0  0  0
  192.9300  176.4870  137.7660 C   0  0  0  0  0  2  0  0  0  0  0  0
  191.7450  175.5330  137.9840 C   0  0  1  0  0  3  0  0  0  0  0  0
  189.9910  177.9740  143.4900 C   0  0  0  0  0  2  0  0  0  0  0  0
  187.0790  177.4490  142.6890 C   0  0  0  0  0  2  0  0  0  0  0  0
  188.2420  177.7470  146.8380 C   0  0  0  0  0  0  0  0  0  0  0  0
  189.2230  177.8600  145.8460 C   0  0  0  0  0  3  0  0  0  0  0  0
  188.8870  177.7760  144.4910 C   0  0  0  0  0  0  0  0  0  0  0  0
  189.1820  178.0770  141.3990 C   0  0  1  0  0  3  0  0  0  0  0  0
  186.5560  177.4830  145.1120 C   0  0  0  0  0  3  0  0  0  0  0  0
  187.5300  177.6060  144.1160 C   0  0  0  0  0  0  0  0  0  0  0  0
  186.9060  177.5570  146.4610 C   0  0  0  0  0  3  0  0  0  0  0  0
  187.7360  178.4630  141.7570 C   0  0  0  0  0  2  0  0  0  0  0  0
  189.7640  177.2080  142.3400 O   0  0  0  0  0  0  0  0  0  0  0  0
  188.6040  177.8300  148.2240 N   0  0  0  0  0  0  0  0  0  0  0  0
  187.7920  177.5000  149.1120 O   0  0  0  0  0  0  0  0  0  0  0  0
  189.8540  178.2750  148.5880 O   0  0  0  0  0  0  0  0  0  0  0  0
  195.6850  174.3310  136.1340 C   0  0  0  0  0  0  0  0  0  0  0  0
  195.9180  173.0080  135.7780 O   0  0  0  0  0  1  0  0  0  0  0  0
  196.3750  175.2480  135.6160 O   0  0  0  0  0  0  0  0  0  0  0  0
  1  5  1  0  0  0  0
  2 15  1  0  0  0  0
  2 12  1  0  0  0  0
  3  9  1  0  0  0  0
  3 15  2  0  0  0  0
  5  4  1  0  0  0  0
  6  8  1  0  0  0  0
  7  6  2  0  0  0  0
  8  4  2  0  0  0  0
  9 10  1  0  0  0  0
 10  6  1  0  0  0  0
 10  1  2  0  0  0  0
 11  9  2  0  0  0  0
 11  7  1  0  0  0  0
 13 32  1  6  0  0  0
 13 12  1  0  0  0  0
 14 13  1  0  0  0  0
 14 16  1  0  0  0  0
 15 17  1  0  0  0  0
 17 16  1  6  0  0  0
 17  1  1  0  0  0  0
 18 22  1  0  0  0  0
 19 25  1  0  0  0  0
 20 29  1  0  0  0  0
 21 20  2  0  0  0  0
 22 21  1  0  0  0  0
 23  4  1  6  0  0  0
 23 27  1  0  0  0  0
 23 28  1  0  0  0  0
 24 26  2  0  0  0  0
 25 22  2  0  0  0  0
 25 24  1  0  0  0  0
 26 20  1  0  0  0  0
 27 19  1  0  0  0  0
 28 18  1  0  0  0  0
 29 31  2  0  0  0  0
 29 30  2  0  0  0  0
 33 32  1  0  0  0  0
 34 32  2  0  0  0  0
M  END
>  <MODEL>
2

>  <REMARK>
 VINA RESULT:      -9.6      6.882      9.109
  Name = 
  3 active torsions:
  status: ('A' for Active; 'I' for Inactive)
    1  A    between atoms: C_3  and  C_25
    2  A    between atoms: C_7  and  N_11
    3  A    between atoms: C_8  and  C_18
                            x       y       z     vdW  Elec       q    Type
                         _______ _______ _______ _____ _____    ______ ____

>  <TORSDO>
F 3

$$$$
=
 OpenBabel10262423103D

 34 39  0  0  1  0  0  0  0  0999 V2000
  190.2610  176.7870  138.6240 C   0  0  0  0  0  0  0  0  0  0  0  0
  191.8460  175.2920  135.3300 C   0  0  0  0  0  2  0  0  0  0  0  0
  190.2500  177.0950  135.7530 C   0  0  0  0  0  3  0  0  0  0  0  0
  188.9280  177.1580  140.5340 C   0  0  0  0  0  0  0  0  0  0  0  0
  189.9460  176.5330  139.9000 O   0  0  0  0  0  0  0  0  0  0  0  0
  188.4570  178.3990  138.5510 C   0  0  0  0  0  0  0  0  0  0  0  0
  187.7250  178.9340  137.5520 N   0  0  0  0  0  0  0  0  0  0  0  0
  188.0940  178.0920  139.8550 C   0  0  0  0  0  3  0  0  0  0  0  0
  189.4730  177.9490  136.6610 C   0  0  0  0  0  0  0  0  0  0  0  0
  189.5810  177.7820  137.9880 C   0  0  2  0  0  3  0  0  0  0  0  0
  188.3460  178.6560  136.3980 N   0  0  0  0  0  0  0  0  0  0  0  0
  192.6810  174.2340  136.0550 C   0  0  0  0  0  2  0  0  0  0  0  0
  193.9460  174.7950  136.7250 C   0  0  2  0  0  3  0  0  0  0  0  0
  193.8010  176.2200  137.2690 C   0  0  0  0  0  2  0  0  0  0  0  0
  191.0960  176.1800  136.2840 C   0  0  0  0  0  0  0  0  0  0  0  0
  192.6910  176.3690  138.3120 C   0  0  0  0  0  2  0  0  0  0  0  0
  191.2810  176.0110  137.8180 C   0  0  0  0  0  0  0  0  0  0  0  0
  187.8770  177.5950  143.9190 C   0  0  0  0  0  2  0  0  0  0  0  0
  190.7740  176.7430  143.3880 C   0  0  0  0  0  2  0  0  0  0  0  0
  189.4020  177.6510  147.3820 C   0  0  0  0  0  0  0  0  0  0  0  0
  188.5120  177.7820  146.3100 C   0  0  0  0  0  3  0  0  0  0  0  0
  188.9140  177.4920  145.0020 C   0  0  0  0  0  0  0  0  0  0  0  0
  188.6640  176.8190  141.9650 C   0  0  1  0  0  3  0  0  0  0  0  0
  191.1200  176.9090  145.8370 C   0  0  0  0  0  3  0  0  0  0  0  0
  190.2330  177.0270  144.7630 C   0  0  0  0  0  0  0  0  0  0  0  0
  190.7100  177.2130  147.1360 C   0  0  0  0  0  3  0  0  0  0  0  0
  189.7950  175.9440  142.5330 C   0  0  0  0  0  2  0  0  0  0  0  0
  188.4590  177.9960  142.7100 O   0  0  0  0  0  0  0  0  0  0  0  0
  188.9750  177.9590  148.7170 N   0  0  0  0  0  0  0  0  0  0  0  0
  189.7440  178.5370  149.5110 O   0  0  0  0  0  0  0  0  0  0  0  0
  187.7090  177.6180  149.1350 O   0  0  0  0  0  0  0  0  0  0  0  0
  195.1030  174.7250  135.7860 C   0  0  0  0  0  0  0  0  0  0  0  0
  196.1330  175.6550  135.8640 O   0  0  0  0  0  1  0  0  0  0  0  0
  195.1450  173.8180  134.9140 O   0  0  0  0  0  0  0  0  0  0  0  0
  1  5  1  0  0  0  0
  2 12  1  0  0  0  0
  2 15  1  0  0  0  0
  3 15  2  0  0  0  0
  3  9  1  0  0  0  0
  5  4  1  0  0  0  0
  6  8  1  0  0  0  0
  7  6  2  0  0  0  0
  8  4  2  0  0  0  0
 10  9  1  6  0  0  0
 10  6  1  0  0  0  0
 10  1  1  0  0  0  0
 11  9  2  0  0  0  0
 11  7  1  0  0  0  0
 12 13  1  0  0  0  0
 13 32  1  6  0  0  0
 13 14  1  0  0  0  0
 14 16  1  0  0  0  0
 15 17  1  0  0  0  0
 17 16  1  0  0  0  0
 17  1  2  0  0  0  0
 18 22  1  0  0  0  0
 19 25  1  0  0  0  0
 20 29  1  0  0  0  0
 21 20  2  0  0  0  0
 22 21  1  0  0  0  0
 23  4  1  6  0  0  0
 23 27  1  0  0  0  0
 23 28  1  0  0  0  0
 24 26  2  0  0  0  0
 25 22  2  0  0  0  0
 25 24  1  0  0  0  0
 26 20  1  0  0  0  0
 27 19  1  0  0  0  0
 28 18  1  0  0  0  0
 29 31  2  0  0  0  0
 29 30  2  0  0  0  0
 32 33  1  0  0  0  0
 34 32  2  0  0  0  0
M  END
>  <MODEL>
3

>  <REMARK>
 VINA RESULT:      -9.1      6.699      8.819
  Name = 
  3 active torsions:
  status: ('A' for Active; 'I' for Inactive)
    1  A    between atoms: C_3  and  C_25
    2  A    between atoms: C_7  and  N_11
    3  A    between atoms: C_8  and  C_18
                            x       y       z     vdW  Elec       q    Type
                         _______ _______ _______ _____ _____    ______ ____

>  <TORSDO>
F 3

$$$$
=
 OpenBabel10262423103D

 34 39  0  0  1  0  0  0  0  0999 V2000
  186.1740  178.2880  143.5200 C   0  0  0  0  0  0  0  0  0  0  0  0
  189.3990  178.1930  145.7970 C   0  0  0  0  0  2  0  0  0  0  0  0
  187.0040  178.2340  146.2850 C   0  0  0  0  0  3  0  0  0  0  0  0
  184.3980  178.9780  142.1300 C   0  0  0  0  0  0  0  0  0  0  0  0
  185.6910  178.6310  142.3200 O   0  0  0  0  0  0  0  0  0  0  0  0
  183.9670  178.6350  144.4530 C   0  0  0  0  0  0  0  0  0  0  0  0
  183.5100  178.8980  145.6950 N   0  0  0  0  0  2  0  0  0  0  0  0
  183.4820  179.0470  143.2200 C   0  0  0  0  0  3  0  0  0  0  0  0
  185.5980  178.2360  145.8630 C   0  0  0  0  0  0  0  0  0  0  0  0
  185.2940  178.1980  144.5570 C   0  0  0  0  0  0  0  0  0  0  0  0
  184.5090  178.6560  146.5550 N   0  0  0  0  0  0  0  0  0  0  0  0
  190.3860  178.1990  144.6270 C   0  0  0  0  0  2  0  0  0  0  0  0
  190.5210  176.8410  143.9220 C   0  0  2  0  0  3  0  0  0  0  0  0
  189.2340  176.0090  143.8870 C   0  0  0  0  0  2  0  0  0  0  0  0
  187.9690  178.1500  145.3380 C   0  0  0  0  0  0  0  0  0  0  0  0
  188.0680  176.7130  143.1890 C   0  0  0  0  0  2  0  0  0  0  0  0
  187.6370  178.0450  143.8220 C   0  0  0  0  0  0  0  0  0  0  0  0
  182.1640  179.6650  139.4310 C   0  0  0  0  0  2  0  0  0  0  0  0
  184.2260  177.4240  139.0840 C   0  0  0  0  0  2  0  0  0  0  0  0
  181.2210  178.1860  136.0780 C   0  0  0  0  0  0  0  0  0  0  0  0
  181.2280  178.9580  137.2450 C   0  0  0  0  0  3  0  0  0  0  0  0
  182.1870  178.7480  138.2410 C   0  0  0  0  0  0  0  0  0  0  0  0
  183.9480  179.3300  140.7500 C   0  0  1  0  0  3  0  0  0  0  0  0
  183.1680  176.9840  136.8860 C   0  0  0  0  0  3  0  0  0  0  0  0
  183.1870  177.7600  138.0490 C   0  0  0  0  0  0  0  0  0  0  0  0
  182.1970  177.1970  135.9060 C   0  0  0  0  0  3  0  0  0  0  0  0
  184.8590  178.6690  139.6990 C   0  0  0  0  0  2  0  0  0  0  0  0
  182.5920  178.9950  140.5830 O   0  0  0  0  0  0  0  0  0  0  0  0
  180.2250  178.4100  135.0690 N   0  0  0  0  0  0  0  0  0  0  0  0
  179.5680  177.4570  134.6030 O   0  0  0  0  0  0  0  0  0  0  0  0
  179.9830  179.6830  134.6050 O   0  0  0  0  0  0  0  0  0  0  0  0
  191.6230  176.0450  144.5390 C   0  0  0  0  0  0  0  0  0  0  0  0
  192.1640  176.4200  145.7630 O   0  0  0  0  0  1  0  0  0  0  0  0
  192.0650  175.0290  143.9440 O   0  0  0  0  0  0  0  0  0  0  0  0
  1 17  2  0  0  0  0
  1 10  1  0  0  0  0
  4  5  1  0  0  0  0
  4  8  2  0  0  0  0
  5  1  1  0  0  0  0
  6 10  2  0  0  0  0
  6  7  1  0  0  0  0
  7 11  1  0  0  0  0
  8  6  1  0  0  0  0
  9  3  1  0  0  0  0
  9 11  2  0  0  0  0
 10  9  1  0  0  0  0
 12  2  1  0  0  0  0
 13 32  1  1  0  0  0
 13 12  1  0  0  0  0
 14 13  1  0  0  0  0
 15  2  1  0  0  0  0
 15  3  2  0  0  0  0
 16 17  1  0  0  0  0
 16 14  1  0  0  0  0
 17 15  1  0  0  0  0
 18 28  1  0  0  0  0
 19 27  1  0  0  0  0
 20 21  1  0  0  0  0
 21 22  2  0  0  0  0
 22 18  1  0  0  0  0
 23  4  1  1  0  0  0
 24 25  2  0  0  0  0
 25 22  1  0  0  0  0
 25 19  1  0  0  0  0
 26 20  2  0  0  0  0
 26 24  1  0  0  0  0
 27 23  1  0  0  0  0
 28 23  1  0  0  0  0
 29 20  1  0  0  0  0
 30 29  2  0  0  0  0
 31 29  2  0  0  0  0
 32 33  1  0  0  0  0
 34 32  2  0  0  0  0
M  END
>  <MODEL>
4

>  <REMARK>
 VINA RESULT:      -9.0      2.239      9.950
  Name = 
  3 active torsions:
  status: ('A' for Active; 'I' for Inactive)
    1  A    between atoms: C_3  and  C_25
    2  A    between atoms: C_7  and  N_11
    3  A    between atoms: C_8  and  C_18
                            x       y       z     vdW  Elec       q    Type
                         _______ _______ _______ _____ _____    ______ ____

>  <TORSDO>
F 3

$$$$
=
 OpenBabel10262423103D

 34 39  0  0  1  0  0  0  0  0999 V2000
  186.0240  178.0200  143.4180 C   0  0  0  0  0  0  0  0  0  0  0  0
  189.4040  178.2890  145.4420 C   0  0  0  0  0  2  0  0  0  0  0  0
  187.0500  178.4240  146.0860 C   0  0  0  0  0  3  0  0  0  0  0  0
  184.1490  178.4780  142.0630 C   0  0  0  0  0  0  0  0  0  0  0  0
  185.4540  178.1610  142.2150 O   0  0  0  0  0  0  0  0  0  0  0  0
  183.8870  178.5300  144.4350 C   0  0  0  0  0  0  0  0  0  0  0  0
  183.5190  179.0000  145.6450 N   0  0  0  0  0  2  0  0  0  0  0  0
  183.3120  178.7340  143.1880 C   0  0  0  0  0  3  0  0  0  0  0  0
  185.6170  178.3640  145.7710 C   0  0  0  0  0  0  0  0  0  0  0  0
  185.2200  178.1100  144.5150 C   0  0  0  0  0  0  0  0  0  0  0  0
  184.5780  178.9000  146.4590 N   0  0  0  0  0  0  0  0  0  0  0  0
  190.3040  178.0940  144.2190 C   0  0  0  0  0  2  0  0  0  0  0  0
  190.3980  176.6360  143.7430 C   0  0  2  0  0  3  0  0  0  0  0  0
  189.1170  175.8180  143.9400 C   0  0  0  0  0  2  0  0  0  0  0  0
  187.9450  178.1780  145.1000 C   0  0  0  0  0  0  0  0  0  0  0  0
  187.8990  176.4010  143.2190 C   0  0  0  0  0  2  0  0  0  0  0  0
  187.5060  177.8230  143.6510 C   0  0  0  0  0  0  0  0  0  0  0  0
  183.3370  179.9650  138.9190 C   0  0  0  0  0  2  0  0  0  0  0  0
  181.0620  178.8100  140.6180 C   0  0  0  0  0  2  0  0  0  0  0  0
  180.2570  180.9470  136.9520 C   0  0  0  0  0  0  0  0  0  0  0  0
  181.5820  180.8110  137.3850 C   0  0  0  0  0  3  0  0  0  0  0  0
  181.8860  180.1220  138.5630 C   0  0  0  0  0  0  0  0  0  0  0  0
  183.5990  178.5970  140.6790 C   0  0  1  0  0  3  0  0  0  0  0  0
  179.5190  179.6730  138.8800 C   0  0  0  0  0  3  0  0  0  0  0  0
  180.8410  179.5240  139.3120 C   0  0  0  0  0  0  0  0  0  0  0  0
  179.2280  180.3730  137.7090 C   0  0  0  0  0  3  0  0  0  0  0  0
  182.2530  177.8580  140.5650 C   0  0  0  0  0  2  0  0  0  0  0  0
  183.5100  179.9510  140.3080 O   0  0  0  0  0  0  0  0  0  0  0  0
  179.9620  181.6630  135.7440 N   0  0  0  0  0  0  0  0  0  0  0  0
  180.6360  181.4700  134.7120 O   0  0  0  0  0  0  0  0  0  0  0  0
  178.9310  182.5730  135.7120 O   0  0  0  0  0  0  0  0  0  0  0  0
  191.5450  175.9490  144.4040 C   0  0  0  0  0  0  0  0  0  0  0  0
  192.0560  176.4240  145.6060 O   0  0  0  0  0  1  0  0  0  0  0  0
  192.0560  174.9320  143.8660 O   0  0  0  0  0  0  0  0  0  0  0  0
  1 17  2  0  0  0  0
  1 10  1  0  0  0  0
  4  5  1  0  0  0  0
  4  8  2  0  0  0  0
  5  1  1  0  0  0  0
  6 10  2  0  0  0  0
  6  7  1  0  0  0  0
  7 11  1  0  0  0  0
  8  6  1  0  0  0  0
  9  3  1  0  0  0  0
  9 11  2  0  0  0  0
 10  9  1  0  0  0  0
 12  2  1  0  0  0  0
 13 14  1  0  0  0  0
 13 12  1  0  0  0  0
 13 32  1  1  0  0  0
 15  2  1  0  0  0  0
 15  3  2  0  0  0  0
 16 17  1  0  0  0  0
 16 14  1  0  0  0  0
 17 15  1  0  0  0  0
 18 28  1  0  0  0  0
 20 21  2  0  0  0  0
 20 26  1  0  0  0  0
 21 22  1  0  0  0  0
 22 18  1  0  0  0  0
 22 25  2  0  0  0  0
 23  4  1  1  0  0  0
 24 25  1  0  0  0  0
 25 19  1  0  0  0  0
 26 24  2  0  0  0  0
 27 19  1  0  0  0  0
 27 23  1  0  0  0  0
 28 23  1  0  0  0  0
 29 20  1  0  0  0  0
 30 29  2  0  0  0  0
 31 29  2  0  0  0  0
 32 33  1  0  0  0  0
 34 32  2  0  0  0  0
M  END
>  <MODEL>
5

>  <REMARK>
 VINA RESULT:      -8.9      2.364     10.032
  Name = 
  3 active torsions:
  status: ('A' for Active; 'I' for Inactive)
    1  A    between atoms: C_3  and  C_25
    2  A    between atoms: C_7  and  N_11
    3  A    between atoms: C_8  and  C_18
                            x       y       z     vdW  Elec       q    Type
                         _______ _______ _______ _____ _____    ______ ____

>  <TORSDO>
F 3

$$$$
=
 OpenBabel10262423103D

 34 39  0  0  1  0  0  0  0  0999 V2000
  181.6920  177.9330  140.8130 C   0  0  0  0  0  0  0  0  0  0  0  0
  179.2400  175.5100  138.8870 C   0  0  0  0  0  2  0  0  0  0  0  0
  178.9340  177.0850  140.7320 C   0  0  0  0  0  3  0  0  0  0  0  0
  183.3150  178.8280  142.2710 C   0  0  0  0  0  0  0  0  0  0  0  0
  182.9680  178.1580  141.1500 O   0  0  0  0  0  0  0  0  0  0  0  0
  181.0080  179.1090  142.8150 C   0  0  0  0  0  0  0  0  0  0  0  0
  179.8870  179.0980  143.5660 N   0  0  0  0  0  2  0  0  0  0  0  0
  182.3310  179.2910  143.1930 C   0  0  0  0  0  3  0  0  0  0  0  0
  179.4390  178.1050  141.6590 C   0  0  0  0  0  0  0  0  0  0  0  0
  180.7220  178.4890  141.5920 C   0  0  0  0  0  0  0  0  0  0  0  0
  178.9310  178.4820  142.8590 N   0  0  0  0  0  0  0  0  0  0  0  0
  180.3140  174.9540  137.9500 C   0  0  0  0  0  2  0  0  0  0  0  0
  180.6940  175.9070  136.8060 C   0  0  2  0  0  3  0  0  0  0  0  0
  180.6320  177.3950  137.1690 C   0  0  0  0  0  2  0  0  0  0  0  0
  179.7730  176.5830  139.7940 C   0  0  0  0  0  0  0  0  0  0  0  0
  181.5430  177.7800  138.3360 C   0  0  0  0  0  2  0  0  0  0  0  0
  181.2470  177.0580  139.6600 C   0  0  0  0  0  0  0  0  0  0  0  0
  186.8550  178.4470  141.9900 C   0  0  0  0  0  2  0  0  0  0  0  0
  185.5450  177.9490  144.7160 C   0  0  0  0  0  2  0  0  0  0  0  0
  189.7540  177.2140  144.0860 C   0  0  0  0  0  0  0  0  0  0  0  0
  188.9720  177.6560  143.0130 C   0  0  0  0  0  3  0  0  0  0  0  0
  187.6060  177.9120  143.1760 C   0  0  0  0  0  0  0  0  0  0  0  0
  184.7660  179.0450  142.5540 C   0  0  1  0  0  3  0  0  0  0  0  0
  187.7980  177.2990  145.5200 C   0  0  0  0  0  3  0  0  0  0  0  0
  187.0130  177.7520  144.4550 C   0  0  0  0  0  0  0  0  0  0  0  0
  189.1570  177.0370  145.3410 C   0  0  0  0  0  3  0  0  0  0  0  0
  185.0040  179.2180  144.0650 C   0  0  0  0  0  2  0  0  0  0  0  0
  185.5280  178.0000  141.9990 O   0  0  0  0  0  0  0  0  0  0  0  0
  191.1520  176.9510  143.9000 N   0  0  0  0  0  0  0  0  0  0  0  0
  191.9550  177.8880  143.7160 O   0  0  0  0  0  0  0  0  0  0  0  0
  191.6230  175.6580  143.9230 O   0  0  0  0  0  0  0  0  0  0  0  0
  179.8460  175.6420  135.6080 C   0  0  0  0  0  0  0  0  0  0  0  0
  179.3120  174.3780  135.3870 O   0  0  0  0  0  1  0  0  0  0  0  0
  179.6150  176.5690  134.7900 O   0  0  0  0  0  0  0  0  0  0  0  0
  1  5  1  0  0  0  0
  1 10  1  0  0  0  0
  2 15  1  0  0  0  0
  3  9  1  0  0  0  0
  4  8  2  0  0  0  0
  5  4  1  0  0  0  0
  6  8  1  0  0  0  0
  6  7  1  0  0  0  0
  9 11  2  0  0  0  0
 10  9  1  0  0  0  0
 10  6  2  0  0  0  0
 11  7  1  0  0  0  0
 12  2  1  0  0  0  0
 13 32  1  6  0  0  0
 13 14  1  0  0  0  0
 13 12  1  0  0  0  0
 14 16  1  0  0  0  0
 15  3  2  0  0  0  0
 16 17  1  0  0  0  0
 17 15  1  0  0  0  0
 17  1  2  0  0  0  0
 18 28  1  0  0  0  0
 18 22  1  0  0  0  0
 20 26  1  0  0  0  0
 21 22  1  0  0  0  0
 21 20  2  0  0  0  0
 22 25  2  0  0  0  0
 23  4  1  1  0  0  0
 23 27  1  0  0  0  0
 25 19  1  0  0  0  0
 25 24  1  0  0  0  0
 26 24  2  0  0  0  0
 27 19  1  0  0  0  0
 28 23  1  0  0  0  0
 29 31  2  0  0  0  0
 29 20  1  0  0  0  0
 30 29  2  0  0  0  0
 33 32  1  0  0  0  0
 34 32  2  0  0  0  0
M  END
>  <MODEL>
6

>  <REMARK>
 VINA RESULT:      -8.7      1.630      2.138
  Name = 
  3 active torsions:
  status: ('A' for Active; 'I' for Inactive)
    1  A    between atoms: C_3  and  C_25
    2  A    between atoms: C_7  and  N_11
    3  A    between atoms: C_8  and  C_18
                            x       y       z     vdW  Elec       q    Type
                         _______ _______ _______ _____ _____    ______ ____

>  <TORSDO>
F 3

$$$$
=
 OpenBabel10262423103D

 34 39  0  0  1  0  0  0  0  0999 V2000
  186.3730  177.4010  137.7200 C   0  0  0  0  0  0  0  0  0  0  0  0
  183.5830  177.3810  134.9250 C   0  0  0  0  0  2  0  0  0  0  0  0
  186.0160  177.1540  134.8650 C   0  0  0  0  0  3  0  0  0  0  0  0
  187.9550  178.0570  139.3410 C   0  0  0  0  0  0  0  0  0  0  0  0
  186.6830  177.8140  138.9550 O   0  0  0  0  0  0  0  0  0  0  0  0
  188.7290  177.4510  137.1660 C   0  0  0  0  0  0  0  0  0  0  0  0
  189.4130  177.5480  136.0070 N   0  0  0  0  0  0  0  0  0  0  0  0
  189.0430  177.9360  138.4280 C   0  0  0  0  0  3  0  0  0  0  0  0
  187.3240  177.0680  135.5270 C   0  0  0  0  0  0  0  0  0  0  0  0
  187.4000  177.1300  136.8650 C   0  0  0  0  0  0  0  0  0  0  0  0
  188.5520  177.3170  135.0070 N   0  0  0  0  0  0  0  0  0  0  0  0
  182.4210  177.5930  135.8990 C   0  0  0  0  0  2  0  0  0  0  0  0
  182.0250  176.3280  136.6750 C   0  0  2  0  0  3  0  0  0  0  0  0
  183.1910  175.3890  137.0030 C   0  0  0  0  0  2  0  0  0  0  0  0
  184.9040  177.2520  135.6310 C   0  0  0  0  0  0  0  0  0  0  0  0
  184.2920  176.0470  137.8380 C   0  0  0  0  0  2  0  0  0  0  0  0
  184.9640  177.2660  137.1850 C   0  0  1  0  0  3  0  0  0  0  0  0
  189.3960  178.1150  142.6080 C   0  0  0  0  0  2  0  0  0  0  0  0
  186.3560  177.8100  142.3590 C   0  0  0  0  0  2  0  0  0  0  0  0
  188.3240  177.5640  146.1950 C   0  0  0  0  0  0  0  0  0  0  0  0
  189.0980  177.7540  145.0440 C   0  0  0  0  0  3  0  0  0  0  0  0
  188.4990  177.8450  143.7830 C   0  0  0  0  0  0  0  0  0  0  0  0
  188.2030  178.4990  140.7470 C   0  0  1  0  0  3  0  0  0  0  0  0
  186.3210  177.5770  144.8270 C   0  0  0  0  0  3  0  0  0  0  0  0
  187.0870  177.7770  143.6740 C   0  0  0  0  0  0  0  0  0  0  0  0
  186.9320  177.4750  146.0770 C   0  0  0  0  0  3  0  0  0  0  0  0
  186.8820  178.9000  141.4290 C   0  0  0  0  0  2  0  0  0  0  0  0
  188.9000  177.5010  141.4520 O   0  0  0  0  0  0  0  0  0  0  0  0
  188.9550  177.4660  147.4800 N   0  0  0  0  0  0  0  0  0  0  0  0
  190.1270  177.0480  147.5810 O   0  0  0  0  0  0  0  0  0  0  0  0
  188.2730  177.8330  148.6170 O   0  0  0  0  0  0  0  0  0  0  0  0
  180.9630  175.5800  135.9400 C   0  0  0  0  0  0  0  0  0  0  0  0
  180.7610  174.2260  136.1770 O   0  0  0  0  0  1  0  0  0  0  0  0
  180.2480  176.1810  135.0970 O   0  0  0  0  0  0  0  0  0  0  0  0
  1  5  1  0  0  0  0
  2 15  1  0  0  0  0
  2 12  1  0  0  0  0
  3  9  1  0  0  0  0
  3 15  2  0  0  0  0
  5  4  1  0  0  0  0
  6  8  1  0  0  0  0
  7  6  2  0  0  0  0
  8  4  2  0  0  0  0
  9 10  1  0  0  0  0
 10  6  1  0  0  0  0
 10  1  2  0  0  0  0
 11  9  2  0  0  0  0
 11  7  1  0  0  0  0
 12 13  1  0  0  0  0
 13 32  1  6  0  0  0
 13 14  1  0  0  0  0
 14 16  1  0  0  0  0
 15 17  1  0  0  0  0
 17  1  1  0  0  0  0
 17 16  1  1  0  0  0
 18 22  1  0  0  0  0
 19 25  1  0  0  0  0
 20 29  1  0  0  0  0
 21 20  2  0  0  0  0
 22 21  1  0  0  0  0
 23  4  1  6  0  0  0
 23 27  1  0  0  0  0
 23 28  1  0  0  0  0
 24 26  2  0  0  0  0
 25 22  2  0  0  0  0
 25 24  1  0  0  0  0
 26 20  1  0  0  0  0
 27 19  1  0  0  0  0
 28 18  1  0  0  0  0
 29 30  2  0  0  0  0
 29 31  2  0  0  0  0
 32 33  1  0  0  0  0
 34 32  2  0  0  0  0
M  END
>  <MODEL>
7

>  <REMARK>
 VINA RESULT:      -8.6      4.241      5.642
  Name = 
  3 active torsions:
  status: ('A' for Active; 'I' for Inactive)
    1  A    between atoms: C_3  and  C_25
    2  A    between atoms: C_7  and  N_11
    3  A    between atoms: C_8  and  C_18
                            x       y       z     vdW  Elec       q    Type
                         _______ _______ _______ _____ _____    ______ ____

>  <TORSDO>
F 3

$$$$
=
 OpenBabel10262423103D

 34 39  0  0  1  0  0  0  0  0999 V2000
  191.9270  175.3360  137.5760 C   0  0  0  0  0  0  0  0  0  0  0  0
  193.4410  172.1740  135.7560 C   0  0  0  0  0  2  0  0  0  0  0  0
  191.7650  173.8350  135.1140 C   0  0  0  0  0  3  0  0  0  0  0  0
  190.6650  176.7680  138.9600 C   0  0  0  0  0  0  0  0  0  0  0  0
  191.6860  175.9050  138.7630 O   0  0  0  0  0  0  0  0  0  0  0  0
  190.0310  176.5390  136.6710 C   0  0  0  0  0  0  0  0  0  0  0  0
  189.2230  176.3430  135.6080 N   0  0  0  0  0  0  0  0  0  0  0  0
  189.7470  177.0820  137.9160 C   0  0  0  0  0  3  0  0  0  0  0  0
  190.9830  175.0500  135.3730 C   0  0  0  0  0  0  0  0  0  0  0  0
  191.1610  175.7270  136.5170 C   0  0  0  0  0  0  0  0  0  0  0  0
  189.8060  175.4320  134.8170 N   0  0  0  0  0  0  0  0  0  0  0  0
  194.3680  171.7910  136.9110 C   0  0  0  0  0  2  0  0  0  0  0  0
  195.6280  172.6650  137.0120 C   0  0  2  0  0  3  0  0  0  0  0  0
  195.4270  174.1240  136.5900 C   0  0  0  0  0  2  0  0  0  0  0  0
  192.6860  173.4460  136.0280 C   0  0  0  0  0  0  0  0  0  0  0  0
  194.3600  174.8570  137.4070 C   0  0  0  0  0  2  0  0  0  0  0  0
  192.9510  174.2480  137.3340 C   0  0  1  0  0  3  0  0  0  0  0  0
  190.6990  177.0050  142.5230 C   0  0  0  0  0  2  0  0  0  0  0  0
  188.0510  177.4830  141.0540 C   0  0  0  0  0  2  0  0  0  0  0  0
  188.2330  177.3910  145.3680 C   0  0  0  0  0  0  0  0  0  0  0  0
  189.4020  177.1650  144.6320 C   0  0  0  0  0  3  0  0  0  0  0  0
  189.3880  177.1920  143.2340 C   0  0  0  0  0  0  0  0  0  0  0  0
  190.4860  177.3650  140.3180 C   0  0  1  0  0  3  0  0  0  0  0  0
  187.0120  177.6990  143.2940 C   0  0  0  0  0  3  0  0  0  0  0  0
  188.1780  177.4850  142.5530 C   0  0  0  0  0  0  0  0  0  0  0  0
  187.0370  177.6570  144.6890 C   0  0  0  0  0  3  0  0  0  0  0  0
  189.2040  178.2150  140.3720 C   0  0  0  0  0  2  0  0  0  0  0  0
  190.5120  176.3550  141.2980 O   0  0  0  0  0  0  0  0  0  0  0  0
  188.2640  177.3530  146.8020 N   0  0  0  0  0  0  0  0  0  0  0  0
  187.4540  178.0250  147.4720 O   0  0  0  0  0  0  0  0  0  0  0  0
  189.1900  176.5730  147.4550 O   0  0  0  0  0  0  0  0  0  0  0  0
  196.7430  172.0590  136.2270 C   0  0  0  0  0  0  0  0  0  0  0  0
  197.9200  172.7660  136.0110 O   0  0  0  0  0  1  0  0  0  0  0  0
  196.6140  170.9000  135.7540 O   0  0  0  0  0  0  0  0  0  0  0  0
  1  5  1  0  0  0  0
  2 15  1  0  0  0  0
  2 12  1  0  0  0  0
  3  9  1  0  0  0  0
  3 15  2  0  0  0  0
  5  4  1  0  0  0  0
  6  8  1  0  0  0  0
  7  6  2  0  0  0  0
  8  4  2  0  0  0  0
  9 10  1  0  0  0  0
 10  6  1  0  0  0  0
 10  1  2  0  0  0  0
 11  9  2  0  0  0  0
 11  7  1  0  0  0  0
 12 13  1  0  0  0  0
 13 32  1  6  0  0  0
 14 13  1  0  0  0  0
 14 16  1  0  0  0  0
 15 17  1  0  0  0  0
 17 16  1  6  0  0  0
 17  1  1  0  0  0  0
 18 22  1  0  0  0  0
 19 25  1  0  0  0  0
 20 29  1  0  0  0  0
 21 20  2  0  0  0  0
 22 21  1  0  0  0  0
 23  4  1  6  0  0  0
 23 27  1  0  0  0  0
 23 28  1  0  0  0  0
 24 26  2  0  0  0  0
 25 22  2  0  0  0  0
 25 24  1  0  0  0  0
 26 20  1  0  0  0  0
 27 19  1  0  0  0  0
 28 18  1  0  0  0  0
 29 31  2  0  0  0  0
 29 30  2  0  0  0  0
 33 32  1  0  0  0  0
 34 32  2  0  0  0  0
M  END
>  <MODEL>
8

>  <REMARK>
 VINA RESULT:      -8.2      7.965     10.600
  Name = 
  3 active torsions:
  status: ('A' for Active; 'I' for Inactive)
    1  A    between atoms: C_3  and  C_25
    2  A    between atoms: C_7  and  N_11
    3  A    between atoms: C_8  and  C_18
                            x       y       z     vdW  Elec       q    Type
                         _______ _______ _______ _____ _____    ______ ____

>  <TORSDO>
F 3

$$$$
=
 OpenBabel10262423103D

 34 39  0  0  1  0  0  0  0  0999 V2000
  185.7590  178.2660  139.7790 C   0  0  0  0  0  0  0  0  0  0  0  0
  182.3010  179.3580  138.2160 C   0  0  0  0  0  2  0  0  0  0  0  0
  184.3470  178.4180  137.2650 C   0  0  0  0  0  3  0  0  0  0  0  0
  187.9360  178.2550  140.6860 C   0  0  0  0  0  0  0  0  0  0  0  0
  186.6030  178.4440  140.8030 O   0  0  0  0  0  0  0  0  0  0  0  0
  187.6480  177.6600  138.3920 C   0  0  0  0  0  0  0  0  0  0  0  0
  187.8660  177.6600  137.0610 N   0  0  0  0  0  0  0  0  0  0  0  0
  188.5280  177.9020  139.4380 C   0  0  0  0  0  3  0  0  0  0  0  0
  185.7070  177.8790  137.3980 C   0  0  0  0  0  0  0  0  0  0  0  0
  186.2710  177.7840  138.6110 C   0  0  0  0  0  0  0  0  0  0  0  0
  186.6790  177.7970  136.4550 N   0  0  0  0  0  0  0  0  0  0  0  0
  181.6940  179.8120  139.5460 C   0  0  0  0  0  2  0  0  0  0  0  0
  181.2250  178.6550  140.4410 C   0  0  2  0  0  3  0  0  0  0  0  0
  182.0710  177.3820  140.3340 C   0  0  0  0  0  2  0  0  0  0  0  0
  183.6740  178.7690  138.3860 C   0  0  0  0  0  0  0  0  0  0  0  0
  183.5450  177.5940  140.6870 C   0  0  0  0  0  2  0  0  0  0  0  0
  184.2860  178.6130  139.8070 C   0  0  1  0  0  3  0  0  0  0  0  0
  190.5760  177.7050  143.0270 C   0  0  0  0  0  2  0  0  0  0  0  0
  187.6890  177.7150  144.0580 C   0  0  0  0  0  2  0  0  0  0  0  0
  190.9920  176.7350  146.6610 C   0  0  0  0  0  0  0  0  0  0  0  0
  191.2480  177.0200  145.3140 C   0  0  0  0  0  3  0  0  0  0  0  0
  190.2070  177.3480  144.4390 C   0  0  0  0  0  0  0  0  0  0  0  0
  188.7960  178.4630  141.8900 C   0  0  1  0  0  3  0  0  0  0  0  0
  188.6290  177.1280  146.2750 C   0  0  0  0  0  3  0  0  0  0  0  0
  188.8790  177.4250  144.9310 C   0  0  0  0  0  0  0  0  0  0  0  0
  189.6750  176.7900  147.1350 C   0  0  0  0  0  3  0  0  0  0  0  0
  187.9400  178.8770  143.1000 C   0  0  0  0  0  2  0  0  0  0  0  0
  189.5690  177.3130  142.1360 O   0  0  0  0  0  0  0  0  0  0  0  0
  192.0710  176.3930  147.5440 N   0  0  0  0  0  0  0  0  0  0  0  0
  192.3540  177.1270  148.5120 O   0  0  0  0  0  0  0  0  0  0  0  0
  192.8060  175.2500  147.3310 O   0  0  0  0  0  0  0  0  0  0  0  0
  179.7930  178.3360  140.1670 C   0  0  0  0  0  0  0  0  0  0  0  0
  179.2240  177.1650  140.6540 O   0  0  0  0  0  1  0  0  0  0  0  0
  179.0960  179.1330  139.4860 O   0  0  0  0  0  0  0  0  0  0  0  0
  1 17  1  0  0  0  0
  1  5  1  0  0  0  0
  2 15  1  0  0  0  0
  2 12  1  0  0  0  0
  3  9  1  0  0  0  0
  3 15  2  0  0  0  0
  4  5  1  0  0  0  0
  6 10  1  0  0  0  0
  6  8  1  0  0  0  0
  7  6  2  0  0  0  0
  8  4  2  0  0  0  0
  9 10  1  0  0  0  0
 10  1  2  0  0  0  0
 11  7  1  0  0  0  0
 11  9  2  0  0  0  0
 12 13  1  0  0  0  0
 13 32  1  6  0  0  0
 14 13  1  0  0  0  0
 14 16  1  0  0  0  0
 15 17  1  0  0  0  0
 17 16  1  6  0  0  0
 18 22  1  0  0  0  0
 19 25  1  0  0  0  0
 20 26  1  0  0  0  0
 20 29  1  0  0  0  0
 21 20  2  0  0  0  0
 22 25  2  0  0  0  0
 22 21  1  0  0  0  0
 23  4  1  6  0  0  0
 23 28  1  0  0  0  0
 23 27  1  0  0  0  0
 24 26  2  0  0  0  0
 25 24  1  0  0  0  0
 27 19  1  0  0  0  0
 28 18  1  0  0  0  0
 29 30  2  0  0  0  0
 31 29  2  0  0  0  0
 32 33  1  0  0  0  0
 34 32  2  0  0  0  0
M  END
>  <MODEL>
9

>  <REMARK>
 VINA RESULT:      -8.1      3.516      4.729
  Name = 
  3 active torsions:
  status: ('A' for Active; 'I' for Inactive)
    1  A    between atoms: C_3  and  C_25
    2  A    between atoms: C_7  and  N_11
    3  A    between atoms: C_8  and  C_18
                            x       y       z     vdW  Elec       q    Type
                         _______ _______ _______ _____ _____    ______ ____

>  <TORSDO>
F 3

$$$$
