=
 OpenBabel10262421223D

 32 37  0  0  0  0  0  0  0  0999 V2000
  183.2230  178.9320  145.1060 C   0  0  0  0  0  3  0  0  0  0  0  0
  187.5670  177.8630  142.7360 C   0  0  0  0  0  0  0  0  0  0  0  0
  190.6390  176.8660  146.4110 C   0  0  0  0  0  3  0  0  0  0  0  0
  191.6640  176.6300  145.4970 C   0  0  0  0  0  3  0  0  0  0  0  0
  188.3910  177.7460  140.3830 C   0  0  0  0  0  0  0  0  0  0  0  0
  189.4610  177.4950  139.5320 C   0  0  0  0  0  0  0  0  0  0  0  0
  185.2550  178.4660  143.2430 C   0  0  0  0  0  0  0  0  0  0  0  0
  186.7890  177.9690  145.0500 C   0  0  0  0  0  3  0  0  0  0  0  0
  191.5100  176.9670  138.9540 N   0  0  0  0  0  0  0  0  0  0  0  0
  184.4980  178.5670  145.5480 C   0  0  0  0  0  3  0  0  0  0  0  0
  189.3710  177.2290  145.9570 C   0  0  0  0  0  3  0  0  0  0  0  0
  187.8250  177.7300  144.1270 C   0  0  0  0  0  0  0  0  0  0  0  0
  189.1060  177.3630  144.5800 C   0  0  0  0  0  0  0  0  0  0  0  0
  189.9060  177.2500  142.2680 C   0  0  0  0  0  0  0  0  0  0  0  0
  190.8380  177.1990  137.8340 N   0  0  0  0  0  0  0  0  0  0  0  0
  182.9580  179.0660  143.7330 C   0  0  0  0  0  0  0  0  0  0  0  0
  185.5150  178.3330  144.6210 C   0  0  0  0  0  0  0  0  0  0  0  0
  189.5590  177.5300  138.1520 C   0  0  0  0  0  3  0  0  0  0  0  0
  183.9790  178.8310  142.8070 C   0  0  0  0  0  3  0  0  0  0  0  0
  191.4200  176.7570  144.1290 C   0  0  0  0  0  3  0  0  0  0  0  0
  190.1470  177.1240  143.6520 C   0  0  0  0  0  0  0  0  0  0  0  0
  190.9540  177.0090  141.3490 C   0  0  0  0  0  3  0  0  0  0  0  0
  186.2730  178.2320  142.3210 C   0  0  0  0  0  3  0  0  0  0  0  0
  187.1950  178.0940  139.8420 F   0  0  0  0  0  0  0  0  0  0  0  0
  192.9110  176.5850  139.0000 C   0  0  0  0  0  1  0  0  0  0  0  0
  188.6020  177.6250  141.7920 C   0  0  0  0  0  0  0  0  0  0  0  0
  190.6860  177.1420  139.9950 C   0  0  0  0  0  0  0  0  0  0  0  0
  181.6610  179.4380  143.2620 N   0  0  0  0  0  2  0  0  0  0  0  0
  181.0080  178.7780  142.1420 C   0  0  0  0  0  2  0  0  0  0  0  0
  179.8320  178.0110  142.6320 C   0  0  0  0  0  0  0  0  0  0  0  0
  179.6250  177.8540  143.9960 O   0  0  0  0  0  1  0  0  0  0  0  0
  179.0050  177.5350  141.8120 O   0  0  0  0  0  0  0  0  0  0  0  0
  1 10  1  0  0  0  0
  2 12  1  0  0  0  0
  4  3  2  0  0  0  0
  5 26  1  0  0  0  0
  6 27  1  0  0  0  0
  6  5  2  0  0  0  0
  7 17  1  0  0  0  0
  9 25  1  0  0  0  0
  9 27  1  0  0  0  0
 11  3  1  0  0  0  0
 12 13  1  0  0  0  0
 12  8  2  0  0  0  0
 13 11  2  0  0  0  0
 14 21  1  0  0  0  0
 15 18  2  0  0  0  0
 15  9  1  0  0  0  0
 16  1  2  0  0  0  0
 17  8  1  0  0  0  0
 17 10  2  0  0  0  0
 18  6  1  0  0  0  0
 19  7  2  0  0  0  0
 19 16  1  0  0  0  0
 20  4  1  0  0  0  0
 21 20  2  0  0  0  0
 21 13  1  0  0  0  0
 22 14  1  0  0  0  0
 23  2  2  0  0  0  0
 23  7  1  0  0  0  0
 24  5  1  0  0  0  0
 26 14  2  0  0  0  0
 26  2  1  0  0  0  0
 27 22  2  0  0  0  0
 28 16  1  0  0  0  0
 29 30  1  0  0  0  0
 29 28  1  0  0  0  0
 30 31  1  0  0  0  0
 32 30  2  0  0  0  0
M  END
>  <MODEL>
1

>  <REMARK>
 VINA RESULT:     -12.0      0.000      0.000
  Name = 
  3 active torsions:
  status: ('A' for Active; 'I' for Inactive)
    1  A    between atoms: C_1  and  C_10
    2  A    between atoms: C_10  and  N_24
    3  A    between atoms: C_19  and  N_24
                            x       y       z     vdW  Elec       q    Type
                         _______ _______ _______ _____ _____    ______ ____

>  <TORSDO>
F 3

$$$$
=
 OpenBabel10262421223D

 32 37  0  0  0  0  0  0  0  0999 V2000
  181.6050  178.9380  143.9000 C   0  0  0  0  0  3  0  0  0  0  0  0
  186.4700  178.1380  142.7450 C   0  0  0  0  0  0  0  0  0  0  0  0
  188.5740  177.5020  147.1150 C   0  0  0  0  0  3  0  0  0  0  0  0
  189.8110  177.3180  146.4990 C   0  0  0  0  0  3  0  0  0  0  0  0
  187.8660  178.0110  140.6800 C   0  0  0  0  0  0  0  0  0  0  0  0
  189.1310  177.8170  140.1370 C   0  0  0  0  0  0  0  0  0  0  0  0
  184.0690  178.5730  142.6290 C   0  0  0  0  0  0  0  0  0  0  0  0
  185.1270  178.2560  144.7840 C   0  0  0  0  0  3  0  0  0  0  0  0
  191.2910  177.4330  140.1160 N   0  0  0  0  0  0  0  0  0  0  0  0
  182.7490  178.6880  144.6640 C   0  0  0  0  0  3  0  0  0  0  0  0
  187.4410  177.7500  146.3420 C   0  0  0  0  0  3  0  0  0  0  0  0
  186.3760  178.0700  144.1610 C   0  0  0  0  0  0  0  0  0  0  0  0
  187.5230  177.8190  144.9380 C   0  0  0  0  0  0  0  0  0  0  0  0
  188.8870  177.6960  142.9070 C   0  0  0  0  0  0  0  0  0  0  0  0
  190.9090  177.5760  138.8530 N   0  0  0  0  0  0  0  0  0  0  0  0
  181.6870  179.0070  142.5000 C   0  0  0  0  0  0  0  0  0  0  0  0
  183.9810  178.5050  144.0320 C   0  0  0  0  0  0  0  0  0  0  0  0
  189.5720  177.8170  138.8250 C   0  0  0  0  0  3  0  0  0  0  0  0
  182.9230  178.8240  141.8700 C   0  0  0  0  0  3  0  0  0  0  0  0
  189.9120  177.3820  145.1090 C   0  0  0  0  0  3  0  0  0  0  0  0
  188.7790  177.6320  144.3110 C   0  0  0  0  0  0  0  0  0  0  0  0
  190.1470  177.5080  142.2920 C   0  0  0  0  0  3  0  0  0  0  0  0
  185.3000  178.3910  142.0030 C   0  0  0  0  0  3  0  0  0  0  0  0
  186.8250  178.2470  139.8420 F   0  0  0  0  0  0  0  0  0  0  0  0
  192.6570  177.1640  140.5290 C   0  0  0  0  0  1  0  0  0  0  0  0
  187.7230  177.9520  142.1020 C   0  0  0  0  0  0  0  0  0  0  0  0
  190.2210  177.5770  140.9090 C   0  0  0  0  0  0  0  0  0  0  0  0
  180.5290  179.2610  141.7020 N   0  0  0  0  0  2  0  0  0  0  0  0
  180.5950  179.8890  140.3910 C   0  0  0  0  0  2  0  0  0  0  0  0
  179.6150  181.0060  140.3230 C   0  0  0  0  0  0  0  0  0  0  0  0
  179.2330  181.6650  141.4840 O   0  0  0  0  0  1  0  0  0  0  0  0
  179.1600  181.3770  139.2110 O   0  0  0  0  0  0  0  0  0  0  0  0
  1 10  1  0  0  0  0
  2 12  1  0  0  0  0
  4  3  1  0  0  0  0
  5 26  1  0  0  0  0
  6  5  2  0  0  0  0
  6 27  1  0  0  0  0
  7 17  1  0  0  0  0
  9 25  1  0  0  0  0
  9 27  1  0  0  0  0
 11  3  2  0  0  0  0
 12  8  2  0  0  0  0
 12 13  1  0  0  0  0
 13 11  1  0  0  0  0
 14 21  1  0  0  0  0
 15  9  1  0  0  0  0
 16  1  2  0  0  0  0
 17 10  2  0  0  0  0
 17  8  1  0  0  0  0
 18 15  2  0  0  0  0
 18  6  1  0  0  0  0
 19 16  1  0  0  0  0
 19  7  2  0  0  0  0
 20  4  2  0  0  0  0
 21 13  2  0  0  0  0
 21 20  1  0  0  0  0
 22 14  1  0  0  0  0
 23  7  1  0  0  0  0
 23  2  2  0  0  0  0
 24  5  1  0  0  0  0
 26  2  1  0  0  0  0
 26 14  2  0  0  0  0
 27 22  2  0  0  0  0
 28 16  1  0  0  0  0
 29 28  1  0  0  0  0
 30 29  1  0  0  0  0
 30 31  1  0  0  0  0
 32 30  2  0  0  0  0
M  END
>  <MODEL>
2

>  <REMARK>
 VINA RESULT:     -11.1      1.605      1.987
  Name = 
  3 active torsions:
  status: ('A' for Active; 'I' for Inactive)
    1  A    between atoms: C_1  and  C_10
    2  A    between atoms: C_10  and  N_24
    3  A    between atoms: C_19  and  N_24
                            x       y       z     vdW  Elec       q    Type
                         _______ _______ _______ _____ _____    ______ ____

>  <TORSDO>
F 3

$$$$
=
 OpenBabel10262421223D

 32 37  0  0  0  0  0  0  0  0999 V2000
  188.5740  177.7440  137.2720 C   0  0  0  0  0  3  0  0  0  0  0  0
  188.0300  177.7910  142.3060 C   0  0  0  0  0  0  0  0  0  0  0  0
  183.3440  179.0550  142.9200 C   0  0  0  0  0  3  0  0  0  0  0  0
  183.5000  178.9840  144.3030 C   0  0  0  0  0  3  0  0  0  0  0  0
  189.4570  177.3620  144.3080 C   0  0  0  0  0  0  0  0  0  0  0  0
  189.5370  177.3110  145.6950 C   0  0  0  0  0  0  0  0  0  0  0  0
  188.9250  177.5920  140.0420 C   0  0  0  0  0  0  0  0  0  0  0  0
  186.6080  178.2160  140.3640 C   0  0  0  0  0  3  0  0  0  0  0  0
  188.8460  177.4580  147.7720 N   0  0  0  0  0  0  0  0  0  0  0  0
  187.5000  178.0190  138.1230 C   0  0  0  0  0  3  0  0  0  0  0  0
  184.4230  178.7770  142.0820 C   0  0  0  0  0  3  0  0  0  0  0  0
  186.7660  178.1450  141.7620 C   0  0  0  0  0  0  0  0  0  0  0  0
  185.6790  178.4250  142.6120 C   0  0  0  0  0  0  0  0  0  0  0  0
  187.0860  178.0010  144.5710 C   0  0  0  0  0  0  0  0  0  0  0  0
  190.1260  177.1080  147.8110 N   0  0  0  0  0  0  0  0  0  0  0  0
  189.8270  177.3920  137.8010 C   0  0  0  0  0  0  0  0  0  0  0  0
  187.6710  177.9440  139.5080 C   0  0  0  0  0  0  0  0  0  0  0  0
  190.5910  177.0070  146.5390 C   0  0  0  0  0  3  0  0  0  0  0  0
  189.9960  177.3180  139.1880 C   0  0  0  0  0  3  0  0  0  0  0  0
  184.7370  178.6360  144.8460 C   0  0  0  0  0  3  0  0  0  0  0  0
  185.8390  178.3530  144.0160 C   0  0  0  0  0  0  0  0  0  0  0  0
  187.2340  177.9330  145.9760 C   0  0  0  0  0  3  0  0  0  0  0  0
  189.0920  177.5190  141.4240 C   0  0  0  0  0  3  0  0  0  0  0  0
  190.5650  177.0740  143.5790 F   0  0  0  0  0  0  0  0  0  0  0  0
  188.0190  177.6590  148.9490 C   0  0  0  0  0  1  0  0  0  0  0  0
  188.2050  177.7140  143.7140 C   0  0  0  0  0  0  0  0  0  0  0  0
  188.4740  177.5850  146.4920 C   0  0  0  0  0  0  0  0  0  0  0  0
  190.9370  177.1070  136.9470 N   0  0  0  0  0  2  0  0  0  0  0  0
  191.8410  175.9890  137.1730 C   0  0  0  0  0  2  0  0  0  0  0  0
  193.1880  176.5030  137.5380 C   0  0  0  0  0  0  0  0  0  0  0  0
  194.1510  176.6840  136.5540 O   0  0  0  0  0  0  0  0  0  0  0  0
  193.4430  176.8070  138.7310 O   0  0  0  0  0  1  0  0  0  0  0  0
  1 16  2  0  0  0  0
  1 10  1  0  0  0  0
  2 26  1  0  0  0  0
  3  4  1  0  0  0  0
  4 20  2  0  0  0  0
  5  6  1  0  0  0  0
  6 27  2  0  0  0  0
  6 18  1  0  0  0  0
  7 23  1  0  0  0  0
  8 12  2  0  0  0  0
  9 15  1  0  0  0  0
  9 25  1  0  0  0  0
 10 17  2  0  0  0  0
 11 13  1  0  0  0  0
 11  3  2  0  0  0  0
 12  2  1  0  0  0  0
 12 13  1  0  0  0  0
 13 21  2  0  0  0  0
 14 22  2  0  0  0  0
 16 19  1  0  0  0  0
 17  7  1  0  0  0  0
 17  8  1  0  0  0  0
 18 15  2  0  0  0  0
 19  7  2  0  0  0  0
 21 14  1  0  0  0  0
 21 20  1  0  0  0  0
 22 27  1  0  0  0  0
 23  2  2  0  0  0  0
 24  5  1  0  0  0  0
 26  5  2  0  0  0  0
 26 14  1  0  0  0  0
 27  9  1  0  0  0  0
 28 29  1  0  0  0  0
 28 16  1  0  0  0  0
 29 30  1  0  0  0  0
 30 32  1  0  0  0  0
 31 30  2  0  0  0  0
M  END
>  <MODEL>
3

>  <REMARK>
 VINA RESULT:     -11.0      4.669      8.282
  Name = 
  3 active torsions:
  status: ('A' for Active; 'I' for Inactive)
    1  A    between atoms: C_1  and  C_10
    2  A    between atoms: C_10  and  N_24
    3  A    between atoms: C_19  and  N_24
                            x       y       z     vdW  Elec       q    Type
                         _______ _______ _______ _____ _____    ______ ____

>  <TORSDO>
F 3

$$$$
=
 OpenBabel10262421223D

 32 37  0  0  0  0  0  0  0  0999 V2000
  190.2370  176.8470  147.7390 C   0  0  0  0  0  3  0  0  0  0  0  0
  188.5980  177.6100  143.0090 C   0  0  0  0  0  0  0  0  0  0  0  0
  183.8690  178.7050  143.6200 C   0  0  0  0  0  3  0  0  0  0  0  0
  183.7190  178.8480  142.2420 C   0  0  0  0  0  3  0  0  0  0  0  0
  189.5580  177.5570  140.7060 C   0  0  0  0  0  0  0  0  0  0  0  0
  189.3320  177.7180  139.3440 C   0  0  0  0  0  0  0  0  0  0  0  0
  189.9730  177.1270  144.9700 C   0  0  0  0  0  0  0  0  0  0  0  0
  187.6310  177.6710  145.2530 C   0  0  0  0  0  3  0  0  0  0  0  0
  188.1990  178.1330  137.5120 N   0  0  0  0  0  0  0  0  0  0  0  0
  188.9970  177.1900  147.1920 C   0  0  0  0  0  3  0  0  0  0  0  0
  185.1120  178.3640  144.1530 C   0  0  0  0  0  3  0  0  0  0  0  0
  187.4790  177.8150  143.8610 C   0  0  0  0  0  0  0  0  0  0  0  0
  186.2270  178.1590  143.3180 C   0  0  0  0  0  0  0  0  0  0  0  0
  187.1760  178.1060  141.0610 C   0  0  0  0  0  0  0  0  0  0  0  0
  189.4450  177.8610  137.1460 N   0  0  0  0  0  0  0  0  0  0  0  0
  191.3490  176.6440  146.9070 C   0  0  0  0  0  0  0  0  0  0  0  0
  188.8610  177.3300  145.8090 C   0  0  0  0  0  0  0  0  0  0  0  0
  190.1810  177.5970  138.2570 C   0  0  0  0  0  3  0  0  0  0  0  0
  191.2100  176.7850  145.5210 C   0  0  0  0  0  3  0  0  0  0  0  0
  184.8120  178.6500  141.3990 C   0  0  0  0  0  3  0  0  0  0  0  0
  186.0750  178.3040  141.9180 C   0  0  0  0  0  0  0  0  0  0  0  0
  187.0120  178.2530  139.6640 C   0  0  0  0  0  3  0  0  0  0  0  0
  189.8340  177.2670  143.5900 C   0  0  0  0  0  3  0  0  0  0  0  0
  190.8050  177.2240  141.1270 F   0  0  0  0  0  0  0  0  0  0  0  0
  187.1290  178.4640  136.5860 C   0  0  0  0  0  1  0  0  0  0  0  0
  188.4610  177.7530  141.6030 C   0  0  0  0  0  0  0  0  0  0  0  0
  188.1150  178.0500  138.8470 C   0  0  0  0  0  0  0  0  0  0  0  0
  192.6250  176.2940  147.4470 N   0  0  0  0  0  2  0  0  0  0  0  0
  192.8220  175.9430  148.8450 C   0  0  0  0  0  2  0  0  0  0  0  0
  193.4920  177.0660  149.5520 C   0  0  0  0  0  0  0  0  0  0  0  0
  192.8060  178.2530  149.7760 O   0  0  0  0  0  0  0  0  0  0  0  0
  194.6680  176.9310  149.9770 O   0  0  0  0  0  1  0  0  0  0  0  0
  2 23  2  0  0  0  0
  2 12  1  0  0  0  0
  3 11  1  0  0  0  0
  4  3  2  0  0  0  0
  5 24  1  0  0  0  0
  5 26  1  0  0  0  0
  6  5  2  0  0  0  0
  7 19  2  0  0  0  0
  7 17  1  0  0  0  0
  8 17  1  0  0  0  0
  9 27  1  0  0  0  0
 10  1  1  0  0  0  0
 12  8  2  0  0  0  0
 13 12  1  0  0  0  0
 13 11  2  0  0  0  0
 14 26  2  0  0  0  0
 14 21  1  0  0  0  0
 15  9  1  0  0  0  0
 15 18  2  0  0  0  0
 16 28  1  0  0  0  0
 16  1  2  0  0  0  0
 17 10  2  0  0  0  0
 18  6  1  0  0  0  0
 19 16  1  0  0  0  0
 20 21  2  0  0  0  0
 20  4  1  0  0  0  0
 21 13  1  0  0  0  0
 22 14  1  0  0  0  0
 23  7  1  0  0  0  0
 25  9  1  0  0  0  0
 26  2  1  0  0  0  0
 27  6  1  0  0  0  0
 27 22  2  0  0  0  0
 28 29  1  0  0  0  0
 29 30  1  0  0  0  0
 30 31  2  0  0  0  0
 30 32  1  0  0  0  0
M  END
>  <MODEL>
4

>  <REMARK>
 VINA RESULT:     -10.7      4.444      7.393
  Name = 
  3 active torsions:
  status: ('A' for Active; 'I' for Inactive)
    1  A    between atoms: C_1  and  C_10
    2  A    between atoms: C_10  and  N_24
    3  A    between atoms: C_19  and  N_24
                            x       y       z     vdW  Elec       q    Type
                         _______ _______ _______ _____ _____    ______ ____

>  <TORSDO>
F 3

$$$$
=
 OpenBabel10262421223D

 32 37  0  0  0  0  0  0  0  0999 V2000
  182.6590  179.2250  139.8200 C   0  0  0  0  0  3  0  0  0  0  0  0
  186.6010  178.1440  142.8090 C   0  0  0  0  0  0  0  0  0  0  0  0
  190.3320  177.7830  139.6650 C   0  0  0  0  0  3  0  0  0  0  0  0
  191.1990  177.5020  140.7180 C   0  0  0  0  0  3  0  0  0  0  0  0
  187.0120  177.7960  145.2450 C   0  0  0  0  0  0  0  0  0  0  0  0
  187.9360  177.5100  146.2440 C   0  0  0  0  0  0  0  0  0  0  0  0
  184.3710  178.6630  141.9590 C   0  0  0  0  0  0  0  0  0  0  0  0
  186.2290  178.4810  140.4170 C   0  0  0  0  0  3  0  0  0  0  0  0
  189.8910  177.0400  147.1230 N   0  0  0  0  0  0  0  0  0  0  0  0
  184.0170  178.9940  139.5790 C   0  0  0  0  0  3  0  0  0  0  0  0
  188.9800  178.0130  139.9180 C   0  0  0  0  0  3  0  0  0  0  0  0
  187.1050  178.1960  141.4810 C   0  0  0  0  0  0  0  0  0  0  0  0
  188.4710  177.9640  141.2300 C   0  0  0  0  0  0  0  0  0  0  0  0
  188.8660  177.6240  143.6230 C   0  0  0  0  0  0  0  0  0  0  0  0
  189.0180  177.0960  148.1210 N   0  0  0  0  0  0  0  0  0  0  0  0
  182.1510  179.1760  141.1280 C   0  0  0  0  0  0  0  0  0  0  0  0
  184.8750  178.7130  140.6450 C   0  0  0  0  0  0  0  0  0  0  0  0
  187.7910  177.3850  147.6150 C   0  0  0  0  0  3  0  0  0  0  0  0
  183.0130  178.8940  142.1940 C   0  0  0  0  0  3  0  0  0  0  0  0
  190.7130  177.4500  142.0250 C   0  0  0  0  0  3  0  0  0  0  0  0
  189.3520  177.6780  142.3010 C   0  0  0  0  0  0  0  0  0  0  0  0
  189.7550  177.3360  144.6850 C   0  0  0  0  0  3  0  0  0  0  0  0
  185.2290  178.3810  143.0190 C   0  0  0  0  0  3  0  0  0  0  0  0
  185.7170  178.0040  145.5950 F   0  0  0  0  0  0  0  0  0  0  0  0
  191.3050  176.7540  147.2910 C   0  0  0  0  0  1  0  0  0  0  0  0
  187.4730  177.8580  143.8930 C   0  0  0  0  0  0  0  0  0  0  0  0
  189.2480  177.2900  145.9750 C   0  0  0  0  0  0  0  0  0  0  0  0
  180.7670  179.4100  141.3950 N   0  0  0  0  0  2  0  0  0  0  0  0
  180.2600  179.7300  142.7200 C   0  0  0  0  0  2  0  0  0  0  0  0
  179.4530  178.5910  143.2340 C   0  0  0  0  0  0  0  0  0  0  0  0
  179.3060  177.4430  142.4660 O   0  0  0  0  0  0  0  0  0  0  0  0
  178.9340  178.6530  144.3780 O   0  0  0  0  0  1  0  0  0  0  0  0
  1 16  1  0  0  0  0
  2 23  1  0  0  0  0
  2 26  1  0  0  0  0
  3 11  2  0  0  0  0
  3  4  1  0  0  0  0
  4 20  2  0  0  0  0
  5 24  1  0  0  0  0
  5  6  1  0  0  0  0
  6 18  1  0  0  0  0
  7 19  1  0  0  0  0
  7 23  2  0  0  0  0
  8 17  2  0  0  0  0
  8 12  1  0  0  0  0
  9 25  1  0  0  0  0
  9 15  1  0  0  0  0
 10  1  2  0  0  0  0
 10 17  1  0  0  0  0
 11 13  1  0  0  0  0
 12  2  2  0  0  0  0
 13 12  1  0  0  0  0
 13 21  2  0  0  0  0
 14 26  1  0  0  0  0
 14 22  2  0  0  0  0
 16 28  1  0  0  0  0
 16 19  2  0  0  0  0
 17  7  1  0  0  0  0
 18 15  2  0  0  0  0
 20 21  1  0  0  0  0
 21 14  1  0  0  0  0
 22 27  1  0  0  0  0
 26  5  2  0  0  0  0
 27  6  2  0  0  0  0
 27  9  1  0  0  0  0
 28 29  1  0  0  0  0
 29 30  1  0  0  0  0
 30 32  1  0  0  0  0
 31 30  2  0  0  0  0
M  END
>  <MODEL>
5

>  <REMARK>
 VINA RESULT:     -10.6      2.777      4.935
  Name = 
  3 active torsions:
  status: ('A' for Active; 'I' for Inactive)
    1  A    between atoms: C_1  and  C_10
    2  A    between atoms: C_10  and  N_24
    3  A    between atoms: C_19  and  N_24
                            x       y       z     vdW  Elec       q    Type
                         _______ _______ _______ _____ _____    ______ ____

>  <TORSDO>
F 3

$$$$
=
 OpenBabel10262421223D

 32 37  0  0  0  0  0  0  0  0999 V2000
  191.7140  177.1290  140.8620 C   0  0  0  0  0  3  0  0  0  0  0  0
  187.0050  178.0000  142.5080 C   0  0  0  0  0  0  0  0  0  0  0  0
  187.4970  178.0000  147.3760 C   0  0  0  0  0  3  0  0  0  0  0  0
  186.1330  178.2470  147.5190 C   0  0  0  0  0  3  0  0  0  0  0  0
  184.7540  178.3840  141.5030 C   0  0  0  0  0  0  0  0  0  0  0  0
  183.4030  178.6290  141.7230 C   0  0  0  0  0  0  0  0  0  0  0  0
  188.9730  177.6230  141.1110 C   0  0  0  0  0  0  0  0  0  0  0  0
  189.1980  177.6270  143.5210 C   0  0  0  0  0  3  0  0  0  0  0  0
  181.5680  178.9780  142.8740 N   0  0  0  0  0  0  0  0  0  0  0  0
  191.1440  177.2540  142.1330 C   0  0  0  0  0  3  0  0  0  0  0  0
  188.0530  177.8780  146.1030 C   0  0  0  0  0  3  0  0  0  0  0  0
  187.8200  177.8760  143.6660 C   0  0  0  0  0  0  0  0  0  0  0  0
  187.2540  178.0000  144.9490 C   0  0  0  0  0  0  0  0  0  0  0  0
  185.0480  178.3760  143.9540 C   0  0  0  0  0  0  0  0  0  0  0  0
  181.2350  179.0140  141.5900 N   0  0  0  0  0  0  0  0  0  0  0  0
  190.9180  177.2500  139.7120 C   0  0  0  0  0  0  0  0  0  0  0  0
  189.7750  177.5010  142.2610 C   0  0  0  0  0  0  0  0  0  0  0  0
  182.3500  178.8020  140.8420 C   0  0  0  0  0  3  0  0  0  0  0  0
  189.5470  177.4970  139.8430 C   0  0  0  0  0  3  0  0  0  0  0  0
  185.3260  178.3710  146.3880 C   0  0  0  0  0  3  0  0  0  0  0  0
  185.8680  178.2500  145.0940 C   0  0  0  0  0  0  0  0  0  0  0  0
  183.6640  178.6260  144.1110 C   0  0  0  0  0  3  0  0  0  0  0  0
  187.6080  177.8690  141.2430 C   0  0  0  0  0  3  0  0  0  0  0  0
  185.1980  178.2820  140.2240 F   0  0  0  0  0  0  0  0  0  0  0  0
  180.6290  179.1660  143.9660 C   0  0  0  0  0  1  0  0  0  0  0  0
  185.6130  178.2510  142.6380 C   0  0  0  0  0  0  0  0  0  0  0  0
  182.8840  178.7450  142.9710 C   0  0  0  0  0  0  0  0  0  0  0  0
  191.4810  177.1260  138.4040 N   0  0  0  0  0  2  0  0  0  0  0  0
  192.0790  175.8930  137.9150 C   0  0  0  0  0  2  0  0  0  0  0  0
  193.5510  176.0650  137.7960 C   0  0  0  0  0  0  0  0  0  0  0  0
  194.0840  176.7570  136.7160 O   0  0  0  0  0  0  0  0  0  0  0  0
  194.3120  175.6160  138.6910 O   0  0  0  0  0  1  0  0  0  0  0  0
  1 10  1  0  0  0  0
  2 26  1  0  0  0  0
  2 12  1  0  0  0  0
  3  4  1  0  0  0  0
  5  6  2  0  0  0  0
  5 26  1  0  0  0  0
  6 27  1  0  0  0  0
  7 23  1  0  0  0  0
  7 17  1  0  0  0  0
  8 12  2  0  0  0  0
  9 27  1  0  0  0  0
  9 25  1  0  0  0  0
 10 17  2  0  0  0  0
 11  3  2  0  0  0  0
 12 13  1  0  0  0  0
 13 21  2  0  0  0  0
 13 11  1  0  0  0  0
 14 22  1  0  0  0  0
 14 21  1  0  0  0  0
 15  9  1  0  0  0  0
 16 19  1  0  0  0  0
 16  1  2  0  0  0  0
 17  8  1  0  0  0  0
 18 15  2  0  0  0  0
 18  6  1  0  0  0  0
 19  7  2  0  0  0  0
 20  4  2  0  0  0  0
 21 20  1  0  0  0  0
 23  2  2  0  0  0  0
 24  5  1  0  0  0  0
 26 14  2  0  0  0  0
 27 22  2  0  0  0  0
 28 16  1  0  0  0  0
 29 28  1  0  0  0  0
 30 29  1  0  0  0  0
 30 32  1  0  0  0  0
 31 30  2  0  0  0  0
M  END
>  <MODEL>
6

>  <REMARK>
 VINA RESULT:     -10.6      4.151      8.215
  Name = 
  3 active torsions:
  status: ('A' for Active; 'I' for Inactive)
    1  A    between atoms: C_1  and  C_10
    2  A    between atoms: C_10  and  N_24
    3  A    between atoms: C_19  and  N_24
                            x       y       z     vdW  Elec       q    Type
                         _______ _______ _______ _____ _____    ______ ____

>  <TORSDO>
F 3

$$$$
=
 OpenBabel10262421223D

 32 37  0  0  0  0  0  0  0  0999 V2000
  187.8440  177.5130  147.4690 C   0  0  0  0  0  3  0  0  0  0  0  0
  187.2180  177.9980  142.4670 C   0  0  0  0  0  0  0  0  0  0  0  0
  182.4340  178.9140  142.0150 C   0  0  0  0  0  3  0  0  0  0  0  0
  182.5740  178.9910  140.6310 C   0  0  0  0  0  3  0  0  0  0  0  0
  188.6450  177.8880  140.4230 C   0  0  0  0  0  0  0  0  0  0  0  0
  188.7070  177.9790  139.0370 C   0  0  0  0  0  0  0  0  0  0  0  0
  188.1630  177.6600  144.6940 C   0  0  0  0  0  0  0  0  0  0  0  0
  185.7970  178.1140  144.4520 C   0  0  0  0  0  3  0  0  0  0  0  0
  187.9740  178.2650  136.9890 N   0  0  0  0  0  0  0  0  0  0  0  0
  186.7370  177.7770  146.6560 C   0  0  0  0  0  3  0  0  0  0  0  0
  183.5460  178.6500  142.8140 C   0  0  0  0  0  3  0  0  0  0  0  0
  185.9390  178.1920  143.0530 C   0  0  0  0  0  0  0  0  0  0  0  0
  184.8180  178.4580  142.2430 C   0  0  0  0  0  0  0  0  0  0  0  0
  186.2250  178.3470  140.2410 C   0  0  0  0  0  0  0  0  0  0  0  0
  189.2780  178.0320  136.9070 N   0  0  0  0  0  0  0  0  0  0  0  0
  189.1130  177.3220  146.8990 C   0  0  0  0  0  0  0  0  0  0  0  0
  186.8930  177.8520  145.2700 C   0  0  0  0  0  0  0  0  0  0  0  0
  189.7700  177.8480  138.1600 C   0  0  0  0  0  3  0  0  0  0  0  0
  189.2660  177.3960  145.5100 C   0  0  0  0  0  3  0  0  0  0  0  0
  183.8270  178.8030  140.0470 C   0  0  0  0  0  3  0  0  0  0  0  0
  184.9610  178.5360  140.8360 C   0  0  0  0  0  0  0  0  0  0  0  0
  186.3560  178.4270  138.8350 C   0  0  0  0  0  3  0  0  0  0  0  0
  188.3140  177.7340  143.3110 C   0  0  0  0  0  3  0  0  0  0  0  0
  189.7850  177.6270  141.1120 F   0  0  0  0  0  0  0  0  0  0  0  0
  187.1150  178.5090  135.8440 C   0  0  0  0  0  1  0  0  0  0  0  0
  187.3770  178.0740  141.0580 C   0  0  0  0  0  0  0  0  0  0  0  0
  187.6120  178.2370  138.2790 C   0  0  0  0  0  0  0  0  0  0  0  0
  190.2560  177.0510  147.7120 N   0  0  0  0  0  2  0  0  0  0  0  0
  191.6200  177.1300  147.2110 C   0  0  0  0  0  2  0  0  0  0  0  0
  192.3030  175.8250  147.4140 C   0  0  0  0  0  0  0  0  0  0  0  0
  192.4280  174.9350  146.3550 O   0  0  0  0  0  0  0  0  0  0  0  0
  192.7980  175.5410  148.5350 O   0  0  0  0  0  1  0  0  0  0  0  0
  2 12  2  0  0  0  0
  2 23  1  0  0  0  0
  3 11  1  0  0  0  0
  4  3  2  0  0  0  0
  5 26  1  0  0  0  0
  5 24  1  0  0  0  0
  6  5  2  0  0  0  0
  7 17  1  0  0  0  0
  7 19  1  0  0  0  0
  8 17  2  0  0  0  0
  9 27  1  0  0  0  0
 10  1  2  0  0  0  0
 12  8  1  0  0  0  0
 13 11  2  0  0  0  0
 13 12  1  0  0  0  0
 14 21  1  0  0  0  0
 14 26  2  0  0  0  0
 15  9  1  0  0  0  0
 15 18  2  0  0  0  0
 16  1  1  0  0  0  0
 16 28  1  0  0  0  0
 17 10  1  0  0  0  0
 18  6  1  0  0  0  0
 19 16  2  0  0  0  0
 20  4  1  0  0  0  0
 20 21  2  0  0  0  0
 21 13  1  0  0  0  0
 22 14  1  0  0  0  0
 23  7  2  0  0  0  0
 25  9  1  0  0  0  0
 26  2  1  0  0  0  0
 27 22  2  0  0  0  0
 27  6  1  0  0  0  0
 29 30  1  0  0  0  0
 29 28  1  0  0  0  0
 30 32  1  0  0  0  0
 31 30  2  0  0  0  0
M  END
>  <MODEL>
7

>  <REMARK>
 VINA RESULT:     -10.5      4.179      6.899
  Name = 
  3 active torsions:
  status: ('A' for Active; 'I' for Inactive)
    1  A    between atoms: C_1  and  C_10
    2  A    between atoms: C_10  and  N_24
    3  A    between atoms: C_19  and  N_24
                            x       y       z     vdW  Elec       q    Type
                         _______ _______ _______ _____ _____    ______ ____

>  <TORSDO>
F 3

$$$$
=
 OpenBabel10262421223D

 32 37  0  0  0  0  0  0  0  0999 V2000
  186.9570  178.3500  137.2600 C   0  0  0  0  0  3  0  0  0  0  0  0
  187.2070  178.0610  142.3090 C   0  0  0  0  0  0  0  0  0  0  0  0
  182.6590  179.1730  143.7260 C   0  0  0  0  0  3  0  0  0  0  0  0
  183.0310  179.0170  145.0600 C   0  0  0  0  0  3  0  0  0  0  0  0
  188.9360  177.5370  144.0310 C   0  0  0  0  0  0  0  0  0  0  0  0
  189.2330  177.4000  145.3820 C   0  0  0  0  0  0  0  0  0  0  0  0
  187.7390  178.0280  139.9250 C   0  0  0  0  0  0  0  0  0  0  0  0
  185.4930  178.5770  140.6440 C   0  0  0  0  0  3  0  0  0  0  0  0
  188.8740  177.3970  147.5460 N   0  0  0  0  0  0  0  0  0  0  0  0
  186.0260  178.5450  138.2840 C   0  0  0  0  0  3  0  0  0  0  0  0
  183.5970  178.9750  142.7140 C   0  0  0  0  0  3  0  0  0  0  0  0
  185.8690  178.4190  141.9920 C   0  0  0  0  0  0  0  0  0  0  0  0
  184.9250  178.6180  143.0180 C   0  0  0  0  0  0  0  0  0  0  0  0
  186.6270  178.1030  144.7020 C   0  0  0  0  0  0  0  0  0  0  0  0
  190.1480  177.0750  147.3630 N   0  0  0  0  0  0  0  0  0  0  0  0
  188.2810  177.9940  137.5620 C   0  0  0  0  0  0  0  0  0  0  0  0
  186.4130  178.3850  139.6170 C   0  0  0  0  0  0  0  0  0  0  0  0
  190.4100  177.0660  146.0290 C   0  0  0  0  0  3  0  0  0  0  0  0
  188.6660  177.8350  138.8980 C   0  0  0  0  0  3  0  0  0  0  0  0
  184.3420  178.6640  145.3800 C   0  0  0  0  0  3  0  0  0  0  0  0
  185.3040  178.4600  144.3730 C   0  0  0  0  0  0  0  0  0  0  0  0
  186.9950  177.9480  146.0590 C   0  0  0  0  0  3  0  0  0  0  0  0
  188.1220  177.8710  141.2550 C   0  0  0  0  0  3  0  0  0  0  0  0
  189.9200  177.3220  143.1210 F   0  0  0  0  0  0  0  0  0  0  0  0
  188.2390  177.5020  148.8480 C   0  0  0  0  0  1  0  0  0  0  0  0
  187.6010  177.8980  143.6640 C   0  0  0  0  0  0  0  0  0  0  0  0
  188.3040  177.5970  146.3510 C   0  0  0  0  0  0  0  0  0  0  0  0
  189.2480  177.7900  136.5290 N   0  0  0  0  0  2  0  0  0  0  0  0
  189.2880  176.5880  135.7110 C   0  0  0  0  0  2  0  0  0  0  0  0
  189.1160  175.3900  136.5740 C   0  0  0  0  0  0  0  0  0  0  0  0
  190.1580  174.9670  137.3900 O   0  0  0  0  0  1  0  0  0  0  0  0
  188.0160  174.7800  136.5940 O   0  0  0  0  0  0  0  0  0  0  0  0
  1 16  2  0  0  0  0
  1 10  1  0  0  0  0
  2 26  1  0  0  0  0
  3  4  1  0  0  0  0
  4 20  2  0  0  0  0
  5  6  1  0  0  0  0
  6 18  1  0  0  0  0
  6 27  2  0  0  0  0
  7 23  1  0  0  0  0
  8 12  2  0  0  0  0
  9 25  1  0  0  0  0
 10 17  2  0  0  0  0
 11 13  1  0  0  0  0
 11  3  2  0  0  0  0
 12  2  1  0  0  0  0
 12 13  1  0  0  0  0
 13 21  2  0  0  0  0
 14 22  2  0  0  0  0
 15  9  1  0  0  0  0
 16 19  1  0  0  0  0
 17  7  1  0  0  0  0
 17  8  1  0  0  0  0
 18 15  2  0  0  0  0
 19  7  2  0  0  0  0
 21 14  1  0  0  0  0
 21 20  1  0  0  0  0
 22 27  1  0  0  0  0
 23  2  2  0  0  0  0
 24  5  1  0  0  0  0
 26  5  2  0  0  0  0
 26 14  1  0  0  0  0
 27  9  1  0  0  0  0
 28 16  1  0  0  0  0
 29 28  1  0  0  0  0
 29 30  1  0  0  0  0
 30 32  2  0  0  0  0
 30 31  1  0  0  0  0
M  END
>  <MODEL>
8

>  <REMARK>
 VINA RESULT:     -10.4      3.946      7.456
  Name = 
  3 active torsions:
  status: ('A' for Active; 'I' for Inactive)
    1  A    between atoms: C_1  and  C_10
    2  A    between atoms: C_10  and  N_24
    3  A    between atoms: C_19  and  N_24
                            x       y       z     vdW  Elec       q    Type
                         _______ _______ _______ _____ _____    ______ ____

>  <TORSDO>
F 3

$$$$
=
 OpenBabel10262421223D

 32 37  0  0  0  0  0  0  0  0999 V2000
  191.6620  177.1310  141.0020 C   0  0  0  0  0  3  0  0  0  0  0  0
  186.9330  178.0010  142.5900 C   0  0  0  0  0  0  0  0  0  0  0  0
  187.3650  178.0050  147.4630 C   0  0  0  0  0  3  0  0  0  0  0  0
  185.9990  178.2510  147.5890 C   0  0  0  0  0  3  0  0  0  0  0  0
  184.6940  178.3850  141.5570 C   0  0  0  0  0  0  0  0  0  0  0  0
  183.3410  178.6300  141.7610 C   0  0  0  0  0  0  0  0  0  0  0  0
  188.9180  177.6250  141.2170 C   0  0  0  0  0  0  0  0  0  0  0  0
  189.1140  177.6300  143.6300 C   0  0  0  0  0  3  0  0  0  0  0  0
  181.4920  178.9780  142.8880 N   0  0  0  0  0  0  0  0  0  0  0  0
  191.0770  177.2570  142.2660 C   0  0  0  0  0  3  0  0  0  0  0  0
  187.9360  177.8820  146.1970 C   0  0  0  0  0  3  0  0  0  0  0  0
  187.7330  177.8790  143.7580 C   0  0  0  0  0  0  0  0  0  0  0  0
  187.1520  178.0030  145.0340 C   0  0  0  0  0  0  0  0  0  0  0  0
  184.9580  178.3790  144.0120 C   0  0  0  0  0  0  0  0  0  0  0  0
  181.1750  179.0140  141.6000 N   0  0  0  0  0  0  0  0  0  0  0  0
  190.8800  177.2520  139.8420 C   0  0  0  0  0  0  0  0  0  0  0  0
  189.7060  177.5040  142.3770 C   0  0  0  0  0  0  0  0  0  0  0  0
  182.2980  178.8010  140.8670 C   0  0  0  0  0  3  0  0  0  0  0  0
  189.5070  177.4990  139.9570 C   0  0  0  0  0  3  0  0  0  0  0  0
  185.2060  178.3740  146.4490 C   0  0  0  0  0  3  0  0  0  0  0  0
  185.7640  178.2530  145.1620 C   0  0  0  0  0  0  0  0  0  0  0  0
  183.5730  178.6280  144.1520 C   0  0  0  0  0  3  0  0  0  0  0  0
  187.5510  177.8700  141.3320 C   0  0  0  0  0  3  0  0  0  0  0  0
  185.1540  178.2820  140.2840 F   0  0  0  0  0  0  0  0  0  0  0  0
  180.5390  179.1670  143.9690 C   0  0  0  0  0  1  0  0  0  0  0  0
  185.5390  178.2530  142.7030 C   0  0  0  0  0  0  0  0  0  0  0  0
  182.8060  178.7460  143.0020 C   0  0  0  0  0  0  0  0  0  0  0  0
  191.4590  177.1270  138.5420 N   0  0  0  0  0  2  0  0  0  0  0  0
  191.3430  175.9200  137.7370 C   0  0  0  0  0  2  0  0  0  0  0  0
  190.4400  176.1740  136.5840 C   0  0  0  0  0  0  0  0  0  0  0  0
  189.8060  177.4040  136.4570 O   0  0  0  0  0  1  0  0  0  0  0  0
  190.2770  175.2900  135.7050 O   0  0  0  0  0  0  0  0  0  0  0  0
  1 10  1  0  0  0  0
  2 26  1  0  0  0  0
  2 12  1  0  0  0  0
  3  4  1  0  0  0  0
  5  6  2  0  0  0  0
  5 26  1  0  0  0  0
  6 27  1  0  0  0  0
  7 23  1  0  0  0  0
  7 17  1  0  0  0  0
  8 12  2  0  0  0  0
  9 27  1  0  0  0  0
  9 25  1  0  0  0  0
 10 17  2  0  0  0  0
 11  3  2  0  0  0  0
 12 13  1  0  0  0  0
 13 21  2  0  0  0  0
 13 11  1  0  0  0  0
 14 22  1  0  0  0  0
 14 21  1  0  0  0  0
 15  9  1  0  0  0  0
 16 19  1  0  0  0  0
 16  1  2  0  0  0  0
 17  8  1  0  0  0  0
 18 15  2  0  0  0  0
 18  6  1  0  0  0  0
 19  7  2  0  0  0  0
 20  4  2  0  0  0  0
 21 20  1  0  0  0  0
 23  2  2  0  0  0  0
 24  5  1  0  0  0  0
 26 14  2  0  0  0  0
 27 22  2  0  0  0  0
 28 16  1  0  0  0  0
 29 28  1  0  0  0  0
 30 29  1  0  0  0  0
 31 30  1  0  0  0  0
 32 30  2  0  0  0  0
M  END
>  <MODEL>
9

>  <REMARK>
 VINA RESULT:     -10.2      3.392      7.723
  Name = 
  3 active torsions:
  status: ('A' for Active; 'I' for Inactive)
    1  A    between atoms: C_1  and  C_10
    2  A    between atoms: C_10  and  N_24
    3  A    between atoms: C_19  and  N_24
                            x       y       z     vdW  Elec       q    Type
                         _______ _______ _______ _____ _____    ______ ____

>  <TORSDO>
F 3

$$$$
