=
 OpenBabel10262422273D

 43 46  0  0  1  0  0  0  0  0999 V2000
  182.9620  177.2300  139.0970 C   0  0  0  0  0  0  0  0  0  0  0  0
  185.4600  178.0910  137.8870 C   0  0  0  0  0  0  0  0  0  0  0  0
  181.6270  174.8890  137.6540 C   0  0  0  0  0  0  0  0  0  0  0  0
  182.6760  175.5510  137.1970 C   0  0  0  0  0  3  0  0  0  0  0  0
  184.3940  177.4170  137.0150 C   0  0  0  0  0  2  0  0  0  0  0  0
  183.5200  176.5510  137.9210 C   0  0  0  0  0  0  0  0  0  0  0  0
  181.6950  176.6710  139.7140 C   0  0  0  0  0  3  0  0  0  0  0  0
  183.8270  178.1690  139.7730 C   0  0  1  0  0  3  0  0  0  0  0  0
  185.1410  178.4520  139.1310 C   0  0  0  0  0  3  0  0  0  0  0  0
  181.1340  175.3290  139.1120 C   0  0  0  0  0  3  0  0  0  0  0  0
  186.7980  178.2690  137.3240 C   0  0  2  0  0  3  0  0  0  0  0  0
  186.7540  177.8660  135.9660 O   0  0  0  0  0  1  0  0  0  0  0  0
  187.7070  177.4390  138.0630 N   0  0  0  0  0  2  0  0  0  0  0  0
  188.9400  177.7650  138.6580 C   0  0  0  0  0  0  0  0  0  0  0  0
  189.2830  179.0080  138.7810 O   0  0  0  0  0  0  0  0  0  0  0  0
  189.8330  176.7190  139.1430 C   0  0  2  0  0  3  0  0  0  0  0  0
  190.1400  176.8730  140.6680 C   0  0  1  0  0  3  0  0  0  0  0  0
  191.2610  177.7040  140.8980 O   0  0  0  0  0  1  0  0  0  0  0  0
  188.9960  177.2350  141.6030 C   0  0  0  0  0  2  0  0  0  0  0  0
  189.5130  178.2930  142.5560 C   0  0  0  0  0  2  0  0  0  0  0  0
  191.1500  177.4480  144.1210 O   0  0  0  0  0  0  0  0  0  0  0  0
  189.7950  177.7340  143.8290 C   0  0  1  0  0  3  0  0  0  0  0  0
  191.5920  176.6570  146.2090 C   0  0  0  0  0  2  0  0  0  0  0  0
  189.1440  177.7840  146.2160 C   0  0  0  0  0  2  0  0  0  0  0  0
  190.1390  176.6480  146.6300 C   0  0  0  0  0  2  0  0  0  0  0  0
  188.8370  177.7180  144.7630 C   0  0  0  0  0  2  0  0  0  0  0  0
  191.6250  176.3290  144.7760 C   0  0  0  0  0  2  0  0  0  0  0  0
  191.0370  175.4150  137.8730 C   0  0  0  0  0  1  0  0  0  0  0  0
  190.9580  176.7390  138.3380 O   0  0  0  0  0  0  0  0  0  0  0  0
  183.4550  178.8270  140.9950 N   0  0  0  0  0  2  0  0  0  0  0  0
  183.1720  179.0000  144.8130 C   0  0  0  0  0  2  0  0  0  0  0  0
  184.6120  178.6540  145.1090 C   0  0  0  0  0  0  0  0  0  0  0  0
  185.1420  178.6780  142.6250 C   0  0  0  0  0  2  0  0  0  0  0  0
  182.8400  179.1700  143.3070 C   0  0  0  0  0  2  0  0  0  0  0  0
  183.6990  178.3690  142.3300 C   0  0  1  0  0  3  0  0  0  0  0  0
  185.4900  178.4510  144.1360 C   0  0  0  0  0  3  0  0  0  0  0  0
  185.0040  178.3680  146.5010 C   0  0  0  0  0  2  0  0  0  0  0  0
  185.9930  177.4830  146.6040 F   0  0  0  0  0  0  0  0  0  0  0  0
  181.1360  173.6800  136.7790 C   0  0  1  0  0  3  0  0  0  0  0  0
  181.9900  172.3110  137.3010 C   0  0  0  0  0  2  0  0  0  0  0  0
  183.6240  171.7000  136.7420 S   0  0  0  0  0  1  0  0  0  0  0  0
  179.4200  174.4660  135.2760 O   0  0  0  0  0  1  0  0  0  0  0  0
  179.7330  173.6110  136.3800 N   0  0  0  0  0  2  0  0  0  0  0  0
  1  7  1  0  0  0  0
  1  8  1  0  0  0  0
  2  9  2  0  0  0  0
  3 10  1  0  0  0  0
  4  3  2  0  0  0  0
  4  6  1  0  0  0  0
  5  2  1  0  0  0  0
  5  6  1  0  0  0  0
  6  1  2  0  0  0  0
  8 30  1  6  0  0  0
  9  8  1  0  0  0  0
 10  7  2  0  0  0  0
 11 12  1  6  0  0  0
 11  2  1  0  0  0  0
 11 13  1  0  0  0  0
 13 14  1  0  0  0  0
 14 15  2  0  0  0  0
 14 16  1  0  0  0  0
 16 29  1  6  0  0  0
 16 17  1  0  0  0  0
 17 18  1  6  0  0  0
 17 19  1  0  0  0  0
 19 20  1  0  0  0  0
 21 27  1  0  0  0  0
 22 20  1  1  0  0  0
 22 21  1  0  0  0  0
 22 26  1  0  0  0  0
 23 25  1  0  0  0  0
 24 25  1  0  0  0  0
 26 24  1  0  0  0  0
 27 23  1  0  0  0  0
 28 29  1  0  0  0  0
 31 32  1  0  0  0  0
 32 37  1  0  0  0  0
 33 36  1  0  0  0  0
 34 31  1  0  0  0  0
 35 30  1  6  0  0  0
 35 33  1  0  0  0  0
 35 34  1  0  0  0  0
 36 32  2  0  0  0  0
 37 38  1  0  0  0  0
 39 40  1  1  0  0  0
 39  3  1  0  0  0  0
 41 40  1  0  0  0  0
 42 43  1  0  0  0  0
 43 39  1  0  0  0  0
M  END
>  <MODEL>
1

>  <REMARK>
 VINA RESULT:      -8.4      0.000      0.000
  Name = 
  14 active torsions:
  status: ('A' for Active; 'I' for Inactive)
    1  A    between atoms: N_1  and  C_34
    2  A    between atoms: N_1  and  C_35
    3  A    between atoms: C_2  and  N_6
    4  A    between atoms: C_2  and  C_13
    5  A    between atoms: C_3  and  C_4
    6  A    between atoms: C_3  and  C_12
    7  A    between atoms: C_3  and  O_42
    8  A    between atoms: C_4  and  C_22
    9  A    between atoms: C_5  and  C_16
   10  A    between atoms: C_5  and  C_18
   11  A    between atoms: C_5  and  N_23
   12  A    between atoms: C_14  and  C_41
   13  A    between atoms: C_19  and  C_25
   14  A    between atoms: C_22  and  C_41
                            x       y       z     vdW  Elec       q    Type
                         _______ _______ _______ _____ _____    ______ ____

>  <TORSDO>
F 14

$$$$
=
 OpenBabel10262422273D

 43 46  0  0  1  0  0  0  0  0999 V2000
  190.8620  177.1600  139.3550 C   0  0  0  0  0  0  0  0  0  0  0  0
  188.2180  177.4000  138.1720 C   0  0  0  0  0  0  0  0  0  0  0  0
  193.0060  176.1770  137.4110 C   0  0  0  0  0  0  0  0  0  0  0  0
  191.7110  176.2060  137.1460 C   0  0  0  0  0  3  0  0  0  0  0  0
  189.2140  176.3890  137.5910 C   0  0  0  0  0  2  0  0  0  0  0  0
  190.6250  176.8630  137.9370 C   0  0  0  0  0  0  0  0  0  0  0  0
  192.2830  177.0850  139.8760 C   0  0  0  0  0  3  0  0  0  0  0  0
  189.7890  177.8150  140.0670 C   0  0  1  0  0  3  0  0  0  0  0  0
  188.5080  177.9990  139.3280 C   0  0  0  0  0  3  0  0  0  0  0  0
  193.4200  176.8050  138.8240 C   0  0  0  0  0  3  0  0  0  0  0  0
  187.0080  177.6930  137.4040 C   0  0  2  0  0  3  0  0  0  0  0  0
  187.3710  178.5460  136.3320 O   0  0  0  0  0  1  0  0  0  0  0  0
  186.0760  178.3520  138.2750 N   0  0  0  0  0  2  0  0  0  0  0  0
  184.6710  178.2870  138.3000 C   0  0  0  0  0  0  0  0  0  0  0  0
  184.0590  177.3770  137.6130 O   0  0  0  0  0  0  0  0  0  0  0  0
  183.8960  179.2320  139.0970 C   0  0  2  0  0  3  0  0  0  0  0  0
  183.6520  178.7080  140.5510 C   0  0  1  0  0  3  0  0  0  0  0  0
  183.2970  177.3400  140.5630 O   0  0  0  0  0  1  0  0  0  0  0  0
  184.7010  179.0060  141.6110 C   0  0  0  0  0  2  0  0  0  0  0  0
  184.1750  178.4680  142.9260 C   0  0  0  0  0  2  0  0  0  0  0  0
  184.8910  178.4760  145.2350 O   0  0  0  0  0  0  0  0  0  0  0  0
  185.2240  178.3160  143.8680 C   0  0  1  0  0  3  0  0  0  0  0  0
  186.5650  178.1170  146.7350 C   0  0  0  0  0  2  0  0  0  0  0  0
  187.2800  177.0330  144.3730 C   0  0  0  0  0  2  0  0  0  0  0  0
  187.6060  177.8450  145.6710 C   0  0  0  0  0  2  0  0  0  0  0  0
  186.3970  177.8130  143.4660 C   0  0  0  0  0  2  0  0  0  0  0  0
  185.6470  179.1270  146.1880 C   0  0  0  0  0  2  0  0  0  0  0  0
  182.4410  180.8240  138.7670 C   0  0  0  0  0  1  0  0  0  0  0  0
  182.7350  179.5010  138.3950 O   0  0  0  0  0  0  0  0  0  0  0  0
  189.9170  178.2600  141.4270 N   0  0  0  0  0  2  0  0  0  0  0  0
  190.9260  175.6050  143.9990 C   0  0  0  0  0  2  0  0  0  0  0  0
  191.3180  176.5670  145.0960 C   0  0  0  0  0  0  0  0  0  0  0  0
  190.5230  178.5220  143.6820 C   0  0  0  0  0  2  0  0  0  0  0  0
  190.3100  176.2700  142.7400 C   0  0  0  0  0  2  0  0  0  0  0  0
  190.7560  177.7010  142.4430 C   0  0  1  0  0  3  0  0  0  0  0  0
  191.1960  177.8790  144.9440 C   0  0  0  0  0  3  0  0  0  0  0  0
  192.0090  176.0440  146.2890 C   0  0  0  0  0  2  0  0  0  0  0  0
  192.0220  176.8950  147.3120 F   0  0  0  0  0  0  0  0  0  0  0  0
  193.9400  175.6890  136.2460 C   0  0  1  0  0  3  0  0  0  0  0  0
  193.9860  173.9960  136.3220 C   0  0  0  0  0  2  0  0  0  0  0  0
  192.8010  172.7860  135.6230 S   0  0  0  0  0  1  0  0  0  0  0  0
  194.6930  177.6150  135.0020 O   0  0  0  0  0  1  0  0  0  0  0  0
  193.9270  176.4070  134.9730 N   0  0  0  0  0  2  0  0  0  0  0  0
  1  7  1  0  0  0  0
  1  8  1  0  0  0  0
  2  9  2  0  0  0  0
  3 10  1  0  0  0  0
  4  3  2  0  0  0  0
  4  6  1  0  0  0  0
  5  6  1  0  0  0  0
  5  2  1  0  0  0  0
  6  1  2  0  0  0  0
  8 30  1  1  0  0  0
  9  8  1  0  0  0  0
 10  7  2  0  0  0  0
 11 12  1  6  0  0  0
 11  2  1  0  0  0  0
 11 13  1  0  0  0  0
 13 14  1  0  0  0  0
 15 14  2  0  0  0  0
 16 14  1  6  0  0  0
 16 17  1  0  0  0  0
 17 18  1  6  0  0  0
 17 19  1  0  0  0  0
 19 20  1  0  0  0  0
 21 27  1  0  0  0  0
 22 20  1  1  0  0  0
 22 21  1  0  0  0  0
 24 25  1  0  0  0  0
 25 23  1  0  0  0  0
 26 22  1  0  0  0  0
 26 24  1  0  0  0  0
 27 23  1  0  0  0  0
 29 28  1  0  0  0  0
 29 16  1  0  0  0  0
 31 32  1  0  0  0  0
 32 37  1  0  0  0  0
 33 36  1  0  0  0  0
 34 31  1  0  0  0  0
 35 30  1  6  0  0  0
 35 34  1  0  0  0  0
 35 33  1  0  0  0  0
 36 32  2  0  0  0  0
 37 38  1  0  0  0  0
 39 40  1  6  0  0  0
 39  3  1  0  0  0  0
 41 40  1  0  0  0  0
 43 42  1  0  0  0  0
 43 39  1  0  0  0  0
M  END
>  <MODEL>
2

>  <REMARK>
 VINA RESULT:      -8.3      3.554      7.713
  Name = 
  14 active torsions:
  status: ('A' for Active; 'I' for Inactive)
    1  A    between atoms: N_1  and  C_34
    2  A    between atoms: N_1  and  C_35
    3  A    between atoms: C_2  and  N_6
    4  A    between atoms: C_2  and  C_13
    5  A    between atoms: C_3  and  C_4
    6  A    between atoms: C_3  and  C_12
    7  A    between atoms: C_3  and  O_42
    8  A    between atoms: C_4  and  C_22
    9  A    between atoms: C_5  and  C_16
   10  A    between atoms: C_5  and  C_18
   11  A    between atoms: C_5  and  N_23
   12  A    between atoms: C_14  and  C_41
   13  A    between atoms: C_19  and  C_25
   14  A    between atoms: C_22  and  C_41
                            x       y       z     vdW  Elec       q    Type
                         _______ _______ _______ _____ _____    ______ ____

>  <TORSDO>
F 14

$$$$
=
 OpenBabel10262422273D

 43 46  0  0  1  0  0  0  0  0999 V2000
  190.2190  177.3610  139.8470 C   0  0  0  0  0  0  0  0  0  0  0  0
  187.7360  177.4800  138.3400 C   0  0  0  0  0  0  0  0  0  0  0  0
  192.6140  176.3890  138.2160 C   0  0  0  0  0  0  0  0  0  0  0  0
  191.3620  176.3680  137.7930 C   0  0  0  0  0  3  0  0  0  0  0  0
  188.8250  176.4840  137.9210 C   0  0  0  0  0  2  0  0  0  0  0  0
  190.1680  177.0140  138.4220 C   0  0  0  0  0  0  0  0  0  0  0  0
  191.5660  177.3480  140.5410 C   0  0  0  0  0  3  0  0  0  0  0  0
  189.0480  178.0030  140.3990 C   0  0  1  0  0  3  0  0  0  0  0  0
  187.8640  178.1220  139.5020 C   0  0  0  0  0  3  0  0  0  0  0  0
  192.8320  177.0730  139.6470 C   0  0  0  0  0  3  0  0  0  0  0  0
  186.6230  177.7100  137.4200 C   0  0  2  0  0  3  0  0  0  0  0  0
  185.9640  178.8980  137.8260 O   0  0  0  0  0  1  0  0  0  0  0  0
  185.7320  176.5880  137.5080 N   0  0  0  0  0  2  0  0  0  0  0  0
  184.5320  176.3380  136.8180 C   0  0  0  0  0  0  0  0  0  0  0  0
  184.2160  177.0680  135.7960 O   0  0  0  0  0  0  0  0  0  0  0  0
  183.6420  175.2600  137.2370 C   0  0  2  0  0  3  0  0  0  0  0  0
  182.4540  175.7890  138.1060 C   0  0  1  0  0  3  0  0  0  0  0  0
  181.3350  174.9260  138.0460 O   0  0  0  0  0  1  0  0  0  0  0  0
  182.7380  176.2100  139.5390 C   0  0  0  0  0  2  0  0  0  0  0  0
  182.7410  177.7250  139.5690 C   0  0  0  0  0  2  0  0  0  0  0  0
  181.7930  178.2250  141.7360 O   0  0  0  0  0  0  0  0  0  0  0  0
  182.9280  178.2060  140.8910 C   0  0  1  0  0  3  0  0  0  0  0  0
  182.1390  178.8950  143.8840 C   0  0  0  0  0  2  0  0  0  0  0  0
  184.5180  178.2580  142.7870 C   0  0  0  0  0  2  0  0  0  0  0  0
  183.6100  179.1780  143.6720 C   0  0  0  0  0  2  0  0  0  0  0  0
  184.1710  178.3960  141.3480 C   0  0  0  0  0  2  0  0  0  0  0  0
  181.4540  179.2250  142.6250 C   0  0  0  0  0  2  0  0  0  0  0  0
  184.1270  173.1350  137.1600 C   0  0  0  0  0  1  0  0  0  0  0  0
  184.4230  174.3110  137.8700 O   0  0  0  0  0  0  0  0  0  0  0  0
  188.9940  178.4940  141.7480 N   0  0  0  0  0  2  0  0  0  0  0  0
  188.0240  177.2860  145.2530 C   0  0  0  0  0  2  0  0  0  0  0  0
  189.4040  177.3900  145.8600 C   0  0  0  0  0  0  0  0  0  0  0  0
  190.2850  178.4180  143.7100 C   0  0  0  0  0  2  0  0  0  0  0  0
  187.9110  177.8150  143.7990 C   0  0  0  0  0  2  0  0  0  0  0  0
  189.1790  177.7380  142.9490 C   0  0  1  0  0  3  0  0  0  0  0  0
  190.4360  177.8420  145.1600 C   0  0  0  0  0  3  0  0  0  0  0  0
  189.6390  176.8170  147.1970 C   0  0  0  0  0  2  0  0  0  0  0  0
  188.5350  176.3580  147.7820 F   0  0  0  0  0  0  0  0  0  0  0  0
  193.6990  175.8960  137.1920 C   0  0  1  0  0  3  0  0  0  0  0  0
  194.2970  174.4200  137.7740 C   0  0  0  0  0  2  0  0  0  0  0  0
  195.7420  174.1200  138.8610 S   0  0  0  0  0  1  0  0  0  0  0  0
  194.5910  176.8290  135.1540 O   0  0  0  0  0  1  0  0  0  0  0  0
  193.4970  176.1410  135.7660 N   0  0  0  0  0  2  0  0  0  0  0  0
  1  8  1  0  0  0  0
  1  7  1  0  0  0  0
  2  9  2  0  0  0  0
  3 10  1  0  0  0  0
  4  3  2  0  0  0  0
  4  6  1  0  0  0  0
  5  2  1  0  0  0  0
  5  6  1  0  0  0  0
  6  1  2  0  0  0  0
  8 30  1  1  0  0  0
  9  8  1  0  0  0  0
 10  7  2  0  0  0  0
 11 13  1  0  0  0  0
 11 12  1  1  0  0  0
 11  2  1  0  0  0  0
 14 13  1  0  0  0  0
 15 14  2  0  0  0  0
 16 14  1  1  0  0  0
 16 29  1  0  0  0  0
 16 17  1  0  0  0  0
 17 18  1  1  0  0  0
 17 19  1  0  0  0  0
 19 20  1  0  0  0  0
 21 27  1  0  0  0  0
 22 20  1  1  0  0  0
 22 26  1  0  0  0  0
 22 21  1  0  0  0  0
 24 25  1  0  0  0  0
 25 23  1  0  0  0  0
 26 24  1  0  0  0  0
 27 23  1  0  0  0  0
 28 29  1  0  0  0  0
 31 32  1  0  0  0  0
 32 37  1  0  0  0  0
 33 36  1  0  0  0  0
 34 31  1  0  0  0  0
 35 30  1  6  0  0  0
 35 33  1  0  0  0  0
 35 34  1  0  0  0  0
 36 32  2  0  0  0  0
 37 38  1  0  0  0  0
 39 40  1  6  0  0  0
 39  3  1  0  0  0  0
 40 41  1  0  0  0  0
 42 43  1  0  0  0  0
 43 39  1  0  0  0  0
M  END
>  <MODEL>
3

>  <REMARK>
 VINA RESULT:      -8.3      3.306      7.965
  Name = 
  14 active torsions:
  status: ('A' for Active; 'I' for Inactive)
    1  A    between atoms: N_1  and  C_34
    2  A    between atoms: N_1  and  C_35
    3  A    between atoms: C_2  and  N_6
    4  A    between atoms: C_2  and  C_13
    5  A    between atoms: C_3  and  C_4
    6  A    between atoms: C_3  and  C_12
    7  A    between atoms: C_3  and  O_42
    8  A    between atoms: C_4  and  C_22
    9  A    between atoms: C_5  and  C_16
   10  A    between atoms: C_5  and  C_18
   11  A    between atoms: C_5  and  N_23
   12  A    between atoms: C_14  and  C_41
   13  A    between atoms: C_19  and  C_25
   14  A    between atoms: C_22  and  C_41
                            x       y       z     vdW  Elec       q    Type
                         _______ _______ _______ _____ _____    ______ ____

>  <TORSDO>
F 14

$$$$
=
 OpenBabel10262422273D

 43 46  0  0  1  0  0  0  0  0999 V2000
  185.4090  178.6100  143.4740 C   0  0  0  0  0  0  0  0  0  0  0  0
  187.2220  178.3080  141.2230 C   0  0  0  0  0  0  0  0  0  0  0  0
  182.4710  178.8710  142.6740 C   0  0  0  0  0  0  0  0  0  0  0  0
  183.4830  178.8890  141.8240 C   0  0  0  0  0  3  0  0  0  0  0  0
  185.8920  179.0460  141.0250 C   0  0  0  0  0  2  0  0  0  0  0  0
  184.9160  178.5540  142.0930 C   0  0  0  0  0  0  0  0  0  0  0  0
  184.3930  178.6910  144.5960 C   0  0  0  0  0  3  0  0  0  0  0  0
  186.7940  178.2560  143.6820 C   0  0  1  0  0  3  0  0  0  0  0  0
  187.6110  178.0020  142.4620 C   0  0  0  0  0  3  0  0  0  0  0  0
  182.8730  178.5910  144.1970 C   0  0  0  0  0  3  0  0  0  0  0  0
  187.9870  177.9360  140.0340 C   0  0  2  0  0  3  0  0  0  0  0  0
  189.0330  178.8800  139.8780 O   0  0  0  0  0  1  0  0  0  0  0  0
  187.1020  177.9770  138.9040 N   0  0  0  0  0  2  0  0  0  0  0  0
  187.0960  177.1890  137.7380 C   0  0  0  0  0  0  0  0  0  0  0  0
  187.8260  176.1200  137.6840 O   0  0  0  0  0  0  0  0  0  0  0  0
  186.2720  177.5590  136.5930 C   0  0  2  0  0  3  0  0  0  0  0  0
  184.7700  177.1810  136.8080 C   0  0  1  0  0  3  0  0  0  0  0  0
  184.5810  175.7810  136.8500 O   0  0  0  0  0  1  0  0  0  0  0  0
  184.0060  177.8650  137.9320 C   0  0  0  0  0  2  0  0  0  0  0  0
  182.5320  177.7730  137.5940 C   0  0  0  0  0  2  0  0  0  0  0  0
  180.8770  179.2400  136.6200 O   0  0  0  0  0  0  0  0  0  0  0  0
  181.9440  179.0620  137.5330 C   0  0  1  0  0  3  0  0  0  0  0  0
  179.8750  181.2840  136.6180 C   0  0  0  0  0  2  0  0  0  0  0  0
  181.2950  181.0240  138.8940 C   0  0  0  0  0  2  0  0  0  0  0  0
  180.8040  181.8600  137.6640 C   0  0  0  0  0  2  0  0  0  0  0  0
  182.2490  179.9660  138.4700 C   0  0  0  0  0  2  0  0  0  0  0  0
  180.6670  180.3410  135.8140 C   0  0  0  0  0  2  0  0  0  0  0  0
  186.9880  178.0630  134.5950 C   0  0  0  0  0  1  0  0  0  0  0  0
  186.8440  176.9770  135.4760 O   0  0  0  0  0  0  0  0  0  0  0  0
  187.3850  178.1630  144.9880 N   0  0  0  0  0  2  0  0  0  0  0  0
  189.7930  176.6090  147.5330 C   0  0  0  0  0  2  0  0  0  0  0  0
  191.0100  176.6060  146.6400 C   0  0  0  0  0  0  0  0  0  0  0  0
  189.7070  177.8350  144.8380 C   0  0  0  0  0  2  0  0  0  0  0  0
  188.5410  177.2970  146.9260 C   0  0  0  0  0  2  0  0  0  0  0  0
  188.4290  177.2760  145.4020 C   0  0  1  0  0  3  0  0  0  0  0  0
  190.9690  177.1000  145.4090 C   0  0  0  0  0  3  0  0  0  0  0  0
  192.2170  175.8840  147.0820 C   0  0  0  0  0  2  0  0  0  0  0  0
  192.5770  176.1650  148.3320 F   0  0  0  0  0  0  0  0  0  0  0  0
  181.0350  178.9610  142.0420 C   0  0  1  0  0  3  0  0  0  0  0  0
  180.8520  177.6130  141.0300 C   0  0  0  0  0  2  0  0  0  0  0  0
  179.4720  177.2130  139.8930 S   0  0  0  0  0  1  0  0  0  0  0  0
  179.9420  180.9050  142.9620 O   0  0  0  0  0  1  0  0  0  0  0  0
  179.9320  179.4790  142.8480 N   0  0  0  0  0  2  0  0  0  0  0  0
  1  8  1  0  0  0  0
  1  7  1  0  0  0  0
  2  9  2  0  0  0  0
  3 10  1  0  0  0  0
  4  6  1  0  0  0  0
  4  3  2  0  0  0  0
  5  2  1  0  0  0  0
  5  6  1  0  0  0  0
  6  1  2  0  0  0  0
  8 30  1  6  0  0  0
  9  8  1  0  0  0  0
 10  7  2  0  0  0  0
 11 12  1  6  0  0  0
 11  2  1  0  0  0  0
 13 11  1  0  0  0  0
 14 13  1  0  0  0  0
 15 14  2  0  0  0  0
 16 29  1  6  0  0  0
 16 17  1  0  0  0  0
 16 14  1  0  0  0  0
 17 18  1  1  0  0  0
 17 19  1  0  0  0  0
 20 19  1  0  0  0  0
 21 22  1  0  0  0  0
 22 20  1  1  0  0  0
 22 26  1  0  0  0  0
 23 25  1  0  0  0  0
 25 24  1  0  0  0  0
 26 24  1  0  0  0  0
 27 23  1  0  0  0  0
 27 21  1  0  0  0  0
 28 29  1  0  0  0  0
 32 37  1  0  0  0  0
 32 31  1  0  0  0  0
 33 35  1  0  0  0  0
 33 36  1  0  0  0  0
 34 31  1  0  0  0  0
 35 30  1  1  0  0  0
 35 34  1  0  0  0  0
 36 32  2  0  0  0  0
 37 38  1  0  0  0  0
 39 40  1  1  0  0  0
 39  3  1  0  0  0  0
 39 43  1  0  0  0  0
 41 40  1  0  0  0  0
 43 42  1  0  0  0  0
M  END
>  <MODEL>
4

>  <REMARK>
 VINA RESULT:      -8.0      3.281      7.605
  Name = 
  14 active torsions:
  status: ('A' for Active; 'I' for Inactive)
    1  A    between atoms: N_1  and  C_34
    2  A    between atoms: N_1  and  C_35
    3  A    between atoms: C_2  and  N_6
    4  A    between atoms: C_2  and  C_13
    5  A    between atoms: C_3  and  C_4
    6  A    between atoms: C_3  and  C_12
    7  A    between atoms: C_3  and  O_42
    8  A    between atoms: C_4  and  C_22
    9  A    between atoms: C_5  and  C_16
   10  A    between atoms: C_5  and  C_18
   11  A    between atoms: C_5  and  N_23
   12  A    between atoms: C_14  and  C_41
   13  A    between atoms: C_19  and  C_25
   14  A    between atoms: C_22  and  C_41
                            x       y       z     vdW  Elec       q    Type
                         _______ _______ _______ _____ _____    ______ ____

>  <TORSDO>
F 14

$$$$
=
 OpenBabel10262422273D

 43 46  0  0  1  0  0  0  0  0999 V2000
  186.9850  177.9920  142.5040 C   0  0  0  0  0  0  0  0  0  0  0  0
  188.5230  178.1210  140.0410 C   0  0  0  0  0  0  0  0  0  0  0  0
  188.6810  177.5170  145.0010 C   0  0  0  0  0  0  0  0  0  0  0  0
  189.1370  177.4490  143.7630 C   0  0  0  0  0  3  0  0  0  0  0  0
  189.0630  177.3090  141.2250 C   0  0  0  0  0  2  0  0  0  0  0  0
  188.4480  177.8730  142.5040 C   0  0  0  0  0  0  0  0  0  0  0  0
  186.2640  177.9920  143.8370 C   0  0  0  0  0  3  0  0  0  0  0  0
  186.3720  178.4260  141.2700 C   0  0  1  0  0  3  0  0  0  0  0  0
  187.2710  178.5790  140.0920 C   0  0  0  0  0  3  0  0  0  0  0  0
  187.1550  177.9810  145.1350 C   0  0  0  0  0  3  0  0  0  0  0  0
  189.4250  178.3920  138.9230 C   0  0  2  0  0  3  0  0  0  0  0  0
  188.7860  179.3220  138.0650 O   0  0  0  0  0  1  0  0  0  0  0  0
  189.6640  177.1560  138.2320 N   0  0  0  0  0  2  0  0  0  0  0  0
  190.8500  176.4090  138.1120 C   0  0  0  0  0  0  0  0  0  0  0  0
  191.8660  176.6940  138.8630 O   0  0  0  0  0  0  0  0  0  0  0  0
  190.9470  175.3140  137.1530 C   0  0  2  0  0  3  0  0  0  0  0  0
  189.5560  174.9540  136.5350 C   0  0  1  0  0  3  0  0  0  0  0  0
  189.5630  175.0650  135.1260 O   0  0  0  0  0  1  0  0  0  0  0  0
  188.8820  173.6630  136.9740 C   0  0  0  0  0  2  0  0  0  0  0  0
  187.6880  173.4490  136.0660 C   0  0  0  0  0  2  0  0  0  0  0  0
  186.1290  175.2940  136.1600 O   0  0  0  0  0  0  0  0  0  0  0  0
  186.5150  174.0160  136.6280 C   0  0  1  0  0  3  0  0  0  0  0  0
  184.1840  176.1340  136.9920 C   0  0  0  0  0  2  0  0  0  0  0  0
  184.2490  173.4820  137.4680 C   0  0  0  0  0  2  0  0  0  0  0  0
  183.9390  174.9530  137.9060 C   0  0  0  0  0  2  0  0  0  0  0  0
  185.7150  173.2510  137.3800 C   0  0  0  0  0  2  0  0  0  0  0  0
  185.6390  176.3320  136.9280 C   0  0  0  0  0  2  0  0  0  0  0  0
  192.5870  173.8960  136.9090 C   0  0  0  0  0  1  0  0  0  0  0  0
  191.5640  174.2590  137.8020 O   0  0  0  0  0  0  0  0  0  0  0  0
  184.9640  178.6890  141.1520 N   0  0  0  0  0  2  0  0  0  0  0  0
  182.5000  179.3470  138.2920 C   0  0  0  0  0  2  0  0  0  0  0  0
  181.5500  178.2190  138.6190 C   0  0  0  0  0  0  0  0  0  0  0  0
  182.8840  177.6860  140.7140 C   0  0  0  0  0  2  0  0  0  0  0  0
  183.6500  179.5470  139.3140 C   0  0  0  0  0  2  0  0  0  0  0  0
  184.1010  178.3020  140.0780 C   0  0  1  0  0  3  0  0  0  0  0  0
  181.7440  177.4320  139.6690 C   0  0  0  0  0  3  0  0  0  0  0  0
  180.4870  177.8800  137.6550 C   0  0  0  0  0  2  0  0  0  0  0  0
  179.8540  178.9430  137.1660 F   0  0  0  0  0  0  0  0  0  0  0  0
  189.7400  177.2960  146.1410 C   0  0  1  0  0  3  0  0  0  0  0  0
  188.8800  176.8930  147.5460 C   0  0  0  0  0  2  0  0  0  0  0  0
  188.1350  178.0120  148.7920 S   0  0  0  0  0  1  0  0  0  0  0  0
  192.0070  176.8510  146.8350 O   0  0  0  0  0  1  0  0  0  0  0  0
  191.0210  176.6760  145.8140 N   0  0  0  0  0  2  0  0  0  0  0  0
  1  7  1  0  0  0  0
  2  9  2  0  0  0  0
  2  5  1  0  0  0  0
  3 10  1  0  0  0  0
  3 39  1  0  0  0  0
  4  3  2  0  0  0  0
  5  6  1  0  0  0  0
  6  1  2  0  0  0  0
  6  4  1  0  0  0  0
  7 10  2  0  0  0  0
  8 30  1  6  0  0  0
  8  1  1  0  0  0  0
  9  8  1  0  0  0  0
 11 12  1  6  0  0  0
 11  2  1  0  0  0  0
 13 11  1  0  0  0  0
 14 13  1  0  0  0  0
 14 15  2  0  0  0  0
 16 29  1  1  0  0  0
 16 14  1  0  0  0  0
 17 18  1  6  0  0  0
 17 19  1  0  0  0  0
 17 16  1  0  0  0  0
 20 19  1  0  0  0  0
 21 22  1  0  0  0  0
 21 27  1  0  0  0  0
 22 20  1  6  0  0  0
 22 26  1  0  0  0  0
 23 25  1  0  0  0  0
 24 25  1  0  0  0  0
 26 24  1  0  0  0  0
 27 23  1  0  0  0  0
 28 29  1  0  0  0  0
 31 32  1  0  0  0  0
 31 34  1  0  0  0  0
 32 36  2  0  0  0  0
 34 35  1  0  0  0  0
 35 33  1  0  0  0  0
 35 30  1  1  0  0  0
 36 33  1  0  0  0  0
 37 32  1  0  0  0  0
 38 37  1  0  0  0  0
 39 40  1  1  0  0  0
 40 41  1  0  0  0  0
 43 39  1  0  0  0  0
 43 42  1  0  0  0  0
M  END
>  <MODEL>
5

>  <REMARK>
 VINA RESULT:      -7.8      3.708      8.194
  Name = 
  14 active torsions:
  status: ('A' for Active; 'I' for Inactive)
    1  A    between atoms: N_1  and  C_34
    2  A    between atoms: N_1  and  C_35
    3  A    between atoms: C_2  and  N_6
    4  A    between atoms: C_2  and  C_13
    5  A    between atoms: C_3  and  C_4
    6  A    between atoms: C_3  and  C_12
    7  A    between atoms: C_3  and  O_42
    8  A    between atoms: C_4  and  C_22
    9  A    between atoms: C_5  and  C_16
   10  A    between atoms: C_5  and  C_18
   11  A    between atoms: C_5  and  N_23
   12  A    between atoms: C_14  and  C_41
   13  A    between atoms: C_19  and  C_25
   14  A    between atoms: C_22  and  C_41
                            x       y       z     vdW  Elec       q    Type
                         _______ _______ _______ _____ _____    ______ ____

>  <TORSDO>
F 14

$$$$
=
 OpenBabel10262422273D

 43 46  0  0  1  0  0  0  0  0999 V2000
  190.5680  177.4140  139.9710 C   0  0  0  0  0  0  0  0  0  0  0  0
  188.0320  177.6070  138.5650 C   0  0  0  0  0  0  0  0  0  0  0  0
  192.8720  176.3990  138.2380 C   0  0  0  0  0  0  0  0  0  0  0  0
  191.6050  176.4130  137.8650 C   0  0  0  0  0  3  0  0  0  0  0  0
  189.0780  176.5890  138.0950 C   0  0  0  0  0  2  0  0  0  0  0  0
  190.4530  177.0810  138.5460 C   0  0  0  0  0  0  0  0  0  0  0  0
  191.9410  177.3620  140.6100 C   0  0  0  0  0  3  0  0  0  0  0  0
  189.4360  178.0790  140.5740 C   0  0  1  0  0  3  0  0  0  0  0  0
  188.2210  178.2360  139.7260 C   0  0  0  0  0  3  0  0  0  0  0  0
  193.1640  177.0640  139.6640 C   0  0  0  0  0  3  0  0  0  0  0  0
  186.8890  177.8730  137.6920 C   0  0  2  0  0  3  0  0  0  0  0  0
  187.2050  179.0040  136.8980 O   0  0  0  0  0  1  0  0  0  0  0  0
  185.7490  178.1440  138.5210 N   0  0  0  0  0  2  0  0  0  0  0  0
  184.3770  178.0520  138.2190 C   0  0  0  0  0  0  0  0  0  0  0  0
  183.9980  177.4520  137.1350 O   0  0  0  0  0  0  0  0  0  0  0  0
  183.3770  178.6180  139.1170 C   0  0  2  0  0  3  0  0  0  0  0  0
  182.3000  179.4480  138.3440 C   0  0  1  0  0  3  0  0  0  0  0  0
  181.0570  178.7760  138.2930 O   0  0  0  0  0  1  0  0  0  0  0  0
  182.1120  180.9110  138.7150 C   0  0  0  0  0  2  0  0  0  0  0  0
  180.6670  181.2640  138.4270 C   0  0  0  0  0  2  0  0  0  0  0  0
  181.2300  183.4530  137.5690 O   0  0  0  0  0  0  0  0  0  0  0  0
  180.5760  182.2120  137.3760 C   0  0  1  0  0  3  0  0  0  0  0  0
  181.1660  184.9150  135.8260 C   0  0  0  0  0  2  0  0  0  0  0  0
  180.5270  182.4600  134.9130 C   0  0  0  0  0  2  0  0  0  0  0  0
  180.3160  184.0110  134.9590 C   0  0  0  0  0  2  0  0  0  0  0  0
  180.0950  181.8280  136.1880 C   0  0  0  0  0  2  0  0  0  0  0  0
  180.7430  184.6960  137.2160 C   0  0  0  0  0  2  0  0  0  0  0  0
  183.5640  178.8050  141.2830 C   0  0  0  0  0  1  0  0  0  0  0  0
  184.0580  179.3400  140.0810 O   0  0  0  0  0  0  0  0  0  0  0  0
  189.4480  178.5590  141.9280 N   0  0  0  0  0  2  0  0  0  0  0  0
  187.7610  177.3210  145.1390 C   0  0  0  0  0  2  0  0  0  0  0  0
  188.9940  177.3630  146.0090 C   0  0  0  0  0  0  0  0  0  0  0  0
  190.3190  178.3980  144.1050 C   0  0  0  0  0  2  0  0  0  0  0  0
  187.9570  177.8820  143.7050 C   0  0  0  0  0  2  0  0  0  0  0  0
  189.3650  177.7750  143.1230 C   0  0  1  0  0  3  0  0  0  0  0  0
  190.1590  177.7900  145.5410 C   0  0  0  0  0  3  0  0  0  0  0  0
  188.9390  176.7560  147.3520 C   0  0  0  0  0  2  0  0  0  0  0  0
  188.8550  177.6480  148.3360 F   0  0  0  0  0  0  0  0  0  0  0  0
  193.9040  175.8890  137.1670 C   0  0  1  0  0  3  0  0  0  0  0  0
  193.8710  174.1950  137.2150 C   0  0  0  0  0  2  0  0  0  0  0  0
  192.6740  173.0510  136.4320 S   0  0  0  0  0  1  0  0  0  0  0  0
  195.2950  177.3310  135.8240 O   0  0  0  0  0  1  0  0  0  0  0  0
  194.0540  176.6260  135.9150 N   0  0  0  0  0  2  0  0  0  0  0  0
  1  8  1  0  0  0  0
  1  7  1  0  0  0  0
  2  9  2  0  0  0  0
  3 10  1  0  0  0  0
  4  3  2  0  0  0  0
  4  6  1  0  0  0  0
  5  6  1  0  0  0  0
  5  2  1  0  0  0  0
  6  1  2  0  0  0  0
  8 30  1  1  0  0  0
  9  8  1  0  0  0  0
 10  7  2  0  0  0  0
 11 12  1  6  0  0  0
 11 13  1  0  0  0  0
 11  2  1  0  0  0  0
 14 13  1  0  0  0  0
 15 14  2  0  0  0  0
 16 14  1  6  0  0  0
 16 29  1  0  0  0  0
 17 18  1  1  0  0  0
 17 19  1  0  0  0  0
 17 16  1  0  0  0  0
 20 19  1  0  0  0  0
 22 21  1  0  0  0  0
 22 20  1  6  0  0  0
 23 27  1  0  0  0  0
 24 25  1  0  0  0  0
 24 26  1  0  0  0  0
 25 23  1  0  0  0  0
 26 22  1  0  0  0  0
 27 21  1  0  0  0  0
 29 28  1  0  0  0  0
 31 32  1  0  0  0  0
 32 37  1  0  0  0  0
 33 36  1  0  0  0  0
 34 31  1  0  0  0  0
 35 30  1  6  0  0  0
 35 34  1  0  0  0  0
 35 33  1  0  0  0  0
 36 32  2  0  0  0  0
 37 38  1  0  0  0  0
 39 40  1  6  0  0  0
 39  3  1  0  0  0  0
 41 40  1  0  0  0  0
 42 43  1  0  0  0  0
 43 39  1  0  0  0  0
M  END
>  <MODEL>
6

>  <REMARK>
 VINA RESULT:      -7.7      4.110      9.496
  Name = 
  14 active torsions:
  status: ('A' for Active; 'I' for Inactive)
    1  A    between atoms: N_1  and  C_34
    2  A    between atoms: N_1  and  C_35
    3  A    between atoms: C_2  and  N_6
    4  A    between atoms: C_2  and  C_13
    5  A    between atoms: C_3  and  C_4
    6  A    between atoms: C_3  and  C_12
    7  A    between atoms: C_3  and  O_42
    8  A    between atoms: C_4  and  C_22
    9  A    between atoms: C_5  and  C_16
   10  A    between atoms: C_5  and  C_18
   11  A    between atoms: C_5  and  N_23
   12  A    between atoms: C_14  and  C_41
   13  A    between atoms: C_19  and  C_25
   14  A    between atoms: C_22  and  C_41
                            x       y       z     vdW  Elec       q    Type
                         _______ _______ _______ _____ _____    ______ ____

>  <TORSDO>
F 14

$$$$
=
 OpenBabel10262422273D

 43 46  0  0  1  0  0  0  0  0999 V2000
  186.6430  178.1120  143.2880 C   0  0  0  0  0  0  0  0  0  0  0  0
  188.3190  177.9570  140.9190 C   0  0  0  0  0  0  0  0  0  0  0  0
  188.1420  177.6100  145.9040 C   0  0  0  0  0  0  0  0  0  0  0  0
  188.6570  177.4310  144.7000 C   0  0  0  0  0  3  0  0  0  0  0  0
  188.7090  177.1620  142.1720 C   0  0  0  0  0  2  0  0  0  0  0  0
  188.0840  177.8520  143.3830 C   0  0  0  0  0  0  0  0  0  0  0  0
  185.8530  178.2540  144.5740 C   0  0  0  0  0  3  0  0  0  0  0  0
  186.1450  178.5360  142.0000 C   0  0  1  0  0  3  0  0  0  0  0  0
  187.1190  178.5360  140.8720 C   0  0  0  0  0  3  0  0  0  0  0  0
  186.6650  178.2270  145.9230 C   0  0  0  0  0  3  0  0  0  0  0  0
  189.3050  178.0780  139.8460 C   0  0  2  0  0  3  0  0  0  0  0  0
  189.0520  179.2930  139.1610 O   0  0  0  0  0  1  0  0  0  0  0  0
  189.1400  176.9600  138.9610 N   0  0  0  0  0  2  0  0  0  0  0  0
  190.0460  176.4020  138.0400 C   0  0  0  0  0  0  0  0  0  0  0  0
  191.2920  176.7530  138.0740 O   0  0  0  0  0  0  0  0  0  0  0  0
  189.5980  175.4280  137.0510 C   0  0  2  0  0  3  0  0  0  0  0  0
  188.1230  175.6890  136.6000 C   0  0  1  0  0  3  0  0  0  0  0  0
  188.0370  175.9600  135.2160 O   0  0  0  0  0  1  0  0  0  0  0  0
  187.0510  174.6970  137.0270 C   0  0  0  0  0  2  0  0  0  0  0  0
  185.7090  175.3400  136.7470 C   0  0  0  0  0  2  0  0  0  0  0  0
  185.0620  173.0150  136.8810 O   0  0  0  0  0  0  0  0  0  0  0  0
  184.6830  174.3630  136.6770 C   0  0  1  0  0  3  0  0  0  0  0  0
  183.3840  171.4780  136.8750 C   0  0  0  0  0  2  0  0  0  0  0  0
  182.3070  173.9250  137.2170 C   0  0  0  0  0  2  0  0  0  0  0  0
  182.3060  172.4970  136.5750 C   0  0  0  0  0  2  0  0  0  0  0  0
  183.4040  174.7580  136.6570 C   0  0  0  0  0  2  0  0  0  0  0  0
  184.5990  171.9220  136.1770 C   0  0  0  0  0  2  0  0  0  0  0  0
  190.7300  173.5960  136.7040 C   0  0  0  0  0  1  0  0  0  0  0  0
  189.8070  174.1730  137.5930 O   0  0  0  0  0  0  0  0  0  0  0  0
  184.7790  178.9280  141.7850 N   0  0  0  0  0  2  0  0  0  0  0  0
  182.3960  177.0000  139.4850 C   0  0  0  0  0  2  0  0  0  0  0  0
  181.1250  177.3500  140.2210 C   0  0  0  0  0  0  0  0  0  0  0  0
  182.4300  178.8780  141.7750 C   0  0  0  0  0  2  0  0  0  0  0  0
  183.6730  177.6990  140.0220 C   0  0  0  0  0  2  0  0  0  0  0  0
  183.6690  178.0690  141.5050 C   0  0  1  0  0  3  0  0  0  0  0  0
  181.1350  178.1450  141.2830 C   0  0  0  0  0  3  0  0  0  0  0  0
  179.8760  176.6580  139.8540 C   0  0  0  0  0  2  0  0  0  0  0  0
  180.0560  175.6470  139.0080 F   0  0  0  0  0  0  0  0  0  0  0  0
  189.1080  177.3490  147.1150 C   0  0  1  0  0  3  0  0  0  0  0  0
  190.6020  176.8800  146.4660 C   0  0  0  0  0  2  0  0  0  0  0  0
  191.9700  175.9710  147.2800 S   0  0  0  0  0  1  0  0  0  0  0  0
  187.9320  177.8320  149.1650 O   0  0  0  0  0  1  0  0  0  0  0  0
  189.0110  178.1970  148.3010 N   0  0  0  0  0  2  0  0  0  0  0  0
  1  6  2  0  0  0  0
  1  7  1  0  0  0  0
  2  5  1  0  0  0  0
  3 10  1  0  0  0  0
  3 39  1  0  0  0  0
  4  3  2  0  0  0  0
  5  6  1  0  0  0  0
  6  4  1  0  0  0  0
  7 10  2  0  0  0  0
  8 30  1  6  0  0  0
  8  1  1  0  0  0  0
  9  2  2  0  0  0  0
  9  8  1  0  0  0  0
 11 12  1  6  0  0  0
 11  2  1  0  0  0  0
 13 11  1  0  0  0  0
 14 15  2  0  0  0  0
 14 13  1  0  0  0  0
 16 29  1  1  0  0  0
 16 14  1  0  0  0  0
 17 18  1  6  0  0  0
 17 19  1  0  0  0  0
 17 16  1  0  0  0  0
 20 19  1  0  0  0  0
 22 20  1  1  0  0  0
 22 21  1  0  0  0  0
 25 23  1  0  0  0  0
 25 24  1  0  0  0  0
 26 22  1  0  0  0  0
 26 24  1  0  0  0  0
 27 23  1  0  0  0  0
 27 21  1  0  0  0  0
 28 29  1  0  0  0  0
 31 34  1  0  0  0  0
 31 32  1  0  0  0  0
 32 36  2  0  0  0  0
 34 35  1  0  0  0  0
 35 33  1  0  0  0  0
 35 30  1  6  0  0  0
 36 33  1  0  0  0  0
 37 32  1  0  0  0  0
 38 37  1  0  0  0  0
 39 40  1  6  0  0  0
 39 43  1  0  0  0  0
 40 41  1  0  0  0  0
 43 42  1  0  0  0  0
M  END
>  <MODEL>
7

>  <REMARK>
 VINA RESULT:      -7.6      3.593      8.431
  Name = 
  14 active torsions:
  status: ('A' for Active; 'I' for Inactive)
    1  A    between atoms: N_1  and  C_34
    2  A    between atoms: N_1  and  C_35
    3  A    between atoms: C_2  and  N_6
    4  A    between atoms: C_2  and  C_13
    5  A    between atoms: C_3  and  C_4
    6  A    between atoms: C_3  and  C_12
    7  A    between atoms: C_3  and  O_42
    8  A    between atoms: C_4  and  C_22
    9  A    between atoms: C_5  and  C_16
   10  A    between atoms: C_5  and  C_18
   11  A    between atoms: C_5  and  N_23
   12  A    between atoms: C_14  and  C_41
   13  A    between atoms: C_19  and  C_25
   14  A    between atoms: C_22  and  C_41
                            x       y       z     vdW  Elec       q    Type
                         _______ _______ _______ _____ _____    ______ ____

>  <TORSDO>
F 14

$$$$
=
 OpenBabel10262422273D

 43 46  0  0  1  0  0  0  0  0999 V2000
  187.7270  178.2570  143.0050 C   0  0  0  0  0  0  0  0  0  0  0  0
  184.9170  178.9990  143.0250 C   0  0  0  0  0  0  0  0  0  0  0  0
  188.7570  177.2250  145.6910 C   0  0  0  0  0  0  0  0  0  0  0  0
  187.5680  177.7700  145.5050 C   0  0  0  0  0  3  0  0  0  0  0  0
  185.7240  179.0680  144.3280 C   0  0  0  0  0  2  0  0  0  0  0  0
  186.9000  178.1000  144.2070 C   0  0  0  0  0  0  0  0  0  0  0  0
  189.1630  177.7750  143.0540 C   0  0  0  0  0  3  0  0  0  0  0  0
  187.0310  178.5530  141.7740 C   0  0  1  0  0  3  0  0  0  0  0  0
  185.5650  178.7990  141.8770 C   0  0  0  0  0  3  0  0  0  0  0  0
  189.6280  177.0320  144.3620 C   0  0  0  0  0  3  0  0  0  0  0  0
  183.4620  179.1140  143.1100 C   0  0  2  0  0  3  0  0  0  0  0  0
  183.0190  178.2530  144.1450 O   0  0  0  0  0  1  0  0  0  0  0  0
  182.9080  178.7090  141.8490 N   0  0  0  0  0  2  0  0  0  0  0  0
  181.6080  178.8870  141.3410 C   0  0  0  0  0  0  0  0  0  0  0  0
  180.7910  179.6930  141.9390 O   0  0  0  0  0  0  0  0  0  0  0  0
  181.1730  178.1760  140.1430 C   0  0  2  0  0  3  0  0  0  0  0  0
  181.8910  178.7030  138.8580 C   0  0  1  0  0  3  0  0  0  0  0  0
  182.3810  177.6450  138.0590 O   0  0  0  0  0  1  0  0  0  0  0  0
  181.1770  179.7410  138.0060 C   0  0  0  0  0  2  0  0  0  0  0  0
  181.6560  181.1030  138.4630 C   0  0  0  0  0  2  0  0  0  0  0  0
  181.8580  183.3440  137.5790 O   0  0  0  0  0  0  0  0  0  0  0  0
  181.1330  182.1300  137.6360 C   0  0  1  0  0  3  0  0  0  0  0  0
  181.0600  184.9350  136.1610 C   0  0  0  0  0  2  0  0  0  0  0  0
  179.9590  182.5650  135.5010 C   0  0  0  0  0  2  0  0  0  0  0  0
  179.8650  184.1110  135.7350 C   0  0  0  0  0  2  0  0  0  0  0  0
  180.1380  181.8430  136.7880 C   0  0  0  0  0  2  0  0  0  0  0  0
  181.3210  184.6160  137.5720 C   0  0  0  0  0  2  0  0  0  0  0  0
  179.3840  176.9320  140.2520 C   0  0  0  0  0  1  0  0  0  0  0  0
  179.7940  178.2670  140.0950 O   0  0  0  0  0  0  0  0  0  0  0  0
  187.6970  178.6290  140.5030 N   0  0  0  0  0  2  0  0  0  0  0  0
  190.1350  176.5900  138.3620 C   0  0  0  0  0  2  0  0  0  0  0  0
  189.1810  176.3200  137.2230 C   0  0  0  0  0  0  0  0  0  0  0  0
  187.4330  177.8020  138.3190 C   0  0  0  0  0  2  0  0  0  0  0  0
  189.5840  177.5340  139.4640 C   0  0  0  0  0  2  0  0  0  0  0  0
  188.0680  177.5360  139.6570 C   0  0  1  0  0  3  0  0  0  0  0  0
  187.9480  176.8110  137.2200 C   0  0  0  0  0  3  0  0  0  0  0  0
  189.5700  175.3530  136.1810 C   0  0  0  0  0  2  0  0  0  0  0  0
  190.6460  175.7200  135.4900 F   0  0  0  0  0  0  0  0  0  0  0  0
  189.0620  176.7080  147.1430 C   0  0  1  0  0  3  0  0  0  0  0  0
  190.7260  176.9010  147.4010 C   0  0  0  0  0  2  0  0  0  0  0  0
  192.0500  175.6370  147.3300 S   0  0  0  0  0  1  0  0  0  0  0  0
  188.2090  178.2250  148.8140 O   0  0  0  0  0  1  0  0  0  0  0  0
  188.0820  176.9380  148.2020 N   0  0  0  0  0  2  0  0  0  0  0  0
  1  7  2  0  0  0  0
  1  6  1  0  0  0  0
  2 11  1  0  0  0  0
  2  5  1  0  0  0  0
  3 39  1  0  0  0  0
  4  3  1  0  0  0  0
  6  5  1  0  0  0  0
  6  4  2  0  0  0  0
  7 10  1  0  0  0  0
  8 30  1  1  0  0  0
  8  9  1  0  0  0  0
  8  1  1  0  0  0  0
  9  2  2  0  0  0  0
 10  3  2  0  0  0  0
 11 12  1  1  0  0  0
 13 11  1  0  0  0  0
 14 13  1  0  0  0  0
 14 15  2  0  0  0  0
 16 29  1  6  0  0  0
 16 14  1  0  0  0  0
 17 18  1  6  0  0  0
 17 16  1  0  0  0  0
 19 20  1  0  0  0  0
 19 17  1  0  0  0  0
 21 22  1  0  0  0  0
 22 20  1  6  0  0  0
 23 27  1  0  0  0  0
 24 25  1  0  0  0  0
 24 26  1  0  0  0  0
 25 23  1  0  0  0  0
 26 22  1  0  0  0  0
 27 21  1  0  0  0  0
 29 28  1  0  0  0  0
 31 34  1  0  0  0  0
 32 31  1  0  0  0  0
 33 35  1  0  0  0  0
 34 35  1  0  0  0  0
 35 30  1  1  0  0  0
 36 32  2  0  0  0  0
 36 33  1  0  0  0  0
 37 32  1  0  0  0  0
 38 37  1  0  0  0  0
 39 40  1  1  0  0  0
 39 43  1  0  0  0  0
 41 40  1  0  0  0  0
 43 42  1  0  0  0  0
M  END
>  <MODEL>
8

>  <REMARK>
 VINA RESULT:      -7.6      5.052     10.536
  Name = 
  14 active torsions:
  status: ('A' for Active; 'I' for Inactive)
    1  A    between atoms: N_1  and  C_34
    2  A    between atoms: N_1  and  C_35
    3  A    between atoms: C_2  and  N_6
    4  A    between atoms: C_2  and  C_13
    5  A    between atoms: C_3  and  C_4
    6  A    between atoms: C_3  and  C_12
    7  A    between atoms: C_3  and  O_42
    8  A    between atoms: C_4  and  C_22
    9  A    between atoms: C_5  and  C_16
   10  A    between atoms: C_5  and  C_18
   11  A    between atoms: C_5  and  N_23
   12  A    between atoms: C_14  and  C_41
   13  A    between atoms: C_19  and  C_25
   14  A    between atoms: C_22  and  C_41
                            x       y       z     vdW  Elec       q    Type
                         _______ _______ _______ _____ _____    ______ ____

>  <TORSDO>
F 14

$$$$
=
 OpenBabel10262422273D

 43 46  0  0  1  0  0  0  0  0999 V2000
  190.9630  177.1860  139.1860 C   0  0  0  0  0  0  0  0  0  0  0  0
  188.4500  176.7790  137.7830 C   0  0  0  0  0  0  0  0  0  0  0  0
  190.6580  177.5080  142.2090 C   0  0  0  0  0  0  0  0  0  0  0  0
  189.6500  177.4770  141.3540 C   0  0  0  0  0  3  0  0  0  0  0  0
  188.4560  177.5480  139.1110 C   0  0  0  0  0  2  0  0  0  0  0  0
  189.6860  177.1100  139.9050 C   0  0  0  0  0  0  0  0  0  0  0  0
  192.2360  177.3220  139.9970 C   0  0  0  0  0  3  0  0  0  0  0  0
  190.9450  176.7990  137.7940 C   0  0  1  0  0  3  0  0  0  0  0  0
  189.6140  176.4930  137.2000 C   0  0  0  0  0  3  0  0  0  0  0  0
  192.1000  177.2550  141.5640 C   0  0  0  0  0  3  0  0  0  0  0  0
  187.1600  176.3570  137.2390 C   0  0  2  0  0  3  0  0  0  0  0  0
  187.2200  176.4920  135.8290 O   0  0  0  0  0  1  0  0  0  0  0  0
  186.1440  177.2140  137.7820 N   0  0  0  0  0  2  0  0  0  0  0  0
  184.7430  177.0890  137.7340 C   0  0  0  0  0  0  0  0  0  0  0  0
  184.2130  175.9730  137.3460 O   0  0  0  0  0  0  0  0  0  0  0  0
  183.8820  178.2000  138.1240 C   0  0  2  0  0  3  0  0  0  0  0  0
  184.5340  179.0800  139.2410 C   0  0  1  0  0  3  0  0  0  0  0  0
  184.2030  180.4460  139.0930 O   0  0  0  0  0  1  0  0  0  0  0  0
  184.3830  178.6390  140.6890 C   0  0  0  0  0  2  0  0  0  0  0  0
  185.7250  178.8380  141.3610 C   0  0  0  0  0  2  0  0  0  0  0  0
  186.7980  178.1060  143.4000 O   0  0  0  0  0  0  0  0  0  0  0  0
  185.6360  178.5940  142.7560 C   0  0  1  0  0  3  0  0  0  0  0  0
  186.6660  177.8280  145.6550 C   0  0  0  0  0  2  0  0  0  0  0  0
  184.6420  179.4240  144.8650 C   0  0  0  0  0  2  0  0  0  0  0  0
  185.2150  178.2510  145.7310 C   0  0  0  0  0  2  0  0  0  0  0  0
  184.5700  179.0400  143.4310 C   0  0  0  0  0  2  0  0  0  0  0  0
  186.8410  177.1290  144.3740 C   0  0  0  0  0  2  0  0  0  0  0  0
  181.7440  178.5090  137.8250 C   0  0  0  0  0  1  0  0  0  0  0  0
  182.6580  177.6620  138.4750 O   0  0  0  0  0  0  0  0  0  0  0  0
  192.1370  176.7210  136.9940 N   0  0  0  0  0  2  0  0  0  0  0  0
  193.8710  173.3140  137.2550 C   0  0  0  0  0  2  0  0  0  0  0  0
  194.9010  173.5610  136.1780 C   0  0  0  0  0  0  0  0  0  0  0  0
  194.0910  175.9570  135.9350 C   0  0  0  0  0  2  0  0  0  0  0  0
  192.9770  174.5360  137.5940 C   0  0  0  0  0  2  0  0  0  0  0  0
  192.7450  175.5390  136.4640 C   0  0  1  0  0  3  0  0  0  0  0  0
  194.9710  174.7220  135.5390 C   0  0  0  0  0  3  0  0  0  0  0  0
  195.7270  172.4340  135.7100 C   0  0  0  0  0  2  0  0  0  0  0  0
  196.4540  171.8710  136.6720 F   0  0  0  0  0  0  0  0  0  0  0  0
  190.2730  177.6220  143.7290 C   0  0  1  0  0  3  0  0  0  0  0  0
  191.0900  176.3800  144.5430 C   0  0  0  0  0  2  0  0  0  0  0  0
  191.6810  176.3430  146.2770 S   0  0  0  0  0  1  0  0  0  0  0  0
  191.1240  179.8670  143.9680 O   0  0  0  0  0  1  0  0  0  0  0  0
  190.0890  178.9450  144.3200 N   0  0  0  0  0  2  0  0  0  0  0  0
  1  6  2  0  0  0  0
  1  7  1  0  0  0  0
  2  5  1  0  0  0  0
  3 39  1  0  0  0  0
  4  3  2  0  0  0  0
  5  6  1  0  0  0  0
  6  4  1  0  0  0  0
  7 10  2  0  0  0  0
  8 30  1  6  0  0  0
  8  1  1  0  0  0  0
  9  2  2  0  0  0  0
  9  8  1  0  0  0  0
 10  3  1  0  0  0  0
 11 12  1  6  0  0  0
 11 13  1  0  0  0  0
 11  2  1  0  0  0  0
 14 13  1  0  0  0  0
 15 14  2  0  0  0  0
 16 14  1  1  0  0  0
 16 29  1  0  0  0  0
 16 17  1  0  0  0  0
 17 18  1  1  0  0  0
 17 19  1  0  0  0  0
 19 20  1  0  0  0  0
 21 27  1  0  0  0  0
 22 20  1  1  0  0  0
 22 21  1  0  0  0  0
 22 26  1  0  0  0  0
 23 25  1  0  0  0  0
 24 25  1  0  0  0  0
 26 24  1  0  0  0  0
 27 23  1  0  0  0  0
 28 29  1  0  0  0  0
 31 34  1  0  0  0  0
 32 31  1  0  0  0  0
 33 35  1  0  0  0  0
 35 30  1  1  0  0  0
 35 34  1  0  0  0  0
 36 33  1  0  0  0  0
 36 32  2  0  0  0  0
 37 32  1  0  0  0  0
 37 38  1  0  0  0  0
 39 43  1  0  0  0  0
 39 40  1  1  0  0  0
 40 41  1  0  0  0  0
 42 43  1  0  0  0  0
M  END
>  <MODEL>
9

>  <REMARK>
 VINA RESULT:      -7.6      4.139      9.324
  Name = 
  14 active torsions:
  status: ('A' for Active; 'I' for Inactive)
    1  A    between atoms: N_1  and  C_34
    2  A    between atoms: N_1  and  C_35
    3  A    between atoms: C_2  and  N_6
    4  A    between atoms: C_2  and  C_13
    5  A    between atoms: C_3  and  C_4
    6  A    between atoms: C_3  and  C_12
    7  A    between atoms: C_3  and  O_42
    8  A    between atoms: C_4  and  C_22
    9  A    between atoms: C_5  and  C_16
   10  A    between atoms: C_5  and  C_18
   11  A    between atoms: C_5  and  N_23
   12  A    between atoms: C_14  and  C_41
   13  A    between atoms: C_19  and  C_25
   14  A    between atoms: C_22  and  C_41
                            x       y       z     vdW  Elec       q    Type
                         _______ _______ _______ _____ _____    ______ ____

>  <TORSDO>
F 14

$$$$
