=
 OpenBabel10262420453D

 28 31  0  0  1  0  0  0  0  0999 V2000
  187.8390  177.0820  145.2020 C   0  0  2  0  0  3  0  0  0  0  0  0
  191.6530  177.0180  146.8980 O   0  0  0  0  0  0  0  0  0  0  0  0
  190.0760  177.1490  142.1460 C   0  0  0  0  0  0  0  0  0  0  0  0
  190.3820  177.0240  144.9300 N   0  0  0  0  0  0  0  0  0  0  0  0
  188.9530  177.1350  143.0380 N   0  0  0  0  0  0  0  0  0  0  0  0
  189.2990  176.9770  147.2370 C   0  0  0  0  0  2  0  0  0  0  0  0
  191.5740  176.8070  144.1030 C   0  0  0  0  0  2  0  0  0  0  0  0
  190.5120  177.0260  146.3620 C   0  0  0  0  0  0  0  0  0  0  0  0
  191.3150  177.0400  142.6420 C   0  0  0  0  0  3  0  0  0  0  0  0
  188.1310  177.6920  146.5720 C   0  0  0  0  0  2  0  0  0  0  0  0
  189.0730  177.1030  144.3300 C   0  0  0  0  0  0  0  0  0  0  0  0
  188.6600  177.8330  140.2870 C   0  0  0  0  0  3  0  0  0  0  0  0
  190.7180  176.4020  138.5390 C   0  0  0  0  0  3  0  0  0  0  0  0
  188.2980  176.7810  138.1060 C   0  0  0  0  0  0  0  0  0  0  0  0
  189.8470  177.3560  140.6900 C   0  0  0  0  0  0  0  0  0  0  0  0
  192.6390  177.3540  140.1340 S   0  0  0  0  0  1  0  0  0  0  0  0
  189.4130  176.0700  137.9350 C   0  0  0  0  0  3  0  0  0  0  0  0
  190.9290  177.0110  139.7160 C   0  0  0  0  0  0  0  0  0  0  0  0
  187.1540  176.3670  137.5130 F   0  0  0  0  0  0  0  0  0  0  0  0
  188.3000  178.0700  138.8590 C   0  0  0  0  0  2  0  0  0  0  0  0
  186.6590  177.7560  144.5540 C   0  0  0  0  0  0  0  0  0  0  0  0
  186.5970  177.8960  143.1580 C   0  0  0  0  0  3  0  0  0  0  0  0
  184.4660  178.7870  144.7320 C   0  0  0  0  0  0  0  0  0  0  0  0
  185.4820  178.4830  142.5560 C   0  0  0  0  0  3  0  0  0  0  0  0
  185.6160  178.0530  146.7240 O   0  0  0  0  0  1  0  0  0  0  0  0
  185.5840  178.1990  145.3410 C   0  0  0  0  0  0  0  0  0  0  0  0
  183.4250  179.2180  145.4850 F   0  0  0  0  0  0  0  0  0  0  0  0
  184.4180  178.9290  143.3430 C   0  0  0  0  0  3  0  0  0  0  0  0
  1 21  1  6  0  0  0
  1 10  1  0  0  0  0
  3  9  2  0  0  0  0
  3  5  1  0  0  0  0
  4  8  1  0  0  0  0
  5 11  2  0  0  0  0
  7  4  1  0  0  0  0
  8  2  2  0  0  0  0
  8  6  1  0  0  0  0
  9  7  1  0  0  0  0
 10  6  1  0  0  0  0
 11  4  1  0  0  0  0
 11  1  1  0  0  0  0
 12 15  2  0  0  0  0
 13 18  2  0  0  0  0
 14 20  1  0  0  0  0
 15  3  1  0  0  0  0
 17 14  2  0  0  0  0
 17 13  1  0  0  0  0
 18 16  1  0  0  0  0
 18 15  1  0  0  0  0
 19 14  1  0  0  0  0
 20 12  1  0  0  0  0
 21 26  1  0  0  0  0
 22 21  2  0  0  0  0
 23 26  2  0  0  0  0
 23 27  1  0  0  0  0
 24 22  1  0  0  0  0
 24 28  2  0  0  0  0
 26 25  1  0  0  0  0
 28 23  1  0  0  0  0
M  END
>  <MODEL>
1

>  <REMARK>
 VINA RESULT:     -10.9      0.000      0.000
  Name = 
  2 active torsions:
  status: ('A' for Active; 'I' for Inactive)
    1  A    between atoms: C_1  and  C_2
    2  A    between atoms: C_10  and  C_13
                            x       y       z     vdW  Elec       q    Type
                         _______ _______ _______ _____ _____    ______ ____

>  <TORSDO>
F 2

$$$$
=
 OpenBabel10262420453D

 28 31  0  0  1  0  0  0  0  0999 V2000
  188.0350  178.6100  141.1020 C   0  0  2  0  0  3  0  0  0  0  0  0
  191.5320  176.9910  139.4970 O   0  0  0  0  0  0  0  0  0  0  0  0
  189.8200  177.3380  144.1920 C   0  0  0  0  0  0  0  0  0  0  0  0
  190.2980  177.4640  141.4320 N   0  0  0  0  0  0  0  0  0  0  0  0
  188.8810  177.9230  143.2800 N   0  0  0  0  0  0  0  0  0  0  0  0
  189.4850  178.1400  139.1120 C   0  0  0  0  0  2  0  0  0  0  0  0
  191.4090  177.0560  142.2980 C   0  0  0  0  0  2  0  0  0  0  0  0
  190.4900  177.4830  140.0070 C   0  0  0  0  0  0  0  0  0  0  0  0
  190.9940  176.8870  143.7310 C   0  0  0  0  0  3  0  0  0  0  0  0
  188.0850  178.0130  139.6970 C   0  0  0  0  0  2  0  0  0  0  0  0
  189.0710  177.9690  141.9960 C   0  0  0  0  0  0  0  0  0  0  0  0
  188.1480  177.2640  145.9600 C   0  0  0  0  0  3  0  0  0  0  0  0
  190.5290  177.5270  147.8570 C   0  0  0  0  0  3  0  0  0  0  0  0
  188.1740  178.2500  148.2010 C   0  0  0  0  0  0  0  0  0  0  0  0
  189.4440  177.1790  145.6220 C   0  0  0  0  0  0  0  0  0  0  0  0
  191.9090  175.9010  146.2480 S   0  0  0  0  0  1  0  0  0  0  0  0
  189.4780  178.3760  148.4510 C   0  0  0  0  0  3  0  0  0  0  0  0
  190.5110  176.9520  146.6460 C   0  0  0  0  0  0  0  0  0  0  0  0
  187.3030  179.1010  148.7920 F   0  0  0  0  0  0  0  0  0  0  0  0
  187.6430  177.1390  147.3580 C   0  0  0  0  0  2  0  0  0  0  0  0
  186.6450  178.5260  141.6730 C   0  0  0  0  0  0  0  0  0  0  0  0
  186.4470  178.1920  143.0220 C   0  0  0  0  0  3  0  0  0  0  0  0
  184.2440  178.8020  141.4130 C   0  0  0  0  0  0  0  0  0  0  0  0
  185.1580  178.1570  143.5590 C   0  0  0  0  0  3  0  0  0  0  0  0
  185.7100  179.1900  139.5340 O   0  0  0  0  0  1  0  0  0  0  0  0
  185.5360  178.8380  140.8690 C   0  0  0  0  0  0  0  0  0  0  0  0
  183.1690  179.1000  140.6430 F   0  0  0  0  0  0  0  0  0  0  0  0
  184.0580  178.4610  142.7550 C   0  0  0  0  0  3  0  0  0  0  0  0
  1 21  1  1  0  0  0
  1 11  1  0  0  0  0
  2  8  2  0  0  0  0
  3 15  1  0  0  0  0
  4 11  1  0  0  0  0
  4  7  1  0  0  0  0
  5  3  1  0  0  0  0
  6 10  1  0  0  0  0
  6  8  1  0  0  0  0
  7  9  1  0  0  0  0
  8  4  1  0  0  0  0
  9  3  2  0  0  0  0
 10  1  1  0  0  0  0
 11  5  2  0  0  0  0
 12 20  1  0  0  0  0
 13 17  1  0  0  0  0
 14 17  2  0  0  0  0
 14 19  1  0  0  0  0
 15 12  2  0  0  0  0
 15 18  1  0  0  0  0
 16 18  1  0  0  0  0
 18 13  2  0  0  0  0
 20 14  1  0  0  0  0
 21 22  1  0  0  0  0
 22 24  2  0  0  0  0
 23 28  2  0  0  0  0
 25 26  1  0  0  0  0
 26 23  1  0  0  0  0
 26 21  2  0  0  0  0
 27 23  1  0  0  0  0
 28 24  1  0  0  0  0
M  END
>  <MODEL>
2

>  <REMARK>
 VINA RESULT:     -10.5      2.948      6.090
  Name = 
  2 active torsions:
  status: ('A' for Active; 'I' for Inactive)
    1  A    between atoms: C_1  and  C_2
    2  A    between atoms: C_10  and  C_13
                            x       y       z     vdW  Elec       q    Type
                         _______ _______ _______ _____ _____    ______ ____

>  <TORSDO>
F 2

$$$$
=
 OpenBabel10262420453D

 28 31  0  0  1  0  0  0  0  0999 V2000
  189.2270  176.9050  144.3620 C   0  0  2  0  0  3  0  0  0  0  0  0
  191.3430  177.3220  140.7870 O   0  0  0  0  0  0  0  0  0  0  0  0
  186.6060  178.3580  142.0460 C   0  0  0  0  0  0  0  0  0  0  0  0
  189.2880  177.5540  141.8890 N   0  0  0  0  0  0  0  0  0  0  0  0
  187.3110  177.8230  143.1740 N   0  0  0  0  0  0  0  0  0  0  0  0
  191.3470  176.6100  143.0570 C   0  0  0  0  0  2  0  0  0  0  0  0
  188.5980  177.8740  140.6340 C   0  0  0  0  0  2  0  0  0  0  0  0
  190.6800  177.1950  141.8520 C   0  0  0  0  0  0  0  0  0  0  0  0
  187.2190  178.4270  140.8570 C   0  0  0  0  0  3  0  0  0  0  0  0
  190.7320  177.1680  144.3330 C   0  0  0  0  0  2  0  0  0  0  0  0
  188.5590  177.4680  143.1300 C   0  0  0  0  0  0  0  0  0  0  0  0
  184.9020  179.4220  143.4210 C   0  0  0  0  0  3  0  0  0  0  0  0
  182.9540  178.4900  141.2590 C   0  0  0  0  0  3  0  0  0  0  0  0
  182.5240  178.9000  143.6740 C   0  0  0  0  0  0  0  0  0  0  0  0
  185.2310  178.8940  142.2320 C   0  0  0  0  0  0  0  0  0  0  0  0
  184.8020  179.0910  139.4250 S   0  0  0  0  0  1  0  0  0  0  0  0
  182.2370  178.2750  142.5310 C   0  0  0  0  0  3  0  0  0  0  0  0
  184.2470  178.8120  141.1080 C   0  0  0  0  0  0  0  0  0  0  0  0
  181.8060  178.6070  144.7840 F   0  0  0  0  0  0  0  0  0  0  0  0
  183.5550  179.9770  143.7410 C   0  0  0  0  0  2  0  0  0  0  0  0
  188.6170  177.4170  145.6390 C   0  0  0  0  0  0  0  0  0  0  0  0
  187.2460  177.7120  145.7050 C   0  0  0  0  0  3  0  0  0  0  0  0
  188.8290  177.9850  147.9920 C   0  0  0  0  0  0  0  0  0  0  0  0
  186.6740  178.1470  146.9020 C   0  0  0  0  0  3  0  0  0  0  0  0
  190.7650  177.2440  146.7550 O   0  0  0  0  0  1  0  0  0  0  0  0
  189.4080  177.5490  146.7920 C   0  0  0  0  0  0  0  0  0  0  0  0
  189.5860  178.1150  149.1090 F   0  0  0  0  0  0  0  0  0  0  0  0
  187.4650  178.2840  148.0450 C   0  0  0  0  0  3  0  0  0  0  0  0
  1 21  1  1  0  0  0
  2  8  2  0  0  0  0
  3 15  1  0  0  0  0
  3  5  1  0  0  0  0
  4 11  1  0  0  0  0
  6 10  1  0  0  0  0
  7  9  1  0  0  0  0
  7  4  1  0  0  0  0
  8  4  1  0  0  0  0
  8  6  1  0  0  0  0
  9  3  2  0  0  0  0
 10  1  1  0  0  0  0
 11  5  2  0  0  0  0
 11  1  1  0  0  0  0
 12 20  1  0  0  0  0
 13 17  1  0  0  0  0
 14 20  1  0  0  0  0
 14 19  1  0  0  0  0
 15 12  2  0  0  0  0
 16 18  1  0  0  0  0
 17 14  2  0  0  0  0
 18 13  2  0  0  0  0
 18 15  1  0  0  0  0
 21 22  2  0  0  0  0
 21 26  1  0  0  0  0
 22 24  1  0  0  0  0
 23 28  1  0  0  0  0
 23 27  1  0  0  0  0
 24 28  2  0  0  0  0
 25 26  1  0  0  0  0
 26 23  2  0  0  0  0
M  END
>  <MODEL>
3

>  <REMARK>
 VINA RESULT:     -10.4      2.991      5.609
  Name = 
  2 active torsions:
  status: ('A' for Active; 'I' for Inactive)
    1  A    between atoms: C_1  and  C_2
    2  A    between atoms: C_10  and  C_13
                            x       y       z     vdW  Elec       q    Type
                         _______ _______ _______ _____ _____    ______ ____

>  <TORSDO>
F 2

$$$$
=
 OpenBabel10262420453D

 28 31  0  0  1  0  0  0  0  0999 V2000
  187.2610  177.6580  143.0720 C   0  0  2  0  0  3  0  0  0  0  0  0
  188.5490  178.7090  139.2420 O   0  0  0  0  0  0  0  0  0  0  0  0
  184.0200  178.6510  141.3810 C   0  0  0  0  0  0  0  0  0  0  0  0
  186.7300  178.4410  140.6950 N   0  0  0  0  0  0  0  0  0  0  0  0
  185.0130  178.2150  142.3180 N   0  0  0  0  0  0  0  0  0  0  0  0
  189.1160  177.8900  141.4020 C   0  0  0  0  0  2  0  0  0  0  0  0
  185.7700  178.6760  139.6120 C   0  0  0  0  0  2  0  0  0  0  0  0
  188.1340  178.3870  140.3880 C   0  0  0  0  0  0  0  0  0  0  0  0
  184.3750  178.9130  140.1170 C   0  0  0  0  0  3  0  0  0  0  0  0
  188.6520  178.2340  142.8100 C   0  0  0  0  0  2  0  0  0  0  0  0
  186.2770  178.1350  142.0290 C   0  0  0  0  0  0  0  0  0  0  0  0
  182.4020  179.0180  143.1640 C   0  0  0  0  0  3  0  0  0  0  0  0
  180.3100  178.3340  141.0450 C   0  0  0  0  0  3  0  0  0  0  0  0
  180.1860  178.0410  143.5120 C   0  0  0  0  0  0  0  0  0  0  0  0
  182.6250  178.8730  141.8490 C   0  0  0  0  0  0  0  0  0  0  0  0
  181.7650  179.6920  139.2610 S   0  0  0  0  0  1  0  0  0  0  0  0
  179.8250  177.6850  142.2780 C   0  0  0  0  0  3  0  0  0  0  0  0
  181.5080  178.9050  140.8530 C   0  0  0  0  0  0  0  0  0  0  0  0
  179.6870  177.3580  144.5680 F   0  0  0  0  0  0  0  0  0  0  0  0
  181.0520  179.2300  143.7610 C   0  0  0  0  0  2  0  0  0  0  0  0
  186.8100  177.9590  144.4760 C   0  0  0  0  0  0  0  0  0  0  0  0
  185.6040  178.6400  144.7060 C   0  0  0  0  0  3  0  0  0  0  0  0
  187.1240  177.7510  146.8760 C   0  0  0  0  0  0  0  0  0  0  0  0
  185.1670  178.8800  146.0110 C   0  0  0  0  0  3  0  0  0  0  0  0
  188.7570  176.8140  145.3640 O   0  0  0  0  0  1  0  0  0  0  0  0
  187.5680  177.5080  145.5690 C   0  0  0  0  0  0  0  0  0  0  0  0
  187.8510  177.3190  147.9360 F   0  0  0  0  0  0  0  0  0  0  0  0
  185.9270  178.4360  147.0950 C   0  0  0  0  0  3  0  0  0  0  0  0
  1 21  1  1  0  0  0
  2  8  2  0  0  0  0
  3 15  1  0  0  0  0
  3  5  1  0  0  0  0
  4 11  1  0  0  0  0
  6 10  1  0  0  0  0
  7  9  1  0  0  0  0
  7  4  1  0  0  0  0
  8  4  1  0  0  0  0
  8  6  1  0  0  0  0
  9  3  2  0  0  0  0
 10  1  1  0  0  0  0
 11  5  2  0  0  0  0
 11  1  1  0  0  0  0
 12 20  1  0  0  0  0
 13 17  1  0  0  0  0
 14 20  1  0  0  0  0
 14 19  1  0  0  0  0
 15 12  2  0  0  0  0
 16 18  1  0  0  0  0
 17 14  2  0  0  0  0
 18 13  2  0  0  0  0
 18 15  1  0  0  0  0
 21 22  2  0  0  0  0
 21 26  1  0  0  0  0
 22 24  1  0  0  0  0
 23 28  1  0  0  0  0
 23 27  1  0  0  0  0
 24 28  2  0  0  0  0
 25 26  1  0  0  0  0
 26 23  2  0  0  0  0
M  END
>  <MODEL>
4

>  <REMARK>
 VINA RESULT:     -10.1      3.837      6.858
  Name = 
  2 active torsions:
  status: ('A' for Active; 'I' for Inactive)
    1  A    between atoms: C_1  and  C_2
    2  A    between atoms: C_10  and  C_13
                            x       y       z     vdW  Elec       q    Type
                         _______ _______ _______ _____ _____    ______ ____

>  <TORSDO>
F 2

$$$$
=
 OpenBabel10262420453D

 28 31  0  0  1  0  0  0  0  0999 V2000
  182.4200  177.6350  140.2290 C   0  0  2  0  0  3  0  0  0  0  0  0
  180.2300  179.8630  142.9990 O   0  0  0  0  0  0  0  0  0  0  0  0
  185.0060  178.3560  142.9010 C   0  0  0  0  0  0  0  0  0  0  0  0
  182.2860  178.8750  142.4630 N   0  0  0  0  0  0  0  0  0  0  0  0
  184.3220  177.9030  141.7250 N   0  0  0  0  0  0  0  0  0  0  0  0
  180.2450  178.6510  140.9520 C   0  0  0  0  0  2  0  0  0  0  0  0
  182.8330  179.1810  143.7890 C   0  0  0  0  0  2  0  0  0  0  0  0
  180.9090  179.1820  142.1840 C   0  0  0  0  0  0  0  0  0  0  0  0
  184.3220  178.9970  143.8570 C   0  0  0  0  0  3  0  0  0  0  0  0
  181.2490  178.5250  139.8150 C   0  0  0  0  0  2  0  0  0  0  0  0
  183.0700  178.1550  141.4900 C   0  0  0  0  0  0  0  0  0  0  0  0
  187.2480  178.5250  141.9660 C   0  0  0  0  0  3  0  0  0  0  0  0
  188.0550  176.6670  144.2540 C   0  0  0  0  0  3  0  0  0  0  0  0
  189.1040  176.9310  142.0140 C   0  0  0  0  0  0  0  0  0  0  0  0
  186.4780  178.1670  143.0050 C   0  0  0  0  0  0  0  0  0  0  0  0
  186.3720  178.0000  145.8450 S   0  0  0  0  0  1  0  0  0  0  0  0
  188.8300  176.1930  143.0910 C   0  0  0  0  0  3  0  0  0  0  0  0
  187.0600  177.5670  144.2460 C   0  0  0  0  0  0  0  0  0  0  0  0
  189.8110  176.3800  141.0000 F   0  0  0  0  0  0  0  0  0  0  0  0
  188.7320  178.3740  141.9390 C   0  0  0  0  0  2  0  0  0  0  0  0
  183.3980  177.4710  139.0970 C   0  0  0  0  0  0  0  0  0  0  0  0
  184.3410  178.4730  138.8210 C   0  0  0  0  0  3  0  0  0  0  0  0
  184.3480  176.1170  137.3170 C   0  0  0  0  0  0  0  0  0  0  0  0
  185.2750  178.3000  137.7960 C   0  0  0  0  0  3  0  0  0  0  0  0
  182.4930  175.2720  138.6120 O   0  0  0  0  0  1  0  0  0  0  0  0
  183.4080  176.2860  138.3430 C   0  0  0  0  0  0  0  0  0  0  0  0
  184.3630  174.9760  136.5850 F   0  0  0  0  0  0  0  0  0  0  0  0
  185.2780  177.1230  137.0450 C   0  0  0  0  0  3  0  0  0  0  0  0
  1 21  1  6  0  0  0
  1 11  1  0  0  0  0
  3 15  1  0  0  0  0
  3  9  2  0  0  0  0
  4  7  1  0  0  0  0
  5  3  1  0  0  0  0
  6  8  1  0  0  0  0
  7  9  1  0  0  0  0
  8  4  1  0  0  0  0
  8  2  2  0  0  0  0
 10  1  1  0  0  0  0
 10  6  1  0  0  0  0
 11  5  2  0  0  0  0
 11  4  1  0  0  0  0
 12 15  2  0  0  0  0
 14 17  2  0  0  0  0
 15 18  1  0  0  0  0
 17 13  1  0  0  0  0
 18 13  2  0  0  0  0
 18 16  1  0  0  0  0
 19 14  1  0  0  0  0
 20 12  1  0  0  0  0
 20 14  1  0  0  0  0
 22 21  1  0  0  0  0
 23 26  1  0  0  0  0
 24 22  2  0  0  0  0
 26 25  1  0  0  0  0
 26 21  2  0  0  0  0
 27 23  1  0  0  0  0
 28 23  2  0  0  0  0
 28 24  1  0  0  0  0
M  END
>  <MODEL>
5

>  <REMARK>
 VINA RESULT:      -9.8      4.395      7.375
  Name = 
  2 active torsions:
  status: ('A' for Active; 'I' for Inactive)
    1  A    between atoms: C_1  and  C_2
    2  A    between atoms: C_10  and  C_13
                            x       y       z     vdW  Elec       q    Type
                         _______ _______ _______ _____ _____    ______ ____

>  <TORSDO>
F 2

$$$$
=
 OpenBabel10262420453D

 28 31  0  0  1  0  0  0  0  0999 V2000
  185.4890  178.0290  142.4220 C   0  0  2  0  0  3  0  0  0  0  0  0
  182.9530  179.3060  145.4830 O   0  0  0  0  0  0  0  0  0  0  0  0
  187.7440  177.8440  145.4600 C   0  0  0  0  0  0  0  0  0  0  0  0
  185.0780  178.5090  144.9010 N   0  0  0  0  0  0  0  0  0  0  0  0
  187.2060  177.7910  144.1320 N   0  0  0  0  0  0  0  0  0  0  0  0
  183.2240  178.7950  143.1750 C   0  0  0  0  0  2  0  0  0  0  0  0
  185.4660  178.3780  146.3090 C   0  0  0  0  0  2  0  0  0  0  0  0
  183.7350  178.9060  144.5780 C   0  0  0  0  0  0  0  0  0  0  0  0
  186.9420  178.1630  146.4850 C   0  0  0  0  0  3  0  0  0  0  0  0
  184.3510  179.0180  142.1760 C   0  0  0  0  0  2  0  0  0  0  0  0
  185.9820  178.1190  143.8470 C   0  0  0  0  0  0  0  0  0  0  0  0
  190.0080  177.6110  144.5960 C   0  0  0  0  0  3  0  0  0  0  0  0
  190.6560  176.4580  147.3510 C   0  0  0  0  0  3  0  0  0  0  0  0
  191.7590  176.0000  145.1690 C   0  0  0  0  0  0  0  0  0  0  0  0
  189.1990  177.6140  145.6660 C   0  0  0  0  0  0  0  0  0  0  0  0
  189.0320  178.2870  148.4280 S   0  0  0  0  0  1  0  0  0  0  0  0
  191.4200  175.6240  146.4030 C   0  0  0  0  0  3  0  0  0  0  0  0
  189.7200  177.3700  147.0480 C   0  0  0  0  0  0  0  0  0  0  0  0
  192.4480  175.1390  144.3830 F   0  0  0  0  0  0  0  0  0  0  0  0
  191.4800  177.3770  144.6660 C   0  0  0  0  0  2  0  0  0  0  0  0
  186.5910  178.2150  141.4140 C   0  0  0  0  0  0  0  0  0  0  0  0
  187.9330  178.2410  141.8230 C   0  0  0  0  0  3  0  0  0  0  0  0
  187.3130  178.4360  139.1040 C   0  0  0  0  0  0  0  0  0  0  0  0
  188.9560  178.3710  140.8800 C   0  0  0  0  0  3  0  0  0  0  0  0
  184.9600  178.2640  139.6170 O   0  0  0  0  0  1  0  0  0  0  0  0
  186.2830  178.3070  140.0460 C   0  0  0  0  0  0  0  0  0  0  0  0
  187.0240  178.5270  137.7830 F   0  0  0  0  0  0  0  0  0  0  0  0
  188.6460  178.4690  139.5220 C   0  0  0  0  0  3  0  0  0  0  0  0
  1 21  1  6  0  0  0
  1 11  1  0  0  0  0
  3 15  1  0  0  0  0
  3  9  2  0  0  0  0
  4  7  1  0  0  0  0
  5  3  1  0  0  0  0
  6  8  1  0  0  0  0
  7  9  1  0  0  0  0
  8  4  1  0  0  0  0
  8  2  2  0  0  0  0
 10  1  1  0  0  0  0
 10  6  1  0  0  0  0
 11  5  2  0  0  0  0
 11  4  1  0  0  0  0
 12 20  1  0  0  0  0
 12 15  2  0  0  0  0
 14 17  2  0  0  0  0
 15 18  1  0  0  0  0
 17 13  1  0  0  0  0
 18 13  2  0  0  0  0
 18 16  1  0  0  0  0
 19 14  1  0  0  0  0
 20 14  1  0  0  0  0
 21 22  1  0  0  0  0
 23 28  2  0  0  0  0
 23 26  1  0  0  0  0
 24 22  2  0  0  0  0
 25 26  1  0  0  0  0
 26 21  2  0  0  0  0
 27 23  1  0  0  0  0
 28 24  1  0  0  0  0
M  END
>  <MODEL>
6

>  <REMARK>
 VINA RESULT:      -9.8      3.391      6.433
  Name = 
  2 active torsions:
  status: ('A' for Active; 'I' for Inactive)
    1  A    between atoms: C_1  and  C_2
    2  A    between atoms: C_10  and  C_13
                            x       y       z     vdW  Elec       q    Type
                         _______ _______ _______ _____ _____    ______ ____

>  <TORSDO>
F 2

$$$$
=
 OpenBabel10262420453D

 28 31  0  0  1  0  0  0  0  0999 V2000
  188.0970  177.2280  144.1270 C   0  0  2  0  0  3  0  0  0  0  0  0
  192.1410  177.3930  143.1040 O   0  0  0  0  0  0  0  0  0  0  0  0
  187.9540  177.9030  140.4020 C   0  0  0  0  0  0  0  0  0  0  0  0
  189.9230  177.4880  142.3540 N   0  0  0  0  0  0  0  0  0  0  0  0
  187.6270  177.6590  141.7770 N   0  0  0  0  0  0  0  0  0  0  0  0
  190.5060  177.0500  144.7970 C   0  0  0  0  0  2  0  0  0  0  0  0
  190.3480  177.5040  140.9510 C   0  0  0  0  0  2  0  0  0  0  0  0
  190.9130  177.3360  143.3850 C   0  0  0  0  0  0  0  0  0  0  0  0
  189.2350  177.8760  140.0130 C   0  0  0  0  0  3  0  0  0  0  0  0
  189.1660  177.7020  145.1100 C   0  0  0  0  0  2  0  0  0  0  0  0
  188.5230  177.4890  142.7010 C   0  0  0  0  0  0  0  0  0  0  0  0
  185.6800  178.6370  139.9350 C   0  0  0  0  0  3  0  0  0  0  0  0
  186.2310  177.6610  137.0930 C   0  0  0  0  0  3  0  0  0  0  0  0
  184.0590  177.8150  138.2960 C   0  0  0  0  0  0  0  0  0  0  0  0
  186.8690  178.2520  139.4470 C   0  0  0  0  0  0  0  0  0  0  0  0
  188.7130  178.6280  137.3100 S   0  0  0  0  0  1  0  0  0  0  0  0
  184.8380  177.2580  137.3680 C   0  0  0  0  0  3  0  0  0  0  0  0
  187.1170  178.1470  137.9750 C   0  0  0  0  0  0  0  0  0  0  0  0
  182.8000  177.3480  138.4680 F   0  0  0  0  0  0  0  0  0  0  0  0
  184.5080  178.9990  139.0860 C   0  0  0  0  0  2  0  0  0  0  0  0
  186.7590  177.8370  144.4530 C   0  0  0  0  0  0  0  0  0  0  0  0
  185.9520  178.3700  143.4360 C   0  0  0  0  0  3  0  0  0  0  0  0
  185.0200  178.3510  146.0710 C   0  0  0  0  0  0  0  0  0  0  0  0
  184.6930  178.8960  143.7350 C   0  0  0  0  0  3  0  0  0  0  0  0
  187.0600  177.2820  146.7960 O   0  0  0  0  0  1  0  0  0  0  0  0
  186.2850  177.8230  145.7750 C   0  0  0  0  0  0  0  0  0  0  0  0
  184.5570  178.3420  147.3440 F   0  0  0  0  0  0  0  0  0  0  0  0
  184.2280  178.8860  145.0520 C   0  0  0  0  0  3  0  0  0  0  0  0
  1 21  1  1  0  0  0
  1 10  1  0  0  0  0
  2  8  2  0  0  0  0
  3  5  1  0  0  0  0
  4 11  1  0  0  0  0
  4  8  1  0  0  0  0
  5 11  2  0  0  0  0
  6 10  1  0  0  0  0
  7  4  1  0  0  0  0
  8  6  1  0  0  0  0
  9  3  2  0  0  0  0
  9  7  1  0  0  0  0
 11  1  1  0  0  0  0
 13 17  1  0  0  0  0
 13 18  2  0  0  0  0
 14 19  1  0  0  0  0
 14 20  1  0  0  0  0
 15 12  2  0  0  0  0
 15  3  1  0  0  0  0
 16 18  1  0  0  0  0
 17 14  2  0  0  0  0
 18 15  1  0  0  0  0
 20 12  1  0  0  0  0
 21 26  1  0  0  0  0
 22 24  1  0  0  0  0
 22 21  2  0  0  0  0
 23 27  1  0  0  0  0
 24 28  2  0  0  0  0
 26 23  2  0  0  0  0
 26 25  1  0  0  0  0
 28 23  1  0  0  0  0
M  END
>  <MODEL>
7

>  <REMARK>
 VINA RESULT:      -9.8      2.294      3.077
  Name = 
  2 active torsions:
  status: ('A' for Active; 'I' for Inactive)
    1  A    between atoms: C_1  and  C_2
    2  A    between atoms: C_10  and  C_13
                            x       y       z     vdW  Elec       q    Type
                         _______ _______ _______ _____ _____    ______ ____

>  <TORSDO>
F 2

$$$$
=
 OpenBabel10262420453D

 28 31  0  0  1  0  0  0  0  0999 V2000
  187.9550  177.8780  144.1130 C   0  0  2  0  0  3  0  0  0  0  0  0
  183.9160  178.6280  143.3700 O   0  0  0  0  0  0  0  0  0  0  0  0
  187.8900  178.2530  140.3440 C   0  0  0  0  0  0  0  0  0  0  0  0
  186.0680  178.4060  142.4690 N   0  0  0  0  0  0  0  0  0  0  0  0
  188.2880  178.0520  141.7070 N   0  0  0  0  0  0  0  0  0  0  0  0
  185.6280  178.2310  144.9740 C   0  0  0  0  0  2  0  0  0  0  0  0
  185.6110  178.8470  141.1470 C   0  0  0  0  0  2  0  0  0  0  0  0
  185.1430  178.4150  143.5700 C   0  0  0  0  0  0  0  0  0  0  0  0
  186.6220  178.5840  140.0680 C   0  0  0  0  0  3  0  0  0  0  0  0
  186.8470  177.3190  145.0030 C   0  0  0  0  0  2  0  0  0  0  0  0
  187.4560  178.0930  142.7030 C   0  0  0  0  0  0  0  0  0  0  0  0
  188.5400  178.3490  137.9990 C   0  0  0  0  0  3  0  0  0  0  0  0
  190.8140  176.4840  138.8280 C   0  0  0  0  0  3  0  0  0  0  0  0
  189.7010  176.7000  136.6130 C   0  0  0  0  0  0  0  0  0  0  0  0
  188.8780  178.0210  139.2560 C   0  0  0  0  0  0  0  0  0  0  0  0
  191.0460  177.8780  141.0950 S   0  0  0  0  0  1  0  0  0  0  0  0
  190.3700  175.9780  137.5140 C   0  0  0  0  0  3  0  0  0  0  0  0
  190.2060  177.4130  139.5800 C   0  0  0  0  0  0  0  0  0  0  0  0
  189.3320  176.1210  135.4470 F   0  0  0  0  0  0  0  0  0  0  0  0
  189.4310  178.1530  136.8190 C   0  0  0  0  0  2  0  0  0  0  0  0
  189.1800  177.0050  144.1670 C   0  0  0  0  0  0  0  0  0  0  0  0
  189.3960  176.0190  143.1910 C   0  0  0  0  0  3  0  0  0  0  0  0
  191.3060  176.4250  145.1910 C   0  0  0  0  0  0  0  0  0  0  0  0
  190.5540  175.2380  143.2200 C   0  0  0  0  0  3  0  0  0  0  0  0
  189.9600  178.1940  146.1330 O   0  0  0  0  0  1  0  0  0  0  0  0
  190.1450  177.2100  145.1670 C   0  0  0  0  0  0  0  0  0  0  0  0
  192.2420  176.6170  146.1530 F   0  0  0  0  0  0  0  0  0  0  0  0
  191.5080  175.4420  144.2200 C   0  0  0  0  0  3  0  0  0  0  0  0
  1 21  1  6  0  0  0
  1 10  1  0  0  0  0
  2  8  2  0  0  0  0
  3  5  1  0  0  0  0
  4 11  1  0  0  0  0
  4  8  1  0  0  0  0
  5 11  2  0  0  0  0
  6 10  1  0  0  0  0
  7  4  1  0  0  0  0
  8  6  1  0  0  0  0
  9  3  2  0  0  0  0
  9  7  1  0  0  0  0
 11  1  1  0  0  0  0
 12 15  2  0  0  0  0
 13 18  2  0  0  0  0
 14 20  1  0  0  0  0
 14 17  2  0  0  0  0
 15 18  1  0  0  0  0
 15  3  1  0  0  0  0
 17 13  1  0  0  0  0
 18 16  1  0  0  0  0
 19 14  1  0  0  0  0
 20 12  1  0  0  0  0
 21 26  1  0  0  0  0
 22 24  1  0  0  0  0
 22 21  2  0  0  0  0
 23 27  1  0  0  0  0
 24 28  2  0  0  0  0
 26 23  2  0  0  0  0
 26 25  1  0  0  0  0
 28 23  1  0  0  0  0
M  END
>  <MODEL>
8

>  <REMARK>
 VINA RESULT:      -9.7      2.454      4.608
  Name = 
  2 active torsions:
  status: ('A' for Active; 'I' for Inactive)
    1  A    between atoms: C_1  and  C_2
    2  A    between atoms: C_10  and  C_13
                            x       y       z     vdW  Elec       q    Type
                         _______ _______ _______ _____ _____    ______ ____

>  <TORSDO>
F 2

$$$$
=
 OpenBabel10262420453D

 28 31  0  0  1  0  0  0  0  0999 V2000
  187.2870  178.1020  144.5280 C   0  0  2  0  0  3  0  0  0  0  0  0
  183.1800  178.6730  145.0170 O   0  0  0  0  0  0  0  0  0  0  0  0
  186.0950  178.4490  140.9500 C   0  0  0  0  0  0  0  0  0  0  0  0
  184.9770  178.5380  143.5200 N   0  0  0  0  0  0  0  0  0  0  0  0
  186.8860  178.2750  142.1330 N   0  0  0  0  0  0  0  0  0  0  0  0
  185.3050  178.3610  146.0410 C   0  0  0  0  0  2  0  0  0  0  0  0
  184.1320  178.9500  142.3940 C   0  0  0  0  0  2  0  0  0  0  0  0
  184.4190  178.5140  144.8440 C   0  0  0  0  0  0  0  0  0  0  0  0
  184.7890  178.7240  141.0630 C   0  0  0  0  0  3  0  0  0  0  0  0
  186.5160  177.5030  145.7040 C   0  0  0  0  0  2  0  0  0  0  0  0
  186.3840  178.2860  143.3310 C   0  0  0  0  0  0  0  0  0  0  0  0
  185.9670  178.3920  138.5190 C   0  0  0  0  0  3  0  0  0  0  0  0
  188.6740  176.9830  138.6740 C   0  0  0  0  0  3  0  0  0  0  0  0
  186.9160  176.7960  136.9240 C   0  0  0  0  0  0  0  0  0  0  0  0
  186.7260  178.2530  139.6170 C   0  0  0  0  0  0  0  0  0  0  0  0
  189.3440  178.6280  140.6710 S   0  0  0  0  0  1  0  0  0  0  0  0
  187.9440  176.2810  137.6010 C   0  0  0  0  0  3  0  0  0  0  0  0
  188.1740  177.8860  139.5310 C   0  0  0  0  0  0  0  0  0  0  0  0
  186.3140  176.0490  135.9700 F   0  0  0  0  0  0  0  0  0  0  0  0
  186.4730  178.2070  137.1280 C   0  0  0  0  0  2  0  0  0  0  0  0
  188.5100  177.2830  144.2130 C   0  0  0  0  0  0  0  0  0  0  0  0
  188.4920  176.3540  143.1610 C   0  0  0  0  0  3  0  0  0  0  0  0
  190.8470  176.7530  144.6130 C   0  0  0  0  0  0  0  0  0  0  0  0
  189.6410  175.6250  142.8440 C   0  0  0  0  0  3  0  0  0  0  0  0
  189.7410  178.4150  145.9710 O   0  0  0  0  0  1  0  0  0  0  0  0
  189.6970  177.4850  144.9360 C   0  0  0  0  0  0  0  0  0  0  0  0
  191.9960  176.9420  145.3080 F   0  0  0  0  0  0  0  0  0  0  0  0
  190.8170  175.8250  143.5700 C   0  0  0  0  0  3  0  0  0  0  0  0
  1 21  1  6  0  0  0
  1 10  1  0  0  0  0
  3  9  2  0  0  0  0
  3  5  1  0  0  0  0
  4  8  1  0  0  0  0
  5 11  2  0  0  0  0
  7  4  1  0  0  0  0
  8  2  2  0  0  0  0
  8  6  1  0  0  0  0
  9  7  1  0  0  0  0
 10  6  1  0  0  0  0
 11  4  1  0  0  0  0
 11  1  1  0  0  0  0
 12 15  2  0  0  0  0
 13 18  2  0  0  0  0
 14 20  1  0  0  0  0
 14 17  2  0  0  0  0
 15  3  1  0  0  0  0
 17 13  1  0  0  0  0
 18 15  1  0  0  0  0
 18 16  1  0  0  0  0
 19 14  1  0  0  0  0
 20 12  1  0  0  0  0
 21 26  1  0  0  0  0
 22 21  2  0  0  0  0
 23 26  2  0  0  0  0
 23 27  1  0  0  0  0
 24 22  1  0  0  0  0
 24 28  2  0  0  0  0
 26 25  1  0  0  0  0
 28 23  1  0  0  0  0
M  END
>  <MODEL>
9

>  <REMARK>
 VINA RESULT:      -9.7      2.545      4.749
  Name = 
  2 active torsions:
  status: ('A' for Active; 'I' for Inactive)
    1  A    between atoms: C_1  and  C_2
    2  A    between atoms: C_10  and  C_13
                            x       y       z     vdW  Elec       q    Type
                         _______ _______ _______ _____ _____    ______ ____

>  <TORSDO>
F 2

$$$$
