=
 OpenBabel10262420243D

 55 61  0  0  1  0  0  0  0  0999 V2000
  187.2490  178.3550  141.8690 C   0  0  0  0  0  2  0  0  0  0  0  0
  184.6750  178.8550  137.8470 C   0  0  0  0  0  2  0  0  0  0  0  0
  187.0720  177.4920  136.6700 O   0  0  0  0  0  0  0  0  0  0  0  0
  190.0150  176.8210  136.6170 C   0  0  0  0  0  3  0  0  0  0  0  0
  190.7940  175.9080  135.9680 C   0  0  0  0  0  3  0  0  0  0  0  0
  190.9110  176.0330  138.7140 C   0  0  0  0  0  0  0  0  0  0  0  0
  191.9120  175.3490  138.0160 C   0  0  0  0  0  3  0  0  0  0  0  0
  188.5560  178.8450  138.0140 C   0  0  0  0  0  2  0  0  0  0  0  0
  191.8180  175.2480  136.6370 C   0  0  0  0  0  3  0  0  0  0  0  0
  185.5280  178.6890  143.6230 C   0  0  0  0  0  3  0  0  0  0  0  0
  190.0610  176.9220  138.0090 C   0  0  0  0  0  0  0  0  0  0  0  0
  183.3930  178.3260  141.9310 C   0  0  0  0  0  0  0  0  0  0  0  0
  187.5510  177.4760  140.6600 C   0  0  0  0  0  2  0  0  0  0  0  0
  184.7040  178.2440  141.4190 C   0  0  0  0  0  3  0  0  0  0  0  0
  190.0300  176.8120  140.8820 C   0  0  2  0  0  3  0  0  0  0  0  0
  183.7500  179.7450  138.7340 C   0  0  0  0  0  2  0  0  0  0  0  0
  191.0950  176.2530  140.0420 O   0  0  0  0  0  0  0  0  0  0  0  0
  186.0670  179.2180  137.9510 N   0  0  0  0  0  2  0  0  0  0  0  0
  187.1780  178.4270  137.5030 C   0  0  0  0  0  0  0  0  0  0  0  0
  184.2270  178.8480  144.1060 C   0  0  0  0  0  3  0  0  0  0  0  0
  182.3770  179.2350  138.8820 C   0  0  1  0  0  3  0  0  0  0  0  0
  185.7800  178.4500  142.2800 C   0  0  0  0  0  0  0  0  0  0  0  0
  189.1760  177.7650  138.7330 N   0  0  0  0  0  0  0  0  0  0  0  0
  189.0140  177.7440  140.2050 C   0  0  1  0  0  3  0  0  0  0  0  0
  181.9380  179.3490  140.3400 C   0  0  0  0  0  2  0  0  0  0  0  0
  182.2470  178.0660  141.0610 C   0  0  0  0  0  2  0  0  0  0  0  0
  183.1610  178.5340  143.2800 C   0  0  0  0  0  3  0  0  0  0  0  0
  189.5830  176.1260  143.1940 C   0  0  0  0  0  3  0  0  0  0  0  0
  190.5560  177.2840  145.0890 C   0  0  0  0  0  0  0  0  0  0  0  0
  191.2540  177.8860  142.8220 C   0  0  0  0  0  3  0  0  0  0  0  0
  191.3040  178.1000  144.1780 C   0  0  0  0  0  3  0  0  0  0  0  0
  189.6820  176.3040  144.5370 C   0  0  0  0  0  3  0  0  0  0  0  0
  190.3260  176.9380  142.3040 C   0  0  0  0  0  0  0  0  0  0  0  0
  190.8470  177.3080  146.4820 C   0  0  0  0  0  0  0  0  0  0  0  0
  192.0840  176.8540  147.0030 O   0  0  0  0  0  0  0  0  0  0  0  0
  189.9550  177.7650  147.3240 O   0  0  0  0  0  1  0  0  0  0  0  0
  181.4970  181.0160  137.8260 O   0  0  0  0  0  0  0  0  0  0  0  0
  181.4240  179.8010  138.0020 C   0  0  0  0  0  0  0  0  0  0  0  0
  180.2530  178.6770  137.2100 S   0  0  0  0  0  0  0  0  0  0  0  0
  181.5670  177.6070  136.4740 C   0  0  2  0  0  3  0  0  0  0  0  0
  182.3280  178.2300  135.4270 F   0  0  0  0  0  0  0  0  0  0  0  0
  181.2550  176.0910  136.4430 C   0  0  2  0  0  3  0  0  0  0  0  0
  179.8720  175.8750  136.3530 O   0  0  0  0  0  1  0  0  0  0  0  0
  181.6920  175.5310  137.9180 C   0  0  2  0  0  3  0  0  0  0  0  0
  184.0800  175.7580  138.0880 O   0  0  0  0  0  0  0  0  0  0  0  0
  184.3370  175.6150  135.7760 O   0  0  0  0  0  1  0  0  0  0  0  0
  184.1280  174.8850  136.9660 C   0  0  1  0  0  0  0  0  0  0  0  0
  183.7280  173.5120  137.3220 C   0  0  1  0  0  0  0  0  0  0  0  0
  183.0980  174.7740  138.0770 C   0  0  2  0  0  0  0  0  0  0  0  0
  183.0100  173.0300  136.2650 O   0  0  0  0  0  1  0  0  0  0  0  0
  185.1320  173.2070  137.5280 C   0  0  0  0  0  2  0  0  0  0  0  0
  185.5930  172.2930  136.6080 O   0  0  0  0  0  1  0  0  0  0  0  0
  180.5120  174.9430  138.6220 C   0  0  0  0  0  0  0  0  0  0  0  0
  179.9270  175.6480  139.5870 C   0  0  0  0  0  2  0  0  0  0  0  0
  180.1370  173.6550  138.4590 O   0  0  0  0  0  1  0  0  0  0  0  0
  1 22  1  0  0  0  0
  2 18  1  0  0  0  0
  2 16  1  0  0  0  0
  3 19  2  0  0  0  0
  4 11  1  0  0  0  0
  5  4  2  0  0  0  0
  5  9  1  0  0  0  0
  6 17  1  0  0  0  0
  7  6  1  0  0  0  0
  8 23  1  0  0  0  0
  9  7  2  0  0  0  0
 10 20  1  0  0  0  0
 11  6  2  0  0  0  0
 11 23  1  0  0  0  0
 12 27  1  0  0  0  0
 13  1  1  0  0  0  0
 14 12  2  0  0  0  0
 14 22  1  0  0  0  0
 15 33  1  1  0  0  0
 16 21  1  0  0  0  0
 17 15  1  0  0  0  0
 19 18  1  0  0  0  0
 19  8  1  0  0  0  0
 21 38  1  6  0  0  0
 21 25  1  0  0  0  0
 22 10  2  0  0  0  0
 23 24  1  0  0  0  0
 24 13  1  6  0  0  0
 24 15  1  0  0  0  0
 25 26  1  0  0  0  0
 26 12  1  0  0  0  0
 27 20  2  0  0  0  0
 28 32  1  0  0  0  0
 29 34  1  0  0  0  0
 30 31  2  0  0  0  0
 31 29  1  0  0  0  0
 32 29  2  0  0  0  0
 33 30  1  0  0  0  0
 33 28  2  0  0  0  0
 34 35  2  0  0  0  0
 34 36  1  0  0  0  0
 37 38  2  0  0  0  0
 39 38  1  0  0  0  0
 40 41  1  6  0  0  0
 40 39  1  0  0  0  0
 42 43  1  1  0  0  0
 42 40  1  0  0  0  0
 42 44  1  0  0  0  0
 44 53  1  6  0  0  0
 47 46  1  6  0  0  0
 47 48  1  0  0  0  0
 47 49  1  0  0  0  0
 47 45  1  0  0  0  0
 48 50  1  6  0  0  0
 48 51  1  0  0  0  0
 48 49  1  0  0  0  0
 49 44  1  6  0  0  0
 49 45  1  0  0  0  0
 52 51  1  0  0  0  0
 53 54  2  0  0  0  0
 55 53  1  0  0  0  0
M  END
>  <MODEL>
1

>  <REMARK>
 VINA RESULT:      -8.3      0.000      0.000
  Name = 
  10 active torsions:
  status: ('A' for Active; 'I' for Inactive)
    1  A    between atoms: C_1  and  C_53
    2  A    between atoms: C_6  and  C_20
    3  A    between atoms: C_6  and  C_53
    4  A    between atoms: C_8  and  S_22
    5  A    between atoms: C_8  and  C_43
    6  A    between atoms: C_10  and  C_32
    7  A    between atoms: C_11  and  C_29
    8  A    between atoms: C_20  and  S_22
    9  A    between atoms: C_33  and  C_52
   10  A    between atoms: C_38  and  C_53
                            x       y       z     vdW  Elec       q    Type
                         _______ _______ _______ _____ _____    ______ ____

>  <TORSDO>
F 10

$$$$
=
 OpenBabel10262420243D

 55 61  0  0  1  0  0  0  0  0999 V2000
  187.2360  178.1050  140.4270 C   0  0  0  0  0  2  0  0  0  0  0  0
  191.8320  176.8370  139.8650 C   0  0  0  0  0  2  0  0  0  0  0  0
  191.6690  176.5930  142.8490 O   0  0  0  0  0  0  0  0  0  0  0  0
  190.5320  177.3530  145.5410 C   0  0  0  0  0  3  0  0  0  0  0  0
  190.5720  176.8250  146.7990 C   0  0  0  0  0  3  0  0  0  0  0  0
  188.1220  177.3440  145.6600 C   0  0  0  0  0  0  0  0  0  0  0  0
  188.2020  177.1150  147.0380 C   0  0  0  0  0  3  0  0  0  0  0  0
  190.3910  178.6380  142.9910 C   0  0  0  0  0  2  0  0  0  0  0  0
  189.4330  176.8040  147.5940 C   0  0  0  0  0  3  0  0  0  0  0  0
  186.3460  177.8330  138.1270 C   0  0  0  0  0  3  0  0  0  0  0  0
  189.3060  177.6420  144.9390 C   0  0  0  0  0  0  0  0  0  0  0  0
  188.4540  176.3120  137.2370 C   0  0  0  0  0  0  0  0  0  0  0  0
  187.9450  177.3160  141.5220 C   0  0  0  0  0  2  0  0  0  0  0  0
  188.4500  176.7770  138.5680 C   0  0  0  0  0  3  0  0  0  0  0  0
  186.7200  177.9040  143.7100 C   0  0  2  0  0  3  0  0  0  0  0  0
  191.6210  177.3080  138.3930 C   0  0  0  0  0  2  0  0  0  0  0  0
  186.9430  177.7950  145.1550 O   0  0  0  0  0  0  0  0  0  0  0  0
  191.3890  177.8110  140.8320 N   0  0  0  0  0  2  0  0  0  0  0  0
  191.1760  177.5700  142.2320 C   0  0  0  0  0  0  0  0  0  0  0  0
  186.3970  177.4360  136.7890 C   0  0  0  0  0  3  0  0  0  0  0  0
  191.7900  176.2470  137.3870 C   0  0  1  0  0  3  0  0  0  0  0  0
  187.3870  177.5650  139.0040 C   0  0  0  0  0  0  0  0  0  0  0  0
  189.2120  178.0680  143.5870 N   0  0  0  0  0  0  0  0  0  0  0  0
  187.9470  178.1660  142.8240 C   0  0  1  0  0  3  0  0  0  0  0  0
  190.6710  176.3330  136.3520 C   0  0  0  0  0  2  0  0  0  0  0  0
  189.5310  175.4430  136.7660 C   0  0  0  0  0  2  0  0  0  0  0  0
  187.3920  176.5620  136.3850 C   0  0  0  0  0  3  0  0  0  0  0  0
  184.4900  178.7330  144.3090 C   0  0  0  0  0  3  0  0  0  0  0  0
  182.7000  178.8970  142.6830 C   0  0  0  0  0  0  0  0  0  0  0  0
  184.9520  178.2930  141.9380 C   0  0  0  0  0  3  0  0  0  0  0  0
  183.6220  178.4940  141.6600 C   0  0  0  0  0  3  0  0  0  0  0  0
  183.1890  178.9890  144.0170 C   0  0  0  0  0  3  0  0  0  0  0  0
  185.3910  178.3360  143.2920 C   0  0  0  0  0  0  0  0  0  0  0  0
  181.4130  179.3960  142.3350 C   0  0  0  0  0  0  0  0  0  0  0  0
  180.7440  178.9990  141.1510 O   0  0  0  0  0  0  0  0  0  0  0  0
  180.8120  180.2490  143.1250 O   0  0  0  0  0  1  0  0  0  0  0  0
  193.8450  177.0990  137.0560 O   0  0  0  0  0  0  0  0  0  0  0  0
  193.0650  176.1910  136.7750 C   0  0  0  0  0  0  0  0  0  0  0  0
  193.4110  174.7800  135.7020 S   0  0  0  0  0  0  0  0  0  0  0  0
  195.2370  175.0570  135.6970 C   0  0  2  0  0  3  0  0  0  0  0  0
  195.6550  176.2720  135.0550 F   0  0  0  0  0  0  0  0  0  0  0  0
  196.1070  173.7780  135.6340 C   0  0  2  0  0  3  0  0  0  0  0  0
  195.6730  172.9380  134.5970 O   0  0  0  0  0  1  0  0  0  0  0  0
  195.7850  172.9690  137.0200 C   0  0  2  0  0  3  0  0  0  0  0  0
  195.6610  173.2660  139.4030 O   0  0  0  0  0  0  0  0  0  0  0  0
  195.0310  175.4970  139.1700 O   0  0  0  0  0  1  0  0  0  0  0  0
  196.1120  174.5900  139.1460 C   0  0  1  0  0  0  0  0  0  0  0  0
  197.5200  174.6150  138.7100 C   0  0  1  0  0  0  0  0  0  0  0  0
  196.5720  173.3760  138.3580 C   0  0  2  0  0  0  0  0  0  0  0  0
  197.6140  175.5850  137.7530 O   0  0  0  0  0  1  0  0  0  0  0  0
  197.8960  174.8330  140.0950 C   0  0  0  0  0  2  0  0  0  0  0  0
  197.0790  175.7590  140.7030 O   0  0  0  0  0  1  0  0  0  0  0  0
  195.6100  171.5100  136.7420 C   0  0  0  0  0  0  0  0  0  0  0  0
  194.4220  170.9550  136.9680 C   0  0  0  0  0  2  0  0  0  0  0  0
  196.6510  170.6950  136.4610 O   0  0  0  0  0  1  0  0  0  0  0  0
  1 13  1  0  0  0  0
  2 18  1  0  0  0  0
  4  5  1  0  0  0  0
  5  9  2  0  0  0  0
  6  7  2  0  0  0  0
  7  9  1  0  0  0  0
  8 23  1  0  0  0  0
 10 22  1  0  0  0  0
 11  4  2  0  0  0  0
 11  6  1  0  0  0  0
 12 14  1  0  0  0  0
 14 22  2  0  0  0  0
 15 33  1  1  0  0  0
 15 17  1  0  0  0  0
 16  2  1  0  0  0  0
 17  6  1  0  0  0  0
 18 19  1  0  0  0  0
 19  3  2  0  0  0  0
 19  8  1  0  0  0  0
 20 10  2  0  0  0  0
 21 38  1  6  0  0  0
 21 16  1  0  0  0  0
 22  1  1  0  0  0  0
 23 11  1  0  0  0  0
 24 13  1  6  0  0  0
 24 23  1  0  0  0  0
 24 15  1  0  0  0  0
 25 26  1  0  0  0  0
 25 21  1  0  0  0  0
 26 12  1  0  0  0  0
 27 20  1  0  0  0  0
 27 12  2  0  0  0  0
 29 32  2  0  0  0  0
 30 33  1  0  0  0  0
 31 30  2  0  0  0  0
 31 29  1  0  0  0  0
 32 28  1  0  0  0  0
 33 28  2  0  0  0  0
 34 29  1  0  0  0  0
 34 36  1  0  0  0  0
 35 34  2  0  0  0  0
 38 37  2  0  0  0  0
 39 38  1  0  0  0  0
 40 41  1  6  0  0  0
 40 39  1  0  0  0  0
 42 43  1  6  0  0  0
 42 40  1  0  0  0  0
 42 44  1  0  0  0  0
 44 53  1  6  0  0  0
 47 46  1  6  0  0  0
 47 45  1  0  0  0  0
 48 50  1  6  0  0  0
 48 47  1  0  0  0  0
 48 51  1  0  0  0  0
 49 44  1  6  0  0  0
 49 48  1  0  0  0  0
 49 47  1  0  0  0  0
 49 45  1  0  0  0  0
 51 52  1  0  0  0  0
 53 54  2  0  0  0  0
 55 53  1  0  0  0  0
M  END
>  <MODEL>
2

>  <REMARK>
 VINA RESULT:      -7.9      4.516     10.290
  Name = 
  10 active torsions:
  status: ('A' for Active; 'I' for Inactive)
    1  A    between atoms: C_1  and  C_53
    2  A    between atoms: C_6  and  C_20
    3  A    between atoms: C_6  and  C_53
    4  A    between atoms: C_8  and  S_22
    5  A    between atoms: C_8  and  C_43
    6  A    between atoms: C_10  and  C_32
    7  A    between atoms: C_11  and  C_29
    8  A    between atoms: C_20  and  S_22
    9  A    between atoms: C_33  and  C_52
   10  A    between atoms: C_38  and  C_53
                            x       y       z     vdW  Elec       q    Type
                         _______ _______ _______ _____ _____    ______ ____

>  <TORSDO>
F 10

$$$$
=
 OpenBabel10262420243D

 55 61  0  0  1  0  0  0  0  0999 V2000
  186.6050  178.6370  142.1340 C   0  0  0  0  0  2  0  0  0  0  0  0
  183.9770  178.9580  138.1290 C   0  0  0  0  0  2  0  0  0  0  0  0
  186.3630  177.5520  136.9790 O   0  0  0  0  0  0  0  0  0  0  0  0
  189.3070  176.8880  136.9170 C   0  0  0  0  0  3  0  0  0  0  0  0
  190.0810  175.9490  136.2980 C   0  0  0  0  0  3  0  0  0  0  0  0
  190.2330  176.1920  139.0340 C   0  0  0  0  0  0  0  0  0  0  0  0
  191.2270  175.4810  138.3530 C   0  0  0  0  0  3  0  0  0  0  0  0
  187.8590  178.9660  138.2450 C   0  0  0  0  0  2  0  0  0  0  0  0
  191.1150  175.3220  136.9810 C   0  0  0  0  0  3  0  0  0  0  0  0
  184.9050  179.0410  143.8950 C   0  0  0  0  0  3  0  0  0  0  0  0
  189.3710  177.0480  138.3020 C   0  0  0  0  0  0  0  0  0  0  0  0
  182.7500  178.6000  142.2490 C   0  0  0  0  0  0  0  0  0  0  0  0
  186.8940  177.7080  140.9610 C   0  0  0  0  0  2  0  0  0  0  0  0
  184.0540  178.5000  141.7230 C   0  0  0  0  0  3  0  0  0  0  0  0
  189.3770  177.0610  141.1780 C   0  0  2  0  0  3  0  0  0  0  0  0
  183.0610  179.8820  138.9890 C   0  0  0  0  0  2  0  0  0  0  0  0
  190.4330  176.4700  140.3490 O   0  0  0  0  0  0  0  0  0  0  0  0
  185.3680  179.3290  138.1990 N   0  0  0  0  0  2  0  0  0  0  0  0
  186.4770  178.5220  137.7710 C   0  0  0  0  0  0  0  0  0  0  0  0
  183.6100  179.2170  144.3880 C   0  0  0  0  0  3  0  0  0  0  0  0
  181.6920  179.3750  139.1770 C   0  0  1  0  0  3  0  0  0  0  0  0
  185.1400  178.7460  142.5610 C   0  0  0  0  0  0  0  0  0  0  0  0
  188.4920  177.9180  139.0020 N   0  0  0  0  0  0  0  0  0  0  0  0
  188.3500  177.9600  140.4750 C   0  0  1  0  0  3  0  0  0  0  0  0
  181.2700  179.5500  140.6340 C   0  0  0  0  0  2  0  0  0  0  0  0
  181.5930  178.3000  141.4060 C   0  0  0  0  0  2  0  0  0  0  0  0
  182.5340  178.8650  143.5900 C   0  0  0  0  0  3  0  0  0  0  0  0
  189.3370  176.2030  143.4750 C   0  0  0  0  0  3  0  0  0  0  0  0
  189.9460  177.5830  145.3740 C   0  0  0  0  0  0  0  0  0  0  0  0
  190.2530  178.4510  143.1060 C   0  0  0  0  0  3  0  0  0  0  0  0
  190.3030  178.6340  144.4660 C   0  0  0  0  0  3  0  0  0  0  0  0
  189.4450  176.3700  144.8190 C   0  0  0  0  0  3  0  0  0  0  0  0
  189.6920  177.2490  142.5890 C   0  0  0  0  0  0  0  0  0  0  0  0
  190.2890  177.6740  146.7510 C   0  0  0  0  0  0  0  0  0  0  0  0
  191.5000  177.1470  147.2640 O   0  0  0  0  0  0  0  0  0  0  0  0
  189.4730  178.2650  147.5870 O   0  0  0  0  0  1  0  0  0  0  0  0
  180.7380  181.1190  138.1230 O   0  0  0  0  0  0  0  0  0  0  0  0
  180.7250  179.9010  138.2860 C   0  0  0  0  0  0  0  0  0  0  0  0
  179.6280  178.7260  137.4630 S   0  0  0  0  0  0  0  0  0  0  0  0
  180.8420  178.3110  136.1350 C   0  0  2  0  0  3  0  0  0  0  0  0
  181.5250  179.4430  135.5750 F   0  0  0  0  0  0  0  0  0  0  0  0
  180.4880  177.0790  135.2670 C   0  0  2  0  0  3  0  0  0  0  0  0
  179.1400  176.7300  135.4350 O   0  0  0  0  0  1  0  0  0  0  0  0
  181.3460  175.8400  135.9060 C   0  0  2  0  0  3  0  0  0  0  0  0
  182.3940  174.7980  137.8030 O   0  0  0  0  0  0  0  0  0  0  0  0
  181.1250  172.8620  137.5390 O   0  0  0  0  0  1  0  0  0  0  0  0
  181.1290  174.1870  138.0220 C   0  0  1  0  0  0  0  0  0  0  0  0
  180.1210  175.1620  138.4780 C   0  0  1  0  0  0  0  0  0  0  0  0
  181.3030  175.6000  137.4920 C   0  0  2  0  0  0  0  0  0  0  0  0
  178.9440  174.8140  137.8810 O   0  0  0  0  0  1  0  0  0  0  0  0
  180.4540  174.7960  139.8430 C   0  0  0  0  0  2  0  0  0  0  0  0
  179.6360  173.7950  140.3140 O   0  0  0  0  0  1  0  0  0  0  0  0
  182.6740  175.7230  135.2290 C   0  0  0  0  0  0  0  0  0  0  0  0
  183.0370  174.5430  134.7330 C   0  0  0  0  0  2  0  0  0  0  0  0
  183.6000  176.7060  135.2730 O   0  0  0  0  0  1  0  0  0  0  0  0
  1 22  1  0  0  0  0
  2 18  1  0  0  0  0
  2 16  1  0  0  0  0
  3 19  2  0  0  0  0
  4 11  1  0  0  0  0
  5  4  2  0  0  0  0
  5  9  1  0  0  0  0
  6 17  1  0  0  0  0
  7  6  1  0  0  0  0
  8 23  1  0  0  0  0
  9  7  2  0  0  0  0
 10 20  1  0  0  0  0
 11 23  1  0  0  0  0
 11  6  2  0  0  0  0
 12 27  1  0  0  0  0
 13  1  1  0  0  0  0
 14 12  2  0  0  0  0
 14 22  1  0  0  0  0
 15 33  1  1  0  0  0
 16 21  1  0  0  0  0
 17 15  1  0  0  0  0
 19 18  1  0  0  0  0
 19  8  1  0  0  0  0
 21 38  1  6  0  0  0
 21 25  1  0  0  0  0
 22 10  2  0  0  0  0
 23 24  1  0  0  0  0
 24 13  1  6  0  0  0
 24 15  1  0  0  0  0
 25 26  1  0  0  0  0
 26 12  1  0  0  0  0
 27 20  2  0  0  0  0
 28 32  1  0  0  0  0
 29 34  1  0  0  0  0
 30 31  2  0  0  0  0
 31 29  1  0  0  0  0
 32 29  2  0  0  0  0
 33 30  1  0  0  0  0
 33 28  2  0  0  0  0
 34 35  2  0  0  0  0
 34 36  1  0  0  0  0
 37 38  2  0  0  0  0
 39 38  1  0  0  0  0
 40 41  1  6  0  0  0
 40 39  1  0  0  0  0
 42 43  1  1  0  0  0
 42 44  1  0  0  0  0
 42 40  1  0  0  0  0
 44 53  1  1  0  0  0
 45 47  1  0  0  0  0
 47 46  1  6  0  0  0
 47 48  1  0  0  0  0
 48 50  1  6  0  0  0
 48 51  1  0  0  0  0
 49 44  1  6  0  0  0
 49 45  1  0  0  0  0
 49 47  1  0  0  0  0
 49 48  1  0  0  0  0
 51 52  1  0  0  0  0
 53 55  1  0  0  0  0
 54 53  2  0  0  0  0
M  END
>  <MODEL>
3

>  <REMARK>
 VINA RESULT:      -7.4      1.304      2.251
  Name = 
  10 active torsions:
  status: ('A' for Active; 'I' for Inactive)
    1  A    between atoms: C_1  and  C_53
    2  A    between atoms: C_6  and  C_20
    3  A    between atoms: C_6  and  C_53
    4  A    between atoms: C_8  and  S_22
    5  A    between atoms: C_8  and  C_43
    6  A    between atoms: C_10  and  C_32
    7  A    between atoms: C_11  and  C_29
    8  A    between atoms: C_20  and  S_22
    9  A    between atoms: C_33  and  C_52
   10  A    between atoms: C_38  and  C_53
                            x       y       z     vdW  Elec       q    Type
                         _______ _______ _______ _____ _____    ______ ____

>  <TORSDO>
F 10

$$$$
=
 OpenBabel10262420243D

 55 61  0  0  1  0  0  0  0  0999 V2000
  186.3450  178.2250  138.4150 C   0  0  0  0  0  2  0  0  0  0  0  0
  190.8240  176.5350  138.7740 C   0  0  0  0  0  2  0  0  0  0  0  0
  190.1580  176.6410  141.6960 O   0  0  0  0  0  0  0  0  0  0  0  0
  188.6810  177.7880  144.0660 C   0  0  0  0  0  3  0  0  0  0  0  0
  188.4660  177.4030  145.3580 C   0  0  0  0  0  3  0  0  0  0  0  0
  186.2950  177.9880  143.7720 C   0  0  0  0  0  0  0  0  0  0  0  0
  186.1280  177.9090  145.1590 C   0  0  0  0  0  3  0  0  0  0  0  0
  189.0810  178.7860  141.4170 C   0  0  0  0  0  2  0  0  0  0  0  0
  187.2170  177.5640  145.9450 C   0  0  0  0  0  3  0  0  0  0  0  0
  185.8150  177.7700  136.0350 C   0  0  0  0  0  3  0  0  0  0  0  0
  187.6040  178.1060  143.2380 C   0  0  0  0  0  0  0  0  0  0  0  0
  187.8790  175.9930  135.6700 C   0  0  0  0  0  0  0  0  0  0  0  0
  186.7860  177.5090  139.6870 C   0  0  0  0  0  2  0  0  0  0  0  0
  187.7070  176.6030  136.9290 C   0  0  0  0  0  3  0  0  0  0  0  0
  185.2880  178.4360  141.5650 C   0  0  2  0  0  3  0  0  0  0  0  0
  190.9010  176.8530  137.2490 C   0  0  0  0  0  2  0  0  0  0  0  0
  185.2640  178.4730  143.0320 O   0  0  0  0  0  0  0  0  0  0  0  0
  190.3280  177.6440  139.5520 N   0  0  0  0  0  2  0  0  0  0  0  0
  189.8700  177.5800  140.9110 C   0  0  0  0  0  0  0  0  0  0  0  0
  186.0420  177.2220  134.7700 C   0  0  0  0  0  3  0  0  0  0  0  0
  191.1240  175.6750  136.3940 C   0  0  1  0  0  3  0  0  0  0  0  0
  186.6700  177.5190  137.0990 C   0  0  0  0  0  0  0  0  0  0  0  0
  187.7710  178.3840  141.8550 N   0  0  0  0  0  0  0  0  0  0  0  0
  186.6620  178.4970  140.8820 C   0  0  1  0  0  3  0  0  0  0  0  0
  190.2010  175.7350  135.1800 C   0  0  0  0  0  2  0  0  0  0  0  0
  188.9280  174.9920  135.4770 C   0  0  0  0  0  2  0  0  0  0  0  0
  186.9990  176.2310  134.6290 C   0  0  0  0  0  3  0  0  0  0  0  0
  182.8410  178.5570  141.4360 C   0  0  0  0  0  3  0  0  0  0  0  0
  181.7010  179.5210  139.5260 C   0  0  0  0  0  0  0  0  0  0  0  0
  184.1400  179.6680  139.6730 C   0  0  0  0  0  3  0  0  0  0  0  0
  182.9750  179.8880  138.9790 C   0  0  0  0  0  3  0  0  0  0  0  0
  181.6890  178.8310  140.7720 C   0  0  0  0  0  3  0  0  0  0  0  0
  184.0940  178.9240  140.8860 C   0  0  0  0  0  0  0  0  0  0  0  0
  180.5000  180.0240  138.9520 C   0  0  0  0  0  0  0  0  0  0  0  0
  180.2720  181.4100  138.7710 O   0  0  0  0  0  1  0  0  0  0  0  0
  179.5660  179.1910  138.5690 O   0  0  0  0  0  0  0  0  0  0  0  0
  193.2630  176.3590  136.2490 O   0  0  0  0  0  0  0  0  0  0  0  0
  192.4700  175.4480  136.0180 C   0  0  0  0  0  0  0  0  0  0  0  0
  192.8710  173.8440  135.2930 S   0  0  0  0  0  0  0  0  0  0  0  0
  194.6950  174.1340  135.3190 C   0  0  2  0  0  3  0  0  0  0  0  0
  195.1250  175.2970  134.5950 F   0  0  0  0  0  0  0  0  0  0  0  0
  195.5740  172.8610  135.3820 C   0  0  2  0  0  3  0  0  0  0  0  0
  195.0180  171.8400  134.5960 O   0  0  0  0  0  1  0  0  0  0  0  0
  195.4620  172.3360  136.9280 C   0  0  2  0  0  3  0  0  0  0  0  0
  195.7120  173.1690  139.1700 O   0  0  0  0  0  0  0  0  0  0  0  0
  195.2560  175.3520  138.4930 O   0  0  0  0  0  1  0  0  0  0  0  0
  196.2370  174.3390  138.5540 C   0  0  1  0  0  0  0  0  0  0  0  0
  197.5630  174.0960  137.9570 C   0  0  1  0  0  0  0  0  0  0  0  0
  196.4670  172.9330  138.0270 C   0  0  2  0  0  0  0  0  0  0  0  0
  197.6020  174.8100  136.7940 O   0  0  0  0  0  1  0  0  0  0  0  0
  198.1540  174.5710  139.1960 C   0  0  0  0  0  2  0  0  0  0  0  0
  198.8980  175.7120  138.9990 O   0  0  0  0  0  1  0  0  0  0  0  0
  195.2040  170.8630  136.9610 C   0  0  0  0  0  0  0  0  0  0  0  0
  196.0960  170.0720  137.5530 C   0  0  0  0  0  2  0  0  0  0  0  0
  194.2130  170.2840  136.2490 O   0  0  0  0  0  1  0  0  0  0  0  0
  1 13  1  0  0  0  0
  2 18  1  0  0  0  0
  4  5  1  0  0  0  0
  5  9  2  0  0  0  0
  6  7  2  0  0  0  0
  7  9  1  0  0  0  0
  8 23  1  0  0  0  0
 10 22  1  0  0  0  0
 11  6  1  0  0  0  0
 11  4  2  0  0  0  0
 12 14  1  0  0  0  0
 14 22  2  0  0  0  0
 15 33  1  6  0  0  0
 15 17  1  0  0  0  0
 16  2  1  0  0  0  0
 17  6  1  0  0  0  0
 18 19  1  0  0  0  0
 19  8  1  0  0  0  0
 19  3  2  0  0  0  0
 20 10  2  0  0  0  0
 21 38  1  6  0  0  0
 21 16  1  0  0  0  0
 22  1  1  0  0  0  0
 23 11  1  0  0  0  0
 24 13  1  6  0  0  0
 24 15  1  0  0  0  0
 24 23  1  0  0  0  0
 25 26  1  0  0  0  0
 25 21  1  0  0  0  0
 26 12  1  0  0  0  0
 27 20  1  0  0  0  0
 27 12  2  0  0  0  0
 29 32  1  0  0  0  0
 30 33  2  0  0  0  0
 31 29  2  0  0  0  0
 31 30  1  0  0  0  0
 32 28  2  0  0  0  0
 33 28  1  0  0  0  0
 34 29  1  0  0  0  0
 35 34  1  0  0  0  0
 36 34  2  0  0  0  0
 38 37  2  0  0  0  0
 39 40  1  0  0  0  0
 39 38  1  0  0  0  0
 40 41  1  6  0  0  0
 40 42  1  0  0  0  0
 42 43  1  6  0  0  0
 42 44  1  0  0  0  0
 44 53  1  6  0  0  0
 47 46  1  6  0  0  0
 47 45  1  0  0  0  0
 48 50  1  6  0  0  0
 48 49  1  0  0  0  0
 48 47  1  0  0  0  0
 48 51  1  0  0  0  0
 49 44  1  6  0  0  0
 49 47  1  0  0  0  0
 49 45  1  0  0  0  0
 52 51  1  0  0  0  0
 53 54  2  0  0  0  0
 55 53  1  0  0  0  0
M  END
>  <MODEL>
4

>  <REMARK>
 VINA RESULT:      -6.3      4.410     10.529
  Name = 
  10 active torsions:
  status: ('A' for Active; 'I' for Inactive)
    1  A    between atoms: C_1  and  C_53
    2  A    between atoms: C_6  and  C_20
    3  A    between atoms: C_6  and  C_53
    4  A    between atoms: C_8  and  S_22
    5  A    between atoms: C_8  and  C_43
    6  A    between atoms: C_10  and  C_32
    7  A    between atoms: C_11  and  C_29
    8  A    between atoms: C_20  and  S_22
    9  A    between atoms: C_33  and  C_52
   10  A    between atoms: C_38  and  C_53
                            x       y       z     vdW  Elec       q    Type
                         _______ _______ _______ _____ _____    ______ ____

>  <TORSDO>
F 10

$$$$
=
 OpenBabel10262420243D

 55 61  0  0  1  0  0  0  0  0999 V2000
  185.7630  178.1990  138.3710 C   0  0  0  0  0  2  0  0  0  0  0  0
  190.2150  176.4220  138.6310 C   0  0  0  0  0  2  0  0  0  0  0  0
  189.6340  176.5880  141.5690 O   0  0  0  0  0  0  0  0  0  0  0  0
  188.2500  177.8030  143.9600 C   0  0  0  0  0  3  0  0  0  0  0  0
  188.0630  177.4440  145.2640 C   0  0  0  0  0  3  0  0  0  0  0  0
  185.8610  178.0480  143.7300 C   0  0  0  0  0  0  0  0  0  0  0  0
  185.7320  177.9950  145.1220 C   0  0  0  0  0  3  0  0  0  0  0  0
  188.5940  178.7510  141.2840 C   0  0  0  0  0  2  0  0  0  0  0  0
  186.8350  177.6400  145.8830 C   0  0  0  0  0  3  0  0  0  0  0  0
  185.1570  177.7160  136.0150 C   0  0  0  0  0  3  0  0  0  0  0  0
  187.1560  178.1310  143.1580 C   0  0  0  0  0  0  0  0  0  0  0  0
  187.1730  175.8910  135.6210 C   0  0  0  0  0  0  0  0  0  0  0  0
  186.2260  177.4940  139.6410 C   0  0  0  0  0  2  0  0  0  0  0  0
  187.0480  176.5240  136.8750 C   0  0  0  0  0  3  0  0  0  0  0  0
  184.8010  178.4820  141.5460 C   0  0  2  0  0  3  0  0  0  0  0  0
  190.2550  176.7130  137.1000 C   0  0  0  0  0  2  0  0  0  0  0  0
  184.8190  178.5420  143.0110 O   0  0  0  0  0  0  0  0  0  0  0  0
  189.7640  177.5530  139.4040 N   0  0  0  0  0  2  0  0  0  0  0  0
  189.3440  177.5200  140.7770 C   0  0  0  0  0  0  0  0  0  0  0  0
  185.3360  177.1430  134.7530 C   0  0  0  0  0  3  0  0  0  0  0  0
  190.4300  175.5180  136.2590 C   0  0  1  0  0  3  0  0  0  0  0  0
  186.0360  177.4640  137.0580 C   0  0  0  0  0  0  0  0  0  0  0  0
  187.2890  178.3830  141.7660 N   0  0  0  0  0  0  0  0  0  0  0  0
  186.1550  178.5030  140.8230 C   0  0  1  0  0  3  0  0  0  0  0  0
  189.4740  175.5770  135.0700 C   0  0  0  0  0  2  0  0  0  0  0  0
  188.1950  174.8660  135.4160 C   0  0  0  0  0  2  0  0  0  0  0  0
  186.2680  176.1300  134.6020 C   0  0  0  0  0  3  0  0  0  0  0  0
  182.3630  178.7580  141.5490 C   0  0  0  0  0  3  0  0  0  0  0  0
  181.1630  179.6100  139.6220 C   0  0  0  0  0  0  0  0  0  0  0  0
  183.6110  179.6030  139.6100 C   0  0  0  0  0  3  0  0  0  0  0  0
  182.4200  179.8350  138.9670 C   0  0  0  0  0  3  0  0  0  0  0  0
  181.1890  179.0460  140.9300 C   0  0  0  0  0  3  0  0  0  0  0  0
  183.5980  178.9840  140.8920 C   0  0  0  0  0  0  0  0  0  0  0  0
  179.9620  180.1370  139.0720 C   0  0  0  0  0  0  0  0  0  0  0  0
  179.3590  181.3190  139.5670 O   0  0  0  0  0  1  0  0  0  0  0  0
  179.3810  179.5230  138.0720 O   0  0  0  0  0  0  0  0  0  0  0  0
  192.2380  176.0320  135.0230 O   0  0  0  0  0  0  0  0  0  0  0  0
  191.7600  175.2570  135.8490 C   0  0  0  0  0  0  0  0  0  0  0  0
  192.6060  173.8580  136.6150 S   0  0  0  0  0  0  0  0  0  0  0  0
  194.1850  174.7800  136.8770 C   0  0  2  0  0  3  0  0  0  0  0  0
  194.0820  175.8990  137.7710 F   0  0  0  0  0  0  0  0  0  0  0  0
  195.1520  174.8080  135.6670 C   0  0  2  0  0  3  0  0  0  0  0  0
  194.6350  174.0480  134.6070 O   0  0  0  0  0  1  0  0  0  0  0  0
  196.4920  174.0120  136.1680 C   0  0  2  0  0  3  0  0  0  0  0  0
  197.5540  172.5620  137.7650 O   0  0  0  0  0  0  0  0  0  0  0  0
  198.2610  171.1050  136.0890 O   0  0  0  0  0  1  0  0  0  0  0  0
  197.1720  171.5080  136.8900 C   0  0  1  0  0  0  0  0  0  0  0  0
  195.7140  171.2870  136.9030 C   0  0  1  0  0  0  0  0  0  0  0  0
  196.3270  172.7450  137.1390 C   0  0  2  0  0  0  0  0  0  0  0  0
  195.3540  170.9910  135.6200 O   0  0  0  0  0  1  0  0  0  0  0  0
  195.9250  170.2710  137.9190 C   0  0  0  0  0  2  0  0  0  0  0  0
  194.7850  170.0450  138.6560 O   0  0  0  0  0  1  0  0  0  0  0  0
  197.5850  174.9810  136.4820 C   0  0  0  0  0  0  0  0  0  0  0  0
  198.5180  175.2130  135.5620 C   0  0  0  0  0  2  0  0  0  0  0  0
  197.7790  175.4810  137.7230 O   0  0  0  0  0  1  0  0  0  0  0  0
  1 13  1  0  0  0  0
  2 18  1  0  0  0  0
  4  5  1  0  0  0  0
  5  9  2  0  0  0  0
  6  7  2  0  0  0  0
  7  9  1  0  0  0  0
  8 23  1  0  0  0  0
 10 22  1  0  0  0  0
 11  6  1  0  0  0  0
 11  4  2  0  0  0  0
 12 14  1  0  0  0  0
 14 22  2  0  0  0  0
 15 33  1  6  0  0  0
 15 17  1  0  0  0  0
 16  2  1  0  0  0  0
 17  6  1  0  0  0  0
 18 19  1  0  0  0  0
 19  8  1  0  0  0  0
 19  3  2  0  0  0  0
 20 10  2  0  0  0  0
 21 38  1  6  0  0  0
 21 16  1  0  0  0  0
 22  1  1  0  0  0  0
 23 11  1  0  0  0  0
 24 13  1  6  0  0  0
 24 15  1  0  0  0  0
 24 23  1  0  0  0  0
 25 26  1  0  0  0  0
 25 21  1  0  0  0  0
 26 12  1  0  0  0  0
 27 20  1  0  0  0  0
 27 12  2  0  0  0  0
 29 32  2  0  0  0  0
 30 33  1  0  0  0  0
 31 30  2  0  0  0  0
 31 29  1  0  0  0  0
 32 28  1  0  0  0  0
 33 28  2  0  0  0  0
 34 35  1  0  0  0  0
 34 29  1  0  0  0  0
 36 34  2  0  0  0  0
 37 38  2  0  0  0  0
 38 39  1  0  0  0  0
 39 40  1  0  0  0  0
 40 41  1  6  0  0  0
 42 43  1  6  0  0  0
 42 44  1  0  0  0  0
 42 40  1  0  0  0  0
 44 53  1  1  0  0  0
 47 46  1  6  0  0  0
 47 48  1  0  0  0  0
 47 49  1  0  0  0  0
 47 45  1  0  0  0  0
 48 50  1  6  0  0  0
 48 49  1  0  0  0  0
 48 51  1  0  0  0  0
 49 44  1  6  0  0  0
 49 45  1  0  0  0  0
 51 52  1  0  0  0  0
 53 55  1  0  0  0  0
 54 53  2  0  0  0  0
M  END
>  <MODEL>
5

>  <REMARK>
 VINA RESULT:      -6.2      4.573     10.601
  Name = 
  10 active torsions:
  status: ('A' for Active; 'I' for Inactive)
    1  A    between atoms: C_1  and  C_53
    2  A    between atoms: C_6  and  C_20
    3  A    between atoms: C_6  and  C_53
    4  A    between atoms: C_8  and  S_22
    5  A    between atoms: C_8  and  C_43
    6  A    between atoms: C_10  and  C_32
    7  A    between atoms: C_11  and  C_29
    8  A    between atoms: C_20  and  S_22
    9  A    between atoms: C_33  and  C_52
   10  A    between atoms: C_38  and  C_53
                            x       y       z     vdW  Elec       q    Type
                         _______ _______ _______ _____ _____    ______ ____

>  <TORSDO>
F 10

$$$$
=
 OpenBabel10262420243D

 55 61  0  0  1  0  0  0  0  0999 V2000
  186.9380  177.6210  142.3400 C   0  0  0  0  0  2  0  0  0  0  0  0
  185.6800  177.8980  137.7150 C   0  0  0  0  0  2  0  0  0  0  0  0
  183.1090  178.8510  138.9300 O   0  0  0  0  0  0  0  0  0  0  0  0
  181.0710  178.9460  141.1540 C   0  0  0  0  0  3  0  0  0  0  0  0
  180.0000  179.7350  141.4610 C   0  0  0  0  0  3  0  0  0  0  0  0
  181.9810  179.4050  143.3420 C   0  0  0  0  0  0  0  0  0  0  0  0
  180.7450  179.9290  143.7340 C   0  0  0  0  0  3  0  0  0  0  0  0
  183.2370  177.1500  140.6410 C   0  0  0  0  0  2  0  0  0  0  0  0
  179.7710  180.1390  142.7710 C   0  0  0  0  0  3  0  0  0  0  0  0
  189.4120  177.5060  142.1920 C   0  0  0  0  0  3  0  0  0  0  0  0
  182.0870  178.7450  142.0910 C   0  0  0  0  0  0  0  0  0  0  0  0
  189.5320  178.3860  139.5910 C   0  0  0  0  0  0  0  0  0  0  0  0
  185.7680  178.5050  141.9240 C   0  0  0  0  0  2  0  0  0  0  0  0
  188.2770  178.2490  140.2170 C   0  0  0  0  0  3  0  0  0  0  0  0
  184.2420  178.6640  143.9920 C   0  0  2  0  0  3  0  0  0  0  0  0
  187.0220  177.1440  137.4650 C   0  0  0  0  0  2  0  0  0  0  0  0
  182.8670  179.0640  144.3140 O   0  0  0  0  0  0  0  0  0  0  0  0
  184.8650  177.2670  138.7250 N   0  0  0  0  0  2  0  0  0  0  0  0
  183.7340  177.8590  139.3830 C   0  0  0  0  0  0  0  0  0  0  0  0
  190.6450  177.5670  141.5380 C   0  0  0  0  0  3  0  0  0  0  0  0
  188.0010  177.8970  136.6640 C   0  0  1  0  0  3  0  0  0  0  0  0
  188.2240  177.7820  141.5290 C   0  0  0  0  0  0  0  0  0  0  0  0
  183.2780  178.0410  141.7710 N   0  0  0  0  0  0  0  0  0  0  0  0
  184.4820  177.9930  142.6320 C   0  0  1  0  0  3  0  0  0  0  0  0
  189.3880  177.7710  137.2890 C   0  0  0  0  0  2  0  0  0  0  0  0
  189.6210  178.9190  138.2330 C   0  0  0  0  0  2  0  0  0  0  0  0
  190.7090  178.1360  140.2770 C   0  0  0  0  0  3  0  0  0  0  0  0
  185.2000  179.3780  146.1350 C   0  0  0  0  0  3  0  0  0  0  0  0
  186.9880  178.1470  147.2170 C   0  0  0  0  0  0  0  0  0  0  0  0
  185.9320  177.2240  145.2110 C   0  0  0  0  0  3  0  0  0  0  0  0
  186.8930  177.1510  146.1890 C   0  0  0  0  0  3  0  0  0  0  0  0
  186.1140  179.2690  147.1340 C   0  0  0  0  0  3  0  0  0  0  0  0
  185.1170  178.3880  145.1260 C   0  0  0  0  0  0  0  0  0  0  0  0
  187.7680  177.9070  148.3820 C   0  0  0  0  0  0  0  0  0  0  0  0
  189.1840  177.9510  148.3650 O   0  0  0  0  0  0  0  0  0  0  0  0
  187.1750  177.6380  149.5170 O   0  0  0  0  0  1  0  0  0  0  0  0
  186.9810  177.8020  134.6600 O   0  0  0  0  0  0  0  0  0  0  0  0
  188.0190  177.5850  135.2830 C   0  0  0  0  0  0  0  0  0  0  0  0
  189.5640  176.9540  134.5940 S   0  0  0  0  0  0  0  0  0  0  0  0
  189.0930  175.1800  134.8010 C   0  0  2  0  0  3  0  0  0  0  0  0
  187.8750  174.9680  135.5310 F   0  0  0  0  0  0  0  0  0  0  0  0
  190.2720  174.1830  134.9040 C   0  0  2  0  0  3  0  0  0  0  0  0
  189.9110  173.0720  135.6820 O   0  0  0  0  0  1  0  0  0  0  0  0
  191.4260  174.9650  135.7620 C   0  0  2  0  0  3  0  0  0  0  0  0
  193.2820  173.9750  134.5960 O   0  0  0  0  0  0  0  0  0  0  0  0
  194.3670  173.4670  136.5950 O   0  0  0  0  0  1  0  0  0  0  0  0
  194.0750  174.4840  135.6610 C   0  0  1  0  0  0  0  0  0  0  0  0
  194.1780  175.9540  135.6140 C   0  0  1  0  0  0  0  0  0  0  0  0
  192.8650  175.2040  135.0920 C   0  0  2  0  0  0  0  0  0  0  0  0
  194.1430  176.3890  136.9080 O   0  0  0  0  0  1  0  0  0  0  0  0
  195.4130  175.7950  134.8670 C   0  0  0  0  0  2  0  0  0  0  0  0
  196.5010  176.2370  135.5840 O   0  0  0  0  0  1  0  0  0  0  0  0
  191.3980  174.5270  137.1910 C   0  0  0  0  0  0  0  0  0  0  0  0
  190.8690  175.3450  138.0980 C   0  0  0  0  0  2  0  0  0  0  0  0
  192.0570  173.4320  137.6280 O   0  0  0  0  0  1  0  0  0  0  0  0
  2 18  1  0  0  0  0
  3 19  2  0  0  0  0
  4  5  2  0  0  0  0
  4 11  1  0  0  0  0
  5  9  1  0  0  0  0
  6  7  1  0  0  0  0
  6 17  1  0  0  0  0
  8 23  1  0  0  0  0
  9  7  2  0  0  0  0
 11  6  2  0  0  0  0
 12 14  2  0  0  0  0
 12 27  1  0  0  0  0
 13  1  1  0  0  0  0
 14 22  1  0  0  0  0
 15 17  1  0  0  0  0
 15 33  1  1  0  0  0
 16  2  1  0  0  0  0
 18 19  1  0  0  0  0
 19  8  1  0  0  0  0
 20 10  1  0  0  0  0
 21 38  1  6  0  0  0
 21 25  1  0  0  0  0
 21 16  1  0  0  0  0
 22 10  2  0  0  0  0
 22  1  1  0  0  0  0
 23 11  1  0  0  0  0
 23 24  1  0  0  0  0
 24 13  1  6  0  0  0
 24 15  1  0  0  0  0
 25 26  1  0  0  0  0
 26 12  1  0  0  0  0
 27 20  2  0  0  0  0
 28 32  1  0  0  0  0
 29 34  1  0  0  0  0
 30 31  2  0  0  0  0
 31 29  1  0  0  0  0
 32 29  2  0  0  0  0
 33 30  1  0  0  0  0
 33 28  2  0  0  0  0
 34 36  1  0  0  0  0
 35 34  2  0  0  0  0
 37 38  2  0  0  0  0
 39 40  1  0  0  0  0
 39 38  1  0  0  0  0
 40 42  1  0  0  0  0
 40 41  1  1  0  0  0
 42 43  1  1  0  0  0
 42 44  1  0  0  0  0
 44 53  1  1  0  0  0
 45 49  1  0  0  0  0
 45 47  1  0  0  0  0
 47 46  1  1  0  0  0
 48 47  1  0  0  0  0
 48 50  1  1  0  0  0
 49 48  1  0  0  0  0
 49 47  1  0  0  0  0
 49 44  1  1  0  0  0
 51 52  1  0  0  0  0
 51 48  1  0  0  0  0
 53 55  1  0  0  0  0
 53 54  2  0  0  0  0
M  END
>  <MODEL>
6

>  <REMARK>
 VINA RESULT:      -5.9      3.265      8.163
  Name = 
  10 active torsions:
  status: ('A' for Active; 'I' for Inactive)
    1  A    between atoms: C_1  and  C_53
    2  A    between atoms: C_6  and  C_20
    3  A    between atoms: C_6  and  C_53
    4  A    between atoms: C_8  and  S_22
    5  A    between atoms: C_8  and  C_43
    6  A    between atoms: C_10  and  C_32
    7  A    between atoms: C_11  and  C_29
    8  A    between atoms: C_20  and  S_22
    9  A    between atoms: C_33  and  C_52
   10  A    between atoms: C_38  and  C_53
                            x       y       z     vdW  Elec       q    Type
                         _______ _______ _______ _____ _____    ______ ____

>  <TORSDO>
F 10

$$$$
=
 OpenBabel10262420243D

 55 61  0  0  1  0  0  0  0  0999 V2000
  186.8860  177.5110  141.2520 C   0  0  0  0  0  2  0  0  0  0  0  0
  187.8760  176.5910  136.6460 C   0  0  0  0  0  2  0  0  0  0  0  0
  185.1620  177.8120  136.2780 O   0  0  0  0  0  0  0  0  0  0  0  0
  182.3690  178.4640  137.2190 C   0  0  0  0  0  3  0  0  0  0  0  0
  181.3730  179.3000  136.8060 C   0  0  0  0  0  3  0  0  0  0  0  0
  182.2480  179.4700  139.4080 C   0  0  0  0  0  0  0  0  0  0  0  0
  181.0360  180.0720  139.0520 C   0  0  0  0  0  3  0  0  0  0  0  0
  184.3130  176.6060  138.1920 C   0  0  0  0  0  2  0  0  0  0  0  0
  180.6290  180.0250  137.7280 C   0  0  0  0  0  3  0  0  0  0  0  0
  189.1320  177.3730  142.2960 C   0  0  0  0  0  3  0  0  0  0  0  0
  182.8270  178.5130  138.5370 C   0  0  0  0  0  0  0  0  0  0  0  0
  190.5060  177.5580  139.9240 C   0  0  0  0  0  0  0  0  0  0  0  0
  186.1370  178.2550  140.1520 C   0  0  0  0  0  2  0  0  0  0  0  0
  189.0970  177.5810  139.9100 C   0  0  0  0  0  3  0  0  0  0  0  0
  183.8750  178.9310  141.1810 C   0  0  2  0  0  3  0  0  0  0  0  0
  189.0920  175.8040  137.2250 C   0  0  0  0  0  2  0  0  0  0  0  0
  182.5590  179.3930  140.7290 O   0  0  0  0  0  0  0  0  0  0  0  0
  186.6290  176.2360  137.2770 N   0  0  0  0  0  2  0  0  0  0  0  0
  185.3990  176.9720  137.1820 C   0  0  0  0  0  0  0  0  0  0  0  0
  190.5250  177.2700  142.2930 C   0  0  0  0  0  3  0  0  0  0  0  0
  190.4050  176.3310  136.8190 C   0  0  1  0  0  3  0  0  0  0  0  0
  188.4090  177.4650  141.1160 C   0  0  0  0  0  0  0  0  0  0  0  0
  183.9460  177.7560  138.9750 N   0  0  0  0  0  0  0  0  0  0  0  0
  184.6200  177.9350  140.2810 C   0  0  1  0  0  3  0  0  0  0  0  0
  191.3400  176.3750  138.0260 C   0  0  0  0  0  2  0  0  0  0  0  0
  191.2550  177.7270  138.6790 C   0  0  0  0  0  2  0  0  0  0  0  0
  191.2130  177.4970  141.1120 C   0  0  0  0  0  3  0  0  0  0  0  0
  185.4440  178.7700  143.0610 C   0  0  0  0  0  3  0  0  0  0  0  0
  184.6860  178.6700  145.3620 C   0  0  0  0  0  0  0  0  0  0  0  0
  183.0620  179.0770  143.5760 C   0  0  0  0  0  3  0  0  0  0  0  0
  183.3400  178.8610  144.9030 C   0  0  0  0  0  3  0  0  0  0  0  0
  185.7180  178.6160  144.3820 C   0  0  0  0  0  3  0  0  0  0  0  0
  184.1110  178.9570  142.6200 C   0  0  0  0  0  0  0  0  0  0  0  0
  184.9920  178.7560  146.7490 C   0  0  0  0  0  0  0  0  0  0  0  0
  184.5430  177.7900  147.6820 O   0  0  0  0  0  1  0  0  0  0  0  0
  185.7140  179.7530  147.1940 O   0  0  0  0  0  0  0  0  0  0  0  0
  191.0260  176.2990  134.6570 O   0  0  0  0  0  0  0  0  0  0  0  0
  191.0050  175.6760  135.7160 C   0  0  0  0  0  0  0  0  0  0  0  0
  191.7050  174.0370  136.0040 S   0  0  0  0  0  0  0  0  0  0  0  0
  193.4410  174.6520  136.1450 C   0  0  2  0  0  3  0  0  0  0  0  0
  193.5800  176.0770  136.0370 F   0  0  0  0  0  0  0  0  0  0  0  0
  194.5340  173.6980  135.6060 C   0  0  2  0  0  3  0  0  0  0  0  0
  194.0000  172.8360  134.6350 O   0  0  0  0  0  1  0  0  0  0  0  0
  194.9340  172.7400  136.8720 C   0  0  2  0  0  3  0  0  0  0  0  0
  195.8110  173.0170  139.0940 O   0  0  0  0  0  0  0  0  0  0  0  0
  195.1730  175.2570  139.1500 O   0  0  0  0  0  1  0  0  0  0  0  0
  196.1340  174.3380  138.6780 C   0  0  1  0  0  0  0  0  0  0  0  0
  197.2350  174.3510  137.6980 C   0  0  1  0  0  0  0  0  0  0  0  0
  196.2090  173.1260  137.7660 C   0  0  2  0  0  0  0  0  0  0  0  0
  196.9380  175.3280  136.7920 O   0  0  0  0  0  1  0  0  0  0  0  0
  198.1530  174.5520  138.8050 C   0  0  0  0  0  2  0  0  0  0  0  0
  198.3700  175.8890  139.0480 O   0  0  0  0  0  1  0  0  0  0  0  0
  194.7580  171.3000  136.5110 C   0  0  0  0  0  0  0  0  0  0  0  0
  195.8200  170.6090  136.1050 C   0  0  0  0  0  2  0  0  0  0  0  0
  193.5410  170.7250  136.3900 O   0  0  0  0  0  1  0  0  0  0  0  0
  2 16  1  0  0  0  0
  2 18  1  0  0  0  0
  3 19  2  0  0  0  0
  4 11  1  0  0  0  0
  5  4  2  0  0  0  0
  5  9  1  0  0  0  0
  6 17  1  0  0  0  0
  7  6  1  0  0  0  0
  8 23  1  0  0  0  0
  9  7  2  0  0  0  0
 11 23  1  0  0  0  0
 11  6  2  0  0  0  0
 12 27  1  0  0  0  0
 13  1  1  0  0  0  0
 14 12  2  0  0  0  0
 14 22  1  0  0  0  0
 15 33  1  1  0  0  0
 17 15  1  0  0  0  0
 19 18  1  0  0  0  0
 19  8  1  0  0  0  0
 20 10  1  0  0  0  0
 21 38  1  6  0  0  0
 21 16  1  0  0  0  0
 21 25  1  0  0  0  0
 22  1  1  0  0  0  0
 22 10  2  0  0  0  0
 23 24  1  0  0  0  0
 24 13  1  6  0  0  0
 24 15  1  0  0  0  0
 25 26  1  0  0  0  0
 26 12  1  0  0  0  0
 27 20  2  0  0  0  0
 28 32  1  0  0  0  0
 29 34  1  0  0  0  0
 30 31  2  0  0  0  0
 31 29  1  0  0  0  0
 32 29  2  0  0  0  0
 33 28  2  0  0  0  0
 33 30  1  0  0  0  0
 34 36  2  0  0  0  0
 34 35  1  0  0  0  0
 37 38  2  0  0  0  0
 38 39  1  0  0  0  0
 39 40  1  0  0  0  0
 40 41  1  6  0  0  0
 42 43  1  6  0  0  0
 42 40  1  0  0  0  0
 42 44  1  0  0  0  0
 44 53  1  6  0  0  0
 47 45  1  0  0  0  0
 47 46  1  6  0  0  0
 48 50  1  6  0  0  0
 48 49  1  0  0  0  0
 48 47  1  0  0  0  0
 48 51  1  0  0  0  0
 49 44  1  6  0  0  0
 49 47  1  0  0  0  0
 49 45  1  0  0  0  0
 51 52  1  0  0  0  0
 54 53  2  0  0  0  0
 55 53  1  0  0  0  0
M  END
>  <MODEL>
7

>  <REMARK>
 VINA RESULT:      -5.6      4.045      9.561
  Name = 
  10 active torsions:
  status: ('A' for Active; 'I' for Inactive)
    1  A    between atoms: C_1  and  C_53
    2  A    between atoms: C_6  and  C_20
    3  A    between atoms: C_6  and  C_53
    4  A    between atoms: C_8  and  S_22
    5  A    between atoms: C_8  and  C_43
    6  A    between atoms: C_10  and  C_32
    7  A    between atoms: C_11  and  C_29
    8  A    between atoms: C_20  and  S_22
    9  A    between atoms: C_33  and  C_52
   10  A    between atoms: C_38  and  C_53
                            x       y       z     vdW  Elec       q    Type
                         _______ _______ _______ _____ _____    ______ ____

>  <TORSDO>
F 10

$$$$
=
 OpenBabel10262420243D

 55 61  0  0  1  0  0  0  0  0999 V2000
  186.9650  177.5240  142.4380 C   0  0  0  0  0  2  0  0  0  0  0  0
  185.4840  177.8210  137.8810 C   0  0  0  0  0  2  0  0  0  0  0  0
  182.9990  178.8340  139.2200 O   0  0  0  0  0  0  0  0  0  0  0  0
  181.0770  178.9780  141.5440 C   0  0  0  0  0  3  0  0  0  0  0  0
  180.0410  179.7910  141.9020 C   0  0  0  0  0  3  0  0  0  0  0  0
  182.1060  179.4190  143.6810 C   0  0  0  0  0  0  0  0  0  0  0  0
  180.9020  179.9710  144.1340 C   0  0  0  0  0  3  0  0  0  0  0  0
  183.1740  177.1330  140.9280 C   0  0  0  0  0  2  0  0  0  0  0  0
  179.8860  180.2010  143.2200 C   0  0  0  0  0  3  0  0  0  0  0  0
  189.4250  177.3530  142.1660 C   0  0  0  0  0  3  0  0  0  0  0  0
  182.1340  178.7550  142.4280 C   0  0  0  0  0  0  0  0  0  0  0  0
  189.4350  178.2260  139.5610 C   0  0  0  0  0  0  0  0  0  0  0  0
  185.7960  178.4330  142.0780 C   0  0  0  0  0  2  0  0  0  0  0  0
  188.2100  178.1180  140.2490 C   0  0  0  0  0  3  0  0  0  0  0  0
  184.3790  178.6290  144.2200 C   0  0  2  0  0  3  0  0  0  0  0  0
  186.7950  177.0380  137.5660 C   0  0  0  0  0  2  0  0  0  0  0  0
  183.0320  179.0590  144.6090 O   0  0  0  0  0  0  0  0  0  0  0  0
  184.7060  177.2110  138.9320 N   0  0  0  0  0  2  0  0  0  0  0  0
  183.6230  177.8290  139.6440 C   0  0  0  0  0  0  0  0  0  0  0  0
  190.6250  177.3860  141.4520 C   0  0  0  0  0  3  0  0  0  0  0  0
  187.7480  177.7670  136.7150 C   0  0  1  0  0  3  0  0  0  0  0  0
  188.2130  177.6550  141.5640 C   0  0  0  0  0  0  0  0  0  0  0  0
  183.2920  178.0240  142.0510 N   0  0  0  0  0  0  0  0  0  0  0  0
  184.5350  177.9510  142.8520 C   0  0  1  0  0  3  0  0  0  0  0  0
  189.1620  177.6110  137.2700 C   0  0  0  0  0  2  0  0  0  0  0  0
  189.4680  178.7550  138.1980 C   0  0  0  0  0  2  0  0  0  0  0  0
  190.6380  177.9500  140.1870 C   0  0  0  0  0  3  0  0  0  0  0  0
  185.1720  179.1000  146.4940 C   0  0  0  0  0  3  0  0  0  0  0  0
  187.1980  178.1060  147.3800 C   0  0  0  0  0  0  0  0  0  0  0  0
  186.3590  177.3860  145.1960 C   0  0  0  0  0  3  0  0  0  0  0  0
  187.3200  177.3360  146.1760 C   0  0  0  0  0  3  0  0  0  0  0  0
  186.0950  179.0010  147.4850 C   0  0  0  0  0  3  0  0  0  0  0  0
  185.3030  178.3340  145.3090 C   0  0  0  0  0  0  0  0  0  0  0  0
  188.0220  177.8190  148.5040 C   0  0  0  0  0  0  0  0  0  0  0  0
  189.3860  178.1980  148.5560 O   0  0  0  0  0  0  0  0  0  0  0  0
  187.5190  177.1870  149.5340 O   0  0  0  0  0  1  0  0  0  0  0  0
  187.2290  178.3200  134.5970 O   0  0  0  0  0  0  0  0  0  0  0  0
  187.6900  177.4530  135.3360 C   0  0  0  0  0  0  0  0  0  0  0  0
  188.3390  175.8480  134.8220 S   0  0  0  0  0  0  0  0  0  0  0  0
  186.6850  175.0270  134.8140 C   0  0  2  0  0  3  0  0  0  0  0  0
  185.5780  175.9160  134.5940 F   0  0  0  0  0  0  0  0  0  0  0  0
  186.5470  173.7910  135.7350 C   0  0  2  0  0  3  0  0  0  0  0  0
  187.8030  173.2110  135.9700 O   0  0  0  0  0  1  0  0  0  0  0  0
  185.7110  172.6900  134.8580 C   0  0  2  0  0  3  0  0  0  0  0  0
  183.6390  173.8910  134.6370 O   0  0  0  0  0  0  0  0  0  0  0  0
  183.7440  174.6330  136.8430 O   0  0  0  0  0  1  0  0  0  0  0  0
  183.4270  173.5470  136.0000 C   0  0  1  0  0  0  0  0  0  0  0  0
  183.1580  172.1070  136.1670 C   0  0  1  0  0  0  0  0  0  0  0  0
  184.1140  172.6350  134.9980 C   0  0  2  0  0  0  0  0  0  0  0  0
  183.7810  171.7250  137.3210 O   0  0  0  0  0  1  0  0  0  0  0  0
  181.7400  172.4130  136.0990 C   0  0  0  0  0  2  0  0  0  0  0  0
  181.0180  171.6820  137.0150 O   0  0  0  0  0  1  0  0  0  0  0  0
  186.4440  171.3870  134.8240 C   0  0  0  0  0  0  0  0  0  0  0  0
  185.7940  170.2800  135.1760 C   0  0  0  0  0  2  0  0  0  0  0  0
  187.7800  171.3100  134.6430 O   0  0  0  0  0  1  0  0  0  0  0  0
  2 18  1  0  0  0  0
  3 19  2  0  0  0  0
  4  5  2  0  0  0  0
  4 11  1  0  0  0  0
  5  9  1  0  0  0  0
  6  7  1  0  0  0  0
  6 17  1  0  0  0  0
  8 23  1  0  0  0  0
  9  7  2  0  0  0  0
 11  6  2  0  0  0  0
 12 27  2  0  0  0  0
 12 14  1  0  0  0  0
 13  1  1  0  0  0  0
 14 22  2  0  0  0  0
 15 17  1  0  0  0  0
 15 33  1  1  0  0  0
 16  2  1  0  0  0  0
 18 19  1  0  0  0  0
 19  8  1  0  0  0  0
 20 10  2  0  0  0  0
 21 38  1  6  0  0  0
 21 25  1  0  0  0  0
 21 16  1  0  0  0  0
 22 10  1  0  0  0  0
 22  1  1  0  0  0  0
 23 11  1  0  0  0  0
 23 24  1  0  0  0  0
 24 13  1  6  0  0  0
 24 15  1  0  0  0  0
 25 26  1  0  0  0  0
 26 12  1  0  0  0  0
 27 20  1  0  0  0  0
 28 32  1  0  0  0  0
 29 32  2  0  0  0  0
 29 34  1  0  0  0  0
 30 33  1  0  0  0  0
 30 31  2  0  0  0  0
 31 29  1  0  0  0  0
 33 28  2  0  0  0  0
 34 35  2  0  0  0  0
 34 36  1  0  0  0  0
 37 38  2  0  0  0  0
 39 38  1  0  0  0  0
 40 41  1  1  0  0  0
 40 39  1  0  0  0  0
 40 42  1  0  0  0  0
 42 43  1  6  0  0  0
 44 53  1  1  0  0  0
 44 42  1  0  0  0  0
 45 49  1  0  0  0  0
 45 47  1  0  0  0  0
 47 48  1  0  0  0  0
 47 46  1  1  0  0  0
 48 50  1  1  0  0  0
 49 44  1  1  0  0  0
 49 47  1  0  0  0  0
 49 48  1  0  0  0  0
 51 48  1  0  0  0  0
 51 52  1  0  0  0  0
 53 54  2  0  0  0  0
 55 53  1  0  0  0  0
M  END
>  <MODEL>
8

>  <REMARK>
 VINA RESULT:      -5.4      2.824      6.651
  Name = 
  10 active torsions:
  status: ('A' for Active; 'I' for Inactive)
    1  A    between atoms: C_1  and  C_53
    2  A    between atoms: C_6  and  C_20
    3  A    between atoms: C_6  and  C_53
    4  A    between atoms: C_8  and  S_22
    5  A    between atoms: C_8  and  C_43
    6  A    between atoms: C_10  and  C_32
    7  A    between atoms: C_11  and  C_29
    8  A    between atoms: C_20  and  S_22
    9  A    between atoms: C_33  and  C_52
   10  A    between atoms: C_38  and  C_53
                            x       y       z     vdW  Elec       q    Type
                         _______ _______ _______ _____ _____    ______ ____

>  <TORSDO>
F 10

$$$$
=
 OpenBabel10262420243D

 55 61  0  0  1  0  0  0  0  0999 V2000
  191.1300  177.3570  141.5330 C   0  0  0  0  0  2  0  0  0  0  0  0
  186.4750  178.4210  142.0280 C   0  0  0  0  0  2  0  0  0  0  0  0
  186.4250  177.5420  139.1610 O   0  0  0  0  0  0  0  0  0  0  0  0
  187.7040  177.1610  136.4540 C   0  0  0  0  0  3  0  0  0  0  0  0
  187.3940  176.4700  135.3190 C   0  0  0  0  0  3  0  0  0  0  0  0
  189.8460  176.0510  136.4940 C   0  0  0  0  0  0  0  0  0  0  0  0
  189.6310  175.6130  135.1820 C   0  0  0  0  0  3  0  0  0  0  0  0
  188.4840  178.7250  138.7170 C   0  0  0  0  0  2  0  0  0  0  0  0
  188.3770  175.7840  134.6170 C   0  0  0  0  0  3  0  0  0  0  0  0
  191.8680  177.1770  143.8950 C   0  0  0  0  0  3  0  0  0  0  0  0
  188.9450  176.9840  137.0670 C   0  0  0  0  0  0  0  0  0  0  0  0
  189.3270  176.9710  144.9200 C   0  0  0  0  0  0  0  0  0  0  0  0
  190.1110  176.7690  140.5650 C   0  0  0  0  0  2  0  0  0  0  0  0
  189.5020  177.1110  143.5290 C   0  0  0  0  0  3  0  0  0  0  0  0
  191.4050  176.2980  138.3890 C   0  0  2  0  0  3  0  0  0  0  0  0
  186.9180  179.0290  143.3940 C   0  0  0  0  0  2  0  0  0  0  0  0
  191.1150  176.0160  136.9790 O   0  0  0  0  0  0  0  0  0  0  0  0
  187.2830  178.8790  140.9240 N   0  0  0  0  0  2  0  0  0  0  0  0
  187.3230  178.2960  139.6120 C   0  0  0  0  0  0  0  0  0  0  0  0
  191.6820  177.1190  145.2780 C   0  0  0  0  0  3  0  0  0  0  0  0
  186.3180  178.3790  144.5710 C   0  0  1  0  0  3  0  0  0  0  0  0
  190.7930  177.2360  143.0200 C   0  0  0  0  0  0  0  0  0  0  0  0
  189.2610  177.5820  138.3170 N   0  0  0  0  0  0  0  0  0  0  0  0
  190.4550  177.2520  139.1270 C   0  0  1  0  0  3  0  0  0  0  0  0
  187.3850  178.1590  145.6410 C   0  0  0  0  0  2  0  0  0  0  0  0
  187.9870  176.7900  145.4770 C   0  0  0  0  0  2  0  0  0  0  0  0
  190.4120  176.8830  145.7760 C   0  0  0  0  0  3  0  0  0  0  0  0
  193.5450  175.1100  138.2200 C   0  0  0  0  0  3  0  0  0  0  0  0
  195.3940  175.5740  139.7190 C   0  0  0  0  0  0  0  0  0  0  0  0
  193.3910  176.9780  139.8060 C   0  0  0  0  0  3  0  0  0  0  0  0
  194.6270  176.6370  140.2990 C   0  0  0  0  0  3  0  0  0  0  0  0
  194.7910  174.8170  138.6730 C   0  0  0  0  0  3  0  0  0  0  0  0
  192.7970  176.1630  138.8020 C   0  0  0  0  0  0  0  0  0  0  0  0
  196.7760  175.4320  140.0260 C   0  0  0  0  0  0  0  0  0  0  0  0
  197.6880  174.8110  139.1380 O   0  0  0  0  0  0  0  0  0  0  0  0
  197.2380  175.8880  141.1630 O   0  0  0  0  0  1  0  0  0  0  0  0
  185.3480  180.1400  145.5800 O   0  0  0  0  0  0  0  0  0  0  0  0
  185.1730  179.0230  145.0980 C   0  0  0  0  0  0  0  0  0  0  0  0
  183.5950  178.1560  144.9600 S   0  0  0  0  0  0  0  0  0  0  0  0
  183.0510  179.0990  143.4680 C   0  0  2  0  0  3  0  0  0  0  0  0
  184.0150  180.0410  142.9730 F   0  0  0  0  0  0  0  0  0  0  0  0
  181.5320  179.3820  143.3720 C   0  0  2  0  0  3  0  0  0  0  0  0
  180.8240  178.5770  144.2770 O   0  0  0  0  0  1  0  0  0  0  0  0
  181.0900  178.8640  141.8840 C   0  0  2  0  0  3  0  0  0  0  0  0
  181.1100  179.5760  139.5870 O   0  0  0  0  0  0  0  0  0  0  0  0
  181.1470  177.3760  138.8230 O   0  0  0  0  0  1  0  0  0  0  0  0
  181.9180  178.4290  139.3580 C   0  0  1  0  0  0  0  0  0  0  0  0
  183.2630  178.5810  139.9420 C   0  0  1  0  0  0  0  0  0  0  0  0
  181.9890  179.2720  140.6190 C   0  0  2  0  0  0  0  0  0  0  0  0
  183.6130  177.3580  140.4380 O   0  0  0  0  0  1  0  0  0  0  0  0
  183.7160  179.0700  138.6520 C   0  0  0  0  0  2  0  0  0  0  0  0
  184.4870  180.2030  138.7800 O   0  0  0  0  0  1  0  0  0  0  0  0
  179.6050  178.9440  141.7250 C   0  0  0  0  0  0  0  0  0  0  0  0
  178.9470  177.8600  141.3220 C   0  0  0  0  0  2  0  0  0  0  0  0
  178.9310  180.1130  141.7830 O   0  0  0  0  0  1  0  0  0  0  0  0
  1 22  1  0  0  0  0
  2 16  1  0  0  0  0
  3 19  2  0  0  0  0
  4 11  1  0  0  0  0
  5  4  2  0  0  0  0
  6 17  1  0  0  0  0
  6 11  2  0  0  0  0
  7  6  1  0  0  0  0
  8 19  1  0  0  0  0
  9  7  2  0  0  0  0
  9  5  1  0  0  0  0
 10 20  1  0  0  0  0
 11 23  1  0  0  0  0
 12 26  1  0  0  0  0
 12 27  1  0  0  0  0
 13  1  1  0  0  0  0
 14 12  2  0  0  0  0
 15 33  1  6  0  0  0
 15 24  1  0  0  0  0
 16 21  1  0  0  0  0
 17 15  1  0  0  0  0
 18  2  1  0  0  0  0
 19 18  1  0  0  0  0
 20 27  2  0  0  0  0
 21 38  1  1  0  0  0
 21 25  1  0  0  0  0
 22 14  1  0  0  0  0
 22 10  2  0  0  0  0
 23  8  1  0  0  0  0
 23 24  1  0  0  0  0
 24 13  1  1  0  0  0
 26 25  1  0  0  0  0
 28 32  2  0  0  0  0
 28 33  1  0  0  0  0
 29 34  1  0  0  0  0
 29 31  2  0  0  0  0
 30 31  1  0  0  0  0
 32 29  1  0  0  0  0
 33 30  2  0  0  0  0
 34 36  1  0  0  0  0
 35 34  2  0  0  0  0
 38 37  2  0  0  0  0
 39 38  1  0  0  0  0
 40 41  1  1  0  0  0
 40 39  1  0  0  0  0
 42 40  1  0  0  0  0
 42 43  1  1  0  0  0
 44 53  1  6  0  0  0
 44 42  1  0  0  0  0
 45 49  1  0  0  0  0
 47 46  1  1  0  0  0
 47 45  1  0  0  0  0
 47 48  1  0  0  0  0
 47 49  1  0  0  0  0
 48 50  1  1  0  0  0
 48 49  1  0  0  0  0
 49 44  1  1  0  0  0
 51 52  1  0  0  0  0
 51 48  1  0  0  0  0
 53 55  1  0  0  0  0
 54 53  2  0  0  0  0
M  END
>  <MODEL>
9

>  <REMARK>
 VINA RESULT:      -5.3      3.167      5.949
  Name = 
  10 active torsions:
  status: ('A' for Active; 'I' for Inactive)
    1  A    between atoms: C_1  and  C_53
    2  A    between atoms: C_6  and  C_20
    3  A    between atoms: C_6  and  C_53
    4  A    between atoms: C_8  and  S_22
    5  A    between atoms: C_8  and  C_43
    6  A    between atoms: C_10  and  C_32
    7  A    between atoms: C_11  and  C_29
    8  A    between atoms: C_20  and  S_22
    9  A    between atoms: C_33  and  C_52
   10  A    between atoms: C_38  and  C_53
                            x       y       z     vdW  Elec       q    Type
                         _______ _______ _______ _____ _____    ______ ____

>  <TORSDO>
F 10

$$$$
