=
 OpenBabel10262419193D

 31 34  0  0  1  0  0  0  0  0999 V2000
  185.1680  178.3960  145.4400 C   0  0  0  0  0  0  0  0  0  0  0  0
  187.6420  177.9880  142.6200 C   0  0  0  0  0  0  0  0  0  0  0  0
  188.8730  177.5520  143.2040 C   0  0  0  0  0  0  0  0  0  0  0  0
  190.2820  177.6390  145.3050 C   0  0  0  0  0  2  0  0  0  0  0  0
  186.4380  178.2510  143.3530 C   0  0  0  0  0  0  0  0  0  0  0  0
  184.0310  178.7940  144.7390 C   0  0  0  0  0  3  0  0  0  0  0  0
  188.9600  177.2020  144.6750 C   0  0  0  0  0  2  0  0  0  0  0  0
  186.4450  178.5880  140.5520 C   0  0  0  0  0  0  0  0  0  0  0  0
  185.1190  178.2540  146.9180 C   0  0  0  0  0  1  0  0  0  0  0  0
  189.8740  177.5650  141.0260 N   0  0  0  0  0  0  0  0  0  0  0  0
  191.2740  176.6290  145.2760 O   0  0  0  0  0  0  0  0  0  0  0  0
  185.2840  178.8250  141.2830 C   0  0  0  0  0  3  0  0  0  0  0  0
  187.6140  178.1760  141.2100 C   0  0  0  0  0  0  0  0  0  0  0  0
  186.3540  178.1310  144.7520 C   0  0  0  0  0  3  0  0  0  0  0  0
  191.3350  175.9900  144.0150 C   0  0  0  0  0  2  0  0  0  0  0  0
  185.2690  178.6660  142.6610 C   0  0  0  0  0  0  0  0  0  0  0  0
  184.0830  178.9280  143.3520 C   0  0  0  0  0  3  0  0  0  0  0  0
  188.7320  177.9570  140.4740 N   0  0  0  0  0  0  0  0  0  0  0  0
  189.9940  177.3400  142.3550 C   0  0  0  0  0  0  0  0  0  0  0  0
  191.3700  176.9730  142.8470 C   0  0  0  0  0  2  0  0  0  0  0  0
  186.4520  178.7560  139.1270 N   0  0  0  0  0  2  0  0  0  0  0  0
  184.9120  177.4090  137.7930 C   0  0  0  0  0  1  0  0  0  0  0  0
  186.3610  177.6520  138.1810 C   0  0  1  0  0  3  0  0  0  0  0  0
  186.6690  177.7870  135.8230 O   0  0  0  0  0  0  0  0  0  0  0  0
  187.1790  177.9530  136.9640 C   0  0  0  0  0  0  0  0  0  0  0  0
  188.7760  179.6720  137.2350 O   0  0  0  0  0  0  0  0  0  0  0  0
  188.5690  178.4350  137.1150 C   0  0  0  0  0  0  0  0  0  0  0  0
  189.7000  177.5530  137.1290 N   0  0  0  0  0  2  0  0  0  0  0  0
  189.6290  176.1060  136.9940 C   0  0  0  0  0  2  0  0  0  0  0  0
  190.6190  175.4460  137.9350 C   0  0  0  0  0  2  0  0  0  0  0  0
  191.7610  176.3940  138.2460 C   0  0  0  0  0  1  0  0  0  0  0  0
  1  9  1  0  0  0  0
  2  3  1  0  0  0  0
  2  5  1  0  0  0  0
  3  7  1  0  0  0  0
  5 14  2  0  0  0  0
  6  1  2  0  0  0  0
  7  4  1  0  0  0  0
  8 13  1  0  0  0  0
  8 12  2  0  0  0  0
 10 19  1  0  0  0  0
 11  4  1  0  0  0  0
 12 16  1  0  0  0  0
 13  2  2  0  0  0  0
 14  1  1  0  0  0  0
 15 11  1  0  0  0  0
 16 17  2  0  0  0  0
 16  5  1  0  0  0  0
 17  6  1  0  0  0  0
 18 10  2  0  0  0  0
 18 13  1  0  0  0  0
 19 20  1  0  0  0  0
 19  3  2  0  0  0  0
 20 15  1  0  0  0  0
 21  8  1  0  0  0  0
 23 22  1  6  0  0  0
 23 21  1  0  0  0  0
 24 25  2  0  0  0  0
 25 27  1  0  0  0  0
 25 23  1  0  0  0  0
 27 28  1  0  0  0  0
 27 26  2  0  0  0  0
 29 28  1  0  0  0  0
 29 30  1  0  0  0  0
 30 31  1  0  0  0  0
M  END
>  <MODEL>
1

>  <REMARK>
 VINA RESULT:      -9.3      0.000      0.000
  Name = 
  6 active torsions:
  status: ('A' for Active; 'I' for Inactive)
    1  A    between atoms: C_1  and  C_11
    2  A    between atoms: C_9  and  C_22
    3  A    between atoms: C_9  and  N_23
    4  A    between atoms: C_11  and  N_24
    5  A    between atoms: C_15  and  N_23
    6  A    between atoms: C_19  and  C_22
                            x       y       z     vdW  Elec       q    Type
                         _______ _______ _______ _____ _____    ______ ____

>  <TORSDO>
F 6

$$$$
=
 OpenBabel10262419193D

 31 34  0  0  1  0  0  0  0  0999 V2000
  186.2340  178.0410  146.0490 C   0  0  0  0  0  0  0  0  0  0  0  0
  186.4380  178.3380  142.2930 C   0  0  0  0  0  0  0  0  0  0  0  0
  187.7890  178.0440  141.9230 C   0  0  0  0  0  0  0  0  0  0  0  0
  190.1900  178.1290  142.7200 C   0  0  0  0  0  2  0  0  0  0  0  0
  185.9380  178.3260  143.6370 C   0  0  0  0  0  0  0  0  0  0  0  0
  184.8870  178.3250  146.2640 C   0  0  0  0  0  3  0  0  0  0  0  0
  188.7910  177.5570  142.9480 C   0  0  0  0  0  2  0  0  0  0  0  0
  184.1830  178.9590  141.5200 C   0  0  0  0  0  0  0  0  0  0  0  0
  187.1230  177.7360  147.1990 C   0  0  0  0  0  1  0  0  0  0  0  0
  187.2170  178.4510  139.6310 N   0  0  0  0  0  0  0  0  0  0  0  0
  191.0070  177.2990  141.9130 O   0  0  0  0  0  0  0  0  0  0  0  0
  183.7160  178.9270  142.8320 C   0  0  0  0  0  3  0  0  0  0  0  0
  185.5290  178.6700  141.2500 C   0  0  0  0  0  0  0  0  0  0  0  0
  186.7490  178.0440  144.7510 C   0  0  0  0  0  3  0  0  0  0  0  0
  190.3090  176.8170  140.7810 C   0  0  0  0  0  2  0  0  0  0  0  0
  184.5700  178.6210  143.8810 C   0  0  0  0  0  0  0  0  0  0  0  0
  184.0570  178.6140  145.1820 C   0  0  0  0  0  3  0  0  0  0  0  0
  185.9580  178.7130  139.9640 N   0  0  0  0  0  0  0  0  0  0  0  0
  188.1490  178.1070  140.5490 C   0  0  0  0  0  0  0  0  0  0  0  0
  189.5520  177.9130  140.0330 C   0  0  0  0  0  2  0  0  0  0  0  0
  183.2920  179.2780  140.4410 N   0  0  0  0  0  2  0  0  0  0  0  0
  182.8860  176.9030  140.0440 C   0  0  0  0  0  1  0  0  0  0  0  0
  182.3760  178.3200  139.8380 C   0  0  1  0  0  3  0  0  0  0  0  0
  180.4940  177.4940  141.0430 O   0  0  0  0  0  0  0  0  0  0  0  0
  181.0120  178.4700  140.4350 C   0  0  0  0  0  0  0  0  0  0  0  0
  179.9540  180.1490  139.1540 O   0  0  0  0  0  0  0  0  0  0  0  0
  180.2900  179.7540  140.3020 C   0  0  0  0  0  0  0  0  0  0  0  0
  179.9540  180.5770  141.4280 N   0  0  0  0  0  2  0  0  0  0  0  0
  180.2760  180.2650  142.8120 C   0  0  0  0  0  2  0  0  0  0  0  0
  179.1030  179.5680  143.4750 C   0  0  0  0  0  2  0  0  0  0  0  0
  179.5920  178.4210  144.3390 C   0  0  0  0  0  1  0  0  0  0  0  0
  1  6  1  0  0  0  0
  1  9  1  0  0  0  0
  2  5  1  0  0  0  0
  3  2  1  0  0  0  0
  3  7  1  0  0  0  0
  4  7  1  0  0  0  0
  5 16  2  0  0  0  0
  5 14  1  0  0  0  0
  8 12  2  0  0  0  0
 10 18  2  0  0  0  0
 10 19  1  0  0  0  0
 11  4  1  0  0  0  0
 12 16  1  0  0  0  0
 13  8  1  0  0  0  0
 13  2  2  0  0  0  0
 14  1  2  0  0  0  0
 15 11  1  0  0  0  0
 16 17  1  0  0  0  0
 17  6  2  0  0  0  0
 18 13  1  0  0  0  0
 19  3  2  0  0  0  0
 20 19  1  0  0  0  0
 20 15  1  0  0  0  0
 21  8  1  0  0  0  0
 23 22  1  1  0  0  0
 23 25  1  0  0  0  0
 23 21  1  0  0  0  0
 25 24  2  0  0  0  0
 26 27  2  0  0  0  0
 27 25  1  0  0  0  0
 27 28  1  0  0  0  0
 28 29  1  0  0  0  0
 29 30  1  0  0  0  0
 30 31  1  0  0  0  0
M  END
>  <MODEL>
2

>  <REMARK>
 VINA RESULT:      -9.1      3.356      5.838
  Name = 
  6 active torsions:
  status: ('A' for Active; 'I' for Inactive)
    1  A    between atoms: C_1  and  C_11
    2  A    between atoms: C_9  and  C_22
    3  A    between atoms: C_9  and  N_23
    4  A    between atoms: C_11  and  N_24
    5  A    between atoms: C_15  and  N_23
    6  A    between atoms: C_19  and  C_22
                            x       y       z     vdW  Elec       q    Type
                         _______ _______ _______ _____ _____    ______ ____

>  <TORSDO>
F 6

$$$$
=
 OpenBabel10262419193D

 31 34  0  0  1  0  0  0  0  0999 V2000
  188.7550  177.2160  146.3070 C   0  0  0  0  0  0  0  0  0  0  0  0
  187.4540  178.0190  142.8570 C   0  0  0  0  0  0  0  0  0  0  0  0
  188.5240  177.7710  141.9390 C   0  0  0  0  0  0  0  0  0  0  0  0
  191.0430  177.7340  141.6990 C   0  0  0  0  0  2  0  0  0  0  0  0
  187.5350  177.8270  144.2760 C   0  0  0  0  0  0  0  0  0  0  0  0
  187.6260  177.4740  147.0820 C   0  0  0  0  0  3  0  0  0  0  0  0
  189.8220  177.1440  142.4020 C   0  0  0  0  0  2  0  0  0  0  0  0
  185.1200  178.7500  143.1460 C   0  0  0  0  0  0  0  0  0  0  0  0
  190.0100  176.7520  146.9520 C   0  0  0  0  0  1  0  0  0  0  0  0
  187.1070  178.4870  140.1440 N   0  0  0  0  0  0  0  0  0  0  0  0
  191.4180  177.0180  140.5360 O   0  0  0  0  0  0  0  0  0  0  0  0
  185.2160  178.5420  144.5200 C   0  0  0  0  0  3  0  0  0  0  0  0
  186.2250  178.4930  142.3210 C   0  0  0  0  0  0  0  0  0  0  0  0
  188.7060  177.3920  144.9230 C   0  0  0  0  0  3  0  0  0  0  0  0
  190.2970  176.6980  139.7330 C   0  0  0  0  0  2  0  0  0  0  0  0
  186.3990  178.0920  145.0870 C   0  0  0  0  0  0  0  0  0  0  0  0
  186.4510  177.9120  146.4730 C   0  0  0  0  0  3  0  0  0  0  0  0
  186.1050  178.7080  140.9870 N   0  0  0  0  0  0  0  0  0  0  0  0
  188.3060  178.0170  140.5560 C   0  0  0  0  0  0  0  0  0  0  0  0
  189.3710  177.8890  139.4970 C   0  0  0  0  0  2  0  0  0  0  0  0
  183.8920  179.2160  142.5680 N   0  0  0  0  0  2  0  0  0  0  0  0
  181.7140  178.9330  143.6350 C   0  0  0  0  0  1  0  0  0  0  0  0
  182.6590  178.4410  142.5520 C   0  0  1  0  0  3  0  0  0  0  0  0
  180.8950  179.1350  141.1080 O   0  0  0  0  0  0  0  0  0  0  0  0
  182.0050  178.5480  141.2090 C   0  0  0  0  0  0  0  0  0  0  0  0
  182.8790  176.7190  139.9940 O   0  0  0  0  0  0  0  0  0  0  0  0
  182.6670  177.9610  140.0230 C   0  0  0  0  0  0  0  0  0  0  0  0
  183.0820  178.7460  138.8970 N   0  0  0  0  0  2  0  0  0  0  0  0
  182.9160  180.1870  138.7800 C   0  0  0  0  0  2  0  0  0  0  0  0
  181.6590  180.5040  137.9930 C   0  0  0  0  0  2  0  0  0  0  0  0
  181.1720  181.9030  138.3190 C   0  0  0  0  0  1  0  0  0  0  0  0
  1  9  1  0  0  0  0
  1  6  1  0  0  0  0
  2  5  1  0  0  0  0
  3  7  1  0  0  0  0
  3  2  1  0  0  0  0
  4  7  1  0  0  0  0
  5 14  1  0  0  0  0
  5 16  2  0  0  0  0
  8 12  2  0  0  0  0
 10 19  1  0  0  0  0
 10 18  2  0  0  0  0
 11  4  1  0  0  0  0
 12 16  1  0  0  0  0
 13  2  2  0  0  0  0
 13  8  1  0  0  0  0
 14  1  2  0  0  0  0
 15 11  1  0  0  0  0
 16 17  1  0  0  0  0
 17  6  2  0  0  0  0
 18 13  1  0  0  0  0
 19  3  2  0  0  0  0
 20 15  1  0  0  0  0
 20 19  1  0  0  0  0
 21  8  1  0  0  0  0
 23 21  1  0  0  0  0
 23 22  1  1  0  0  0
 24 25  2  0  0  0  0
 25 23  1  0  0  0  0
 26 27  2  0  0  0  0
 27 25  1  0  0  0  0
 28 27  1  0  0  0  0
 29 28  1  0  0  0  0
 30 31  1  0  0  0  0
 30 29  1  0  0  0  0
M  END
>  <MODEL>
3

>  <REMARK>
 VINA RESULT:      -9.1      3.016      5.336
  Name = 
  6 active torsions:
  status: ('A' for Active; 'I' for Inactive)
    1  A    between atoms: C_1  and  C_11
    2  A    between atoms: C_9  and  C_22
    3  A    between atoms: C_9  and  N_23
    4  A    between atoms: C_11  and  N_24
    5  A    between atoms: C_15  and  N_23
    6  A    between atoms: C_19  and  C_22
                            x       y       z     vdW  Elec       q    Type
                         _______ _______ _______ _____ _____    ______ ____

>  <TORSDO>
F 6

$$$$
=
 OpenBabel10262419193D

 31 34  0  0  1  0  0  0  0  0999 V2000
  189.0500  177.6330  147.6690 C   0  0  0  0  0  0  0  0  0  0  0  0
  187.6830  177.7230  144.1530 C   0  0  0  0  0  0  0  0  0  0  0  0
  186.3390  178.2060  144.2390 C   0  0  0  0  0  0  0  0  0  0  0  0
  184.3030  178.3260  145.7380 C   0  0  0  0  0  2  0  0  0  0  0  0
  188.5620  177.5480  145.2730 C   0  0  0  0  0  0  0  0  0  0  0  0
  190.3450  177.1750  147.4380 C   0  0  0  0  0  3  0  0  0  0  0  0
  185.7710  178.7060  145.5500 C   0  0  0  0  0  2  0  0  0  0  0  0
  189.4900  176.9200  142.6830 C   0  0  0  0  0  0  0  0  0  0  0  0
  188.6020  177.9290  149.0540 C   0  0  0  0  0  1  0  0  0  0  0  0
  186.1310  177.9570  141.8640 N   0  0  0  0  0  0  0  0  0  0  0  0
  183.4060  179.3180  145.2730 O   0  0  0  0  0  0  0  0  0  0  0  0
  190.3310  176.7720  143.7840 C   0  0  0  0  0  3  0  0  0  0  0  0
  188.1800  177.3880  142.8630 C   0  0  0  0  0  0  0  0  0  0  0  0
  188.1730  177.8140  146.5980 C   0  0  0  0  0  3  0  0  0  0  0  0
  183.7910  179.8220  144.0070 C   0  0  0  0  0  2  0  0  0  0  0  0
  189.8840  177.0740  145.0620 C   0  0  0  0  0  0  0  0  0  0  0  0
  190.7610  176.8960  146.1370 C   0  0  0  0  0  3  0  0  0  0  0  0
  187.3820  177.5190  141.7740 N   0  0  0  0  0  0  0  0  0  0  0  0
  185.5770  178.3180  143.0440 C   0  0  0  0  0  0  0  0  0  0  0  0
  184.1260  178.7220  143.0020 C   0  0  0  0  0  2  0  0  0  0  0  0
  189.9610  176.6050  141.3650 N   0  0  0  0  0  2  0  0  0  0  0  0
  192.1220  177.4700  140.6300 C   0  0  0  0  0  1  0  0  0  0  0  0
  190.6130  177.5660  140.4860 C   0  0  1  0  0  3  0  0  0  0  0  0
  190.8640  176.4810  138.3800 O   0  0  0  0  0  0  0  0  0  0  0  0
  190.2130  177.3140  139.0660 C   0  0  0  0  0  0  0  0  0  0  0  0
  189.0080  179.2980  138.6230 O   0  0  0  0  0  0  0  0  0  0  0  0
  189.0650  178.0470  138.4870 C   0  0  0  0  0  0  0  0  0  0  0  0
  188.0070  177.3930  137.7730 N   0  0  0  0  0  2  0  0  0  0  0  0
  187.9220  175.9600  137.5370 C   0  0  0  0  0  2  0  0  0  0  0  0
  186.5810  175.6120  136.9200 C   0  0  0  0  0  2  0  0  0  0  0  0
  186.1640  176.6810  135.9290 C   0  0  0  0  0  1  0  0  0  0  0  0
  1  9  1  0  0  0  0
  2  3  1  0  0  0  0
  2  5  1  0  0  0  0
  3  7  1  0  0  0  0
  5 14  1  0  0  0  0
  6  1  1  0  0  0  0
  7  4  1  0  0  0  0
  8 13  1  0  0  0  0
  8 12  2  0  0  0  0
 10 19  1  0  0  0  0
 11  4  1  0  0  0  0
 12 16  1  0  0  0  0
 13  2  2  0  0  0  0
 14  1  2  0  0  0  0
 15 11  1  0  0  0  0
 16  5  2  0  0  0  0
 16 17  1  0  0  0  0
 17  6  2  0  0  0  0
 18 10  2  0  0  0  0
 18 13  1  0  0  0  0
 19  3  2  0  0  0  0
 20 19  1  0  0  0  0
 20 15  1  0  0  0  0
 21  8  1  0  0  0  0
 23 22  1  6  0  0  0
 23 21  1  0  0  0  0
 24 25  2  0  0  0  0
 25 23  1  0  0  0  0
 27 26  2  0  0  0  0
 27 25  1  0  0  0  0
 28 27  1  0  0  0  0
 29 28  1  0  0  0  0
 30 29  1  0  0  0  0
 31 30  1  0  0  0  0
M  END
>  <MODEL>
4

>  <REMARK>
 VINA RESULT:      -9.1      2.386      4.922
  Name = 
  6 active torsions:
  status: ('A' for Active; 'I' for Inactive)
    1  A    between atoms: C_1  and  C_11
    2  A    between atoms: C_9  and  C_22
    3  A    between atoms: C_9  and  N_23
    4  A    between atoms: C_11  and  N_24
    5  A    between atoms: C_15  and  N_23
    6  A    between atoms: C_19  and  C_22
                            x       y       z     vdW  Elec       q    Type
                         _______ _______ _______ _____ _____    ______ ____

>  <TORSDO>
F 6

$$$$
=
 OpenBabel10262419193D

 31 34  0  0  1  0  0  0  0  0999 V2000
  184.9170  178.4880  145.6010 C   0  0  0  0  0  0  0  0  0  0  0  0
  187.0820  178.1580  142.5280 C   0  0  0  0  0  0  0  0  0  0  0  0
  188.3720  177.7250  142.9710 C   0  0  0  0  0  0  0  0  0  0  0  0
  189.9940  177.7880  144.9120 C   0  0  0  0  0  2  0  0  0  0  0  0
  185.9600  178.3950  143.3900 C   0  0  0  0  0  0  0  0  0  0  0  0
  183.7090  178.8860  145.0330 C   0  0  0  0  0  3  0  0  0  0  0  0
  188.6170  177.3490  144.4160 C   0  0  0  0  0  2  0  0  0  0  0  0
  185.6670  178.7830  140.6110 C   0  0  0  0  0  0  0  0  0  0  0  0
  185.0260  178.3190  147.0730 C   0  0  0  0  0  1  0  0  0  0  0  0
  189.1360  177.7880  140.6990 N   0  0  0  0  0  0  0  0  0  0  0  0
  190.9870  176.7900  144.7590 O   0  0  0  0  0  0  0  0  0  0  0  0
  184.5880  178.9940  141.4650 C   0  0  0  0  0  3  0  0  0  0  0  0
  186.9020  178.3720  141.1330 C   0  0  0  0  0  0  0  0  0  0  0  0
  186.0260  178.2490  144.7870 C   0  0  0  0  0  3  0  0  0  0  0  0
  190.9190  176.1750  143.4860 C   0  0  0  0  0  2  0  0  0  0  0  0
  184.7210  178.8090  142.8330 C   0  0  0  0  0  0  0  0  0  0  0  0
  183.6120  179.0470  143.6510 C   0  0  0  0  0  3  0  0  0  0  0  0
  187.9380  178.1780  140.2790 N   0  0  0  0  0  0  0  0  0  0  0  0
  189.3980  177.5400  142.0030 C   0  0  0  0  0  0  0  0  0  0  0  0
  190.8210  177.1790  142.3400 C   0  0  0  0  0  2  0  0  0  0  0  0
  185.5210  178.9770  139.1960 N   0  0  0  0  0  2  0  0  0  0  0  0
  183.7550  177.9730  137.8410 C   0  0  0  0  0  1  0  0  0  0  0  0
  185.2150  177.9050  138.2600 C   0  0  1  0  0  3  0  0  0  0  0  0
  187.0220  178.8660  137.0420 O   0  0  0  0  0  0  0  0  0  0  0  0
  186.1020  178.0060  137.0580 C   0  0  0  0  0  0  0  0  0  0  0  0
  185.6250  177.5970  134.7810 O   0  0  0  0  0  0  0  0  0  0  0  0
  185.8850  177.1000  135.9090 C   0  0  0  0  0  0  0  0  0  0  0  0
  185.9580  175.6720  136.0200 N   0  0  0  0  0  2  0  0  0  0  0  0
  186.2400  174.9460  137.2500 C   0  0  0  0  0  2  0  0  0  0  0  0
  186.2190  173.4520  136.9880 C   0  0  0  0  0  2  0  0  0  0  0  0
  185.0810  172.8000  137.7490 C   0  0  0  0  0  1  0  0  0  0  0  0
  1  9  1  0  0  0  0
  2  3  1  0  0  0  0
  2  5  1  0  0  0  0
  3  7  1  0  0  0  0
  5 14  1  0  0  0  0
  6  1  1  0  0  0  0
  7  4  1  0  0  0  0
  8 13  1  0  0  0  0
  8 12  2  0  0  0  0
 10 19  1  0  0  0  0
 11  4  1  0  0  0  0
 12 16  1  0  0  0  0
 13  2  2  0  0  0  0
 14  1  2  0  0  0  0
 15 11  1  0  0  0  0
 16  5  2  0  0  0  0
 16 17  1  0  0  0  0
 17  6  2  0  0  0  0
 18 10  2  0  0  0  0
 18 13  1  0  0  0  0
 19 20  1  0  0  0  0
 19  3  2  0  0  0  0
 20 15  1  0  0  0  0
 21  8  1  0  0  0  0
 23 22  1  6  0  0  0
 23 21  1  0  0  0  0
 24 25  2  0  0  0  0
 25 23  1  0  0  0  0
 26 27  2  0  0  0  0
 27 28  1  0  0  0  0
 27 25  1  0  0  0  0
 28 29  1  0  0  0  0
 30 29  1  0  0  0  0
 30 31  1  0  0  0  0
M  END
>  <MODEL>
5

>  <REMARK>
 VINA RESULT:      -9.0      1.681      2.272
  Name = 
  6 active torsions:
  status: ('A' for Active; 'I' for Inactive)
    1  A    between atoms: C_1  and  C_11
    2  A    between atoms: C_9  and  C_22
    3  A    between atoms: C_9  and  N_23
    4  A    between atoms: C_11  and  N_24
    5  A    between atoms: C_15  and  N_23
    6  A    between atoms: C_19  and  C_22
                            x       y       z     vdW  Elec       q    Type
                         _______ _______ _______ _____ _____    ______ ____

>  <TORSDO>
F 6

$$$$
=
 OpenBabel10262419193D

 31 34  0  0  1  0  0  0  0  0999 V2000
  185.1270  178.5130  144.5880 C   0  0  0  0  0  0  0  0  0  0  0  0
  188.6830  177.7060  143.6160 C   0  0  0  0  0  0  0  0  0  0  0  0
  189.3880  177.4050  144.8250 C   0  0  0  0  0  0  0  0  0  0  0  0
  189.4770  177.8750  147.3100 C   0  0  0  0  0  2  0  0  0  0  0  0
  187.2940  178.0570  143.5470 C   0  0  0  0  0  0  0  0  0  0  0  0
  184.5600  178.7590  143.3390 C   0  0  0  0  0  3  0  0  0  0  0  0
  188.6610  177.3060  146.1500 C   0  0  0  0  0  2  0  0  0  0  0  0
  188.8010  177.9250  141.1660 C   0  0  0  0  0  0  0  0  0  0  0  0
  184.2950  178.6170  145.8150 C   0  0  0  0  0  1  0  0  0  0  0  0
  191.3860  177.0830  143.5410 N   0  0  0  0  0  0  0  0  0  0  0  0
  190.2650  176.9000  147.9690 O   0  0  0  0  0  0  0  0  0  0  0  0
  187.4480  178.2490  141.1210 C   0  0  0  0  0  3  0  0  0  0  0  0
  189.4150  177.6580  142.3980 C   0  0  0  0  0  0  0  0  0  0  0  0
  186.4760  178.1680  144.6860 C   0  0  0  0  0  3  0  0  0  0  0  0
  190.9400  176.0630  147.0490 C   0  0  0  0  0  2  0  0  0  0  0  0
  186.6970  178.3210  142.2850 C   0  0  0  0  0  0  0  0  0  0  0  0
  185.3450  178.6630  142.1900 C   0  0  0  0  0  3  0  0  0  0  0  0
  190.7360  177.3490  142.4140 N   0  0  0  0  0  0  0  0  0  0  0  0
  190.7710  177.0840  144.7460 C   0  0  0  0  0  0  0  0  0  0  0  0
  191.6510  176.8390  145.9430 C   0  0  0  0  0  2  0  0  0  0  0  0
  189.5700  177.8550  139.9560 N   0  0  0  0  0  2  0  0  0  0  0  0
  189.0530  178.6490  137.7060 C   0  0  0  0  0  1  0  0  0  0  0  0
  189.0150  177.4710  138.6650 C   0  0  1  0  0  3  0  0  0  0  0  0
  190.5340  175.6460  138.8570 O   0  0  0  0  0  0  0  0  0  0  0  0
  189.7850  176.3190  138.0990 C   0  0  0  0  0  0  0  0  0  0  0  0
  190.6590  176.1470  135.9110 O   0  0  0  0  0  0  0  0  0  0  0  0
  189.6600  175.9890  136.6620 C   0  0  0  0  0  0  0  0  0  0  0  0
  188.4460  175.4960  136.0810 N   0  0  0  0  0  2  0  0  0  0  0  0
  187.2070  175.2670  136.8090 C   0  0  0  0  0  2  0  0  0  0  0  0
  186.1020  176.1390  136.2430 C   0  0  0  0  0  2  0  0  0  0  0  0
  185.6430  177.1460  137.2800 C   0  0  0  0  0  1  0  0  0  0  0  0
  1 14  1  0  0  0  0
  1  9  1  0  0  0  0
  2  3  1  0  0  0  0
  3  7  1  0  0  0  0
  4 11  1  0  0  0  0
  5  2  1  0  0  0  0
  5 14  2  0  0  0  0
  6  1  2  0  0  0  0
  7  4  1  0  0  0  0
  8 13  1  0  0  0  0
 10 19  1  0  0  0  0
 12  8  2  0  0  0  0
 12 16  1  0  0  0  0
 13 18  1  0  0  0  0
 13  2  2  0  0  0  0
 15 11  1  0  0  0  0
 16  5  1  0  0  0  0
 17 16  2  0  0  0  0
 17  6  1  0  0  0  0
 18 10  2  0  0  0  0
 19  3  2  0  0  0  0
 19 20  1  0  0  0  0
 20 15  1  0  0  0  0
 21  8  1  0  0  0  0
 23 22  1  6  0  0  0
 23 21  1  0  0  0  0
 25 23  1  0  0  0  0
 25 24  2  0  0  0  0
 26 27  2  0  0  0  0
 27 25  1  0  0  0  0
 28 27  1  0  0  0  0
 28 29  1  0  0  0  0
 30 29  1  0  0  0  0
 30 31  1  0  0  0  0
M  END
>  <MODEL>
6

>  <REMARK>
 VINA RESULT:      -9.0      1.873      2.942
  Name = 
  6 active torsions:
  status: ('A' for Active; 'I' for Inactive)
    1  A    between atoms: C_1  and  C_11
    2  A    between atoms: C_9  and  C_22
    3  A    between atoms: C_9  and  N_23
    4  A    between atoms: C_11  and  N_24
    5  A    between atoms: C_15  and  N_23
    6  A    between atoms: C_19  and  C_22
                            x       y       z     vdW  Elec       q    Type
                         _______ _______ _______ _____ _____    ______ ____

>  <TORSDO>
F 6

$$$$
=
 OpenBabel10262419193D

 31 34  0  0  1  0  0  0  0  0999 V2000
  187.1110  177.9410  147.2680 C   0  0  0  0  0  0  0  0  0  0  0  0
  187.5030  178.0930  143.5180 C   0  0  0  0  0  0  0  0  0  0  0  0
  188.8570  177.7350  143.2250 C   0  0  0  0  0  0  0  0  0  0  0  0
  191.2190  177.7590  144.1330 C   0  0  0  0  0  2  0  0  0  0  0  0
  186.9400  178.1480  144.8360 C   0  0  0  0  0  0  0  0  0  0  0  0
  185.7670  178.2830  147.4080 C   0  0  0  0  0  3  0  0  0  0  0  0
  189.7900  177.2490  144.3130 C   0  0  0  0  0  2  0  0  0  0  0  0
  185.3130  178.7690  142.6160 C   0  0  0  0  0  0  0  0  0  0  0  0
  187.9310  177.6440  148.4700 C   0  0  0  0  0  1  0  0  0  0  0  0
  188.4100  178.0790  140.8950 N   0  0  0  0  0  0  0  0  0  0  0  0
  192.0410  176.8700  143.3970 O   0  0  0  0  0  0  0  0  0  0  0  0
  184.7840  178.8020  143.9040 C   0  0  0  0  0  3  0  0  0  0  0  0
  186.6570  178.4200  142.4220 C   0  0  0  0  0  0  0  0  0  0  0  0
  187.6860  177.8770  145.9970 C   0  0  0  0  0  3  0  0  0  0  0  0
  191.3780  176.3740  142.2490 C   0  0  0  0  0  2  0  0  0  0  0  0
  185.5750  178.5020  145.0030 C   0  0  0  0  0  0  0  0  0  0  0  0
  185.0010  178.5630  146.2770 C   0  0  0  0  0  3  0  0  0  0  0  0
  187.1480  178.4000  141.1580 N   0  0  0  0  0  0  0  0  0  0  0  0
  189.2840  177.7340  141.8690 C   0  0  0  0  0  0  0  0  0  0  0  0
  190.7000  177.4690  141.4280 C   0  0  0  0  0  2  0  0  0  0  0  0
  184.4870  179.0810  141.4850 N   0  0  0  0  0  2  0  0  0  0  0  0
  182.1550  178.3630  141.3930 C   0  0  0  0  0  1  0  0  0  0  0  0
  183.5640  178.1360  140.8710 C   0  0  1  0  0  3  0  0  0  0  0  0
  182.8490  177.5570  138.6740 O   0  0  0  0  0  0  0  0  0  0  0  0
  183.5940  178.2860  139.3820 C   0  0  0  0  0  0  0  0  0  0  0  0
  184.1890  180.5020  138.8180 O   0  0  0  0  0  0  0  0  0  0  0  0
  184.4970  179.2810  138.7630 C   0  0  0  0  0  0  0  0  0  0  0  0
  185.7140  178.9180  138.0980 N   0  0  0  0  0  2  0  0  0  0  0  0
  186.2040  177.5560  137.9430 C   0  0  0  0  0  2  0  0  0  0  0  0
  187.3610  177.5280  136.9630 C   0  0  0  0  0  2  0  0  0  0  0  0
  188.3550  178.6260  137.2890 C   0  0  0  0  0  1  0  0  0  0  0  0
  1  6  1  0  0  0  0
  1  9  1  0  0  0  0
  2  5  1  0  0  0  0
  3  2  1  0  0  0  0
  3  7  1  0  0  0  0
  4  7  1  0  0  0  0
  5 16  2  0  0  0  0
  5 14  1  0  0  0  0
  8 12  2  0  0  0  0
 10 18  2  0  0  0  0
 10 19  1  0  0  0  0
 11  4  1  0  0  0  0
 12 16  1  0  0  0  0
 13  8  1  0  0  0  0
 13  2  2  0  0  0  0
 14  1  2  0  0  0  0
 15 11  1  0  0  0  0
 16 17  1  0  0  0  0
 17  6  2  0  0  0  0
 18 13  1  0  0  0  0
 19  3  2  0  0  0  0
 20 19  1  0  0  0  0
 20 15  1  0  0  0  0
 21  8  1  0  0  0  0
 23 22  1  1  0  0  0
 23 21  1  0  0  0  0
 24 25  2  0  0  0  0
 25 23  1  0  0  0  0
 27 26  2  0  0  0  0
 27 25  1  0  0  0  0
 28 27  1  0  0  0  0
 29 28  1  0  0  0  0
 30 31  1  0  0  0  0
 30 29  1  0  0  0  0
M  END
>  <MODEL>
7

>  <REMARK>
 VINA RESULT:      -8.9      2.037      3.027
  Name = 
  6 active torsions:
  status: ('A' for Active; 'I' for Inactive)
    1  A    between atoms: C_1  and  C_11
    2  A    between atoms: C_9  and  C_22
    3  A    between atoms: C_9  and  N_23
    4  A    between atoms: C_11  and  N_24
    5  A    between atoms: C_15  and  N_23
    6  A    between atoms: C_19  and  C_22
                            x       y       z     vdW  Elec       q    Type
                         _______ _______ _______ _____ _____    ______ ____

>  <TORSDO>
F 6

$$$$
=
 OpenBabel10262419193D

 31 34  0  0  1  0  0  0  0  0999 V2000
  190.8750  176.7350  146.1510 C   0  0  0  0  0  0  0  0  0  0  0  0
  188.0940  177.5290  143.7280 C   0  0  0  0  0  0  0  0  0  0  0  0
  186.9590  177.9170  144.5080 C   0  0  0  0  0  0  0  0  0  0  0  0
  185.8130  177.6090  146.7430 C   0  0  0  0  0  2  0  0  0  0  0  0
  189.3680  177.1550  144.2700 C   0  0  0  0  0  0  0  0  0  0  0  0
  191.9040  176.4000  145.2740 C   0  0  0  0  0  3  0  0  0  0  0  0
  187.0630  178.0900  146.0080 C   0  0  0  0  0  2  0  0  0  0  0  0
  189.0100  177.1560  141.4720 C   0  0  0  0  0  0  0  0  0  0  0  0
  191.1080  176.6970  147.6180 C   0  0  0  0  0  1  0  0  0  0  0  0
  185.7020  178.1870  142.4850 N   0  0  0  0  0  0  0  0  0  0  0  0
  184.8610  178.6350  146.9560 O   0  0  0  0  0  0  0  0  0  0  0  0
  190.2420  176.8100  142.0200 C   0  0  0  0  0  3  0  0  0  0  0  0
  187.9450  177.5110  142.3140 C   0  0  0  0  0  0  0  0  0  0  0  0
  189.6250  177.1050  145.6530 C   0  0  0  0  0  3  0  0  0  0  0  0
  184.6700  179.4220  145.7950 C   0  0  0  0  0  2  0  0  0  0  0  0
  190.4290  176.8020  143.3950 C   0  0  0  0  0  0  0  0  0  0  0  0
  191.6810  176.4340  143.8980 C   0  0  0  0  0  3  0  0  0  0  0  0
  186.7540  177.8390  141.7530 N   0  0  0  0  0  0  0  0  0  0  0  0
  185.7520  178.2530  143.8350 C   0  0  0  0  0  0  0  0  0  0  0  0
  184.4590  178.5870  144.5340 C   0  0  0  0  0  2  0  0  0  0  0  0
  188.8250  177.1600  140.0490 N   0  0  0  0  0  2  0  0  0  0  0  0
  190.6950  177.2480  138.4820 C   0  0  0  0  0  1  0  0  0  0  0  0
  189.5660  178.0240  139.1390 C   0  0  1  0  0  3  0  0  0  0  0  0
  189.0520  179.5050  137.3460 O   0  0  0  0  0  0  0  0  0  0  0  0
  188.6450  178.5790  138.0970 C   0  0  0  0  0  0  0  0  0  0  0  0
  186.3270  178.6280  138.5500 O   0  0  0  0  0  0  0  0  0  0  0  0
  187.2750  178.0370  137.9660 C   0  0  0  0  0  0  0  0  0  0  0  0
  186.9730  176.8630  137.2010 N   0  0  0  0  0  2  0  0  0  0  0  0
  187.9530  176.0660  136.4770 C   0  0  0  0  0  2  0  0  0  0  0  0
  188.1190  176.6020  135.0670 C   0  0  0  0  0  2  0  0  0  0  0  0
  189.5640  176.9920  134.8190 C   0  0  0  0  0  1  0  0  0  0  0  0
  1  9  1  0  0  0  0
  2  5  1  0  0  0  0
  2  3  1  0  0  0  0
  3  7  1  0  0  0  0
  4 11  1  0  0  0  0
  5 14  2  0  0  0  0
  6  1  2  0  0  0  0
  7  4  1  0  0  0  0
  8 12  2  0  0  0  0
  8 13  1  0  0  0  0
 10 19  1  0  0  0  0
 12 16  1  0  0  0  0
 13  2  2  0  0  0  0
 14  1  1  0  0  0  0
 15 11  1  0  0  0  0
 16 17  2  0  0  0  0
 16  5  1  0  0  0  0
 17  6  1  0  0  0  0
 18 13  1  0  0  0  0
 18 10  2  0  0  0  0
 19  3  2  0  0  0  0
 19 20  1  0  0  0  0
 20 15  1  0  0  0  0
 21  8  1  0  0  0  0
 23 22  1  6  0  0  0
 23 21  1  0  0  0  0
 24 25  2  0  0  0  0
 25 23  1  0  0  0  0
 27 25  1  0  0  0  0
 27 26  2  0  0  0  0
 28 27  1  0  0  0  0
 29 28  1  0  0  0  0
 30 29  1  0  0  0  0
 31 30  1  0  0  0  0
M  END
>  <MODEL>
8

>  <REMARK>
 VINA RESULT:      -8.9      2.044      4.641
  Name = 
  6 active torsions:
  status: ('A' for Active; 'I' for Inactive)
    1  A    between atoms: C_1  and  C_11
    2  A    between atoms: C_9  and  C_22
    3  A    between atoms: C_9  and  N_23
    4  A    between atoms: C_11  and  N_24
    5  A    between atoms: C_15  and  N_23
    6  A    between atoms: C_19  and  C_22
                            x       y       z     vdW  Elec       q    Type
                         _______ _______ _______ _____ _____    ______ ____

>  <TORSDO>
F 6

$$$$
=
 OpenBabel10262419193D

 31 34  0  0  1  0  0  0  0  0999 V2000
  189.1120  177.1560  146.2890 C   0  0  0  0  0  0  0  0  0  0  0  0
  187.5650  178.0610  142.9680 C   0  0  0  0  0  0  0  0  0  0  0  0
  188.5590  177.8260  141.9670 C   0  0  0  0  0  0  0  0  0  0  0  0
  191.0520  177.7720  141.5360 C   0  0  0  0  0  2  0  0  0  0  0  0
  187.7500  177.8310  144.3720 C   0  0  0  0  0  0  0  0  0  0  0  0
  188.0480  177.4060  147.1540 C   0  0  0  0  0  3  0  0  0  0  0  0
  189.8810  177.1750  142.3140 C   0  0  0  0  0  2  0  0  0  0  0  0
  185.2670  178.8060  143.4510 C   0  0  0  0  0  0  0  0  0  0  0  0
  190.4070  176.6640  146.8260 C   0  0  0  0  0  1  0  0  0  0  0  0
  187.0190  178.6020  140.3020 N   0  0  0  0  0  0  0  0  0  0  0  0
  191.3300  177.0820  140.3300 O   0  0  0  0  0  0  0  0  0  0  0  0
  185.4640  178.5620  144.8080 C   0  0  0  0  0  3  0  0  0  0  0  0
  186.3040  178.5610  142.5390 C   0  0  0  0  0  0  0  0  0  0  0  0
  188.9610  177.3690  144.9180 C   0  0  0  0  0  3  0  0  0  0  0  0
  190.1480  176.7930  139.6070 C   0  0  0  0  0  2  0  0  0  0  0  0
  186.6820  178.0860  145.2730 C   0  0  0  0  0  0  0  0  0  0  0  0
  186.8360  177.8700  146.6460 C   0  0  0  0  0  3  0  0  0  0  0  0
  186.0860  178.8110  141.2240 N   0  0  0  0  0  0  0  0  0  0  0  0
  188.2410  178.1100  140.6100 C   0  0  0  0  0  0  0  0  0  0  0  0
  189.2210  177.9990  139.4710 C   0  0  0  0  0  2  0  0  0  0  0  0
  184.0050  179.2990  142.9800 N   0  0  0  0  0  2  0  0  0  0  0  0
  181.9020  178.6740  144.0530 C   0  0  0  0  0  1  0  0  0  0  0  0
  182.8110  178.4750  142.8510 C   0  0  1  0  0  3  0  0  0  0  0  0
  182.6920  178.7580  140.4880 O   0  0  0  0  0  0  0  0  0  0  0  0
  182.0830  178.8230  141.5900 C   0  0  0  0  0  0  0  0  0  0  0  0
  180.3930  180.4440  141.9040 O   0  0  0  0  0  0  0  0  0  0  0  0
  180.6650  179.2400  141.6530 C   0  0  0  0  0  0  0  0  0  0  0  0
  179.5770  178.3290  141.4410 N   0  0  0  0  0  2  0  0  0  0  0  0
  179.7230  176.9110  141.1500 C   0  0  0  0  0  2  0  0  0  0  0  0
  179.6930  176.6820  139.6510 C   0  0  0  0  0  2  0  0  0  0  0  0
  180.9550  175.9710  139.2020 C   0  0  0  0  0  1  0  0  0  0  0  0
  1  9  1  0  0  0  0
  1  6  1  0  0  0  0
  2  5  1  0  0  0  0
  3  7  1  0  0  0  0
  3  2  1  0  0  0  0
  4  7  1  0  0  0  0
  5 14  1  0  0  0  0
  5 16  2  0  0  0  0
  8 12  2  0  0  0  0
 10 19  1  0  0  0  0
 10 18  2  0  0  0  0
 11  4  1  0  0  0  0
 12 16  1  0  0  0  0
 13  2  2  0  0  0  0
 13  8  1  0  0  0  0
 14  1  2  0  0  0  0
 15 11  1  0  0  0  0
 16 17  1  0  0  0  0
 17  6  2  0  0  0  0
 18 13  1  0  0  0  0
 19  3  2  0  0  0  0
 20 15  1  0  0  0  0
 20 19  1  0  0  0  0
 21  8  1  0  0  0  0
 23 21  1  0  0  0  0
 23 22  1  1  0  0  0
 24 25  2  0  0  0  0
 25 27  1  0  0  0  0
 25 23  1  0  0  0  0
 27 26  2  0  0  0  0
 28 27  1  0  0  0  0
 29 28  1  0  0  0  0
 30 29  1  0  0  0  0
 31 30  1  0  0  0  0
M  END
>  <MODEL>
9

>  <REMARK>
 VINA RESULT:      -8.8      3.443      5.948
  Name = 
  6 active torsions:
  status: ('A' for Active; 'I' for Inactive)
    1  A    between atoms: C_1  and  C_11
    2  A    between atoms: C_9  and  C_22
    3  A    between atoms: C_9  and  N_23
    4  A    between atoms: C_11  and  N_24
    5  A    between atoms: C_15  and  N_23
    6  A    between atoms: C_19  and  C_22
                            x       y       z     vdW  Elec       q    Type
                         _______ _______ _______ _____ _____    ______ ____

>  <TORSDO>
F 6

$$$$
