=
 OpenBabel10262419203D

 31 35  0  0  1  0  0  0  0  0999 V2000
  184.9670  178.4990  144.6380 C   0  0  0  0  0  0  0  0  0  0  0  0
  188.4810  177.7630  143.4700 C   0  0  0  0  0  0  0  0  0  0  0  0
  189.2780  177.5410  144.6520 C   0  0  0  0  0  0  0  0  0  0  0  0
  189.4110  177.5620  147.2540 C   0  0  0  0  0  2  0  0  0  0  0  0
  187.0760  178.0510  143.4820 C   0  0  0  0  0  0  0  0  0  0  0  0
  184.3080  178.6310  143.4170 C   0  0  0  0  0  3  0  0  0  0  0  0
  188.5840  177.3610  145.9930 C   0  0  0  0  0  2  0  0  0  0  0  0
  188.3820  177.8600  141.0130 C   0  0  0  0  0  0  0  0  0  0  0  0
  184.2150  178.6580  145.9090 C   0  0  0  0  0  1  0  0  0  0  0  0
  191.2600  177.3010  143.2410 C   0  0  0  0  0  3  0  0  0  0  0  0
  190.2800  176.4280  147.4340 N   0  0  0  0  0  0  0  0  0  0  0  0
  187.0510  178.1030  141.0760 N   0  0  0  0  0  0  0  0  0  0  0  0
  189.1200  177.6950  142.1970 C   0  0  0  0  0  0  0  0  0  0  0  0
  189.0280  177.7690  139.7370 N   0  0  0  0  0  2  0  0  0  0  0  0
  186.3320  178.2160  144.6640 C   0  0  0  0  0  3  0  0  0  0  0  0
  191.3110  176.2580  146.6870 C   0  0  0  0  0  3  0  0  0  0  0  0
  186.3890  178.2070  142.2510 C   0  0  0  0  0  0  0  0  0  0  0  0
  185.0190  178.4870  142.2270 C   0  0  0  0  0  3  0  0  0  0  0  0
  190.4920  177.4660  142.1030 C   0  0  0  0  0  3  0  0  0  0  0  0
  190.6850  177.3270  144.5040 C   0  0  0  0  0  0  0  0  0  0  0  0
  191.6720  177.2580  145.6340 C   0  0  0  0  0  2  0  0  0  0  0  0
  189.1500  178.8370  137.5520 C   0  0  0  0  0  1  0  0  0  0  0  0
  188.3220  177.9640  138.4790 C   0  0  1  0  0  3  0  0  0  0  0  0
  188.0910  176.6710  137.8520 N   0  0  0  0  0  2  0  0  0  0  0  0
  189.2620  176.2920  137.2270 O   0  0  0  0  0  0  0  0  0  0  0  0
  189.1630  173.9870  137.2270 O   0  0  0  0  0  0  0  0  0  0  0  0
  189.8300  175.0340  137.4430 C   0  0  0  0  0  0  0  0  0  0  0  0
  191.1720  174.9230  137.9130 N   0  0  0  0  0  2  0  0  0  0  0  0
  193.4470  175.7080  138.1420 C   0  0  0  0  0  2  0  0  0  0  0  0
  192.8250  176.4010  136.9500 C   0  0  0  0  0  2  0  0  0  0  0  0
  191.9840  176.1000  138.1740 C   0  0  0  0  0  3  0  0  0  0  0  0
  1 15  1  0  0  0  0
  1  9  1  0  0  0  0
  2  5  1  0  0  0  0
  2  3  1  0  0  0  0
  3  7  1  0  0  0  0
  4 11  1  0  0  0  0
  5 15  2  0  0  0  0
  6  1  2  0  0  0  0
  7  4  1  0  0  0  0
  8 12  2  0  0  0  0
  8 13  1  0  0  0  0
 10 20  1  0  0  0  0
 12 17  1  0  0  0  0
 13  2  2  0  0  0  0
 14  8  1  0  0  0  0
 16 11  2  0  0  0  0
 17  5  1  0  0  0  0
 18 17  2  0  0  0  0
 18  6  1  0  0  0  0
 19 13  1  0  0  0  0
 19 10  2  0  0  0  0
 20  3  2  0  0  0  0
 20 21  1  0  0  0  0
 21 16  1  0  0  0  0
 23 22  1  6  0  0  0
 23 14  1  0  0  0  0
 24 23  1  0  0  0  0
 25 27  1  0  0  0  0
 25 24  1  0  0  0  0
 26 27  2  0  0  0  0
 27 28  1  0  0  0  0
 28 31  1  0  0  0  0
 29 31  1  0  0  0  0
 30 29  1  0  0  0  0
 30 31  1  0  0  0  0
M  END
>  <MODEL>
1

>  <REMARK>
 VINA RESULT:      -9.7      0.000      0.000
  Name = 
  5 active torsions:
  status: ('A' for Active; 'I' for Inactive)
    1  A    between atoms: O_3  and  C_19
    2  A    between atoms: O_3  and  N_22
    3  A    between atoms: C_9  and  N_22
    4  A    between atoms: C_9  and  N_23
    5  A    between atoms: C_11  and  N_24
                            x       y       z     vdW  Elec       q    Type
                         _______ _______ _______ _____ _____    ______ ____

>  <TORSDO>
F 5

$$$$
=
 OpenBabel10262419203D

 31 35  0  0  1  0  0  0  0  0999 V2000
  185.0100  178.4970  144.7370 C   0  0  0  0  0  0  0  0  0  0  0  0
  188.5140  177.7570  143.5410 C   0  0  0  0  0  0  0  0  0  0  0  0
  189.3190  177.5320  144.7170 C   0  0  0  0  0  0  0  0  0  0  0  0
  189.4710  177.5470  147.3170 C   0  0  0  0  0  2  0  0  0  0  0  0
  187.1100  178.0480  143.5640 C   0  0  0  0  0  0  0  0  0  0  0  0
  184.3420  178.6330  143.5220 C   0  0  0  0  0  3  0  0  0  0  0  0
  188.6350  177.3490  146.0630 C   0  0  0  0  0  2  0  0  0  0  0  0
  188.3960  177.8590  141.0860 C   0  0  0  0  0  0  0  0  0  0  0  0
  184.2680  178.6550  146.0150 C   0  0  0  0  0  1  0  0  0  0  0  0
  191.2900  177.2910  143.2900 C   0  0  0  0  0  3  0  0  0  0  0  0
  190.3400  176.4110  147.4890 N   0  0  0  0  0  0  0  0  0  0  0  0
  187.0660  178.1040  141.1590 N   0  0  0  0  0  0  0  0  0  0  0  0
  189.1430  177.6910  142.2630 C   0  0  0  0  0  0  0  0  0  0  0  0
  189.0320  177.7700  139.8040 N   0  0  0  0  0  2  0  0  0  0  0  0
  186.3750  178.2110  144.7530 C   0  0  0  0  0  3  0  0  0  0  0  0
  191.3650  176.2400  146.7340 C   0  0  0  0  0  3  0  0  0  0  0  0
  186.4130  178.2080  142.3390 C   0  0  0  0  0  0  0  0  0  0  0  0
  185.0440  178.4910  142.3260 C   0  0  0  0  0  3  0  0  0  0  0  0
  190.5130  177.4590  142.1590 C   0  0  0  0  0  3  0  0  0  0  0  0
  190.7240  177.3150  144.5580 C   0  0  0  0  0  0  0  0  0  0  0  0
  191.7210  177.2430  145.6800 C   0  0  0  0  0  2  0  0  0  0  0  0
  189.1590  178.8050  137.6040 C   0  0  0  0  0  1  0  0  0  0  0  0
  188.3180  177.9690  138.5520 C   0  0  1  0  0  3  0  0  0  0  0  0
  188.0410  176.6750  137.9460 N   0  0  0  0  0  2  0  0  0  0  0  0
  189.1760  176.2770  137.2690 O   0  0  0  0  0  0  0  0  0  0  0  0
  190.8670  175.3050  138.5010 O   0  0  0  0  0  0  0  0  0  0  0  0
  189.9210  175.1680  137.6810 C   0  0  0  0  0  0  0  0  0  0  0  0
  189.6170  173.8710  137.1730 N   0  0  0  0  0  2  0  0  0  0  0  0
  188.2070  172.1820  136.1710 C   0  0  0  0  0  2  0  0  0  0  0  0
  187.3280  173.1180  136.9700 C   0  0  0  0  0  2  0  0  0  0  0  0
  188.5330  173.6600  136.2280 C   0  0  0  0  0  3  0  0  0  0  0  0
  1 15  1  0  0  0  0
  1  9  1  0  0  0  0
  2  5  1  0  0  0  0
  2  3  1  0  0  0  0
  3  7  1  0  0  0  0
  4 11  1  0  0  0  0
  5 15  2  0  0  0  0
  6  1  2  0  0  0  0
  7  4  1  0  0  0  0
  8 12  2  0  0  0  0
  8 13  1  0  0  0  0
 10 20  1  0  0  0  0
 12 17  1  0  0  0  0
 13  2  2  0  0  0  0
 14  8  1  0  0  0  0
 16 11  2  0  0  0  0
 17  5  1  0  0  0  0
 18 17  2  0  0  0  0
 18  6  1  0  0  0  0
 19 13  1  0  0  0  0
 19 10  2  0  0  0  0
 20  3  2  0  0  0  0
 20 21  1  0  0  0  0
 21 16  1  0  0  0  0
 23 22  1  6  0  0  0
 23 14  1  0  0  0  0
 24 23  1  0  0  0  0
 25 27  1  0  0  0  0
 25 24  1  0  0  0  0
 27 26  2  0  0  0  0
 28 27  1  0  0  0  0
 29 31  1  0  0  0  0
 29 30  1  0  0  0  0
 31 30  1  0  0  0  0
 31 28  1  0  0  0  0
M  END
>  <MODEL>
2

>  <REMARK>
 VINA RESULT:      -9.5      1.113      1.943
  Name = 
  5 active torsions:
  status: ('A' for Active; 'I' for Inactive)
    1  A    between atoms: O_3  and  C_19
    2  A    between atoms: O_3  and  N_22
    3  A    between atoms: C_9  and  N_22
    4  A    between atoms: C_9  and  N_23
    5  A    between atoms: C_11  and  N_24
                            x       y       z     vdW  Elec       q    Type
                         _______ _______ _______ _____ _____    ______ ____

>  <TORSDO>
F 5

$$$$
=
 OpenBabel10262419203D

 31 35  0  0  1  0  0  0  0  0999 V2000
  184.9770  178.5180  144.5970 C   0  0  0  0  0  0  0  0  0  0  0  0
  188.5010  177.7830  143.4570 C   0  0  0  0  0  0  0  0  0  0  0  0
  189.2900  177.5680  144.6460 C   0  0  0  0  0  0  0  0  0  0  0  0
  189.4030  177.5990  147.2480 C   0  0  0  0  0  2  0  0  0  0  0  0
  187.0960  178.0690  143.4580 C   0  0  0  0  0  0  0  0  0  0  0  0
  184.3270  178.6440  143.3710 C   0  0  0  0  0  3  0  0  0  0  0  0
  188.5860  177.3910  145.9820 C   0  0  0  0  0  2  0  0  0  0  0  0
  188.4200  177.8710  141.0000 C   0  0  0  0  0  0  0  0  0  0  0  0
  184.2160  178.6800  145.8620 C   0  0  0  0  0  1  0  0  0  0  0  0
  191.2830  177.3260  143.2500 C   0  0  0  0  0  3  0  0  0  0  0  0
  190.2730  176.4670  147.4390 N   0  0  0  0  0  0  0  0  0  0  0  0
  187.0870  178.1120  141.0520 N   0  0  0  0  0  0  0  0  0  0  0  0
  189.1490  177.7120  142.1890 C   0  0  0  0  0  0  0  0  0  0  0  0
  189.0750  177.7770  139.7280 N   0  0  0  0  0  2  0  0  0  0  0  0
  186.3430  178.2370  144.6340 C   0  0  0  0  0  3  0  0  0  0  0  0
  191.3100  176.2960  146.7010 C   0  0  0  0  0  3  0  0  0  0  0  0
  186.4170  178.2190  142.2210 C   0  0  0  0  0  0  0  0  0  0  0  0
  185.0470  178.4970  142.1870 C   0  0  0  0  0  3  0  0  0  0  0  0
  190.5220  177.4850  142.1070 C   0  0  0  0  0  3  0  0  0  0  0  0
  190.6980  177.3560  144.5090 C   0  0  0  0  0  0  0  0  0  0  0  0
  191.6770  177.2930  145.6460 C   0  0  0  0  0  2  0  0  0  0  0  0
  189.1450  178.9440  137.5930 C   0  0  0  0  0  1  0  0  0  0  0  0
  188.3780  177.9650  138.4640 C   0  0  1  0  0  3  0  0  0  0  0  0
  188.2690  176.6850  137.7800 N   0  0  0  0  0  2  0  0  0  0  0  0
  186.9270  176.3760  137.6800 O   0  0  0  0  0  0  0  0  0  0  0  0
  186.4110  176.7720  135.4670 O   0  0  0  0  0  0  0  0  0  0  0  0
  186.1220  176.9330  136.6820 C   0  0  0  0  0  0  0  0  0  0  0  0
  184.9670  177.6920  137.0320 N   0  0  0  0  0  2  0  0  0  0  0  0
  183.2320  178.5760  138.4660 C   0  0  0  0  0  2  0  0  0  0  0  0
  183.3470  177.0910  138.7230 C   0  0  0  0  0  2  0  0  0  0  0  0
  184.5890  177.9030  138.4200 C   0  0  0  0  0  3  0  0  0  0  0  0
  1 15  1  0  0  0  0
  1  9  1  0  0  0  0
  2  5  1  0  0  0  0
  2  3  1  0  0  0  0
  3  7  1  0  0  0  0
  4 11  1  0  0  0  0
  5 15  2  0  0  0  0
  6  1  2  0  0  0  0
  7  4  1  0  0  0  0
  8 12  2  0  0  0  0
  8 13  1  0  0  0  0
 10 20  1  0  0  0  0
 12 17  1  0  0  0  0
 13  2  2  0  0  0  0
 14  8  1  0  0  0  0
 16 11  2  0  0  0  0
 17  5  1  0  0  0  0
 18 17  2  0  0  0  0
 18  6  1  0  0  0  0
 19 13  1  0  0  0  0
 19 10  2  0  0  0  0
 20  3  2  0  0  0  0
 20 21  1  0  0  0  0
 21 16  1  0  0  0  0
 23 22  1  6  0  0  0
 23 14  1  0  0  0  0
 24 23  1  0  0  0  0
 25 24  1  0  0  0  0
 26 27  2  0  0  0  0
 27 28  1  0  0  0  0
 27 25  1  0  0  0  0
 28 31  1  0  0  0  0
 29 30  1  0  0  0  0
 31 29  1  0  0  0  0
 31 30  1  0  0  0  0
M  END
>  <MODEL>
3

>  <REMARK>
 VINA RESULT:      -9.4      1.834      3.375
  Name = 
  5 active torsions:
  status: ('A' for Active; 'I' for Inactive)
    1  A    between atoms: O_3  and  C_19
    2  A    between atoms: O_3  and  N_22
    3  A    between atoms: C_9  and  N_22
    4  A    between atoms: C_9  and  N_23
    5  A    between atoms: C_11  and  N_24
                            x       y       z     vdW  Elec       q    Type
                         _______ _______ _______ _____ _____    ______ ____

>  <TORSDO>
F 5

$$$$
=
 OpenBabel10262419203D

 31 35  0  0  1  0  0  0  0  0999 V2000
  190.7000  176.7970  145.0940 C   0  0  0  0  0  0  0  0  0  0  0  0
  187.6770  177.9330  143.1370 C   0  0  0  0  0  0  0  0  0  0  0  0
  186.5760  177.9970  144.0670 C   0  0  0  0  0  0  0  0  0  0  0  0
  185.7000  177.5410  146.4780 C   0  0  0  0  0  2  0  0  0  0  0  0
  189.0160  177.5620  143.4920 C   0  0  0  0  0  0  0  0  0  0  0  0
  191.6810  176.8350  144.1050 C   0  0  0  0  0  3  0  0  0  0  0  0
  186.8570  177.9040  145.5590 C   0  0  0  0  0  2  0  0  0  0  0  0
  188.4780  178.2500  140.8330 C   0  0  0  0  0  0  0  0  0  0  0  0
  191.0520  176.3780  146.4750 C   0  0  0  0  0  1  0  0  0  0  0  0
  185.0860  178.5940  142.2230 C   0  0  0  0  0  3  0  0  0  0  0  0
  184.8270  178.6780  146.6090 N   0  0  0  0  0  0  0  0  0  0  0  0
  189.7330  177.9200  141.2230 N   0  0  0  0  0  0  0  0  0  0  0  0
  187.4320  178.2550  141.7700 C   0  0  0  0  0  0  0  0  0  0  0  0
  188.2270  178.5960  139.4640 N   0  0  0  0  0  2  0  0  0  0  0  0
  189.3870  177.1540  144.7860 C   0  0  0  0  0  3  0  0  0  0  0  0
  184.0550  179.0360  145.6450 C   0  0  0  0  0  3  0  0  0  0  0  0
  190.0280  177.5770  142.4970 C   0  0  0  0  0  0  0  0  0  0  0  0
  191.3430  177.2220  142.8090 C   0  0  0  0  0  3  0  0  0  0  0  0
  186.1470  178.5800  141.3380 C   0  0  0  0  0  3  0  0  0  0  0  0
  185.2730  178.3180  143.5710 C   0  0  0  0  0  0  0  0  0  0  0  0
  184.0030  178.2530  144.3700 C   0  0  0  0  0  2  0  0  0  0  0  0
  189.6390  177.1420  138.1150 C   0  0  0  0  0  1  0  0  0  0  0  0
  189.2630  178.5760  138.4420 C   0  0  1  0  0  3  0  0  0  0  0  0
  188.7680  179.2350  137.2430 N   0  0  0  0  0  2  0  0  0  0  0  0
  187.3960  179.0840  137.2170 O   0  0  0  0  0  0  0  0  0  0  0  0
  187.2000  178.2440  135.0780 O   0  0  0  0  0  0  0  0  0  0  0  0
  186.7680  178.2820  136.2610 C   0  0  0  0  0  0  0  0  0  0  0  0
  185.6300  177.4990  136.6150 N   0  0  0  0  0  2  0  0  0  0  0  0
  183.7620  178.2240  137.9690 C   0  0  0  0  0  2  0  0  0  0  0  0
  183.8050  176.7130  137.9930 C   0  0  0  0  0  2  0  0  0  0  0  0
  185.0960  177.5060  137.9670 C   0  0  0  0  0  3  0  0  0  0  0  0
  1  9  1  0  0  0  0
  2  5  1  0  0  0  0
  2  3  1  0  0  0  0
  3  7  1  0  0  0  0
  4 11  1  0  0  0  0
  5 15  2  0  0  0  0
  6  1  2  0  0  0  0
  7  4  1  0  0  0  0
  8 12  2  0  0  0  0
  8 13  1  0  0  0  0
 10 20  1  0  0  0  0
 12 17  1  0  0  0  0
 13  2  2  0  0  0  0
 14  8  1  0  0  0  0
 15  1  1  0  0  0  0
 16 11  2  0  0  0  0
 17 18  2  0  0  0  0
 17  5  1  0  0  0  0
 18  6  1  0  0  0  0
 19 13  1  0  0  0  0
 19 10  2  0  0  0  0
 20  3  2  0  0  0  0
 20 21  1  0  0  0  0
 21 16  1  0  0  0  0
 23 22  1  6  0  0  0
 23 14  1  0  0  0  0
 24 23  1  0  0  0  0
 25 24  1  0  0  0  0
 26 27  2  0  0  0  0
 27 28  1  0  0  0  0
 27 25  1  0  0  0  0
 28 31  1  0  0  0  0
 29 30  1  0  0  0  0
 31 29  1  0  0  0  0
 31 30  1  0  0  0  0
M  END
>  <MODEL>
4

>  <REMARK>
 VINA RESULT:      -9.4      2.308      5.232
  Name = 
  5 active torsions:
  status: ('A' for Active; 'I' for Inactive)
    1  A    between atoms: O_3  and  C_19
    2  A    between atoms: O_3  and  N_22
    3  A    between atoms: C_9  and  N_22
    4  A    between atoms: C_9  and  N_23
    5  A    between atoms: C_11  and  N_24
                            x       y       z     vdW  Elec       q    Type
                         _______ _______ _______ _____ _____    ______ ____

>  <TORSDO>
F 5

$$$$
=
 OpenBabel10262419203D

 31 35  0  0  1  0  0  0  0  0999 V2000
  190.2020  177.2390  141.9940 C   0  0  0  0  0  0  0  0  0  0  0  0
  186.7640  178.2530  143.1800 C   0  0  0  0  0  0  0  0  0  0  0  0
  186.7570  178.1110  144.6150 C   0  0  0  0  0  0  0  0  0  0  0  0
  188.0170  177.3280  146.7570 C   0  0  0  0  0  2  0  0  0  0  0  0
  187.8990  177.9870  142.3450 C   0  0  0  0  0  0  0  0  0  0  0  0
  190.0880  177.4760  140.6260 C   0  0  0  0  0  3  0  0  0  0  0  0
  188.0730  177.8970  145.3480 C   0  0  0  0  0  2  0  0  0  0  0  0
  185.5350  178.8810  141.1430 C   0  0  0  0  0  0  0  0  0  0  0  0
  191.4770  176.7210  142.5550 C   0  0  0  0  0  1  0  0  0  0  0  0
  184.3930  178.7360  144.6410 C   0  0  0  0  0  3  0  0  0  0  0  0
  187.5610  178.3510  147.6610 N   0  0  0  0  0  0  0  0  0  0  0  0
  186.6420  178.6420  140.4000 N   0  0  0  0  0  0  0  0  0  0  0  0
  185.5690  178.6850  142.5330 C   0  0  0  0  0  0  0  0  0  0  0  0
  184.3350  179.3350  140.5030 N   0  0  0  0  0  2  0  0  0  0  0  0
  189.1200  177.4900  142.8370 C   0  0  0  0  0  3  0  0  0  0  0  0
  186.3310  178.7230  147.6760 C   0  0  0  0  0  3  0  0  0  0  0  0
  187.7990  178.2040  140.9460 C   0  0  0  0  0  0  0  0  0  0  0  0
  188.8880  177.9560  140.1040 C   0  0  0  0  0  3  0  0  0  0  0  0
  184.4090  178.9190  143.2700 C   0  0  0  0  0  3  0  0  0  0  0  0
  185.5370  178.3460  145.3250 C   0  0  0  0  0  0  0  0  0  0  0  0
  185.3190  178.0720  146.7860 C   0  0  0  0  0  2  0  0  0  0  0  0
  183.8090  178.2250  138.4020 C   0  0  0  0  0  1  0  0  0  0  0  0
  184.2300  179.5240  139.0640 C   0  0  1  0  0  3  0  0  0  0  0  0
  183.2430  180.5560  138.7850 N   0  0  0  0  0  2  0  0  0  0  0  0
  181.9960  179.9660  138.8250 O   0  0  0  0  0  0  0  0  0  0  0  0
  180.3770  181.5920  139.0630 O   0  0  0  0  0  0  0  0  0  0  0  0
  180.9310  180.5540  139.5140 C   0  0  0  0  0  0  0  0  0  0  0  0
  180.4650  179.9860  140.7350 N   0  0  0  0  0  2  0  0  0  0  0  0
  180.7340  178.7070  142.7700 C   0  0  0  0  0  2  0  0  0  0  0  0
  179.9730  177.8600  141.7760 C   0  0  0  0  0  2  0  0  0  0  0  0
  181.0690  178.7880  141.2950 C   0  0  0  0  0  3  0  0  0  0  0  0
  1  9  1  0  0  0  0
  1 15  1  0  0  0  0
  2  3  1  0  0  0  0
  3 20  2  0  0  0  0
  3  7  1  0  0  0  0
  4 11  1  0  0  0  0
  5 15  2  0  0  0  0
  5  2  1  0  0  0  0
  6  1  2  0  0  0  0
  7  4  1  0  0  0  0
  8 13  1  0  0  0  0
 10 20  1  0  0  0  0
 11 16  2  0  0  0  0
 12 17  1  0  0  0  0
 12  8  2  0  0  0  0
 13  2  2  0  0  0  0
 13 19  1  0  0  0  0
 14  8  1  0  0  0  0
 17  5  1  0  0  0  0
 18  6  1  0  0  0  0
 18 17  2  0  0  0  0
 19 10  2  0  0  0  0
 20 21  1  0  0  0  0
 21 16  1  0  0  0  0
 23 22  1  6  0  0  0
 23 14  1  0  0  0  0
 24 25  1  0  0  0  0
 24 23  1  0  0  0  0
 25 27  1  0  0  0  0
 26 27  2  0  0  0  0
 27 28  1  0  0  0  0
 28 31  1  0  0  0  0
 30 29  1  0  0  0  0
 31 30  1  0  0  0  0
 31 29  1  0  0  0  0
M  END
>  <MODEL>
5

>  <REMARK>
 VINA RESULT:      -9.3      3.603      7.019
  Name = 
  5 active torsions:
  status: ('A' for Active; 'I' for Inactive)
    1  A    between atoms: O_3  and  C_19
    2  A    between atoms: O_3  and  N_22
    3  A    between atoms: C_9  and  N_22
    4  A    between atoms: C_9  and  N_23
    5  A    between atoms: C_11  and  N_24
                            x       y       z     vdW  Elec       q    Type
                         _______ _______ _______ _____ _____    ______ ____

>  <TORSDO>
F 5

$$$$
=
 OpenBabel10262419203D

 31 35  0  0  1  0  0  0  0  0999 V2000
  190.5850  176.9310  145.9210 C   0  0  0  0  0  0  0  0  0  0  0  0
  187.8630  177.8100  143.4570 C   0  0  0  0  0  0  0  0  0  0  0  0
  186.6520  177.9970  144.2190 C   0  0  0  0  0  0  0  0  0  0  0  0
  185.4630  177.8580  146.5330 C   0  0  0  0  0  2  0  0  0  0  0  0
  189.1380  177.4860  144.0280 C   0  0  0  0  0  0  0  0  0  0  0  0
  191.6860  176.8380  145.0730 C   0  0  0  0  0  3  0  0  0  0  0  0
  186.7350  178.0970  145.7350 C   0  0  0  0  0  2  0  0  0  0  0  0
  188.9610  177.8250  141.2560 C   0  0  0  0  0  0  0  0  0  0  0  0
  190.7480  176.6930  147.3790 C   0  0  0  0  0  1  0  0  0  0  0  0
  185.4250  178.3530  142.1350 C   0  0  0  0  0  3  0  0  0  0  0  0
  184.6020  179.0040  146.4020 N   0  0  0  0  0  0  0  0  0  0  0  0
  190.1480  177.5460  141.8450 N   0  0  0  0  0  0  0  0  0  0  0  0
  187.8030  177.9530  142.0400 C   0  0  0  0  0  0  0  0  0  0  0  0
  188.8970  177.9910  139.8340 N   0  0  0  0  0  2  0  0  0  0  0  0
  189.3300  177.2470  145.4010 C   0  0  0  0  0  3  0  0  0  0  0  0
  183.9680  179.2360  145.3080 C   0  0  0  0  0  3  0  0  0  0  0  0
  190.2700  177.3700  143.1810 C   0  0  0  0  0  0  0  0  0  0  0  0
  191.5270  177.0560  143.7050 C   0  0  0  0  0  3  0  0  0  0  0  0
  186.5920  178.2220  141.4050 C   0  0  0  0  0  3  0  0  0  0  0  0
  185.4310  178.2530  143.5200 C   0  0  0  0  0  0  0  0  0  0  0  0
  184.0670  178.2950  144.1480 C   0  0  0  0  0  2  0  0  0  0  0  0
  190.5050  176.3870  138.9570 C   0  0  0  0  0  1  0  0  0  0  0  0
  190.0550  177.8380  138.9670 C   0  0  1  0  0  3  0  0  0  0  0  0
  189.7030  178.2480  137.6150 N   0  0  0  0  0  2  0  0  0  0  0  0
  189.2460  177.1310  136.9440 O   0  0  0  0  0  0  0  0  0  0  0  0
  188.9240  177.5030  134.6900 O   0  0  0  0  0  0  0  0  0  0  0  0
  188.4260  177.2420  135.8170 C   0  0  0  0  0  0  0  0  0  0  0  0
  187.0160  177.0640  135.9350 N   0  0  0  0  0  2  0  0  0  0  0  0
  185.9180  178.0490  137.8510 C   0  0  0  0  0  2  0  0  0  0  0  0
  184.9290  177.1430  137.1530 C   0  0  0  0  0  2  0  0  0  0  0  0
  186.3940  176.7590  137.2120 C   0  0  0  0  0  3  0  0  0  0  0  0
  1  9  1  0  0  0  0
  2  5  1  0  0  0  0
  2  3  1  0  0  0  0
  3  7  1  0  0  0  0
  5 15  2  0  0  0  0
  6  1  2  0  0  0  0
  7  4  1  0  0  0  0
  8 12  2  0  0  0  0
  8 13  1  0  0  0  0
 10 20  1  0  0  0  0
 11  4  1  0  0  0  0
 12 17  1  0  0  0  0
 13  2  2  0  0  0  0
 14  8  1  0  0  0  0
 15  1  1  0  0  0  0
 16 11  2  0  0  0  0
 17 18  2  0  0  0  0
 17  5  1  0  0  0  0
 18  6  1  0  0  0  0
 19 13  1  0  0  0  0
 19 10  2  0  0  0  0
 20 21  1  0  0  0  0
 20  3  2  0  0  0  0
 21 16  1  0  0  0  0
 23 22  1  6  0  0  0
 23 14  1  0  0  0  0
 24 23  1  0  0  0  0
 25 24  1  0  0  0  0
 26 27  2  0  0  0  0
 27 28  1  0  0  0  0
 27 25  1  0  0  0  0
 28 31  1  0  0  0  0
 30 31  1  0  0  0  0
 30 29  1  0  0  0  0
 31 29  1  0  0  0  0
M  END
>  <MODEL>
6

>  <REMARK>
 VINA RESULT:      -9.2      1.925      4.895
  Name = 
  5 active torsions:
  status: ('A' for Active; 'I' for Inactive)
    1  A    between atoms: O_3  and  C_19
    2  A    between atoms: O_3  and  N_22
    3  A    between atoms: C_9  and  N_22
    4  A    between atoms: C_9  and  N_23
    5  A    between atoms: C_11  and  N_24
                            x       y       z     vdW  Elec       q    Type
                         _______ _______ _______ _____ _____    ______ ____

>  <TORSDO>
F 5

$$$$
=
 OpenBabel10262419203D

 31 35  0  0  1  0  0  0  0  0999 V2000
  187.4410  178.1820  140.0250 C   0  0  0  0  0  0  0  0  0  0  0  0
  185.2260  178.4450  143.0710 C   0  0  0  0  0  0  0  0  0  0  0  0
  183.8770  178.6300  142.5940 C   0  0  0  0  0  0  0  0  0  0  0  0
  182.2930  179.0090  140.5600 C   0  0  0  0  0  2  0  0  0  0  0  0
  186.3700  178.2780  142.2230 C   0  0  0  0  0  0  0  0  0  0  0  0
  188.6790  177.9510  140.6210 C   0  0  0  0  0  3  0  0  0  0  0  0
  183.5720  178.4070  141.1210 C   0  0  0  0  0  2  0  0  0  0  0  0
  186.7390  178.2050  144.9960 C   0  0  0  0  0  0  0  0  0  0  0  0
  187.3290  178.2520  138.5450 C   0  0  0  0  0  1  0  0  0  0  0  0
  183.1150  178.8520  144.9070 C   0  0  0  0  0  3  0  0  0  0  0  0
  181.1680  178.2350  141.0170 N   0  0  0  0  0  0  0  0  0  0  0  0
  187.7840  178.0250  144.1530 N   0  0  0  0  0  0  0  0  0  0  0  0
  185.4520  178.4260  144.4790 C   0  0  0  0  0  0  0  0  0  0  0  0
  186.9550  178.1660  146.4120 N   0  0  0  0  0  2  0  0  0  0  0  0
  186.3060  178.3450  140.8190 C   0  0  0  0  0  3  0  0  0  0  0  0
  180.7640  178.3060  142.2340 C   0  0  0  0  0  3  0  0  0  0  0  0
  187.6430  178.0600  142.8080 C   0  0  0  0  0  0  0  0  0  0  0  0
  188.7790  177.8930  142.0090 C   0  0  0  0  0  3  0  0  0  0  0  0
  184.3990  178.6270  145.3690 C   0  0  0  0  0  3  0  0  0  0  0  0
  182.8330  178.8510  143.5470 C   0  0  0  0  0  0  0  0  0  0  0  0
  181.4200  179.2330  143.2100 C   0  0  0  0  0  2  0  0  0  0  0  0
  188.1470  177.8930  148.5180 C   0  0  0  0  0  1  0  0  0  0  0  0
  188.2700  177.9750  147.0060 C   0  0  1  0  0  3  0  0  0  0  0  0
  188.8530  176.7420  146.4970 N   0  0  0  0  0  2  0  0  0  0  0  0
  189.8730  176.3760  147.3530 O   0  0  0  0  0  0  0  0  0  0  0  0
  191.8980  177.1280  148.1620 O   0  0  0  0  0  0  0  0  0  0  0  0
  191.1800  176.8340  147.1690 C   0  0  0  0  0  0  0  0  0  0  0  0
  191.7130  176.9750  145.8540 N   0  0  0  0  0  2  0  0  0  0  0  0
  191.6810  177.0850  143.4390 C   0  0  0  0  0  2  0  0  0  0  0  0
  191.6810  175.6290  143.8460 C   0  0  0  0  0  2  0  0  0  0  0  0
  190.9260  176.6470  144.6770 C   0  0  0  0  0  3  0  0  0  0  0  0
  1  6  2  0  0  0  0
  1 15  1  0  0  0  0
  2 13  1  0  0  0  0
  3  2  2  0  0  0  0
  3 20  1  0  0  0  0
  4 11  1  0  0  0  0
  4  7  1  0  0  0  0
  5 17  1  0  0  0  0
  5  2  1  0  0  0  0
  6 18  1  0  0  0  0
  7  3  1  0  0  0  0
  8 14  1  0  0  0  0
  9  1  1  0  0  0  0
 10 19  1  0  0  0  0
 11 16  2  0  0  0  0
 12  8  2  0  0  0  0
 13  8  1  0  0  0  0
 13 19  2  0  0  0  0
 14 23  1  0  0  0  0
 15  5  2  0  0  0  0
 16 21  1  0  0  0  0
 17 12  1  0  0  0  0
 18 17  2  0  0  0  0
 20 10  2  0  0  0  0
 21 20  1  0  0  0  0
 23 22  1  1  0  0  0
 24 23  1  0  0  0  0
 24 25  1  0  0  0  0
 27 25  1  0  0  0  0
 27 26  2  0  0  0  0
 28 27  1  0  0  0  0
 29 30  1  0  0  0  0
 29 31  1  0  0  0  0
 30 31  1  0  0  0  0
 31 28  1  0  0  0  0
M  END
>  <MODEL>
7

>  <REMARK>
 VINA RESULT:      -9.0      3.916      7.639
  Name = 
  5 active torsions:
  status: ('A' for Active; 'I' for Inactive)
    1  A    between atoms: O_3  and  C_19
    2  A    between atoms: O_3  and  N_22
    3  A    between atoms: C_9  and  N_22
    4  A    between atoms: C_9  and  N_23
    5  A    between atoms: C_11  and  N_24
                            x       y       z     vdW  Elec       q    Type
                         _______ _______ _______ _____ _____    ______ ____

>  <TORSDO>
F 5

$$$$
=
 OpenBabel10262419203D

 31 35  0  0  1  0  0  0  0  0999 V2000
  190.5940  176.8510  145.8930 C   0  0  0  0  0  0  0  0  0  0  0  0
  187.8490  177.7960  143.4780 C   0  0  0  0  0  0  0  0  0  0  0  0
  186.6520  177.9910  144.2600 C   0  0  0  0  0  0  0  0  0  0  0  0
  185.4950  177.8440  146.5900 C   0  0  0  0  0  2  0  0  0  0  0  0
  189.1270  177.4480  144.0270 C   0  0  0  0  0  0  0  0  0  0  0  0
  191.6810  176.7520  145.0270 C   0  0  0  0  0  3  0  0  0  0  0  0
  186.7590  178.0740  145.7750 C   0  0  0  0  0  2  0  0  0  0  0  0
  188.9150  177.8200  141.2610 C   0  0  0  0  0  0  0  0  0  0  0  0
  190.7740  176.5950  147.3450 C   0  0  0  0  0  1  0  0  0  0  0  0
  185.4000  178.3880  142.1980 C   0  0  0  0  0  3  0  0  0  0  0  0
  184.6480  179.0040  146.4830 N   0  0  0  0  0  0  0  0  0  0  0  0
  190.1060  177.5170  141.8310 N   0  0  0  0  0  0  0  0  0  0  0  0
  187.7700  177.9560  142.0640 C   0  0  0  0  0  0  0  0  0  0  0  0
  188.8320  178.0030  139.8420 N   0  0  0  0  0  2  0  0  0  0  0  0
  189.3360  177.1910  145.3950 C   0  0  0  0  0  3  0  0  0  0  0  0
  184.0020  179.2560  145.4020 C   0  0  0  0  0  3  0  0  0  0  0  0
  190.2450  177.3250  143.1620 C   0  0  0  0  0  0  0  0  0  0  0  0
  191.5050  176.9870  143.6650 C   0  0  0  0  0  3  0  0  0  0  0  0
  186.5540  178.2490  141.4500 C   0  0  0  0  0  3  0  0  0  0  0  0
  185.4240  178.2730  143.5820 C   0  0  0  0  0  0  0  0  0  0  0  0
  184.0700  178.3270  144.2300 C   0  0  0  0  0  2  0  0  0  0  0  0
  190.5470  176.4430  139.1000 C   0  0  0  0  0  1  0  0  0  0  0  0
  189.9760  177.8430  138.9570 C   0  0  1  0  0  3  0  0  0  0  0  0
  189.5530  178.0590  137.5810 N   0  0  0  0  0  2  0  0  0  0  0  0
  189.3570  176.8200  137.0030 O   0  0  0  0  0  0  0  0  0  0  0  0
  187.1970  177.2380  136.3100 O   0  0  0  0  0  0  0  0  0  0  0  0
  188.0880  176.3960  136.6000 C   0  0  0  0  0  0  0  0  0  0  0  0
  187.7890  175.0040  136.5160 N   0  0  0  0  0  2  0  0  0  0  0  0
  188.4060  172.6940  136.1570 C   0  0  0  0  0  2  0  0  0  0  0  0
  189.4860  173.5690  135.5640 C   0  0  0  0  0  2  0  0  0  0  0  0
  188.7840  173.9940  136.8370 C   0  0  0  0  0  3  0  0  0  0  0  0
  1  9  1  0  0  0  0
  2  5  1  0  0  0  0
  2  3  1  0  0  0  0
  3  7  1  0  0  0  0
  5 15  2  0  0  0  0
  6  1  2  0  0  0  0
  7  4  1  0  0  0  0
  8 12  2  0  0  0  0
  8 13  1  0  0  0  0
 10 20  1  0  0  0  0
 11  4  1  0  0  0  0
 12 17  1  0  0  0  0
 13  2  2  0  0  0  0
 14  8  1  0  0  0  0
 15  1  1  0  0  0  0
 16 11  2  0  0  0  0
 17 18  2  0  0  0  0
 17  5  1  0  0  0  0
 18  6  1  0  0  0  0
 19 13  1  0  0  0  0
 19 10  2  0  0  0  0
 20 21  1  0  0  0  0
 20  3  2  0  0  0  0
 21 16  1  0  0  0  0
 23 22  1  6  0  0  0
 23 14  1  0  0  0  0
 24 23  1  0  0  0  0
 25 24  1  0  0  0  0
 26 27  2  0  0  0  0
 27 25  1  0  0  0  0
 28 27  1  0  0  0  0
 28 31  1  0  0  0  0
 29 31  1  0  0  0  0
 30 29  1  0  0  0  0
 30 31  1  0  0  0  0
M  END
>  <MODEL>
8

>  <REMARK>
 VINA RESULT:      -8.8      1.876      4.539
  Name = 
  5 active torsions:
  status: ('A' for Active; 'I' for Inactive)
    1  A    between atoms: O_3  and  C_19
    2  A    between atoms: O_3  and  N_22
    3  A    between atoms: C_9  and  N_22
    4  A    between atoms: C_9  and  N_23
    5  A    between atoms: C_11  and  N_24
                            x       y       z     vdW  Elec       q    Type
                         _______ _______ _______ _____ _____    ______ ____

>  <TORSDO>
F 5

$$$$
=
 OpenBabel10262419203D

 31 35  0  0  1  0  0  0  0  0999 V2000
  187.8030  178.3050  137.3210 C   0  0  0  0  0  0  0  0  0  0  0  0
  186.7720  178.2840  140.9540 C   0  0  0  0  0  0  0  0  0  0  0  0
  185.3470  178.5080  140.9860 C   0  0  0  0  0  0  0  0  0  0  0  0
  183.1750  179.0680  139.6610 C   0  0  0  0  0  2  0  0  0  0  0  0
  187.5510  178.1980  139.7530 C   0  0  0  0  0  0  0  0  0  0  0  0
  189.1630  178.0240  137.4340 C   0  0  0  0  0  3  0  0  0  0  0  0
  184.5510  178.4200  139.6930 C   0  0  0  0  0  2  0  0  0  0  0  0
  188.8450  177.8730  142.2140 C   0  0  0  0  0  0  0  0  0  0  0  0
  187.1940  178.5100  135.9820 C   0  0  0  0  0  1  0  0  0  0  0  0
  185.4290  178.5160  143.4300 C   0  0  0  0  0  3  0  0  0  0  0  0
  182.2520  178.2520  140.4060 N   0  0  0  0  0  0  0  0  0  0  0  0
  189.5320  177.7730  141.0510 N   0  0  0  0  0  0  0  0  0  0  0  0
  187.4650  178.1370  142.1910 C   0  0  0  0  0  0  0  0  0  0  0  0
  189.5310  177.7060  143.4610 N   0  0  0  0  0  2  0  0  0  0  0  0
  187.0130  178.3930  138.4680 C   0  0  0  0  0  3  0  0  0  0  0  0
  182.2910  178.2110  141.6900 C   0  0  0  0  0  3  0  0  0  0  0  0
  188.9410  177.9300  139.8450 C   0  0  0  0  0  0  0  0  0  0  0  0
  189.7300  177.8400  138.6930 C   0  0  0  0  0  3  0  0  0  0  0  0
  186.7860  178.2540  143.4020 C   0  0  0  0  0  3  0  0  0  0  0  0
  184.6990  178.6390  142.2550 C   0  0  0  0  0  0  0  0  0  0  0  0
  183.2670  179.0470  142.4570 C   0  0  0  0  0  2  0  0  0  0  0  0
  191.6760  178.7350  143.9760 C   0  0  0  0  0  1  0  0  0  0  0  0
  190.9630  177.4640  143.5490 C   0  0  1  0  0  3  0  0  0  0  0  0
  191.2150  176.4120  144.5230 N   0  0  0  0  0  2  0  0  0  0  0  0
  191.6670  177.0130  145.6810 O   0  0  0  0  0  0  0  0  0  0  0  0
  192.1670  175.5940  147.4300 O   0  0  0  0  0  0  0  0  0  0  0  0
  191.4010  176.4650  146.9390 C   0  0  0  0  0  0  0  0  0  0  0  0
  190.2550  176.8850  147.6760 N   0  0  0  0  0  2  0  0  0  0  0  0
  187.9940  177.2460  146.9000 C   0  0  0  0  0  2  0  0  0  0  0  0
  188.2080  178.0850  148.1390 C   0  0  0  0  0  2  0  0  0  0  0  0
  189.3430  177.8880  147.1540 C   0  0  0  0  0  3  0  0  0  0  0  0
  1  6  2  0  0  0  0
  1 15  1  0  0  0  0
  2  3  2  0  0  0  0
  2 13  1  0  0  0  0
  3 20  1  0  0  0  0
  4  7  1  0  0  0  0
  4 11  1  0  0  0  0
  5 17  1  0  0  0  0
  5  2  1  0  0  0  0
  6 18  1  0  0  0  0
  7  3  1  0  0  0  0
  8 14  1  0  0  0  0
  9  1  1  0  0  0  0
 11 16  2  0  0  0  0
 12  8  2  0  0  0  0
 13  8  1  0  0  0  0
 13 19  2  0  0  0  0
 14 23  1  0  0  0  0
 15  5  2  0  0  0  0
 16 21  1  0  0  0  0
 17 12  1  0  0  0  0
 18 17  2  0  0  0  0
 19 10  1  0  0  0  0
 20 21  1  0  0  0  0
 20 10  2  0  0  0  0
 23 22  1  1  0  0  0
 23 24  1  0  0  0  0
 24 25  1  0  0  0  0
 25 27  1  0  0  0  0
 27 26  2  0  0  0  0
 27 28  1  0  0  0  0
 29 31  1  0  0  0  0
 29 30  1  0  0  0  0
 31 28  1  0  0  0  0
 31 30  1  0  0  0  0
M  END
>  <MODEL>
9

>  <REMARK>
 VINA RESULT:      -8.7      3.081      7.677
  Name = 
  5 active torsions:
  status: ('A' for Active; 'I' for Inactive)
    1  A    between atoms: O_3  and  C_19
    2  A    between atoms: O_3  and  N_22
    3  A    between atoms: C_9  and  N_22
    4  A    between atoms: C_9  and  N_23
    5  A    between atoms: C_11  and  N_24
                            x       y       z     vdW  Elec       q    Type
                         _______ _______ _______ _____ _____    ______ ____

>  <TORSDO>
F 5

$$$$
