=
 OpenBabel10262419513D

 25 29  0  0  0  0  0  0  0  0999 V2000
  187.2180  177.9950  145.4310 C   0  0  0  0  0  0  0  0  0  0  0  0
  188.5290  177.6720  145.0200 C   0  0  0  0  0  0  0  0  0  0  0  0
  187.8850  177.9220  147.7770 C   0  0  0  0  0  3  0  0  0  0  0  0
  186.0810  178.2310  144.6310 C   0  0  0  0  0  0  0  0  0  0  0  0
  183.6330  178.7600  143.3900 C   0  0  0  0  0  3  0  0  0  0  0  0
  189.1870  177.6020  147.3800 C   0  0  0  0  0  3  0  0  0  0  0  0
  184.9440  178.5250  145.3820 C   0  0  0  0  0  0  0  0  0  0  0  0
  183.7130  178.7920  144.7890 C   0  0  0  0  0  3  0  0  0  0  0  0
  190.8910  177.1500  145.6160 C   0  0  0  0  0  0  0  0  0  0  0  0
  191.7850  176.9490  146.4810 O   0  0  0  0  0  0  0  0  0  0  0  0
  188.8670  177.5120  143.5560 C   0  0  0  0  0  2  0  0  0  0  0  0
  184.7690  178.4660  142.6160 C   0  0  0  0  0  3  0  0  0  0  0  0
  186.9250  178.1130  146.7910 C   0  0  0  0  0  0  0  0  0  0  0  0
  185.3010  178.5010  147.0270 S   0  0  0  0  0  0  0  0  0  0  0  0
  191.2340  177.0700  144.1950 C   0  0  0  0  0  3  0  0  0  0  0  0
  186.0010  178.2000  143.2350 C   0  0  0  0  0  3  0  0  0  0  0  0
  190.3240  177.2470  143.2290 C   0  0  0  0  0  0  0  0  0  0  0  0
  189.5150  177.4760  146.0150 C   0  0  0  0  0  0  0  0  0  0  0  0
  192.4540  177.2450  140.0820 C   0  0  0  0  0  0  0  0  0  0  0  0
  190.7340  177.1580  141.8060 C   0  0  0  0  0  0  0  0  0  0  0  0
  192.0770  177.3290  141.4260 C   0  0  0  0  0  3  0  0  0  0  0  0
  193.7830  177.4170  139.7230 O   0  0  0  0  0  1  0  0  0  0  0  0
  189.7780  176.9020  140.8080 C   0  0  0  0  0  3  0  0  0  0  0  0
  191.4930  176.9900  139.1020 C   0  0  0  0  0  3  0  0  0  0  0  0
  190.1550  176.8180  139.4650 C   0  0  0  0  0  3  0  0  0  0  0  0
  1 13  1  0  0  0  0
  2  1  2  0  0  0  0
  2 18  1  0  0  0  0
  4  7  1  0  0  0  0
  4  1  1  0  0  0  0
  5  8  1  0  0  0  0
  6  3  1  0  0  0  0
  7 14  1  0  0  0  0
  8  7  2  0  0  0  0
  9 18  1  0  0  0  0
  9 10  2  0  0  0  0
 11  2  1  0  0  0  0
 12 16  1  0  0  0  0
 12  5  2  0  0  0  0
 13 14  1  0  0  0  0
 13  3  2  0  0  0  0
 15  9  1  0  0  0  0
 16  4  2  0  0  0  0
 17 11  1  0  0  0  0
 17 15  2  0  0  0  0
 18  6  2  0  0  0  0
 19 21  1  0  0  0  0
 20 17  1  0  0  0  0
 21 20  2  0  0  0  0
 22 19  1  0  0  0  0
 23 20  1  0  0  0  0
 24 25  1  0  0  0  0
 24 19  2  0  0  0  0
 25 23  2  0  0  0  0
M  END
>  <MODEL>
1

>  <REMARK>
 VINA RESULT:     -11.8      0.000      0.000
  Name = 
  1 active torsions:
  status: ('A' for Active; 'I' for Inactive)
    1  A    between atoms: C_6  and  C_23
                            x       y       z     vdW  Elec       q    Type
                         _______ _______ _______ _____ _____    ______ ____

>  <TORSDO>
F 1

$$$$
=
 OpenBabel10262419513D

 25 29  0  0  0  0  0  0  0  0999 V2000
  186.9630  177.9310  144.8810 C   0  0  0  0  0  0  0  0  0  0  0  0
  188.1460  177.6060  144.1830 C   0  0  0  0  0  0  0  0  0  0  0  0
  188.0710  177.5620  147.0240 C   0  0  0  0  0  3  0  0  0  0  0  0
  185.7080  178.3020  144.3560 C   0  0  0  0  0  0  0  0  0  0  0  0
  183.1010  179.0660  143.6970 C   0  0  0  0  0  3  0  0  0  0  0  0
  189.2480  177.2400  146.3410 C   0  0  0  0  0  3  0  0  0  0  0  0
  184.7610  178.5520  145.3480 C   0  0  0  0  0  0  0  0  0  0  0  0
  183.4550  178.9340  145.0470 C   0  0  0  0  0  3  0  0  0  0  0  0
  190.5420  176.9260  144.2320 C   0  0  0  0  0  0  0  0  0  0  0  0
  191.5740  176.5920  144.8730 O   0  0  0  0  0  0  0  0  0  0  0  0
  188.1790  177.6020  142.6720 C   0  0  0  0  0  2  0  0  0  0  0  0
  184.0440  178.8190  142.6840 C   0  0  0  0  0  3  0  0  0  0  0  0
  186.9500  177.9030  146.2770 C   0  0  0  0  0  0  0  0  0  0  0  0
  185.4310  178.3250  146.8750 S   0  0  0  0  0  0  0  0  0  0  0  0
  190.5940  176.9970  142.7710 C   0  0  0  0  0  3  0  0  0  0  0  0
  185.3540  178.4350  143.0100 C   0  0  0  0  0  3  0  0  0  0  0  0
  189.5250  177.3200  142.0320 C   0  0  0  0  0  0  0  0  0  0  0  0
  189.2930  177.2580  144.9330 C   0  0  0  0  0  0  0  0  0  0  0  0
  188.8920  178.2300  138.3980 C   0  0  0  0  0  0  0  0  0  0  0  0
  189.6420  177.3800  140.5540 C   0  0  0  0  0  0  0  0  0  0  0  0
  188.7750  178.1800  139.7890 C   0  0  0  0  0  3  0  0  0  0  0  0
  188.0290  179.0250  137.6570 O   0  0  0  0  0  1  0  0  0  0  0  0
  190.6280  176.6300  139.8910 C   0  0  0  0  0  3  0  0  0  0  0  0
  189.8770  177.4790  137.7520 C   0  0  0  0  0  3  0  0  0  0  0  0
  190.7450  176.6800  138.4990 C   0  0  0  0  0  3  0  0  0  0  0  0
  1 13  1  0  0  0  0
  2  1  2  0  0  0  0
  2 18  1  0  0  0  0
  4  1  1  0  0  0  0
  4  7  1  0  0  0  0
  5  8  1  0  0  0  0
  6  3  1  0  0  0  0
  7 14  1  0  0  0  0
  8  7  2  0  0  0  0
  9 10  2  0  0  0  0
  9 18  1  0  0  0  0
 11  2  1  0  0  0  0
 12 16  1  0  0  0  0
 12  5  2  0  0  0  0
 13 14  1  0  0  0  0
 13  3  2  0  0  0  0
 15  9  1  0  0  0  0
 16  4  2  0  0  0  0
 17 11  1  0  0  0  0
 17 15  2  0  0  0  0
 18  6  2  0  0  0  0
 19 21  1  0  0  0  0
 20 17  1  0  0  0  0
 21 20  2  0  0  0  0
 22 19  1  0  0  0  0
 23 20  1  0  0  0  0
 24 19  2  0  0  0  0
 24 25  1  0  0  0  0
 25 23  2  0  0  0  0
M  END
>  <MODEL>
2

>  <REMARK>
 VINA RESULT:     -11.5      1.617      1.987
  Name = 
  1 active torsions:
  status: ('A' for Active; 'I' for Inactive)
    1  A    between atoms: C_6  and  C_23
                            x       y       z     vdW  Elec       q    Type
                         _______ _______ _______ _____ _____    ______ ____

>  <TORSDO>
F 1

$$$$
=
 OpenBabel10262419513D

 25 29  0  0  0  0  0  0  0  0999 V2000
  187.9320  177.6490  145.2250 C   0  0  0  0  0  0  0  0  0  0  0  0
  186.6740  178.0130  144.7010 C   0  0  0  0  0  0  0  0  0  0  0  0
  187.1660  178.0930  147.4990 C   0  0  0  0  0  3  0  0  0  0  0  0
  189.0810  177.2190  144.5290 C   0  0  0  0  0  0  0  0  0  0  0  0
  191.5310  176.3370  143.5110 C   0  0  0  0  0  3  0  0  0  0  0  0
  185.9160  178.4550  146.9890 C   0  0  0  0  0  3  0  0  0  0  0  0
  190.1530  176.9430  145.3770 C   0  0  0  0  0  0  0  0  0  0  0  0
  191.3840  176.5020  144.8950 C   0  0  0  0  0  3  0  0  0  0  0  0
  184.3390  178.7930  145.0870 C   0  0  0  0  0  0  0  0  0  0  0  0
  183.4270  179.1790  145.8650 O   0  0  0  0  0  0  0  0  0  0  0  0
  186.4190  177.9980  143.2110 C   0  0  0  0  0  2  0  0  0  0  0  0
  190.4600  176.6100  142.6420 C   0  0  0  0  0  3  0  0  0  0  0  0
  188.1510  177.6950  146.6030 C   0  0  0  0  0  0  0  0  0  0  0  0
  189.7240  177.2180  146.9800 S   0  0  0  0  0  0  0  0  0  0  0  0
  184.0710  178.7050  143.6500 C   0  0  0  0  0  3  0  0  0  0  0  0
  189.2280  177.0520  143.1480 C   0  0  0  0  0  3  0  0  0  0  0  0
  185.0060  178.3280  142.7700 C   0  0  0  0  0  0  0  0  0  0  0  0
  185.6640  178.4190  145.6030 C   0  0  0  0  0  0  0  0  0  0  0  0
  185.2810  178.5490  138.9860 C   0  0  0  0  0  0  0  0  0  0  0  0
  184.6710  178.2530  141.3260 C   0  0  0  0  0  0  0  0  0  0  0  0
  185.6060  178.6230  140.3430 C   0  0  0  0  0  3  0  0  0  0  0  0
  186.2150  178.9190  138.0280 O   0  0  0  0  0  1  0  0  0  0  0  0
  183.4030  177.8080  140.9160 C   0  0  0  0  0  3  0  0  0  0  0  0
  184.0170  178.1060  138.5940 C   0  0  0  0  0  3  0  0  0  0  0  0
  183.0780  177.7340  139.5580 C   0  0  0  0  0  3  0  0  0  0  0  0
  1 13  1  0  0  0  0
  2  1  2  0  0  0  0
  2 18  1  0  0  0  0
  4  1  1  0  0  0  0
  4  7  1  0  0  0  0
  5  8  1  0  0  0  0
  6  3  1  0  0  0  0
  7 14  1  0  0  0  0
  8  7  2  0  0  0  0
  9 18  1  0  0  0  0
  9 10  2  0  0  0  0
 11  2  1  0  0  0  0
 12 16  1  0  0  0  0
 12  5  2  0  0  0  0
 13 14  1  0  0  0  0
 13  3  2  0  0  0  0
 15  9  1  0  0  0  0
 16  4  2  0  0  0  0
 17 11  1  0  0  0  0
 17 15  2  0  0  0  0
 18  6  2  0  0  0  0
 19 21  1  0  0  0  0
 20 17  1  0  0  0  0
 21 20  2  0  0  0  0
 22 19  1  0  0  0  0
 23 20  1  0  0  0  0
 24 19  2  0  0  0  0
 24 25  1  0  0  0  0
 25 23  2  0  0  0  0
M  END
>  <MODEL>
3

>  <REMARK>
 VINA RESULT:     -11.4      3.000      5.782
  Name = 
  1 active torsions:
  status: ('A' for Active; 'I' for Inactive)
    1  A    between atoms: C_6  and  C_23
                            x       y       z     vdW  Elec       q    Type
                         _______ _______ _______ _____ _____    ______ ____

>  <TORSDO>
F 1

$$$$
=
 OpenBabel10262419513D

 25 29  0  0  0  0  0  0  0  0999 V2000
  189.2130  177.5270  143.4590 C   0  0  0  0  0  0  0  0  0  0  0  0
  188.0130  177.7810  144.1560 C   0  0  0  0  0  0  0  0  0  0  0  0
  190.4290  177.2510  145.5580 C   0  0  0  0  0  3  0  0  0  0  0  0
  189.4280  177.4930  142.0660 C   0  0  0  0  0  0  0  0  0  0  0  0
  190.2350  177.3400  139.3940 C   0  0  0  0  0  3  0  0  0  0  0  0
  189.2440  177.5010  146.2570 C   0  0  0  0  0  3  0  0  0  0  0  0
  190.7510  177.2110  141.7310 C   0  0  0  0  0  0  0  0  0  0  0  0
  191.1800  177.1280  140.4080 C   0  0  0  0  0  3  0  0  0  0  0  0
  186.8050  178.0160  146.3230 C   0  0  0  0  0  0  0  0  0  0  0  0
  186.8050  178.0290  147.5820 O   0  0  0  0  0  0  0  0  0  0  0  0
  186.7340  178.0910  143.4130 C   0  0  0  0  0  2  0  0  0  0  0  0
  188.8960  177.6250  139.7130 C   0  0  0  0  0  3  0  0  0  0  0  0
  190.3870  177.2680  144.1680 C   0  0  0  0  0  0  0  0  0  0  0  0
  191.6790  176.9990  143.1190 S   0  0  0  0  0  0  0  0  0  0  0  0
  185.5510  178.2400  145.6010 C   0  0  0  0  0  3  0  0  0  0  0  0
  188.4860  177.7030  141.0540 C   0  0  0  0  0  3  0  0  0  0  0  0
  185.4900  178.2640  144.2630 C   0  0  0  0  0  0  0  0  0  0  0  0
  188.0420  177.7650  145.5700 C   0  0  0  0  0  0  0  0  0  0  0  0
  182.8400  178.6270  141.5640 C   0  0  0  0  0  0  0  0  0  0  0  0
  184.1870  178.4910  143.5890 C   0  0  0  0  0  0  0  0  0  0  0  0
  184.0710  178.4120  142.1900 C   0  0  0  0  0  3  0  0  0  0  0  0
  182.7410  178.5460  140.1820 O   0  0  0  0  0  1  0  0  0  0  0  0
  183.0420  178.7930  144.3450 C   0  0  0  0  0  3  0  0  0  0  0  0
  181.7100  178.9270  142.3290 C   0  0  0  0  0  3  0  0  0  0  0  0
  181.8110  179.0080  143.7190 C   0  0  0  0  0  3  0  0  0  0  0  0
  1  2  2  0  0  0  0
  1 13  1  0  0  0  0
  2 18  1  0  0  0  0
  3  6  1  0  0  0  0
  4  1  1  0  0  0  0
  5 12  2  0  0  0  0
  5  8  1  0  0  0  0
  7  4  1  0  0  0  0
  7 14  1  0  0  0  0
  8  7  2  0  0  0  0
  9 10  2  0  0  0  0
 11  2  1  0  0  0  0
 11 17  1  0  0  0  0
 12 16  1  0  0  0  0
 13  3  2  0  0  0  0
 14 13  1  0  0  0  0
 15  9  1  0  0  0  0
 16  4  2  0  0  0  0
 17 15  2  0  0  0  0
 18  6  2  0  0  0  0
 18  9  1  0  0  0  0
 19 21  2  0  0  0  0
 19 24  1  0  0  0  0
 20 17  1  0  0  0  0
 20 23  2  0  0  0  0
 21 20  1  0  0  0  0
 22 19  1  0  0  0  0
 24 25  2  0  0  0  0
 25 23  1  0  0  0  0
M  END
>  <MODEL>
4

>  <REMARK>
 VINA RESULT:     -11.1      3.073      6.496
  Name = 
  1 active torsions:
  status: ('A' for Active; 'I' for Inactive)
    1  A    between atoms: C_6  and  C_23
                            x       y       z     vdW  Elec       q    Type
                         _______ _______ _______ _____ _____    ______ ____

>  <TORSDO>
F 1

$$$$
=
 OpenBabel10262419513D

 25 29  0  0  0  0  0  0  0  0999 V2000
  188.5790  177.6470  144.7170 C   0  0  0  0  0  0  0  0  0  0  0  0
  187.2150  177.9490  144.9170 C   0  0  0  0  0  0  0  0  0  0  0  0
  188.9740  177.6210  147.1250 C   0  0  0  0  0  3  0  0  0  0  0  0
  189.2690  177.4690  143.5000 C   0  0  0  0  0  0  0  0  0  0  0  0
  190.9600  177.0490  141.3140 C   0  0  0  0  0  3  0  0  0  0  0  0
  187.6240  177.9190  147.3330 C   0  0  0  0  0  3  0  0  0  0  0  0
  190.6200  177.1800  143.6830 C   0  0  0  0  0  0  0  0  0  0  0  0
  191.4840  176.9660  142.6120 C   0  0  0  0  0  3  0  0  0  0  0  0
  185.3270  178.3870  146.4820 C   0  0  0  0  0  0  0  0  0  0  0  0
  184.8850  178.5340  147.6530 O   0  0  0  0  0  0  0  0  0  0  0  0
  186.2840  178.1510  143.7430 C   0  0  0  0  0  2  0  0  0  0  0  0
  189.6000  177.3380  141.1110 C   0  0  0  0  0  3  0  0  0  0  0  0
  189.4240  177.4890  145.8170 C   0  0  0  0  0  0  0  0  0  0  0  0
  190.9970  177.1370  145.3230 S   0  0  0  0  0  0  0  0  0  0  0  0
  184.4110  178.5070  145.3470 C   0  0  0  0  0  3  0  0  0  0  0  0
  188.7460  177.5500  142.2050 C   0  0  0  0  0  3  0  0  0  0  0  0
  184.8240  178.3880  144.0790 C   0  0  0  0  0  0  0  0  0  0  0  0
  186.7450  178.0840  146.2440 C   0  0  0  0  0  0  0  0  0  0  0  0
  181.6110  179.0480  142.1610 C   0  0  0  0  0  0  0  0  0  0  0  0
  183.8460  178.5140  142.9700 C   0  0  0  0  0  0  0  0  0  0  0  0
  182.5250  178.9330  143.2110 C   0  0  0  0  0  3  0  0  0  0  0  0
  180.3110  179.4620  142.4150 O   0  0  0  0  0  1  0  0  0  0  0  0
  184.2280  178.2140  141.6510 C   0  0  0  0  0  3  0  0  0  0  0  0
  182.0050  178.7460  140.8560 C   0  0  0  0  0  3  0  0  0  0  0  0
  183.3130  178.3300  140.6010 C   0  0  0  0  0  3  0  0  0  0  0  0
  1  2  2  0  0  0  0
  1 13  1  0  0  0  0
  2 18  1  0  0  0  0
  3  6  1  0  0  0  0
  4  7  1  0  0  0  0
  4  1  1  0  0  0  0
  5  8  1  0  0  0  0
  7 14  1  0  0  0  0
  8  7  2  0  0  0  0
  9 10  2  0  0  0  0
 11 17  1  0  0  0  0
 11  2  1  0  0  0  0
 12  5  2  0  0  0  0
 12 16  1  0  0  0  0
 13  3  2  0  0  0  0
 14 13  1  0  0  0  0
 15  9  1  0  0  0  0
 16  4  2  0  0  0  0
 17 15  2  0  0  0  0
 18  9  1  0  0  0  0
 18  6  2  0  0  0  0
 19 22  1  0  0  0  0
 19 21  1  0  0  0  0
 20 21  2  0  0  0  0
 20 17  1  0  0  0  0
 23 20  1  0  0  0  0
 24 19  2  0  0  0  0
 25 24  1  0  0  0  0
 25 23  2  0  0  0  0
M  END
>  <MODEL>
5

>  <REMARK>
 VINA RESULT:     -10.9      3.323      6.619
  Name = 
  1 active torsions:
  status: ('A' for Active; 'I' for Inactive)
    1  A    between atoms: C_6  and  C_23
                            x       y       z     vdW  Elec       q    Type
                         _______ _______ _______ _____ _____    ______ ____

>  <TORSDO>
F 1

$$$$
=
 OpenBabel10262419513D

 25 29  0  0  0  0  0  0  0  0999 V2000
  187.7130  177.8040  145.4910 C   0  0  0  0  0  0  0  0  0  0  0  0
  187.0200  178.1240  144.3040 C   0  0  0  0  0  0  0  0  0  0  0  0
  185.7230  178.2610  146.8290 C   0  0  0  0  0  3  0  0  0  0  0  0
  189.0540  177.3970  145.6420 C   0  0  0  0  0  0  0  0  0  0  0  0
  191.6340  176.5700  146.3330 C   0  0  0  0  0  3  0  0  0  0  0  0
  185.0290  178.5790  145.6580 C   0  0  0  0  0  3  0  0  0  0  0  0
  189.4010  177.1650  146.9720 C   0  0  0  0  0  0  0  0  0  0  0  0
  190.6790  176.7530  147.3440 C   0  0  0  0  0  3  0  0  0  0  0  0
  184.9160  178.8420  143.1810 C   0  0  0  0  0  0  0  0  0  0  0  0
  183.7130  179.2140  143.2400 O   0  0  0  0  0  0  0  0  0  0  0  0
  187.7160  178.0780  142.9630 C   0  0  0  0  0  2  0  0  0  0  0  0
  191.3010  176.7980  144.9870 C   0  0  0  0  0  3  0  0  0  0  0  0
  187.0550  177.8780  146.7200 C   0  0  0  0  0  0  0  0  0  0  0  0
  188.0880  177.4530  147.9840 S   0  0  0  0  0  0  0  0  0  0  0  0
  185.5690  178.7240  141.8760 C   0  0  0  0  0  3  0  0  0  0  0  0
  190.0060  177.2130  144.6340 C   0  0  0  0  0  3  0  0  0  0  0  0
  186.8520  178.3600  141.7490 C   0  0  0  0  0  0  0  0  0  0  0  0
  185.6650  178.5140  144.4020 C   0  0  0  0  0  0  0  0  0  0  0  0
  187.2350  178.1500  137.9750 C   0  0  0  0  0  0  0  0  0  0  0  0
  187.4570  178.2530  140.3980 C   0  0  0  0  0  0  0  0  0  0  0  0
  186.6560  178.2520  139.2430 C   0  0  0  0  0  3  0  0  0  0  0  0
  186.4310  178.1510  136.8430 O   0  0  0  0  0  1  0  0  0  0  0  0
  188.8510  178.1480  140.2530 C   0  0  0  0  0  3  0  0  0  0  0  0
  188.6210  178.0460  137.8460 C   0  0  0  0  0  3  0  0  0  0  0  0
  189.4300  178.0460  138.9850 C   0  0  0  0  0  3  0  0  0  0  0  0
  1  4  1  0  0  0  0
  1 13  2  0  0  0  0
  2 18  2  0  0  0  0
  2  1  1  0  0  0  0
  4  7  1  0  0  0  0
  5  8  1  0  0  0  0
  6  3  2  0  0  0  0
  7  8  2  0  0  0  0
  7 14  1  0  0  0  0
  9 10  2  0  0  0  0
  9 18  1  0  0  0  0
 11  2  1  0  0  0  0
 12  5  2  0  0  0  0
 13  3  1  0  0  0  0
 13 14  1  0  0  0  0
 15  9  1  0  0  0  0
 16 12  1  0  0  0  0
 16  4  2  0  0  0  0
 17 15  2  0  0  0  0
 17 11  1  0  0  0  0
 18  6  1  0  0  0  0
 19 21  1  0  0  0  0
 20 17  1  0  0  0  0
 21 20  2  0  0  0  0
 22 19  1  0  0  0  0
 23 20  1  0  0  0  0
 24 19  2  0  0  0  0
 24 25  1  0  0  0  0
 25 23  2  0  0  0  0
M  END
>  <MODEL>
6

>  <REMARK>
 VINA RESULT:     -10.8      2.941      5.073
  Name = 
  1 active torsions:
  status: ('A' for Active; 'I' for Inactive)
    1  A    between atoms: C_6  and  C_23
                            x       y       z     vdW  Elec       q    Type
                         _______ _______ _______ _____ _____    ______ ____

>  <TORSDO>
F 1

$$$$
=
 OpenBabel10262419513D

 25 29  0  0  0  0  0  0  0  0999 V2000
  187.8110  177.6900  144.9360 C   0  0  0  0  0  0  0  0  0  0  0  0
  188.7000  177.4430  143.8690 C   0  0  0  0  0  0  0  0  0  0  0  0
  189.5290  177.0970  146.5660 C   0  0  0  0  0  3  0  0  0  0  0  0
  186.4670  178.1120  144.8790 C   0  0  0  0  0  0  0  0  0  0  0  0
  183.8110  178.9370  145.1650 C   0  0  0  0  0  3  0  0  0  0  0  0
  190.4170  176.8510  145.5140 C   0  0  0  0  0  3  0  0  0  0  0  0
  185.8910  178.2530  146.1410 C   0  0  0  0  0  0  0  0  0  0  0  0
  184.5710  178.6630  146.3110 C   0  0  0  0  0  3  0  0  0  0  0  0
  190.9650  176.7660  143.0830 C   0  0  0  0  0  0  0  0  0  0  0  0
  192.1360  176.3670  143.3240 O   0  0  0  0  0  0  0  0  0  0  0  0
  188.2530  177.5990  142.4330 C   0  0  0  0  0  2  0  0  0  0  0  0
  184.3760  178.8000  143.8850 C   0  0  0  0  0  3  0  0  0  0  0  0
  188.2400  177.5140  146.2530 C   0  0  0  0  0  0  0  0  0  0  0  0
  187.0030  177.8670  147.3430 S   0  0  0  0  0  0  0  0  0  0  0  0
  190.5540  176.9910  141.6960 C   0  0  0  0  0  3  0  0  0  0  0  0
  185.7090  178.3870  143.7360 C   0  0  0  0  0  3  0  0  0  0  0  0
  189.3160  177.3890  141.3730 C   0  0  0  0  0  0  0  0  0  0  0  0
  190.0140  177.0190  144.1750 C   0  0  0  0  0  0  0  0  0  0  0  0
  187.3550  178.2570  138.2370 C   0  0  0  0  0  0  0  0  0  0  0  0
  188.9610  177.6050  139.9490 C   0  0  0  0  0  0  0  0  0  0  0  0
  187.6810  178.0570  139.5810 C   0  0  0  0  0  3  0  0  0  0  0  0
  186.0870  178.7030  137.8900 O   0  0  0  0  0  1  0  0  0  0  0  0
  189.9050  177.3590  138.9380 C   0  0  0  0  0  3  0  0  0  0  0  0
  188.3040  178.0080  137.2430 C   0  0  0  0  0  3  0  0  0  0  0  0
  189.5790  177.5600  137.5940 C   0  0  0  0  0  3  0  0  0  0  0  0
  1 13  2  0  0  0  0
  2 18  2  0  0  0  0
  2  1  1  0  0  0  0
  4  1  1  0  0  0  0
  4  7  1  0  0  0  0
  5  8  1  0  0  0  0
  6  3  2  0  0  0  0
  7  8  2  0  0  0  0
  7 14  1  0  0  0  0
  9 10  2  0  0  0  0
  9 18  1  0  0  0  0
 11  2  1  0  0  0  0
 12  5  2  0  0  0  0
 13  3  1  0  0  0  0
 13 14  1  0  0  0  0
 15  9  1  0  0  0  0
 16 12  1  0  0  0  0
 16  4  2  0  0  0  0
 17 15  2  0  0  0  0
 17 11  1  0  0  0  0
 18  6  1  0  0  0  0
 19 21  1  0  0  0  0
 20 17  1  0  0  0  0
 21 20  2  0  0  0  0
 22 19  1  0  0  0  0
 23 20  1  0  0  0  0
 24 25  1  0  0  0  0
 24 19  2  0  0  0  0
 25 23  2  0  0  0  0
M  END
>  <MODEL>
7

>  <REMARK>
 VINA RESULT:     -10.8      2.234      2.897
  Name = 
  1 active torsions:
  status: ('A' for Active; 'I' for Inactive)
    1  A    between atoms: C_6  and  C_23
                            x       y       z     vdW  Elec       q    Type
                         _______ _______ _______ _____ _____    ______ ____

>  <TORSDO>
F 1

$$$$
=
 OpenBabel10262419513D

 25 29  0  0  0  0  0  0  0  0999 V2000
  188.9420  177.6630  143.8730 C   0  0  0  0  0  0  0  0  0  0  0  0
  187.9370  177.9130  142.9140 C   0  0  0  0  0  0  0  0  0  0  0  0
  190.6590  177.6410  142.1390 C   0  0  0  0  0  3  0  0  0  0  0  0
  188.8040  177.5110  145.2680 C   0  0  0  0  0  0  0  0  0  0  0  0
  188.9290  177.1590  148.0390 C   0  0  0  0  0  3  0  0  0  0  0  0
  189.6710  177.8900  141.1810 C   0  0  0  0  0  3  0  0  0  0  0  0
  190.0200  177.2710  145.9080 C   0  0  0  0  0  0  0  0  0  0  0  0
  190.1090  177.0920  147.2860 C   0  0  0  0  0  3  0  0  0  0  0  0
  187.2960  178.2970  140.5380 C   0  0  0  0  0  0  0  0  0  0  0  0
  187.6030  178.3800  139.3190 O   0  0  0  0  0  0  0  0  0  0  0  0
  186.4870  178.0310  143.3210 C   0  0  0  0  0  2  0  0  0  0  0  0
  187.6950  177.4010  147.4110 C   0  0  0  0  0  3  0  0  0  0  0  0
  190.2720  177.5340  143.4700 C   0  0  0  0  0  0  0  0  0  0  0  0
  191.2770  177.2380  144.7900 S   0  0  0  0  0  0  0  0  0  0  0  0
  185.9020  178.4860  140.9430 C   0  0  0  0  0  3  0  0  0  0  0  0
  187.6270  177.5790  146.0200 C   0  0  0  0  0  3  0  0  0  0  0  0
  185.5070  178.3830  142.2180 C   0  0  0  0  0  0  0  0  0  0  0  0
  188.3190  178.0250  141.5570 C   0  0  0  0  0  0  0  0  0  0  0  0
  181.7450  178.8150  141.9110 C   0  0  0  0  0  0  0  0  0  0  0  0
  184.0800  178.5910  142.5670 C   0  0  0  0  0  0  0  0  0  0  0  0
  183.0870  178.6180  141.5730 C   0  0  0  0  0  3  0  0  0  0  0  0
  180.7760  178.8400  140.9170 O   0  0  0  0  0  1  0  0  0  0  0  0
  183.6970  178.7660  143.9080 C   0  0  0  0  0  3  0  0  0  0  0  0
  181.3790  178.9890  143.2470 C   0  0  0  0  0  3  0  0  0  0  0  0
  182.3560  178.9630  144.2460 C   0  0  0  0  0  3  0  0  0  0  0  0
  1  4  1  0  0  0  0
  2 11  1  0  0  0  0
  2  1  1  0  0  0  0
  3 13  1  0  0  0  0
  4  7  2  0  0  0  0
  4 16  1  0  0  0  0
  6 18  1  0  0  0  0
  6  3  2  0  0  0  0
  7  8  1  0  0  0  0
  8  5  2  0  0  0  0
  9 15  1  0  0  0  0
  9 18  1  0  0  0  0
 10  9  2  0  0  0  0
 12  5  1  0  0  0  0
 13  1  2  0  0  0  0
 13 14  1  0  0  0  0
 14  7  1  0  0  0  0
 15 17  2  0  0  0  0
 16 12  2  0  0  0  0
 17 20  1  0  0  0  0
 17 11  1  0  0  0  0
 18  2  2  0  0  0  0
 19 24  1  0  0  0  0
 20 23  2  0  0  0  0
 21 19  2  0  0  0  0
 21 20  1  0  0  0  0
 22 19  1  0  0  0  0
 23 25  1  0  0  0  0
 24 25  2  0  0  0  0
M  END
>  <MODEL>
8

>  <REMARK>
 VINA RESULT:     -10.7      3.338      6.999
  Name = 
  1 active torsions:
  status: ('A' for Active; 'I' for Inactive)
    1  A    between atoms: C_6  and  C_23
                            x       y       z     vdW  Elec       q    Type
                         _______ _______ _______ _____ _____    ______ ____

>  <TORSDO>
F 1

$$$$
=
 OpenBabel10262419513D

 25 29  0  0  0  0  0  0  0  0999 V2000
  184.8520  178.5720  142.4850 C   0  0  0  0  0  0  0  0  0  0  0  0
  185.4520  178.3640  143.7460 C   0  0  0  0  0  0  0  0  0  0  0  0
  182.7040  179.0580  143.5350 C   0  0  0  0  0  3  0  0  0  0  0  0
  185.4420  178.4820  141.2080 C   0  0  0  0  0  0  0  0  0  0  0  0
  186.2500  178.4020  138.5320 C   0  0  0  0  0  3  0  0  0  0  0  0
  183.2890  178.8550  144.7890 C   0  0  0  0  0  3  0  0  0  0  0  0
  184.5430  178.7540  140.1780 C   0  0  0  0  0  0  0  0  0  0  0  0
  184.9200  178.7210  138.8370 C   0  0  0  0  0  3  0  0  0  0  0  0
  185.2510  178.3100  146.2280 C   0  0  0  0  0  0  0  0  0  0  0  0
  184.5570  178.4130  147.2750 O   0  0  0  0  0  0  0  0  0  0  0  0
  186.9060  177.9680  143.8580 C   0  0  0  0  0  2  0  0  0  0  0  0
  187.1710  178.1270  139.5590 C   0  0  0  0  0  3  0  0  0  0  0  0
  183.5010  178.9130  142.4060 C   0  0  0  0  0  0  0  0  0  0  0  0
  183.0200  179.1060  140.8020 S   0  0  0  0  0  0  0  0  0  0  0  0
  186.6770  178.0010  146.3390 C   0  0  0  0  0  3  0  0  0  0  0  0
  186.7700  178.1650  140.9040 C   0  0  0  0  0  3  0  0  0  0  0  0
  187.4630  177.8530  145.2640 C   0  0  0  0  0  0  0  0  0  0  0  0
  184.6500  178.5100  144.9020 C   0  0  0  0  0  0  0  0  0  0  0  0
  191.1610  177.3590  144.5440 C   0  0  0  0  0  0  0  0  0  0  0  0
  188.9030  177.5450  145.4410 C   0  0  0  0  0  0  0  0  0  0  0  0
  189.8050  177.6520  144.3680 C   0  0  0  0  0  3  0  0  0  0  0  0
  192.0390  177.4680  143.4750 O   0  0  0  0  0  1  0  0  0  0  0  0
  189.3910  177.1370  146.6940 C   0  0  0  0  0  3  0  0  0  0  0  0
  191.6310  176.9540  145.7950 C   0  0  0  0  0  3  0  0  0  0  0  0
  190.7470  176.8440  146.8710 C   0  0  0  0  0  3  0  0  0  0  0  0
  1  2  2  0  0  0  0
  2 11  1  0  0  0  0
  2 18  1  0  0  0  0
  3  6  1  0  0  0  0
  4  1  1  0  0  0  0
  5  8  2  0  0  0  0
  5 12  1  0  0  0  0
  6 18  2  0  0  0  0
  7 14  1  0  0  0  0
  7  4  2  0  0  0  0
  8  7  1  0  0  0  0
  9 15  1  0  0  0  0
  9 10  2  0  0  0  0
 11 17  1  0  0  0  0
 12 16  2  0  0  0  0
 13  1  1  0  0  0  0
 13  3  2  0  0  0  0
 14 13  1  0  0  0  0
 16  4  1  0  0  0  0
 17 20  1  0  0  0  0
 17 15  2  0  0  0  0
 18  9  1  0  0  0  0
 19 24  1  0  0  0  0
 20 23  2  0  0  0  0
 21 19  2  0  0  0  0
 21 20  1  0  0  0  0
 22 19  1  0  0  0  0
 23 25  1  0  0  0  0
 24 25  2  0  0  0  0
M  END
>  <MODEL>
9

>  <REMARK>
 VINA RESULT:     -10.7      2.659      5.221
  Name = 
  1 active torsions:
  status: ('A' for Active; 'I' for Inactive)
    1  A    between atoms: C_6  and  C_23
                            x       y       z     vdW  Elec       q    Type
                         _______ _______ _______ _____ _____    ______ ____

>  <TORSDO>
F 1

$$$$
