=
 OpenBabel10262421273D

 32 36  0  0  1  0  0  0  0  0999 V2000
  179.7630  174.9600  140.0650 C   0  0  2  0  0  3  0  0  0  0  0  0
  182.4590  176.7970  138.0380 C   0  0  0  0  0  2  0  0  0  0  0  0
  182.8000  177.9840  141.0230 C   0  0  0  0  0  2  0  0  0  0  0  0
  187.5370  177.6940  138.9070 C   0  0  0  0  0  2  0  0  0  0  0  0
  188.2390  178.4060  140.0550 C   0  0  0  0  0  2  0  0  0  0  0  0
  181.0590  178.8990  139.3880 C   0  0  1  0  0  3  0  0  0  0  0  0
  183.3170  180.0780  138.7710 C   0  0  0  0  0  2  0  0  0  0  0  0
  181.1640  175.3960  139.6550 C   0  0  0  0  0  2  0  0  0  0  0  0
  182.4590  178.1460  137.3280 C   0  0  0  0  0  2  0  0  0  0  0  0
  186.5180  178.5690  138.2510 C   0  0  0  0  0  3  0  0  0  0  0  0
  184.3170  179.2300  139.4940 C   0  0  0  0  0  0  0  0  0  0  0  0
  185.4170  178.9000  138.8650 C   0  0  0  0  0  0  0  0  0  0  0  0
  185.2390  178.1500  141.6480 C   0  0  2  0  0  3  0  0  0  0  0  0
  178.9310  176.1380  140.4880 C   0  0  0  0  0  3  0  0  0  0  0  0
  179.1220  177.3630  139.9780 C   0  0  0  0  0  3  0  0  0  0  0  0
  179.8440  173.9580  141.1960 C   0  0  0  0  0  1  0  0  0  0  0  0
  182.0960  179.2800  138.2990 C   0  0  1  0  0  3  0  0  0  0  0  0
  180.2230  177.6700  138.9880 C   0  0  2  0  0  3  0  0  0  0  0  0
  181.0610  176.4390  138.5480 C   0  0  1  0  0  3  0  0  0  0  0  0
  187.5710  178.0940  141.3850 C   0  0  0  0  0  2  0  0  0  0  0  0
  186.4370  178.9790  141.6010 N   0  0  0  0  0  2  0  0  0  0  0  0
  181.5690  178.8570  140.8400 C   0  0  0  0  0  2  0  0  0  0  0  0
  184.0580  178.8410  140.9340 C   0  0  2  0  0  3  0  0  0  0  0  0
  184.9140  177.7220  143.0950 C   0  0  0  0  0  2  0  0  0  0  0  0
  186.9030  177.3740  144.6680 C   0  0  0  0  0  2  0  0  0  0  0  0
  187.5590  177.8560  145.9340 C   0  0  0  0  0  0  0  0  0  0  0  0
  184.9730  178.8700  145.3710 C   0  0  0  0  0  0  0  0  0  0  0  0
  185.3240  178.4830  146.7800 C   0  0  0  0  0  2  0  0  0  0  0  0
  186.8180  178.3780  146.9210 C   0  0  0  0  0  3  0  0  0  0  0  0
  188.9100  177.8030  146.0580 F   0  0  0  0  0  0  0  0  0  0  0  0
  184.0460  179.6360  145.1670 O   0  0  0  0  0  0  0  0  0  0  0  0
  185.7830  178.3240  144.2130 C   0  0  2  0  0  3  0  0  0  0  0  0
  1 14  1  0  0  0  0
  1 16  1  1  0  0  0
  4  5  1  0  0  0  0
  5 20  1  0  0  0  0
  6 22  1  1  0  0  0
  7 11  1  0  0  0  0
  8  1  1  0  0  0  0
  9  2  1  0  0  0  0
 10 12  2  0  0  0  0
 10  4  1  0  0  0  0
 11 23  1  0  0  0  0
 12 11  2  0  0  0  0
 13 24  1  1  0  0  0
 15 14  2  0  0  0  0
 17  9  1  1  0  0  0
 17  7  1  0  0  0  0
 17  6  1  0  0  0  0
 18  6  1  0  0  0  0
 18 15  1  1  0  0  0
 19  2  1  1  0  0  0
 19 18  1  0  0  0  0
 19  8  1  0  0  0  0
 20 21  1  0  0  0  0
 21 13  1  0  0  0  0
 22  3  1  0  0  0  0
 23  3  1  6  0  0  0
 23 13  1  0  0  0  0
 25 26  1  0  0  0  0
 26 30  1  0  0  0  0
 26 29  2  0  0  0  0
 27 28  1  0  0  0  0
 28 29  1  0  0  0  0
 31 27  2  0  0  0  0
 32 24  1  6  0  0  0
 32 25  1  0  0  0  0
 32 27  1  0  0  0  0
M  END
>  <MODEL>
1

>  <REMARK>
 VINA RESULT:      -8.8      0.000      0.000
  Name = 
  2 active torsions:
  status: ('A' for Active; 'I' for Inactive)
    1  A    between atoms: C_16  and  C_27
    2  A    between atoms: C_27  and  C_32
                            x       y       z     vdW  Elec       q    Type
                         _______ _______ _______ _____ _____    ______ ____

>  <TORSDO>
F 2

$$$$
=
 OpenBabel10262421273D

 32 36  0  0  1  0  0  0  0  0999 V2000
  185.3430  174.2620  136.5280 C   0  0  2  0  0  3  0  0  0  0  0  0
  188.8470  175.7170  137.1190 C   0  0  0  0  0  2  0  0  0  0  0  0
  186.9610  177.4180  139.1160 C   0  0  0  0  0  2  0  0  0  0  0  0
  191.5480  176.7730  141.4710 C   0  0  0  0  0  2  0  0  0  0  0  0
  191.2210  177.6810  142.6490 C   0  0  0  0  0  2  0  0  0  0  0  0
  187.2150  178.0220  136.6440 C   0  0  1  0  0  3  0  0  0  0  0  0
  189.2820  179.0800  137.8580 C   0  0  0  0  0  2  0  0  0  0  0  0
  186.6060  174.6220  137.2990 C   0  0  0  0  0  2  0  0  0  0  0  0
  189.5680  176.9180  136.5170 C   0  0  0  0  0  2  0  0  0  0  0  0
  191.5140  177.5130  140.1740 C   0  0  0  0  0  3  0  0  0  0  0  0
  189.2570  178.3780  139.1810 C   0  0  0  0  0  0  0  0  0  0  0  0
  190.3900  177.9450  139.6720 C   0  0  0  0  0  0  0  0  0  0  0  0
  188.0650  177.7030  141.3670 C   0  0  2  0  0  3  0  0  0  0  0  0
  184.6500  175.4940  136.0150 C   0  0  0  0  0  3  0  0  0  0  0  0
  185.3250  176.6090  135.7000 C   0  0  0  0  0  3  0  0  0  0  0  0
  184.4010  173.4780  137.4160 C   0  0  0  0  0  1  0  0  0  0  0  0
  188.7540  178.2060  136.7150 C   0  0  1  0  0  3  0  0  0  0  0  0
  186.8190  176.7380  135.8920 C   0  0  2  0  0  3  0  0  0  0  0  0
  187.5210  175.4510  136.4040 C   0  0  1  0  0  3  0  0  0  0  0  0
  189.7440  177.6080  143.0050 C   0  0  0  0  0  2  0  0  0  0  0  0
  188.9770  178.5140  142.1640 N   0  0  0  0  0  2  0  0  0  0  0  0
  186.4340  178.2410  137.9510 C   0  0  0  0  0  2  0  0  0  0  0  0
  187.9470  178.2500  139.9290 C   0  0  2  0  0  3  0  0  0  0  0  0
  186.7030  177.5380  142.0740 C   0  0  0  0  0  2  0  0  0  0  0  0
  186.6770  177.2580  144.6180 C   0  0  0  0  0  2  0  0  0  0  0  0
  186.2390  177.8900  145.9120 C   0  0  0  0  0  0  0  0  0  0  0  0
  185.2840  179.0800  143.5250 C   0  0  0  0  0  0  0  0  0  0  0  0
  184.3550  178.9280  144.6970 C   0  0  0  0  0  2  0  0  0  0  0  0
  185.1530  178.6740  145.9470 C   0  0  0  0  0  3  0  0  0  0  0  0
  186.9720  177.6990  147.0390 F   0  0  0  0  0  0  0  0  0  0  0  0
  185.0320  179.9000  142.6570 O   0  0  0  0  0  0  0  0  0  0  0  0
  186.5360  178.2330  143.4370 C   0  0  2  0  0  3  0  0  0  0  0  0
  1  8  1  0  0  0  0
  1 16  1  1  0  0  0
  4  5  1  0  0  0  0
  5 20  1  0  0  0  0
  6 17  1  0  0  0  0
  6 22  1  1  0  0  0
  7 11  1  0  0  0  0
  9  2  1  0  0  0  0
 10  4  1  0  0  0  0
 11 12  2  0  0  0  0
 11 23  1  0  0  0  0
 12 10  2  0  0  0  0
 13 24  1  1  0  0  0
 13 21  1  0  0  0  0
 14  1  1  0  0  0  0
 15 14  2  0  0  0  0
 17  9  1  1  0  0  0
 17  7  1  0  0  0  0
 18 15  1  1  0  0  0
 18 19  1  0  0  0  0
 18  6  1  0  0  0  0
 19  2  1  1  0  0  0
 19  8  1  0  0  0  0
 21 20  1  0  0  0  0
 22  3  1  0  0  0  0
 23  3  1  6  0  0  0
 23 13  1  0  0  0  0
 25 26  1  0  0  0  0
 26 29  2  0  0  0  0
 26 30  1  0  0  0  0
 27 28  1  0  0  0  0
 28 29  1  0  0  0  0
 31 27  2  0  0  0  0
 32 24  1  6  0  0  0
 32 27  1  0  0  0  0
 32 25  1  0  0  0  0
M  END
>  <MODEL>
2

>  <REMARK>
 VINA RESULT:      -7.9      3.568      5.000
  Name = 
  2 active torsions:
  status: ('A' for Active; 'I' for Inactive)
    1  A    between atoms: C_16  and  C_27
    2  A    between atoms: C_27  and  C_32
                            x       y       z     vdW  Elec       q    Type
                         _______ _______ _______ _____ _____    ______ ____

>  <TORSDO>
F 2

$$$$
=
 OpenBabel10262421273D

 32 36  0  0  1  0  0  0  0  0999 V2000
  185.9450  175.9450  135.5430 C   0  0  2  0  0  3  0  0  0  0  0  0
  188.8230  175.2570  137.9910 C   0  0  0  0  0  2  0  0  0  0  0  0
  187.7180  178.1540  138.8990 C   0  0  0  0  0  2  0  0  0  0  0  0
  189.2060  175.6340  143.1930 C   0  0  0  0  0  2  0  0  0  0  0  0
  189.0030  176.8230  144.1210 C   0  0  0  0  0  2  0  0  0  0  0  0
  189.3870  177.8770  136.9820 C   0  0  1  0  0  3  0  0  0  0  0  0
  190.8080  177.8410  139.1840 C   0  0  0  0  0  2  0  0  0  0  0  0
  186.6250  175.7050  136.8840 C   0  0  0  0  0  2  0  0  0  0  0  0
  190.2960  175.6470  137.9690 C   0  0  0  0  0  2  0  0  0  0  0  0
  190.2310  175.9170  142.1440 C   0  0  0  0  0  3  0  0  0  0  0  0
  189.7550  177.6280  140.2280 C   0  0  0  0  0  0  0  0  0  0  0  0
  189.9980  176.7680  141.1840 C   0  0  0  0  0  0  0  0  0  0  0  0
  187.5670  178.3080  141.4130 C   0  0  2  0  0  3  0  0  0  0  0  0
  186.4820  177.1800  134.8750 C   0  0  0  0  0  3  0  0  0  0  0  0
  187.7410  177.6000  135.0650 C   0  0  0  0  0  3  0  0  0  0  0  0
  184.4500  176.0790  135.7390 C   0  0  0  0  0  1  0  0  0  0  0  0
  190.4620  177.1700  137.8500 C   0  0  1  0  0  3  0  0  0  0  0  0
  188.6980  176.9040  136.0080 C   0  0  2  0  0  3  0  0  0  0  0  0
  188.1330  175.6210  136.6740 C   0  0  1  0  0  3  0  0  0  0  0  0
  187.8400  177.6880  143.6600 C   0  0  0  0  0  2  0  0  0  0  0  0
  188.2820  178.6280  142.6420 N   0  0  0  0  0  2  0  0  0  0  0  0
  188.4130  178.8120  137.7190 C   0  0  0  0  0  2  0  0  0  0  0  0
  188.4860  178.4520  140.1820 C   0  0  2  0  0  3  0  0  0  0  0  0
  186.2600  179.1220  141.3010 C   0  0  0  0  0  2  0  0  0  0  0  0
  184.2120  178.6130  139.8520 C   0  0  0  0  0  2  0  0  0  0  0  0
  182.8170  178.0480  139.8630 C   0  0  0  0  0  0  0  0  0  0  0  0
  184.0510  178.4490  142.3830 C   0  0  0  0  0  0  0  0  0  0  0  0
  182.6000  178.7970  142.2080 C   0  0  0  0  0  2  0  0  0  0  0  0
  182.0640  178.1330  140.9680 C   0  0  0  0  0  3  0  0  0  0  0  0
  182.3370  177.4130  138.7640 F   0  0  0  0  0  0  0  0  0  0  0  0
  184.4960  178.2530  143.5020 O   0  0  0  0  0  0  0  0  0  0  0  0
  184.9500  178.3240  141.1700 C   0  0  2  0  0  3  0  0  0  0  0  0
  1 16  1  1  0  0  0
  1  8  1  0  0  0  0
  4  5  1  0  0  0  0
  6 22  1  1  0  0  0
  6 17  1  0  0  0  0
  7 11  1  0  0  0  0
  9  2  1  0  0  0  0
 10  4  1  0  0  0  0
 11 12  2  0  0  0  0
 12 10  2  0  0  0  0
 13 24  1  6  0  0  0
 13 21  1  0  0  0  0
 14 15  2  0  0  0  0
 14  1  1  0  0  0  0
 17  9  1  1  0  0  0
 17  7  1  0  0  0  0
 18 15  1  1  0  0  0
 18 19  1  0  0  0  0
 18  6  1  0  0  0  0
 19  8  1  1  0  0  0
 19  2  1  0  0  0  0
 20  5  1  0  0  0  0
 21 20  1  0  0  0  0
 22  3  1  0  0  0  0
 23  3  1  6  0  0  0
 23 11  1  0  0  0  0
 23 13  1  0  0  0  0
 25 26  1  0  0  0  0
 25 32  1  0  0  0  0
 26 29  2  0  0  0  0
 27 31  2  0  0  0  0
 28 27  1  0  0  0  0
 29 28  1  0  0  0  0
 30 26  1  0  0  0  0
 32 24  1  1  0  0  0
 32 27  1  0  0  0  0
M  END
>  <MODEL>
3

>  <REMARK>
 VINA RESULT:      -7.6      2.977      6.546
  Name = 
  2 active torsions:
  status: ('A' for Active; 'I' for Inactive)
    1  A    between atoms: C_16  and  C_27
    2  A    between atoms: C_27  and  C_32
                            x       y       z     vdW  Elec       q    Type
                         _______ _______ _______ _____ _____    ______ ____

>  <TORSDO>
F 2

$$$$
=
 OpenBabel10262421273D

 32 36  0  0  1  0  0  0  0  0999 V2000
  180.0580  183.0890  136.9900 C   0  0  2  0  0  3  0  0  0  0  0  0
  179.7490  181.2480  140.3460 C   0  0  0  0  0  2  0  0  0  0  0  0
  182.0300  179.5920  138.7680 C   0  0  0  0  0  2  0  0  0  0  0  0
  183.3000  179.5870  143.8070 C   0  0  0  0  0  2  0  0  0  0  0  0
  184.4710  178.6270  143.6480 C   0  0  0  0  0  2  0  0  0  0  0  0
  179.5370  179.1640  138.3940 C   0  0  1  0  0  3  0  0  0  0  0  0
  180.1850  177.8110  140.5430 C   0  0  0  0  0  2  0  0  0  0  0  0
  180.4980  182.5450  138.3430 C   0  0  0  0  0  2  0  0  0  0  0  0
  178.9330  180.0330  140.7710 C   0  0  0  0  0  2  0  0  0  0  0  0
  182.0070  178.9590  143.4000 C   0  0  0  0  0  3  0  0  0  0  0  0
  181.5140  178.4060  140.8940 C   0  0  0  0  0  0  0  0  0  0  0  0
  181.7540  178.6830  142.1510 C   0  0  0  0  0  0  0  0  0  0  0  0
  183.9480  179.0220  140.3050 C   0  0  2  0  0  3  0  0  0  0  0  0
  179.6520  181.9780  136.0630 C   0  0  0  0  0  3  0  0  0  0  0  0
  179.1300  180.8290  136.5170 C   0  0  0  0  0  3  0  0  0  0  0  0
  181.1800  183.8910  136.3670 C   0  0  0  0  0  1  0  0  0  0  0  0
  179.2420  178.8210  139.8780 C   0  0  1  0  0  3  0  0  0  0  0  0
  178.9660  180.5360  137.9920 C   0  0  2  0  0  3  0  0  0  0  0  0
  179.3730  181.7020  138.9340 C   0  0  1  0  0  3  0  0  0  0  0  0
  185.1590  178.8190  142.3050 C   0  0  0  0  0  2  0  0  0  0  0  0
  184.4700  178.0630  141.2710 N   0  0  0  0  0  2  0  0  0  0  0  0
  180.9750  178.9220  137.9030 C   0  0  0  0  0  2  0  0  0  0  0  0
  182.5490  178.6040  139.8080 C   0  0  2  0  0  3  0  0  0  0  0  0
  184.9580  179.2660  139.1630 C   0  0  0  0  0  2  0  0  0  0  0  0
  187.2880  178.2520  138.8610 C   0  0  0  0  0  2  0  0  0  0  0  0
  188.0750  177.1910  138.1390 C   0  0  0  0  0  0  0  0  0  0  0  0
  185.4050  177.6030  137.2830 C   0  0  0  0  0  0  0  0  0  0  0  0
  186.4820  177.3760  136.2600 C   0  0  0  0  0  2  0  0  0  0  0  0
  187.6940  176.7800  136.9210 C   0  0  0  0  0  3  0  0  0  0  0  0
  189.1480  176.6190  138.7410 F   0  0  0  0  0  0  0  0  0  0  0  0
  184.2380  177.4070  136.9870 O   0  0  0  0  0  0  0  0  0  0  0  0
  185.7740  178.0540  138.6820 C   0  0  2  0  0  3  0  0  0  0  0  0
  1 16  1  6  0  0  0
  1  8  1  0  0  0  0
  2  9  1  0  0  0  0
  5  4  1  0  0  0  0
  6 22  1  1  0  0  0
  6 17  1  0  0  0  0
  7 11  1  0  0  0  0
 10  4  1  0  0  0  0
 11 12  2  0  0  0  0
 12 10  2  0  0  0  0
 13 24  1  6  0  0  0
 13 21  1  0  0  0  0
 14 15  2  0  0  0  0
 14  1  1  0  0  0  0
 17  7  1  1  0  0  0
 17  9  1  0  0  0  0
 18 15  1  6  0  0  0
 18  6  1  0  0  0  0
 18 19  1  0  0  0  0
 19  8  1  6  0  0  0
 19  2  1  0  0  0  0
 20  5  1  0  0  0  0
 21 20  1  0  0  0  0
 22  3  1  0  0  0  0
 23  3  1  6  0  0  0
 23 13  1  0  0  0  0
 23 11  1  0  0  0  0
 26 30  1  0  0  0  0
 26 25  1  0  0  0  0
 27 32  1  0  0  0  0
 28 29  1  0  0  0  0
 28 27  1  0  0  0  0
 29 26  2  0  0  0  0
 31 27  2  0  0  0  0
 32 25  1  0  0  0  0
 32 24  1  6  0  0  0
M  END
>  <MODEL>
4

>  <REMARK>
 VINA RESULT:      -7.5      3.075      6.154
  Name = 
  2 active torsions:
  status: ('A' for Active; 'I' for Inactive)
    1  A    between atoms: C_16  and  C_27
    2  A    between atoms: C_27  and  C_32
                            x       y       z     vdW  Elec       q    Type
                         _______ _______ _______ _____ _____    ______ ____

>  <TORSDO>
F 2

$$$$
=
 OpenBabel10262421273D

 32 36  0  0  1  0  0  0  0  0999 V2000
  184.2840  172.4280  136.3460 C   0  0  2  0  0  3  0  0  0  0  0  0
  187.1270  174.8580  137.2190 C   0  0  0  0  0  2  0  0  0  0  0  0
  184.4540  176.6320  137.6010 C   0  0  0  0  0  2  0  0  0  0  0  0
  187.8640  178.1450  141.2180 C   0  0  0  0  0  2  0  0  0  0  0  0
  187.0210  179.3120  141.7150 C   0  0  0  0  0  2  0  0  0  0  0  0
  185.5480  176.2990  135.3130 C   0  0  1  0  0  3  0  0  0  0  0  0
  186.8780  178.2380  136.4710 C   0  0  0  0  0  2  0  0  0  0  0  0
  185.1170  173.3690  137.2060 C   0  0  0  0  0  2  0  0  0  0  0  0
  187.8830  175.8840  136.3840 C   0  0  0  0  0  2  0  0  0  0  0  0
  188.2380  178.3040  139.7800 C   0  0  0  0  0  3  0  0  0  0  0  0
  186.4370  178.1070  137.8970 C   0  0  0  0  0  0  0  0  0  0  0  0
  187.3440  178.2040  138.8350 C   0  0  0  0  0  0  0  0  0  0  0  0
  184.5950  178.0240  139.7010 C   0  0  2  0  0  3  0  0  0  0  0  0
  183.7020  173.1470  135.1610 C   0  0  0  0  0  3  0  0  0  0  0  0
  184.3180  174.1950  134.5940 C   0  0  0  0  0  3  0  0  0  0  0  0
  183.1710  171.8220  137.1740 C   0  0  0  0  0  1  0  0  0  0  0  0
  186.9170  176.8910  135.7390 C   0  0  1  0  0  3  0  0  0  0  0  0
  185.6080  174.7710  135.1340 C   0  0  2  0  0  3  0  0  0  0  0  0
  186.2030  174.0050  136.3460 C   0  0  1  0  0  3  0  0  0  0  0  0
  185.5360  178.9970  141.6190 C   0  0  0  0  0  2  0  0  0  0  0  0
  185.0460  179.2840  140.2800 N   0  0  0  0  0  2  0  0  0  0  0  0
  184.3140  176.7850  136.0950 C   0  0  0  0  0  2  0  0  0  0  0  0
  184.9650  177.9360  138.2060 C   0  0  2  0  0  3  0  0  0  0  0  0
  183.0940  177.7900  139.9770 C   0  0  0  0  0  2  0  0  0  0  0  0
  181.3930  178.6790  141.6690 C   0  0  0  0  0  2  0  0  0  0  0  0
  180.4030  179.7790  141.9440 C   0  0  0  0  0  0  0  0  0  0  0  0
  181.5050  179.6770  139.3350 C   0  0  0  0  0  0  0  0  0  0  0  0
  180.0430  179.9780  139.5080 C   0  0  0  0  0  2  0  0  0  0  0  0
  179.7730  180.3880  140.9300 C   0  0  0  0  0  3  0  0  0  0  0  0
  180.1800  180.1840  143.2200 F   0  0  0  0  0  0  0  0  0  0  0  0
  182.0690  179.9920  138.3010 O   0  0  0  0  0  0  0  0  0  0  0  0
  182.2750  179.0020  140.4520 C   0  0  2  0  0  3  0  0  0  0  0  0
  1 16  1  1  0  0  0
  1  8  1  0  0  0  0
  4  5  1  0  0  0  0
  6 17  1  0  0  0  0
  6 22  1  1  0  0  0
  7 11  1  0  0  0  0
  9  2  1  0  0  0  0
 10  4  1  0  0  0  0
 11 23  1  0  0  0  0
 11 12  2  0  0  0  0
 12 10  2  0  0  0  0
 13 24  1  6  0  0  0
 13 21  1  0  0  0  0
 14  1  1  0  0  0  0
 15 14  2  0  0  0  0
 17  9  1  1  0  0  0
 17  7  1  0  0  0  0
 18 15  1  1  0  0  0
 18  6  1  0  0  0  0
 18 19  1  0  0  0  0
 19  8  1  1  0  0  0
 19  2  1  0  0  0  0
 20  5  1  0  0  0  0
 21 20  1  0  0  0  0
 22  3  1  0  0  0  0
 23  3  1  1  0  0  0
 23 13  1  0  0  0  0
 25 26  1  0  0  0  0
 26 30  1  0  0  0  0
 27 28  1  0  0  0  0
 27 32  1  0  0  0  0
 28 29  1  0  0  0  0
 29 26  2  0  0  0  0
 31 27  2  0  0  0  0
 32 24  1  6  0  0  0
 32 25  1  0  0  0  0
M  END
>  <MODEL>
5

>  <REMARK>
 VINA RESULT:      -7.0      3.459      5.841
  Name = 
  2 active torsions:
  status: ('A' for Active; 'I' for Inactive)
    1  A    between atoms: C_16  and  C_27
    2  A    between atoms: C_27  and  C_32
                            x       y       z     vdW  Elec       q    Type
                         _______ _______ _______ _____ _____    ______ ____

>  <TORSDO>
F 2

$$$$
=
 OpenBabel10262421273D

 32 36  0  0  1  0  0  0  0  0999 V2000
  182.8590  176.1370  138.3510 C   0  0  2  0  0  3  0  0  0  0  0  0
  185.7810  174.7490  136.2820 C   0  0  0  0  0  2  0  0  0  0  0  0
  186.9350  177.5190  137.4790 C   0  0  0  0  0  2  0  0  0  0  0  0
  190.8680  174.1270  137.3220 C   0  0  0  0  0  2  0  0  0  0  0  0
  191.9320  175.1390  137.7250 C   0  0  0  0  0  2  0  0  0  0  0  0
  185.5040  177.4460  135.3610 C   0  0  1  0  0  3  0  0  0  0  0  0
  187.9460  176.8760  134.6000 C   0  0  0  0  0  2  0  0  0  0  0  0
  184.2540  175.5930  138.0740 C   0  0  0  0  0  2  0  0  0  0  0  0
  186.2220  174.9990  134.8450 C   0  0  0  0  0  2  0  0  0  0  0  0
  190.2020  174.5020  136.0390 C   0  0  0  0  0  3  0  0  0  0  0  0
  188.6140  176.5730  135.9050 C   0  0  0  0  0  0  0  0  0  0  0  0
  189.4070  175.5330  135.9660 C   0  0  0  0  0  0  0  0  0  0  0  0
  189.3000  177.2220  138.3060 C   0  0  2  0  0  3  0  0  0  0  0  0
  182.6170  177.4190  137.6040 C   0  0  0  0  0  3  0  0  0  0  0  0
  183.2090  177.6790  136.4300 C   0  0  0  0  0  3  0  0  0  0  0  0
  182.6810  176.3690  139.8370 C   0  0  0  0  0  1  0  0  0  0  0  0
  186.4610  176.4960  134.5940 C   0  0  1  0  0  3  0  0  0  0  0  0
  184.2080  176.7370  135.7960 C   0  0  2  0  0  3  0  0  0  0  0  0
  184.4310  175.4100  136.5710 C   0  0  1  0  0  3  0  0  0  0  0  0
  191.3680  176.1780  138.6820 C   0  0  0  0  0  2  0  0  0  0  0  0
  190.7120  177.2430  137.9420 N   0  0  0  0  0  2  0  0  0  0  0  0
  186.1340  178.3160  136.4620 C   0  0  0  0  0  2  0  0  0  0  0  0
  188.4070  177.5040  137.0800 C   0  0  2  0  0  3  0  0  0  0  0  0
  189.0180  178.1590  139.5000 C   0  0  0  0  0  2  0  0  0  0  0  0
  187.1440  178.4090  141.2250 C   0  0  0  0  0  2  0  0  0  0  0  0
  186.6470  177.9410  142.5660 C   0  0  0  0  0  0  0  0  0  0  0  0
  189.2630  177.1430  141.8250 C   0  0  0  0  0  0  0  0  0  0  0  0
  188.9960  177.5760  143.2390 C   0  0  0  0  0  2  0  0  0  0  0  0
  187.5160  177.5480  143.5080 C   0  0  0  0  0  3  0  0  0  0  0  0
  185.3130  177.8750  142.8070 F   0  0  0  0  0  0  0  0  0  0  0  0
  190.2410  176.4570  141.5770 O   0  0  0  0  0  0  0  0  0  0  0  0
  188.3090  177.5430  140.7180 C   0  0  2  0  0  3  0  0  0  0  0  0
  1 16  1  1  0  0  0
  4  5  1  0  0  0  0
  5 20  1  0  0  0  0
  6 18  1  0  0  0  0
  6 22  1  1  0  0  0
  7 11  1  0  0  0  0
  8  1  1  0  0  0  0
  9  2  1  0  0  0  0
 10  4  1  0  0  0  0
 11 12  2  0  0  0  0
 11 23  1  0  0  0  0
 12 10  2  0  0  0  0
 13 24  1  1  0  0  0
 14  1  1  0  0  0  0
 15 14  2  0  0  0  0
 17  7  1  1  0  0  0
 17  9  1  0  0  0  0
 17  6  1  0  0  0  0
 18 15  1  1  0  0  0
 18 19  1  0  0  0  0
 19  2  1  1  0  0  0
 19  8  1  0  0  0  0
 21 13  1  0  0  0  0
 21 20  1  0  0  0  0
 22  3  1  0  0  0  0
 23  3  1  1  0  0  0
 23 13  1  0  0  0  0
 25 26  1  0  0  0  0
 26 30  1  0  0  0  0
 26 29  2  0  0  0  0
 27 28  1  0  0  0  0
 28 29  1  0  0  0  0
 31 27  2  0  0  0  0
 32 24  1  6  0  0  0
 32 25  1  0  0  0  0
 32 27  1  0  0  0  0
M  END
>  <MODEL>
6

>  <REMARK>
 VINA RESULT:      -7.0      3.484      5.322
  Name = 
  2 active torsions:
  status: ('A' for Active; 'I' for Inactive)
    1  A    between atoms: C_16  and  C_27
    2  A    between atoms: C_27  and  C_32
                            x       y       z     vdW  Elec       q    Type
                         _______ _______ _______ _____ _____    ______ ____

>  <TORSDO>
F 2

$$$$
=
 OpenBabel10262421273D

 32 36  0  0  1  0  0  0  0  0999 V2000
  179.3340  178.3360  142.9330 C   0  0  2  0  0  3  0  0  0  0  0  0
  180.2480  177.1350  139.4020 C   0  0  0  0  0  2  0  0  0  0  0  0
  182.4710  179.3890  140.0470 C   0  0  0  0  0  2  0  0  0  0  0  0
  184.7760  175.6860  137.2230 C   0  0  0  0  0  2  0  0  0  0  0  0
  186.0880  176.4420  137.0590 C   0  0  0  0  0  2  0  0  0  0  0  0
  180.1490  179.9860  139.1560 C   0  0  1  0  0  3  0  0  0  0  0  0
  181.5750  179.3250  137.0600 C   0  0  0  0  0  2  0  0  0  0  0  0
  180.1840  177.7100  141.8350 C   0  0  0  0  0  2  0  0  0  0  0  0
  179.8820  177.6610  138.0190 C   0  0  0  0  0  2  0  0  0  0  0  0
  183.6290  176.4280  136.6190 C   0  0  0  0  0  3  0  0  0  0  0  0
  182.7530  178.6460  137.6880 C   0  0  0  0  0  0  0  0  0  0  0  0
  183.1860  177.5340  137.1500 C   0  0  0  0  0  0  0  0  0  0  0  0
  184.7600  178.6280  139.3090 C   0  0  2  0  0  3  0  0  0  0  0  0
  179.0300  179.7770  142.6300 C   0  0  0  0  0  3  0  0  0  0  0  0
  178.9310  180.2330  141.3730 C   0  0  0  0  0  3  0  0  0  0  0  0
  180.0500  178.2320  144.2620 C   0  0  0  0  0  1  0  0  0  0  0  0
  180.2850  179.1360  137.8650 C   0  0  1  0  0  3  0  0  0  0  0  0
  179.1750  179.3540  140.1670 C   0  0  2  0  0  3  0  0  0  0  0  0
  179.4680  177.8660  140.4970 C   0  0  1  0  0  3  0  0  0  0  0  0
  186.3930  177.2850  138.2870 C   0  0  0  0  0  2  0  0  0  0  0  0
  185.7080  178.5660  138.2030 N   0  0  0  0  0  2  0  0  0  0  0  0
  181.4570  180.4920  139.7890 C   0  0  0  0  0  2  0  0  0  0  0  0
  183.4390  179.2940  138.8720 C   0  0  2  0  0  3  0  0  0  0  0  0
  185.3980  179.2850  140.5520 C   0  0  0  0  0  2  0  0  0  0  0  0
  184.4250  179.2460  142.9190 C   0  0  0  0  0  2  0  0  0  0  0  0
  184.5590  178.6280  144.2850 C   0  0  0  0  0  0  0  0  0  0  0  0
  186.6370  178.0930  142.4340 C   0  0  0  0  0  0  0  0  0  0  0  0
  186.9820  178.3820  143.8680 C   0  0  0  0  0  2  0  0  0  0  0  0
  185.7570  178.2210  144.7270 C   0  0  0  0  0  3  0  0  0  0  0  0
  183.4550  178.4430  145.0530 F   0  0  0  0  0  0  0  0  0  0  0  0
  187.4380  177.5050  141.7260 O   0  0  0  0  0  0  0  0  0  0  0  0
  185.2920  178.5150  141.8800 C   0  0  2  0  0  3  0  0  0  0  0  0
  1 16  1  1  0  0  0
  5  4  1  0  0  0  0
  5 20  1  0  0  0  0
  6 22  1  1  0  0  0
  6 18  1  0  0  0  0
  7 11  1  0  0  0  0
  8  1  1  0  0  0  0
  9  2  1  0  0  0  0
 10 12  2  0  0  0  0
 10  4  1  0  0  0  0
 11 23  1  0  0  0  0
 12 11  2  0  0  0  0
 13 24  1  1  0  0  0
 14  1  1  0  0  0  0
 15 14  2  0  0  0  0
 17  7  1  1  0  0  0
 17  9  1  0  0  0  0
 17  6  1  0  0  0  0
 18 19  1  0  0  0  0
 18 15  1  1  0  0  0
 19  2  1  6  0  0  0
 19  8  1  0  0  0  0
 21 20  1  0  0  0  0
 21 13  1  0  0  0  0
 22  3  1  0  0  0  0
 23 13  1  0  0  0  0
 23  3  1  1  0  0  0
 25 26  1  0  0  0  0
 26 29  2  0  0  0  0
 26 30  1  0  0  0  0
 27 28  1  0  0  0  0
 28 29  1  0  0  0  0
 31 27  2  0  0  0  0
 32 24  1  6  0  0  0
 32 27  1  0  0  0  0
 32 25  1  0  0  0  0
M  END
>  <MODEL>
7

>  <REMARK>
 VINA RESULT:      -6.9      2.292      3.352
  Name = 
  2 active torsions:
  status: ('A' for Active; 'I' for Inactive)
    1  A    between atoms: C_16  and  C_27
    2  A    between atoms: C_27  and  C_32
                            x       y       z     vdW  Elec       q    Type
                         _______ _______ _______ _____ _____    ______ ____

>  <TORSDO>
F 2

$$$$
=
 OpenBabel10262421273D

 32 36  0  0  1  0  0  0  0  0999 V2000
  182.7460  178.1500  140.8210 C   0  0  2  0  0  3  0  0  0  0  0  0
  183.1920  175.2490  138.3430 C   0  0  0  0  0  2  0  0  0  0  0  0
  185.6010  177.2700  137.6030 C   0  0  0  0  0  2  0  0  0  0  0  0
  187.3570  172.4280  136.9170 C   0  0  0  0  0  2  0  0  0  0  0  0
  188.6850  172.8530  136.3060 C   0  0  0  0  0  2  0  0  0  0  0  0
  183.2350  177.5850  136.6860 C   0  0  1  0  0  3  0  0  0  0  0  0
  184.3790  175.8120  135.1320 C   0  0  0  0  0  2  0  0  0  0  0  0
  183.4300  176.9710  140.1420 C   0  0  0  0  0  2  0  0  0  0  0  0
  182.7070  175.0470  136.9130 C   0  0  0  0  0  2  0  0  0  0  0  0
  186.1960  172.8850  136.0960 C   0  0  0  0  0  3  0  0  0  0  0  0
  185.5770  175.4190  135.9400 C   0  0  0  0  0  0  0  0  0  0  0  0
  185.8800  174.1480  136.0160 C   0  0  0  0  0  0  0  0  0  0  0  0
  187.7460  176.0010  137.2090 C   0  0  2  0  0  3  0  0  0  0  0  0
  182.4960  179.2670  139.8470 C   0  0  0  0  0  3  0  0  0  0  0  0
  182.2860  179.0390  138.5430 C   0  0  0  0  0  3  0  0  0  0  0  0
  183.5970  178.6510  141.9670 C   0  0  0  0  0  1  0  0  0  0  0  0
  183.1770  176.1930  136.0030 C   0  0  1  0  0  3  0  0  0  0  0  0
  182.3420  177.6530  137.9390 C   0  0  2  0  0  3  0  0  0  0  0  0
  182.5820  176.5100  138.9620 C   0  0  1  0  0  3  0  0  0  0  0  0
  189.1730  174.1610  136.9090 C   0  0  0  0  0  2  0  0  0  0  0  0
  188.5600  175.2910  136.2300 N   0  0  0  0  0  2  0  0  0  0  0  0
  184.6320  178.1960  136.8860 C   0  0  0  0  0  2  0  0  0  0  0  0
  186.4270  176.4950  136.5810 C   0  0  2  0  0  3  0  0  0  0  0  0
  188.5550  177.1200  137.8990 C   0  0  0  0  0  2  0  0  0  0  0  0
  188.2580  178.0800  140.2530 C   0  0  0  0  0  2  0  0  0  0  0  0
  188.7840  178.0450  141.6620 C   0  0  0  0  0  0  0  0  0  0  0  0
  190.3130  176.6940  139.6950 C   0  0  0  0  0  0  0  0  0  0  0  0
  191.0150  177.5030  140.7490 C   0  0  0  0  0  2  0  0  0  0  0  0
  190.0760  177.7720  141.8930 C   0  0  0  0  0  3  0  0  0  0  0  0
  187.9390  178.2480  142.7040 F   0  0  0  0  0  0  0  0  0  0  0  0
  190.9220  175.8250  139.0940 O   0  0  0  0  0  0  0  0  0  0  0  0
  188.8490  176.9460  139.3990 C   0  0  2  0  0  3  0  0  0  0  0  0
  1 16  1  1  0  0  0
  5 20  1  0  0  0  0
  5  4  1  0  0  0  0
  6 22  1  1  0  0  0
  6 18  1  0  0  0  0
  7 11  1  0  0  0  0
  8  1  1  0  0  0  0
  9  2  1  0  0  0  0
 10  4  1  0  0  0  0
 11 12  2  0  0  0  0
 11 23  1  0  0  0  0
 12 10  2  0  0  0  0
 13 24  1  6  0  0  0
 14  1  1  0  0  0  0
 15 14  2  0  0  0  0
 17  7  1  1  0  0  0
 17  6  1  0  0  0  0
 17  9  1  0  0  0  0
 18 15  1  1  0  0  0
 18 19  1  0  0  0  0
 19  2  1  6  0  0  0
 19  8  1  0  0  0  0
 21 20  1  0  0  0  0
 21 13  1  0  0  0  0
 22  3  1  0  0  0  0
 23 13  1  0  0  0  0
 23  3  1  1  0  0  0
 25 26  1  0  0  0  0
 26 29  2  0  0  0  0
 26 30  1  0  0  0  0
 27 28  1  0  0  0  0
 28 29  1  0  0  0  0
 31 27  2  0  0  0  0
 32 24  1  6  0  0  0
 32 27  1  0  0  0  0
 32 25  1  0  0  0  0
M  END
>  <MODEL>
8

>  <REMARK>
 VINA RESULT:      -6.8      3.521      5.446
  Name = 
  2 active torsions:
  status: ('A' for Active; 'I' for Inactive)
    1  A    between atoms: C_16  and  C_27
    2  A    between atoms: C_27  and  C_32
                            x       y       z     vdW  Elec       q    Type
                         _______ _______ _______ _____ _____    ______ ____

>  <TORSDO>
F 2

$$$$
=
 OpenBabel10262421273D

 32 36  0  0  1  0  0  0  0  0999 V2000
  184.3880  172.7460  136.1550 C   0  0  2  0  0  3  0  0  0  0  0  0
  187.3310  175.1120  136.8500 C   0  0  0  0  0  2  0  0  0  0  0  0
  184.7440  176.8120  137.7730 C   0  0  0  0  0  2  0  0  0  0  0  0
  188.6330  178.0100  141.0040 C   0  0  0  0  0  2  0  0  0  0  0  0
  187.8720  179.1140  141.7250 C   0  0  0  0  0  2  0  0  0  0  0  0
  185.5040  176.7120  135.3330 C   0  0  1  0  0  3  0  0  0  0  0  0
  186.9890  178.5450  136.4740 C   0  0  0  0  0  2  0  0  0  0  0  0
  185.3360  173.6090  136.9760 C   0  0  0  0  0  2  0  0  0  0  0  0
  187.9650  176.2220  136.0200 C   0  0  0  0  0  2  0  0  0  0  0  0
  188.8010  178.3090  139.5500 C   0  0  0  0  0  3  0  0  0  0  0  0
  186.7520  178.2740  137.9280 C   0  0  0  0  0  0  0  0  0  0  0  0
  187.7830  178.2900  138.7350 C   0  0  0  0  0  0  0  0  0  0  0  0
  185.1830  177.9980  139.9560 C   0  0  2  0  0  3  0  0  0  0  0  0
  183.6470  173.5690  135.1390 C   0  0  0  0  0  3  0  0  0  0  0  0
  184.1800  174.6720  134.5940 C   0  0  0  0  0  3  0  0  0  0  0  0
  183.4000  172.0510  137.0690 C   0  0  0  0  0  1  0  0  0  0  0  0
  186.9210  177.2750  135.6180 C   0  0  1  0  0  3  0  0  0  0  0  0
  185.5340  175.2090  135.0010 C   0  0  2  0  0  3  0  0  0  0  0  0
  186.2920  174.3360  136.0370 C   0  0  1  0  0  3  0  0  0  0  0  0
  186.3870  178.7930  141.8080 C   0  0  0  0  0  2  0  0  0  0  0  0
  185.7140  179.2010  140.5850 N   0  0  0  0  0  2  0  0  0  0  0  0
  184.3940  177.1060  136.3230 C   0  0  0  0  0  2  0  0  0  0  0  0
  185.3380  178.0580  138.4230 C   0  0  2  0  0  3  0  0  0  0  0  0
  183.7350  177.7220  140.4160 C   0  0  0  0  0  2  0  0  0  0  0  0
  183.5770  178.2410  142.9180 C   0  0  0  0  0  2  0  0  0  0  0  0
  182.7890  178.9800  143.9650 C   0  0  0  0  0  0  0  0  0  0  0  0
  181.6620  178.8610  141.3670 C   0  0  0  0  0  0  0  0  0  0  0  0
  180.7730  178.6860  142.5660 C   0  0  0  0  0  2  0  0  0  0  0  0
  181.4760  179.1900  143.7980 C   0  0  0  0  0  3  0  0  0  0  0  0
  183.4180  179.4740  145.0610 F   0  0  0  0  0  0  0  0  0  0  0  0
  181.1760  179.1880  140.2970 O   0  0  0  0  0  0  0  0  0  0  0  0
  183.1570  178.6520  141.4970 C   0  0  2  0  0  3  0  0  0  0  0  0
  1  8  1  0  0  0  0
  1 16  1  1  0  0  0
  4  5  1  0  0  0  0
  5 20  1  0  0  0  0
  6 17  1  0  0  0  0
  6 22  1  1  0  0  0
  7 11  1  0  0  0  0
  9  2  1  0  0  0  0
 10  4  1  0  0  0  0
 11 23  1  0  0  0  0
 11 12  2  0  0  0  0
 12 10  2  0  0  0  0
 13 24  1  6  0  0  0
 13 21  1  0  0  0  0
 14  1  1  0  0  0  0
 15 14  2  0  0  0  0
 17  9  1  1  0  0  0
 17  7  1  0  0  0  0
 18 15  1  1  0  0  0
 18  6  1  0  0  0  0
 18 19  1  0  0  0  0
 19  2  1  1  0  0  0
 19  8  1  0  0  0  0
 21 20  1  0  0  0  0
 22  3  1  0  0  0  0
 23  3  1  6  0  0  0
 23 13  1  0  0  0  0
 25 26  1  0  0  0  0
 26 30  1  0  0  0  0
 27 32  1  0  0  0  0
 27 28  1  0  0  0  0
 28 29  1  0  0  0  0
 29 26  2  0  0  0  0
 31 27  2  0  0  0  0
 32 24  1  6  0  0  0
 32 25  1  0  0  0  0
M  END
>  <MODEL>
9

>  <REMARK>
 VINA RESULT:      -6.6      3.091      5.001
  Name = 
  2 active torsions:
  status: ('A' for Active; 'I' for Inactive)
    1  A    between atoms: C_16  and  C_27
    2  A    between atoms: C_27  and  C_32
                            x       y       z     vdW  Elec       q    Type
                         _______ _______ _______ _____ _____    ______ ____

>  <TORSDO>
F 2

$$$$
