=
 OpenBabel10262420053D

 27 33  0  0  1  0  0  0  0  0999 V2000
  186.2270  177.7930  144.8420 C   0  0  0  0  0  2  0  0  0  0  0  0
  187.4710  178.0670  142.6630 C   0  0  0  0  0  0  0  0  0  0  0  0
  189.3000  178.0490  144.3710 N   0  0  0  0  0  2  0  0  0  0  0  0
  190.4230  177.5380  139.3610 C   0  0  0  0  0  3  0  0  0  0  0  0
  193.0310  177.2420  140.1030 Cl  0  0  0  0  0  0  0  0  0  0  0  0
  187.3460  178.0290  141.3090 N   0  0  0  0  0  0  0  0  0  0  0  0
  190.8480  177.5840  141.7740 C   0  0  0  0  0  0  0  0  0  0  0  0
  189.5080  177.5220  146.7930 C   0  0  1  0  0  3  0  0  0  0  0  0
  191.7830  177.5060  142.9360 C   0  0  0  0  0  1  0  0  0  0  0  0
  188.8690  177.6910  148.1750 C   0  0  0  0  0  2  0  0  0  0  0  0
  189.4670  177.7570  141.9510 C   0  0  0  0  0  0  0  0  0  0  0  0
  186.3590  178.3880  143.5170 N   0  0  0  0  0  0  0  0  0  0  0  0
  191.3230  177.4700  140.4460 C   0  0  0  0  0  0  0  0  0  0  0  0
  188.6070  177.8230  140.8900 C   0  0  0  0  0  0  0  0  0  0  0  0
  187.2180  178.4170  145.7960 C   0  0  1  0  0  3  0  0  0  0  0  0
  188.7560  177.8970  143.0820 N   0  0  0  0  0  0  0  0  0  0  0  0
  188.8110  176.3470  146.0980 C   0  0  0  0  0  2  0  0  0  0  0  0
  189.0470  177.7200  139.5740 C   0  0  0  0  0  3  0  0  0  0  0  0
  187.7630  178.7360  148.1970 C   0  0  0  0  0  2  0  0  0  0  0  0
  186.6830  178.3180  147.2200 C   0  0  0  0  0  2  0  0  0  0  0  0
  188.5830  177.7530  145.5980 C   0  0  1  0  0  0  0  0  0  0  0  0
  182.2090  179.3740  143.3260 C   0  0  0  0  0  2  0  0  0  0  0  0
  185.2330  179.1270  142.9410 C   0  0  2  0  0  3  0  0  0  0  0  0
  184.5340  179.9700  143.9910 C   0  0  0  0  0  2  0  0  0  0  0  0
  183.2700  179.2330  144.4000 C   0  0  2  0  0  3  0  0  0  0  0  0
  183.0500  178.1150  143.3940 C   0  0  2  0  0  3  0  0  0  0  0  0
  184.1840  178.1840  142.3830 C   0  0  0  0  0  2  0  0  0  0  0  0
  2 16  1  0  0  0  0
  2 12  1  0  0  0  0
  3 21  1  0  0  0  0
  4 18  2  0  0  0  0
  4 13  1  0  0  0  0
  5 13  1  0  0  0  0
  6  2  2  0  0  0  0
  7 11  1  0  0  0  0
  7  9  1  0  0  0  0
  8 17  1  1  0  0  0
  8 10  1  0  0  0  0
 10 19  1  0  0  0  0
 11 16  1  0  0  0  0
 12  1  1  0  0  0  0
 13  7  2  0  0  0  0
 14  6  1  0  0  0  0
 14 11  2  0  0  0  0
 15  1  1  6  0  0  0
 15 20  1  0  0  0  0
 16  3  1  0  0  0  0
 18 14  1  0  0  0  0
 20 19  1  0  0  0  0
 21 15  1  0  0  0  0
 21 17  1  6  0  0  0
 21  8  1  0  0  0  0
 22 26  1  0  0  0  0
 23 27  1  1  0  0  0
 23 12  1  0  0  0  0
 23 24  1  0  0  0  0
 24 25  1  0  0  0  0
 25 22  1  6  0  0  0
 26 27  1  6  0  0  0
 26 25  1  0  0  0  0
M  END
>  <MODEL>
1

>  <REMARK>
 VINA RESULT:      -8.9      0.000      0.000
  Name = 
  1 active torsions:
  status: ('A' for Active; 'I' for Inactive)
    1  A    between atoms: C_9  and  N_15
                            x       y       z     vdW  Elec       q    Type
                         _______ _______ _______ _____ _____    ______ ____

>  <TORSDO>
F 1

$$$$
=
 OpenBabel10262420053D

 27 33  0  0  1  0  0  0  0  0999 V2000
  186.9500  177.6510  143.3190 C   0  0  0  0  0  2  0  0  0  0  0  0
  186.9050  178.2220  140.8620 C   0  0  0  0  0  0  0  0  0  0  0  0
  189.3220  177.7410  141.2950 N   0  0  0  0  0  2  0  0  0  0  0  0
  187.5710  178.0750  136.4530 C   0  0  0  0  0  3  0  0  0  0  0  0
  190.0920  177.4370  135.6290 Cl  0  0  0  0  0  0  0  0  0  0  0  0
  186.0890  178.4440  139.7960 N   0  0  0  0  0  0  0  0  0  0  0  0
  189.1900  177.6390  138.2410 C   0  0  0  0  0  0  0  0  0  0  0  0
  190.6670  176.7590  143.1430 C   0  0  1  0  0  3  0  0  0  0  0  0
  190.5650  177.2720  138.6960 C   0  0  0  0  0  1  0  0  0  0  0  0
  190.8800  176.7220  144.6600 C   0  0  0  0  0  2  0  0  0  0  0  0
  188.1540  177.8880  139.1540 C   0  0  0  0  0  0  0  0  0  0  0  0
  186.4710  178.4680  142.2100 N   0  0  0  0  0  0  0  0  0  0  0  0
  188.8780  177.7350  136.8640 C   0  0  0  0  0  0  0  0  0  0  0  0
  186.8940  178.2180  138.7420 C   0  0  0  0  0  0  0  0  0  0  0  0
  188.3810  178.0060  143.6510 C   0  0  1  0  0  3  0  0  0  0  0  0
  188.1710  177.8740  140.4970 N   0  0  0  0  0  0  0  0  0  0  0  0
  189.5260  175.7930  142.8080 C   0  0  0  0  0  2  0  0  0  0  0  0
  186.5600  178.3250  137.3950 C   0  0  0  0  0  3  0  0  0  0  0  0
  190.1400  177.8300  145.3930 C   0  0  0  0  0  2  0  0  0  0  0  0
  188.6570  177.6890  145.1150 C   0  0  0  0  0  2  0  0  0  0  0  0
  189.3100  177.2810  142.6730 C   0  0  1  0  0  0  0  0  0  0  0  0
  182.6740  179.4510  143.8960 C   0  0  0  0  0  2  0  0  0  0  0  0
  185.3530  179.3890  142.4220 C   0  0  2  0  0  3  0  0  0  0  0  0
  185.1530  179.6830  143.8970 C   0  0  0  0  0  2  0  0  0  0  0  0
  183.9780  178.8460  144.3740 C   0  0  2  0  0  3  0  0  0  0  0  0
  183.2870  178.2890  143.1400 C   0  0  2  0  0  3  0  0  0  0  0  0
  184.0490  178.7940  141.9250 C   0  0  0  0  0  2  0  0  0  0  0  0
  2 12  1  0  0  0  0
  3 21  1  0  0  0  0
  4 13  2  0  0  0  0
  4 18  1  0  0  0  0
  5 13  1  0  0  0  0
  6  2  2  0  0  0  0
  7  9  1  0  0  0  0
  7 11  2  0  0  0  0
  8 17  1  1  0  0  0
  8 10  1  0  0  0  0
 10 19  1  0  0  0  0
 11 16  1  0  0  0  0
 12 23  1  0  0  0  0
 12  1  1  0  0  0  0
 13  7  1  0  0  0  0
 14 11  1  0  0  0  0
 14  6  1  0  0  0  0
 15  1  1  6  0  0  0
 15 20  1  0  0  0  0
 16  2  1  0  0  0  0
 16  3  1  0  0  0  0
 18 14  2  0  0  0  0
 20 19  1  0  0  0  0
 21 17  1  6  0  0  0
 21  8  1  0  0  0  0
 21 15  1  0  0  0  0
 23 27  1  1  0  0  0
 23 24  1  0  0  0  0
 24 25  1  0  0  0  0
 25 22  1  6  0  0  0
 26 27  1  6  0  0  0
 26 22  1  0  0  0  0
 26 25  1  0  0  0  0
M  END
>  <MODEL>
2

>  <REMARK>
 VINA RESULT:      -8.7      1.952      2.994
  Name = 
  1 active torsions:
  status: ('A' for Active; 'I' for Inactive)
    1  A    between atoms: C_9  and  N_15
                            x       y       z     vdW  Elec       q    Type
                         _______ _______ _______ _____ _____    ______ ____

>  <TORSDO>
F 1

$$$$
=
 OpenBabel10262420053D

 27 33  0  0  1  0  0  0  0  0999 V2000
  185.8420  178.9930  139.9330 C   0  0  0  0  0  2  0  0  0  0  0  0
  185.2110  178.6000  142.3450 C   0  0  0  0  0  0  0  0  0  0  0  0
  187.4800  177.5580  142.1670 N   0  0  0  0  0  2  0  0  0  0  0  0
  185.3680  178.4010  146.7990 C   0  0  0  0  0  3  0  0  0  0  0  0
  187.6790  177.4470  147.8890 Cl  0  0  0  0  0  0  0  0  0  0  0  0
  184.3130  178.9180  143.3160 N   0  0  0  0  0  0  0  0  0  0  0  0
  187.1110  177.7700  145.1960 C   0  0  0  0  0  0  0  0  0  0  0  0
  189.3300  177.5280  140.5050 C   0  0  1  0  0  3  0  0  0  0  0  0
  188.4780  177.2490  144.8930 C   0  0  0  0  0  1  0  0  0  0  0  0
  189.6830  177.4080  139.0190 C   0  0  0  0  0  2  0  0  0  0  0  0
  186.2300  178.1630  144.1780 C   0  0  0  0  0  0  0  0  0  0  0  0
  184.8610  178.6340  140.9510 N   0  0  0  0  0  0  0  0  0  0  0  0
  186.6600  177.9000  146.5310 C   0  0  0  0  0  0  0  0  0  0  0  0
  184.9810  178.6450  144.4520 C   0  0  0  0  0  0  0  0  0  0  0  0
  186.8170  177.8580  139.7230 C   0  0  1  0  0  3  0  0  0  0  0  0
  186.3930  178.1420  142.8440 N   0  0  0  0  0  0  0  0  0  0  0  0
  188.9450  178.9870  140.7770 C   0  0  0  0  0  2  0  0  0  0  0  0
  184.5080  178.7790  145.7540 C   0  0  0  0  0  3  0  0  0  0  0  0
  188.5160  176.9350  138.1660 C   0  0  0  0  0  2  0  0  0  0  0  0
  187.3790  177.9260  138.3080 C   0  0  0  0  0  2  0  0  0  0  0  0
  187.8850  177.9140  140.8180 C   0  0  1  0  0  0  0  0  0  0  0  0
  181.7300  177.6360  138.2240 C   0  0  0  0  0  2  0  0  0  0  0  0
  183.4440  178.5430  140.5890 C   0  0  2  0  0  3  0  0  0  0  0  0
  183.0470  177.1140  140.2720 C   0  0  0  0  0  2  0  0  0  0  0  0
  182.9880  176.9810  138.7600 C   0  0  2  0  0  3  0  0  0  0  0  0
  183.0480  178.3840  138.1780 C   0  0  2  0  0  3  0  0  0  0  0  0
  183.1430  179.3560  139.3440 C   0  0  0  0  0  2  0  0  0  0  0  0
  1 12  1  0  0  0  0
  2 16  1  0  0  0  0
  2  6  2  0  0  0  0
  3 16  1  0  0  0  0
  6 14  1  0  0  0  0
  7 13  2  0  0  0  0
  8 10  1  6  0  0  0
  8 17  1  0  0  0  0
  8 21  1  0  0  0  0
  9  7  1  0  0  0  0
 11 14  2  0  0  0  0
 11  7  1  0  0  0  0
 12  2  1  0  0  0  0
 13  4  1  0  0  0  0
 13  5  1  0  0  0  0
 14 18  1  0  0  0  0
 15 20  1  6  0  0  0
 15  1  1  0  0  0  0
 15 21  1  0  0  0  0
 16 11  1  0  0  0  0
 18  4  2  0  0  0  0
 19 20  1  0  0  0  0
 19 10  1  0  0  0  0
 21 17  1  1  0  0  0
 21  3  1  0  0  0  0
 23 27  1  6  0  0  0
 23 12  1  0  0  0  0
 24 23  1  0  0  0  0
 25 22  1  1  0  0  0
 25 24  1  0  0  0  0
 26 22  1  1  0  0  0
 26 25  1  0  0  0  0
 26 27  1  0  0  0  0
M  END
>  <MODEL>
3

>  <REMARK>
 VINA RESULT:      -8.5      2.848      6.036
  Name = 
  1 active torsions:
  status: ('A' for Active; 'I' for Inactive)
    1  A    between atoms: C_9  and  N_15
                            x       y       z     vdW  Elec       q    Type
                         _______ _______ _______ _____ _____    ______ ____

>  <TORSDO>
F 1

$$$$
=
 OpenBabel10262420053D

 27 33  0  0  1  0  0  0  0  0999 V2000
  190.0710  177.9750  141.1600 C   0  0  0  0  0  2  0  0  0  0  0  0
  187.5600  178.1590  140.9890 C   0  0  0  0  0  0  0  0  0  0  0  0
  187.9210  177.3720  143.3370 N   0  0  0  0  0  2  0  0  0  0  0  0
  183.3040  179.1560  141.8790 C   0  0  0  0  0  3  0  0  0  0  0  0
  182.4860  178.7900  144.4550 Cl  0  0  0  0  0  0  0  0  0  0  0  0
  186.5380  178.6180  140.2180 N   0  0  0  0  0  0  0  0  0  0  0  0
  185.0160  178.3280  143.4240 C   0  0  0  0  0  0  0  0  0  0  0  0
  189.8530  177.1170  144.8820 C   0  0  1  0  0  3  0  0  0  0  0  0
  185.4460  177.9040  144.7910 C   0  0  0  0  0  1  0  0  0  0  0  0
  191.3080  176.6510  145.0090 C   0  0  0  0  0  2  0  0  0  0  0  0
  185.9090  178.3370  142.3420 C   0  0  0  0  0  0  0  0  0  0  0  0
  188.8270  177.7860  140.4210 N   0  0  0  0  0  0  0  0  0  0  0  0
  183.6900  178.7520  143.1750 C   0  0  0  0  0  0  0  0  0  0  0  0
  185.5210  178.7300  141.0910 C   0  0  0  0  0  0  0  0  0  0  0  0
  190.1900  176.9420  142.2560 C   0  0  1  0  0  3  0  0  0  0  0  0
  187.2050  177.9860  142.2930 N   0  0  0  0  0  0  0  0  0  0  0  0
  189.8670  178.5420  144.3190 C   0  0  0  0  0  2  0  0  0  0  0  0
  184.2220  179.1460  140.8160 C   0  0  0  0  0  3  0  0  0  0  0  0
  191.7810  175.8420  143.8120 C   0  0  0  0  0  2  0  0  0  0  0  0
  191.6620  176.7000  142.5690 C   0  0  0  0  0  2  0  0  0  0  0  0
  189.3670  177.4040  143.4620 C   0  0  1  0  0  0  0  0  0  0  0  0
  190.8120  176.1600  137.0090 C   0  0  0  0  0  2  0  0  0  0  0  0
  188.8760  177.4440  138.9980 C   0  0  2  0  0  3  0  0  0  0  0  0
  189.0900  175.9560  138.7960 C   0  0  0  0  0  2  0  0  0  0  0  0
  190.5540  175.7490  138.4450 C   0  0  2  0  0  3  0  0  0  0  0  0
  191.1450  177.1150  138.1380 C   0  0  2  0  0  3  0  0  0  0  0  0
  190.0340  178.1400  138.3060 C   0  0  0  0  0  2  0  0  0  0  0  0
  2 16  1  0  0  0  0
  3 21  1  0  0  0  0
  4 13  1  0  0  0  0
  6  2  2  0  0  0  0
  6 14  1  0  0  0  0
  7  9  1  0  0  0  0
  8 17  1  1  0  0  0
  8 10  1  0  0  0  0
 11  7  1  0  0  0  0
 12  2  1  0  0  0  0
 12  1  1  0  0  0  0
 13  7  2  0  0  0  0
 13  5  1  0  0  0  0
 14 11  2  0  0  0  0
 15  1  1  6  0  0  0
 15 20  1  0  0  0  0
 15 21  1  0  0  0  0
 16 11  1  0  0  0  0
 16  3  1  0  0  0  0
 18 14  1  0  0  0  0
 18  4  2  0  0  0  0
 19 10  1  0  0  0  0
 20 19  1  0  0  0  0
 21 17  1  6  0  0  0
 21  8  1  0  0  0  0
 23 27  1  6  0  0  0
 23 12  1  0  0  0  0
 24 23  1  0  0  0  0
 25 22  1  6  0  0  0
 25 24  1  0  0  0  0
 26 22  1  6  0  0  0
 26 27  1  0  0  0  0
 26 25  1  0  0  0  0
M  END
>  <MODEL>
4

>  <REMARK>
 VINA RESULT:      -8.4      2.815      6.278
  Name = 
  1 active torsions:
  status: ('A' for Active; 'I' for Inactive)
    1  A    between atoms: C_9  and  N_15
                            x       y       z     vdW  Elec       q    Type
                         _______ _______ _______ _____ _____    ______ ____

>  <TORSDO>
F 1

$$$$
=
 OpenBabel10262420053D

 27 33  0  0  1  0  0  0  0  0999 V2000
  189.1500  177.3770  140.5230 C   0  0  0  0  0  2  0  0  0  0  0  0
  187.3410  178.1120  142.1210 C   0  0  0  0  0  0  0  0  0  0  0  0
  186.3800  178.6580  139.8760 N   0  0  0  0  0  2  0  0  0  0  0  0
  183.3680  178.6900  144.0650 C   0  0  0  0  0  3  0  0  0  0  0  0
  181.2790  179.2610  142.4070 Cl  0  0  0  0  0  0  0  0  0  0  0  0
  186.9320  178.0710  143.4180 N   0  0  0  0  0  0  0  0  0  0  0  0
  183.9130  178.8080  141.6790 C   0  0  0  0  0  0  0  0  0  0  0  0
  186.9350  178.1630  137.5030 C   0  0  1  0  0  3  0  0  0  0  0  0
  183.5080  179.0140  140.2560 C   0  0  0  0  0  1  0  0  0  0  0  0
  188.0620  178.0710  136.4690 C   0  0  0  0  0  2  0  0  0  0  0  0
  185.2370  178.5050  142.0300 C   0  0  0  0  0  0  0  0  0  0  0  0
  188.7310  178.0190  141.7640 N   0  0  0  0  0  0  0  0  0  0  0  0
  182.9670  178.8960  142.7270 C   0  0  0  0  0  0  0  0  0  0  0  0
  185.6110  178.3100  143.3310 C   0  0  0  0  0  0  0  0  0  0  0  0
  188.8440  178.2700  139.3430 C   0  0  1  0  0  3  0  0  0  0  0  0
  186.3240  178.3690  141.2520 N   0  0  0  0  0  0  0  0  0  0  0  0
  186.9070  176.8420  138.2800 C   0  0  0  0  0  2  0  0  0  0  0  0
  184.7040  178.3960  144.3820 C   0  0  0  0  0  3  0  0  0  0  0  0
  189.3670  178.6850  136.9520 C   0  0  0  0  0  2  0  0  0  0  0  0
  189.8090  177.9590  138.2060 C   0  0  0  0  0  2  0  0  0  0  0  0
  187.3690  178.1050  138.9670 C   0  0  1  0  0  0  0  0  0  0  0  0
  191.5540  176.9230  144.7740 C   0  0  0  0  0  2  0  0  0  0  0  0
  189.7320  178.3560  142.7770 C   0  0  2  0  0  3  0  0  0  0  0  0
  191.0720  177.7160  142.4630 C   0  0  0  0  0  2  0  0  0  0  0  0
  191.2170  176.4980  143.3590 C   0  0  2  0  0  3  0  0  0  0  0  0
  190.1230  176.5750  144.4120 C   0  0  2  0  0  3  0  0  0  0  0  0
  189.3240  177.8410  144.1450 C   0  0  0  0  0  2  0  0  0  0  0  0
  1 12  1  0  0  0  0
  2  6  2  0  0  0  0
  3 16  1  0  0  0  0
  4 18  1  0  0  0  0
  5 13  1  0  0  0  0
  7 11  2  0  0  0  0
  7 13  1  0  0  0  0
  8 10  1  6  0  0  0
  8 17  1  0  0  0  0
  8 21  1  0  0  0  0
  9  7  1  0  0  0  0
 10 19  1  0  0  0  0
 11 14  1  0  0  0  0
 12  2  1  0  0  0  0
 13  4  2  0  0  0  0
 14  6  1  0  0  0  0
 14 18  2  0  0  0  0
 15 20  1  6  0  0  0
 15  1  1  0  0  0  0
 16 11  1  0  0  0  0
 16  2  1  0  0  0  0
 19 20  1  0  0  0  0
 21 17  1  1  0  0  0
 21 15  1  0  0  0  0
 21  3  1  0  0  0  0
 23 12  1  6  0  0  0
 23 27  1  0  0  0  0
 24 23  1  0  0  0  0
 25 24  1  6  0  0  0
 25 26  1  0  0  0  0
 25 22  1  0  0  0  0
 26 27  1  6  0  0  0
 26 22  1  0  0  0  0
M  END
>  <MODEL>
5

>  <REMARK>
 VINA RESULT:      -8.2      3.025      7.475
  Name = 
  1 active torsions:
  status: ('A' for Active; 'I' for Inactive)
    1  A    between atoms: C_9  and  N_15
                            x       y       z     vdW  Elec       q    Type
                         _______ _______ _______ _____ _____    ______ ____

>  <TORSDO>
F 1

$$$$
=
 OpenBabel10262420053D

 27 33  0  0  1  0  0  0  0  0999 V2000
  188.8550  178.0690  144.5320 C   0  0  0  0  0  2  0  0  0  0  0  0
  186.9150  178.0630  142.9180 C   0  0  0  0  0  0  0  0  0  0  0  0
  185.8030  177.8970  145.1530 N   0  0  0  0  0  2  0  0  0  0  0  0
  183.0240  179.0030  140.9480 C   0  0  0  0  0  3  0  0  0  0  0  0
  180.8590  179.2330  142.5910 Cl  0  0  0  0  0  0  0  0  0  0  0  0
  186.5600  178.2590  141.6190 N   0  0  0  0  0  0  0  0  0  0  0  0
  183.4690  178.6780  143.3360 C   0  0  0  0  0  0  0  0  0  0  0  0
  186.4820  178.1390  147.5340 C   0  0  1  0  0  3  0  0  0  0  0  0
  183.0050  178.6280  144.7550 C   0  0  0  0  0  1  0  0  0  0  0  0
  187.5550  177.8020  148.5750 C   0  0  0  0  0  2  0  0  0  0  0  0
  184.8140  178.4720  142.9940 C   0  0  0  0  0  0  0  0  0  0  0  0
  188.2380  177.6350  143.2840 N   0  0  0  0  0  0  0  0  0  0  0  0
  182.5660  178.9510  142.2820 C   0  0  0  0  0  0  0  0  0  0  0  0
  185.2440  178.5230  141.6980 C   0  0  0  0  0  0  0  0  0  0  0  0
  188.2310  177.3460  145.7030 C   0  0  1  0  0  3  0  0  0  0  0  0
  185.8680  178.1940  143.7800 N   0  0  0  0  0  0  0  0  0  0  0  0
  186.9500  179.3810  146.7670 C   0  0  0  0  0  2  0  0  0  0  0  0
  184.3780  178.7850  140.6400 C   0  0  0  0  0  3  0  0  0  0  0  0
  188.5450  176.7530  148.0930 C   0  0  0  0  0  2  0  0  0  0  0  0
  189.2340  177.2720  146.8470 C   0  0  0  0  0  2  0  0  0  0  0  0
  186.9180  178.0410  146.0720 C   0  0  1  0  0  0  0  0  0  0  0  0
  191.9910  176.7530  141.4490 C   0  0  0  0  0  2  0  0  0  0  0  0
  189.0530  176.9570  142.2720 C   0  0  2  0  0  3  0  0  0  0  0  0
  190.0990  176.0650  142.9150 C   0  0  0  0  0  2  0  0  0  0  0  0
  191.4260  176.8020  142.8550 C   0  0  2  0  0  3  0  0  0  0  0  0
  191.2460  177.9860  141.9180 C   0  0  2  0  0  3  0  0  0  0  0  0
  189.8100  177.9570  141.4190 C   0  0  0  0  0  2  0  0  0  0  0  0
  2 12  1  0  0  0  0
  2 16  1  0  0  0  0
  3 21  1  0  0  0  0
  4 13  1  0  0  0  0
  6 14  1  0  0  0  0
  6  2  2  0  0  0  0
  7  9  1  0  0  0  0
  8 17  1  1  0  0  0
  8 10  1  0  0  0  0
 11  7  1  0  0  0  0
 11 16  1  0  0  0  0
 12  1  1  0  0  0  0
 13  5  1  0  0  0  0
 13  7  2  0  0  0  0
 14 11  2  0  0  0  0
 15  1  1  6  0  0  0
 15 21  1  0  0  0  0
 15 20  1  0  0  0  0
 16  3  1  0  0  0  0
 18  4  2  0  0  0  0
 18 14  1  0  0  0  0
 19 10  1  0  0  0  0
 20 19  1  0  0  0  0
 21 17  1  6  0  0  0
 21  8  1  0  0  0  0
 22 26  1  0  0  0  0
 23 27  1  1  0  0  0
 23 24  1  0  0  0  0
 23 12  1  0  0  0  0
 25 22  1  6  0  0  0
 25 24  1  0  0  0  0
 26 27  1  6  0  0  0
 26 25  1  0  0  0  0
M  END
>  <MODEL>
6

>  <REMARK>
 VINA RESULT:      -8.2      2.655      5.857
  Name = 
  1 active torsions:
  status: ('A' for Active; 'I' for Inactive)
    1  A    between atoms: C_9  and  N_15
                            x       y       z     vdW  Elec       q    Type
                         _______ _______ _______ _____ _____    ______ ____

>  <TORSDO>
F 1

$$$$
=
 OpenBabel10262420053D

 27 33  0  0  1  0  0  0  0  0999 V2000
  190.3920  176.5560  143.8680 C   0  0  0  0  0  2  0  0  0  0  0  0
  188.2980  177.5260  144.8890 C   0  0  0  0  0  0  0  0  0  0  0  0
  188.1320  178.2030  142.4860 N   0  0  0  0  0  2  0  0  0  0  0  0
  184.0350  178.6360  145.5910 C   0  0  0  0  0  3  0  0  0  0  0  0
  182.6300  179.4900  143.4150 Cl  0  0  0  0  0  0  0  0  0  0  0  0
  187.5180  177.5390  146.0030 N   0  0  0  0  0  0  0  0  0  0  0  0
  185.2800  178.6840  143.4810 C   0  0  0  0  0  0  0  0  0  0  0  0
  189.3030  177.6420  140.3640 C   0  0  1  0  0  3  0  0  0  0  0  0
  185.3490  178.9470  142.0120 C   0  0  0  0  0  1  0  0  0  0  0  0
  190.6670  177.4000  139.7070 C   0  0  0  0  0  2  0  0  0  0  0  0
  186.3880  178.2030  144.1960 C   0  0  0  0  0  0  0  0  0  0  0  0
  189.7070  177.2460  144.9550 N   0  0  0  0  0  0  0  0  0  0  0  0
  184.0830  178.8980  144.2050 C   0  0  0  0  0  0  0  0  0  0  0  0
  186.3260  177.9560  145.5390 C   0  0  0  0  0  0  0  0  0  0  0  0
  190.5710  177.4840  142.6900 C   0  0  1  0  0  3  0  0  0  0  0  0
  187.6300  177.9220  143.7690 N   0  0  0  0  0  0  0  0  0  0  0  0
  188.8740  176.3360  141.0410 C   0  0  0  0  0  2  0  0  0  0  0  0
  185.1650  178.1620  146.2770 C   0  0  0  0  0  3  0  0  0  0  0  0
  191.8340  177.8300  140.5820 C   0  0  0  0  0  2  0  0  0  0  0  0
  191.7830  177.0470  141.8780 C   0  0  0  0  0  2  0  0  0  0  0  0
  189.2670  177.5220  141.8870 C   0  0  1  0  0  0  0  0  0  0  0  0
  192.2030  175.8690  148.1340 C   0  0  0  0  0  2  0  0  0  0  0  0
  190.3940  177.4410  146.2340 C   0  0  2  0  0  3  0  0  0  0  0  0
  191.8930  177.2540  146.0880 C   0  0  0  0  0  2  0  0  0  0  0  0
  192.2340  175.8720  146.6190 C   0  0  2  0  0  3  0  0  0  0  0  0
  191.0090  175.3530  147.3550 C   0  0  2  0  0  3  0  0  0  0  0  0
  189.9360  176.4260  147.2640 C   0  0  0  0  0  2  0  0  0  0  0  0
  1 12  1  0  0  0  0
  2 12  1  0  0  0  0
  2  6  2  0  0  0  0
  3 16  1  0  0  0  0
  4 18  1  0  0  0  0
  5 13  1  0  0  0  0
  7 11  2  0  0  0  0
  7 13  1  0  0  0  0
  8 10  1  6  0  0  0
  8 17  1  0  0  0  0
  8 21  1  0  0  0  0
  9  7  1  0  0  0  0
 10 19  1  0  0  0  0
 11 14  1  0  0  0  0
 13  4  2  0  0  0  0
 14  6  1  0  0  0  0
 14 18  2  0  0  0  0
 15 20  1  6  0  0  0
 15  1  1  0  0  0  0
 16 11  1  0  0  0  0
 16  2  1  0  0  0  0
 19 20  1  0  0  0  0
 21 17  1  1  0  0  0
 21  3  1  0  0  0  0
 21 15  1  0  0  0  0
 23 12  1  6  0  0  0
 23 27  1  0  0  0  0
 24 23  1  0  0  0  0
 25 24  1  6  0  0  0
 25 26  1  0  0  0  0
 25 22  1  0  0  0  0
 26 27  1  6  0  0  0
 26 22  1  0  0  0  0
M  END
>  <MODEL>
7

>  <REMARK>
 VINA RESULT:      -8.0      2.662      6.988
  Name = 
  1 active torsions:
  status: ('A' for Active; 'I' for Inactive)
    1  A    between atoms: C_9  and  N_15
                            x       y       z     vdW  Elec       q    Type
                         _______ _______ _______ _____ _____    ______ ____

>  <TORSDO>
F 1

$$$$
=
 OpenBabel10262420053D

 27 33  0  0  1  0  0  0  0  0999 V2000
  186.4070  177.8570  139.4080 C   0  0  0  0  0  2  0  0  0  0  0  0
  187.7290  177.9030  141.5570 C   0  0  0  0  0  0  0  0  0  0  0  0
  185.4950  178.8000  142.2380 N   0  0  0  0  0  2  0  0  0  0  0  0
  188.9210  177.3770  145.8230 C   0  0  0  0  0  3  0  0  0  0  0  0
  187.0300  177.9830  147.6940 Cl  0  0  0  0  0  0  0  0  0  0  0  0
  188.8840  177.4970  142.1510 N   0  0  0  0  0  0  0  0  0  0  0  0
  186.7640  178.1340  144.9400 C   0  0  0  0  0  0  0  0  0  0  0  0
  183.2280  178.9670  141.2260 C   0  0  1  0  0  3  0  0  0  0  0  0
  185.3600  178.6010  145.1470 C   0  0  0  0  0  1  0  0  0  0  0  0
  182.4410  179.2980  139.9540 C   0  0  0  0  0  2  0  0  0  0  0  0
  187.3030  177.9710  143.6550 C   0  0  0  0  0  0  0  0  0  0  0  0
  187.6430  178.1160  140.1380 N   0  0  0  0  0  0  0  0  0  0  0  0
  187.6000  177.8240  146.0390 C   0  0  0  0  0  0  0  0  0  0  0  0
  188.5860  177.5380  143.4620 C   0  0  0  0  0  0  0  0  0  0  0  0
  185.3940  178.9410  139.6940 C   0  0  1  0  0  3  0  0  0  0  0  0
  186.7450  178.1930  142.4540 N   0  0  0  0  0  0  0  0  0  0  0  0
  183.7030  177.5140  141.1160 C   0  0  0  0  0  2  0  0  0  0  0  0
  189.4320  177.2320  144.5230 C   0  0  0  0  0  3  0  0  0  0  0  0
  183.2880  179.9810  138.8900 C   0  0  0  0  0  2  0  0  0  0  0  0
  184.4320  179.0610  138.5180 C   0  0  0  0  0  2  0  0  0  0  0  0
  184.7080  178.6380  141.0280 C   0  0  1  0  0  0  0  0  0  0  0  0
  190.4320  177.1570  137.0510 C   0  0  0  0  0  2  0  0  0  0  0  0
  188.8820  178.3610  139.3960 C   0  0  2  0  0  3  0  0  0  0  0  0
  188.6050  178.6050  137.9250 C   0  0  0  0  0  2  0  0  0  0  0  0
  188.9310  177.3220  137.1800 C   0  0  2  0  0  3  0  0  0  0  0  0
  189.6840  176.4170  138.1420 C   0  0  2  0  0  3  0  0  0  0  0  0
  189.8080  177.1610  139.4630 C   0  0  0  0  0  2  0  0  0  0  0  0
  1 15  1  0  0  0  0
  1 12  1  0  0  0  0
  2  6  2  0  0  0  0
  2 16  1  0  0  0  0
  3 16  1  0  0  0  0
  4 13  1  0  0  0  0
  6 14  1  0  0  0  0
  7  9  1  0  0  0  0
  7 13  2  0  0  0  0
  8 10  1  6  0  0  0
 11  7  1  0  0  0  0
 12  2  1  0  0  0  0
 13  5  1  0  0  0  0
 14 11  2  0  0  0  0
 14 18  1  0  0  0  0
 15 20  1  6  0  0  0
 15 21  1  0  0  0  0
 16 11  1  0  0  0  0
 17  8  1  0  0  0  0
 18  4  2  0  0  0  0
 19 10  1  0  0  0  0
 20 19  1  0  0  0  0
 21 17  1  6  0  0  0
 21  8  1  0  0  0  0
 21  3  1  0  0  0  0
 23 24  1  6  0  0  0
 23 27  1  0  0  0  0
 23 12  1  0  0  0  0
 25 22  1  6  0  0  0
 25 24  1  0  0  0  0
 25 26  1  0  0  0  0
 26 22  1  6  0  0  0
 26 27  1  0  0  0  0
M  END
>  <MODEL>
8

>  <REMARK>
 VINA RESULT:      -7.8      2.689      6.856
  Name = 
  1 active torsions:
  status: ('A' for Active; 'I' for Inactive)
    1  A    between atoms: C_9  and  N_15
                            x       y       z     vdW  Elec       q    Type
                         _______ _______ _______ _____ _____    ______ ____

>  <TORSDO>
F 1

$$$$
=
 OpenBabel10262420053D

 27 33  0  0  1  0  0  0  0  0999 V2000
  187.5540  178.3000  144.8550 C   0  0  0  0  0  2  0  0  0  0  0  0
  188.3880  177.7060  142.5490 C   0  0  0  0  0  0  0  0  0  0  0  0
  185.9610  178.1900  142.1750 N   0  0  0  0  0  2  0  0  0  0  0  0
  189.1790  177.8110  138.1600 C   0  0  0  0  0  3  0  0  0  0  0  0
  187.0600  178.4410  136.5610 Cl  0  0  0  0  0  0  0  0  0  0  0  0
  189.5030  177.4730  141.8050 N   0  0  0  0  0  0  0  0  0  0  0  0
  187.0710  178.2630  139.3260 C   0  0  0  0  0  0  0  0  0  0  0  0
  184.0950  179.1890  143.4820 C   0  0  1  0  0  3  0  0  0  0  0  0
  185.6240  178.6340  139.3100 C   0  0  0  0  0  1  0  0  0  0  0  0
  183.4050  179.2400  144.8490 C   0  0  0  0  0  2  0  0  0  0  0  0
  187.7560  178.0230  140.5260 C   0  0  0  0  0  0  0  0  0  0  0  0
  188.3630  177.4720  143.9670 N   0  0  0  0  0  0  0  0  0  0  0  0
  187.8100  178.1550  138.1240 C   0  0  0  0  0  0  0  0  0  0  0  0
  189.0820  177.6890  140.5450 C   0  0  0  0  0  0  0  0  0  0  0  0
  186.0920  177.9470  144.7110 C   0  0  1  0  0  3  0  0  0  0  0  0
  187.3080  178.0500  141.7920 N   0  0  0  0  0  0  0  0  0  0  0  0
  185.2870  180.1510  143.5240 C   0  0  0  0  0  2  0  0  0  0  0  0
  189.8320  177.5700  139.3800 C   0  0  0  0  0  3  0  0  0  0  0  0
  183.8660  178.1390  145.7910 C   0  0  0  0  0  2  0  0  0  0  0  0
  185.3600  178.2770  146.0050 C   0  0  0  0  0  2  0  0  0  0  0  0
  185.5300  178.6630  143.4790 C   0  0  1  0  0  0  0  0  0  0  0  0
  191.8120  176.6590  146.3490 C   0  0  0  0  0  2  0  0  0  0  0  0
  189.3510  176.5530  144.5370 C   0  0  2  0  0  3  0  0  0  0  0  0
  189.3410  176.6030  146.0530 C   0  0  0  0  0  2  0  0  0  0  0  0
  190.5260  177.4470  146.4890 C   0  0  2  0  0  3  0  0  0  0  0  0
  191.4130  177.6490  145.2720 C   0  0  2  0  0  3  0  0  0  0  0  0
  190.7580  176.9240  144.1070 C   0  0  0  0  0  2  0  0  0  0  0  0
  2 12  1  0  0  0  0
  3 21  1  0  0  0  0
  4 18  1  0  0  0  0
  5 13  1  0  0  0  0
  6  2  2  0  0  0  0
  7 11  2  0  0  0  0
  8 17  1  1  0  0  0
  8 10  1  0  0  0  0
  9  7  1  0  0  0  0
 10 19  1  0  0  0  0
 11 14  1  0  0  0  0
 11 16  1  0  0  0  0
 12  1  1  0  0  0  0
 13  4  2  0  0  0  0
 13  7  1  0  0  0  0
 14  6  1  0  0  0  0
 15  1  1  1  0  0  0
 15 20  1  0  0  0  0
 16  3  1  0  0  0  0
 16  2  1  0  0  0  0
 18 14  2  0  0  0  0
 19 20  1  0  0  0  0
 21  8  1  0  0  0  0
 21 17  1  1  0  0  0
 21 15  1  0  0  0  0
 22 25  1  0  0  0  0
 23 12  1  6  0  0  0
 23 24  1  0  0  0  0
 25 24  1  6  0  0  0
 26 27  1  6  0  0  0
 26 22  1  0  0  0  0
 26 25  1  0  0  0  0
 27 23  1  0  0  0  0
M  END
>  <MODEL>
9

>  <REMARK>
 VINA RESULT:      -7.8      2.002      5.092
  Name = 
  1 active torsions:
  status: ('A' for Active; 'I' for Inactive)
    1  A    between atoms: C_9  and  N_15
                            x       y       z     vdW  Elec       q    Type
                         _______ _______ _______ _____ _____    ______ ____

>  <TORSDO>
F 1

$$$$
