=
 OpenBabel10262421173D

 32 35  0  0  0  0  0  0  0  0999 V2000
  187.3920  178.0460  141.6480 N   0  0  0  0  0  0  0  0  0  0  0  0
  188.6160  177.5660  141.8130 N   0  0  0  0  0  0  0  0  0  0  0  0
  186.7120  177.8810  142.8040 C   0  0  0  0  0  0  0  0  0  0  0  0
  187.5440  177.2630  143.7310 C   0  0  0  0  0  0  0  0  0  0  0  0
  189.9710  176.4630  143.6460 C   0  0  0  0  0  1  0  0  0  0  0  0
  189.6110  177.5890  140.7760 C   0  0  0  0  0  0  0  0  0  0  0  0
  190.7440  177.0690  140.9590 O   0  0  0  0  0  0  0  0  0  0  0  0
  188.7410  177.0840  143.0690 C   0  0  0  0  0  0  0  0  0  0  0  0
  185.3060  178.3050  142.9780 C   0  0  0  0  0  0  0  0  0  0  0  0
  184.8460  178.8310  144.1940 C   0  0  0  0  0  3  0  0  0  0  0  0
  180.6780  178.3300  141.3610 C   0  0  0  0  0  2  0  0  0  0  0  0
  184.4070  178.1670  141.9100 C   0  0  0  0  0  3  0  0  0  0  0  0
  181.2780  179.4480  143.4330 O   0  0  0  0  0  0  0  0  0  0  0  0
  182.6200  179.0800  143.2770 C   0  0  0  0  0  0  0  0  0  0  0  0
  183.5090  179.2170  144.3440 C   0  0  0  0  0  3  0  0  0  0  0  0
  183.0680  178.5420  142.0560 C   0  0  0  0  0  0  0  0  0  0  0  0
  180.3750  179.4770  142.3260 C   0  0  0  0  0  2  0  0  0  0  0  0
  182.1300  178.4280  140.8910 C   0  0  0  0  0  2  0  0  0  0  0  0
  189.3250  178.2730  139.4780 C   0  0  0  0  0  2  0  0  0  0  0  0
  188.8620  177.3060  138.4960 N   0  0  0  0  0  0  0  0  0  0  0  0
  189.8220  176.6110  137.6940 C   0  0  0  0  0  0  0  0  0  0  0  0
  190.5010  176.4490  136.4820 C   0  0  0  0  0  2  0  0  0  0  0  0
  190.8090  175.5690  137.5220 C   0  0  0  0  0  0  0  0  0  0  0  0
  191.5290  174.4940  138.0250 O   0  0  0  0  0  1  0  0  0  0  0  0
  185.2950  178.1270  137.7540 O   0  0  0  0  0  1  0  0  0  0  0  0
  187.4800  177.1840  138.2690 N   0  0  0  0  0  2  0  0  0  0  0  0
  187.2080  179.1140  136.9750 O   0  0  0  0  0  0  0  0  0  0  0  0
  186.6780  178.1970  137.6550 C   0  0  0  0  0  0  0  0  0  0  0  0
  187.2520  176.8980  145.1530 C   0  0  0  0  0  2  0  0  0  0  0  0
  187.8660  177.9030  146.1210 C   0  0  0  0  0  2  0  0  0  0  0  0
  188.8230  178.1400  148.4160 C   0  0  0  0  0  1  0  0  0  0  0  0
  188.6660  177.2190  147.2210 C   0  0  0  0  0  2  0  0  0  0  0  0
  1  2  1  0  0  0  0
  1  3  2  0  0  0  0
  2  8  1  0  0  0  0
  3  9  1  0  0  0  0
  3  4  1  0  0  0  0
  4 29  1  0  0  0  0
  6  7  2  0  0  0  0
  6  2  1  0  0  0  0
  8  5  1  0  0  0  0
  8  4  2  0  0  0  0
  9 10  1  0  0  0  0
 10 15  2  0  0  0  0
 11 17  1  0  0  0  0
 12 16  1  0  0  0  0
 12  9  2  0  0  0  0
 14 13  1  0  0  0  0
 14 15  1  0  0  0  0
 16 14  2  0  0  0  0
 17 13  1  0  0  0  0
 18 11  1  0  0  0  0
 18 16  1  0  0  0  0
 19  6  1  0  0  0  0
 20 19  1  0  0  0  0
 21 20  1  0  0  0  0
 22 23  1  0  0  0  0
 22 21  1  0  0  0  0
 23 21  2  0  0  0  0
 23 24  1  0  0  0  0
 26 20  1  0  0  0  0
 27 28  2  0  0  0  0
 28 25  1  0  0  0  0
 28 26  1  0  0  0  0
 29 30  1  0  0  0  0
 30 32  1  0  0  0  0
 32 31  1  0  0  0  0
M  END
>  <MODEL>
1

>  <REMARK>
 VINA RESULT:      -8.9      0.000      0.000
  Name = 
  8 active torsions:
  status: ('A' for Active; 'I' for Inactive)
    1  A    between atoms: C_2  and  C_5
    2  A    between atoms: C_3  and  N_20
    3  A    between atoms: C_13  and  C_18
    4  A    between atoms: C_13  and  C_29
    5  A    between atoms: C_14  and  C_18
    6  A    between atoms: N_15  and  N_20
    7  A    between atoms: C_16  and  N_20
    8  A    between atoms: C_16  and  C_24
                            x       y       z     vdW  Elec       q    Type
                         _______ _______ _______ _____ _____    ______ ____

>  <TORSDO>
F 8

$$$$
=
 OpenBabel10262421173D

 32 35  0  0  0  0  0  0  0  0999 V2000
  187.4940  178.0060  141.7870 N   0  0  0  0  0  0  0  0  0  0  0  0
  188.7290  177.5570  141.9600 N   0  0  0  0  0  0  0  0  0  0  0  0
  186.8230  177.8600  142.9510 C   0  0  0  0  0  0  0  0  0  0  0  0
  187.6720  177.2850  143.8910 C   0  0  0  0  0  0  0  0  0  0  0  0
  190.1150  176.5340  143.8150 C   0  0  0  0  0  1  0  0  0  0  0  0
  189.7190  177.5710  140.9170 C   0  0  0  0  0  0  0  0  0  0  0  0
  190.8630  177.0800  141.1080 O   0  0  0  0  0  0  0  0  0  0  0  0
  188.8690  177.1130  143.2280 C   0  0  0  0  0  0  0  0  0  0  0  0
  185.4100  178.2590  143.1200 C   0  0  0  0  0  0  0  0  0  0  0  0
  184.9050  178.6530  144.3680 C   0  0  0  0  0  3  0  0  0  0  0  0
  180.8390  178.4430  141.3560 C   0  0  0  0  0  2  0  0  0  0  0  0
  184.5480  178.2330  142.0130 C   0  0  0  0  0  3  0  0  0  0  0  0
  181.3610  179.3370  143.5540 O   0  0  0  0  0  0  0  0  0  0  0  0
  182.7100  178.9910  143.4060 C   0  0  0  0  0  0  0  0  0  0  0  0
  183.5620  179.0170  144.5120 C   0  0  0  0  0  3  0  0  0  0  0  0
  183.2030  178.5870  142.1520 C   0  0  0  0  0  0  0  0  0  0  0  0
  180.4960  179.4800  142.4260 C   0  0  0  0  0  2  0  0  0  0  0  0
  182.3060  178.5940  140.9500 C   0  0  0  0  0  2  0  0  0  0  0  0
  189.4130  178.2120  139.6020 C   0  0  0  0  0  2  0  0  0  0  0  0
  188.8070  177.2430  138.7030 N   0  0  0  0  0  0  0  0  0  0  0  0
  187.5970  177.5860  138.0190 C   0  0  0  0  0  0  0  0  0  0  0  0
  186.7930  177.5320  136.8760 C   0  0  0  0  0  2  0  0  0  0  0  0
  186.3060  178.2350  137.9820 C   0  0  0  0  0  0  0  0  0  0  0  0
  185.3170  178.9910  138.5950 O   0  0  0  0  0  1  0  0  0  0  0  0
  190.5770  174.1870  137.4890 O   0  0  0  0  0  1  0  0  0  0  0  0
  189.3520  175.9490  138.6400 N   0  0  0  0  0  2  0  0  0  0  0  0
  191.0120  176.3910  137.0500 O   0  0  0  0  0  0  0  0  0  0  0  0
  190.3310  175.5390  137.6790 C   0  0  0  0  0  0  0  0  0  0  0  0
  187.3940  176.9540  145.3230 C   0  0  0  0  0  2  0  0  0  0  0  0
  188.1030  177.9230  146.2640 C   0  0  0  0  0  2  0  0  0  0  0  0
  188.3200  178.1580  148.7410 C   0  0  0  0  0  1  0  0  0  0  0  0
  188.5470  177.2430  147.5520 C   0  0  0  0  0  2  0  0  0  0  0  0
  1  2  1  0  0  0  0
  1  3  2  0  0  0  0
  2  8  1  0  0  0  0
  3  9  1  0  0  0  0
  3  4  1  0  0  0  0
  4 29  1  0  0  0  0
  6  7  2  0  0  0  0
  6  2  1  0  0  0  0
  8  5  1  0  0  0  0
  8  4  2  0  0  0  0
  9 10  1  0  0  0  0
 10 15  2  0  0  0  0
 11 17  1  0  0  0  0
 12 16  1  0  0  0  0
 12  9  2  0  0  0  0
 14 13  1  0  0  0  0
 14 15  1  0  0  0  0
 16 14  2  0  0  0  0
 17 13  1  0  0  0  0
 18 11  1  0  0  0  0
 18 16  1  0  0  0  0
 19  6  1  0  0  0  0
 20 19  1  0  0  0  0
 21 20  1  0  0  0  0
 22 23  1  0  0  0  0
 22 21  1  0  0  0  0
 23 21  2  0  0  0  0
 23 24  1  0  0  0  0
 25 28  1  0  0  0  0
 26 20  1  0  0  0  0
 27 28  2  0  0  0  0
 28 26  1  0  0  0  0
 29 30  1  0  0  0  0
 30 32  1  0  0  0  0
 32 31  1  0  0  0  0
M  END
>  <MODEL>
2

>  <REMARK>
 VINA RESULT:      -8.7      0.719      2.501
  Name = 
  8 active torsions:
  status: ('A' for Active; 'I' for Inactive)
    1  A    between atoms: C_2  and  C_5
    2  A    between atoms: C_3  and  N_20
    3  A    between atoms: C_13  and  C_18
    4  A    between atoms: C_13  and  C_29
    5  A    between atoms: C_14  and  C_18
    6  A    between atoms: N_15  and  N_20
    7  A    between atoms: C_16  and  N_20
    8  A    between atoms: C_16  and  C_24
                            x       y       z     vdW  Elec       q    Type
                         _______ _______ _______ _____ _____    ______ ____

>  <TORSDO>
F 8

$$$$
=
 OpenBabel10262421173D

 32 35  0  0  0  0  0  0  0  0999 V2000
  187.9200  177.1680  143.0510 N   0  0  0  0  0  0  0  0  0  0  0  0
  189.1300  176.9310  143.5370 N   0  0  0  0  0  0  0  0  0  0  0  0
  187.1700  177.7190  144.0310 C   0  0  0  0  0  0  0  0  0  0  0  0
  187.9420  177.8230  145.1840 C   0  0  0  0  0  0  0  0  0  0  0  0
  190.3670  177.2200  145.7270 C   0  0  0  0  0  1  0  0  0  0  0  0
  190.1870  176.3510  142.7530 C   0  0  0  0  0  0  0  0  0  0  0  0
  191.3050  176.0890  143.2720 O   0  0  0  0  0  0  0  0  0  0  0  0
  189.1760  177.3190  144.8300 C   0  0  0  0  0  0  0  0  0  0  0  0
  185.7580  178.1120  143.8390 C   0  0  0  0  0  0  0  0  0  0  0  0
  184.9510  178.4940  144.9210 C   0  0  0  0  0  3  0  0  0  0  0  0
  181.7830  178.2960  140.9750 C   0  0  0  0  0  2  0  0  0  0  0  0
  185.2050  178.0920  142.5500 C   0  0  0  0  0  3  0  0  0  0  0  0
  181.7270  179.1740  143.2390 O   0  0  0  0  0  0  0  0  0  0  0  0
  183.0710  178.8340  143.4360 C   0  0  0  0  0  0  0  0  0  0  0  0
  183.6140  178.8530  144.7220 C   0  0  0  0  0  3  0  0  0  0  0  0
  183.8670  178.4410  142.3450 C   0  0  0  0  0  0  0  0  0  0  0  0
  181.1750  179.3240  141.9300 C   0  0  0  0  0  2  0  0  0  0  0  0
  183.3040  178.4550  140.9550 C   0  0  0  0  0  2  0  0  0  0  0  0
  189.9830  176.0920  141.2960 C   0  0  0  0  0  2  0  0  0  0  0  0
  190.3080  177.2840  140.5270 N   0  0  0  0  0  0  0  0  0  0  0  0
  189.2740  177.9400  139.7870 C   0  0  0  0  0  0  0  0  0  0  0  0
  187.9240  178.2570  139.6090 C   0  0  0  0  0  2  0  0  0  0  0  0
  188.8390  178.7640  138.6820 C   0  0  0  0  0  0  0  0  0  0  0  0
  189.1240  179.5090  137.5460 O   0  0  0  0  0  1  0  0  0  0  0  0
  193.9450  177.3200  139.6780 O   0  0  0  0  0  1  0  0  0  0  0  0
  191.6540  177.6740  140.4260 N   0  0  0  0  0  2  0  0  0  0  0  0
  192.1830  176.4640  138.4950 O   0  0  0  0  0  0  0  0  0  0  0  0
  192.5850  177.1050  139.5010 C   0  0  0  0  0  0  0  0  0  0  0  0
  187.5620  178.3890  146.5150 C   0  0  0  0  0  2  0  0  0  0  0  0
  187.6260  177.3280  147.6090 C   0  0  0  0  0  2  0  0  0  0  0  0
  189.5190  178.3700  148.8600 C   0  0  0  0  0  1  0  0  0  0  0  0
  188.0760  177.9110  148.9420 C   0  0  0  0  0  2  0  0  0  0  0  0
  1  2  1  0  0  0  0
  1  3  2  0  0  0  0
  2  8  1  0  0  0  0
  3  4  1  0  0  0  0
  4 29  1  0  0  0  0
  6  7  2  0  0  0  0
  6  2  1  0  0  0  0
  8  4  2  0  0  0  0
  8  5  1  0  0  0  0
  9  3  1  0  0  0  0
  9 10  1  0  0  0  0
 11 17  1  0  0  0  0
 12  9  2  0  0  0  0
 13 14  1  0  0  0  0
 14 15  1  0  0  0  0
 15 10  2  0  0  0  0
 16 12  1  0  0  0  0
 16 14  2  0  0  0  0
 17 13  1  0  0  0  0
 18 11  1  0  0  0  0
 18 16  1  0  0  0  0
 19  6  1  0  0  0  0
 20 19  1  0  0  0  0
 21 20  1  0  0  0  0
 22 21  1  0  0  0  0
 23 22  1  0  0  0  0
 23 21  2  0  0  0  0
 24 23  1  0  0  0  0
 26 20  1  0  0  0  0
 27 28  2  0  0  0  0
 28 25  1  0  0  0  0
 28 26  1  0  0  0  0
 29 30  1  0  0  0  0
 30 32  1  0  0  0  0
 31 32  1  0  0  0  0
M  END
>  <MODEL>
3

>  <REMARK>
 VINA RESULT:      -8.6      1.829      3.130
  Name = 
  8 active torsions:
  status: ('A' for Active; 'I' for Inactive)
    1  A    between atoms: C_2  and  C_5
    2  A    between atoms: C_3  and  N_20
    3  A    between atoms: C_13  and  C_18
    4  A    between atoms: C_13  and  C_29
    5  A    between atoms: C_14  and  C_18
    6  A    between atoms: N_15  and  N_20
    7  A    between atoms: C_16  and  N_20
    8  A    between atoms: C_16  and  C_24
                            x       y       z     vdW  Elec       q    Type
                         _______ _______ _______ _____ _____    ______ ____

>  <TORSDO>
F 8

$$$$
=
 OpenBabel10262421173D

 32 35  0  0  0  0  0  0  0  0999 V2000
  188.0660  178.0600  140.0240 N   0  0  0  0  0  0  0  0  0  0  0  0
  189.0740  177.6950  139.2450 N   0  0  0  0  0  0  0  0  0  0  0  0
  188.3400  177.6660  141.2870 C   0  0  0  0  0  0  0  0  0  0  0  0
  189.5700  177.0180  141.2980 C   0  0  0  0  0  0  0  0  0  0  0  0
  191.2940  176.5000  139.4810 C   0  0  0  0  0  1  0  0  0  0  0  0
  189.1100  177.9660  137.8340 C   0  0  0  0  0  0  0  0  0  0  0  0
  190.0620  177.5500  137.1220 O   0  0  0  0  0  0  0  0  0  0  0  0
  190.0050  177.0600  139.9900 C   0  0  0  0  0  0  0  0  0  0  0  0
  187.4260  177.9100  142.4220 C   0  0  0  0  0  0  0  0  0  0  0  0
  186.1320  178.4170  142.2240 C   0  0  0  0  0  3  0  0  0  0  0  0
  186.7260  178.3650  147.2540 C   0  0  0  0  0  2  0  0  0  0  0  0
  187.8600  177.6410  143.7290 C   0  0  0  0  0  3  0  0  0  0  0  0
  184.8790  178.6310  145.6980 O   0  0  0  0  0  0  0  0  0  0  0  0
  185.7210  178.3780  144.6090 C   0  0  0  0  0  0  0  0  0  0  0  0
  185.2830  178.6510  143.3110 C   0  0  0  0  0  3  0  0  0  0  0  0
  187.0200  177.8810  144.8200 C   0  0  0  0  0  0  0  0  0  0  0  0
  185.2220  178.2190  147.0230 C   0  0  0  0  0  2  0  0  0  0  0  0
  187.4850  177.5480  146.2070 C   0  0  0  0  0  2  0  0  0  0  0  0
  188.0340  178.7890  137.2010 C   0  0  0  0  0  2  0  0  0  0  0  0
  186.8920  177.9500  136.8730 N   0  0  0  0  0  0  0  0  0  0  0  0
  185.7000  178.0540  137.6580 C   0  0  0  0  0  0  0  0  0  0  0  0
  184.4780  177.5260  138.0850 C   0  0  0  0  0  2  0  0  0  0  0  0
  184.8620  178.7680  138.5950 C   0  0  0  0  0  0  0  0  0  0  0  0
  184.6230  179.8700  139.4040 O   0  0  0  0  0  1  0  0  0  0  0  0
  187.7320  174.7520  135.1370 O   0  0  0  0  0  0  0  0  0  0  0  0
  187.0420  176.9650  135.8810 N   0  0  0  0  0  2  0  0  0  0  0  0
  187.0560  175.1010  137.2950 O   0  0  0  0  0  1  0  0  0  0  0  0
  187.2910  175.5840  136.1570 C   0  0  0  0  0  0  0  0  0  0  0  0
  190.3080  176.4310  142.4600 C   0  0  0  0  0  2  0  0  0  0  0  0
  191.5480  177.2500  142.8010 C   0  0  0  0  0  2  0  0  0  0  0  0
  191.1230  179.3760  144.0410 C   0  0  0  0  0  1  0  0  0  0  0  0
  191.4420  177.8990  144.1750 C   0  0  0  0  0  2  0  0  0  0  0  0
  1  3  2  0  0  0  0
  2  8  1  0  0  0  0
  2  1  1  0  0  0  0
  3  4  1  0  0  0  0
  3  9  1  0  0  0  0
  4 29  1  0  0  0  0
  5  8  1  0  0  0  0
  6  2  1  0  0  0  0
  7  6  2  0  0  0  0
  8  4  2  0  0  0  0
  9 12  1  0  0  0  0
 10  9  2  0  0  0  0
 10 15  1  0  0  0  0
 12 16  2  0  0  0  0
 13 17  1  0  0  0  0
 14 16  1  0  0  0  0
 14 13  1  0  0  0  0
 15 14  2  0  0  0  0
 16 18  1  0  0  0  0
 17 11  1  0  0  0  0
 18 11  1  0  0  0  0
 19  6  1  0  0  0  0
 20 19  1  0  0  0  0
 20 21  1  0  0  0  0
 21 22  1  0  0  0  0
 21 23  2  0  0  0  0
 22 23  1  0  0  0  0
 23 24  1  0  0  0  0
 25 28  2  0  0  0  0
 26 28  1  0  0  0  0
 26 20  1  0  0  0  0
 28 27  1  0  0  0  0
 29 30  1  0  0  0  0
 30 32  1  0  0  0  0
 31 32  1  0  0  0  0
M  END
>  <MODEL>
4

>  <REMARK>
 VINA RESULT:      -8.5      2.442      4.611
  Name = 
  8 active torsions:
  status: ('A' for Active; 'I' for Inactive)
    1  A    between atoms: C_2  and  C_5
    2  A    between atoms: C_3  and  N_20
    3  A    between atoms: C_13  and  C_18
    4  A    between atoms: C_13  and  C_29
    5  A    between atoms: C_14  and  C_18
    6  A    between atoms: N_15  and  N_20
    7  A    between atoms: C_16  and  N_20
    8  A    between atoms: C_16  and  C_24
                            x       y       z     vdW  Elec       q    Type
                         _______ _______ _______ _____ _____    ______ ____

>  <TORSDO>
F 8

$$$$
=
 OpenBabel10262421173D

 32 35  0  0  0  0  0  0  0  0999 V2000
  186.0720  177.5980  142.7020 N   0  0  0  0  0  0  0  0  0  0  0  0
  186.4500  177.6960  143.9680 N   0  0  0  0  0  0  0  0  0  0  0  0
  184.9230  178.2920  142.5470 C   0  0  0  0  0  0  0  0  0  0  0  0
  184.5600  178.8410  143.7710 C   0  0  0  0  0  0  0  0  0  0  0  0
  185.6260  178.7940  146.0960 C   0  0  0  0  0  1  0  0  0  0  0  0
  187.6430  177.0780  144.4780 C   0  0  0  0  0  0  0  0  0  0  0  0
  187.9340  177.1500  145.7020 O   0  0  0  0  0  0  0  0  0  0  0  0
  185.5530  178.4470  144.6440 C   0  0  0  0  0  0  0  0  0  0  0  0
  184.2140  178.3950  141.2540 C   0  0  0  0  0  0  0  0  0  0  0  0
  184.5550  179.3750  140.3090 C   0  0  0  0  0  3  0  0  0  0  0  0
  180.4020  177.1720  138.4220 C   0  0  0  0  0  2  0  0  0  0  0  0
  183.1700  177.5040  140.9650 C   0  0  0  0  0  3  0  0  0  0  0  0
  182.1280  178.6750  137.6060 O   0  0  0  0  0  0  0  0  0  0  0  0
  182.8300  178.5730  138.8130 C   0  0  0  0  0  0  0  0  0  0  0  0
  183.8660  179.4650  139.0940 C   0  0  0  0  0  3  0  0  0  0  0  0
  182.4720  177.5940  139.7570 C   0  0  0  0  0  0  0  0  0  0  0  0
  181.1740  177.6890  137.2070 C   0  0  0  0  0  2  0  0  0  0  0  0
  181.3860  176.6060  139.4480 C   0  0  0  0  0  2  0  0  0  0  0  0
  188.5800  176.3780  143.5480 C   0  0  0  0  0  2  0  0  0  0  0  0
  189.5180  177.3290  142.9750 N   0  0  0  0  0  0  0  0  0  0  0  0
  190.6130  177.7960  143.7700 C   0  0  0  0  0  0  0  0  0  0  0  0
  191.6800  178.6780  143.9670 C   0  0  0  0  0  2  0  0  0  0  0  0
  191.4380  177.7200  144.9550 C   0  0  0  0  0  0  0  0  0  0  0  0
  191.7510  177.1310  146.1720 O   0  0  0  0  0  1  0  0  0  0  0  0
  189.8030  178.2510  139.3670 O   0  0  0  0  0  0  0  0  0  0  0  0
  189.2430  177.8660  141.7050 N   0  0  0  0  0  2  0  0  0  0  0  0
  190.5400  176.3750  140.4520 O   0  0  0  0  0  1  0  0  0  0  0  0
  189.9100  177.4640  140.5050 C   0  0  0  0  0  0  0  0  0  0  0  0
  183.3850  179.7090  144.0960 C   0  0  0  0  0  2  0  0  0  0  0  0
  182.1010  178.8910  144.1900 C   0  0  0  0  0  2  0  0  0  0  0  0
  180.0330  178.2560  142.9430 C   0  0  0  0  0  1  0  0  0  0  0  0
  181.0610  179.3470  143.1750 C   0  0  0  0  0  2  0  0  0  0  0  0
  1  2  1  0  0  0  0
  2  6  1  0  0  0  0
  2  8  1  0  0  0  0
  3  1  2  0  0  0  0
  3  4  1  0  0  0  0
  4 29  1  0  0  0  0
  4  8  2  0  0  0  0
  6  7  2  0  0  0  0
  8  5  1  0  0  0  0
  9  3  1  0  0  0  0
 10  9  2  0  0  0  0
 11 18  1  0  0  0  0
 12  9  1  0  0  0  0
 13 14  1  0  0  0  0
 14 15  2  0  0  0  0
 14 16  1  0  0  0  0
 15 10  1  0  0  0  0
 16 12  2  0  0  0  0
 17 13  1  0  0  0  0
 17 11  1  0  0  0  0
 18 16  1  0  0  0  0
 19  6  1  0  0  0  0
 20 19  1  0  0  0  0
 20 21  1  0  0  0  0
 21 22  1  0  0  0  0
 21 23  2  0  0  0  0
 22 23  1  0  0  0  0
 23 24  1  0  0  0  0
 25 28  2  0  0  0  0
 26 20  1  0  0  0  0
 27 28  1  0  0  0  0
 28 26  1  0  0  0  0
 29 30  1  0  0  0  0
 31 32  1  0  0  0  0
 32 30  1  0  0  0  0
M  END
>  <MODEL>
5

>  <REMARK>
 VINA RESULT:      -8.4      2.494      5.276
  Name = 
  8 active torsions:
  status: ('A' for Active; 'I' for Inactive)
    1  A    between atoms: C_2  and  C_5
    2  A    between atoms: C_3  and  N_20
    3  A    between atoms: C_13  and  C_18
    4  A    between atoms: C_13  and  C_29
    5  A    between atoms: C_14  and  C_18
    6  A    between atoms: N_15  and  N_20
    7  A    between atoms: C_16  and  N_20
    8  A    between atoms: C_16  and  C_24
                            x       y       z     vdW  Elec       q    Type
                         _______ _______ _______ _____ _____    ______ ____

>  <TORSDO>
F 8

$$$$
=
 OpenBabel10262421173D

 32 35  0  0  0  0  0  0  0  0999 V2000
  184.5470  177.8790  141.3430 N   0  0  0  0  0  0  0  0  0  0  0  0
  183.2710  178.1020  141.6230 N   0  0  0  0  0  0  0  0  0  0  0  0
  185.2920  178.3200  142.3800 C   0  0  0  0  0  0  0  0  0  0  0  0
  184.4470  178.8510  143.3480 C   0  0  0  0  0  0  0  0  0  0  0  0
  181.9070  179.0980  143.5100 C   0  0  0  0  0  1  0  0  0  0  0  0
  182.2010  177.7450  140.7320 C   0  0  0  0  0  0  0  0  0  0  0  0
  181.0060  178.0290  141.0140 O   0  0  0  0  0  0  0  0  0  0  0  0
  183.1760  178.6910  142.8360 C   0  0  0  0  0  0  0  0  0  0  0  0
  186.7680  178.2300  142.4060 C   0  0  0  0  0  0  0  0  0  0  0  0
  187.5430  178.6200  141.3030 C   0  0  0  0  0  3  0  0  0  0  0  0
  190.8560  176.5510  144.5270 C   0  0  0  0  0  2  0  0  0  0  0  0
  187.4100  177.7350  143.5500 C   0  0  0  0  0  3  0  0  0  0  0  0
  190.9660  177.9070  142.5140 O   0  0  0  0  0  0  0  0  0  0  0  0
  189.5710  178.0270  142.4840 C   0  0  0  0  0  0  0  0  0  0  0  0
  188.9380  178.5190  141.3410 C   0  0  0  0  0  3  0  0  0  0  0  0
  188.8020  177.6220  143.5910 C   0  0  0  0  0  0  0  0  0  0  0  0
  191.6630  177.5640  143.7130 C   0  0  0  0  0  2  0  0  0  0  0  0
  189.4750  177.1300  144.8380 C   0  0  0  0  0  2  0  0  0  0  0  0
  182.4920  176.9900  139.4760 C   0  0  0  0  0  2  0  0  0  0  0  0
  183.0520  177.8840  138.4750 N   0  0  0  0  0  0  0  0  0  0  0  0
  184.3010  177.5510  137.8610 C   0  0  0  0  0  0  0  0  0  0  0  0
  185.0690  176.7070  137.0530 C   0  0  0  0  0  2  0  0  0  0  0  0
  185.6980  177.8240  137.6080 C   0  0  0  0  0  0  0  0  0  0  0  0
  186.8240  178.6160  137.7840 O   0  0  0  0  0  1  0  0  0  0  0  0
  182.0640  181.4780  138.7140 O   0  0  0  0  0  0  0  0  0  0  0  0
  182.4160  179.1160  138.2400 N   0  0  0  0  0  2  0  0  0  0  0  0
  184.0990  180.5000  139.0930 O   0  0  0  0  0  1  0  0  0  0  0  0
  182.9030  180.3720  138.7210 C   0  0  0  0  0  0  0  0  0  0  0  0
  184.8000  179.4350  144.6800 C   0  0  0  0  0  2  0  0  0  0  0  0
  184.8850  178.3560  145.7540 C   0  0  0  0  0  2  0  0  0  0  0  0
  186.8560  177.8880  147.2140 C   0  0  0  0  0  1  0  0  0  0  0  0
  185.6860  178.8200  146.9640 C   0  0  0  0  0  2  0  0  0  0  0  0
  1  2  1  0  0  0  0
  1  3  2  0  0  0  0
  2  8  1  0  0  0  0
  3  9  1  0  0  0  0
  3  4  1  0  0  0  0
  4 29  1  0  0  0  0
  6  7  2  0  0  0  0
  6  2  1  0  0  0  0
  8  4  2  0  0  0  0
  8  5  1  0  0  0  0
  9 12  1  0  0  0  0
 10 15  1  0  0  0  0
 10  9  2  0  0  0  0
 11 18  1  0  0  0  0
 12 16  2  0  0  0  0
 13 17  1  0  0  0  0
 14 13  1  0  0  0  0
 14 16  1  0  0  0  0
 15 14  2  0  0  0  0
 16 18  1  0  0  0  0
 17 11  1  0  0  0  0
 19  6  1  0  0  0  0
 20 19  1  0  0  0  0
 21 20  1  0  0  0  0
 22 23  1  0  0  0  0
 22 21  1  0  0  0  0
 23 24  1  0  0  0  0
 23 21  2  0  0  0  0
 25 28  2  0  0  0  0
 26 20  1  0  0  0  0
 26 28  1  0  0  0  0
 28 27  1  0  0  0  0
 29 30  1  0  0  0  0
 30 32  1  0  0  0  0
 32 31  1  0  0  0  0
M  END
>  <MODEL>
6

>  <REMARK>
 VINA RESULT:      -8.4      2.649      6.180
  Name = 
  8 active torsions:
  status: ('A' for Active; 'I' for Inactive)
    1  A    between atoms: C_2  and  C_5
    2  A    between atoms: C_3  and  N_20
    3  A    between atoms: C_13  and  C_18
    4  A    between atoms: C_13  and  C_29
    5  A    between atoms: C_14  and  C_18
    6  A    between atoms: N_15  and  N_20
    7  A    between atoms: C_16  and  N_20
    8  A    between atoms: C_16  and  C_24
                            x       y       z     vdW  Elec       q    Type
                         _______ _______ _______ _____ _____    ______ ____

>  <TORSDO>
F 8

$$$$
=
 OpenBabel10262421173D

 32 35  0  0  0  0  0  0  0  0999 V2000
  186.2020  178.6480  143.0070 N   0  0  0  0  0  0  0  0  0  0  0  0
  185.7410  178.5970  144.2480 N   0  0  0  0  0  0  0  0  0  0  0  0
  187.3770  177.9840  142.9630 C   0  0  0  0  0  0  0  0  0  0  0  0
  187.6700  177.5030  144.2340 C   0  0  0  0  0  0  0  0  0  0  0  0
  186.4480  177.6260  146.4770 C   0  0  0  0  0  1  0  0  0  0  0  0
  184.4980  179.2010  144.6460 C   0  0  0  0  0  0  0  0  0  0  0  0
  184.1270  179.1770  145.8500 O   0  0  0  0  0  0  0  0  0  0  0  0
  186.6100  177.9070  145.0180 C   0  0  0  0  0  0  0  0  0  0  0  0
  188.1750  177.8420  141.7260 C   0  0  0  0  0  0  0  0  0  0  0  0
  189.5240  177.4560  141.7660 C   0  0  0  0  0  3  0  0  0  0  0  0
  188.6800  178.6430  136.9150 C   0  0  0  0  0  2  0  0  0  0  0  0
  187.5800  178.1110  140.4850 C   0  0  0  0  0  3  0  0  0  0  0  0
  190.4160  177.5030  138.1760 O   0  0  0  0  0  0  0  0  0  0  0  0
  189.6670  177.6030  139.3550 C   0  0  0  0  0  0  0  0  0  0  0  0
  190.2670  177.3370  140.5870 C   0  0  0  0  0  3  0  0  0  0  0  0
  188.3190  178.0030  139.3040 C   0  0  0  0  0  0  0  0  0  0  0  0
  189.8060  177.6090  136.8880 C   0  0  0  0  0  2  0  0  0  0  0  0
  187.6550  178.2530  137.9820 C   0  0  0  0  0  2  0  0  0  0  0  0
  183.6080  179.8280  143.6230 C   0  0  0  0  0  2  0  0  0  0  0  0
  182.8820  178.7990  142.8960 N   0  0  0  0  0  0  0  0  0  0  0  0
  183.2810  178.4740  141.5600 C   0  0  0  0  0  0  0  0  0  0  0  0
  183.3510  177.5620  140.5030 C   0  0  0  0  0  2  0  0  0  0  0  0
  183.9020  178.8300  140.3040 C   0  0  0  0  0  0  0  0  0  0  0  0
  184.5570  179.7530  139.5000 O   0  0  0  0  0  1  0  0  0  0  0  0
  179.4650  178.4490  144.3630 O   0  0  0  0  0  1  0  0  0  0  0  0
  181.7250  178.2520  143.4770 N   0  0  0  0  0  2  0  0  0  0  0  0
  180.2090  179.8690  142.7280 O   0  0  0  0  0  0  0  0  0  0  0  0
  180.4570  178.9130  143.5080 C   0  0  0  0  0  0  0  0  0  0  0  0
  188.8440  176.6890  144.6790 C   0  0  0  0  0  2  0  0  0  0  0  0
  189.9030  177.5600  145.3470 C   0  0  0  0  0  2  0  0  0  0  0  0
  191.6810  176.3780  146.6410 C   0  0  0  0  0  1  0  0  0  0  0  0
  191.2860  176.9250  145.2830 C   0  0  0  0  0  2  0  0  0  0  0  0
  1  2  1  0  0  0  0
  2  6  1  0  0  0  0
  2  8  1  0  0  0  0
  3  1  2  0  0  0  0
  3  4  1  0  0  0  0
  4 29  1  0  0  0  0
  4  8  2  0  0  0  0
  6  7  2  0  0  0  0
  8  5  1  0  0  0  0
  9 10  1  0  0  0  0
  9  3  1  0  0  0  0
 11 18  1  0  0  0  0
 12  9  2  0  0  0  0
 13 14  1  0  0  0  0
 14 15  1  0  0  0  0
 15 10  2  0  0  0  0
 16 14  2  0  0  0  0
 16 12  1  0  0  0  0
 17 11  1  0  0  0  0
 17 13  1  0  0  0  0
 18 16  1  0  0  0  0
 19  6  1  0  0  0  0
 20 26  1  0  0  0  0
 20 19  1  0  0  0  0
 21 20  1  0  0  0  0
 22 21  1  0  0  0  0
 23 22  1  0  0  0  0
 23 21  2  0  0  0  0
 24 23  1  0  0  0  0
 26 28  1  0  0  0  0
 27 28  2  0  0  0  0
 28 25  1  0  0  0  0
 29 30  1  0  0  0  0
 32 30  1  0  0  0  0
 32 31  1  0  0  0  0
M  END
>  <MODEL>
7

>  <REMARK>
 VINA RESULT:      -8.2      2.241      6.745
  Name = 
  8 active torsions:
  status: ('A' for Active; 'I' for Inactive)
    1  A    between atoms: C_2  and  C_5
    2  A    between atoms: C_3  and  N_20
    3  A    between atoms: C_13  and  C_18
    4  A    between atoms: C_13  and  C_29
    5  A    between atoms: C_14  and  C_18
    6  A    between atoms: N_15  and  N_20
    7  A    between atoms: C_16  and  N_20
    8  A    between atoms: C_16  and  C_24
                            x       y       z     vdW  Elec       q    Type
                         _______ _______ _______ _____ _____    ______ ____

>  <TORSDO>
F 8

$$$$
=
 OpenBabel10262421173D

 32 35  0  0  0  0  0  0  0  0999 V2000
  184.4300  177.8560  141.4070 N   0  0  0  0  0  0  0  0  0  0  0  0
  183.1690  178.1260  141.7100 N   0  0  0  0  0  0  0  0  0  0  0  0
  185.2150  178.3250  142.4020 C   0  0  0  0  0  0  0  0  0  0  0  0
  184.4110  178.9230  143.3660 C   0  0  0  0  0  0  0  0  0  0  0  0
  181.8830  179.2450  143.5820 C   0  0  0  0  0  1  0  0  0  0  0  0
  182.0660  177.7560  140.8640 C   0  0  0  0  0  0  0  0  0  0  0  0
  180.8870  178.0840  141.1640 O   0  0  0  0  0  0  0  0  0  0  0  0
  183.1230  178.7730  142.8950 C   0  0  0  0  0  0  0  0  0  0  0  0
  186.6880  178.1970  142.3930 C   0  0  0  0  0  0  0  0  0  0  0  0
  187.4450  178.5440  141.2640 C   0  0  0  0  0  3  0  0  0  0  0  0
  190.7850  176.4560  144.4480 C   0  0  0  0  0  2  0  0  0  0  0  0
  187.3460  177.7090  143.5310 C   0  0  0  0  0  3  0  0  0  0  0  0
  190.8780  177.7670  142.4050 O   0  0  0  0  0  0  0  0  0  0  0  0
  189.4860  177.9220  142.4060 C   0  0  0  0  0  0  0  0  0  0  0  0
  188.8380  178.4070  141.2690 C   0  0  0  0  0  3  0  0  0  0  0  0
  188.7360  177.5610  143.5400 C   0  0  0  0  0  0  0  0  0  0  0  0
  191.5960  177.4300  143.5930 C   0  0  0  0  0  2  0  0  0  0  0  0
  189.4270  177.0770  144.7810 C   0  0  0  0  0  2  0  0  0  0  0  0
  182.3040  176.9360  139.6380 C   0  0  0  0  0  2  0  0  0  0  0  0
  182.8410  177.7710  138.5750 N   0  0  0  0  0  0  0  0  0  0  0  0
  182.0680  178.8770  138.0990 C   0  0  0  0  0  0  0  0  0  0  0  0
  181.0390  179.3830  137.2980 C   0  0  0  0  0  2  0  0  0  0  0  0
  181.7590  180.2890  138.0800 C   0  0  0  0  0  0  0  0  0  0  0  0
  182.0010  181.5830  138.5200 O   0  0  0  0  0  1  0  0  0  0  0  0
  186.2180  177.8840  136.9840 O   0  0  0  0  0  0  0  0  0  0  0  0
  184.0410  177.3840  137.9560 N   0  0  0  0  0  2  0  0  0  0  0  0
  185.3420  179.2070  138.6340 O   0  0  0  0  0  1  0  0  0  0  0  0
  185.2020  178.2150  137.8710 C   0  0  0  0  0  0  0  0  0  0  0  0
  184.8150  179.5590  144.6580 C   0  0  0  0  0  2  0  0  0  0  0  0
  184.8390  178.5410  145.7940 C   0  0  0  0  0  2  0  0  0  0  0  0
  186.8780  178.0810  147.1600 C   0  0  0  0  0  1  0  0  0  0  0  0
  185.6960  179.0110  146.9620 C   0  0  0  0  0  2  0  0  0  0  0  0
  1  2  1  0  0  0  0
  1  3  2  0  0  0  0
  2  8  1  0  0  0  0
  3  4  1  0  0  0  0
  4 29  1  0  0  0  0
  6  7  2  0  0  0  0
  6  2  1  0  0  0  0
  8  4  2  0  0  0  0
  8  5  1  0  0  0  0
  9  3  1  0  0  0  0
  9 12  1  0  0  0  0
 10 15  1  0  0  0  0
 10  9  2  0  0  0  0
 11 18  1  0  0  0  0
 12 16  2  0  0  0  0
 13 14  1  0  0  0  0
 13 17  1  0  0  0  0
 14 16  1  0  0  0  0
 15 14  2  0  0  0  0
 16 18  1  0  0  0  0
 17 11  1  0  0  0  0
 19  6  1  0  0  0  0
 20 19  1  0  0  0  0
 21 20  1  0  0  0  0
 22 23  1  0  0  0  0
 22 21  1  0  0  0  0
 23 21  2  0  0  0  0
 23 24  1  0  0  0  0
 25 28  2  0  0  0  0
 26 20  1  0  0  0  0
 28 26  1  0  0  0  0
 28 27  1  0  0  0  0
 29 30  1  0  0  0  0
 30 32  1  0  0  0  0
 32 31  1  0  0  0  0
M  END
>  <MODEL>
8

>  <REMARK>
 VINA RESULT:      -8.2      2.591      6.714
  Name = 
  8 active torsions:
  status: ('A' for Active; 'I' for Inactive)
    1  A    between atoms: C_2  and  C_5
    2  A    between atoms: C_3  and  N_20
    3  A    between atoms: C_13  and  C_18
    4  A    between atoms: C_13  and  C_29
    5  A    between atoms: C_14  and  C_18
    6  A    between atoms: N_15  and  N_20
    7  A    between atoms: C_16  and  N_20
    8  A    between atoms: C_16  and  C_24
                            x       y       z     vdW  Elec       q    Type
                         _______ _______ _______ _____ _____    ______ ____

>  <TORSDO>
F 8

$$$$
=
 OpenBabel10262421173D

 32 35  0  0  0  0  0  0  0  0999 V2000
  186.0670  177.6250  142.5240 N   0  0  0  0  0  0  0  0  0  0  0  0
  186.4950  177.6840  143.7770 N   0  0  0  0  0  0  0  0  0  0  0  0
  184.8800  178.2660  142.4500 C   0  0  0  0  0  0  0  0  0  0  0  0
  184.5450  178.7400  143.7130 C   0  0  0  0  0  0  0  0  0  0  0  0
  185.7120  178.6410  145.9870 C   0  0  0  0  0  1  0  0  0  0  0  0
  187.7380  177.1050  144.2070 C   0  0  0  0  0  0  0  0  0  0  0  0
  188.0780  177.1360  145.4190 O   0  0  0  0  0  0  0  0  0  0  0  0
  185.5930  178.3570  144.5240 C   0  0  0  0  0  0  0  0  0  0  0  0
  184.1110  178.3920  141.1930 C   0  0  0  0  0  0  0  0  0  0  0  0
  184.4110  179.3850  140.2480 C   0  0  0  0  0  3  0  0  0  0  0  0
  180.1630  177.2290  138.5290 C   0  0  0  0  0  2  0  0  0  0  0  0
  183.0490  177.5100  140.9420 C   0  0  0  0  0  3  0  0  0  0  0  0
  181.8550  178.7370  137.6540 O   0  0  0  0  0  0  0  0  0  0  0  0
  182.6130  178.6130  138.8240 C   0  0  0  0  0  0  0  0  0  0  0  0
  183.6660  179.4960  139.0690 C   0  0  0  0  0  3  0  0  0  0  0  0
  182.2950  177.6210  139.7700 C   0  0  0  0  0  0  0  0  0  0  0  0
  180.8780  177.7610  137.2860 C   0  0  0  0  0  2  0  0  0  0  0  0
  181.1910  176.6430  139.4970 C   0  0  0  0  0  2  0  0  0  0  0  0
  188.6660  176.4960  143.2060 C   0  0  0  0  0  2  0  0  0  0  0  0
  189.3340  177.5400  142.4450 N   0  0  0  0  0  0  0  0  0  0  0  0
  189.2480  177.5270  141.0170 C   0  0  0  0  0  0  0  0  0  0  0  0
  189.7500  177.1260  139.7750 C   0  0  0  0  0  2  0  0  0  0  0  0
  188.5910  177.9060  139.7860 C   0  0  0  0  0  0  0  0  0  0  0  0
  187.5640  178.5570  139.1170 O   0  0  0  0  0  1  0  0  0  0  0  0
  192.0400  178.9760  144.5830 O   0  0  0  0  0  1  0  0  0  0  0  0
  190.1570  178.4510  143.1300 N   0  0  0  0  0  2  0  0  0  0  0  0
  192.0640  177.1020  143.2690 O   0  0  0  0  0  0  0  0  0  0  0  0
  191.4430  178.1230  143.6650 C   0  0  0  0  0  0  0  0  0  0  0  0
  183.3440  179.5310  144.1280 C   0  0  0  0  0  2  0  0  0  0  0  0
  182.1330  178.6290  144.3410 C   0  0  0  0  0  2  0  0  0  0  0  0
  179.6620  178.5120  143.9930 C   0  0  0  0  0  1  0  0  0  0  0  0
  180.9790  178.9970  143.4170 C   0  0  0  0  0  2  0  0  0  0  0  0
  1  2  1  0  0  0  0
  2  6  1  0  0  0  0
  2  8  1  0  0  0  0
  3  1  2  0  0  0  0
  3  4  1  0  0  0  0
  4 29  1  0  0  0  0
  4  8  2  0  0  0  0
  6  7  2  0  0  0  0
  8  5  1  0  0  0  0
  9  3  1  0  0  0  0
 10  9  2  0  0  0  0
 11 18  1  0  0  0  0
 12  9  1  0  0  0  0
 13 14  1  0  0  0  0
 14 15  2  0  0  0  0
 14 16  1  0  0  0  0
 15 10  1  0  0  0  0
 16 12  2  0  0  0  0
 17 13  1  0  0  0  0
 17 11  1  0  0  0  0
 18 16  1  0  0  0  0
 19  6  1  0  0  0  0
 20 26  1  0  0  0  0
 20 19  1  0  0  0  0
 21 20  1  0  0  0  0
 22 23  1  0  0  0  0
 22 21  1  0  0  0  0
 23 21  2  0  0  0  0
 24 23  1  0  0  0  0
 26 28  1  0  0  0  0
 27 28  2  0  0  0  0
 28 25  1  0  0  0  0
 29 30  1  0  0  0  0
 32 31  1  0  0  0  0
 32 30  1  0  0  0  0
M  END
>  <MODEL>
9

>  <REMARK>
 VINA RESULT:      -8.2      2.571      5.200
  Name = 
  8 active torsions:
  status: ('A' for Active; 'I' for Inactive)
    1  A    between atoms: C_2  and  C_5
    2  A    between atoms: C_3  and  N_20
    3  A    between atoms: C_13  and  C_18
    4  A    between atoms: C_13  and  C_29
    5  A    between atoms: C_14  and  C_18
    6  A    between atoms: N_15  and  N_20
    7  A    between atoms: C_16  and  N_20
    8  A    between atoms: C_16  and  C_24
                            x       y       z     vdW  Elec       q    Type
                         _______ _______ _______ _____ _____    ______ ____

>  <TORSDO>
F 8

$$$$
