=
 OpenBabel10262423323D

 34 39  0  0  0  0  0  0  0  0999 V2000
  190.0940  176.9770  137.4830 C   0  0  0  0  0  0  0  0  0  0  0  0
  192.1800  175.2740  134.6560 C   0  0  0  0  0  2  0  0  0  0  0  0
  189.9880  176.5320  134.6660 C   0  0  0  0  0  3  0  0  0  0  0  0
  188.6060  177.7940  139.2890 C   0  0  0  0  0  0  0  0  0  0  0  0
  189.8310  177.0570  138.7970 C   0  0  0  0  0  3  0  0  0  0  0  0
  187.9720  178.1450  136.9830 C   0  0  0  0  0  0  0  0  0  0  0  0
  187.1590  178.2340  135.9230 C   0  0  0  0  0  3  0  0  0  0  0  0
  187.6910  178.2830  138.4150 C   0  0  0  0  0  3  0  0  0  0  0  0
  189.0780  177.2980  135.2650 C   0  0  0  0  0  0  0  0  0  0  0  0
  189.2120  177.6310  136.6040 N   0  0  0  0  0  0  0  0  0  0  0  0
  187.8490  177.7420  134.7910 O   0  0  0  0  0  0  0  0  0  0  0  0
  193.3300  174.6140  135.4060 C   0  0  0  0  0  2  0  0  0  0  0  0
  194.1180  175.6230  136.1140 N   0  0  0  0  0  0  0  0  0  0  0  0
  193.6210  176.1720  137.3780 C   0  0  0  0  0  2  0  0  0  0  0  0
  191.1390  176.0060  135.4780 C   0  0  0  0  0  0  0  0  0  0  0  0
  192.2470  175.6180  137.7360 C   0  0  0  0  0  2  0  0  0  0  0  0
  191.1820  176.1910  136.8460 C   0  0  0  0  0  0  0  0  0  0  0  0
  191.3110  176.9150  142.7240 C   0  0  0  0  0  3  0  0  0  0  0  0
  188.6590  177.6350  143.0570 N   0  0  0  0  0  0  0  0  0  0  0  0
  190.9660  176.7310  146.4080 C   0  0  0  0  0  0  0  0  0  0  0  0
  191.5310  176.6690  145.1270 C   0  0  0  0  0  3  0  0  0  0  0  0
  190.7600  176.9710  144.0030 C   0  0  0  0  0  0  0  0  0  0  0  0
  188.3260  177.9210  140.6900 N   0  0  0  0  0  2  0  0  0  0  0  0
  188.8430  177.4050  145.4290 C   0  0  0  0  0  3  0  0  0  0  0  0
  189.4070  177.3410  144.1530 C   0  0  0  0  0  0  0  0  0  0  0  0
  189.6190  177.1020  146.5520 C   0  0  0  0  0  3  0  0  0  0  0  0
  189.1730  177.5780  141.7970 C   0  0  0  0  0  0  0  0  0  0  0  0
  190.5180  177.2210  141.6170 C   0  0  0  0  0  3  0  0  0  0  0  0
  191.7820  176.4130  147.5910 C   0  0  0  0  0  0  0  0  0  0  0  0
  192.1480  175.2270  147.8140 O   0  0  0  0  0  0  0  0  0  0  0  0
  192.1590  177.4180  148.4730 O   0  0  0  0  0  1  0  0  0  0  0  0
  195.3500  176.1200  135.5570 C   0  0  0  0  0  0  0  0  0  0  0  0
  196.7320  175.2380  135.6160 S   0  0  0  0  0  0  0  0  0  0  0  0
  195.4080  177.4640  134.9120 C   0  0  0  0  0  1  0  0  0  0  0  0
  1  5  2  0  0  0  0
  2 12  1  0  0  0  0
  2 15  1  0  0  0  0
  3  9  2  0  0  0  0
  3 15  1  0  0  0  0
  4 23  1  0  0  0  0
  5  4  1  0  0  0  0
  6  8  1  0  0  0  0
  7  6  2  0  0  0  0
  8  4  2  0  0  0  0
  9 10  1  0  0  0  0
 10  6  1  0  0  0  0
 10  1  1  0  0  0  0
 11  9  1  0  0  0  0
 11  7  1  0  0  0  0
 12 13  1  0  0  0  0
 13 14  1  0  0  0  0
 14 16  1  0  0  0  0
 15 17  2  0  0  0  0
 17  1  1  0  0  0  0
 17 16  1  0  0  0  0
 18 22  1  0  0  0  0
 19 25  1  0  0  0  0
 20 26  1  0  0  0  0
 20 29  1  0  0  0  0
 21 20  2  0  0  0  0
 22 25  2  0  0  0  0
 22 21  1  0  0  0  0
 23 27  1  0  0  0  0
 24 26  2  0  0  0  0
 25 24  1  0  0  0  0
 27 19  2  0  0  0  0
 28 27  1  0  0  0  0
 28 18  2  0  0  0  0
 29 30  2  0  0  0  0
 29 31  1  0  0  0  0
 32 33  2  0  0  0  0
 32 13  1  0  0  0  0
 34 32  1  0  0  0  0
M  END
>  <MODEL>
1

>  <REMARK>
 VINA RESULT:      -9.7      0.000      0.000
  Name = 
  3 active torsions:
  status: ('A' for Active; 'I' for Inactive)
    1  A    between atoms: C_3  and  N_25
    2  A    between atoms: C_7  and  C_11
    3  A    between atoms: C_8  and  N_18
                            x       y       z     vdW  Elec       q    Type
                         _______ _______ _______ _____ _____    ______ ____

>  <TORSDO>
F 3

$$$$
=
 OpenBabel10262423323D

 34 39  0  0  0  0  0  0  0  0999 V2000
  182.8270  178.4260  140.9460 C   0  0  0  0  0  0  0  0  0  0  0  0
  179.4580  177.9420  139.0360 C   0  0  0  0  0  2  0  0  0  0  0  0
  180.0180  178.4390  141.4490 C   0  0  0  0  0  3  0  0  0  0  0  0
  184.9420  178.4330  142.2380 C   0  0  0  0  0  0  0  0  0  0  0  0
  184.1520  178.2030  140.9710 C   0  0  0  0  0  3  0  0  0  0  0  0
  182.8660  178.9440  143.3650 C   0  0  0  0  0  0  0  0  0  0  0  0
  181.9640  178.9480  144.3540 C   0  0  0  0  0  3  0  0  0  0  0  0
  184.3190  178.7510  143.4000 C   0  0  0  0  0  3  0  0  0  0  0  0
  180.8790  178.7750  142.4090 C   0  0  0  0  0  0  0  0  0  0  0  0
  182.2300  178.9090  142.1250 N   0  0  0  0  0  0  0  0  0  0  0  0
  180.6730  178.8880  143.7790 O   0  0  0  0  0  0  0  0  0  0  0  0
  179.8940  177.5580  137.6280 C   0  0  0  0  0  2  0  0  0  0  0  0
  180.6930  178.6300  137.0350 N   0  0  0  0  0  0  0  0  0  0  0  0
  182.0980  178.7820  137.4190 C   0  0  0  0  0  2  0  0  0  0  0  0
  180.5440  178.1690  140.0670 C   0  0  0  0  0  0  0  0  0  0  0  0
  182.5050  177.7790  138.4920 C   0  0  0  0  0  2  0  0  0  0  0  0
  181.9030  178.1310  139.8220 C   0  0  0  0  0  0  0  0  0  0  0  0
  187.4480  177.1570  145.7000 C   0  0  0  0  0  3  0  0  0  0  0  0
  188.5330  177.8950  143.2630 N   0  0  0  0  0  0  0  0  0  0  0  0
  191.0740  176.8640  146.4010 C   0  0  0  0  0  0  0  0  0  0  0  0
  189.6840  176.8370  146.5830 C   0  0  0  0  0  3  0  0  0  0  0  0
  188.8310  177.1830  145.5330 C   0  0  0  0  0  0  0  0  0  0  0  0
  186.3630  178.2350  142.2760 N   0  0  0  0  0  2  0  0  0  0  0  0
  190.7500  177.5860  144.1000 C   0  0  0  0  0  3  0  0  0  0  0  0
  189.3660  177.5600  144.2830 C   0  0  0  0  0  0  0  0  0  0  0  0
  191.6000  177.2390  145.1540 C   0  0  0  0  0  3  0  0  0  0  0  0
  187.1780  177.8860  143.4060 C   0  0  0  0  0  0  0  0  0  0  0  0
  186.6180  177.5080  144.6340 C   0  0  0  0  0  3  0  0  0  0  0  0
  191.9700  176.4980  147.5100 C   0  0  0  0  0  0  0  0  0  0  0  0
  192.0500  177.2290  148.5340 O   0  0  0  0  0  1  0  0  0  0  0  0
  192.7380  175.3420  147.4380 O   0  0  0  0  0  0  0  0  0  0  0  0
  180.1000  179.5690  136.1180 C   0  0  0  0  0  0  0  0  0  0  0  0
  178.9640  179.1000  135.0290 S   0  0  0  0  0  0  0  0  0  0  0  0
  180.5070  181.0040  136.1240 C   0  0  0  0  0  1  0  0  0  0  0  0
  1  5  2  0  0  0  0
  1 10  1  0  0  0  0
  2 15  1  0  0  0  0
  3  9  2  0  0  0  0
  4 23  1  0  0  0  0
  4  8  2  0  0  0  0
  5  4  1  0  0  0  0
  6  8  1  0  0  0  0
  6  7  2  0  0  0  0
  9 11  1  0  0  0  0
 10  9  1  0  0  0  0
 10  6  1  0  0  0  0
 11  7  1  0  0  0  0
 12  2  1  0  0  0  0
 13 14  1  0  0  0  0
 13 12  1  0  0  0  0
 14 16  1  0  0  0  0
 15  3  1  0  0  0  0
 16 17  1  0  0  0  0
 17 15  2  0  0  0  0
 17  1  1  0  0  0  0
 19 27  2  0  0  0  0
 19 25  1  0  0  0  0
 20 21  1  0  0  0  0
 20 29  1  0  0  0  0
 22 18  1  0  0  0  0
 22 21  2  0  0  0  0
 23 27  1  0  0  0  0
 24 25  2  0  0  0  0
 24 26  1  0  0  0  0
 25 22  1  0  0  0  0
 26 20  2  0  0  0  0
 27 28  1  0  0  0  0
 28 18  2  0  0  0  0
 29 30  1  0  0  0  0
 31 29  2  0  0  0  0
 32 34  1  0  0  0  0
 32 13  1  0  0  0  0
 33 32  2  0  0  0  0
M  END
>  <MODEL>
2

>  <REMARK>
 VINA RESULT:      -9.5      6.721      9.026
  Name = 
  3 active torsions:
  status: ('A' for Active; 'I' for Inactive)
    1  A    between atoms: C_3  and  N_25
    2  A    between atoms: C_7  and  C_11
    3  A    between atoms: C_8  and  N_18
                            x       y       z     vdW  Elec       q    Type
                         _______ _______ _______ _____ _____    ______ ____

>  <TORSDO>
F 3

$$$$
=
 OpenBabel10262423323D

 34 39  0  0  0  0  0  0  0  0999 V2000
  189.0300  177.4260  143.0590 C   0  0  0  0  0  0  0  0  0  0  0  0
  192.1940  177.4260  140.7730 C   0  0  0  0  0  2  0  0  0  0  0  0
  191.8680  177.2130  143.2700 C   0  0  0  0  0  3  0  0  0  0  0  0
  187.0770  177.7300  144.5540 C   0  0  0  0  0  0  0  0  0  0  0  0
  187.7380  177.7670  143.1960 C   0  0  0  0  0  3  0  0  0  0  0  0
  189.2190  177.1470  145.5100 C   0  0  0  0  0  0  0  0  0  0  0  0
  190.2220  177.1570  146.3960 C   0  0  0  0  0  3  0  0  0  0  0  0
  187.7990  177.4700  145.6730 C   0  0  0  0  0  3  0  0  0  0  0  0
  191.0950  177.0470  144.3420 C   0  0  0  0  0  0  0  0  0  0  0  0
  189.7150  177.0070  144.2140 N   0  0  0  0  0  0  0  0  0  0  0  0
  191.4420  177.0470  145.6880 O   0  0  0  0  0  0  0  0  0  0  0  0
  191.6350  177.7110  139.3850 C   0  0  0  0  0  2  0  0  0  0  0  0
  190.6950  176.6620  138.9920 N   0  0  0  0  0  0  0  0  0  0  0  0
  189.3340  176.6720  139.5320 C   0  0  0  0  0  2  0  0  0  0  0  0
  191.2150  177.3950  141.9280 C   0  0  0  0  0  0  0  0  0  0  0  0
  189.1280  177.8050  140.5300 C   0  0  0  0  0  2  0  0  0  0  0  0
  189.8440  177.5300  141.8210 C   0  0  0  0  0  0  0  0  0  0  0  0
  183.9920  178.2730  141.3790 C   0  0  0  0  0  3  0  0  0  0  0  0
  183.4760  178.7390  144.0590 N   0  0  0  0  0  0  0  0  0  0  0  0
  180.4780  179.4390  141.2500 C   0  0  0  0  0  0  0  0  0  0  0  0
  181.7340  178.9730  140.8370 C   0  0  0  0  0  3  0  0  0  0  0  0
  182.7400  178.7390  141.7770 C   0  0  0  0  0  0  0  0  0  0  0  0
  185.6890  178.0550  144.7170 N   0  0  0  0  0  2  0  0  0  0  0  0
  181.2440  179.4310  143.5600 C   0  0  0  0  0  3  0  0  0  0  0  0
  182.4950  178.9690  143.1470 C   0  0  0  0  0  0  0  0  0  0  0  0
  180.2390  179.6650  142.6150 C   0  0  0  0  0  3  0  0  0  0  0  0
  184.7100  178.2930  143.6930 C   0  0  0  0  0  0  0  0  0  0  0  0
  184.9800  178.0470  142.3390 C   0  0  0  0  0  3  0  0  0  0  0  0
  179.4200  179.6840  140.2570 C   0  0  0  0  0  0  0  0  0  0  0  0
  178.9480  180.8430  140.0990 O   0  0  0  0  0  1  0  0  0  0  0  0
  178.9310  178.6390  139.4820 O   0  0  0  0  0  0  0  0  0  0  0  0
  191.1080  175.5910  138.1220 C   0  0  0  0  0  0  0  0  0  0  0  0
  190.0140  174.7130  137.2690 S   0  0  0  0  0  0  0  0  0  0  0  0
  192.5500  175.2390  137.9740 C   0  0  0  0  0  1  0  0  0  0  0  0
  1  5  2  0  0  0  0
  1 10  1  0  0  0  0
  2 15  1  0  0  0  0
  3  9  2  0  0  0  0
  4 23  1  0  0  0  0
  4  8  2  0  0  0  0
  5  4  1  0  0  0  0
  6  8  1  0  0  0  0
  6  7  2  0  0  0  0
  9 11  1  0  0  0  0
 10  9  1  0  0  0  0
 10  6  1  0  0  0  0
 11  7  1  0  0  0  0
 12  2  1  0  0  0  0
 13 12  1  0  0  0  0
 13 14  1  0  0  0  0
 14 16  1  0  0  0  0
 15  3  1  0  0  0  0
 16 17  1  0  0  0  0
 17 15  2  0  0  0  0
 17  1  1  0  0  0  0
 18 22  1  0  0  0  0
 18 28  2  0  0  0  0
 20 26  1  0  0  0  0
 21 20  2  0  0  0  0
 21 22  1  0  0  0  0
 22 25  2  0  0  0  0
 25 24  1  0  0  0  0
 25 19  1  0  0  0  0
 26 24  2  0  0  0  0
 27 19  2  0  0  0  0
 27 23  1  0  0  0  0
 28 27  1  0  0  0  0
 29 20  1  0  0  0  0
 30 29  1  0  0  0  0
 31 29  2  0  0  0  0
 32 13  1  0  0  0  0
 33 32  2  0  0  0  0
 34 32  1  0  0  0  0
M  END
>  <MODEL>
3

>  <REMARK>
 VINA RESULT:      -9.3      4.899      8.512
  Name = 
  3 active torsions:
  status: ('A' for Active; 'I' for Inactive)
    1  A    between atoms: C_3  and  N_25
    2  A    between atoms: C_7  and  C_11
    3  A    between atoms: C_8  and  N_18
                            x       y       z     vdW  Elec       q    Type
                         _______ _______ _______ _____ _____    ______ ____

>  <TORSDO>
F 3

$$$$
=
 OpenBabel10262423323D

 34 39  0  0  0  0  0  0  0  0999 V2000
  182.6250  177.2250  138.2730 C   0  0  0  0  0  0  0  0  0  0  0  0
  182.3810  174.7430  135.2690 C   0  0  0  0  0  2  0  0  0  0  0  0
  181.7050  177.1590  135.5720 C   0  0  0  0  0  3  0  0  0  0  0  0
  182.4850  178.7210  140.2440 C   0  0  0  0  0  0  0  0  0  0  0  0
  182.7460  177.3780  139.6020 C   0  0  0  0  0  3  0  0  0  0  0  0
  181.8380  179.5610  138.0710 C   0  0  0  0  0  0  0  0  0  0  0  0
  181.1250  180.2540  137.1750 C   0  0  0  0  0  3  0  0  0  0  0  0
  182.0100  179.7610  139.5140 C   0  0  0  0  0  3  0  0  0  0  0  0
  181.7050  178.3000  136.2600 C   0  0  0  0  0  0  0  0  0  0  0  0
  182.2850  178.3620  137.5180 N   0  0  0  0  0  0  0  0  0  0  0  0
  181.0550  179.4970  135.9830 O   0  0  0  0  0  0  0  0  0  0  0  0
  182.8800  173.4260  135.8500 C   0  0  0  0  0  2  0  0  0  0  0  0
  184.2610  173.5670  136.3120 N   0  0  0  0  0  0  0  0  0  0  0  0
  184.5300  174.2240  137.5940 C   0  0  0  0  0  2  0  0  0  0  0  0
  182.3080  175.9340  136.2020 C   0  0  0  0  0  0  0  0  0  0  0  0
  183.2540  174.7450  138.2440 C   0  0  0  0  0  2  0  0  0  0  0  0
  182.7280  175.9500  137.5180 C   0  0  0  0  0  0  0  0  0  0  0  0
  186.1240  178.0090  142.7230 C   0  0  0  0  0  3  0  0  0  0  0  0
  183.6900  178.7420  143.8180 N   0  0  0  0  0  0  0  0  0  0  0  0
  186.9240  178.0010  146.3400 C   0  0  0  0  0  0  0  0  0  0  0  0
  187.0710  177.8780  144.9510 C   0  0  0  0  0  3  0  0  0  0  0  0
  185.9890  178.1250  144.1050 C   0  0  0  0  0  0  0  0  0  0  0  0
  182.6440  178.9150  141.6560 N   0  0  0  0  0  2  0  0  0  0  0  0
  184.5930  178.6260  146.0280 C   0  0  0  0  0  3  0  0  0  0  0  0
  184.7410  178.5020  144.6450 C   0  0  0  0  0  0  0  0  0  0  0  0
  185.6800  178.3770  146.8720 C   0  0  0  0  0  3  0  0  0  0  0  0
  183.7950  178.6260  142.4650 C   0  0  0  0  0  0  0  0  0  0  0  0
  185.0250  178.2610  141.8990 C   0  0  0  0  0  3  0  0  0  0  0  0
  188.0670  177.7400  147.2290 C   0  0  0  0  0  0  0  0  0  0  0  0
  189.1800  177.3890  146.7530 O   0  0  0  0  0  0  0  0  0  0  0  0
  187.9300  177.8790  148.6050 O   0  0  0  0  0  1  0  0  0  0  0  0
  185.3600  173.1160  135.4980 C   0  0  0  0  0  0  0  0  0  0  0  0
  185.2720  171.7190  134.6410 S   0  0  0  0  0  0  0  0  0  0  0  0
  186.6230  173.9060  135.4140 C   0  0  0  0  0  1  0  0  0  0  0  0
  1  5  2  0  0  0  0
  2 12  1  0  0  0  0
  2 15  1  0  0  0  0
  3 15  1  0  0  0  0
  3  9  2  0  0  0  0
  4 23  1  0  0  0  0
  5  4  1  0  0  0  0
  6  8  1  0  0  0  0
  7  6  2  0  0  0  0
  8  4  2  0  0  0  0
  9 10  1  0  0  0  0
 10  6  1  0  0  0  0
 10  1  1  0  0  0  0
 11  9  1  0  0  0  0
 11  7  1  0  0  0  0
 12 13  1  0  0  0  0
 13 14  1  0  0  0  0
 14 16  1  0  0  0  0
 15 17  2  0  0  0  0
 17 16  1  0  0  0  0
 17  1  1  0  0  0  0
 18 22  1  0  0  0  0
 19 25  1  0  0  0  0
 20 26  1  0  0  0  0
 20 29  1  0  0  0  0
 21 20  2  0  0  0  0
 22 25  2  0  0  0  0
 22 21  1  0  0  0  0
 23 27  1  0  0  0  0
 24 26  2  0  0  0  0
 25 24  1  0  0  0  0
 27 19  2  0  0  0  0
 28 27  1  0  0  0  0
 28 18  2  0  0  0  0
 29 31  1  0  0  0  0
 30 29  2  0  0  0  0
 32 13  1  0  0  0  0
 33 32  2  0  0  0  0
 34 32  1  0  0  0  0
M  END
>  <MODEL>
4

>  <REMARK>
 VINA RESULT:      -8.7      5.744      7.247
  Name = 
  3 active torsions:
  status: ('A' for Active; 'I' for Inactive)
    1  A    between atoms: C_3  and  N_25
    2  A    between atoms: C_7  and  C_11
    3  A    between atoms: C_8  and  N_18
                            x       y       z     vdW  Elec       q    Type
                         _______ _______ _______ _____ _____    ______ ____

>  <TORSDO>
F 3

$$$$
=
 OpenBabel10262423323D

 34 39  0  0  0  0  0  0  0  0999 V2000
  184.9490  178.5320  142.7420 C   0  0  0  0  0  0  0  0  0  0  0  0
  181.0770  178.7130  142.2730 C   0  0  0  0  0  2  0  0  0  0  0  0
  182.5730  178.7380  144.3090 C   0  0  0  0  0  3  0  0  0  0  0  0
  187.3670  178.1120  143.0850 C   0  0  0  0  0  0  0  0  0  0  0  0
  186.1330  178.1780  142.2160 C   0  0  0  0  0  3  0  0  0  0  0  0
  185.9730  178.6290  144.9910 C   0  0  0  0  0  0  0  0  0  0  0  0
  185.5200  178.5560  146.2490 C   0  0  0  0  0  3  0  0  0  0  0  0
  187.2830  178.2900  144.4280 C   0  0  0  0  0  3  0  0  0  0  0  0
  183.7720  178.8210  144.8830 C   0  0  0  0  0  0  0  0  0  0  0  0
  184.9210  178.8660  144.1080 N   0  0  0  0  0  0  0  0  0  0  0  0
  184.1160  178.7210  146.2270 O   0  0  0  0  0  0  0  0  0  0  0  0
  180.8880  178.5300  140.7720 C   0  0  0  0  0  2  0  0  0  0  0  0
  181.5620  179.6020  140.0420 N   0  0  0  0  0  0  0  0  0  0  0  0
  183.0150  179.5480  139.8560 C   0  0  0  0  0  2  0  0  0  0  0  0
  182.4920  178.6540  142.8100 C   0  0  0  0  0  0  0  0  0  0  0  0
  183.6320  178.3430  140.5560 C   0  0  0  0  0  2  0  0  0  0  0  0
  183.6360  178.5240  142.0470 C   0  0  0  0  0  0  0  0  0  0  0  0
  188.4510  177.5190  138.8000 C   0  0  0  0  0  3  0  0  0  0  0  0
  190.2310  177.0590  140.8690 N   0  0  0  0  0  0  0  0  0  0  0  0
  191.4220  176.3130  136.9450 C   0  0  0  0  0  0  0  0  0  0  0  0
  190.1310  176.7910  137.2100 C   0  0  0  0  0  3  0  0  0  0  0  0
  189.7300  177.0410  138.5240 C   0  0  0  0  0  0  0  0  0  0  0  0
  188.6480  177.7720  142.5370 N   0  0  0  0  0  2  0  0  0  0  0  0
  191.9110  176.3390  139.3290 C   0  0  0  0  0  3  0  0  0  0  0  0
  190.6250  176.8140  139.5910 C   0  0  0  0  0  0  0  0  0  0  0  0
  192.3080  176.0900  138.0110 C   0  0  0  0  0  3  0  0  0  0  0  0
  188.9830  177.5180  141.1630 C   0  0  0  0  0  0  0  0  0  0  0  0
  188.0750  177.7610  140.1220 C   0  0  0  0  0  3  0  0  0  0  0  0
  191.8410  176.0510  135.5590 C   0  0  0  0  0  0  0  0  0  0  0  0
  191.2100  176.5580  134.5940 O   0  0  0  0  0  0  0  0  0  0  0  0
  192.9400  175.2390  135.3010 O   0  0  0  0  0  1  0  0  0  0  0  0
  180.8240  180.7370  139.5500 C   0  0  0  0  0  0  0  0  0  0  0  0
  179.3970  181.1860  140.2260 S   0  0  0  0  0  0  0  0  0  0  0  0
  181.3320  181.5390  138.3990 C   0  0  0  0  0  1  0  0  0  0  0  0
  1 10  1  0  0  0  0
  2 15  1  0  0  0  0
  3  9  2  0  0  0  0
  4  8  2  0  0  0  0
  5  1  2  0  0  0  0
  5  4  1  0  0  0  0
  6  7  2  0  0  0  0
  8  6  1  0  0  0  0
  9 11  1  0  0  0  0
 10  9  1  0  0  0  0
 10  6  1  0  0  0  0
 11  7  1  0  0  0  0
 12  2  1  0  0  0  0
 13 12  1  0  0  0  0
 14 13  1  0  0  0  0
 14 16  1  0  0  0  0
 15  3  1  0  0  0  0
 16 17  1  0  0  0  0
 17  1  1  0  0  0  0
 17 15  2  0  0  0  0
 18 28  2  0  0  0  0
 19 27  2  0  0  0  0
 20 21  2  0  0  0  0
 20 26  1  0  0  0  0
 21 22  1  0  0  0  0
 22 18  1  0  0  0  0
 22 25  2  0  0  0  0
 23  4  1  0  0  0  0
 24 25  1  0  0  0  0
 25 19  1  0  0  0  0
 26 24  2  0  0  0  0
 27 23  1  0  0  0  0
 28 27  1  0  0  0  0
 29 20  1  0  0  0  0
 30 29  2  0  0  0  0
 31 29  1  0  0  0  0
 32 13  1  0  0  0  0
 32 33  2  0  0  0  0
 34 32  1  0  0  0  0
M  END
>  <MODEL>
5

>  <REMARK>
 VINA RESULT:      -8.6      5.484     10.220
  Name = 
  3 active torsions:
  status: ('A' for Active; 'I' for Inactive)
    1  A    between atoms: C_3  and  N_25
    2  A    between atoms: C_7  and  C_11
    3  A    between atoms: C_8  and  N_18
                            x       y       z     vdW  Elec       q    Type
                         _______ _______ _______ _____ _____    ______ ____

>  <TORSDO>
F 3

$$$$
=
 OpenBabel10262423323D

 34 39  0  0  0  0  0  0  0  0999 V2000
  186.2990  177.4670  137.4350 C   0  0  0  0  0  0  0  0  0  0  0  0
  183.6940  176.8480  134.5940 C   0  0  0  0  0  2  0  0  0  0  0  0
  186.1970  177.1910  134.5960 C   0  0  0  0  0  3  0  0  0  0  0  0
  187.9220  178.1640  139.1730 C   0  0  0  0  0  0  0  0  0  0  0  0
  186.5170  177.8810  138.6940 C   0  0  0  0  0  3  0  0  0  0  0  0
  188.7080  177.7150  136.9320 C   0  0  0  0  0  0  0  0  0  0  0  0
  189.4390  177.8760  135.8220 C   0  0  0  0  0  3  0  0  0  0  0  0
  188.9710  178.1230  138.3150 C   0  0  0  0  0  3  0  0  0  0  0  0
  187.3670  177.2910  135.2250 C   0  0  0  0  0  0  0  0  0  0  0  0
  187.4230  177.2800  136.6110 N   0  0  0  0  0  0  0  0  0  0  0  0
  188.6270  177.5680  134.7060 O   0  0  0  0  0  0  0  0  0  0  0  0
  182.3570  176.8490  135.3250 C   0  0  0  0  0  2  0  0  0  0  0  0
  182.3230  175.7780  136.3200 N   0  0  0  0  0  0  0  0  0  0  0  0
  183.0130  175.9590  137.6000 C   0  0  0  0  0  2  0  0  0  0  0  0
  184.9400  177.1060  135.4160 C   0  0  0  0  0  0  0  0  0  0  0  0
  183.7560  177.2880  137.6620 C   0  0  0  0  0  2  0  0  0  0  0  0
  184.9770  177.2680  136.7870 C   0  0  0  0  0  0  0  0  0  0  0  0
  190.5550  176.1890  142.1830 C   0  0  0  0  0  3  0  0  0  0  0  0
  188.9720  178.3780  142.7900 N   0  0  0  0  0  0  0  0  0  0  0  0
  191.2560  176.6130  145.7960 C   0  0  0  0  0  0  0  0  0  0  0  0
  191.2910  176.0990  144.4920 C   0  0  0  0  0  3  0  0  0  0  0  0
  190.5260  176.6890  143.4830 C   0  0  0  0  0  0  0  0  0  0  0  0
  188.1800  178.5710  140.5240 N   0  0  0  0  0  2  0  0  0  0  0  0
  189.6800  178.3200  145.0720 C   0  0  0  0  0  3  0  0  0  0  0  0
  189.7150  177.8060  143.7740 C   0  0  0  0  0  0  0  0  0  0  0  0
  190.4470  177.7260  146.0790 C   0  0  0  0  0  3  0  0  0  0  0  0
  188.9770  177.9020  141.5130 C   0  0  0  0  0  0  0  0  0  0  0  0
  189.7800  176.7970  141.1940 C   0  0  0  0  0  3  0  0  0  0  0  0
  192.0640  175.9890  146.8560 C   0  0  0  0  0  0  0  0  0  0  0  0
  192.6200  174.8750  146.6630 O   0  0  0  0  0  0  0  0  0  0  0  0
  192.2210  176.6250  148.0820 O   0  0  0  0  0  1  0  0  0  0  0  0
  181.6640  174.5290  136.0370 C   0  0  0  0  0  0  0  0  0  0  0  0
  180.0280  174.4130  136.0090 S   0  0  0  0  0  0  0  0  0  0  0  0
  182.4550  173.2930  135.7650 C   0  0  0  0  0  1  0  0  0  0  0  0
  1  5  2  0  0  0  0
  2 12  1  0  0  0  0
  2 15  1  0  0  0  0
  3  9  2  0  0  0  0
  3 15  1  0  0  0  0
  4 23  1  0  0  0  0
  5  4  1  0  0  0  0
  6  8  1  0  0  0  0
  7  6  2  0  0  0  0
  8  4  2  0  0  0  0
  9 10  1  0  0  0  0
 10  6  1  0  0  0  0
 10  1  1  0  0  0  0
 11  9  1  0  0  0  0
 11  7  1  0  0  0  0
 12 13  1  0  0  0  0
 13 14  1  0  0  0  0
 14 16  1  0  0  0  0
 15 17  2  0  0  0  0
 17  1  1  0  0  0  0
 17 16  1  0  0  0  0
 18 22  1  0  0  0  0
 19 25  1  0  0  0  0
 20 26  1  0  0  0  0
 20 29  1  0  0  0  0
 21 20  2  0  0  0  0
 22 25  2  0  0  0  0
 22 21  1  0  0  0  0
 23 27  1  0  0  0  0
 24 26  2  0  0  0  0
 25 24  1  0  0  0  0
 27 19  2  0  0  0  0
 28 27  1  0  0  0  0
 28 18  2  0  0  0  0
 29 31  1  0  0  0  0
 30 29  2  0  0  0  0
 32 13  1  0  0  0  0
 33 32  2  0  0  0  0
 34 32  1  0  0  0  0
M  END
>  <MODEL>
6

>  <REMARK>
 VINA RESULT:      -8.3      4.005      6.255
  Name = 
  3 active torsions:
  status: ('A' for Active; 'I' for Inactive)
    1  A    between atoms: C_3  and  N_25
    2  A    between atoms: C_7  and  C_11
    3  A    between atoms: C_8  and  N_18
                            x       y       z     vdW  Elec       q    Type
                         _______ _______ _______ _____ _____    ______ ____

>  <TORSDO>
F 3

$$$$
=
 OpenBabel10262423323D

 34 39  0  0  0  0  0  0  0  0999 V2000
  189.7160  176.8170  137.7030 C   0  0  0  0  0  0  0  0  0  0  0  0
  187.4180  177.3760  134.5970 C   0  0  0  0  0  2  0  0  0  0  0  0
  189.8350  176.6860  134.8550 C   0  0  0  0  0  3  0  0  0  0  0  0
  191.2740  176.7540  139.6290 C   0  0  0  0  0  0  0  0  0  0  0  0
  189.9370  177.0720  139.0030 C   0  0  0  0  0  3  0  0  0  0  0  0
  192.0670  176.0920  137.4430 C   0  0  0  0  0  0  0  0  0  0  0  0
  192.9220  175.9780  136.4200 C   0  0  0  0  0  3  0  0  0  0  0  0
  192.3120  176.3200  138.8710 C   0  0  0  0  0  3  0  0  0  0  0  0
  190.8700  176.2910  135.5940 C   0  0  0  0  0  0  0  0  0  0  0  0
  190.7600  176.2180  136.9750 N   0  0  0  0  0  0  0  0  0  0  0  0
  192.1860  176.0540  135.2150 O   0  0  0  0  0  0  0  0  0  0  0  0
  186.1180  177.8920  135.2000 C   0  0  0  0  0  2  0  0  0  0  0  0
  185.5500  176.8970  136.1090 N   0  0  0  0  0  0  0  0  0  0  0  0
  186.1060  176.7490  137.4570 C   0  0  0  0  0  2  0  0  0  0  0  0
  188.5630  177.0890  135.5470 C   0  0  0  0  0  0  0  0  0  0  0  0
  187.3020  177.6660  137.6810 C   0  0  0  0  0  2  0  0  0  0  0  0
  188.5060  177.1840  136.9230 C   0  0  0  0  0  0  0  0  0  0  0  0
  188.3060  176.8710  142.9560 C   0  0  0  0  0  3  0  0  0  0  0  0
  190.9850  177.4620  143.3230 N   0  0  0  0  0  0  0  0  0  0  0  0
  188.3660  177.7630  146.5510 C   0  0  0  0  0  0  0  0  0  0  0  0
  187.8900  177.3680  145.2930 C   0  0  0  0  0  3  0  0  0  0  0  0
  188.7660  177.2670  144.2100 C   0  0  0  0  0  0  0  0  0  0  0  0
  191.5190  176.9850  141.0240 N   0  0  0  0  0  2  0  0  0  0  0  0
  190.6110  177.9550  145.6310 C   0  0  0  0  0  3  0  0  0  0  0  0
  190.1360  177.5620  144.3790 C   0  0  0  0  0  0  0  0  0  0  0  0
  189.7300  178.0550  146.7130 C   0  0  0  0  0  3  0  0  0  0  0  0
  190.5570  177.0870  142.0850 C   0  0  0  0  0  0  0  0  0  0  0  0
  189.2030  176.7790  141.8900 C   0  0  0  0  0  3  0  0  0  0  0  0
  187.4400  177.8690  147.6900 C   0  0  0  0  0  0  0  0  0  0  0  0
  186.2690  178.3030  147.5230 O   0  0  0  0  0  0  0  0  0  0  0  0
  187.8500  177.4880  148.9620 O   0  0  0  0  0  1  0  0  0  0  0  0
  184.4880  176.0260  135.6780 C   0  0  0  0  0  0  0  0  0  0  0  0
  183.0780  176.6240  135.0900 S   0  0  0  0  0  0  0  0  0  0  0  0
  184.6350  174.5440  135.7600 C   0  0  0  0  0  1  0  0  0  0  0  0
  1  5  2  0  0  0  0
  2 12  1  0  0  0  0
  2 15  1  0  0  0  0
  3 15  1  0  0  0  0
  3  9  2  0  0  0  0
  4 23  1  0  0  0  0
  5  4  1  0  0  0  0
  6  8  1  0  0  0  0
  7  6  2  0  0  0  0
  8  4  2  0  0  0  0
  9 10  1  0  0  0  0
 10  6  1  0  0  0  0
 10  1  1  0  0  0  0
 11  9  1  0  0  0  0
 11  7  1  0  0  0  0
 12 13  1  0  0  0  0
 13 14  1  0  0  0  0
 14 16  1  0  0  0  0
 15 17  2  0  0  0  0
 17 16  1  0  0  0  0
 17  1  1  0  0  0  0
 18 22  1  0  0  0  0
 19 25  1  0  0  0  0
 20 26  1  0  0  0  0
 20 29  1  0  0  0  0
 21 20  2  0  0  0  0
 22 25  2  0  0  0  0
 22 21  1  0  0  0  0
 23 27  1  0  0  0  0
 24 26  2  0  0  0  0
 25 24  1  0  0  0  0
 27 19  2  0  0  0  0
 28 27  1  0  0  0  0
 28 18  2  0  0  0  0
 29 31  1  0  0  0  0
 30 29  2  0  0  0  0
 32 34  1  0  0  0  0
 32 13  1  0  0  0  0
 33 32  2  0  0  0  0
M  END
>  <MODEL>
7

>  <REMARK>
 VINA RESULT:      -8.2      3.297      5.335
  Name = 
  3 active torsions:
  status: ('A' for Active; 'I' for Inactive)
    1  A    between atoms: C_3  and  N_25
    2  A    between atoms: C_7  and  C_11
    3  A    between atoms: C_8  and  N_18
                            x       y       z     vdW  Elec       q    Type
                         _______ _______ _______ _____ _____    ______ ____

>  <TORSDO>
F 3

$$$$
=
 OpenBabel10262423323D

 34 39  0  0  0  0  0  0  0  0999 V2000
  189.8730  177.2900  139.2250 C   0  0  0  0  0  0  0  0  0  0  0  0
  193.3230  176.3590  137.6510 C   0  0  0  0  0  2  0  0  0  0  0  0
  192.6000  176.9560  139.9980 C   0  0  0  0  0  3  0  0  0  0  0  0
  187.7690  178.1780  140.1860 C   0  0  0  0  0  0  0  0  0  0  0  0
  188.6260  177.7450  139.0200 C   0  0  0  0  0  3  0  0  0  0  0  0
  189.6560  177.7730  141.6410 C   0  0  0  0  0  0  0  0  0  0  0  0
  190.5080  177.9880  142.6510 C   0  0  0  0  0  3  0  0  0  0  0  0
  188.2770  178.2290  141.4420 C   0  0  0  0  0  3  0  0  0  0  0  0
  191.6600  177.1850  140.9130 C   0  0  0  0  0  0  0  0  0  0  0  0
  190.3200  177.2030  140.5550 N   0  0  0  0  0  0  0  0  0  0  0  0
  191.7980  177.5800  142.2390 O   0  0  0  0  0  0  0  0  0  0  0  0
  193.0180  176.2370  136.1630 C   0  0  0  0  0  2  0  0  0  0  0  0
  192.0280  175.1850  135.9330 N   0  0  0  0  0  0  0  0  0  0  0  0
  190.6110  175.4580  136.1920 C   0  0  0  0  0  2  0  0  0  0  0  0
  192.1840  176.7560  138.5670 C   0  0  0  0  0  0  0  0  0  0  0  0
  190.3960  176.8560  136.7580 C   0  0  0  0  0  2  0  0  0  0  0  0
  190.8720  176.9460  138.1800 C   0  0  0  0  0  0  0  0  0  0  0  0
  184.4520  178.2930  143.1650 C   0  0  0  0  0  3  0  0  0  0  0  0
  184.0910  178.9520  140.5010 N   0  0  0  0  0  0  0  0  0  0  0  0
  180.8170  179.0050  143.0790 C   0  0  0  0  0  0  0  0  0  0  0  0
  182.0870  178.6550  143.5610 C   0  0  0  0  0  3  0  0  0  0  0  0
  183.1850  178.6360  142.6980 C   0  0  0  0  0  0  0  0  0  0  0  0
  186.4220  178.6330  139.9920 N   0  0  0  0  0  2  0  0  0  0  0  0
  181.7560  179.3200  140.8570 C   0  0  0  0  0  3  0  0  0  0  0  0
  183.0200  178.9710  141.3370 C   0  0  0  0  0  0  0  0  0  0  0  0
  180.6600  179.3380  141.7240 C   0  0  0  0  0  3  0  0  0  0  0  0
  185.3370  178.6110  140.9320 C   0  0  0  0  0  0  0  0  0  0  0  0
  185.5320  178.2820  142.2810 C   0  0  0  0  0  3  0  0  0  0  0  0
  179.6620  179.0240  143.9920 C   0  0  0  0  0  0  0  0  0  0  0  0
  178.9410  180.0530  144.0870 O   0  0  0  0  0  0  0  0  0  0  0  0
  179.3560  177.9050  144.7570 O   0  0  0  0  0  1  0  0  0  0  0  0
  192.4340  173.8710  135.5070 C   0  0  0  0  0  0  0  0  0  0  0  0
  191.3460  172.6530  135.3390 S   0  0  0  0  0  0  0  0  0  0  0  0
  193.8650  173.5720  135.2100 C   0  0  0  0  0  1  0  0  0  0  0  0
  1 10  1  0  0  0  0
  2 15  1  0  0  0  0
  3  9  2  0  0  0  0
  4  8  2  0  0  0  0
  5  1  2  0  0  0  0
  5  4  1  0  0  0  0
  6  7  2  0  0  0  0
  8  6  1  0  0  0  0
  9 11  1  0  0  0  0
 10  9  1  0  0  0  0
 10  6  1  0  0  0  0
 11  7  1  0  0  0  0
 12  2  1  0  0  0  0
 13 12  1  0  0  0  0
 13 14  1  0  0  0  0
 14 16  1  0  0  0  0
 15  3  1  0  0  0  0
 16 17  1  0  0  0  0
 17 15  2  0  0  0  0
 17  1  1  0  0  0  0
 19 27  2  0  0  0  0
 19 25  1  0  0  0  0
 20 21  1  0  0  0  0
 20 29  1  0  0  0  0
 22 18  1  0  0  0  0
 22 21  2  0  0  0  0
 23  4  1  0  0  0  0
 23 27  1  0  0  0  0
 24 25  2  0  0  0  0
 24 26  1  0  0  0  0
 25 22  1  0  0  0  0
 26 20  2  0  0  0  0
 27 28  1  0  0  0  0
 28 18  2  0  0  0  0
 29 30  2  0  0  0  0
 29 31  1  0  0  0  0
 32 13  1  0  0  0  0
 33 32  2  0  0  0  0
 34 32  1  0  0  0  0
M  END
>  <MODEL>
8

>  <REMARK>
 VINA RESULT:      -8.1      5.156      6.796
  Name = 
  3 active torsions:
  status: ('A' for Active; 'I' for Inactive)
    1  A    between atoms: C_3  and  N_25
    2  A    between atoms: C_7  and  C_11
    3  A    between atoms: C_8  and  N_18
                            x       y       z     vdW  Elec       q    Type
                         _______ _______ _______ _____ _____    ______ ____

>  <TORSDO>
F 3

$$$$
=
 OpenBabel10262423323D

 34 39  0  0  0  0  0  0  0  0999 V2000
  188.9410  177.3730  142.2010 C   0  0  0  0  0  0  0  0  0  0  0  0
  192.5010  177.4730  140.6020 C   0  0  0  0  0  2  0  0  0  0  0  0
  191.6830  177.4300  142.9930 C   0  0  0  0  0  3  0  0  0  0  0  0
  186.7060  177.6190  143.2420 C   0  0  0  0  0  0  0  0  0  0  0  0
  187.6280  177.6070  142.0450 C   0  0  0  0  0  3  0  0  0  0  0  0
  188.6410  177.3060  144.6560 C   0  0  0  0  0  0  0  0  0  0  0  0
  189.4360  177.4760  145.7190 C   0  0  0  0  0  3  0  0  0  0  0  0
  187.1980  177.5140  144.5010 C   0  0  0  0  0  3  0  0  0  0  0  0
  190.7190  177.2820  143.9000 C   0  0  0  0  0  0  0  0  0  0  0  0
  189.4020  177.1090  143.5040 N   0  0  0  0  0  0  0  0  0  0  0  0
  190.7800  177.4200  145.2820 O   0  0  0  0  0  0  0  0  0  0  0  0
  192.2210  177.5960  139.1100 C   0  0  0  0  0  2  0  0  0  0  0  0
  191.4600  176.4400  138.6390 N   0  0  0  0  0  0  0  0  0  0  0  0
  190.0180  176.3710  138.8940 C   0  0  0  0  0  2  0  0  0  0  0  0
  191.3090  177.4460  141.5360 C   0  0  0  0  0  0  0  0  0  0  0  0
  189.5310  177.5570  139.7180 C   0  0  0  0  0  2  0  0  0  0  0  0
  189.9840  177.4500  141.1460 C   0  0  0  0  0  0  0  0  0  0  0  0
  184.5140  179.1040  139.6530 C   0  0  0  0  0  3  0  0  0  0  0  0
  183.2640  178.6320  142.0770 N   0  0  0  0  0  0  0  0  0  0  0  0
  181.0400  180.1440  138.8930 C   0  0  0  0  0  0  0  0  0  0  0  0
  182.4080  179.8800  138.7340 C   0  0  0  0  0  3  0  0  0  0  0  0
  183.1550  179.3730  139.8000 C   0  0  0  0  0  0  0  0  0  0  0  0
  185.2950  177.8310  143.0930 N   0  0  0  0  0  2  0  0  0  0  0  0
  181.1720  179.3860  141.2020 C   0  0  0  0  0  3  0  0  0  0  0  0
  182.5340  179.1250  141.0420 C   0  0  0  0  0  0  0  0  0  0  0  0
  180.4280  179.8940  140.1320 C   0  0  0  0  0  3  0  0  0  0  0  0
  184.5950  178.3690  141.9600 C   0  0  0  0  0  0  0  0  0  0  0  0
  185.2370  178.5990  140.7340 C   0  0  0  0  0  3  0  0  0  0  0  0
  180.2560  180.6770  137.7680 C   0  0  0  0  0  0  0  0  0  0  0  0
  179.5490  181.7100  137.9140 O   0  0  0  0  0  1  0  0  0  0  0  0
  180.2890  180.0460  136.5300 O   0  0  0  0  0  0  0  0  0  0  0  0
  192.1180  175.3440  137.9760 C   0  0  0  0  0  0  0  0  0  0  0  0
  191.2620  174.1660  137.2190 S   0  0  0  0  0  0  0  0  0  0  0  0
  193.6060  175.2420  137.9620 C   0  0  0  0  0  1  0  0  0  0  0  0
  1 10  1  0  0  0  0
  2 15  1  0  0  0  0
  3  9  2  0  0  0  0
  4  8  2  0  0  0  0
  5  1  2  0  0  0  0
  5  4  1  0  0  0  0
  6  7  2  0  0  0  0
  8  6  1  0  0  0  0
  9 11  1  0  0  0  0
 10  9  1  0  0  0  0
 10  6  1  0  0  0  0
 11  7  1  0  0  0  0
 12  2  1  0  0  0  0
 13 14  1  0  0  0  0
 13 12  1  0  0  0  0
 14 16  1  0  0  0  0
 15  3  1  0  0  0  0
 16 17  1  0  0  0  0
 17 15  2  0  0  0  0
 17  1  1  0  0  0  0
 18 22  1  0  0  0  0
 18 28  2  0  0  0  0
 20 26  1  0  0  0  0
 21 20  2  0  0  0  0
 21 22  1  0  0  0  0
 22 25  2  0  0  0  0
 23  4  1  0  0  0  0
 25 24  1  0  0  0  0
 25 19  1  0  0  0  0
 26 24  2  0  0  0  0
 27 19  2  0  0  0  0
 27 23  1  0  0  0  0
 28 27  1  0  0  0  0
 29 30  1  0  0  0  0
 29 20  1  0  0  0  0
 31 29  2  0  0  0  0
 32 13  1  0  0  0  0
 33 32  2  0  0  0  0
 34 32  1  0  0  0  0
M  END
>  <MODEL>
9

>  <REMARK>
 VINA RESULT:      -8.1      4.327      8.513
  Name = 
  3 active torsions:
  status: ('A' for Active; 'I' for Inactive)
    1  A    between atoms: C_3  and  N_25
    2  A    between atoms: C_7  and  C_11
    3  A    between atoms: C_8  and  N_18
                            x       y       z     vdW  Elec       q    Type
                         _______ _______ _______ _____ _____    ______ ____

>  <TORSDO>
F 3

$$$$
