=
 OpenBabel10262422573D

 37 41  0  0  1  0  0  0  0  0999 V2000
  189.2310  178.3790  141.1270 C   0  0  0  0  0  2  0  0  0  0  0  0
  189.0390  177.8270  136.7660 C   0  0  2  0  0  3  0  0  0  0  0  0
  187.9180  177.9290  139.0140 C   0  0  2  0  0  3  0  0  0  0  0  0
  189.7020  176.4370  136.8100 C   0  0  1  0  0  3  0  0  0  0  0  0
  189.0100  178.5360  138.1290 C   0  0  0  0  0  2  0  0  0  0  0  0
  186.5750  178.0230  138.3450 C   0  0  0  0  0  3  0  0  0  0  0  0
  191.4760  176.0150  138.6490 C   0  0  1  0  0  3  0  0  0  0  0  0
  191.1460  176.7660  140.9940 C   0  0  0  0  0  2  0  0  0  0  0  0
  187.6570  177.7860  136.1590 C   0  0  0  0  0  0  0  0  0  0  0  0
  186.4620  177.9200  137.0150 C   0  0  0  0  0  3  0  0  0  0  0  0
  191.5310  177.2040  139.5890 C   0  0  1  0  0  3  0  0  0  0  0  0
  187.5110  177.6620  134.8480 C   0  0  0  0  0  2  0  0  0  0  0  0
  191.1870  176.5280  137.2340 C   0  0  1  0  0  3  0  0  0  0  0  0
  187.8890  178.5350  140.4130 C   0  0  0  0  0  2  0  0  0  0  0  0
  189.6460  176.9150  141.2140 C   0  0  0  0  0  2  0  0  0  0  0  0
  192.8120  176.5270  139.1600 C   0  0  0  0  0  2  0  0  0  0  0  0
  188.8740  175.3970  137.5780 C   0  0  0  0  0  2  0  0  0  0  0  0
  188.7630  173.3830  136.4220 C   0  0  0  0  0  1  0  0  0  0  0  0
  188.0480  174.6250  136.6650 N   0  0  0  0  0  0  0  0  0  0  0  0
  185.5380  174.6810  135.0220 C   0  0  0  0  0  2  0  0  0  0  0  0
  185.6010  174.5770  136.5290 C   0  0  1  0  0  3  0  0  0  0  0  0
  186.1080  173.1520  136.6750 C   0  0  2  0  0  3  0  0  0  0  0  0
  183.8780  172.2600  136.3520 C   0  0  0  0  0  3  0  0  0  0  0  0
  183.9580  172.6320  134.8750 C   0  0  0  0  0  2  0  0  0  0  0  0
  184.8920  172.4830  137.2130 C   0  0  0  0  0  3  0  0  0  0  0  0
  184.1600  174.1400  134.5940 C   0  0  0  0  0  2  0  0  0  0  0  0
  186.8260  174.2790  137.3820 C   0  0  1  0  0  3  0  0  0  0  0  0
  192.1610  175.9480  136.1990 C   0  0  2  0  0  3  0  0  0  0  0  0
  193.2630  173.7250  136.7890 C   0  0  0  0  0  1  0  0  0  0  0  0
  192.0800  174.4160  136.1290 C   0  0  0  0  0  3  0  0  0  0  0  0
  191.9340  173.9420  134.6970 C   0  0  0  0  0  1  0  0  0  0  0  0
  193.5840  176.4990  136.3250 C   0  0  0  0  0  2  0  0  0  0  0  0
  194.2340  176.6650  134.9630 C   0  0  0  0  0  2  0  0  0  0  0  0
  195.7450  176.5570  135.0860 C   0  0  0  0  0  2  0  0  0  0  0  0
  196.1950  175.1300  134.8330 C   0  0  0  0  0  2  0  0  0  0  0  0
  197.6620  175.6330  136.6950 N   0  0  0  0  0  1  0  0  0  0  0  0
  196.9050  174.5750  136.0530 C   0  0  0  0  0  2  0  0  0  0  0  0
  1 15  1  0  0  0  0
  2  4  1  0  0  0  0
  2  5  1  1  0  0  0
  3  5  1  6  0  0  0
  3 14  1  0  0  0  0
  4 13  1  0  0  0  0
  4 17  1  1  0  0  0
  6  3  1  0  0  0  0
  7 16  1  6  0  0  0
  7 11  1  0  0  0  0
  8 15  1  0  0  0  0
  9  2  1  0  0  0  0
  9 10  1  0  0  0  0
 10  6  2  0  0  0  0
 11 16  1  1  0  0  0
 11  8  1  0  0  0  0
 12  9  2  0  0  0  0
 13 28  1  6  0  0  0
 13  7  1  0  0  0  0
 14  1  1  0  0  0  0
 18 19  1  0  0  0  0
 19 17  1  0  0  0  0
 21 20  1  6  0  0  0
 21 22  1  0  0  0  0
 21 27  1  0  0  0  0
 22 25  1  1  0  0  0
 22 27  1  0  0  0  0
 23 25  2  0  0  0  0
 24 23  1  0  0  0  0
 26 24  1  0  0  0  0
 26 20  1  0  0  0  0
 27 19  1  6  0  0  0
 28 32  1  1  0  0  0
 30 28  1  0  0  0  0
 30 29  1  0  0  0  0
 31 30  1  0  0  0  0
 33 34  1  0  0  0  0
 33 32  1  0  0  0  0
 35 34  1  0  0  0  0
 35 37  1  0  0  0  0
 37 36  1  0  0  0  0
M  END
>  <MODEL>
1

>  <REMARK>
 VINA RESULT:      -5.2      0.000      0.000
  Name = 
  10 active torsions:
  status: ('A' for Active; 'I' for Inactive)
    1  A    between atoms: C_1  and  C_5
    2  A    between atoms: C_1  and  C_23
    3  A    between atoms: C_5  and  C_17
    4  A    between atoms: C_10  and  C_14
    5  A    between atoms: C_14  and  N_31
    6  A    between atoms: C_17  and  C_26
    7  A    between atoms: C_26  and  C_33
    8  A    between atoms: C_27  and  C_33
    9  A    between atoms: C_29  and  C_33
   10  A    between atoms: N_31  and  C_37
                            x       y       z     vdW  Elec       q    Type
                         _______ _______ _______ _____ _____    ______ ____

>  <TORSDO>
F 10

$$$$
=
 OpenBabel10262422573D

 37 41  0  0  1  0  0  0  0  0999 V2000
  185.3710  177.5280  138.3710 C   0  0  0  0  0  2  0  0  0  0  0  0
  181.0820  177.1730  137.4520 C   0  0  2  0  0  3  0  0  0  0  0  0
  183.4480  177.6300  136.7330 C   0  0  2  0  0  3  0  0  0  0  0  0
  180.7160  178.4860  138.1720 C   0  0  1  0  0  3  0  0  0  0  0  0
  182.5540  176.7690  137.6290 C   0  0  0  0  0  2  0  0  0  0  0  0
  183.0380  177.5050  135.2930 C   0  0  0  0  0  3  0  0  0  0  0  0
  182.1110  179.1400  140.2530 C   0  0  1  0  0  3  0  0  0  0  0  0
  184.5860  178.9220  140.3010 C   0  0  0  0  0  2  0  0  0  0  0  0
  180.7100  177.1970  135.9890 C   0  0  0  0  0  0  0  0  0  0  0  0
  181.7540  177.3380  134.9560 C   0  0  0  0  0  3  0  0  0  0  0  0
  183.2670  178.1720  140.4190 C   0  0  1  0  0  3  0  0  0  0  0  0
  179.4440  177.0560  135.6250 C   0  0  0  0  0  2  0  0  0  0  0  0
  180.9070  178.3680  139.7030 C   0  0  1  0  0  3  0  0  0  0  0  0
  184.9320  177.3330  136.9210 C   0  0  0  0  0  2  0  0  0  0  0  0
  185.0690  178.9410  138.8570 C   0  0  0  0  0  2  0  0  0  0  0  0
  182.5020  178.6420  141.6340 C   0  0  0  0  0  2  0  0  0  0  0  0
  181.3600  179.7250  137.5350 C   0  0  0  0  0  2  0  0  0  0  0  0
  179.0640  180.0660  137.4180 C   0  0  0  0  0  1  0  0  0  0  0  0
  180.3470  180.7100  137.1940 N   0  0  0  0  0  0  0  0  0  0  0  0
  180.8780  183.4270  136.0370 C   0  0  0  0  0  2  0  0  0  0  0  0
  180.9660  183.0620  137.5020 C   0  0  1  0  0  3  0  0  0  0  0  0
  179.4900  182.9010  137.8240 C   0  0  2  0  0  3  0  0  0  0  0  0
  179.2190  185.2970  138.0740 C   0  0  0  0  0  3  0  0  0  0  0  0
  179.3500  185.4550  136.5630 C   0  0  0  0  0  2  0  0  0  0  0  0
  179.2650  184.0940  138.6840 C   0  0  0  0  0  3  0  0  0  0  0  0
  180.6900  184.9550  135.9690 C   0  0  0  0  0  2  0  0  0  0  0  0
  180.4560  181.7910  138.1670 C   0  0  1  0  0  3  0  0  0  0  0  0
  179.6280  178.6420  140.5070 C   0  0  2  0  0  3  0  0  0  0  0  0
  179.4480  179.3760  142.9420 C   0  0  0  0  0  1  0  0  0  0  0  0
  179.8200  179.7760  141.5230 C   0  0  0  0  0  3  0  0  0  0  0  0
  179.0460  181.0140  141.1130 C   0  0  0  0  0  1  0  0  0  0  0  0
  178.9920  177.3760  141.0880 C   0  0  0  0  0  2  0  0  0  0  0  0
  179.8300  176.1470  140.7820 C   0  0  0  0  0  2  0  0  0  0  0  0
  178.9310  174.9550  140.5000 C   0  0  0  0  0  2  0  0  0  0  0  0
  178.9330  174.6290  139.0180 C   0  0  0  0  0  2  0  0  0  0  0  0
  180.4560  173.7020  137.3770 N   0  0  0  0  0  1  0  0  0  0  0  0
  179.9330  173.5290  138.7200 C   0  0  0  0  0  2  0  0  0  0  0  0
  1 15  1  0  0  0  0
  2  5  1  6  0  0  0
  2  4  1  0  0  0  0
  3  6  1  6  0  0  0
  3 14  1  0  0  0  0
  3  5  1  0  0  0  0
  4 17  1  6  0  0  0
  4 13  1  0  0  0  0
  7 11  1  0  0  0  0
  7 16  1  1  0  0  0
  9  2  1  0  0  0  0
 10  6  2  0  0  0  0
 10  9  1  0  0  0  0
 11  8  1  1  0  0  0
 11 16  1  0  0  0  0
 12  9  2  0  0  0  0
 13  7  1  0  0  0  0
 13 28  1  1  0  0  0
 14  1  1  0  0  0  0
 15  8  1  0  0  0  0
 19 18  1  0  0  0  0
 19 17  1  0  0  0  0
 21 20  1  6  0  0  0
 21 22  1  0  0  0  0
 21 27  1  0  0  0  0
 22 27  1  0  0  0  0
 22 25  1  1  0  0  0
 23 25  2  0  0  0  0
 24 23  1  0  0  0  0
 26 20  1  0  0  0  0
 26 24  1  0  0  0  0
 27 19  1  6  0  0  0
 28 32  1  1  0  0  0
 28 30  1  0  0  0  0
 30 29  1  0  0  0  0
 31 30  1  0  0  0  0
 33 32  1  0  0  0  0
 34 33  1  0  0  0  0
 35 34  1  0  0  0  0
 36 37  1  0  0  0  0
 37 35  1  0  0  0  0
M  END
>  <MODEL>
2

>  <REMARK>
 VINA RESULT:      -5.0      6.823     11.567
  Name = 
  10 active torsions:
  status: ('A' for Active; 'I' for Inactive)
    1  A    between atoms: C_1  and  C_5
    2  A    between atoms: C_1  and  C_23
    3  A    between atoms: C_5  and  C_17
    4  A    between atoms: C_10  and  C_14
    5  A    between atoms: C_14  and  N_31
    6  A    between atoms: C_17  and  C_26
    7  A    between atoms: C_26  and  C_33
    8  A    between atoms: C_27  and  C_33
    9  A    between atoms: C_29  and  C_33
   10  A    between atoms: N_31  and  C_37
                            x       y       z     vdW  Elec       q    Type
                         _______ _______ _______ _____ _____    ______ ____

>  <TORSDO>
F 10

$$$$
=
 OpenBabel10262422573D

 37 41  0  0  1  0  0  0  0  0999 V2000
  181.1990  179.3550  141.2470 C   0  0  0  0  0  2  0  0  0  0  0  0
  182.1490  178.3960  137.0590 C   0  0  2  0  0  3  0  0  0  0  0  0
  180.6300  178.2300  139.0550 C   0  0  2  0  0  3  0  0  0  0  0  0
  183.2670  177.4020  137.4340 C   0  0  1  0  0  3  0  0  0  0  0  0
  181.5690  179.1470  138.2670 C   0  0  0  0  0  2  0  0  0  0  0  0
  179.5260  177.7140  138.1770 C   0  0  0  0  0  3  0  0  0  0  0  0
  184.6400  177.8960  139.5730 C   0  0  1  0  0  3  0  0  0  0  0  0
  183.5660  178.6500  141.6820 C   0  0  0  0  0  2  0  0  0  0  0  0
  181.0470  177.7460  136.2570 C   0  0  0  0  0  0  0  0  0  0  0  0
  179.7410  177.4590  136.8810 C   0  0  0  0  0  3  0  0  0  0  0  0
  184.0400  179.0820  140.3030 C   0  0  1  0  0  3  0  0  0  0  0  0
  181.2380  177.4610  134.9780 C   0  0  0  0  0  2  0  0  0  0  0  0
  184.4820  178.1230  138.0650 C   0  0  1  0  0  3  0  0  0  0  0  0
  180.0810  178.8920  140.3150 C   0  0  0  0  0  2  0  0  0  0  0  0
  182.1120  178.1970  141.6360 C   0  0  0  0  0  2  0  0  0  0  0  0
  185.5420  178.9470  140.1980 C   0  0  0  0  0  2  0  0  0  0  0  0
  182.7560  176.1870  138.2210 C   0  0  0  0  0  2  0  0  0  0  0  0
  183.7330  174.1840  137.5590 C   0  0  0  0  0  1  0  0  0  0  0  0
  182.5810  175.0440  137.3400 N   0  0  0  0  0  0  0  0  0  0  0  0
  180.8600  173.8530  135.1910 C   0  0  0  0  0  2  0  0  0  0  0  0
  180.4880  173.9710  136.6520 C   0  0  1  0  0  3  0  0  0  0  0  0
  181.4050  172.9140  137.2440 C   0  0  2  0  0  3  0  0  0  0  0  0
  179.8650  171.1450  136.6300 C   0  0  0  0  0  3  0  0  0  0  0  0
  180.2560  171.3320  135.1680 C   0  0  0  0  0  2  0  0  0  0  0  0
  180.4120  171.8730  137.6260 C   0  0  0  0  0  3  0  0  0  0  0  0
  179.9750  172.7410  134.5940 C   0  0  0  0  0  2  0  0  0  0  0  0
  181.4110  174.3150  137.8130 C   0  0  1  0  0  3  0  0  0  0  0  0
  185.7950  177.8990  137.3050 C   0  0  2  0  0  3  0  0  0  0  0  0
  186.4400  175.6820  136.2210 C   0  0  0  0  0  1  0  0  0  0  0  0
  185.6130  176.9540  136.1090 C   0  0  0  0  0  3  0  0  0  0  0  0
  185.9220  177.6600  134.8040 C   0  0  0  0  0  1  0  0  0  0  0  0
  186.9730  177.5410  138.2170 C   0  0  0  0  0  2  0  0  0  0  0  0
  188.1940  178.3860  137.8980 C   0  0  0  0  0  2  0  0  0  0  0  0
  189.0910  178.4940  139.1200 C   0  0  0  0  0  2  0  0  0  0  0  0
  188.9300  177.2720  140.0050 C   0  0  0  0  0  2  0  0  0  0  0  0
  188.3170  177.2510  142.3490 N   0  0  0  0  0  1  0  0  0  0  0  0
  189.3820  177.5800  141.4200 C   0  0  0  0  0  2  0  0  0  0  0  0
  1 15  1  0  0  0  0
  2  4  1  0  0  0  0
  2  5  1  1  0  0  0
  3  6  1  6  0  0  0
  3 14  1  0  0  0  0
  4 13  1  0  0  0  0
  4 17  1  1  0  0  0
  5  3  1  0  0  0  0
  7 16  1  6  0  0  0
  7 11  1  0  0  0  0
  9 10  1  0  0  0  0
  9  2  1  0  0  0  0
 10  6  2  0  0  0  0
 11 16  1  1  0  0  0
 11  8  1  0  0  0  0
 12  9  2  0  0  0  0
 13 28  1  6  0  0  0
 13  7  1  0  0  0  0
 14  1  1  0  0  0  0
 15  8  1  0  0  0  0
 19 18  1  0  0  0  0
 19 17  1  0  0  0  0
 21 20  1  6  0  0  0
 21 22  1  0  0  0  0
 21 27  1  0  0  0  0
 22 25  1  1  0  0  0
 22 27  1  0  0  0  0
 23 25  2  0  0  0  0
 24 23  1  0  0  0  0
 26 24  1  0  0  0  0
 26 20  1  0  0  0  0
 27 19  1  6  0  0  0
 28 32  1  1  0  0  0
 30 29  1  0  0  0  0
 30 28  1  0  0  0  0
 31 30  1  0  0  0  0
 33 32  1  0  0  0  0
 33 34  1  0  0  0  0
 34 35  1  0  0  0  0
 35 37  1  0  0  0  0
 37 36  1  0  0  0  0
M  END
>  <MODEL>
3

>  <REMARK>
 VINA RESULT:      -4.7      4.444      6.916
  Name = 
  10 active torsions:
  status: ('A' for Active; 'I' for Inactive)
    1  A    between atoms: C_1  and  C_5
    2  A    between atoms: C_1  and  C_23
    3  A    between atoms: C_5  and  C_17
    4  A    between atoms: C_10  and  C_14
    5  A    between atoms: C_14  and  N_31
    6  A    between atoms: C_17  and  C_26
    7  A    between atoms: C_26  and  C_33
    8  A    between atoms: C_27  and  C_33
    9  A    between atoms: C_29  and  C_33
   10  A    between atoms: N_31  and  C_37
                            x       y       z     vdW  Elec       q    Type
                         _______ _______ _______ _____ _____    ______ ____

>  <TORSDO>
F 10

$$$$
=
 OpenBabel10262422573D

 37 41  0  0  1  0  0  0  0  0999 V2000
  186.3720  172.1700  135.1730 C   0  0  0  0  0  2  0  0  0  0  0  0
  186.6940  176.5580  135.1740 C   0  0  2  0  0  3  0  0  0  0  0  0
  187.7600  174.2820  135.1120 C   0  0  2  0  0  3  0  0  0  0  0  0
  186.3190  176.6870  136.6640 C   0  0  1  0  0  3  0  0  0  0  0  0
  186.5740  175.1250  134.6340 C   0  0  0  0  0  2  0  0  0  0  0  0
  189.0610  174.8990  134.6810 C   0  0  0  0  0  3  0  0  0  0  0  0
  184.6540  174.9560  137.6320 C   0  0  1  0  0  3  0  0  0  0  0  0
  184.8160  172.5340  137.1040 C   0  0  0  0  0  2  0  0  0  0  0  0
  188.0600  177.1270  134.8740 C   0  0  0  0  0  0  0  0  0  0  0  0
  189.2000  176.2280  134.6070 C   0  0  0  0  0  3  0  0  0  0  0  0
  184.3590  173.8920  136.5920 C   0  0  1  0  0  3  0  0  0  0  0  0
  188.2350  178.4390  134.8160 C   0  0  0  0  0  2  0  0  0  0  0  0
  184.8430  176.2980  136.9150 C   0  0  1  0  0  3  0  0  0  0  0  0
  187.6600  172.8250  134.6760 C   0  0  0  0  0  2  0  0  0  0  0  0
  186.2560  172.2570  136.6900 C   0  0  0  0  0  2  0  0  0  0  0  0
  183.2400  174.4290  137.4540 C   0  0  0  0  0  2  0  0  0  0  0  0
  187.3320  176.0160  137.6020 C   0  0  0  0  0  2  0  0  0  0  0  0
  187.7560  178.1790  138.3410 C   0  0  0  0  0  1  0  0  0  0  0  0
  188.4020  176.9390  137.9440 N   0  0  0  0  0  0  0  0  0  0  0  0
  191.3690  176.5700  137.6970 C   0  0  0  0  0  2  0  0  0  0  0  0
  190.5050  176.0310  138.8150 C   0  0  1  0  0  3  0  0  0  0  0  0
  190.1910  177.3210  139.5520 C   0  0  2  0  0  3  0  0  0  0  0  0
  192.3260  177.2610  140.6960 C   0  0  0  0  0  3  0  0  0  0  0  0
  193.0210  177.6310  139.3890 C   0  0  0  0  0  2  0  0  0  0  0  0
  190.9870  177.1280  140.7940 C   0  0  0  0  0  3  0  0  0  0  0  0
  192.8120  176.6230  138.2330 C   0  0  0  0  0  2  0  0  0  0  0  0
  189.0640  176.4070  139.1290 C   0  0  1  0  0  3  0  0  0  0  0  0
  184.0100  177.4170  137.5530 C   0  0  2  0  0  3  0  0  0  0  0  0
  181.5170  177.7290  137.1120 C   0  0  0  0  0  1  0  0  0  0  0  0
  182.9310  177.9460  136.5970 C   0  0  0  0  0  3  0  0  0  0  0  0
  183.0800  177.3380  135.2160 C   0  0  0  0  0  1  0  0  0  0  0  0
  184.8590  178.5080  138.2110 C   0  0  0  0  0  2  0  0  0  0  0  0
  184.1080  179.1800  139.3470 C   0  0  0  0  0  2  0  0  0  0  0  0
  183.9060  178.2030  140.4940 C   0  0  0  0  0  2  0  0  0  0  0  0
  182.4820  178.2830  141.0120 C   0  0  0  0  0  2  0  0  0  0  0  0
  183.7830  178.7400  143.0050 N   0  0  0  0  0  1  0  0  0  0  0  0
  182.4610  178.8550  142.4170 C   0  0  0  0  0  2  0  0  0  0  0  0
  1 15  1  0  0  0  0
  2  5  1  1  0  0  0
  2  4  1  0  0  0  0
  3  5  1  6  0  0  0
  4 13  1  0  0  0  0
  4 17  1  1  0  0  0
  6  3  1  0  0  0  0
  7 16  1  1  0  0  0
  9  2  1  0  0  0  0
 10  6  2  0  0  0  0
 10  9  1  0  0  0  0
 11  8  1  1  0  0  0
 11 16  1  0  0  0  0
 11  7  1  0  0  0  0
 12  9  2  0  0  0  0
 13 28  1  1  0  0  0
 13  7  1  0  0  0  0
 14  3  1  0  0  0  0
 14  1  1  0  0  0  0
 15  8  1  0  0  0  0
 17 19  1  0  0  0  0
 19 18  1  0  0  0  0
 20 26  1  0  0  0  0
 21 20  1  6  0  0  0
 21 27  1  0  0  0  0
 21 22  1  0  0  0  0
 22 25  1  1  0  0  0
 23 25  2  0  0  0  0
 24 23  1  0  0  0  0
 26 24  1  0  0  0  0
 27 19  1  6  0  0  0
 27 22  1  0  0  0  0
 28 32  1  6  0  0  0
 30 29  1  0  0  0  0
 30 28  1  0  0  0  0
 31 30  1  0  0  0  0
 32 33  1  0  0  0  0
 33 34  1  0  0  0  0
 34 35  1  0  0  0  0
 35 37  1  0  0  0  0
 37 36  1  0  0  0  0
M  END
>  <MODEL>
4

>  <REMARK>
 VINA RESULT:      -4.3      2.733      8.668
  Name = 
  10 active torsions:
  status: ('A' for Active; 'I' for Inactive)
    1  A    between atoms: C_1  and  C_5
    2  A    between atoms: C_1  and  C_23
    3  A    between atoms: C_5  and  C_17
    4  A    between atoms: C_10  and  C_14
    5  A    between atoms: C_14  and  N_31
    6  A    between atoms: C_17  and  C_26
    7  A    between atoms: C_26  and  C_33
    8  A    between atoms: C_27  and  C_33
    9  A    between atoms: C_29  and  C_33
   10  A    between atoms: N_31  and  C_37
                            x       y       z     vdW  Elec       q    Type
                         _______ _______ _______ _____ _____    ______ ____

>  <TORSDO>
F 10

$$$$
=
 OpenBabel10262422573D

 37 41  0  0  1  0  0  0  0  0999 V2000
  185.5330  173.0650  136.4650 C   0  0  0  0  0  2  0  0  0  0  0  0
  185.6260  177.4550  136.1930 C   0  0  2  0  0  3  0  0  0  0  0  0
  186.5990  175.2900  137.0190 C   0  0  2  0  0  3  0  0  0  0  0  0
  184.4260  177.6410  137.1430 C   0  0  1  0  0  3  0  0  0  0  0  0
  185.9080  175.9860  135.8430 C   0  0  0  0  0  2  0  0  0  0  0  0
  187.8740  175.9970  137.3840 C   0  0  0  0  0  3  0  0  0  0  0  0
  182.5790  175.8270  137.1070 C   0  0  1  0  0  3  0  0  0  0  0  0
  183.1160  173.4020  137.0390 C   0  0  0  0  0  2  0  0  0  0  0  0
  186.8760  178.1290  136.7070 C   0  0  0  0  0  0  0  0  0  0  0  0
  187.9800  177.3260  137.2670 C   0  0  0  0  0  3  0  0  0  0  0  0
  183.0080  174.6770  136.2160 C   0  0  1  0  0  3  0  0  0  0  0  0
  187.0010  179.4460  136.6250 C   0  0  0  0  0  2  0  0  0  0  0  0
  183.1110  177.1320  136.5060 C   0  0  1  0  0  3  0  0  0  0  0  0
  186.8360  173.8040  136.7660 C   0  0  0  0  0  2  0  0  0  0  0  0
  184.5250  173.2350  137.5950 C   0  0  0  0  0  2  0  0  0  0  0  0
  181.5770  175.1600  136.1800 C   0  0  0  0  0  2  0  0  0  0  0  0
  184.6960  177.1280  138.5640 C   0  0  0  0  0  2  0  0  0  0  0  0
  184.1600  179.3790  138.7850 C   0  0  0  0  0  1  0  0  0  0  0  0
  184.6300  178.2180  139.5230 N   0  0  0  0  0  0  0  0  0  0  0  0
  185.4710  178.3120  142.4010 C   0  0  0  0  0  2  0  0  0  0  0  0
  184.1820  177.7170  141.8800 C   0  0  1  0  0  3  0  0  0  0  0  0
  183.4380  178.9870  141.5030 C   0  0  2  0  0  3  0  0  0  0  0  0
  182.7580  179.3440  143.8020 C   0  0  0  0  0  3  0  0  0  0  0  0
  184.1910  179.7320  144.1510 C   0  0  0  0  0  2  0  0  0  0  0  0
  182.3820  179.0060  142.5510 C   0  0  0  0  0  3  0  0  0  0  0  0
  185.2460  178.6300  143.8920 C   0  0  0  0  0  2  0  0  0  0  0  0
  183.5900  177.8780  140.4870 C   0  0  1  0  0  3  0  0  0  0  0  0
  182.0210  178.2070  136.3990 C   0  0  2  0  0  3  0  0  0  0  0  0
  179.6310  177.6970  137.1270 C   0  0  0  0  0  1  0  0  0  0  0  0
  181.0230  178.1300  137.5620 C   0  0  0  0  0  3  0  0  0  0  0  0
  180.9470  179.4490  138.3060 C   0  0  0  0  0  1  0  0  0  0  0  0
  181.3710  178.2800  135.0140 C   0  0  0  0  0  2  0  0  0  0  0  0
  180.3840  179.4300  134.9280 C   0  0  0  0  0  2  0  0  0  0  0  0
  181.1270  180.7510  134.8000 C   0  0  0  0  0  2  0  0  0  0  0  0
  180.1850  181.9140  135.0510 C   0  0  0  0  0  2  0  0  0  0  0  0
  180.8080  184.2320  135.3790 N   0  0  0  0  0  1  0  0  0  0  0  0
  180.8220  182.9180  135.9930 C   0  0  0  0  0  2  0  0  0  0  0  0
  1 14  1  0  0  0  0
  1 15  1  0  0  0  0
  2  5  1  1  0  0  0
  2  9  1  0  0  0  0
  2  4  1  0  0  0  0
  3  5  1  6  0  0  0
  3  6  1  0  0  0  0
  4 17  1  1  0  0  0
  7 16  1  6  0  0  0
  8 15  1  0  0  0  0
  9 10  1  0  0  0  0
 10  6  2  0  0  0  0
 11 16  1  6  0  0  0
 11  8  1  0  0  0  0
 11  7  1  0  0  0  0
 12  9  2  0  0  0  0
 13 28  1  1  0  0  0
 13  7  1  0  0  0  0
 13  4  1  0  0  0  0
 14  3  1  0  0  0  0
 17 19  1  0  0  0  0
 18 19  1  0  0  0  0
 20 26  1  0  0  0  0
 21 20  1  6  0  0  0
 22 21  1  0  0  0  0
 22 25  1  1  0  0  0
 23 24  1  0  0  0  0
 25 23  2  0  0  0  0
 26 24  1  0  0  0  0
 27 19  1  6  0  0  0
 27 22  1  0  0  0  0
 27 21  1  0  0  0  0
 28 32  1  6  0  0  0
 28 30  1  0  0  0  0
 29 30  1  0  0  0  0
 30 31  1  0  0  0  0
 33 32  1  0  0  0  0
 34 33  1  0  0  0  0
 34 35  1  0  0  0  0
 35 37  1  0  0  0  0
 36 37  1  0  0  0  0
M  END
>  <MODEL>
5

>  <REMARK>
 VINA RESULT:      -4.0      4.678      9.933
  Name = 
  10 active torsions:
  status: ('A' for Active; 'I' for Inactive)
    1  A    between atoms: C_1  and  C_5
    2  A    between atoms: C_1  and  C_23
    3  A    between atoms: C_5  and  C_17
    4  A    between atoms: C_10  and  C_14
    5  A    between atoms: C_14  and  N_31
    6  A    between atoms: C_17  and  C_26
    7  A    between atoms: C_26  and  C_33
    8  A    between atoms: C_27  and  C_33
    9  A    between atoms: C_29  and  C_33
   10  A    between atoms: N_31  and  C_37
                            x       y       z     vdW  Elec       q    Type
                         _______ _______ _______ _____ _____    ______ ____

>  <TORSDO>
F 10

$$$$
=
 OpenBabel10262422573D

 37 41  0  0  1  0  0  0  0  0999 V2000
  189.2530  172.9010  135.9180 C   0  0  0  0  0  2  0  0  0  0  0  0
  188.3070  177.1750  136.3660 C   0  0  2  0  0  3  0  0  0  0  0  0
  189.8550  175.2240  136.7130 C   0  0  2  0  0  3  0  0  0  0  0  0
  187.2460  176.9310  137.4570 C   0  0  1  0  0  3  0  0  0  0  0  0
  188.8620  175.8810  135.7500 C   0  0  0  0  0  2  0  0  0  0  0  0
  190.9750  176.1680  137.0500 C   0  0  0  0  0  3  0  0  0  0  0  0
  185.8730  174.7390  137.3220 C   0  0  1  0  0  3  0  0  0  0  0  0
  186.9300  172.5530  136.7970 C   0  0  0  0  0  2  0  0  0  0  0  0
  189.4320  178.0600  136.8460 C   0  0  0  0  0  0  0  0  0  0  0  0
  190.7590  177.4850  137.1430 C   0  0  0  0  0  3  0  0  0  0  0  0
  186.4190  173.8610  136.2120 C   0  0  1  0  0  3  0  0  0  0  0  0
  189.2430  179.3660  136.9700 C   0  0  0  0  0  2  0  0  0  0  0  0
  186.0030  176.2040  136.8910 C   0  0  1  0  0  3  0  0  0  0  0  0
  190.3830  173.8910  136.1950 C   0  0  0  0  0  2  0  0  0  0  0  0
  188.4050  172.6650  137.1630 C   0  0  0  0  0  2  0  0  0  0  0  0
  184.9260  173.9780  136.4110 C   0  0  0  0  0  2  0  0  0  0  0  0
  187.8280  176.3130  138.7370 C   0  0  0  0  0  2  0  0  0  0  0  0
  187.2560  178.3590  139.6800 C   0  0  0  0  0  1  0  0  0  0  0  0
  188.3030  177.3510  139.6360 N   0  0  0  0  0  0  0  0  0  0  0  0
  191.0340  177.3530  140.8780 C   0  0  0  0  0  2  0  0  0  0  0  0
  189.8330  176.5910  141.3930 C   0  0  1  0  0  3  0  0  0  0  0  0
  189.0030  177.7420  141.9360 C   0  0  2  0  0  3  0  0  0  0  0  0
  190.2970  177.7900  143.9850 C   0  0  0  0  0  3  0  0  0  0  0  0
  191.4690  178.3870  143.2140 C   0  0  0  0  0  2  0  0  0  0  0  0
  189.1180  177.4960  143.3990 C   0  0  0  0  0  3  0  0  0  0  0  0
  192.0080  177.5050  142.0620 C   0  0  0  0  0  2  0  0  0  0  0  0
  188.3820  176.7620  140.9670 C   0  0  1  0  0  3  0  0  0  0  0  0
  184.6940  176.9820  137.0810 C   0  0  2  0  0  3  0  0  0  0  0  0
  182.7650  176.6290  135.4520 C   0  0  0  0  0  1  0  0  0  0  0  0
  184.0590  177.3740  135.7400 C   0  0  0  0  0  3  0  0  0  0  0  0
  185.0350  177.1810  134.5960 C   0  0  0  0  0  1  0  0  0  0  0  0
  184.8110  178.1340  138.0840 C   0  0  0  0  0  2  0  0  0  0  0  0
  183.4430  178.6450  138.4980 C   0  0  0  0  0  2  0  0  0  0  0  0
  182.6340  177.5260  139.1340 C   0  0  0  0  0  2  0  0  0  0  0  0
  183.0710  177.3090  140.5710 C   0  0  0  0  0  2  0  0  0  0  0  0
  184.4290  178.7970  141.9190 N   0  0  0  0  0  1  0  0  0  0  0  0
  183.1200  178.6310  141.3140 C   0  0  0  0  0  2  0  0  0  0  0  0
  1 14  1  0  0  0  0
  1 15  1  0  0  0  0
  2  5  1  1  0  0  0
  2  9  1  0  0  0  0
  2  4  1  0  0  0  0
  3  5  1  6  0  0  0
  3  6  1  0  0  0  0
  4 17  1  1  0  0  0
  6 10  2  0  0  0  0
  7 16  1  6  0  0  0
  8 15  1  0  0  0  0
  9 12  2  0  0  0  0
  9 10  1  0  0  0  0
 11 16  1  6  0  0  0
 11  8  1  0  0  0  0
 11  7  1  0  0  0  0
 13 28  1  1  0  0  0
 13  7  1  0  0  0  0
 13  4  1  0  0  0  0
 14  3  1  0  0  0  0
 17 19  1  0  0  0  0
 19 18  1  0  0  0  0
 20 26  1  0  0  0  0
 21 20  1  6  0  0  0
 21 22  1  0  0  0  0
 22 25  1  1  0  0  0
 24 23  1  0  0  0  0
 25 23  2  0  0  0  0
 26 24  1  0  0  0  0
 27 19  1  6  0  0  0
 27 21  1  0  0  0  0
 27 22  1  0  0  0  0
 28 32  1  1  0  0  0
 29 30  1  0  0  0  0
 30 28  1  0  0  0  0
 31 30  1  0  0  0  0
 32 33  1  0  0  0  0
 33 34  1  0  0  0  0
 34 35  1  0  0  0  0
 35 37  1  0  0  0  0
 37 36  1  0  0  0  0
M  END
>  <MODEL>
6

>  <REMARK>
 VINA RESULT:      -3.8      2.880      8.376
  Name = 
  10 active torsions:
  status: ('A' for Active; 'I' for Inactive)
    1  A    between atoms: C_1  and  C_5
    2  A    between atoms: C_1  and  C_23
    3  A    between atoms: C_5  and  C_17
    4  A    between atoms: C_10  and  C_14
    5  A    between atoms: C_14  and  N_31
    6  A    between atoms: C_17  and  C_26
    7  A    between atoms: C_26  and  C_33
    8  A    between atoms: C_27  and  C_33
    9  A    between atoms: C_29  and  C_33
   10  A    between atoms: N_31  and  C_37
                            x       y       z     vdW  Elec       q    Type
                         _______ _______ _______ _____ _____    ______ ____

>  <TORSDO>
F 10

$$$$
=
 OpenBabel10262422573D

 37 41  0  0  1  0  0  0  0  0999 V2000
  186.0250  179.0430  140.8900 C   0  0  0  0  0  2  0  0  0  0  0  0
  186.5990  177.8510  136.6940 C   0  0  2  0  0  3  0  0  0  0  0  0
  185.1470  178.0510  138.7370 C   0  0  2  0  0  3  0  0  0  0  0  0
  187.4780  176.6360  137.0530 C   0  0  1  0  0  3  0  0  0  0  0  0
  186.2410  178.7260  137.9040 C   0  0  0  0  0  2  0  0  0  0  0  0
  183.9270  177.7860  137.9000 C   0  0  0  0  0  3  0  0  0  0  0  0
  188.9960  176.8330  139.1420 C   0  0  1  0  0  3  0  0  0  0  0  0
  188.1870  177.8310  141.2680 C   0  0  0  0  0  2  0  0  0  0  0  0
  185.3540  177.4550  135.9370 C   0  0  0  0  0  0  0  0  0  0  0  0
  184.0370  177.4750  136.6040 C   0  0  0  0  0  3  0  0  0  0  0  0
  188.7010  178.1320  139.8680 C   0  0  1  0  0  3  0  0  0  0  0  0
  185.4340  177.1210  134.6570 C   0  0  0  0  0  2  0  0  0  0  0  0
  188.8430  177.0730  137.6360 C   0  0  1  0  0  3  0  0  0  0  0  0
  184.8010  178.8330  140.0000 C   0  0  0  0  0  2  0  0  0  0  0  0
  186.6670  177.7150  141.2730 C   0  0  0  0  0  2  0  0  0  0  0  0
  190.1290  177.6620  139.7210 C   0  0  0  0  0  2  0  0  0  0  0  0
  186.7340  175.5750  137.8770 C   0  0  0  0  0  2  0  0  0  0  0  0
  187.3500  173.4670  137.1150 C   0  0  0  0  0  1  0  0  0  0  0  0
  186.3070  174.4750  137.0280 N   0  0  0  0  0  0  0  0  0  0  0  0
  183.9840  174.0890  135.1700 C   0  0  0  0  0  2  0  0  0  0  0  0
  183.9320  173.9830  136.6770 C   0  0  1  0  0  3  0  0  0  0  0  0
  184.6760  172.6730  136.8750 C   0  0  2  0  0  3  0  0  0  0  0  0
  182.6840  171.3910  136.3620 C   0  0  0  0  0  3  0  0  0  0  0  0
  182.8240  171.7870  134.8960 C   0  0  0  0  0  2  0  0  0  0  0  0
  183.5610  171.7870  137.3070 C   0  0  0  0  0  3  0  0  0  0  0  0
  182.7710  173.3100  134.6250 C   0  0  0  0  0  2  0  0  0  0  0  0
  185.1120  173.9040  137.6360 C   0  0  1  0  0  3  0  0  0  0  0  0
  190.0480  176.5520  136.8420 C   0  0  2  0  0  3  0  0  0  0  0  0
  189.3740  178.2750  135.0860 C   0  0  0  0  0  1  0  0  0  0  0  0
  189.9390  176.8870  135.3480 C   0  0  0  0  0  3  0  0  0  0  0  0
  189.1190  175.8460  134.6130 C   0  0  0  0  0  1  0  0  0  0  0  0
  190.3840  175.0870  137.1360 C   0  0  0  0  0  2  0  0  0  0  0  0
  191.8000  174.9420  137.6630 C   0  0  0  0  0  2  0  0  0  0  0  0
  192.5610  173.9100  136.8470 C   0  0  0  0  0  2  0  0  0  0  0  0
  193.4810  174.5950  135.8530 C   0  0  0  0  0  2  0  0  0  0  0  0
  194.9090  176.5480  135.9960 N   0  0  0  0  0  1  0  0  0  0  0  0
  194.6490  175.2420  136.5730 C   0  0  0  0  0  2  0  0  0  0  0  0
  1 15  1  0  0  0  0
  2  4  1  0  0  0  0
  2  5  1  1  0  0  0
  3  6  1  6  0  0  0
  3 14  1  0  0  0  0
  4 13  1  0  0  0  0
  4 17  1  1  0  0  0
  5  3  1  0  0  0  0
  7 16  1  6  0  0  0
  7 11  1  0  0  0  0
  8 15  1  0  0  0  0
  9 10  1  0  0  0  0
  9  2  1  0  0  0  0
 10  6  2  0  0  0  0
 11 16  1  1  0  0  0
 11  8  1  0  0  0  0
 12  9  2  0  0  0  0
 13 28  1  6  0  0  0
 13  7  1  0  0  0  0
 14  1  1  0  0  0  0
 19 18  1  0  0  0  0
 19 17  1  0  0  0  0
 21 20  1  6  0  0  0
 21 22  1  0  0  0  0
 21 27  1  0  0  0  0
 22 25  1  1  0  0  0
 22 27  1  0  0  0  0
 23 25  2  0  0  0  0
 24 23  1  0  0  0  0
 26 24  1  0  0  0  0
 26 20  1  0  0  0  0
 27 19  1  6  0  0  0
 28 32  1  6  0  0  0
 29 30  1  0  0  0  0
 30 28  1  0  0  0  0
 31 30  1  0  0  0  0
 32 33  1  0  0  0  0
 34 33  1  0  0  0  0
 35 37  1  0  0  0  0
 35 34  1  0  0  0  0
 36 37  1  0  0  0  0
M  END
>  <MODEL>
7

>  <REMARK>
 VINA RESULT:      -3.8      1.615      2.806
  Name = 
  10 active torsions:
  status: ('A' for Active; 'I' for Inactive)
    1  A    between atoms: C_1  and  C_5
    2  A    between atoms: C_1  and  C_23
    3  A    between atoms: C_5  and  C_17
    4  A    between atoms: C_10  and  C_14
    5  A    between atoms: C_14  and  N_31
    6  A    between atoms: C_17  and  C_26
    7  A    between atoms: C_26  and  C_33
    8  A    between atoms: C_27  and  C_33
    9  A    between atoms: C_29  and  C_33
   10  A    between atoms: N_31  and  C_37
                            x       y       z     vdW  Elec       q    Type
                         _______ _______ _______ _____ _____    ______ ____

>  <TORSDO>
F 10

$$$$
=
 OpenBabel10262422573D

 37 41  0  0  1  0  0  0  0  0999 V2000
  185.9780  178.1810  140.5710 C   0  0  0  0  0  2  0  0  0  0  0  0
  181.8610  177.5080  139.1690 C   0  0  2  0  0  3  0  0  0  0  0  0
  184.2200  178.2750  138.7560 C   0  0  2  0  0  3  0  0  0  0  0  0
  181.2850  178.6890  139.9750 C   0  0  1  0  0  3  0  0  0  0  0  0
  183.3450  177.2340  139.4600 C   0  0  0  0  0  2  0  0  0  0  0  0
  183.9650  178.2710  137.2750 C   0  0  0  0  0  3  0  0  0  0  0  0
  182.3960  179.2420  142.2480 C   0  0  1  0  0  3  0  0  0  0  0  0
  184.8630  179.2660  142.5370 C   0  0  0  0  0  2  0  0  0  0  0  0
  181.6300  177.6570  137.6850 C   0  0  0  0  0  0  0  0  0  0  0  0
  182.7460  178.0160  136.7880 C   0  0  0  0  0  3  0  0  0  0  0  0
  183.6300  178.3810  142.4380 C   0  0  1  0  0  3  0  0  0  0  0  0
  180.4270  177.4330  137.1750 C   0  0  0  0  0  2  0  0  0  0  0  0
  181.3410  178.4210  141.4980 C   0  0  1  0  0  3  0  0  0  0  0  0
  185.7020  178.1060  139.0700 C   0  0  0  0  0  2  0  0  0  0  0  0
  185.4770  179.4940  141.1620 C   0  0  0  0  0  2  0  0  0  0  0  0
  182.7050  178.6340  143.6060 C   0  0  0  0  0  2  0  0  0  0  0  0
  181.8470  180.0490  139.5380 C   0  0  0  0  0  2  0  0  0  0  0  0
  180.0080  181.4450  139.8050 C   0  0  0  0  0  1  0  0  0  0  0  0
  180.8450  180.8050  138.8040 N   0  0  0  0  0  0  0  0  0  0  0  0
  179.9820  181.2320  135.9630 C   0  0  0  0  0  2  0  0  0  0  0  0
  181.2110  181.8330  136.6100 C   0  0  1  0  0  3  0  0  0  0  0  0
  180.5540  182.8550  137.5220 C   0  0  2  0  0  3  0  0  0  0  0  0
  180.3140  184.4270  135.6930 C   0  0  0  0  0  3  0  0  0  0  0  0
  179.2100  183.5530  135.1060 C   0  0  0  0  0  2  0  0  0  0  0  0
  180.9480  184.1200  136.8440 C   0  0  0  0  0  3  0  0  0  0  0  0
  179.6430  182.1120  134.7440 C   0  0  0  0  0  2  0  0  0  0  0  0
  181.5460  181.8680  138.0940 C   0  0  1  0  0  3  0  0  0  0  0  0
  179.9700  178.4750  142.1840 C   0  0  2  0  0  3  0  0  0  0  0  0
  180.0610  177.1220  144.3430 C   0  0  0  0  0  1  0  0  0  0  0  0
  180.0940  178.5050  143.7130 C   0  0  0  0  0  3  0  0  0  0  0  0
  179.0210  179.3820  144.3310 C   0  0  0  0  0  1  0  0  0  0  0  0
  178.9810  177.4330  141.6520 C   0  0  0  0  0  2  0  0  0  0  0  0
  179.6820  176.1270  141.3210 C   0  0  0  0  0  2  0  0  0  0  0  0
  178.9860  175.4380  140.1590 C   0  0  0  0  0  2  0  0  0  0  0  0
  179.6560  174.1110  139.8520 C   0  0  0  0  0  2  0  0  0  0  0  0
  180.0440  172.6480  137.9600 N   0  0  0  0  0  1  0  0  0  0  0  0
  180.0320  174.0350  138.3840 C   0  0  0  0  0  2  0  0  0  0  0  0
  1 15  1  0  0  0  0
  2  5  1  6  0  0  0
  2  4  1  0  0  0  0
  3  6  1  6  0  0  0
  3 14  1  0  0  0  0
  3  5  1  0  0  0  0
  4 17  1  1  0  0  0
  4 13  1  0  0  0  0
  7 11  1  0  0  0  0
  7 16  1  1  0  0  0
  9  2  1  0  0  0  0
 10  6  2  0  0  0  0
 10  9  1  0  0  0  0
 11  8  1  1  0  0  0
 11 16  1  0  0  0  0
 12  9  2  0  0  0  0
 13 28  1  1  0  0  0
 13  7  1  0  0  0  0
 14  1  1  0  0  0  0
 15  8  1  0  0  0  0
 19 17  1  0  0  0  0
 19 18  1  0  0  0  0
 21 20  1  1  0  0  0
 21 22  1  0  0  0  0
 21 27  1  0  0  0  0
 22 25  1  6  0  0  0
 22 27  1  0  0  0  0
 23 25  2  0  0  0  0
 24 23  1  0  0  0  0
 26 24  1  0  0  0  0
 26 20  1  0  0  0  0
 27 19  1  1  0  0  0
 28 32  1  1  0  0  0
 28 30  1  0  0  0  0
 30 31  1  0  0  0  0
 30 29  1  0  0  0  0
 33 32  1  0  0  0  0
 34 33  1  0  0  0  0
 35 34  1  0  0  0  0
 36 37  1  0  0  0  0
 37 35  1  0  0  0  0
M  END
>  <MODEL>
8

>  <REMARK>
 VINA RESULT:      -3.8      6.941     11.265
  Name = 
  10 active torsions:
  status: ('A' for Active; 'I' for Inactive)
    1  A    between atoms: C_1  and  C_5
    2  A    between atoms: C_1  and  C_23
    3  A    between atoms: C_5  and  C_17
    4  A    between atoms: C_10  and  C_14
    5  A    between atoms: C_14  and  N_31
    6  A    between atoms: C_17  and  C_26
    7  A    between atoms: C_26  and  C_33
    8  A    between atoms: C_27  and  C_33
    9  A    between atoms: C_29  and  C_33
   10  A    between atoms: N_31  and  C_37
                            x       y       z     vdW  Elec       q    Type
                         _______ _______ _______ _____ _____    ______ ____

>  <TORSDO>
F 10

$$$$
=
 OpenBabel10262422573D

 37 41  0  0  1  0  0  0  0  0999 V2000
  183.8000  179.2440  142.3870 C   0  0  0  0  0  2  0  0  0  0  0  0
  183.3190  178.8480  138.0310 C   0  0  2  0  0  3  0  0  0  0  0  0
  182.4140  178.6210  140.3660 C   0  0  2  0  0  3  0  0  0  0  0  0
  184.2510  177.6240  137.9370 C   0  0  1  0  0  3  0  0  0  0  0  0
  183.2740  179.4780  139.4320 C   0  0  0  0  0  2  0  0  0  0  0  0
  181.0240  178.4640  139.8160 C   0  0  0  0  0  3  0  0  0  0  0  0
  186.2370  177.5020  139.5950 C   0  0  1  0  0  3  0  0  0  0  0  0
  185.9810  178.0700  142.0000 C   0  0  0  0  0  2  0  0  0  0  0  0
  181.9230  178.5470  137.5390 C   0  0  0  0  0  0  0  0  0  0  0  0
  180.8110  178.3950  138.4970 C   0  0  0  0  0  3  0  0  0  0  0  0
  186.1370  178.6360  140.5970 C   0  0  1  0  0  3  0  0  0  0  0  0
  181.6840  178.4510  136.2390 C   0  0  0  0  0  2  0  0  0  0  0  0
  185.7200  178.0030  138.2410 C   0  0  1  0  0  3  0  0  0  0  0  0
  182.3940  179.1500  141.7960 C   0  0  0  0  0  2  0  0  0  0  0  0
  184.5080  177.8950  142.3510 C   0  0  0  0  0  2  0  0  0  0  0  0
  187.4830  178.2570  140.0240 C   0  0  0  0  0  2  0  0  0  0  0  0
  183.7260  176.4040  138.7070 C   0  0  0  0  0  2  0  0  0  0  0  0
  184.1440  174.2610  137.9090 C   0  0  0  0  0  1  0  0  0  0  0  0
  183.2370  175.3900  137.7870 N   0  0  0  0  0  0  0  0  0  0  0  0
  181.1540  174.9060  135.6830 C   0  0  0  0  0  2  0  0  0  0  0  0
  180.9010  174.9740  137.1720 C   0  0  1  0  0  3  0  0  0  0  0  0
  181.5310  173.6620  137.6070 C   0  0  2  0  0  3  0  0  0  0  0  0
  179.5460  172.4260  136.9690 C   0  0  0  0  0  3  0  0  0  0  0  0
  179.8980  172.6460  135.5020 C   0  0  0  0  0  2  0  0  0  0  0  0
  180.3160  172.8850  137.9770 C   0  0  0  0  0  3  0  0  0  0  0  0
  179.9760  174.1290  135.0650 C   0  0  0  0  0  2  0  0  0  0  0  0
  181.9400  174.9500  138.2850 C   0  0  1  0  0  3  0  0  0  0  0  0
  186.6900  177.6800  137.0970 C   0  0  2  0  0  3  0  0  0  0  0  0
  187.1040  178.9800  134.9420 C   0  0  0  0  0  1  0  0  0  0  0  0
  187.2630  178.9510  136.4550 C   0  0  0  0  0  3  0  0  0  0  0  0
  188.7200  179.1410  136.8270 C   0  0  0  0  0  1  0  0  0  0  0  0
  186.1330  176.6640  136.0950 C   0  0  0  0  0  2  0  0  0  0  0  0
  186.9620  175.3920  136.0830 C   0  0  0  0  0  2  0  0  0  0  0  0
  188.0960  175.5140  135.0780 C   0  0  0  0  0  2  0  0  0  0  0  0
  189.4380  175.4240  135.7810 C   0  0  0  0  0  2  0  0  0  0  0  0
  190.4100  174.1050  137.5660 N   0  0  0  0  0  1  0  0  0  0  0  0
  189.2600  174.9090  137.1970 C   0  0  0  0  0  2  0  0  0  0  0  0
  2  5  1  1  0  0  0
  3  5  1  6  0  0  0
  3 14  1  0  0  0  0
  4  2  1  0  0  0  0
  4 13  1  0  0  0  0
  4 17  1  1  0  0  0
  6  3  1  0  0  0  0
  7 16  1  6  0  0  0
  7 11  1  0  0  0  0
  8 15  1  0  0  0  0
  9  2  1  0  0  0  0
  9 10  1  0  0  0  0
 10  6  2  0  0  0  0
 11 16  1  1  0  0  0
 11  8  1  0  0  0  0
 12  9  2  0  0  0  0
 13 28  1  6  0  0  0
 13  7  1  0  0  0  0
 14  1  1  0  0  0  0
 15  1  1  0  0  0  0
 19 18  1  0  0  0  0
 19 17  1  0  0  0  0
 21 20  1  6  0  0  0
 21 22  1  0  0  0  0
 21 27  1  0  0  0  0
 22 25  1  1  0  0  0
 22 27  1  0  0  0  0
 23 25  2  0  0  0  0
 24 23  1  0  0  0  0
 26 24  1  0  0  0  0
 26 20  1  0  0  0  0
 27 19  1  6  0  0  0
 28 32  1  6  0  0  0
 29 30  1  0  0  0  0
 30 31  1  0  0  0  0
 30 28  1  0  0  0  0
 33 32  1  0  0  0  0
 34 35  1  0  0  0  0
 34 33  1  0  0  0  0
 35 37  1  0  0  0  0
 37 36  1  0  0  0  0
M  END
>  <MODEL>
9

>  <REMARK>
 VINA RESULT:      -3.7      3.438      5.905
  Name = 
  10 active torsions:
  status: ('A' for Active; 'I' for Inactive)
    1  A    between atoms: C_1  and  C_5
    2  A    between atoms: C_1  and  C_23
    3  A    between atoms: C_5  and  C_17
    4  A    between atoms: C_10  and  C_14
    5  A    between atoms: C_14  and  N_31
    6  A    between atoms: C_17  and  C_26
    7  A    between atoms: C_26  and  C_33
    8  A    between atoms: C_27  and  C_33
    9  A    between atoms: C_29  and  C_33
   10  A    between atoms: N_31  and  C_37
                            x       y       z     vdW  Elec       q    Type
                         _______ _______ _______ _____ _____    ______ ____

>  <TORSDO>
F 10

$$$$
