=
 OpenBabel10262420393D

 55 58  0  0  1  0  0  0  0  0999 V2000
  180.2020  176.5530  141.3640 C   0  0  0  0  0  2  0  0  0  0  0  0
  180.2680  178.8540  144.0840 C   0  0  0  0  0  1  0  0  0  0  0  0
  181.9360  177.1780  137.4910 C   0  0  2  0  0  3  0  0  0  0  0  0
  184.2830  180.2870  138.7660 O   0  0  0  0  0  1  0  0  0  0  0  0
  181.6500  179.5380  137.2670 O   0  0  0  0  0  1  0  0  0  0  0  0
  183.8900  179.1950  139.5470 C   0  0  2  0  0  0  0  0  0  0  0  0
  182.5860  178.7640  139.2070 O   0  0  0  0  0  0  0  0  0  0  0  0
  182.1170  179.3260  142.5150 C   0  0  0  0  0  2  0  0  0  0  0  0
  179.6550  176.4820  137.5780 F   0  0  0  0  0  0  0  0  0  0  0  0
  182.4860  178.5660  137.8160 C   0  0  1  0  0  3  0  0  0  0  0  0
  183.8940  179.6480  141.0040 C   0  0  0  0  0  2  0  0  0  0  0  0
  181.4030  176.3260  140.4590 C   0  0  0  0  0  2  0  0  0  0  0  0
  184.9010  178.0650  139.3820 C   0  0  0  0  0  1  0  0  0  0  0  0
  180.1300  178.0170  141.7680 C   0  0  0  0  0  2  0  0  0  0  0  0
  181.0680  178.3020  142.9290 C   0  0  2  0  0  3  0  0  0  0  0  0
  180.7360  176.8070  138.3750 C   0  0  1  0  0  3  0  0  0  0  0  0
  183.2530  178.6660  141.8840 N   0  0  0  0  0  0  0  0  0  0  0  0
  181.0050  175.7430  139.2510 O   0  0  0  0  0  0  0  0  0  0  0  0
  183.0600  176.1410  137.4860 C   0  0  0  0  0  2  0  0  0  0  0  0
  184.9760  173.8920  136.1890 C   0  0  1  0  0  3  0  0  0  0  0  0
  182.9520  175.1350  136.3270 C   0  0  2  0  0  0  0  0  0  0  0  0
  182.6820  173.8530  136.8580 O   0  0  0  0  0  0  0  0  0  0  0  0
  185.6960  174.3040  137.3100 O   0  0  0  0  0  1  0  0  0  0  0  0
  183.8180  173.0460  136.6420 C   0  0  0  0  0  2  0  0  0  0  0  0
  184.2690  175.0550  135.5510 C   0  0  1  0  0  3  0  0  0  0  0  0
  184.3640  177.3730  134.5960 C   0  0  0  0  0  1  0  0  0  0  0  0
  185.0960  176.3500  135.4500 C   0  0  2  0  0  3  0  0  0  0  0  0
  186.4000  176.0720  134.8580 N   0  0  0  0  0  2  0  0  0  0  0  0
  187.6570  177.2660  136.7220 C   0  0  0  0  0  1  0  0  0  0  0  0
  187.6330  176.4920  135.4480 C   0  0  0  0  0  0  0  0  0  0  0  0
  188.7200  176.1880  134.8930 O   0  0  0  0  0  0  0  0  0  0  0  0
  181.8100  175.5650  135.3950 C   0  0  0  0  0  2  0  0  0  0  0  0
  180.8390  174.4370  135.0760 C   0  0  0  0  0  2  0  0  0  0  0  0
  179.4390  174.9800  134.8600 C   0  0  0  0  0  2  0  0  0  0  0  0
  179.5120  176.4680  134.6010 C   0  0  0  0  0  1  0  0  0  0  0  0
  184.1520  178.2050  142.9580 C   0  0  1  0  0  3  0  0  0  0  0  0
  186.4570  177.4250  142.7430 C   0  0  0  0  0  3  0  0  0  0  0  0
  185.5840  178.4170  142.5940 C   0  0  0  0  0  3  0  0  0  0  0  0
  188.7890  177.6570  143.4970 C   0  0  0  0  0  3  0  0  0  0  0  0
  189.7240  177.7970  140.8680 C   0  0  0  0  0  0  0  0  0  0  0  0
  188.3580  177.6380  141.1180 C   0  0  0  0  0  3  0  0  0  0  0  0
  190.1550  177.8140  143.2460 C   0  0  0  0  0  3  0  0  0  0  0  0
  187.8860  177.5650  142.4380 C   0  0  0  0  0  0  0  0  0  0  0  0
  190.1790  177.8590  139.5920 F   0  0  0  0  0  0  0  0  0  0  0  0
  190.6230  177.8830  141.9310 C   0  0  0  0  0  3  0  0  0  0  0  0
  183.8300  178.7540  144.3490 C   0  0  0  0  0  2  0  0  0  0  0  0
  185.5220  177.2620  145.4350 C   0  0  0  0  0  3  0  0  0  0  0  0
  187.1010  178.1320  147.0720 C   0  0  0  0  0  0  0  0  0  0  0  0
  185.4820  179.6110  146.0220 C   0  0  0  0  0  3  0  0  0  0  0  0
  186.5430  179.4100  146.9130 C   0  0  0  0  0  3  0  0  0  0  0  0
  186.5820  177.0610  146.3280 C   0  0  0  0  0  3  0  0  0  0  0  0
  184.9740  178.5390  145.2780 C   0  0  0  0  0  0  0  0  0  0  0  0
  188.2090  177.9140  148.0190 C   0  0  0  0  0  0  0  0  0  0  0  0
  188.0210  178.0260  149.2590 O   0  0  0  0  0  1  0  0  0  0  0  0
  189.4740  177.5760  147.5500 O   0  0  0  0  0  0  0  0  0  0  0  0
  1 14  1  0  0  0  0
  3 19  1  1  0  0  0
  3 10  1  0  0  0  0
  3 16  1  0  0  0  0
  4  6  1  0  0  0  0
  6 13  1  6  0  0  0
  6 11  1  0  0  0  0
  7  6  1  0  0  0  0
  8 15  1  0  0  0  0
 10  5  1  1  0  0  0
 10  7  1  0  0  0  0
 11 17  1  0  0  0  0
 12  1  1  0  0  0  0
 14 15  1  0  0  0  0
 15  2  1  1  0  0  0
 16  9  1  6  0  0  0
 16 18  1  0  0  0  0
 17  8  1  0  0  0  0
 17 36  1  0  0  0  0
 18 12  1  0  0  0  0
 20 24  1  0  0  0  0
 20 23  1  1  0  0  0
 21 32  1  6  0  0  0
 21 22  1  0  0  0  0
 21 19  1  0  0  0  0
 24 22  1  0  0  0  0
 25 27  1  1  0  0  0
 25 20  1  0  0  0  0
 25 21  1  0  0  0  0
 27 26  1  6  0  0  0
 28 30  1  0  0  0  0
 28 27  1  0  0  0  0
 30 29  1  0  0  0  0
 31 30  2  0  0  0  0
 33 32  1  0  0  0  0
 34 33  1  0  0  0  0
 35 34  1  0  0  0  0
 36 38  1  6  0  0  0
 36 46  1  0  0  0  0
 38 37  2  0  0  0  0
 40 41  2  0  0  0  0
 40 45  1  0  0  0  0
 41 43  1  0  0  0  0
 42 39  1  0  0  0  0
 43 37  1  0  0  0  0
 43 39  2  0  0  0  0
 44 40  1  0  0  0  0
 45 42  2  0  0  0  0
 46 52  1  0  0  0  0
 47 51  1  0  0  0  0
 48 53  1  0  0  0  0
 49 50  2  0  0  0  0
 50 48  1  0  0  0  0
 51 48  2  0  0  0  0
 52 47  2  0  0  0  0
 52 49  1  0  0  0  0
 53 54  1  0  0  0  0
 55 53  2  0  0  0  0
M  END
>  <MODEL>
1

>  <REMARK>
 VINA RESULT:      -6.1      0.000      0.000
  Name = 
  13 active torsions:
  status: ('A' for Active; 'I' for Inactive)
    1  A    between atoms: C_2  and  C_44
    2  A    between atoms: C_6  and  C_8
    3  A    between atoms: C_6  and  C_46
    4  A    between atoms: C_7  and  C_8
    5  A    between atoms: C_10  and  C_32
    6  A    between atoms: N_11  and  C_38
    7  A    between atoms: C_12  and  C_14
    8  A    between atoms: C_14  and  C_46
    9  A    between atoms: C_28  and  C_49
   10  A    between atoms: C_33  and  C_49
   11  A    between atoms: C_33  and  C_52
   12  A    between atoms: C_38  and  C_53
   13  A    between atoms: N_45  and  C_49
                            x       y       z     vdW  Elec       q    Type
                         _______ _______ _______ _____ _____    ______ ____

>  <TORSDO>
F 13

$$$$
=
 OpenBabel10262420393D

 55 58  0  0  1  0  0  0  0  0999 V2000
  180.4170  176.5280  141.1190 C   0  0  0  0  0  2  0  0  0  0  0  0
  180.3460  178.7720  143.8860 C   0  0  0  0  0  1  0  0  0  0  0  0
  182.2640  177.2710  137.3190 C   0  0  2  0  0  3  0  0  0  0  0  0
  184.5020  180.3980  138.7360 O   0  0  0  0  0  1  0  0  0  0  0  0
  181.9360  179.6290  137.1350 O   0  0  0  0  0  1  0  0  0  0  0  0
  184.1070  179.2820  139.4810 C   0  0  2  0  0  0  0  0  0  0  0  0
  182.8240  178.8320  139.0880 O   0  0  0  0  0  0  0  0  0  0  0  0
  182.2350  179.3140  142.3900 C   0  0  0  0  0  2  0  0  0  0  0  0
  179.9960  176.5270  137.3160 F   0  0  0  0  0  0  0  0  0  0  0  0
  182.7740  178.6620  137.6910 C   0  0  1  0  0  3  0  0  0  0  0  0
  184.0530  179.7040  140.9460 C   0  0  0  0  0  2  0  0  0  0  0  0
  181.6520  176.3450  140.2500 C   0  0  0  0  0  2  0  0  0  0  0  0
  185.1460  178.1770  139.3250 C   0  0  0  0  0  1  0  0  0  0  0  0
  180.3010  177.9810  141.5500 C   0  0  0  0  0  2  0  0  0  0  0  0
  181.1950  178.2600  142.7470 C   0  0  2  0  0  3  0  0  0  0  0  0
  181.0430  176.8560  138.1550 C   0  0  1  0  0  3  0  0  0  0  0  0
  183.4050  178.6900  141.7840 N   0  0  0  0  0  0  0  0  0  0  0  0
  181.3050  175.7800  139.0180 O   0  0  0  0  0  0  0  0  0  0  0  0
  183.4080  176.2560  137.3300 C   0  0  0  0  0  2  0  0  0  0  0  0
  182.0870  173.9710  135.4760 C   0  0  1  0  0  3  0  0  0  0  0  0
  183.7000  175.6560  135.9440 C   0  0  2  0  0  0  0  0  0  0  0  0
  182.7930  176.2060  135.0090 O   0  0  0  0  0  0  0  0  0  0  0  0
  181.1890  174.0660  136.5390 O   0  0  0  0  0  1  0  0  0  0  0  0
  181.9220  175.1780  134.5940 C   0  0  0  0  0  2  0  0  0  0  0  0
  183.5010  174.1380  135.9550 C   0  0  1  0  0  3  0  0  0  0  0  0
  185.3440  173.4250  137.5010 C   0  0  0  0  0  1  0  0  0  0  0  0
  183.8410  173.4030  137.2650 C   0  0  2  0  0  3  0  0  0  0  0  0
  183.3830  172.0200  137.2010 N   0  0  0  0  0  2  0  0  0  0  0  0
  185.0350  171.4110  135.3620 C   0  0  0  0  0  1  0  0  0  0  0  0
  183.9410  171.0510  136.3090 C   0  0  0  0  0  0  0  0  0  0  0  0
  183.5130  169.8680  136.3340 O   0  0  0  0  0  0  0  0  0  0  0  0
  185.1400  176.0030  135.5400 C   0  0  0  0  0  2  0  0  0  0  0  0
  185.5460  177.4190  135.9250 C   0  0  0  0  0  2  0  0  0  0  0  0
  187.0540  177.5240  136.0610 C   0  0  0  0  0  2  0  0  0  0  0  0
  187.5250  176.6010  137.1620 C   0  0  0  0  0  1  0  0  0  0  0  0
  184.2770  178.2260  142.8760 C   0  0  1  0  0  3  0  0  0  0  0  0
  186.5490  177.4030  142.5160 C   0  0  0  0  0  3  0  0  0  0  0  0
  185.7180  178.4400  142.5490 C   0  0  0  0  0  3  0  0  0  0  0  0
  188.8580  177.7400  143.3000 C   0  0  0  0  0  3  0  0  0  0  0  0
  189.8580  177.6540  140.6930 C   0  0  0  0  0  0  0  0  0  0  0  0
  188.4880  177.4970  140.9240 C   0  0  0  0  0  3  0  0  0  0  0  0
  190.2280  177.8940  143.0690 C   0  0  0  0  0  3  0  0  0  0  0  0
  187.9830  177.5370  142.2330 C   0  0  0  0  0  0  0  0  0  0  0  0
  190.3430  177.6050  139.4280 F   0  0  0  0  0  0  0  0  0  0  0  0
  190.7280  177.8500  141.7640 C   0  0  0  0  0  3  0  0  0  0  0  0
  183.9200  178.7670  144.2620 C   0  0  0  0  0  2  0  0  0  0  0  0
  185.7040  177.2980  145.2270 C   0  0  0  0  0  3  0  0  0  0  0  0
  187.0910  178.0540  147.0800 C   0  0  0  0  0  0  0  0  0  0  0  0
  185.3810  179.5120  146.1530 C   0  0  0  0  0  3  0  0  0  0  0  0
  186.4090  179.2800  147.0750 C   0  0  0  0  0  3  0  0  0  0  0  0
  186.7310  177.0650  146.1510 C   0  0  0  0  0  3  0  0  0  0  0  0
  185.0300  178.5230  145.2250 C   0  0  0  0  0  0  0  0  0  0  0  0
  188.1650  177.8010  148.0570 C   0  0  0  0  0  0  0  0  0  0  0  0
  188.0400  178.1730  149.2530 O   0  0  0  0  0  1  0  0  0  0  0  0
  189.3260  177.1420  147.6660 O   0  0  0  0  0  0  0  0  0  0  0  0
  1 14  1  0  0  0  0
  3 19  1  1  0  0  0
  3 10  1  0  0  0  0
  3 16  1  0  0  0  0
  4  6  1  0  0  0  0
  6 13  1  6  0  0  0
  6 11  1  0  0  0  0
  7  6  1  0  0  0  0
  8 15  1  0  0  0  0
 10  5  1  6  0  0  0
 10  7  1  0  0  0  0
 11 17  1  0  0  0  0
 12  1  1  0  0  0  0
 14 15  1  0  0  0  0
 15  2  1  1  0  0  0
 16  9  1  6  0  0  0
 16 18  1  0  0  0  0
 17  8  1  0  0  0  0
 17 36  1  0  0  0  0
 18 12  1  0  0  0  0
 20 25  1  0  0  0  0
 20 23  1  1  0  0  0
 21 32  1  6  0  0  0
 21 25  1  0  0  0  0
 21 19  1  0  0  0  0
 22 21  1  0  0  0  0
 24 22  1  0  0  0  0
 24 20  1  0  0  0  0
 25 27  1  1  0  0  0
 27 26  1  6  0  0  0
 28 27  1  0  0  0  0
 29 30  1  0  0  0  0
 30 31  2  0  0  0  0
 30 28  1  0  0  0  0
 32 33  1  0  0  0  0
 33 34  1  0  0  0  0
 34 35  1  0  0  0  0
 36 38  1  6  0  0  0
 36 46  1  0  0  0  0
 37 38  2  0  0  0  0
 40 41  2  0  0  0  0
 40 45  1  0  0  0  0
 41 43  1  0  0  0  0
 42 39  1  0  0  0  0
 43 37  1  0  0  0  0
 43 39  2  0  0  0  0
 44 40  1  0  0  0  0
 45 42  2  0  0  0  0
 46 52  1  0  0  0  0
 47 51  1  0  0  0  0
 48 53  1  0  0  0  0
 49 50  2  0  0  0  0
 50 48  1  0  0  0  0
 51 48  2  0  0  0  0
 52 47  2  0  0  0  0
 52 49  1  0  0  0  0
 53 54  1  0  0  0  0
 55 53  2  0  0  0  0
M  END
>  <MODEL>
2

>  <REMARK>
 VINA RESULT:      -6.0      1.448      2.898
  Name = 
  13 active torsions:
  status: ('A' for Active; 'I' for Inactive)
    1  A    between atoms: C_2  and  C_44
    2  A    between atoms: C_6  and  C_8
    3  A    between atoms: C_6  and  C_46
    4  A    between atoms: C_7  and  C_8
    5  A    between atoms: C_10  and  C_32
    6  A    between atoms: N_11  and  C_38
    7  A    between atoms: C_12  and  C_14
    8  A    between atoms: C_14  and  C_46
    9  A    between atoms: C_28  and  C_49
   10  A    between atoms: C_33  and  C_49
   11  A    between atoms: C_33  and  C_52
   12  A    between atoms: C_38  and  C_53
   13  A    between atoms: N_45  and  C_49
                            x       y       z     vdW  Elec       q    Type
                         _______ _______ _______ _____ _____    ______ ____

>  <TORSDO>
F 13

$$$$
=
 OpenBabel10262420393D

 55 58  0  0  1  0  0  0  0  0999 V2000
  182.1760  178.8960  143.6200 C   0  0  0  0  0  2  0  0  0  0  0  0
  185.0060  180.0670  145.4420 C   0  0  0  0  0  1  0  0  0  0  0  0
  181.6800  179.0490  139.3620 C   0  0  2  0  0  3  0  0  0  0  0  0
  185.6670  179.6940  138.6690 O   0  0  0  0  0  1  0  0  0  0  0  0
  182.8670  181.0590  138.8630 O   0  0  0  0  0  1  0  0  0  0  0  0
  185.1390  178.9580  139.7350 C   0  0  2  0  0  0  0  0  0  0  0  0
  183.9150  179.5100  140.1820 O   0  0  0  0  0  0  0  0  0  0  0  0
  185.6320  179.5810  143.1020 C   0  0  0  0  0  2  0  0  0  0  0  0
  179.9150  179.9240  140.7100 F   0  0  0  0  0  0  0  0  0  0  0  0
  183.0380  179.6940  139.0950 C   0  0  1  0  0  3  0  0  0  0  0  0
  186.1500  179.0150  140.8770 C   0  0  0  0  0  2  0  0  0  0  0  0
  182.3070  178.1540  142.2990 C   0  0  0  0  0  2  0  0  0  0  0  0
  184.9620  177.5060  139.3070 C   0  0  0  0  0  1  0  0  0  0  0  0
  183.2460  179.9710  143.7160 C   0  0  0  0  0  2  0  0  0  0  0  0
  184.5680  179.3760  144.1730 C   0  0  2  0  0  3  0  0  0  0  0  0
  181.1660  179.3410  140.7810 C   0  0  1  0  0  3  0  0  0  0  0  0
  185.5900  178.4970  142.1290 N   0  0  0  0  0  0  0  0  0  0  0  0
  181.1010  178.1960  141.5910 O   0  0  0  0  0  0  0  0  0  0  0  0
  181.7070  177.5640  138.9960 C   0  0  0  0  0  2  0  0  0  0  0  0
  180.0070  174.8550  138.5750 C   0  0  1  0  0  3  0  0  0  0  0  0
  180.5190  177.1330  138.1200 C   0  0  2  0  0  0  0  0  0  0  0  0
  179.3470  177.1270  138.9110 O   0  0  0  0  0  0  0  0  0  0  0  0
  180.8410  174.5340  139.6460 O   0  0  0  0  0  1  0  0  0  0  0  0
  178.9320  175.7870  139.0600 C   0  0  0  0  0  2  0  0  0  0  0  0
  180.7270  175.7180  137.5770 C   0  0  1  0  0  3  0  0  0  0  0  0
  182.6480  175.9450  135.9790 C   0  0  0  0  0  1  0  0  0  0  0  0
  182.1770  175.2970  137.2720 C   0  0  2  0  0  3  0  0  0  0  0  0
  182.2670  173.8470  137.1450 N   0  0  0  0  0  2  0  0  0  0  0  0
  184.7840  173.8290  137.5270 C   0  0  0  0  0  1  0  0  0  0  0  0
  183.4950  173.1240  137.2690 C   0  0  0  0  0  0  0  0  0  0  0  0
  183.4870  171.8700  137.1770 O   0  0  0  0  0  0  0  0  0  0  0  0
  180.3620  178.1310  136.9630 C   0  0  0  0  0  2  0  0  0  0  0  0
  178.9680  178.7370  136.8790 C   0  0  0  0  0  2  0  0  0  0  0  0
  178.9770  179.9790  136.0080 C   0  0  0  0  0  2  0  0  0  0  0  0
  180.0320  180.9380  136.5110 C   0  0  0  0  0  1  0  0  0  0  0  0
  186.3800  177.3780  142.6750 C   0  0  1  0  0  3  0  0  0  0  0  0
  188.2800  177.0880  141.1680 C   0  0  0  0  0  3  0  0  0  0  0  0
  187.8270  177.5220  142.3400 C   0  0  0  0  0  3  0  0  0  0  0  0
  190.6200  177.6260  141.7130 C   0  0  0  0  0  3  0  0  0  0  0  0
  191.4780  176.9280  139.1480 C   0  0  0  0  0  0  0  0  0  0  0  0
  190.1270  176.8170  139.4890 C   0  0  0  0  0  3  0  0  0  0  0  0
  191.9700  177.7350  141.3720 C   0  0  0  0  0  3  0  0  0  0  0  0
  189.6930  177.1640  140.7780 C   0  0  0  0  0  0  0  0  0  0  0  0
  191.8950  176.5820  137.9050 F   0  0  0  0  0  0  0  0  0  0  0  0
  192.4000  177.3850  140.0890 C   0  0  0  0  0  3  0  0  0  0  0  0
  186.1630  177.1020  144.1640 C   0  0  0  0  0  2  0  0  0  0  0  0
  188.6060  176.5610  144.2560 C   0  0  0  0  0  3  0  0  0  0  0  0
  189.9070  176.9500  146.2770 C   0  0  0  0  0  0  0  0  0  0  0  0
  187.5400  177.5030  146.2150 C   0  0  0  0  0  3  0  0  0  0  0  0
  188.7560  177.4500  146.9070 C   0  0  0  0  0  3  0  0  0  0  0  0
  189.8230  176.5060  144.9480 C   0  0  0  0  0  3  0  0  0  0  0  0
  187.4650  177.0640  144.8870 C   0  0  0  0  0  0  0  0  0  0  0  0
  191.1850  176.8800  147.0070 C   0  0  0  0  0  0  0  0  0  0  0  0
  192.0770  176.0630  146.6570 O   0  0  0  0  0  0  0  0  0  0  0  0
  191.4210  177.7230  148.0880 O   0  0  0  0  0  1  0  0  0  0  0  0
  1 14  1  0  0  0  0
  3 19  1  1  0  0  0
  3 16  1  0  0  0  0
  4  6  1  0  0  0  0
  6 13  1  6  0  0  0
  6  7  1  0  0  0  0
  6 11  1  0  0  0  0
  8 15  1  0  0  0  0
 10  5  1  1  0  0  0
 10  3  1  0  0  0  0
 10  7  1  0  0  0  0
 11 17  1  0  0  0  0
 12  1  1  0  0  0  0
 14 15  1  0  0  0  0
 15  2  1  1  0  0  0
 16  9  1  6  0  0  0
 16 18  1  0  0  0  0
 17 36  1  0  0  0  0
 17  8  1  0  0  0  0
 18 12  1  0  0  0  0
 20 24  1  0  0  0  0
 20 23  1  1  0  0  0
 21 32  1  6  0  0  0
 21 22  1  0  0  0  0
 21 19  1  0  0  0  0
 22 24  1  0  0  0  0
 25 27  1  1  0  0  0
 25 21  1  0  0  0  0
 25 20  1  0  0  0  0
 27 26  1  6  0  0  0
 28 30  1  0  0  0  0
 28 27  1  0  0  0  0
 30 29  1  0  0  0  0
 31 30  2  0  0  0  0
 33 32  1  0  0  0  0
 34 35  1  0  0  0  0
 34 33  1  0  0  0  0
 36 38  1  1  0  0  0
 36 46  1  0  0  0  0
 37 38  2  0  0  0  0
 40 41  2  0  0  0  0
 40 45  1  0  0  0  0
 41 43  1  0  0  0  0
 42 39  1  0  0  0  0
 43 37  1  0  0  0  0
 43 39  2  0  0  0  0
 44 40  1  0  0  0  0
 45 42  2  0  0  0  0
 46 52  1  0  0  0  0
 47 52  2  0  0  0  0
 47 51  1  0  0  0  0
 48 50  1  0  0  0  0
 48 53  1  0  0  0  0
 49 50  2  0  0  0  0
 51 48  2  0  0  0  0
 52 49  1  0  0  0  0
 53 55  1  0  0  0  0
 54 53  2  0  0  0  0
M  END
>  <MODEL>
3

>  <REMARK>
 VINA RESULT:      -4.6      2.270      3.683
  Name = 
  13 active torsions:
  status: ('A' for Active; 'I' for Inactive)
    1  A    between atoms: C_2  and  C_44
    2  A    between atoms: C_6  and  C_8
    3  A    between atoms: C_6  and  C_46
    4  A    between atoms: C_7  and  C_8
    5  A    between atoms: C_10  and  C_32
    6  A    between atoms: N_11  and  C_38
    7  A    between atoms: C_12  and  C_14
    8  A    between atoms: C_14  and  C_46
    9  A    between atoms: C_28  and  C_49
   10  A    between atoms: C_33  and  C_49
   11  A    between atoms: C_33  and  C_52
   12  A    between atoms: C_38  and  C_53
   13  A    between atoms: N_45  and  C_49
                            x       y       z     vdW  Elec       q    Type
                         _______ _______ _______ _____ _____    ______ ____

>  <TORSDO>
F 13

$$$$
=
 OpenBabel10262420393D

 55 58  0  0  1  0  0  0  0  0999 V2000
  186.4660  178.4600  135.4590 C   0  0  0  0  0  2  0  0  0  0  0  0
  189.8220  177.6300  134.5940 C   0  0  0  0  0  1  0  0  0  0  0  0
  183.2730  175.6750  136.1280 C   0  0  2  0  0  3  0  0  0  0  0  0
  185.8110  172.4870  136.5700 O   0  0  0  0  0  1  0  0  0  0  0  0
  183.8830  173.9470  134.5970 O   0  0  0  0  0  1  0  0  0  0  0  0
  186.1040  173.8100  136.9170 C   0  0  2  0  0  0  0  0  0  0  0  0
  185.5010  174.7210  136.0190 O   0  0  0  0  0  0  0  0  0  0  0  0
  188.7240  175.7170  135.7060 C   0  0  0  0  0  2  0  0  0  0  0  0
  182.8720  177.4670  134.6030 F   0  0  0  0  0  0  0  0  0  0  0  0
  184.1280  174.4340  135.8810 C   0  0  1  0  0  3  0  0  0  0  0  0
  187.6190  173.9780  136.8450 C   0  0  0  0  0  2  0  0  0  0  0  0
  185.6680  177.6650  136.4810 C   0  0  0  0  0  2  0  0  0  0  0  0
  185.6490  174.0700  138.3490 C   0  0  0  0  0  1  0  0  0  0  0  0
  187.3580  177.5240  134.6600 C   0  0  0  0  0  2  0  0  0  0  0  0
  188.6340  177.2120  135.4260 C   0  0  2  0  0  3  0  0  0  0  0  0
  183.8380  176.9190  135.4250 C   0  0  1  0  0  3  0  0  0  0  0  0
  188.0180  175.3860  136.9380 N   0  0  0  0  0  0  0  0  0  0  0  0
  184.2970  177.8980  136.3210 O   0  0  0  0  0  0  0  0  0  0  0  0
  183.0120  175.8610  137.6230 C   0  0  0  0  0  2  0  0  0  0  0  0
  180.5970  178.0000  137.6800 C   0  0  1  0  0  3  0  0  0  0  0  0
  181.5170  175.8270  137.9860 C   0  0  2  0  0  0  0  0  0  0  0  0
  180.7590  175.7870  136.7930 O   0  0  0  0  0  0  0  0  0  0  0  0
  181.6390  178.7240  137.1000 O   0  0  0  0  0  1  0  0  0  0  0  0
  180.0740  177.0140  136.6720 C   0  0  0  0  0  2  0  0  0  0  0  0
  181.1150  177.0870  138.7550 C   0  0  1  0  0  3  0  0  0  0  0  0
  181.6110  177.8830  141.0830 C   0  0  0  0  0  1  0  0  0  0  0  0
  182.1790  177.7040  139.6830 C   0  0  2  0  0  3  0  0  0  0  0  0
  182.6080  178.9990  139.1680 N   0  0  0  0  0  2  0  0  0  0  0  0
  184.8970  178.8350  140.2710 C   0  0  0  0  0  1  0  0  0  0  0  0
  183.9000  179.5560  139.4290 C   0  0  0  0  0  0  0  0  0  0  0  0
  184.2090  180.6660  138.9240 O   0  0  0  0  0  0  0  0  0  0  0  0
  181.2330  174.5750  138.8270 C   0  0  0  0  0  2  0  0  0  0  0  0
  179.7670  174.4280  139.2080 C   0  0  0  0  0  2  0  0  0  0  0  0
  179.0660  173.4570  138.2760 C   0  0  0  0  0  2  0  0  0  0  0  0
  180.0540  172.4170  137.7990 C   0  0  0  0  0  1  0  0  0  0  0  0
  188.9400  175.6340  138.0600 C   0  0  1  0  0  3  0  0  0  0  0  0
  191.2370  175.7900  137.2430 C   0  0  0  0  0  3  0  0  0  0  0  0
  190.2860  175.0440  137.7960 C   0  0  0  0  0  3  0  0  0  0  0  0
  192.8860  173.9610  137.2800 C   0  0  0  0  0  3  0  0  0  0  0  0
  194.8190  175.5530  136.0400 C   0  0  0  0  0  0  0  0  0  0  0  0
  193.5480  176.0720  136.3040 C   0  0  0  0  0  3  0  0  0  0  0  0
  194.1550  173.4420  137.0130 C   0  0  0  0  0  3  0  0  0  0  0  0
  192.5740  175.2740  136.9240 C   0  0  0  0  0  0  0  0  0  0  0  0
  195.7550  176.3230  135.4320 F   0  0  0  0  0  0  0  0  0  0  0  0
  195.1220  174.2380  136.3920 C   0  0  0  0  0  3  0  0  0  0  0  0
  189.0350  177.0940  138.5070 C   0  0  0  0  0  2  0  0  0  0  0  0
  188.3130  177.5710  140.8560 C   0  0  0  0  0  3  0  0  0  0  0  0
  189.8750  177.3900  142.7150 C   0  0  0  0  0  0  0  0  0  0  0  0
  190.6040  176.9020  140.4480 C   0  0  0  0  0  3  0  0  0  0  0  0
  190.8810  177.0030  141.8160 C   0  0  0  0  0  3  0  0  0  0  0  0
  188.5900  177.6740  142.2250 C   0  0  0  0  0  3  0  0  0  0  0  0
  189.3180  177.1810  139.9660 C   0  0  0  0  0  0  0  0  0  0  0  0
  190.1670  177.5110  144.1540 C   0  0  0  0  0  0  0  0  0  0  0  0
  191.3550  177.5870  144.5610 O   0  0  0  0  0  0  0  0  0  0  0  0
  189.1270  177.5480  145.0780 O   0  0  0  0  0  1  0  0  0  0  0  0
  1 12  1  0  0  0  0
  3 19  1  1  0  0  0
  4  6  1  0  0  0  0
  6 13  1  1  0  0  0
  7  6  1  0  0  0  0
  8 17  1  0  0  0  0
 10  5  1  6  0  0  0
 10  7  1  0  0  0  0
 10  3  1  0  0  0  0
 11  6  1  0  0  0  0
 11 17  1  0  0  0  0
 14 15  1  0  0  0  0
 14  1  1  0  0  0  0
 15  2  1  6  0  0  0
 15  8  1  0  0  0  0
 16  9  1  1  0  0  0
 16  3  1  0  0  0  0
 16 18  1  0  0  0  0
 17 36  1  0  0  0  0
 18 12  1  0  0  0  0
 20 23  1  6  0  0  0
 20 25  1  0  0  0  0
 21 19  1  6  0  0  0
 21 25  1  0  0  0  0
 21 32  1  0  0  0  0
 22 21  1  0  0  0  0
 24 22  1  0  0  0  0
 24 20  1  0  0  0  0
 25 27  1  6  0  0  0
 27 26  1  1  0  0  0
 28 30  1  0  0  0  0
 28 27  1  0  0  0  0
 30 29  1  0  0  0  0
 31 30  2  0  0  0  0
 32 33  1  0  0  0  0
 34 33  1  0  0  0  0
 35 34  1  0  0  0  0
 36 38  1  6  0  0  0
 36 46  1  0  0  0  0
 37 38  2  0  0  0  0
 40 41  2  0  0  0  0
 40 45  1  0  0  0  0
 41 43  1  0  0  0  0
 42 39  1  0  0  0  0
 43 37  1  0  0  0  0
 43 39  2  0  0  0  0
 44 40  1  0  0  0  0
 45 42  2  0  0  0  0
 46 52  1  0  0  0  0
 47 51  1  0  0  0  0
 48 53  1  0  0  0  0
 49 50  2  0  0  0  0
 50 48  1  0  0  0  0
 51 48  2  0  0  0  0
 52 49  1  0  0  0  0
 52 47  2  0  0  0  0
 53 54  2  0  0  0  0
 53 55  1  0  0  0  0
M  END
>  <MODEL>
4

>  <REMARK>
 VINA RESULT:      -4.4      3.132      6.660
  Name = 
  13 active torsions:
  status: ('A' for Active; 'I' for Inactive)
    1  A    between atoms: C_2  and  C_44
    2  A    between atoms: C_6  and  C_8
    3  A    between atoms: C_6  and  C_46
    4  A    between atoms: C_7  and  C_8
    5  A    between atoms: C_10  and  C_32
    6  A    between atoms: N_11  and  C_38
    7  A    between atoms: C_12  and  C_14
    8  A    between atoms: C_14  and  C_46
    9  A    between atoms: C_28  and  C_49
   10  A    between atoms: C_33  and  C_49
   11  A    between atoms: C_33  and  C_52
   12  A    between atoms: C_38  and  C_53
   13  A    between atoms: N_45  and  C_49
                            x       y       z     vdW  Elec       q    Type
                         _______ _______ _______ _____ _____    ______ ____

>  <TORSDO>
F 13

$$$$
=
 OpenBabel10262420393D

 55 58  0  0  1  0  0  0  0  0999 V2000
  185.1660  177.8790  142.6300 C   0  0  0  0  0  2  0  0  0  0  0  0
  188.4250  178.9410  143.6070 C   0  0  0  0  0  1  0  0  0  0  0  0
  183.2640  178.7120  138.8770 C   0  0  2  0  0  3  0  0  0  0  0  0
  186.7740  179.7750  137.0480 O   0  0  0  0  0  1  0  0  0  0  0  0
  184.1800  180.8650  138.3990 O   0  0  0  0  0  1  0  0  0  0  0  0
  186.6480  178.8300  138.0710 C   0  0  2  0  0  0  0  0  0  0  0  0
  185.6370  179.2010  138.9890 O   0  0  0  0  0  0  0  0  0  0  0  0
  188.2350  178.9090  141.1450 C   0  0  0  0  0  2  0  0  0  0  0  0
  182.0410  179.2060  140.8670 F   0  0  0  0  0  0  0  0  0  0  0  0
  184.4420  179.4980  138.3040 C   0  0  1  0  0  3  0  0  0  0  0  0
  187.9830  178.7710  138.8080 C   0  0  0  0  0  2  0  0  0  0  0  0
  184.8580  177.3840  141.2250 C   0  0  0  0  0  2  0  0  0  0  0  0
  186.3610  177.4620  137.4630 C   0  0  0  0  0  1  0  0  0  0  0  0
  186.1880  179.0030  142.5680 C   0  0  0  0  0  2  0  0  0  0  0  0
  187.5970  178.4440  142.4470 C   0  0  2  0  0  3  0  0  0  0  0  0
  183.2520  178.7190  140.4140 C   0  0  1  0  0  3  0  0  0  0  0  0
  187.8860  178.0060  140.0550 N   0  0  0  0  0  0  0  0  0  0  0  0
  183.4840  177.4520  140.9720 O   0  0  0  0  0  0  0  0  0  0  0  0
  183.1920  177.3180  138.2530 C   0  0  0  0  0  2  0  0  0  0  0  0
  181.0040  175.0010  137.7490 C   0  0  1  0  0  3  0  0  0  0  0  0
  181.9780  177.1310  137.3270 C   0  0  2  0  0  0  0  0  0  0  0  0
  180.7970  177.3610  138.0690 O   0  0  0  0  0  0  0  0  0  0  0  0
  181.7120  174.5240  138.8520 O   0  0  0  0  0  1  0  0  0  0  0  0
  180.1170  176.1320  138.1950 C   0  0  0  0  0  2  0  0  0  0  0  0
  181.9210  175.7000  136.7860 C   0  0  1  0  0  3  0  0  0  0  0  0
  183.8970  175.5100  135.2510 C   0  0  0  0  0  1  0  0  0  0  0  0
  183.2690  174.9970  136.5380 C   0  0  2  0  0  3  0  0  0  0  0  0
  183.0770  173.5550  136.4390 N   0  0  0  0  0  2  0  0  0  0  0  0
  185.2860  173.0400  137.5930 C   0  0  0  0  0  1  0  0  0  0  0  0
  184.0190  172.6030  136.9390 C   0  0  0  0  0  0  0  0  0  0  0  0
  183.7680  171.3740  136.8440 O   0  0  0  0  0  0  0  0  0  0  0  0
  182.0710  178.1350  136.1690 C   0  0  0  0  0  2  0  0  0  0  0  0
  180.7920  178.9360  135.9660 C   0  0  0  0  0  2  0  0  0  0  0  0
  180.9420  180.3350  136.5340 C   0  0  0  0  0  2  0  0  0  0  0  0
  180.2520  181.3240  135.6210 C   0  0  0  0  0  1  0  0  0  0  0  0
  188.8320  176.8760  140.0940 C   0  0  1  0  0  3  0  0  0  0  0  0
  189.7670  175.7320  138.1490 C   0  0  0  0  0  3  0  0  0  0  0  0
  188.6950  176.0130  138.8840 C   0  0  0  0  0  3  0  0  0  0  0  0
  188.8410  175.3050  135.9070 C   0  0  0  0  0  3  0  0  0  0  0  0
  190.3720  172.9870  135.6130 C   0  0  0  0  0  0  0  0  0  0  0  0
  190.4740  173.7510  136.7790 C   0  0  0  0  0  3  0  0  0  0  0  0
  188.7410  174.5420  134.7410 C   0  0  0  0  0  3  0  0  0  0  0  0
  189.7080  174.9180  136.9290 C   0  0  0  0  0  0  0  0  0  0  0  0
  191.1200  171.8650  135.4680 F   0  0  0  0  0  0  0  0  0  0  0  0
  189.5080  173.3830  134.5940 C   0  0  0  0  0  3  0  0  0  0  0  0
  190.2890  177.2630  140.3570 C   0  0  0  0  0  2  0  0  0  0  0  0
  190.1240  175.8940  142.4470 C   0  0  0  0  0  3  0  0  0  0  0  0
  191.3140  176.5370  144.4710 C   0  0  0  0  0  0  0  0  0  0  0  0
  191.5110  177.8780  142.4530 C   0  0  0  0  0  3  0  0  0  0  0  0
  191.8420  177.6470  143.7940 C   0  0  0  0  0  3  0  0  0  0  0  0
  190.4530  175.6640  143.7890 C   0  0  0  0  0  3  0  0  0  0  0  0
  190.6550  177.0000  141.7770 C   0  0  0  0  0  0  0  0  0  0  0  0
  191.6500  176.2980  145.8860 C   0  0  0  0  0  0  0  0  0  0  0  0
  192.4150  175.3530  146.2100 O   0  0  0  0  0  0  0  0  0  0  0  0
  191.1280  177.1230  146.8770 O   0  0  0  0  0  1  0  0  0  0  0  0
  3 19  1  1  0  0  0
  3 16  1  0  0  0  0
  4  6  1  0  0  0  0
  6 13  1  6  0  0  0
  6 11  1  0  0  0  0
  6  7  1  0  0  0  0
  8 15  1  0  0  0  0
 10  5  1  1  0  0  0
 10  3  1  0  0  0  0
 10  7  1  0  0  0  0
 11 17  1  0  0  0  0
 12  1  1  0  0  0  0
 14  1  1  0  0  0  0
 15 14  1  0  0  0  0
 15  2  1  1  0  0  0
 16  9  1  6  0  0  0
 16 18  1  0  0  0  0
 17 36  1  0  0  0  0
 17  8  1  0  0  0  0
 18 12  1  0  0  0  0
 20 24  1  0  0  0  0
 20 23  1  1  0  0  0
 21 32  1  6  0  0  0
 21 22  1  0  0  0  0
 21 19  1  0  0  0  0
 22 24  1  0  0  0  0
 25 27  1  1  0  0  0
 25 21  1  0  0  0  0
 25 20  1  0  0  0  0
 27 26  1  6  0  0  0
 28 27  1  0  0  0  0
 28 30  1  0  0  0  0
 30 29  1  0  0  0  0
 31 30  2  0  0  0  0
 33 32  1  0  0  0  0
 33 34  1  0  0  0  0
 35 34  1  0  0  0  0
 36 38  1  6  0  0  0
 36 46  1  0  0  0  0
 37 38  2  0  0  0  0
 39 43  1  0  0  0  0
 40 41  1  0  0  0  0
 41 43  2  0  0  0  0
 42 39  2  0  0  0  0
 43 37  1  0  0  0  0
 44 40  1  0  0  0  0
 45 42  1  0  0  0  0
 45 40  2  0  0  0  0
 46 52  1  0  0  0  0
 47 51  1  0  0  0  0
 48 53  1  0  0  0  0
 49 50  2  0  0  0  0
 50 48  1  0  0  0  0
 51 48  2  0  0  0  0
 52 47  2  0  0  0  0
 52 49  1  0  0  0  0
 53 54  2  0  0  0  0
 53 55  1  0  0  0  0
M  END
>  <MODEL>
5

>  <REMARK>
 VINA RESULT:      -4.1      2.787      5.302
  Name = 
  13 active torsions:
  status: ('A' for Active; 'I' for Inactive)
    1  A    between atoms: C_2  and  C_44
    2  A    between atoms: C_6  and  C_8
    3  A    between atoms: C_6  and  C_46
    4  A    between atoms: C_7  and  C_8
    5  A    between atoms: C_10  and  C_32
    6  A    between atoms: N_11  and  C_38
    7  A    between atoms: C_12  and  C_14
    8  A    between atoms: C_14  and  C_46
    9  A    between atoms: C_28  and  C_49
   10  A    between atoms: C_33  and  C_49
   11  A    between atoms: C_33  and  C_52
   12  A    between atoms: C_38  and  C_53
   13  A    between atoms: N_45  and  C_49
                            x       y       z     vdW  Elec       q    Type
                         _______ _______ _______ _____ _____    ______ ____

>  <TORSDO>
F 13

$$$$
=
 OpenBabel10262420393D

 55 58  0  0  1  0  0  0  0  0999 V2000
  181.1590  177.7390  142.5680 C   0  0  0  0  0  2  0  0  0  0  0  0
  183.0200  179.3760  145.1290 C   0  0  0  0  0  1  0  0  0  0  0  0
  181.5200  178.4390  138.3510 C   0  0  2  0  0  3  0  0  0  0  0  0
  185.1340  180.3380  138.7210 O   0  0  0  0  0  1  0  0  0  0  0  0
  182.0650  180.7640  138.3460 O   0  0  0  0  0  1  0  0  0  0  0  0
  184.6680  179.3140  139.5520 C   0  0  2  0  0  0  0  0  0  0  0  0
  183.2670  179.3980  139.7340 O   0  0  0  0  0  0  0  0  0  0  0  0
  184.2340  179.4900  142.9800 C   0  0  0  0  0  2  0  0  0  0  0  0
  179.3310  178.5200  139.2990 F   0  0  0  0  0  0  0  0  0  0  0  0
  182.6190  179.4920  138.4860 C   0  0  1  0  0  3  0  0  0  0  0  0
  185.3500  179.4770  140.9070 C   0  0  0  0  0  2  0  0  0  0  0  0
  181.7920  177.2980  141.2570 C   0  0  0  0  0  2  0  0  0  0  0  0
  185.0640  177.9650  138.9620 C   0  0  0  0  0  1  0  0  0  0  0  0
  181.7780  179.0520  143.0220 C   0  0  0  0  0  2  0  0  0  0  0  0
  183.0990  178.8060  143.7330 C   0  0  2  0  0  3  0  0  0  0  0  0
  180.6610  178.3290  139.6210 C   0  0  1  0  0  3  0  0  0  0  0  0
  184.7460  178.6170  141.9300 N   0  0  0  0  0  0  0  0  0  0  0  0
  180.8090  177.0990  140.2810 O   0  0  0  0  0  0  0  0  0  0  0  0
  182.1030  177.1110  137.8680 C   0  0  0  0  0  2  0  0  0  0  0  0
  179.6890  175.1820  136.9420 C   0  0  1  0  0  3  0  0  0  0  0  0
  181.5180  176.6450  136.5240 C   0  0  2  0  0  0  0  0  0  0  0  0
  180.3380  177.3780  136.2610 O   0  0  0  0  0  0  0  0  0  0  0  0
  179.5250  175.2410  138.3260 O   0  0  0  0  0  1  0  0  0  0  0  0
  179.2470  176.4900  136.3460 C   0  0  0  0  0  2  0  0  0  0  0  0
  181.1470  175.1610  136.5770 C   0  0  1  0  0  3  0  0  0  0  0  0
  182.9660  175.1010  138.3030 C   0  0  0  0  0  1  0  0  0  0  0  0
  182.0300  174.2540  137.4550 C   0  0  2  0  0  3  0  0  0  0  0  0
  182.8170  173.3540  136.6200 N   0  0  0  0  0  2  0  0  0  0  0  0
  181.0580  171.5150  136.7030 C   0  0  0  0  0  1  0  0  0  0  0  0
  182.3730  172.0480  136.2430 C   0  0  0  0  0  0  0  0  0  0  0  0
  183.0960  171.3400  135.4950 O   0  0  0  0  0  0  0  0  0  0  0  0
  182.5480  176.8980  135.4140 C   0  0  0  0  0  2  0  0  0  0  0  0
  183.9550  177.1380  135.9450 C   0  0  0  0  0  2  0  0  0  0  0  0
  184.9850  176.4770  135.0480 C   0  0  0  0  0  2  0  0  0  0  0  0
  186.1360  177.4300  134.8190 C   0  0  0  0  0  1  0  0  0  0  0  0
  185.7280  177.7080  142.5480 C   0  0  1  0  0  3  0  0  0  0  0  0
  187.5470  177.1300  141.0240 C   0  0  0  0  0  3  0  0  0  0  0  0
  187.0950  177.9240  141.9890 C   0  0  0  0  0  3  0  0  0  0  0  0
  189.9810  177.3660  141.3080 C   0  0  0  0  0  3  0  0  0  0  0  0
  190.3900  177.4570  138.5450 C   0  0  0  0  0  0  0  0  0  0  0  0
  189.0980  177.3080  139.0580 C   0  0  0  0  0  3  0  0  0  0  0  0
  191.2730  177.5130  140.7940 C   0  0  0  0  0  3  0  0  0  0  0  0
  188.8900  177.2590  140.4450 C   0  0  0  0  0  0  0  0  0  0  0  0
  190.5890  177.4950  137.2040 F   0  0  0  0  0  0  0  0  0  0  0  0
  191.4770  177.5580  139.4120 C   0  0  0  0  0  3  0  0  0  0  0  0
  185.7310  177.7040  144.0780 C   0  0  0  0  0  2  0  0  0  0  0  0
  187.9610  176.5680  144.0150 C   0  0  0  0  0  3  0  0  0  0  0  0
  189.7000  177.1170  145.6280 C   0  0  0  0  0  0  0  0  0  0  0  0
  187.5520  178.2530  145.7050 C   0  0  0  0  0  3  0  0  0  0  0  0
  188.8420  178.0600  146.2150 C   0  0  0  0  0  3  0  0  0  0  0  0
  189.2510  176.3730  144.5260 C   0  0  0  0  0  3  0  0  0  0  0  0
  187.1120  177.5110  144.6020 C   0  0  0  0  0  0  0  0  0  0  0  0
  191.0530  176.9020  146.1700 C   0  0  0  0  0  0  0  0  0  0  0  0
  192.0330  176.7350  145.3980 O   0  0  0  0  0  0  0  0  0  0  0  0
  191.2610  176.8870  147.5460 O   0  0  0  0  0  1  0  0  0  0  0  0
  1 14  1  0  0  0  0
  3 19  1  1  0  0  0
  3 10  1  0  0  0  0
  3 16  1  0  0  0  0
  4  6  1  0  0  0  0
  6 13  1  6  0  0  0
  6  7  1  0  0  0  0
  6 11  1  0  0  0  0
  8 15  1  0  0  0  0
 10  5  1  1  0  0  0
 10  7  1  0  0  0  0
 11 17  1  0  0  0  0
 12  1  1  0  0  0  0
 14 15  1  0  0  0  0
 15  2  1  1  0  0  0
 16  9  1  6  0  0  0
 16 18  1  0  0  0  0
 17 36  1  0  0  0  0
 17  8  1  0  0  0  0
 18 12  1  0  0  0  0
 20 23  1  1  0  0  0
 21 32  1  6  0  0  0
 21 25  1  0  0  0  0
 21 19  1  0  0  0  0
 22 24  1  0  0  0  0
 22 21  1  0  0  0  0
 24 20  1  0  0  0  0
 25 20  1  0  0  0  0
 25 27  1  1  0  0  0
 27 26  1  6  0  0  0
 28 27  1  0  0  0  0
 30 28  1  0  0  0  0
 30 29  1  0  0  0  0
 31 30  2  0  0  0  0
 32 33  1  0  0  0  0
 34 33  1  0  0  0  0
 35 34  1  0  0  0  0
 36 38  1  1  0  0  0
 36 46  1  0  0  0  0
 37 38  2  0  0  0  0
 40 41  2  0  0  0  0
 40 45  1  0  0  0  0
 41 43  1  0  0  0  0
 42 39  1  0  0  0  0
 43 37  1  0  0  0  0
 43 39  2  0  0  0  0
 44 40  1  0  0  0  0
 45 42  2  0  0  0  0
 46 52  1  0  0  0  0
 47 51  2  0  0  0  0
 47 52  1  0  0  0  0
 48 53  1  0  0  0  0
 48 50  2  0  0  0  0
 49 50  1  0  0  0  0
 51 48  1  0  0  0  0
 52 49  2  0  0  0  0
 53 55  1  0  0  0  0
 54 53  2  0  0  0  0
M  END
>  <MODEL>
6

>  <REMARK>
 VINA RESULT:      -3.5      2.059      3.546
  Name = 
  13 active torsions:
  status: ('A' for Active; 'I' for Inactive)
    1  A    between atoms: C_2  and  C_44
    2  A    between atoms: C_6  and  C_8
    3  A    between atoms: C_6  and  C_46
    4  A    between atoms: C_7  and  C_8
    5  A    between atoms: C_10  and  C_32
    6  A    between atoms: N_11  and  C_38
    7  A    between atoms: C_12  and  C_14
    8  A    between atoms: C_14  and  C_46
    9  A    between atoms: C_28  and  C_49
   10  A    between atoms: C_33  and  C_49
   11  A    between atoms: C_33  and  C_52
   12  A    between atoms: C_38  and  C_53
   13  A    between atoms: N_45  and  C_49
                            x       y       z     vdW  Elec       q    Type
                         _______ _______ _______ _____ _____    ______ ____

>  <TORSDO>
F 13

$$$$
