=
 OpenBabel10262423353D

 34 37  0  0  1  0  0  0  0  0999 V2000
  188.8840  176.6550  144.1980 C   0  0  1  0  0  3  0  0  0  0  0  0
  186.6240  176.8950  145.9040 C   0  0  0  0  0  2  0  0  0  0  0  0
  184.2260  179.4630  142.5950 N   0  0  0  0  0  0  0  0  0  0  0  0
  187.6580  177.5190  146.7990 C   0  0  0  0  0  3  0  0  0  0  0  0
  190.7230  176.3400  142.3610 C   0  0  2  0  0  3  0  0  0  0  0  0
  189.6650  175.7100  143.2750 C   0  0  0  0  0  2  0  0  0  0  0  0
  190.3000  178.7390  144.7110 C   0  0  0  0  0  2  0  0  0  0  0  0
  190.8770  178.6710  143.3000 C   0  0  0  0  0  2  0  0  0  0  0  0
  184.1980  178.5220  144.8160 C   0  0  0  0  0  3  0  0  0  0  0  0
  191.6300  177.3750  143.0300 C   0  0  0  0  0  2  0  0  0  0  0  0
  188.9650  177.7190  146.5490 C   0  0  0  0  0  0  0  0  0  0  0  0
  189.6890  177.4340  145.2430 C   0  0  1  0  0  3  0  0  0  0  0  0
  189.7220  178.2610  147.5800 O   0  0  0  0  0  1  0  0  0  0  0  0
  185.4660  178.2330  144.0970 C   0  0  0  0  0  0  0  0  0  0  0  0
  183.3920  179.3460  143.7910 C   0  0  0  0  0  2  0  0  0  0  0  0
  185.4360  178.7850  142.8500 C   0  0  0  0  0  0  0  0  0  0  0  0
  186.5120  178.6740  141.9690 C   0  0  0  0  0  3  0  0  0  0  0  0
  186.5820  177.5180  144.5430 C   0  0  0  0  0  0  0  0  0  0  0  0
  187.6440  177.9610  142.3940 C   0  0  0  0  0  3  0  0  0  0  0  0
  187.6740  177.3660  143.6710 C   0  0  0  0  0  0  0  0  0  0  0  0
  190.1460  176.8140  141.0330 C   0  0  0  0  0  2  0  0  0  0  0  0
  191.2590  177.2010  140.0720 C   0  0  0  0  0  2  0  0  0  0  0  0
  191.1000  176.4700  138.7390 C   0  0  0  0  0  2  0  0  0  0  0  0
  189.6710  176.5070  138.1930 C   0  0  2  0  0  3  0  0  0  0  0  0
  189.5340  175.6350  136.9540 C   0  0  0  0  0  2  0  0  0  0  0  0
  189.0120  173.2220  136.7540 C   0  0  0  0  0  1  0  0  0  0  0  0
  190.0310  174.2300  137.2410 C   0  0  0  0  0  2  0  0  0  0  0  0
  189.1950  177.9290  137.9230 C   0  0  0  0  0  2  0  0  0  0  0  0
  187.8620  178.1700  138.6080 C   0  0  0  0  0  2  0  0  0  0  0  0
  186.7960  178.2180  137.6230 N   0  0  0  0  0  0  0  0  0  0  0  0
  187.1590  178.5590  136.2530 C   0  0  0  0  0  1  0  0  0  0  0  0
  185.4900  177.7510  138.0050 C   0  0  0  0  0  3  0  0  0  0  0  0
  184.5630  178.4680  138.6480 C   0  0  0  0  0  3  0  0  0  0  0  0
  184.7660  179.8150  139.0610 N   0  0  0  0  0  1  0  0  0  0  0  0
  1  6  1  6  0  0  0
  1 12  1  0  0  0  0
  2  4  1  0  0  0  0
  3 16  2  0  0  0  0
  3 15  1  0  0  0  0
  5 21  1  6  0  0  0
  5 10  1  0  0  0  0
  5  6  1  0  0  0  0
  8  7  1  0  0  0  0
 10  8  1  0  0  0  0
 11  4  2  0  0  0  0
 11 13  1  0  0  0  0
 12  7  1  6  0  0  0
 12 11  1  0  0  0  0
 14 18  1  0  0  0  0
 14  9  2  0  0  0  0
 15  9  1  0  0  0  0
 16 14  1  0  0  0  0
 17 19  2  0  0  0  0
 17 16  1  0  0  0  0
 18  2  1  0  0  0  0
 19 20  1  0  0  0  0
 20  1  1  0  0  0  0
 20 18  2  0  0  0  0
 22 21  1  0  0  0  0
 23 22  1  0  0  0  0
 24 25  1  6  0  0  0
 24 23  1  0  0  0  0
 25 27  1  0  0  0  0
 26 27  1  0  0  0  0
 28 24  1  0  0  0  0
 28 29  1  0  0  0  0
 30 32  1  0  0  0  0
 30 29  1  0  0  0  0
 31 30  1  0  0  0  0
 32 33  2  0  0  0  0
 33 34  1  0  0  0  0
M  END
>  <MODEL>
1

>  <REMARK>
 VINA RESULT:      -8.5      0.000      0.000
  Name = 
  10 active torsions:
  status: ('A' for Active; 'I' for Inactive)
    1  A    between atoms: C_6  and  C_28
    2  A    between atoms: C_6  and  C_30
    3  A    between atoms: N_7  and  C_11
    4  A    between atoms: N_7  and  C_29
    5  A    between atoms: C_8  and  C_18
    6  A    between atoms: C_16  and  C_28
    7  A    between atoms: C_16  and  C_31
    8  A    between atoms: C_18  and  C_30
    9  A    between atoms: C_26  and  C_28
   10  A    between atoms: C_26  and  C_29
                            x       y       z     vdW  Elec       q    Type
                         _______ _______ _______ _____ _____    ______ ____

>  <TORSDO>
F 10

$$$$
=
 OpenBabel10262423353D

 34 37  0  0  1  0  0  0  0  0999 V2000
  188.7880  176.6790  144.1330 C   0  0  1  0  0  3  0  0  0  0  0  0
  186.5610  176.8720  145.8880 C   0  0  0  0  0  2  0  0  0  0  0  0
  184.1110  179.5490  142.7060 N   0  0  0  0  0  0  0  0  0  0  0  0
  187.6140  177.4660  146.7830 C   0  0  0  0  0  3  0  0  0  0  0  0
  190.5910  176.4160  142.2540 C   0  0  2  0  0  3  0  0  0  0  0  0
  189.5490  175.7610  143.1670 C   0  0  0  0  0  2  0  0  0  0  0  0
  190.2210  178.7420  144.6840 C   0  0  0  0  0  2  0  0  0  0  0  0
  190.7710  178.7160  143.2610 C   0  0  0  0  0  2  0  0  0  0  0  0
  184.1210  178.5390  144.8970 C   0  0  0  0  0  3  0  0  0  0  0  0
  191.5150  177.4270  142.9370 C   0  0  0  0  0  2  0  0  0  0  0  0
  188.9170  177.6700  146.5150 C   0  0  0  0  0  0  0  0  0  0  0  0
  189.6160  177.4230  145.1880 C   0  0  1  0  0  3  0  0  0  0  0  0
  189.6950  178.1760  147.5470 O   0  0  0  0  0  1  0  0  0  0  0  0
  185.3750  178.2700  144.1460 C   0  0  0  0  0  0  0  0  0  0  0  0
  183.2990  179.3970  143.9130 C   0  0  0  0  0  2  0  0  0  0  0  0
  185.3230  178.8600  142.9180 C   0  0  0  0  0  0  0  0  0  0  0  0
  186.3820  178.7730  142.0140 C   0  0  0  0  0  3  0  0  0  0  0  0
  186.4960  177.5370  144.5490 C   0  0  0  0  0  0  0  0  0  0  0  0
  187.5190  178.0440  142.3950 C   0  0  0  0  0  3  0  0  0  0  0  0
  187.5710  177.4090  143.6520 C   0  0  0  0  0  0  0  0  0  0  0  0
  189.9920  176.9330  140.9520 C   0  0  0  0  0  2  0  0  0  0  0  0
  191.0790  177.1660  139.9150 C   0  0  0  0  0  2  0  0  0  0  0  0
  191.0550  176.0700  138.8500 C   0  0  0  0  0  2  0  0  0  0  0  0
  191.1530  176.6100  137.4220 C   0  0  2  0  0  3  0  0  0  0  0  0
  189.8140  177.1570  136.9490 C   0  0  0  0  0  2  0  0  0  0  0  0
  187.4370  177.0320  137.6370 C   0  0  0  0  0  1  0  0  0  0  0  0
  188.6890  176.2260  137.3620 C   0  0  0  0  0  2  0  0  0  0  0  0
  191.6990  175.5710  136.4500 C   0  0  0  0  0  2  0  0  0  0  0  0
  192.2880  174.4010  137.2160 C   0  0  0  0  0  2  0  0  0  0  0  0
  193.7130  174.3010  136.9550 N   0  0  0  0  0  0  0  0  0  0  0  0
  194.1260  173.8970  135.6170 C   0  0  0  0  0  1  0  0  0  0  0  0
  194.6270  174.7780  137.9580 C   0  0  0  0  0  3  0  0  0  0  0  0
  195.3700  174.0130  138.7630 C   0  0  0  0  0  3  0  0  0  0  0  0
  195.3360  172.5900  138.7380 N   0  0  0  0  0  1  0  0  0  0  0  0
  1  6  1  6  0  0  0
  1 12  1  0  0  0  0
  2  4  1  0  0  0  0
  3 16  2  0  0  0  0
  3 15  1  0  0  0  0
  5 21  1  6  0  0  0
  5 10  1  0  0  0  0
  5  6  1  0  0  0  0
  8  7  1  0  0  0  0
 10  8  1  0  0  0  0
 11  4  2  0  0  0  0
 11 13  1  0  0  0  0
 12  7  1  6  0  0  0
 12 11  1  0  0  0  0
 14 18  1  0  0  0  0
 14  9  2  0  0  0  0
 15  9  1  0  0  0  0
 16 14  1  0  0  0  0
 17 19  2  0  0  0  0
 17 16  1  0  0  0  0
 18  2  1  0  0  0  0
 19 20  1  0  0  0  0
 20  1  1  0  0  0  0
 20 18  2  0  0  0  0
 22 21  1  0  0  0  0
 23 22  1  0  0  0  0
 24 28  1  6  0  0  0
 24 23  1  0  0  0  0
 25 27  1  0  0  0  0
 25 24  1  0  0  0  0
 27 26  1  0  0  0  0
 28 29  1  0  0  0  0
 30 29  1  0  0  0  0
 30 32  1  0  0  0  0
 31 30  1  0  0  0  0
 32 33  2  0  0  0  0
 34 33  1  0  0  0  0
M  END
>  <MODEL>
2

>  <REMARK>
 VINA RESULT:      -8.1      2.696      4.223
  Name = 
  10 active torsions:
  status: ('A' for Active; 'I' for Inactive)
    1  A    between atoms: C_6  and  C_28
    2  A    between atoms: C_6  and  C_30
    3  A    between atoms: N_7  and  C_11
    4  A    between atoms: N_7  and  C_29
    5  A    between atoms: C_8  and  C_18
    6  A    between atoms: C_16  and  C_28
    7  A    between atoms: C_16  and  C_31
    8  A    between atoms: C_18  and  C_30
    9  A    between atoms: C_26  and  C_28
   10  A    between atoms: C_26  and  C_29
                            x       y       z     vdW  Elec       q    Type
                         _______ _______ _______ _____ _____    ______ ____

>  <TORSDO>
F 10

$$$$
=
 OpenBabel10262423353D

 34 37  0  0  1  0  0  0  0  0999 V2000
  188.8570  176.6560  144.1420 C   0  0  1  0  0  3  0  0  0  0  0  0
  186.5770  176.8810  145.8240 C   0  0  0  0  0  2  0  0  0  0  0  0
  184.2200  179.4860  142.5140 N   0  0  0  0  0  0  0  0  0  0  0  0
  187.6010  177.4950  146.7380 C   0  0  0  0  0  3  0  0  0  0  0  0
  190.7170  176.3590  142.3250 C   0  0  2  0  0  3  0  0  0  0  0  0
  189.6480  175.7210  143.2190 C   0  0  0  0  0  2  0  0  0  0  0  0
  190.2680  178.7340  144.6950 C   0  0  0  0  0  2  0  0  0  0  0  0
  190.8620  178.6800  143.2900 C   0  0  0  0  0  2  0  0  0  0  0  0
  184.1660  178.5210  144.7250 C   0  0  0  0  0  3  0  0  0  0  0  0
  191.6170  177.3860  143.0150 C   0  0  0  0  0  2  0  0  0  0  0  0
  188.9110  177.6960  146.5060 C   0  0  0  0  0  0  0  0  0  0  0  0
  189.6500  177.4240  145.2060 C   0  0  1  0  0  3  0  0  0  0  0  0
  189.6560  178.2250  147.5510 O   0  0  0  0  0  1  0  0  0  0  0  0
  185.4420  178.2390  144.0180 C   0  0  0  0  0  0  0  0  0  0  0  0
  183.3720  179.3570  143.6990 C   0  0  0  0  0  2  0  0  0  0  0  0
  185.4270  178.8040  142.7770 C   0  0  0  0  0  0  0  0  0  0  0  0
  186.5130  178.7010  141.9080 C   0  0  0  0  0  3  0  0  0  0  0  0
  186.5510  177.5180  144.4700 C   0  0  0  0  0  0  0  0  0  0  0  0
  187.6390  177.9830  142.3380 C   0  0  0  0  0  3  0  0  0  0  0  0
  187.6540  177.3740  143.6090 C   0  0  0  0  0  0  0  0  0  0  0  0
  190.1570  176.8480  140.9950 C   0  0  0  0  0  2  0  0  0  0  0  0
  191.2810  177.1450  140.0150 C   0  0  0  0  0  2  0  0  0  0  0  0
  190.7810  177.0490  138.5740 C   0  0  0  0  0  2  0  0  0  0  0  0
  191.0560  175.6910  137.9250 C   0  0  2  0  0  3  0  0  0  0  0  0
  192.2280  175.7710  136.9590 C   0  0  0  0  0  2  0  0  0  0  0  0
  193.8770  174.0600  137.6590 C   0  0  0  0  0  1  0  0  0  0  0  0
  193.5340  175.5350  137.6950 C   0  0  0  0  0  2  0  0  0  0  0  0
  189.8190  175.1170  137.2440 C   0  0  0  0  0  2  0  0  0  0  0  0
  189.3380  176.0620  136.1580 C   0  0  0  0  0  2  0  0  0  0  0  0
  187.8970  176.2250  136.2410 N   0  0  0  0  0  0  0  0  0  0  0  0
  187.1010  175.7630  135.1120 C   0  0  0  0  0  1  0  0  0  0  0  0
  187.3290  176.6560  137.4900 C   0  0  0  0  0  3  0  0  0  0  0  0
  187.1670  177.9250  137.8770 C   0  0  0  0  0  3  0  0  0  0  0  0
  187.5630  179.0390  137.0840 N   0  0  0  0  0  1  0  0  0  0  0  0
  1  6  1  6  0  0  0
  1 12  1  0  0  0  0
  2  4  1  0  0  0  0
  3 16  2  0  0  0  0
  3 15  1  0  0  0  0
  5 21  1  6  0  0  0
  5 10  1  0  0  0  0
  5  6  1  0  0  0  0
  8  7  1  0  0  0  0
 10  8  1  0  0  0  0
 11  4  2  0  0  0  0
 11 13  1  0  0  0  0
 12  7  1  6  0  0  0
 12 11  1  0  0  0  0
 14 18  1  0  0  0  0
 14  9  2  0  0  0  0
 15  9  1  0  0  0  0
 16 14  1  0  0  0  0
 17 19  2  0  0  0  0
 17 16  1  0  0  0  0
 18  2  1  0  0  0  0
 19 20  1  0  0  0  0
 20  1  1  0  0  0  0
 20 18  2  0  0  0  0
 22 21  1  0  0  0  0
 23 22  1  0  0  0  0
 24 25  1  6  0  0  0
 24 23  1  0  0  0  0
 25 27  1  0  0  0  0
 26 27  1  0  0  0  0
 28 24  1  0  0  0  0
 29 30  1  0  0  0  0
 29 28  1  0  0  0  0
 30 32  1  0  0  0  0
 31 30  1  0  0  0  0
 32 33  2  0  0  0  0
 34 33  1  0  0  0  0
M  END
>  <MODEL>
3

>  <REMARK>
 VINA RESULT:      -8.0      1.252      1.818
  Name = 
  10 active torsions:
  status: ('A' for Active; 'I' for Inactive)
    1  A    between atoms: C_6  and  C_28
    2  A    between atoms: C_6  and  C_30
    3  A    between atoms: N_7  and  C_11
    4  A    between atoms: N_7  and  C_29
    5  A    between atoms: C_8  and  C_18
    6  A    between atoms: C_16  and  C_28
    7  A    between atoms: C_16  and  C_31
    8  A    between atoms: C_18  and  C_30
    9  A    between atoms: C_26  and  C_28
   10  A    between atoms: C_26  and  C_29
                            x       y       z     vdW  Elec       q    Type
                         _______ _______ _______ _____ _____    ______ ____

>  <TORSDO>
F 10

$$$$
=
 OpenBabel10262423353D

 34 37  0  0  1  0  0  0  0  0999 V2000
  182.3080  178.8740  140.4790 C   0  0  1  0  0  3  0  0  0  0  0  0
  181.3830  179.3770  143.1190 C   0  0  0  0  0  2  0  0  0  0  0  0
  185.6800  178.2240  144.9920 N   0  0  0  0  0  0  0  0  0  0  0  0
  180.3830  178.3280  142.7190 C   0  0  0  0  0  3  0  0  0  0  0  0
  183.4570  178.6130  138.1420 C   0  0  2  0  0  3  0  0  0  0  0  0
  182.7650  179.5200  139.1650 C   0  0  0  0  0  2  0  0  0  0  0  0
  181.8580  176.3690  140.1080 C   0  0  0  0  0  2  0  0  0  0  0  0
  183.0090  176.3310  139.1060 C   0  0  0  0  0  2  0  0  0  0  0  0
  183.4100  178.9090  145.4400 C   0  0  0  0  0  3  0  0  0  0  0  0
  182.7880  177.2550  137.9150 C   0  0  0  0  0  2  0  0  0  0  0  0
  180.2950  177.6620  141.5520 C   0  0  0  0  0  0  0  0  0  0  0  0
  181.2620  177.7580  140.3830 C   0  0  1  0  0  3  0  0  0  0  0  0
  179.2280  176.7850  141.4120 O   0  0  0  0  0  1  0  0  0  0  0  0
  183.6740  178.7470  143.9870 C   0  0  0  0  0  0  0  0  0  0  0  0
  184.7640  178.5490  146.0860 C   0  0  0  0  0  2  0  0  0  0  0  0
  184.9650  178.3590  143.7830 C   0  0  0  0  0  0  0  0  0  0  0  0
  185.4710  178.1230  142.5050 C   0  0  0  0  0  3  0  0  0  0  0  0
  182.7990  178.9380  142.9120 C   0  0  0  0  0  0  0  0  0  0  0  0
  184.6120  178.3060  141.4100 C   0  0  0  0  0  3  0  0  0  0  0  0
  183.2840  178.7310  141.6080 C   0  0  0  0  0  0  0  0  0  0  0  0
  184.9600  178.5130  138.3660 C   0  0  0  0  0  2  0  0  0  0  0  0
  185.6120  177.6790  137.2740 C   0  0  0  0  0  2  0  0  0  0  0  0
  187.0250  177.2640  137.6830 C   0  0  0  0  0  2  0  0  0  0  0  0
  188.0750  178.3460  137.4220 C   0  0  2  0  0  3  0  0  0  0  0  0
  188.8970  178.0260  136.1820 C   0  0  0  0  0  2  0  0  0  0  0  0
  189.7740  175.8320  135.4410 C   0  0  0  0  0  1  0  0  0  0  0  0
  189.8950  176.9250  136.4820 C   0  0  0  0  0  2  0  0  0  0  0  0
  188.9710  178.5820  138.6320 C   0  0  0  0  0  2  0  0  0  0  0  0
  188.3240  178.0080  139.8790 C   0  0  0  0  0  2  0  0  0  0  0  0
  189.3440  177.5270  140.7930 N   0  0  0  0  0  0  0  0  0  0  0  0
  190.4500  176.7640  140.2290 C   0  0  0  0  0  1  0  0  0  0  0  0
  189.3080  177.9810  142.1580 C   0  0  0  0  0  3  0  0  0  0  0  0
  188.8660  177.2750  143.2040 C   0  0  0  0  0  3  0  0  0  0  0  0
  188.3470  175.9540  143.0900 N   0  0  0  0  0  1  0  0  0  0  0  0
  1  6  1  6  0  0  0
  1 20  1  0  0  0  0
  3 15  1  0  0  0  0
  4  2  1  0  0  0  0
  5 21  1  1  0  0  0
  5  6  1  0  0  0  0
  8  7  1  0  0  0  0
  9 15  1  0  0  0  0
 10  5  1  0  0  0  0
 10  8  1  0  0  0  0
 11  4  2  0  0  0  0
 12  7  1  1  0  0  0
 12  1  1  0  0  0  0
 12 11  1  0  0  0  0
 13 11  1  0  0  0  0
 14  9  2  0  0  0  0
 16 14  1  0  0  0  0
 16  3  2  0  0  0  0
 17 16  1  0  0  0  0
 18  2  1  0  0  0  0
 18 14  1  0  0  0  0
 19 20  1  0  0  0  0
 19 17  2  0  0  0  0
 20 18  2  0  0  0  0
 22 23  1  0  0  0  0
 22 21  1  0  0  0  0
 24 25  1  6  0  0  0
 24 23  1  0  0  0  0
 24 28  1  0  0  0  0
 25 27  1  0  0  0  0
 26 27  1  0  0  0  0
 28 29  1  0  0  0  0
 29 30  1  0  0  0  0
 30 32  1  0  0  0  0
 31 30  1  0  0  0  0
 32 33  2  0  0  0  0
 34 33  1  0  0  0  0
M  END
>  <MODEL>
4

>  <REMARK>
 VINA RESULT:      -7.4      3.109      6.259
  Name = 
  10 active torsions:
  status: ('A' for Active; 'I' for Inactive)
    1  A    between atoms: C_6  and  C_28
    2  A    between atoms: C_6  and  C_30
    3  A    between atoms: N_7  and  C_11
    4  A    between atoms: N_7  and  C_29
    5  A    between atoms: C_8  and  C_18
    6  A    between atoms: C_16  and  C_28
    7  A    between atoms: C_16  and  C_31
    8  A    between atoms: C_18  and  C_30
    9  A    between atoms: C_26  and  C_28
   10  A    between atoms: C_26  and  C_29
                            x       y       z     vdW  Elec       q    Type
                         _______ _______ _______ _____ _____    ______ ____

>  <TORSDO>
F 10

$$$$
=
 OpenBabel10262423353D

 34 37  0  0  1  0  0  0  0  0999 V2000
  182.3630  178.8640  140.5170 C   0  0  1  0  0  3  0  0  0  0  0  0
  181.4590  179.4060  143.1560 C   0  0  0  0  0  2  0  0  0  0  0  0
  185.7720  178.2860  145.0120 N   0  0  0  0  0  0  0  0  0  0  0  0
  180.4570  178.3500  142.7800 C   0  0  0  0  0  3  0  0  0  0  0  0
  183.4940  178.5690  138.1740 C   0  0  2  0  0  3  0  0  0  0  0  0
  182.8080  179.4910  139.1890 C   0  0  0  0  0  2  0  0  0  0  0  0
  181.9130  176.3540  140.1880 C   0  0  0  0  0  2  0  0  0  0  0  0
  183.0550  176.3020  139.1770 C   0  0  0  0  0  2  0  0  0  0  0  0
  183.5060  178.9760  145.4670 C   0  0  0  0  0  3  0  0  0  0  0  0
  182.8240  177.2070  137.9740 C   0  0  0  0  0  2  0  0  0  0  0  0
  180.3610  177.6680  141.6250 C   0  0  0  0  0  0  0  0  0  0  0  0
  181.3170  177.7460  140.4460 C   0  0  1  0  0  3  0  0  0  0  0  0
  179.2930  176.7870  141.5070 O   0  0  0  0  0  1  0  0  0  0  0  0
  183.7580  178.7920  144.0150 C   0  0  0  0  0  0  0  0  0  0  0  0
  184.8660  178.6270  146.1080 C   0  0  0  0  0  2  0  0  0  0  0  0
  185.0480  178.4020  143.8070 C   0  0  0  0  0  0  0  0  0  0  0  0
  185.5430  178.1470  142.5280 C   0  0  0  0  0  3  0  0  0  0  0  0
  182.8740  178.9660  142.9450 C   0  0  0  0  0  0  0  0  0  0  0  0
  184.6760  178.3120  141.4370 C   0  0  0  0  0  3  0  0  0  0  0  0
  183.3480  178.7400  141.6400 C   0  0  0  0  0  0  0  0  0  0  0  0
  184.9980  178.4740  138.3870 C   0  0  0  0  0  2  0  0  0  0  0  0
  185.6770  177.8730  137.1670 C   0  0  0  0  0  2  0  0  0  0  0  0
  186.9860  178.6010  136.8630 C   0  0  0  0  0  2  0  0  0  0  0  0
  188.2310  177.7810  137.2110 C   0  0  2  0  0  3  0  0  0  0  0  0
  189.0650  178.4760  138.2770 C   0  0  0  0  0  2  0  0  0  0  0  0
  189.4630  177.5170  140.5260 C   0  0  0  0  0  1  0  0  0  0  0  0
  188.4640  178.2450  139.6500 C   0  0  0  0  0  2  0  0  0  0  0  0
  189.0690  177.4560  135.9800 C   0  0  0  0  0  2  0  0  0  0  0  0
  188.3990  176.3610  135.1700 C   0  0  0  0  0  2  0  0  0  0  0  0
  188.5550  175.0810  135.8370 N   0  0  0  0  0  0  0  0  0  0  0  0
  187.3670  174.4790  136.4280 C   0  0  0  0  0  1  0  0  0  0  0  0
  189.8160  174.3980  135.7190 C   0  0  0  0  0  3  0  0  0  0  0  0
  190.7410  174.2970  136.6790 C   0  0  0  0  0  3  0  0  0  0  0  0
  190.5960  174.8840  137.9680 N   0  0  0  0  0  1  0  0  0  0  0  0
  1  6  1  6  0  0  0
  1 20  1  0  0  0  0
  3 15  1  0  0  0  0
  4  2  1  0  0  0  0
  5 21  1  1  0  0  0
  5  6  1  0  0  0  0
  8  7  1  0  0  0  0
  9 15  1  0  0  0  0
 10  5  1  0  0  0  0
 10  8  1  0  0  0  0
 11  4  2  0  0  0  0
 12  7  1  1  0  0  0
 12  1  1  0  0  0  0
 12 11  1  0  0  0  0
 13 11  1  0  0  0  0
 14  9  2  0  0  0  0
 16 14  1  0  0  0  0
 16  3  2  0  0  0  0
 17 16  1  0  0  0  0
 18  2  1  0  0  0  0
 18 14  1  0  0  0  0
 19 20  1  0  0  0  0
 19 17  2  0  0  0  0
 20 18  2  0  0  0  0
 22 21  1  0  0  0  0
 23 22  1  0  0  0  0
 23 24  1  0  0  0  0
 24 28  1  6  0  0  0
 24 25  1  0  0  0  0
 25 27  1  0  0  0  0
 27 26  1  0  0  0  0
 29 30  1  0  0  0  0
 29 28  1  0  0  0  0
 30 31  1  0  0  0  0
 32 30  1  0  0  0  0
 32 33  2  0  0  0  0
 33 34  1  0  0  0  0
M  END
>  <MODEL>
5

>  <REMARK>
 VINA RESULT:      -6.7      3.370      6.424
  Name = 
  10 active torsions:
  status: ('A' for Active; 'I' for Inactive)
    1  A    between atoms: C_6  and  C_28
    2  A    between atoms: C_6  and  C_30
    3  A    between atoms: N_7  and  C_11
    4  A    between atoms: N_7  and  C_29
    5  A    between atoms: C_8  and  C_18
    6  A    between atoms: C_16  and  C_28
    7  A    between atoms: C_16  and  C_31
    8  A    between atoms: C_18  and  C_30
    9  A    between atoms: C_26  and  C_28
   10  A    between atoms: C_26  and  C_29
                            x       y       z     vdW  Elec       q    Type
                         _______ _______ _______ _____ _____    ______ ____

>  <TORSDO>
F 10

$$$$
=
 OpenBabel10262423353D

 34 37  0  0  1  0  0  0  0  0999 V2000
  183.2450  177.1740  138.3870 C   0  0  1  0  0  3  0  0  0  0  0  0
  183.9490  176.0220  135.8870 C   0  0  0  0  0  2  0  0  0  0  0  0
  188.3110  178.0860  136.0070 N   0  0  0  0  0  0  0  0  0  0  0  0
  182.7230  176.7790  135.4570 C   0  0  0  0  0  3  0  0  0  0  0  0
  182.9290  178.1170  140.8090 C   0  0  2  0  0  3  0  0  0  0  0  0
  183.0470  176.9000  139.8840 C   0  0  0  0  0  2  0  0  0  0  0  0
  182.2390  179.4610  137.7800 C   0  0  0  0  0  2  0  0  0  0  0  0
  182.6640  179.9900  139.1470 C   0  0  0  0  0  2  0  0  0  0  0  0
  186.7750  176.7030  134.7620 C   0  0  0  0  0  3  0  0  0  0  0  0
  182.0160  179.2360  140.3010 C   0  0  0  0  0  2  0  0  0  0  0  0
  181.9210  177.5600  136.2040 C   0  0  0  0  0  0  0  0  0  0  0  0
  182.1280  177.9340  137.6630 C   0  0  1  0  0  3  0  0  0  0  0  0
  180.8060  178.0950  135.5730 O   0  0  0  0  0  1  0  0  0  0  0  0
  186.2030  177.1560  136.0560 C   0  0  0  0  0  0  0  0  0  0  0  0
  188.1800  177.3420  134.7550 C   0  0  0  0  0  3  0  0  0  0  0  0
  187.1040  177.9340  136.7230 C   0  0  0  0  0  0  0  0  0  0  0  0
  186.8130  178.5020  137.9630 C   0  0  0  0  0  3  0  0  0  0  0  0
  184.9430  176.8850  136.5990 C   0  0  2  0  0  3  0  0  0  0  0  0
  185.5540  178.2450  138.5280 C   0  0  0  0  0  3  0  0  0  0  0  0
  184.6260  177.4220  137.8600 C   0  0  0  0  0  0  0  0  0  0  0  0
  184.2810  178.6190  141.2980 C   0  0  0  0  0  2  0  0  0  0  0  0
  184.4890  178.2640  142.7620 C   0  0  0  0  0  2  0  0  0  0  0  0
  185.9480  178.4690  143.1660 C   0  0  0  0  0  2  0  0  0  0  0  0
  186.4630  177.4080  144.1410 C   0  0  2  0  0  3  0  0  0  0  0  0
  186.6670  177.9920  145.5310 C   0  0  0  0  0  2  0  0  0  0  0  0
  188.0540  177.9030  147.5820 C   0  0  0  0  0  1  0  0  0  0  0  0
  187.9680  177.4900  146.1280 C   0  0  0  0  0  2  0  0  0  0  0  0
  187.7300  176.7280  143.6370 C   0  0  0  0  0  2  0  0  0  0  0  0
  188.2960  177.4950  142.4550 C   0  0  0  0  0  2  0  0  0  0  0  0
  189.4690  176.8150  141.9360 N   0  0  0  0  0  0  0  0  0  0  0  0
  189.8810  177.1260  140.5730 C   0  0  0  0  0  1  0  0  0  0  0  0
  190.2580  176.0240  142.8420 C   0  0  0  0  0  3  0  0  0  0  0  0
  191.2530  176.4780  143.6100 C   0  0  0  0  0  3  0  0  0  0  0  0
  191.6780  177.8370  143.6140 N   0  0  0  0  0  1  0  0  0  0  0  0
  1  6  1  1  0  0  0
  3 16  1  0  0  0  0
  4  2  1  0  0  0  0
  4 11  2  0  0  0  0
  5 21  1  6  0  0  0
  6  5  1  0  0  0  0
  7  8  1  0  0  0  0
  8 10  1  0  0  0  0
  9 14  2  0  0  0  0
 10  5  1  0  0  0  0
 11 12  1  0  0  0  0
 12  7  1  6  0  0  0
 12  1  1  0  0  0  0
 13 11  1  0  0  0  0
 14 18  1  0  0  0  0
 14 16  1  0  0  0  0
 15  9  1  0  0  0  0
 15  3  2  0  0  0  0
 16 17  2  0  0  0  0
 17 19  1  0  0  0  0
 18  2  1  1  0  0  0
 18 20  1  0  0  0  0
 20  1  1  0  0  0  0
 20 19  2  0  0  0  0
 21 22  1  0  0  0  0
 22 23  1  0  0  0  0
 24 23  1  6  0  0  0
 24 25  1  0  0  0  0
 25 27  1  0  0  0  0
 27 26  1  0  0  0  0
 28 24  1  0  0  0  0
 29 28  1  0  0  0  0
 30 29  1  0  0  0  0
 30 32  1  0  0  0  0
 31 30  1  0  0  0  0
 32 33  2  0  0  0  0
 33 34  1  0  0  0  0
M  END
>  <MODEL>
6

>  <REMARK>
 VINA RESULT:      -6.7      3.571      8.737
  Name = 
  10 active torsions:
  status: ('A' for Active; 'I' for Inactive)
    1  A    between atoms: C_6  and  C_28
    2  A    between atoms: C_6  and  C_30
    3  A    between atoms: N_7  and  C_11
    4  A    between atoms: N_7  and  C_29
    5  A    between atoms: C_8  and  C_18
    6  A    between atoms: C_16  and  C_28
    7  A    between atoms: C_16  and  C_31
    8  A    between atoms: C_18  and  C_30
    9  A    between atoms: C_26  and  C_28
   10  A    between atoms: C_26  and  C_29
                            x       y       z     vdW  Elec       q    Type
                         _______ _______ _______ _____ _____    ______ ____

>  <TORSDO>
F 10

$$$$
=
 OpenBabel10262423353D

 34 37  0  0  1  0  0  0  0  0999 V2000
  182.1260  178.8270  140.5140 C   0  0  1  0  0  3  0  0  0  0  0  0
  181.3550  179.4220  143.1840 C   0  0  0  0  0  2  0  0  0  0  0  0
  185.7310  178.2570  144.8550 N   0  0  0  0  0  0  0  0  0  0  0  0
  180.3190  178.3780  142.8710 C   0  0  0  0  0  3  0  0  0  0  0  0
  183.1420  178.4790  138.1270 C   0  0  2  0  0  3  0  0  0  0  0  0
  182.5190  179.4270  139.1580 C   0  0  0  0  0  2  0  0  0  0  0  0
  181.6210  176.3190  140.2440 C   0  0  0  0  0  2  0  0  0  0  0  0
  182.7140  176.2340  139.1830 C   0  0  0  0  0  2  0  0  0  0  0  0
  183.4990  178.9910  145.4040 C   0  0  0  0  0  3  0  0  0  0  0  0
  182.4420  177.1260  137.9780 C   0  0  0  0  0  2  0  0  0  0  0  0
  180.1580  177.6800  141.7310 C   0  0  0  0  0  0  0  0  0  0  0  0
  181.0600  177.7250  140.5090 C   0  0  1  0  0  3  0  0  0  0  0  0
  179.0730  176.8160  141.6760 O   0  0  0  0  0  1  0  0  0  0  0  0
  183.6800  178.7820  143.9450 C   0  0  0  0  0  0  0  0  0  0  0  0
  184.8820  178.6290  145.9860 C   0  0  0  0  0  2  0  0  0  0  0  0
  184.9530  178.3670  143.6830 C   0  0  0  0  0  0  0  0  0  0  0  0
  185.3840  178.0860  142.3870 C   0  0  0  0  0  3  0  0  0  0  0  0
  182.7510  178.9540  142.9140 C   0  0  0  0  0  0  0  0  0  0  0  0
  184.4700  178.2500  141.3350 C   0  0  0  0  0  3  0  0  0  0  0  0
  183.1600  178.7020  141.5920 C   0  0  0  0  0  0  0  0  0  0  0  0
  184.6530  178.3620  138.2710 C   0  0  0  0  0  2  0  0  0  0  0  0
  185.2720  177.7950  137.0030 C   0  0  0  0  0  2  0  0  0  0  0  0
  186.5320  176.9940  137.3280 C   0  0  0  0  0  2  0  0  0  0  0  0
  186.5530  175.6060  136.6830 C   0  0  2  0  0  3  0  0  0  0  0  0
  185.4230  174.7370  137.2160 C   0  0  0  0  0  2  0  0  0  0  0  0
  184.5550  172.4170  137.2150 C   0  0  0  0  0  1  0  0  0  0  0  0
  185.8030  173.2710  137.1330 C   0  0  0  0  0  2  0  0  0  0  0  0
  187.9020  174.9170  136.8430 C   0  0  0  0  0  2  0  0  0  0  0  0
  189.0010  175.7810  136.2540 C   0  0  0  0  0  2  0  0  0  0  0  0
  190.0110  176.0590  137.2600 N   0  0  0  0  0  0  0  0  0  0  0  0
  190.9250  174.9810  137.6130 C   0  0  0  0  0  1  0  0  0  0  0  0
  190.1710  177.4150  137.7120 C   0  0  0  0  0  3  0  0  0  0  0  0
  189.8020  177.8890  138.9060 C   0  0  0  0  0  3  0  0  0  0  0  0
  189.1720  177.0890  139.9020 N   0  0  0  0  0  1  0  0  0  0  0  0
  1  6  1  6  0  0  0
  1 20  1  0  0  0  0
  3 15  1  0  0  0  0
  4  2  1  0  0  0  0
  5 21  1  1  0  0  0
  5  6  1  0  0  0  0
  8  7  1  0  0  0  0
  9 15  1  0  0  0  0
 10  5  1  0  0  0  0
 10  8  1  0  0  0  0
 11  4  2  0  0  0  0
 12  7  1  1  0  0  0
 12  1  1  0  0  0  0
 12 11  1  0  0  0  0
 13 11  1  0  0  0  0
 14  9  2  0  0  0  0
 16 14  1  0  0  0  0
 16  3  2  0  0  0  0
 17 16  1  0  0  0  0
 18  2  1  0  0  0  0
 18 14  1  0  0  0  0
 19 20  1  0  0  0  0
 19 17  2  0  0  0  0
 20 18  2  0  0  0  0
 22 23  1  0  0  0  0
 22 21  1  0  0  0  0
 24 28  1  1  0  0  0
 24 25  1  0  0  0  0
 24 23  1  0  0  0  0
 27 26  1  0  0  0  0
 27 25  1  0  0  0  0
 29 28  1  0  0  0  0
 29 30  1  0  0  0  0
 30 31  1  0  0  0  0
 30 32  1  0  0  0  0
 32 33  2  0  0  0  0
 33 34  1  0  0  0  0
M  END
>  <MODEL>
7

>  <REMARK>
 VINA RESULT:      -6.5      3.586      6.399
  Name = 
  10 active torsions:
  status: ('A' for Active; 'I' for Inactive)
    1  A    between atoms: C_6  and  C_28
    2  A    between atoms: C_6  and  C_30
    3  A    between atoms: N_7  and  C_11
    4  A    between atoms: N_7  and  C_29
    5  A    between atoms: C_8  and  C_18
    6  A    between atoms: C_16  and  C_28
    7  A    between atoms: C_16  and  C_31
    8  A    between atoms: C_18  and  C_30
    9  A    between atoms: C_26  and  C_28
   10  A    between atoms: C_26  and  C_29
                            x       y       z     vdW  Elec       q    Type
                         _______ _______ _______ _____ _____    ______ ____

>  <TORSDO>
F 10

$$$$
=
 OpenBabel10262423353D

 34 37  0  0  1  0  0  0  0  0999 V2000
  189.3770  176.2700  137.6810 C   0  0  1  0  0  3  0  0  0  0  0  0
  190.2800  175.1360  135.2370 C   0  0  0  0  0  2  0  0  0  0  0  0
  194.8800  176.1160  136.3200 N   0  0  0  0  0  0  0  0  0  0  0  0
  189.3540  176.1810  134.6790 C   0  0  0  0  0  3  0  0  0  0  0  0
  188.8150  177.1170  140.0940 C   0  0  2  0  0  3  0  0  0  0  0  0
  188.8410  175.9620  139.0860 C   0  0  0  0  0  2  0  0  0  0  0  0
  189.0300  178.7610  137.1430 C   0  0  0  0  0  2  0  0  0  0  0  0
  189.2890  179.0940  138.6100 C   0  0  0  0  0  2  0  0  0  0  0  0
  193.3480  175.2050  134.6940 C   0  0  0  0  0  3  0  0  0  0  0  0
  188.2830  178.4450  139.5510 C   0  0  0  0  0  2  0  0  0  0  0  0
  188.6130  177.0820  135.3520 C   0  0  0  0  0  0  0  0  0  0  0  0
  188.6130  177.3100  136.8540 C   0  0  1  0  0  3  0  0  0  0  0  0
  187.7840  177.8980  134.5940 O   0  0  0  0  0  1  0  0  0  0  0  0
  192.6510  175.7020  135.9090 C   0  0  0  0  0  0  0  0  0  0  0  0
  194.8330  175.4980  134.9960 C   0  0  0  0  0  3  0  0  0  0  0  0
  193.5550  176.2080  136.7960 C   0  0  0  0  0  0  0  0  0  0  0  0
  193.1620  176.7530  138.0180 C   0  0  0  0  0  3  0  0  0  0  0  0
  191.2820  175.6990  136.1950 C   0  0  2  0  0  3  0  0  0  0  0  0
  191.7930  176.7640  138.3280 C   0  0  0  0  0  3  0  0  0  0  0  0
  190.8540  176.2210  137.4290 C   0  0  0  0  0  0  0  0  0  0  0  0
  190.1250  177.2600  140.8580 C   0  0  0  0  0  2  0  0  0  0  0  0
  190.0340  176.5740  142.2130 C   0  0  0  0  0  2  0  0  0  0  0  0
  189.6150  177.5690  143.2950 C   0  0  0  0  0  2  0  0  0  0  0  0
  188.5200  177.0330  144.2200 C   0  0  2  0  0  3  0  0  0  0  0  0
  187.2320  176.7720  143.4530 C   0  0  0  0  0  2  0  0  0  0  0  0
  185.2430  178.2430  143.5850 C   0  0  0  0  0  1  0  0  0  0  0  0
  186.6240  178.0800  142.9840 C   0  0  0  0  0  2  0  0  0  0  0  0
  188.2750  177.9500  145.4130 C   0  0  0  0  0  2  0  0  0  0  0  0
  188.1330  177.1270  146.6800 C   0  0  0  0  0  2  0  0  0  0  0  0
  189.3130  177.2850  147.5120 N   0  0  0  0  0  0  0  0  0  0  0  0
  189.2450  178.2480  148.6020 C   0  0  0  0  0  1  0  0  0  0  0  0
  190.4030  176.3620  147.3340 C   0  0  0  0  0  3  0  0  0  0  0  0
  191.4900  176.5750  146.5860 C   0  0  0  0  0  3  0  0  0  0  0  0
  191.7030  177.7680  145.8390 N   0  0  0  0  0  1  0  0  0  0  0  0
  1  6  1  1  0  0  0
  3 16  1  0  0  0  0
  4  2  1  0  0  0  0
  4 11  2  0  0  0  0
  5 21  1  6  0  0  0
  6  5  1  0  0  0  0
  7  8  1  0  0  0  0
  8 10  1  0  0  0  0
  9 15  1  0  0  0  0
  9 14  2  0  0  0  0
 10  5  1  0  0  0  0
 11 12  1  0  0  0  0
 12  7  1  6  0  0  0
 12  1  1  0  0  0  0
 13 11  1  0  0  0  0
 14 18  1  0  0  0  0
 14 16  1  0  0  0  0
 15  3  2  0  0  0  0
 16 17  2  0  0  0  0
 17 19  1  0  0  0  0
 18  2  1  1  0  0  0
 18 20  1  0  0  0  0
 20  1  1  0  0  0  0
 20 19  2  0  0  0  0
 21 22  1  0  0  0  0
 22 23  1  0  0  0  0
 24 23  1  6  0  0  0
 24 28  1  0  0  0  0
 25 24  1  0  0  0  0
 27 25  1  0  0  0  0
 27 26  1  0  0  0  0
 28 29  1  0  0  0  0
 29 30  1  0  0  0  0
 30 31  1  0  0  0  0
 32 30  1  0  0  0  0
 33 32  2  0  0  0  0
 34 33  1  0  0  0  0
M  END
>  <MODEL>
8

>  <REMARK>
 VINA RESULT:      -6.1      3.817      9.183
  Name = 
  10 active torsions:
  status: ('A' for Active; 'I' for Inactive)
    1  A    between atoms: C_6  and  C_28
    2  A    between atoms: C_6  and  C_30
    3  A    between atoms: N_7  and  C_11
    4  A    between atoms: N_7  and  C_29
    5  A    between atoms: C_8  and  C_18
    6  A    between atoms: C_16  and  C_28
    7  A    between atoms: C_16  and  C_31
    8  A    between atoms: C_18  and  C_30
    9  A    between atoms: C_26  and  C_28
   10  A    between atoms: C_26  and  C_29
                            x       y       z     vdW  Elec       q    Type
                         _______ _______ _______ _____ _____    ______ ____

>  <TORSDO>
F 10

$$$$
=
 OpenBabel10262423353D

 34 37  0  0  1  0  0  0  0  0999 V2000
  189.5330  176.0180  137.9410 C   0  0  1  0  0  3  0  0  0  0  0  0
  190.4230  174.3720  135.8030 C   0  0  0  0  0  2  0  0  0  0  0  0
  195.0180  175.6480  136.5510 N   0  0  0  0  0  0  0  0  0  0  0  0
  189.4690  175.2480  135.0390 C   0  0  0  0  0  3  0  0  0  0  0  0
  188.9880  177.3820  140.1080 C   0  0  2  0  0  3  0  0  0  0  0  0
  189.0230  176.0290  139.3890 C   0  0  0  0  0  2  0  0  0  0  0  0
  189.1280  178.3150  136.8570 C   0  0  0  0  0  2  0  0  0  0  0  0
  189.4020  178.9770  138.2050 C   0  0  0  0  0  2  0  0  0  0  0  0
  193.4820  174.3660  135.2030 C   0  0  0  0  0  3  0  0  0  0  0  0
  188.4220  178.5440  139.2880 C   0  0  0  0  0  2  0  0  0  0  0  0
  188.7200  176.2660  135.5030 C   0  0  0  0  0  0  0  0  0  0  0  0
  188.7370  176.8310  136.9130 C   0  0  1  0  0  3  0  0  0  0  0  0
  187.8640  176.8750  134.5940 O   0  0  0  0  0  1  0  0  0  0  0  0
  192.7920  175.1140  136.2850 C   0  0  0  0  0  0  0  0  0  0  0  0
  194.9640  174.7430  135.4020 C   0  0  0  0  0  3  0  0  0  0  0  0
  193.6980  175.8230  137.0180 C   0  0  0  0  0  0  0  0  0  0  0  0
  193.3120  176.6260  138.0900 C   0  0  0  0  0  3  0  0  0  0  0  0
  191.4280  175.1550  136.5890 C   0  0  2  0  0  3  0  0  0  0  0  0
  191.9470  176.6850  138.4150 C   0  0  0  0  0  3  0  0  0  0  0  0
  191.0060  175.9360  137.6800 C   0  0  0  0  0  0  0  0  0  0  0  0
  190.3050  177.7170  140.7960 C   0  0  0  0  0  2  0  0  0  0  0  0
  190.1880  177.5300  142.3010 C   0  0  0  0  0  2  0  0  0  0  0  0
  188.8050  176.9970  142.6730 C   0  0  0  0  0  2  0  0  0  0  0  0
  188.2750  177.5570  143.9950 C   0  0  2  0  0  3  0  0  0  0  0  0
  188.7970  176.7570  145.1790 C   0  0  0  0  0  2  0  0  0  0  0  0
  188.5410  177.8560  147.3840 C   0  0  0  0  0  1  0  0  0  0  0  0
  189.4540  177.6790  146.1890 C   0  0  0  0  0  2  0  0  0  0  0  0
  186.7530  177.6420  144.0150 C   0  0  0  0  0  2  0  0  0  0  0  0
  186.2400  178.0960  142.6610 C   0  0  0  0  0  2  0  0  0  0  0  0
  184.8810  178.5930  142.7840 N   0  0  0  0  0  0  0  0  0  0  0  0
  184.6090  179.5560  143.8420 C   0  0  0  0  0  1  0  0  0  0  0  0
  183.9330  178.2550  141.7550 C   0  0  0  0  0  3  0  0  0  0  0  0
  183.9530  178.7080  140.4980 C   0  0  0  0  0  3  0  0  0  0  0  0
  184.9330  179.6200  140.0120 N   0  0  0  0  0  1  0  0  0  0  0  0
  1  6  1  1  0  0  0
  3 16  1  0  0  0  0
  4 11  2  0  0  0  0
  4  2  1  0  0  0  0
  5 21  1  6  0  0  0
  6  5  1  0  0  0  0
  7  8  1  0  0  0  0
  8 10  1  0  0  0  0
  9 15  1  0  0  0  0
  9 14  2  0  0  0  0
 10  5  1  0  0  0  0
 11 12  1  0  0  0  0
 12  7  1  6  0  0  0
 12  1  1  0  0  0  0
 13 11  1  0  0  0  0
 14 18  1  0  0  0  0
 14 16  1  0  0  0  0
 15  3  2  0  0  0  0
 16 17  2  0  0  0  0
 17 19  1  0  0  0  0
 18  2  1  1  0  0  0
 18 20  1  0  0  0  0
 20  1  1  0  0  0  0
 20 19  2  0  0  0  0
 21 22  1  0  0  0  0
 22 23  1  0  0  0  0
 24 23  1  6  0  0  0
 24 28  1  0  0  0  0
 24 25  1  0  0  0  0
 25 27  1  0  0  0  0
 27 26  1  0  0  0  0
 29 30  1  0  0  0  0
 29 28  1  0  0  0  0
 30 31  1  0  0  0  0
 32 30  1  0  0  0  0
 33 32  2  0  0  0  0
 34 33  1  0  0  0  0
M  END
>  <MODEL>
9

>  <REMARK>
 VINA RESULT:      -6.0      3.270      8.451
  Name = 
  10 active torsions:
  status: ('A' for Active; 'I' for Inactive)
    1  A    between atoms: C_6  and  C_28
    2  A    between atoms: C_6  and  C_30
    3  A    between atoms: N_7  and  C_11
    4  A    between atoms: N_7  and  C_29
    5  A    between atoms: C_8  and  C_18
    6  A    between atoms: C_16  and  C_28
    7  A    between atoms: C_16  and  C_31
    8  A    between atoms: C_18  and  C_30
    9  A    between atoms: C_26  and  C_28
   10  A    between atoms: C_26  and  C_29
                            x       y       z     vdW  Elec       q    Type
                         _______ _______ _______ _____ _____    ______ ____

>  <TORSDO>
F 10

$$$$
