=
 OpenBabel10262420033D

 27 32  0  0  1  0  0  0  0  0999 V2000
  181.6410  178.2430  140.9690 C   0  0  0  0  0  2  0  0  0  0  0  0
  182.9510  178.6640  138.8420 C   0  0  1  0  0  3  0  0  0  0  0  0
  184.5550  179.6020  140.6330 C   0  0  0  0  0  2  0  0  0  0  0  0
  186.2120  176.9740  136.5080 C   0  0  0  0  0  2  0  0  0  0  0  0
  188.0660  177.6100  137.6210 C   0  0  0  0  0  2  0  0  0  0  0  0
  183.1640  177.2190  138.7590 N   0  0  0  0  0  2  0  0  0  0  0  0
  186.5790  178.2530  139.0930 O   0  0  0  0  0  0  0  0  0  0  0  0
  186.0060  177.6850  143.3520 C   0  0  0  0  0  2  0  0  0  0  0  0
  187.4160  178.7290  138.1870 O   0  0  0  0  0  0  0  0  0  0  0  0
  185.4200  178.7600  144.2670 C   0  0  0  0  0  2  0  0  0  0  0  0
  185.2930  178.3540  138.5250 C   0  0  2  0  0  0  0  0  0  0  0  0
  181.8670  179.0310  139.7590 N   0  0  0  0  0  0  0  0  0  0  0  0
  187.1800  176.5320  137.4230 O   0  0  0  0  0  0  0  0  0  0  0  0
  185.0020  177.6640  137.1770 C   0  0  2  0  0  3  0  0  0  0  0  0
  182.1690  179.0030  142.1730 C   0  0  0  0  0  2  0  0  0  0  0  0
  184.2930  179.3270  139.1340 C   0  0  1  0  0  3  0  0  0  0  0  0
  185.8980  178.1250  141.8910 C   0  0  0  0  0  2  0  0  0  0  0  0
  184.5930  177.0040  138.4910 C   0  0  2  0  0  3  0  0  0  0  0  0
  184.1250  179.3650  143.7140 C   0  0  0  0  0  2  0  0  0  0  0  0
  183.5610  178.5170  142.5720 C   0  0  2  0  0  3  0  0  0  0  0  0
  184.5140  178.3790  141.4400 N   0  0  1  0  0  0  0  0  0  0  0  0
  179.3870  182.3720  138.8610 C   0  0  0  0  0  3  0  0  0  0  0  0
  181.0260  180.1650  139.4570 C   0  0  0  0  0  0  0  0  0  0  0  0
  181.3580  181.0440  138.4100 C   0  0  0  0  0  3  0  0  0  0  0  0
  180.5440  182.1400  138.1150 C   0  0  0  0  0  3  0  0  0  0  0  0
  179.0420  181.5070  139.9030 C   0  0  0  0  0  3  0  0  0  0  0  0
  179.8570  180.4100  140.1970 C   0  0  0  0  0  3  0  0  0  0  0  0
  1 15  1  0  0  0  0
  2  6  1  1  0  0  0
  2 16  1  0  0  0  0
  2 12  1  0  0  0  0
  4 13  1  0  0  0  0
  5  9  1  0  0  0  0
  8 10  1  0  0  0  0
  9  7  1  0  0  0  0
 11  7  1  1  0  0  0
 11 16  1  0  0  0  0
 12  1  1  0  0  0  0
 13  5  1  0  0  0  0
 14  4  1  1  0  0  0
 14 18  1  0  0  0  0
 14 11  1  0  0  0  0
 16  3  1  1  0  0  0
 17  8  1  0  0  0  0
 18 11  1  0  0  0  0
 18  6  1  6  0  0  0
 19 10  1  0  0  0  0
 20 15  1  6  0  0  0
 20 19  1  0  0  0  0
 21  3  1  1  0  0  0
 21 17  1  0  0  0  0
 21 20  1  0  0  0  0
 22 26  1  0  0  0  0
 23 12  1  0  0  0  0
 23 27  1  0  0  0  0
 24 23  2  0  0  0  0
 25 24  1  0  0  0  0
 25 22  2  0  0  0  0
 26 27  2  0  0  0  0
M  END
>  <MODEL>
1

>  <REMARK>
 VINA RESULT:      -6.2      0.000      0.000
  Name = 
  1 active torsions:
  status: ('A' for Active; 'I' for Inactive)
    1  A    between atoms: C_9  and  N_15
                            x       y       z     vdW  Elec       q    Type
                         _______ _______ _______ _____ _____    ______ ____

>  <TORSDO>
F 1

$$$$
=
 OpenBabel10262420033D

 27 32  0  0  1  0  0  0  0  0999 V2000
  181.0980  177.2710  140.3660 C   0  0  0  0  0  2  0  0  0  0  0  0
  181.0400  179.8030  140.3010 C   0  0  1  0  0  3  0  0  0  0  0  0
  182.5340  179.2670  138.2660 C   0  0  0  0  0  2  0  0  0  0  0  0
  179.0420  183.0700  138.2360 C   0  0  0  0  0  2  0  0  0  0  0  0
  180.0850  183.1740  136.2400 C   0  0  0  0  0  2  0  0  0  0  0  0
  179.6440  179.7000  139.8750 N   0  0  0  0  0  2  0  0  0  0  0  0
  180.9810  181.3140  136.9680 O   0  0  0  0  0  0  0  0  0  0  0  0
  181.5170  177.3170  135.3790 C   0  0  0  0  0  2  0  0  0  0  0  0
  181.2630  182.5880  136.7580 O   0  0  0  0  0  0  0  0  0  0  0  0
  182.7480  176.4600  135.6710 C   0  0  0  0  0  2  0  0  0  0  0  0
  180.8320  181.1750  138.3630 C   0  0  2  0  0  0  0  0  0  0  0  0
  181.5540  178.5600  140.8840 N   0  0  0  0  0  0  0  0  0  0  0  0
  178.9310  182.6920  136.8890 O   0  0  0  0  0  0  0  0  0  0  0  0
  179.7920  182.0380  139.1060 C   0  0  2  0  0  3  0  0  0  0  0  0
  182.1870  176.6620  139.4990 C   0  0  0  0  0  2  0  0  0  0  0  0
  181.8550  180.3510  139.1340 C   0  0  1  0  0  3  0  0  0  0  0  0
  181.5460  178.5850  136.2350 C   0  0  0  0  0  2  0  0  0  0  0  0
  179.4730  180.5950  138.7220 C   0  0  2  0  0  3  0  0  0  0  0  0
  183.0880  176.4020  137.1640 C   0  0  0  0  0  2  0  0  0  0  0  0
  181.9290  176.9230  138.0160 C   0  0  2  0  0  3  0  0  0  0  0  0
  181.5680  178.3270  137.6890 N   0  0  1  0  0  0  0  0  0  0  0  0
  184.3540  178.7340  144.0860 C   0  0  0  0  0  3  0  0  0  0  0  0
  182.5020  178.6170  141.9720 C   0  0  0  0  0  0  0  0  0  0  0  0
  183.8610  178.3260  141.7520 C   0  0  0  0  0  3  0  0  0  0  0  0
  184.7800  178.3840  142.8030 C   0  0  0  0  0  3  0  0  0  0  0  0
  183.0080  179.0280  144.3190 C   0  0  0  0  0  3  0  0  0  0  0  0
  182.0890  178.9700  143.2670 C   0  0  0  0  0  3  0  0  0  0  0  0
  1 12  1  0  0  0  0
  2  6  1  6  0  0  0
  2 12  1  0  0  0  0
  5  9  1  0  0  0  0
  5 13  1  0  0  0  0
  8 10  1  0  0  0  0
  8 17  1  0  0  0  0
  9  7  1  0  0  0  0
 10 19  1  0  0  0  0
 11  7  1  6  0  0  0
 11 18  1  0  0  0  0
 11 14  1  0  0  0  0
 11 16  1  0  0  0  0
 12 23  1  0  0  0  0
 13  4  1  0  0  0  0
 14  4  1  6  0  0  0
 15  1  1  0  0  0  0
 16  3  1  6  0  0  0
 16  2  1  0  0  0  0
 18 14  1  0  0  0  0
 18  6  1  1  0  0  0
 20 19  1  6  0  0  0
 20 15  1  0  0  0  0
 21 17  1  6  0  0  0
 21 20  1  0  0  0  0
 21  3  1  0  0  0  0
 22 26  1  0  0  0  0
 23 27  1  0  0  0  0
 24 23  2  0  0  0  0
 24 25  1  0  0  0  0
 25 22  2  0  0  0  0
 27 26  2  0  0  0  0
M  END
>  <MODEL>
2

>  <REMARK>
 VINA RESULT:      -6.2      3.097      6.402
  Name = 
  1 active torsions:
  status: ('A' for Active; 'I' for Inactive)
    1  A    between atoms: C_9  and  N_15
                            x       y       z     vdW  Elec       q    Type
                         _______ _______ _______ _____ _____    ______ ____

>  <TORSDO>
F 1

$$$$
=
 OpenBabel10262420033D

 27 32  0  0  1  0  0  0  0  0999 V2000
  188.9100  177.8710  135.6280 C   0  0  0  0  0  2  0  0  0  0  0  0
  188.0260  177.4630  137.9670 C   0  0  1  0  0  3  0  0  0  0  0  0
  189.8440  175.6410  137.7760 C   0  0  0  0  0  2  0  0  0  0  0  0
  189.0030  178.2960  142.1250 C   0  0  0  0  0  2  0  0  0  0  0  0
  190.6170  176.8000  142.6160 C   0  0  0  0  0  2  0  0  0  0  0  0
  188.6780  178.7110  138.3650 N   0  0  0  0  0  2  0  0  0  0  0  0
  190.5080  176.4500  140.4580 O   0  0  0  0  0  0  0  0  0  0  0  0
  193.3760  176.2610  137.2130 C   0  0  0  0  0  2  0  0  0  0  0  0
  190.1760  175.9050  141.6160 O   0  0  0  0  0  0  0  0  0  0  0  0
  193.2340  175.3080  136.0270 C   0  0  0  0  0  2  0  0  0  0  0  0
  189.3120  176.9520  139.9080 C   0  0  2  0  0  0  0  0  0  0  0  0
  187.8790  177.3330  136.5140 N   0  0  0  0  0  0  0  0  0  0  0  0
  190.3920  178.1440  142.2540 O   0  0  0  0  0  0  0  0  0  0  0  0
  188.4770  177.9720  140.7090 C   0  0  2  0  0  3  0  0  0  0  0  0
  189.7550  176.7300  135.0870 C   0  0  0  0  0  2  0  0  0  0  0  0
  188.7540  176.3080  138.6460 C   0  0  1  0  0  3  0  0  0  0  0  0
  192.1130  176.2150  138.0760 C   0  0  0  0  0  2  0  0  0  0  0  0
  189.4210  178.4390  139.6040 C   0  0  2  0  0  3  0  0  0  0  0  0
  191.8390  175.3540  135.3950 C   0  0  0  0  0  2  0  0  0  0  0  0
  191.0520  176.5730  135.8800 C   0  0  2  0  0  3  0  0  0  0  0  0
  190.8790  176.5900  137.3550 N   0  0  1  0  0  0  0  0  0  0  0  0
  184.4440  175.4090  134.8970 C   0  0  0  0  0  3  0  0  0  0  0  0
  186.7130  176.6800  135.9680 C   0  0  0  0  0  0  0  0  0  0  0  0
  185.8050  177.3920  135.1630 C   0  0  0  0  0  3  0  0  0  0  0  0
  184.6780  176.7600  134.6320 C   0  0  0  0  0  3  0  0  0  0  0  0
  185.3370  174.6880  135.6920 C   0  0  0  0  0  3  0  0  0  0  0  0
  186.4650  175.3210  136.2230 C   0  0  0  0  0  3  0  0  0  0  0  0
  1 12  1  0  0  0  0
  2  6  1  6  0  0  0
  2 16  1  0  0  0  0
  4 13  1  0  0  0  0
  7  9  1  0  0  0  0
  8 17  1  0  0  0  0
  9  5  1  0  0  0  0
 10  8  1  0  0  0  0
 11  7  1  1  0  0  0
 11 14  1  0  0  0  0
 12  2  1  0  0  0  0
 13  5  1  0  0  0  0
 14  4  1  1  0  0  0
 15  1  1  0  0  0  0
 16  3  1  6  0  0  0
 16 11  1  0  0  0  0
 18  6  1  6  0  0  0
 18 11  1  0  0  0  0
 18 14  1  0  0  0  0
 19 20  1  0  0  0  0
 19 10  1  0  0  0  0
 20 15  1  6  0  0  0
 20 21  1  0  0  0  0
 21  3  1  6  0  0  0
 21 17  1  0  0  0  0
 22 26  1  0  0  0  0
 23 27  1  0  0  0  0
 23 12  1  0  0  0  0
 24 23  2  0  0  0  0
 25 22  2  0  0  0  0
 25 24  1  0  0  0  0
 26 27  2  0  0  0  0
M  END
>  <MODEL>
3

>  <REMARK>
 VINA RESULT:      -6.2      5.468      7.826
  Name = 
  1 active torsions:
  status: ('A' for Active; 'I' for Inactive)
    1  A    between atoms: C_9  and  N_15
                            x       y       z     vdW  Elec       q    Type
                         _______ _______ _______ _____ _____    ______ ____

>  <TORSDO>
F 1

$$$$
=
 OpenBabel10262420033D

 27 32  0  0  1  0  0  0  0  0999 V2000
  189.4280  178.6040  139.0860 C   0  0  0  0  0  2  0  0  0  0  0  0
  190.7820  176.4620  139.0860 C   0  0  1  0  0  3  0  0  0  0  0  0
  188.7100  175.7640  137.7150 C   0  0  0  0  0  2  0  0  0  0  0  0
  193.4860  174.1910  136.5440 C   0  0  0  0  0  2  0  0  0  0  0  0
  192.1210  173.1730  135.0670 C   0  0  0  0  0  2  0  0  0  0  0  0
  191.7190  177.1260  138.1800 N   0  0  0  0  0  2  0  0  0  0  0  0
  190.6440  174.4850  136.0100 O   0  0  0  0  0  0  0  0  0  0  0  0
  187.6560  177.2880  134.5940 C   0  0  0  0  0  2  0  0  0  0  0  0
  191.0240  173.2200  135.9570 O   0  0  0  0  0  0  0  0  0  0  0  0
  186.3080  177.4920  135.2840 C   0  0  0  0  0  2  0  0  0  0  0  0
  191.0990  174.9750  137.2500 C   0  0  2  0  0  0  0  0  0  0  0  0
  189.8900  177.4000  139.7760 N   0  0  0  0  0  0  0  0  0  0  0  0
  192.9830  174.2750  135.2370 O   0  0  0  0  0  0  0  0  0  0  0  0
  192.6000  174.8990  137.5930 C   0  0  2  0  0  3  0  0  0  0  0  0
  187.9850  178.4140  138.6530 C   0  0  0  0  0  2  0  0  0  0  0  0
  190.0750  175.3540  138.3120 C   0  0  1  0  0  3  0  0  0  0  0  0
  188.5470  176.3800  135.4430 C   0  0  0  0  0  2  0  0  0  0  0  0
  191.9870  176.1970  137.0730 C   0  0  2  0  0  3  0  0  0  0  0  0
  186.4430  177.7010  136.7960 C   0  0  0  0  0  2  0  0  0  0  0  0
  187.8930  177.9950  137.1860 C   0  0  2  0  0  3  0  0  0  0  0  0
  188.8210  176.9020  136.7970 N   0  0  1  0  0  0  0  0  0  0  0  0
  188.6880  176.6150  143.7820 C   0  0  0  0  0  3  0  0  0  0  0  0
  189.4810  177.1330  141.1340 C   0  0  0  0  0  0  0  0  0  0  0  0
  190.2970  176.3730  141.9910 C   0  0  0  0  0  3  0  0  0  0  0  0
  189.9020  176.1160  143.3060 C   0  0  0  0  0  3  0  0  0  0  0  0
  187.8680  177.3730  142.9440 C   0  0  0  0  0  3  0  0  0  0  0  0
  188.2630  177.6310  141.6280 C   0  0  0  0  0  3  0  0  0  0  0  0
  1 12  1  0  0  0  0
  2  6  1  6  0  0  0
  2 12  1  0  0  0  0
  5 13  1  0  0  0  0
  5  9  1  0  0  0  0
  8 10  1  0  0  0  0
  8 17  1  0  0  0  0
  9  7  1  0  0  0  0
 10 19  1  0  0  0  0
 11  7  1  6  0  0  0
 11 14  1  0  0  0  0
 11 16  1  0  0  0  0
 12 23  1  0  0  0  0
 13  4  1  0  0  0  0
 14  4  1  6  0  0  0
 15  1  1  0  0  0  0
 16  3  1  6  0  0  0
 16  2  1  0  0  0  0
 18 11  1  0  0  0  0
 18 14  1  0  0  0  0
 18  6  1  1  0  0  0
 20 19  1  1  0  0  0
 20 15  1  0  0  0  0
 21 17  1  6  0  0  0
 21 20  1  0  0  0  0
 21  3  1  0  0  0  0
 23 27  2  0  0  0  0
 23 24  1  0  0  0  0
 24 25  2  0  0  0  0
 25 22  1  0  0  0  0
 26 22  2  0  0  0  0
 27 26  1  0  0  0  0
M  END
>  <MODEL>
4

>  <REMARK>
 VINA RESULT:      -6.1      5.351      8.280
  Name = 
  1 active torsions:
  status: ('A' for Active; 'I' for Inactive)
    1  A    between atoms: C_9  and  N_15
                            x       y       z     vdW  Elec       q    Type
                         _______ _______ _______ _____ _____    ______ ____

>  <TORSDO>
F 1

$$$$
=
 OpenBabel10262420033D

 27 32  0  0  1  0  0  0  0  0999 V2000
  183.8010  179.2950  139.1750 C   0  0  0  0  0  2  0  0  0  0  0  0
  182.6380  177.0830  139.5900 C   0  0  1  0  0  3  0  0  0  0  0  0
  180.6530  178.5980  138.9350 C   0  0  0  0  0  2  0  0  0  0  0  0
  181.0210  173.6740  137.4220 C   0  0  0  0  0  2  0  0  0  0  0  0
  179.0440  174.4170  136.6340 C   0  0  0  0  0  2  0  0  0  0  0  0
  183.2580  176.5960  138.3580 N   0  0  0  0  0  2  0  0  0  0  0  0
  179.8210  176.3220  137.3810 O   0  0  0  0  0  0  0  0  0  0  0  0
  180.2900  180.3130  135.7570 C   0  0  0  0  0  2  0  0  0  0  0  0
  178.9310  175.3850  137.6570 O   0  0  0  0  0  0  0  0  0  0  0  0
  180.1210  181.5810  136.5940 C   0  0  0  0  0  2  0  0  0  0  0  0
  180.8800  176.1320  138.2910 C   0  0  2  0  0  0  0  0  0  0  0  0
  183.2710  178.3010  140.1060 N   0  0  0  0  0  0  0  0  0  0  0  0
  180.3880  174.1830  136.2780 O   0  0  0  0  0  0  0  0  0  0  0  0
  181.6010  174.7700  138.3440 C   0  0  2  0  0  3  0  0  0  0  0  0
  182.8540  180.4820  139.1110 C   0  0  0  0  0  2  0  0  0  0  0  0
  181.1340  177.1900  139.3560 C   0  0  1  0  0  3  0  0  0  0  0  0
  180.2480  179.0800  136.6610 C   0  0  0  0  0  2  0  0  0  0  0  0
  182.2050  175.9390  137.5700 C   0  0  2  0  0  3  0  0  0  0  0  0
  180.9100  181.5320  137.9070 C   0  0  0  0  0  2  0  0  0  0  0  0
  181.9300  180.3910  137.8980 C   0  0  2  0  0  3  0  0  0  0  0  0
  181.2960  179.0620  137.7020 N   0  0  1  0  0  0  0  0  0  0  0  0
  183.5770  178.9110  144.3080 C   0  0  0  0  0  3  0  0  0  0  0  0
  183.3730  178.5060  141.5320 C   0  0  0  0  0  0  0  0  0  0  0  0
  184.6190  178.4200  142.1800 C   0  0  0  0  0  3  0  0  0  0  0  0
  184.7190  178.6210  143.5580 C   0  0  0  0  0  3  0  0  0  0  0  0
  182.3330  179.0020  143.6780 C   0  0  0  0  0  3  0  0  0  0  0  0
  182.2340  178.8010  142.2990 C   0  0  0  0  0  3  0  0  0  0  0  0
  1 12  1  0  0  0  0
  2  6  1  6  0  0  0
  2 12  1  0  0  0  0
  5  9  1  0  0  0  0
  7  9  1  0  0  0  0
  8 10  1  0  0  0  0
  8 17  1  0  0  0  0
 10 19  1  0  0  0  0
 11  7  1  6  0  0  0
 11 14  1  0  0  0  0
 11 16  1  0  0  0  0
 12 23  1  0  0  0  0
 13  5  1  0  0  0  0
 13  4  1  0  0  0  0
 14  4  1  6  0  0  0
 15  1  1  0  0  0  0
 16  3  1  6  0  0  0
 16  2  1  0  0  0  0
 18 11  1  0  0  0  0
 18 14  1  0  0  0  0
 18  6  1  1  0  0  0
 20 19  1  1  0  0  0
 20 15  1  0  0  0  0
 21 17  1  6  0  0  0
 21 20  1  0  0  0  0
 21  3  1  0  0  0  0
 23 24  2  0  0  0  0
 23 27  1  0  0  0  0
 24 25  1  0  0  0  0
 25 22  2  0  0  0  0
 26 22  1  0  0  0  0
 27 26  2  0  0  0  0
M  END
>  <MODEL>
5

>  <REMARK>
 VINA RESULT:      -6.0      3.436      6.072
  Name = 
  1 active torsions:
  status: ('A' for Active; 'I' for Inactive)
    1  A    between atoms: C_9  and  N_15
                            x       y       z     vdW  Elec       q    Type
                         _______ _______ _______ _____ _____    ______ ____

>  <TORSDO>
F 1

$$$$
=
 OpenBabel10262420033D

 27 32  0  0  1  0  0  0  0  0999 V2000
  183.5970  179.7470  139.1050 C   0  0  0  0  0  2  0  0  0  0  0  0
  183.3120  177.2380  139.3130 C   0  0  1  0  0  3  0  0  0  0  0  0
  180.9720  177.9590  138.4980 C   0  0  0  0  0  2  0  0  0  0  0  0
  183.2850  173.6400  136.8670 C   0  0  0  0  0  2  0  0  0  0  0  0
  181.2520  173.6580  135.8930 C   0  0  0  0  0  2  0  0  0  0  0  0
  184.1760  177.1040  138.1410 N   0  0  0  0  0  2  0  0  0  0  0  0
  181.1910  175.6560  136.7850 O   0  0  0  0  0  0  0  0  0  0  0  0
  180.2770  179.6470  135.3600 C   0  0  0  0  0  2  0  0  0  0  0  0
  180.6950  174.4390  136.9300 O   0  0  0  0  0  0  0  0  0  0  0  0
  179.5740  180.6990  136.2170 C   0  0  0  0  0  2  0  0  0  0  0  0
  182.1590  175.8040  137.7990 C   0  0  2  0  0  0  0  0  0  0  0  0
  183.3960  178.5620  139.9380 N   0  0  0  0  0  0  0  0  0  0  0  0
  182.6110  173.9620  135.6780 O   0  0  0  0  0  0  0  0  0  0  0  0
  183.3290  174.8020  137.8840 C   0  0  2  0  0  3  0  0  0  0  0  0
  182.2850  180.5030  138.9780 C   0  0  0  0  0  2  0  0  0  0  0  0
  181.9050  176.8010  138.9210 C   0  0  1  0  0  3  0  0  0  0  0  0
  180.6190  178.4220  136.2110 C   0  0  0  0  0  2  0  0  0  0  0  0
  183.5190  176.1640  137.2210 C   0  0  2  0  0  3  0  0  0  0  0  0
  180.2040  180.8480  137.6060 C   0  0  0  0  0  2  0  0  0  0  0  0
  181.5730  180.1670  137.6690 C   0  0  2  0  0  3  0  0  0  0  0  0
  181.5020  178.7160  137.3600 N   0  0  1  0  0  0  0  0  0  0  0  0
  183.0810  178.9350  144.1660 C   0  0  0  0  0  3  0  0  0  0  0  0
  183.2880  178.6870  141.3720 C   0  0  0  0  0  0  0  0  0  0  0  0
  184.4340  178.6230  142.1850 C   0  0  0  0  0  3  0  0  0  0  0  0
  184.3300  178.7460  143.5730 C   0  0  0  0  0  3  0  0  0  0  0  0
  181.9340  179.0030  143.3720 C   0  0  0  0  0  3  0  0  0  0  0  0
  182.0380  178.8810  141.9840 C   0  0  0  0  0  3  0  0  0  0  0  0
  1 12  1  0  0  0  0
  2  6  1  6  0  0  0
  2 12  1  0  0  0  0
  5  9  1  0  0  0  0
  7  9  1  0  0  0  0
  8 17  1  0  0  0  0
  8 10  1  0  0  0  0
 10 19  1  0  0  0  0
 11  7  1  6  0  0  0
 11 14  1  0  0  0  0
 11 16  1  0  0  0  0
 12 23  1  0  0  0  0
 13  5  1  0  0  0  0
 13  4  1  0  0  0  0
 14  4  1  6  0  0  0
 15  1  1  0  0  0  0
 16  3  1  6  0  0  0
 16  2  1  0  0  0  0
 18 11  1  0  0  0  0
 18 14  1  0  0  0  0
 18  6  1  1  0  0  0
 20 19  1  1  0  0  0
 20 15  1  0  0  0  0
 21 17  1  6  0  0  0
 21 20  1  0  0  0  0
 21  3  1  0  0  0  0
 23 27  2  0  0  0  0
 23 24  1  0  0  0  0
 24 25  2  0  0  0  0
 25 22  1  0  0  0  0
 26 22  2  0  0  0  0
 27 26  1  0  0  0  0
M  END
>  <MODEL>
6

>  <REMARK>
 VINA RESULT:      -5.9      2.990      5.695
  Name = 
  1 active torsions:
  status: ('A' for Active; 'I' for Inactive)
    1  A    between atoms: C_9  and  N_15
                            x       y       z     vdW  Elec       q    Type
                         _______ _______ _______ _____ _____    ______ ____

>  <TORSDO>
F 1

$$$$
=
 OpenBabel10262420033D

 27 32  0  0  1  0  0  0  0  0999 V2000
  181.5260  178.9660  140.7230 C   0  0  0  0  0  2  0  0  0  0  0  0
  183.8200  178.2870  139.8890 C   0  0  1  0  0  3  0  0  0  0  0  0
  182.5370  176.0510  139.7560 C   0  0  0  0  0  2  0  0  0  0  0  0
  185.9600  177.5200  136.1800 C   0  0  0  0  0  2  0  0  0  0  0  0
  185.2730  175.4610  135.5690 C   0  0  0  0  0  2  0  0  0  0  0  0
  183.5350  179.0440  138.6710 N   0  0  0  0  0  2  0  0  0  0  0  0
  183.8730  175.7840  137.2200 O   0  0  0  0  0  0  0  0  0  0  0  0
  179.5810  175.4520  137.7360 C   0  0  0  0  0  2  0  0  0  0  0  0
  184.9600  175.1050  136.9000 O   0  0  0  0  0  0  0  0  0  0  0  0
  178.9310  174.9850  139.0380 C   0  0  0  0  0  2  0  0  0  0  0  0
  184.3000  176.8240  138.0700 C   0  0  2  0  0  0  0  0  0  0  0  0
  182.9210  178.6250  140.9970 N   0  0  0  0  0  0  0  0  0  0  0  0
  185.0740  176.8360  135.3330 O   0  0  0  0  0  0  0  0  0  0  0  0
  185.3720  177.8160  137.5770 C   0  0  2  0  0  3  0  0  0  0  0  0
  180.6370  177.7910  141.0930 C   0  0  0  0  0  2  0  0  0  0  0  0
  183.8680  176.8060  139.5300 C   0  0  1  0  0  3  0  0  0  0  0  0
  181.0860  175.6400  137.9420 C   0  0  0  0  0  2  0  0  0  0  0  0
  183.8920  178.1870  137.5320 C   0  0  2  0  0  3  0  0  0  0  0  0
  179.4780  175.7150  140.2680 C   0  0  0  0  0  2  0  0  0  0  0  0
  180.2800  176.9550  139.8650 C   0  0  2  0  0  3  0  0  0  0  0  0
  181.4310  176.6270  138.9850 N   0  0  1  0  0  0  0  0  0  0  0  0
  184.4020  178.6350  144.9880 C   0  0  0  0  0  3  0  0  0  0  0  0
  183.4210  178.6270  142.3520 C   0  0  0  0  0  0  0  0  0  0  0  0
  184.7520  178.2610  142.6230 C   0  0  0  0  0  3  0  0  0  0  0  0
  185.2380  178.2650  143.9330 C   0  0  0  0  0  3  0  0  0  0  0  0
  183.0780  179.0030  144.7340 C   0  0  0  0  0  3  0  0  0  0  0  0
  182.5930  178.9990  143.4240 C   0  0  0  0  0  3  0  0  0  0  0  0
  1 12  1  0  0  0  0
  1 15  1  0  0  0  0
  2  6  1  6  0  0  0
  2 12  1  0  0  0  0
  5  9  1  0  0  0  0
  8 17  1  0  0  0  0
  8 10  1  0  0  0  0
  9  7  1  0  0  0  0
 10 19  1  0  0  0  0
 11  7  1  6  0  0  0
 11 16  1  0  0  0  0
 12 23  1  0  0  0  0
 13  5  1  0  0  0  0
 13  4  1  0  0  0  0
 14  4  1  6  0  0  0
 14 11  1  0  0  0  0
 16  3  1  6  0  0  0
 16  2  1  0  0  0  0
 18 14  1  0  0  0  0
 18 11  1  0  0  0  0
 18  6  1  1  0  0  0
 20 19  1  1  0  0  0
 20 15  1  0  0  0  0
 21 17  1  6  0  0  0
 21  3  1  0  0  0  0
 21 20  1  0  0  0  0
 23 24  2  0  0  0  0
 23 27  1  0  0  0  0
 24 25  1  0  0  0  0
 25 22  2  0  0  0  0
 26 22  1  0  0  0  0
 27 26  2  0  0  0  0
M  END
>  <MODEL>
7

>  <REMARK>
 VINA RESULT:      -5.9      2.301      4.973
  Name = 
  1 active torsions:
  status: ('A' for Active; 'I' for Inactive)
    1  A    between atoms: C_9  and  N_15
                            x       y       z     vdW  Elec       q    Type
                         _______ _______ _______ _____ _____    ______ ____

>  <TORSDO>
F 1

$$$$
=
 OpenBabel10262420033D

 27 32  0  0  1  0  0  0  0  0999 V2000
  187.0650  176.2450  145.4160 C   0  0  0  0  0  2  0  0  0  0  0  0
  187.7740  177.1960  143.1770 C   0  0  1  0  0  3  0  0  0  0  0  0
  189.4300  178.3570  144.7810 C   0  0  0  0  0  2  0  0  0  0  0  0
  190.8050  176.6610  140.1020 C   0  0  0  0  0  2  0  0  0  0  0  0
  192.6340  177.6610  140.9590 C   0  0  0  0  0  2  0  0  0  0  0  0
  188.3110  175.8740  142.8540 N   0  0  0  0  0  2  0  0  0  0  0  0
  191.3660  177.7450  142.7400 O   0  0  0  0  0  0  0  0  0  0  0  0
  191.8250  176.6510  146.9100 C   0  0  0  0  0  2  0  0  0  0  0  0
  191.8590  178.5090  141.7810 O   0  0  0  0  0  0  0  0  0  0  0  0
  191.1920  177.4410  148.0550 C   0  0  0  0  0  2  0  0  0  0  0  0
  190.0060  177.5520  142.4220 C   0  0  2  0  0  0  0  0  0  0  0  0
  186.8420  177.1740  144.3100 N   0  0  0  0  0  0  0  0  0  0  0  0
  192.0160  176.4100  140.7640 O   0  0  0  0  0  0  0  0  0  0  0  0
  189.6250  176.9390  141.0590 C   0  0  2  0  0  3  0  0  0  0  0  0
  187.6250  177.0030  146.6070 C   0  0  0  0  0  2  0  0  0  0  0  0
  188.9440  178.1620  143.3260 C   0  0  1  0  0  3  0  0  0  0  0  0
  191.3190  177.1810  145.5670 C   0  0  0  0  0  2  0  0  0  0  0  0
  189.6640  176.0730  142.3170 C   0  0  2  0  0  3  0  0  0  0  0  0
  189.7040  177.7280  147.8240 C   0  0  0  0  0  2  0  0  0  0  0  0
  189.1450  176.8710  146.6870 C   0  0  2  0  0  3  0  0  0  0  0  0
  189.8530  177.0980  145.4010 N   0  0  1  0  0  0  0  0  0  0  0  0
  183.4920  179.7990  144.3380 C   0  0  0  0  0  3  0  0  0  0  0  0
  185.7070  178.0660  144.3210 C   0  0  0  0  0  0  0  0  0  0  0  0
  185.2930  178.7130  143.1430 C   0  0  0  0  0  3  0  0  0  0  0  0
  184.1940  179.5750  143.1520 C   0  0  0  0  0  3  0  0  0  0  0  0
  183.8890  179.1620  145.5160 C   0  0  0  0  0  3  0  0  0  0  0  0
  184.9890  178.3000  145.5060 C   0  0  0  0  0  3  0  0  0  0  0  0
  1 15  1  0  0  0  0
  2  6  1  1  0  0  0
  2 16  1  0  0  0  0
  2 12  1  0  0  0  0
  4 13  1  0  0  0  0
  5  9  1  0  0  0  0
  8 10  1  0  0  0  0
  9  7  1  0  0  0  0
 11  7  1  1  0  0  0
 11 16  1  0  0  0  0
 12 23  1  0  0  0  0
 12  1  1  0  0  0  0
 13  5  1  0  0  0  0
 14  4  1  6  0  0  0
 14 18  1  0  0  0  0
 14 11  1  0  0  0  0
 16  3  1  1  0  0  0
 17  8  1  0  0  0  0
 18 11  1  0  0  0  0
 18  6  1  1  0  0  0
 19 10  1  0  0  0  0
 20 15  1  6  0  0  0
 20 19  1  0  0  0  0
 21  3  1  1  0  0  0
 21 17  1  0  0  0  0
 21 20  1  0  0  0  0
 22 26  1  0  0  0  0
 23 27  1  0  0  0  0
 24 25  1  0  0  0  0
 24 23  2  0  0  0  0
 25 22  2  0  0  0  0
 27 26  2  0  0  0  0
M  END
>  <MODEL>
8

>  <REMARK>
 VINA RESULT:      -5.8      4.830      6.704
  Name = 
  1 active torsions:
  status: ('A' for Active; 'I' for Inactive)
    1  A    between atoms: C_9  and  N_15
                            x       y       z     vdW  Elec       q    Type
                         _______ _______ _______ _____ _____    ______ ____

>  <TORSDO>
F 1

$$$$
=
 OpenBabel10262420033D

 27 32  0  0  1  0  0  0  0  0999 V2000
  184.4690  179.9950  143.2180 C   0  0  0  0  0  2  0  0  0  0  0  0
  184.9860  178.5740  141.1860 C   0  0  1  0  0  3  0  0  0  0  0  0
  182.7870  177.5080  142.0180 C   0  0  0  0  0  2  0  0  0  0  0  0
  183.8560  178.1430  137.0060 C   0  0  0  0  0  2  0  0  0  0  0  0
  181.8710  177.0770  137.0850 C   0  0  0  0  0  2  0  0  0  0  0  0
  184.6410  179.7330  140.3630 N   0  0  0  0  0  2  0  0  0  0  0  0
  182.0960  177.4830  139.2240 O   0  0  0  0  0  0  0  0  0  0  0  0
  179.6060  179.2320  142.3110 C   0  0  0  0  0  2  0  0  0  0  0  0
  182.1620  176.5000  138.3420 O   0  0  0  0  0  0  0  0  0  0  0  0
  179.6130  178.7510  143.7620 C   0  0  0  0  0  2  0  0  0  0  0  0
  183.4290  177.7950  139.5580 C   0  0  2  0  0  0  0  0  0  0  0  0
  185.2350  178.9210  142.5890 N   0  0  0  0  0  0  0  0  0  0  0  0
  182.4690  178.3440  136.9370 O   0  0  0  0  0  0  0  0  0  0  0  0
  184.4160  178.2000  138.4450 C   0  0  2  0  0  3  0  0  0  0  0  0
  183.4150  179.3950  144.1330 C   0  0  0  0  0  2  0  0  0  0  0  0
  183.9220  177.5030  140.9680 C   0  0  1  0  0  3  0  0  0  0  0  0
  180.7250  178.5430  141.5260 C   0  0  0  0  0  2  0  0  0  0  0  0
  183.7360  179.2630  139.3050 C   0  0  2  0  0  3  0  0  0  0  0  0
  181.0270  178.6280  144.3380 C   0  0  0  0  0  2  0  0  0  0  0  0
  182.0510  179.3350  143.4480 C   0  0  2  0  0  3  0  0  0  0  0  0
  182.0780  178.7900  142.0660 N   0  0  1  0  0  0  0  0  0  0  0  0
  188.2060  176.8140  144.7900 C   0  0  0  0  0  3  0  0  0  0  0  0
  186.2410  178.2050  143.3360 C   0  0  0  0  0  0  0  0  0  0  0  0
  187.2670  177.5090  142.6720 C   0  0  0  0  0  3  0  0  0  0  0  0
  188.2420  176.8170  143.3950 C   0  0  0  0  0  3  0  0  0  0  0  0
  187.1950  177.5030  145.4650 C   0  0  0  0  0  3  0  0  0  0  0  0
  186.2200  178.1950  144.7410 C   0  0  0  0  0  3  0  0  0  0  0  0
  1 15  1  0  0  0  0
  2  6  1  6  0  0  0
  2 12  1  0  0  0  0
  3 21  1  0  0  0  0
  5  9  1  0  0  0  0
  8 10  1  0  0  0  0
  9  7  1  0  0  0  0
 10 19  1  0  0  0  0
 11  7  1  6  0  0  0
 11 16  1  0  0  0  0
 12  1  1  0  0  0  0
 12 23  1  0  0  0  0
 13  4  1  0  0  0  0
 13  5  1  0  0  0  0
 14  4  1  6  0  0  0
 14 18  1  0  0  0  0
 14 11  1  0  0  0  0
 16  2  1  0  0  0  0
 16  3  1  1  0  0  0
 17  8  1  0  0  0  0
 18 11  1  0  0  0  0
 18  6  1  1  0  0  0
 20 15  1  1  0  0  0
 20 19  1  0  0  0  0
 21 17  1  1  0  0  0
 21 20  1  0  0  0  0
 22 26  1  0  0  0  0
 23 27  1  0  0  0  0
 24 23  2  0  0  0  0
 24 25  1  0  0  0  0
 25 22  2  0  0  0  0
 27 26  2  0  0  0  0
M  END
>  <MODEL>
9

>  <REMARK>
 VINA RESULT:      -5.8      2.748      5.752
  Name = 
  1 active torsions:
  status: ('A' for Active; 'I' for Inactive)
    1  A    between atoms: C_9  and  N_15
                            x       y       z     vdW  Elec       q    Type
                         _______ _______ _______ _____ _____    ______ ____

>  <TORSDO>
F 1

$$$$
