=
 OpenBabel10262423143D

 34 38  0  0  1  0  0  0  0  0999 V2000
  182.7910  179.3680  139.9880 C   0  0  0  0  0  0  0  0  0  0  0  0
  179.2500  178.9210  138.5850 C   0  0  0  0  0  2  0  0  0  0  0  0
  180.1930  178.7430  140.8820 C   0  0  0  0  0  3  0  0  0  0  0  0
  184.0740  179.6980  139.5650 O   0  0  0  0  0  1  0  0  0  0  0  0
  183.4950  179.1650  142.4730 C   0  0  2  0  0  3  0  0  0  0  0  0
  182.5960  179.0540  143.7130 C   0  0  0  0  0  3  0  0  0  0  0  0
  181.2610  178.8330  141.7720 C   0  0  0  0  0  0  0  0  0  0  0  0
  182.5300  179.1210  141.3420 C   0  0  0  0  0  0  0  0  0  0  0  0
  181.1860  178.6760  143.2380 C   0  0  0  0  0  3  0  0  0  0  0  0
  179.6640  178.7600  137.1230 C   0  0  0  0  0  2  0  0  0  0  0  0
  180.7790  179.7390  136.7510 C   0  0  2  0  0  3  0  0  0  0  0  0
  180.4270  178.9470  139.5160 C   0  0  0  0  0  0  0  0  0  0  0  0
  182.0240  179.4640  137.5940 C   0  0  0  0  0  2  0  0  0  0  0  0
  181.7310  179.2850  139.0630 C   0  0  0  0  0  0  0  0  0  0  0  0
  184.4190  177.9540  142.4420 C   0  0  0  0  0  2  0  0  0  0  0  0
  185.8790  178.3620  142.5900 C   0  0  0  0  0  2  0  0  0  0  0  0
  188.5610  177.4840  143.0830 O   0  0  0  0  0  0  0  0  0  0  0  0
  186.1380  178.5600  146.2510 C   0  0  0  0  0  2  0  0  0  0  0  0
  190.1150  177.0750  147.0190 C   0  0  0  0  0  0  0  0  0  0  0  0
  189.6290  177.1390  145.7040 C   0  0  0  0  0  3  0  0  0  0  0  0
  188.3310  177.5950  145.4460 C   0  0  0  0  0  0  0  0  0  0  0  0
  186.4040  177.9470  143.8850 N   0  0  0  0  0  0  0  0  0  0  0  0
  187.9900  177.9410  147.8240 C   0  0  0  0  0  3  0  0  0  0  0  0
  187.5040  177.9910  146.5150 C   0  0  0  0  0  0  0  0  0  0  0  0
  189.2840  177.4800  148.0750 C   0  0  0  0  0  3  0  0  0  0  0  0
  185.4990  177.8980  145.0300 C   0  0  0  0  0  2  0  0  0  0  0  0
  187.8010  177.6590  144.0740 C   0  0  0  0  0  0  0  0  0  0  0  0
  192.1580  177.0750  148.2270 O   0  0  0  0  0  0  0  0  0  0  0  0
  191.4840  176.5890  147.2800 C   0  0  0  0  0  0  0  0  0  0  0  0
  192.0960  175.5220  146.4370 C   0  0  0  0  0  1  0  0  0  0  0  0
  180.3490  181.1990  136.8820 C   0  0  0  0  0  2  0  0  0  0  0  0
  180.2430  181.8730  135.5200 C   0  0  0  0  0  2  0  0  0  0  0  0
  180.7870  183.2930  135.5530 C   0  0  0  0  0  2  0  0  0  0  0  0
  181.0890  183.7130  136.9790 C   0  0  0  0  0  1  0  0  0  0  0  0
  1  8  1  0  0  0  0
  2 12  1  0  0  0  0
  3  7  1  0  0  0  0
  4  1  1  0  0  0  0
  5 15  1  6  0  0  0
  5  6  1  0  0  0  0
  7  9  1  0  0  0  0
  8  7  2  0  0  0  0
  8  5  1  0  0  0  0
  9  6  2  0  0  0  0
 10  2  1  0  0  0  0
 11 31  1  1  0  0  0
 11 10  1  0  0  0  0
 11 13  1  0  0  0  0
 12  3  2  0  0  0  0
 13 14  1  0  0  0  0
 14 12  1  0  0  0  0
 14  1  2  0  0  0  0
 15 16  1  0  0  0  0
 16 22  1  0  0  0  0
 17 27  2  0  0  0  0
 18 24  1  0  0  0  0
 19 29  1  0  0  0  0
 19 25  1  0  0  0  0
 20 19  2  0  0  0  0
 21 20  1  0  0  0  0
 21 24  2  0  0  0  0
 22 27  1  0  0  0  0
 22 26  1  0  0  0  0
 23 25  2  0  0  0  0
 24 23  1  0  0  0  0
 26 18  1  0  0  0  0
 27 21  1  0  0  0  0
 29 28  2  0  0  0  0
 30 29  1  0  0  0  0
 32 33  1  0  0  0  0
 32 31  1  0  0  0  0
 33 34  1  0  0  0  0
M  END
>  <MODEL>
1

>  <REMARK>
 VINA RESULT:      -9.1      0.000      0.000
  Name = 
  7 active torsions:
  status: ('A' for Active; 'I' for Inactive)
    1  A    between atoms: C_3  and  C_24
    2  A    between atoms: C_7  and  C_15
    3  A    between atoms: C_8  and  C_17
    4  A    between atoms: C_8  and  N_18
    5  A    between atoms: C_10  and  C_17
    6  A    between atoms: C_24  and  C_25
    7  A    between atoms: C_25  and  C_27
                            x       y       z     vdW  Elec       q    Type
                         _______ _______ _______ _____ _____    ______ ____

>  <TORSDO>
F 7

$$$$
=
 OpenBabel10262423143D

 34 38  0  0  1  0  0  0  0  0999 V2000
  182.4550  177.8270  140.6910 C   0  0  0  0  0  0  0  0  0  0  0  0
  179.8670  175.6160  138.9250 C   0  0  0  0  0  2  0  0  0  0  0  0
  179.7650  177.0370  140.9680 C   0  0  0  0  0  3  0  0  0  0  0  0
  183.7750  178.2450  140.5540 O   0  0  0  0  0  1  0  0  0  0  0  0
  182.0600  179.2580  142.8140 C   0  0  2  0  0  3  0  0  0  0  0  0
  180.7320  179.5790  143.5140 C   0  0  0  0  0  3  0  0  0  0  0  0
  180.3520  177.9260  141.8650 C   0  0  0  0  0  0  0  0  0  0  0  0
  181.6650  178.3020  141.7450 C   0  0  0  0  0  0  0  0  0  0  0  0
  179.6780  178.5900  142.9980 C   0  0  0  0  0  3  0  0  0  0  0  0
  180.8660  174.8120  138.0950 C   0  0  0  0  0  2  0  0  0  0  0  0
  181.9720  175.7090  137.5370 C   0  0  2  0  0  3  0  0  0  0  0  0
  180.5390  176.5130  139.9240 C   0  0  0  0  0  0  0  0  0  0  0  0
  182.7620  176.3440  138.6810 C   0  0  0  0  0  2  0  0  0  0  0  0
  181.8900  176.9260  139.7660 C   0  0  0  0  0  0  0  0  0  0  0  0
  182.9840  178.5860  143.8240 C   0  0  0  0  0  2  0  0  0  0  0  0
  184.4340  179.0000  143.6150 C   0  0  0  0  0  2  0  0  0  0  0  0
  187.0780  177.9650  143.2350 O   0  0  0  0  0  0  0  0  0  0  0  0
  185.7610  178.8870  147.0410 C   0  0  0  0  0  2  0  0  0  0  0  0
  189.6800  177.1680  146.5010 C   0  0  0  0  0  0  0  0  0  0  0  0
  188.8380  177.3600  145.3950 C   0  0  0  0  0  3  0  0  0  0  0  0
  187.5540  177.8940  145.5630 C   0  0  0  0  0  0  0  0  0  0  0  0
  185.2850  178.4580  144.6660 N   0  0  0  0  0  0  0  0  0  0  0  0
  187.9450  178.0600  147.9520 C   0  0  0  0  0  3  0  0  0  0  0  0
  187.1030  178.2380  146.8510 C   0  0  0  0  0  0  0  0  0  0  0  0
  189.2220  177.5230  147.7790 C   0  0  0  0  0  3  0  0  0  0  0  0
  184.7520  178.3560  146.0230 C   0  0  0  0  0  2  0  0  0  0  0  0
  186.6530  178.0930  144.4160 C   0  0  0  0  0  0  0  0  0  0  0  0
  191.5840  176.6450  145.1830 O   0  0  0  0  0  0  0  0  0  0  0  0
  191.0300  176.6010  146.3140 C   0  0  0  0  0  0  0  0  0  0  0  0
  191.7630  175.9690  147.4480 C   0  0  0  0  0  1  0  0  0  0  0  0
  181.4400  176.7810  136.5880 C   0  0  0  0  0  2  0  0  0  0  0  0
  182.1500  178.1130  136.7960 C   0  0  0  0  0  2  0  0  0  0  0  0
  181.1620  179.2570  136.9550 C   0  0  0  0  0  2  0  0  0  0  0  0
  181.6290  180.2150  138.0350 C   0  0  0  0  0  1  0  0  0  0  0  0
  1  8  1  0  0  0  0
  2 12  1  0  0  0  0
  3  7  1  0  0  0  0
  4  1  1  0  0  0  0
  5  6  1  0  0  0  0
  5 15  1  1  0  0  0
  7  9  1  0  0  0  0
  8  7  2  0  0  0  0
  8  5  1  0  0  0  0
  9  6  2  0  0  0  0
 10  2  1  0  0  0  0
 11 31  1  1  0  0  0
 11 10  1  0  0  0  0
 11 13  1  0  0  0  0
 12  3  2  0  0  0  0
 13 14  1  0  0  0  0
 14 12  1  0  0  0  0
 14  1  2  0  0  0  0
 16 15  1  0  0  0  0
 16 22  1  0  0  0  0
 17 27  2  0  0  0  0
 19 25  1  0  0  0  0
 20 21  1  0  0  0  0
 20 19  2  0  0  0  0
 21 24  2  0  0  0  0
 22 26  1  0  0  0  0
 24 18  1  0  0  0  0
 24 23  1  0  0  0  0
 25 23  2  0  0  0  0
 26 18  1  0  0  0  0
 27 22  1  0  0  0  0
 27 21  1  0  0  0  0
 28 29  2  0  0  0  0
 29 19  1  0  0  0  0
 29 30  1  0  0  0  0
 31 32  1  0  0  0  0
 32 33  1  0  0  0  0
 33 34  1  0  0  0  0
M  END
>  <MODEL>
2

>  <REMARK>
 VINA RESULT:      -9.1      1.851      2.400
  Name = 
  7 active torsions:
  status: ('A' for Active; 'I' for Inactive)
    1  A    between atoms: C_3  and  C_24
    2  A    between atoms: C_7  and  C_15
    3  A    between atoms: C_8  and  C_17
    4  A    between atoms: C_8  and  N_18
    5  A    between atoms: C_10  and  C_17
    6  A    between atoms: C_24  and  C_25
    7  A    between atoms: C_25  and  C_27
                            x       y       z     vdW  Elec       q    Type
                         _______ _______ _______ _____ _____    ______ ____

>  <TORSDO>
F 7

$$$$
=
 OpenBabel10262423143D

 34 38  0  0  1  0  0  0  0  0999 V2000
  193.0550  175.7330  137.8510 C   0  0  0  0  0  0  0  0  0  0  0  0
  193.8800  172.6520  135.7220 C   0  0  0  0  0  2  0  0  0  0  0  0
  191.7340  173.7490  136.3480 C   0  0  0  0  0  3  0  0  0  0  0  0
  193.6940  176.7330  138.5760 O   0  0  0  0  0  1  0  0  0  0  0  0
  190.6940  176.6970  138.3080 C   0  0  2  0  0  3  0  0  0  0  0  0
  189.3630  176.3140  137.6440 C   0  0  0  0  0  3  0  0  0  0  0  0
  191.0250  174.7640  136.9850 C   0  0  0  0  0  0  0  0  0  0  0  0
  191.6600  175.7240  137.7310 C   0  0  0  0  0  0  0  0  0  0  0  0
  189.5640  174.9710  136.9300 C   0  0  0  0  0  3  0  0  0  0  0  0
  195.3040  172.4600  136.2420 C   0  0  0  0  0  2  0  0  0  0  0  0
  196.0240  173.8010  136.3950 C   0  0  2  0  0  3  0  0  0  0  0  0
  193.1290  173.7080  136.4790 C   0  0  0  0  0  0  0  0  0  0  0  0
  195.2960  174.6760  137.4150 C   0  0  0  0  0  2  0  0  0  0  0  0
  193.8020  174.7200  137.2170 C   0  0  0  0  0  0  0  0  0  0  0  0
  190.5560  176.4940  139.8120 C   0  0  0  0  0  2  0  0  0  0  0  0
  189.6960  177.5790  140.4450 C   0  0  0  0  0  2  0  0  0  0  0  0
  187.7390  178.1000  142.4720 O   0  0  0  0  0  0  0  0  0  0  0  0
  191.4680  176.6740  143.5360 C   0  0  0  0  0  2  0  0  0  0  0  0
  188.5910  177.6170  146.6090 C   0  0  0  0  0  0  0  0  0  0  0  0
  188.2810  177.8460  145.2600 C   0  0  0  0  0  3  0  0  0  0  0  0
  189.2170  177.5670  144.2560 C   0  0  0  0  0  0  0  0  0  0  0  0
  189.9710  177.6930  141.8710 N   0  0  0  0  0  0  0  0  0  0  0  0
  190.7880  176.8140  145.9440 C   0  0  0  0  0  3  0  0  0  0  0  0
  190.4810  177.0550  144.6030 C   0  0  0  0  0  0  0  0  0  0  0  0
  189.8520  177.0980  146.9410 C   0  0  0  0  0  3  0  0  0  0  0  0
  191.3550  177.6090  142.3310 C   0  0  0  0  0  2  0  0  0  0  0  0
  188.9120  177.8120  142.8370 C   0  0  0  0  0  0  0  0  0  0  0  0
  187.8670  177.6880  148.8680 O   0  0  0  0  0  0  0  0  0  0  0  0
  187.5990  177.9180  147.6590 C   0  0  0  0  0  0  0  0  0  0  0  0
  186.2670  178.4950  147.3170 C   0  0  0  0  0  1  0  0  0  0  0  0
  196.1830  174.5390  135.0670 C   0  0  0  0  0  2  0  0  0  0  0  0
  196.6010  175.9880  135.2810 C   0  0  0  0  0  2  0  0  0  0  0  0
  195.6170  176.9560  134.6450 C   0  0  0  0  0  2  0  0  0  0  0  0
  196.1020  178.3850  134.8020 C   0  0  0  0  0  1  0  0  0  0  0  0
  1  4  1  0  0  0  0
  2 10  1  0  0  0  0
  2 12  1  0  0  0  0
  3 12  2  0  0  0  0
  3  7  1  0  0  0  0
  5 15  1  1  0  0  0
  6  5  1  0  0  0  0
  7  8  2  0  0  0  0
  8  1  1  0  0  0  0
  8  5  1  0  0  0  0
  9  7  1  0  0  0  0
  9  6  2  0  0  0  0
 10 11  1  0  0  0  0
 11 31  1  6  0  0  0
 11 13  1  0  0  0  0
 12 14  1  0  0  0  0
 14 13  1  0  0  0  0
 14  1  2  0  0  0  0
 15 16  1  0  0  0  0
 16 22  1  0  0  0  0
 17 27  2  0  0  0  0
 18 24  1  0  0  0  0
 19 25  1  0  0  0  0
 19 29  1  0  0  0  0
 20 19  2  0  0  0  0
 21 24  2  0  0  0  0
 21 20  1  0  0  0  0
 22 26  1  0  0  0  0
 22 27  1  0  0  0  0
 23 25  2  0  0  0  0
 24 23  1  0  0  0  0
 26 18  1  0  0  0  0
 27 21  1  0  0  0  0
 29 28  2  0  0  0  0
 30 29  1  0  0  0  0
 31 32  1  0  0  0  0
 33 34  1  0  0  0  0
 33 32  1  0  0  0  0
M  END
>  <MODEL>
3

>  <REMARK>
 VINA RESULT:      -9.0      7.358     10.462
  Name = 
  7 active torsions:
  status: ('A' for Active; 'I' for Inactive)
    1  A    between atoms: C_3  and  C_24
    2  A    between atoms: C_7  and  C_15
    3  A    between atoms: C_8  and  C_17
    4  A    between atoms: C_8  and  N_18
    5  A    between atoms: C_10  and  C_17
    6  A    between atoms: C_24  and  C_25
    7  A    between atoms: C_25  and  C_27
                            x       y       z     vdW  Elec       q    Type
                         _______ _______ _______ _____ _____    ______ ____

>  <TORSDO>
F 7

$$$$
=
 OpenBabel10262423143D

 34 38  0  0  1  0  0  0  0  0999 V2000
  193.3070  175.5080  137.9060 C   0  0  0  0  0  0  0  0  0  0  0  0
  194.3120  172.1010  136.4600 C   0  0  0  0  0  2  0  0  0  0  0  0
  192.1810  173.3890  136.4290 C   0  0  0  0  0  3  0  0  0  0  0  0
  193.8550  176.5720  138.6130 O   0  0  0  0  0  1  0  0  0  0  0  0
  190.9920  176.6480  137.6810 C   0  0  2  0  0  3  0  0  0  0  0  0
  189.8090  176.2380  136.7930 C   0  0  0  0  0  3  0  0  0  0  0  0
  191.4380  174.5240  136.7450 C   0  0  0  0  0  0  0  0  0  0  0  0
  191.9750  175.5510  137.4760 C   0  0  0  0  0  0  0  0  0  0  0  0
  190.0470  174.7940  136.3320 C   0  0  0  0  0  3  0  0  0  0  0  0
  195.5690  171.9180  137.3100 C   0  0  0  0  0  2  0  0  0  0  0  0
  196.3480  173.2280  137.4370 C   0  0  2  0  0  3  0  0  0  0  0  0
  193.5060  173.2970  136.8760 C   0  0  0  0  0  0  0  0  0  0  0  0
  195.4930  174.2840  138.1370 C   0  0  0  0  0  2  0  0  0  0  0  0
  194.0860  174.3730  137.6020 C   0  0  0  0  0  0  0  0  0  0  0  0
  190.5150  176.6830  139.1290 C   0  0  0  0  0  2  0  0  0  0  0  0
  189.3820  177.6820  139.3190 C   0  0  0  0  0  2  0  0  0  0  0  0
  186.8640  178.5980  140.3340 O   0  0  0  0  0  0  0  0  0  0  0  0
  189.5090  176.6590  142.8470 C   0  0  0  0  0  2  0  0  0  0  0  0
  185.7980  178.1870  144.4290 C   0  0  0  0  0  0  0  0  0  0  0  0
  186.1280  178.3970  143.0810 C   0  0  0  0  0  3  0  0  0  0  0  0
  187.3420  177.9280  142.5640 C   0  0  0  0  0  0  0  0  0  0  0  0
  189.0430  177.8200  140.7290 N   0  0  0  0  0  0  0  0  0  0  0  0
  187.9080  177.0190  144.7420 C   0  0  0  0  0  3  0  0  0  0  0  0
  188.2400  177.2410  143.4030 C   0  0  0  0  0  0  0  0  0  0  0  0
  186.6980  177.4940  145.2530 C   0  0  0  0  0  3  0  0  0  0  0  0
  190.0690  177.5420  141.7320 C   0  0  0  0  0  2  0  0  0  0  0  0
  187.7090  178.1480  141.1560 C   0  0  0  0  0  0  0  0  0  0  0  0
  184.3250  178.7310  146.2090 O   0  0  0  0  0  0  0  0  0  0  0  0
  184.5180  178.6890  144.9650 C   0  0  0  0  0  0  0  0  0  0  0  0
  183.4310  179.1540  144.0550 C   0  0  0  0  0  1  0  0  0  0  0  0
  196.8520  173.7470  136.0910 C   0  0  0  0  0  2  0  0  0  0  0  0
  196.9230  175.2680  136.0710 C   0  0  0  0  0  2  0  0  0  0  0  0
  196.1940  175.8490  134.8710 C   0  0  0  0  0  2  0  0  0  0  0  0
  195.5730  177.1880  135.2240 C   0  0  0  0  0  1  0  0  0  0  0  0
  1  4  1  0  0  0  0
  2 12  1  0  0  0  0
  2 10  1  0  0  0  0
  3  7  2  0  0  0  0
  3 12  1  0  0  0  0
  5 15  1  1  0  0  0
  6  5  1  0  0  0  0
  7  8  1  0  0  0  0
  8  5  1  0  0  0  0
  8  1  2  0  0  0  0
  9  7  1  0  0  0  0
  9  6  2  0  0  0  0
 10 11  1  0  0  0  0
 11 31  1  6  0  0  0
 11 13  1  0  0  0  0
 12 14  2  0  0  0  0
 14  1  1  0  0  0  0
 14 13  1  0  0  0  0
 15 16  1  0  0  0  0
 16 22  1  0  0  0  0
 17 27  2  0  0  0  0
 18 24  1  0  0  0  0
 19 29  1  0  0  0  0
 19 25  1  0  0  0  0
 20 19  2  0  0  0  0
 21 20  1  0  0  0  0
 21 24  2  0  0  0  0
 22 27  1  0  0  0  0
 22 26  1  0  0  0  0
 23 25  2  0  0  0  0
 24 23  1  0  0  0  0
 26 18  1  0  0  0  0
 27 21  1  0  0  0  0
 29 28  2  0  0  0  0
 30 29  1  0  0  0  0
 32 31  1  0  0  0  0
 33 34  1  0  0  0  0
 33 32  1  0  0  0  0
M  END
>  <MODEL>
4

>  <REMARK>
 VINA RESULT:      -8.9      7.323     11.073
  Name = 
  7 active torsions:
  status: ('A' for Active; 'I' for Inactive)
    1  A    between atoms: C_3  and  C_24
    2  A    between atoms: C_7  and  C_15
    3  A    between atoms: C_8  and  C_17
    4  A    between atoms: C_8  and  N_18
    5  A    between atoms: C_10  and  C_17
    6  A    between atoms: C_24  and  C_25
    7  A    between atoms: C_25  and  C_27
                            x       y       z     vdW  Elec       q    Type
                         _______ _______ _______ _____ _____    ______ ____

>  <TORSDO>
F 7

$$$$
=
 OpenBabel10262423143D

 34 38  0  0  1  0  0  0  0  0999 V2000
  181.7860  178.0780  140.5960 C   0  0  0  0  0  0  0  0  0  0  0  0
  179.0880  176.2360  138.5870 C   0  0  0  0  0  2  0  0  0  0  0  0
  179.0410  177.4610  140.7540 C   0  0  0  0  0  3  0  0  0  0  0  0
  183.1340  178.4110  140.5200 O   0  0  0  0  0  1  0  0  0  0  0  0
  181.4440  179.3260  142.8400 C   0  0  2  0  0  3  0  0  0  0  0  0
  180.1270  179.6740  143.5470 C   0  0  0  0  0  3  0  0  0  0  0  0
  179.6690  178.2170  141.7410 C   0  0  0  0  0  0  0  0  0  0  0  0
  181.0070  178.5070  141.6780 C   0  0  0  0  0  0  0  0  0  0  0  0
  179.0180  178.8170  142.9220 C   0  0  0  0  0  3  0  0  0  0  0  0
  180.0460  175.4440  137.6990 C   0  0  0  0  0  2  0  0  0  0  0  0
  181.2250  176.3080  137.2470 C   0  0  2  0  0  3  0  0  0  0  0  0
  179.7990  176.9830  139.6770 C   0  0  0  0  0  0  0  0  0  0  0  0
  182.0310  176.7740  138.4590 C   0  0  0  0  0  2  0  0  0  0  0  0
  181.1790  177.3110  139.5810 C   0  0  0  0  0  0  0  0  0  0  0  0
  182.2960  178.4980  143.7950 C   0  0  0  0  0  2  0  0  0  0  0  0
  183.1160  179.3840  144.7230 C   0  0  0  0  0  2  0  0  0  0  0  0
  184.9580  178.9880  146.8820 O   0  0  0  0  0  0  0  0  0  0  0  0
  186.0210  177.8790  143.0470 C   0  0  0  0  0  2  0  0  0  0  0  0
  188.8670  177.4380  146.2590 C   0  0  0  0  0  0  0  0  0  0  0  0
  187.6080  178.0070  146.5070 C   0  0  0  0  0  3  0  0  0  0  0  0
  186.6870  178.1770  145.4660 C   0  0  0  0  0  0  0  0  0  0  0  0
  184.5400  179.1110  144.5760 N   0  0  0  0  0  0  0  0  0  0  0  0
  188.2740  177.2000  143.9120 C   0  0  0  0  0  3  0  0  0  0  0  0
  187.0260  177.7790  144.1600 C   0  0  0  0  0  0  0  0  0  0  0  0
  189.1900  177.0360  144.9530 C   0  0  0  0  0  3  0  0  0  0  0  0
  185.1210  179.1000  143.2350 C   0  0  0  0  0  2  0  0  0  0  0  0
  185.3660  178.7820  145.7060 C   0  0  0  0  0  0  0  0  0  0  0  0
  189.6600  177.8690  148.4540 O   0  0  0  0  0  0  0  0  0  0  0  0
  189.8320  177.2650  147.3620 C   0  0  0  0  0  0  0  0  0  0  0  0
  191.0230  176.3810  147.2110 C   0  0  0  0  0  1  0  0  0  0  0  0
  180.7910  177.5000  136.3960 C   0  0  0  0  0  2  0  0  0  0  0  0
  181.6490  178.7270  136.6760 C   0  0  0  0  0  2  0  0  0  0  0  0
  180.8060  179.9850  136.8080 C   0  0  0  0  0  2  0  0  0  0  0  0
  181.1500  180.7230  138.0880 C   0  0  0  0  0  1  0  0  0  0  0  0
  1  8  1  0  0  0  0
  2 12  1  0  0  0  0
  3  7  1  0  0  0  0
  4  1  1  0  0  0  0
  5  6  1  0  0  0  0
  5 15  1  1  0  0  0
  7  9  1  0  0  0  0
  8  7  2  0  0  0  0
  8  5  1  0  0  0  0
  9  6  2  0  0  0  0
 10  2  1  0  0  0  0
 11 31  1  1  0  0  0
 11 10  1  0  0  0  0
 11 13  1  0  0  0  0
 12  3  2  0  0  0  0
 13 14  1  0  0  0  0
 14 12  1  0  0  0  0
 14  1  2  0  0  0  0
 15 16  1  0  0  0  0
 18 26  1  0  0  0  0
 18 24  1  0  0  0  0
 19 20  1  0  0  0  0
 19 29  1  0  0  0  0
 21 27  1  0  0  0  0
 21 20  2  0  0  0  0
 22 16  1  0  0  0  0
 22 27  1  0  0  0  0
 23 24  2  0  0  0  0
 23 25  1  0  0  0  0
 24 21  1  0  0  0  0
 25 19  2  0  0  0  0
 26 22  1  0  0  0  0
 27 17  2  0  0  0  0
 29 28  2  0  0  0  0
 30 29  1  0  0  0  0
 31 32  1  0  0  0  0
 32 33  1  0  0  0  0
 33 34  1  0  0  0  0
M  END
>  <MODEL>
5

>  <REMARK>
 VINA RESULT:      -8.8      1.860      2.786
  Name = 
  7 active torsions:
  status: ('A' for Active; 'I' for Inactive)
    1  A    between atoms: C_3  and  C_24
    2  A    between atoms: C_7  and  C_15
    3  A    between atoms: C_8  and  C_17
    4  A    between atoms: C_8  and  N_18
    5  A    between atoms: C_10  and  C_17
    6  A    between atoms: C_24  and  C_25
    7  A    between atoms: C_25  and  C_27
                            x       y       z     vdW  Elec       q    Type
                         _______ _______ _______ _____ _____    ______ ____

>  <TORSDO>
F 7

$$$$
=
 OpenBabel10262423143D

 34 38  0  0  1  0  0  0  0  0999 V2000
  191.0860  176.7490  138.4340 C   0  0  0  0  0  0  0  0  0  0  0  0
  191.7830  174.3800  135.5000 C   0  0  0  0  0  2  0  0  0  0  0  0
  189.8360  175.8170  136.0870 C   0  0  0  0  0  3  0  0  0  0  0  0
  191.6990  177.2370  139.5820 O   0  0  0  0  0  1  0  0  0  0  0  0
  188.9540  178.1820  138.7770 C   0  0  2  0  0  3  0  0  0  0  0  0
  187.8080  178.4390  137.7890 C   0  0  0  0  0  3  0  0  0  0  0  0
  189.2130  176.7480  136.9150 C   0  0  0  0  0  0  0  0  0  0  0  0
  189.8090  177.1940  138.0670 C   0  0  0  0  0  0  0  0  0  0  0  0
  187.9050  177.3880  136.6750 C   0  0  0  0  0  3  0  0  0  0  0  0
  192.9320  173.6220  136.1620 C   0  0  0  0  0  2  0  0  0  0  0  0
  193.8530  174.5700  136.9310 C   0  0  2  0  0  3  0  0  0  0  0  0
  191.0970  175.3230  136.4450 C   0  0  0  0  0  0  0  0  0  0  0  0
  193.0780  175.2620  138.0530 C   0  0  0  0  0  2  0  0  0  0  0  0
  191.7420  175.8080  137.6160 C   0  0  0  0  0  0  0  0  0  0  0  0
  188.3660  177.5740  140.0460 C   0  0  0  0  0  2  0  0  0  0  0  0
  188.2190  178.6150  141.1470 C   0  0  0  0  0  2  0  0  0  0  0  0
  190.5790  178.0390  142.6640 O   0  0  0  0  0  0  0  0  0  0  0  0
  186.8850  177.9810  144.5130 C   0  0  0  0  0  2  0  0  0  0  0  0
  190.4120  176.9420  146.7680 C   0  0  0  0  0  0  0  0  0  0  0  0
  190.5140  177.2430  145.4010 C   0  0  0  0  0  3  0  0  0  0  0  0
  189.3720  177.5570  144.6550 C   0  0  0  0  0  0  0  0  0  0  0  0
  188.2420  177.9870  142.4610 N   0  0  0  0  0  0  0  0  0  0  0  0
  188.0070  177.2810  146.6420 C   0  0  0  0  0  3  0  0  0  0  0  0
  188.1100  177.5670  145.2780 C   0  0  0  0  0  0  0  0  0  0  0  0
  189.1490  176.9640  147.3810 C   0  0  0  0  0  3  0  0  0  0  0  0
  186.9820  177.5410  143.0520 C   0  0  0  0  0  2  0  0  0  0  0  0
  189.4590  177.8650  143.2180 C   0  0  0  0  0  0  0  0  0  0  0  0
  192.0120  177.3740  148.4680 O   0  0  0  0  0  0  0  0  0  0  0  0
  191.6220  176.6100  147.5460 C   0  0  0  0  0  0  0  0  0  0  0  0
  192.4040  175.3730  147.2600 C   0  0  0  0  0  1  0  0  0  0  0  0
  194.5270  175.6000  136.0260 C   0  0  0  0  0  2  0  0  0  0  0  0
  196.0420  175.4440  136.0360 C   0  0  0  0  0  2  0  0  0  0  0  0
  196.4740  174.2050  136.8040 C   0  0  0  0  0  2  0  0  0  0  0  0
  197.8550  174.4050  137.4010 C   0  0  0  0  0  1  0  0  0  0  0  0
  1  4  1  0  0  0  0
  2 10  1  0  0  0  0
  2 12  1  0  0  0  0
  3 12  2  0  0  0  0
  3  7  1  0  0  0  0
  5 15  1  1  0  0  0
  6  5  1  0  0  0  0
  7  8  2  0  0  0  0
  8  1  1  0  0  0  0
  8  5  1  0  0  0  0
  9  7  1  0  0  0  0
  9  6  2  0  0  0  0
 10 11  1  0  0  0  0
 11 31  1  6  0  0  0
 11 13  1  0  0  0  0
 12 14  1  0  0  0  0
 14 13  1  0  0  0  0
 14  1  2  0  0  0  0
 15 16  1  0  0  0  0
 16 22  1  0  0  0  0
 17 27  2  0  0  0  0
 18 24  1  0  0  0  0
 19 25  1  0  0  0  0
 19 29  1  0  0  0  0
 20 19  2  0  0  0  0
 21 24  2  0  0  0  0
 21 20  1  0  0  0  0
 22 26  1  0  0  0  0
 22 27  1  0  0  0  0
 23 25  2  0  0  0  0
 24 23  1  0  0  0  0
 26 18  1  0  0  0  0
 27 21  1  0  0  0  0
 29 28  2  0  0  0  0
 30 29  1  0  0  0  0
 31 32  1  0  0  0  0
 32 33  1  0  0  0  0
 33 34  1  0  0  0  0
M  END
>  <MODEL>
6

>  <REMARK>
 VINA RESULT:      -8.7      6.227      9.212
  Name = 
  7 active torsions:
  status: ('A' for Active; 'I' for Inactive)
    1  A    between atoms: C_3  and  C_24
    2  A    between atoms: C_7  and  C_15
    3  A    between atoms: C_8  and  C_17
    4  A    between atoms: C_8  and  N_18
    5  A    between atoms: C_10  and  C_17
    6  A    between atoms: C_24  and  C_25
    7  A    between atoms: C_25  and  C_27
                            x       y       z     vdW  Elec       q    Type
                         _______ _______ _______ _____ _____    ______ ____

>  <TORSDO>
F 7

$$$$
=
 OpenBabel10262423143D

 34 38  0  0  1  0  0  0  0  0999 V2000
  186.8260  174.9750  137.1910 C   0  0  0  0  0  0  0  0  0  0  0  0
  183.0900  175.8070  136.9510 C   0  0  0  0  0  2  0  0  0  0  0  0
  185.1400  177.2200  136.9510 C   0  0  0  0  0  3  0  0  0  0  0  0
  187.6710  173.8750  137.2840 O   0  0  0  0  0  1  0  0  0  0  0  0
  188.7840  176.6700  137.1180 C   0  0  2  0  0  3  0  0  0  0  0  0
  188.7390  178.1640  136.7680 C   0  0  0  0  0  3  0  0  0  0  0  0
  186.5260  177.3580  136.9810 C   0  0  0  0  0  0  0  0  0  0  0  0
  187.3510  176.2710  137.1140 C   0  0  0  0  0  0  0  0  0  0  0  0
  187.2770  178.6210  136.8480 C   0  0  0  0  0  3  0  0  0  0  0  0
  182.5810  174.4650  137.4740 C   0  0  0  0  0  2  0  0  0  0  0  0
  183.3930  173.3030  136.9000 C   0  0  2  0  0  3  0  0  0  0  0  0
  184.5810  175.9400  137.0630 C   0  0  0  0  0  0  0  0  0  0  0  0
  184.8550  173.4180  137.3310 C   0  0  0  0  0  2  0  0  0  0  0  0
  185.4270  174.8030  137.1610 C   0  0  0  0  0  0  0  0  0  0  0  0
  189.3820  176.5220  138.5130 C   0  0  0  0  0  2  0  0  0  0  0  0
  189.6770  177.8770  139.1400 C   0  0  0  0  0  2  0  0  0  0  0  0
  187.1930  178.8490  140.1850 O   0  0  0  0  0  0  0  0  0  0  0  0
  189.6290  176.4860  142.5420 C   0  0  0  0  0  2  0  0  0  0  0  0
  185.9750  178.0860  144.1860 C   0  0  0  0  0  0  0  0  0  0  0  0
  186.3600  178.4120  142.8770 C   0  0  0  0  0  3  0  0  0  0  0  0
  187.5570  177.9190  142.3430 C   0  0  0  0  0  0  0  0  0  0  0  0
  189.3040  177.8890  140.5480 N   0  0  0  0  0  0  0  0  0  0  0  0
  187.9950  176.7530  144.4250 C   0  0  0  0  0  3  0  0  0  0  0  0
  188.3820  177.0910  143.1260 C   0  0  0  0  0  0  0  0  0  0  0  0
  186.8030  177.2520  144.9540 C   0  0  0  0  0  3  0  0  0  0  0  0
  190.2780  177.4410  141.5400 C   0  0  0  0  0  2  0  0  0  0  0  0
  187.9810  178.2600  140.9750 C   0  0  0  0  0  0  0  0  0  0  0  0
  184.6620  179.0020  145.9380 O   0  0  0  0  0  0  0  0  0  0  0  0
  184.7130  178.6140  144.7410 C   0  0  0  0  0  0  0  0  0  0  0  0
  183.4810  178.6980  143.9050 C   0  0  0  0  0  1  0  0  0  0  0  0
  183.2850  173.2020  135.3790 C   0  0  0  0  0  2  0  0  0  0  0  0
  182.4560  171.9950  134.9580 C   0  0  0  0  0  2  0  0  0  0  0  0
  182.4580  170.9130  136.0250 C   0  0  0  0  0  2  0  0  0  0  0  0
  183.4000  169.7880  135.6380 C   0  0  0  0  0  1  0  0  0  0  0  0
  1  4  1  0  0  0  0
  2 12  1  0  0  0  0
  2 10  1  0  0  0  0
  3  7  2  0  0  0  0
  3 12  1  0  0  0  0
  5 15  1  1  0  0  0
  6  9  2  0  0  0  0
  6  5  1  0  0  0  0
  7  8  1  0  0  0  0
  8  5  1  0  0  0  0
  8  1  2  0  0  0  0
  9  7  1  0  0  0  0
 11 31  1  6  0  0  0
 11 13  1  0  0  0  0
 11 10  1  0  0  0  0
 12 14  2  0  0  0  0
 14  1  1  0  0  0  0
 14 13  1  0  0  0  0
 15 16  1  0  0  0  0
 16 22  1  0  0  0  0
 17 27  2  0  0  0  0
 18 24  1  0  0  0  0
 19 29  1  0  0  0  0
 19 25  1  0  0  0  0
 20 19  2  0  0  0  0
 21 20  1  0  0  0  0
 21 24  2  0  0  0  0
 22 27  1  0  0  0  0
 22 26  1  0  0  0  0
 23 25  2  0  0  0  0
 24 23  1  0  0  0  0
 26 18  1  0  0  0  0
 27 21  1  0  0  0  0
 29 28  2  0  0  0  0
 30 29  1  0  0  0  0
 32 31  1  0  0  0  0
 32 33  1  0  0  0  0
 34 33  1  0  0  0  0
M  END
>  <MODEL>
7

>  <REMARK>
 VINA RESULT:      -8.4      5.087      7.083
  Name = 
  7 active torsions:
  status: ('A' for Active; 'I' for Inactive)
    1  A    between atoms: C_3  and  C_24
    2  A    between atoms: C_7  and  C_15
    3  A    between atoms: C_8  and  C_17
    4  A    between atoms: C_8  and  N_18
    5  A    between atoms: C_10  and  C_17
    6  A    between atoms: C_24  and  C_25
    7  A    between atoms: C_25  and  C_27
                            x       y       z     vdW  Elec       q    Type
                         _______ _______ _______ _____ _____    ______ ____

>  <TORSDO>
F 7

$$$$
=
 OpenBabel10262423143D

 34 38  0  0  1  0  0  0  0  0999 V2000
  181.9610  177.1120  140.1390 C   0  0  0  0  0  0  0  0  0  0  0  0
  179.4810  174.8450  138.2910 C   0  0  0  0  0  2  0  0  0  0  0  0
  179.1900  176.6170  140.0160 C   0  0  0  0  0  3  0  0  0  0  0  0
  183.3240  177.3850  140.1940 O   0  0  0  0  0  1  0  0  0  0  0  0
  181.3700  178.9340  141.8840 C   0  0  2  0  0  3  0  0  0  0  0  0
  179.9860  179.4880  142.2520 C   0  0  0  0  0  3  0  0  0  0  0  0
  179.7110  177.6020  140.8530 C   0  0  0  0  0  0  0  0  0  0  0  0
  181.0590  177.8370  140.9290 C   0  0  0  0  0  0  0  0  0  0  0  0
  178.9310  178.5150  141.7100 C   0  0  0  0  0  3  0  0  0  0  0  0
  180.5090  173.8220  137.8110 C   0  0  0  0  0  2  0  0  0  0  0  0
  181.7930  174.5050  137.3400 C   0  0  2  0  0  3  0  0  0  0  0  0
  180.0680  175.8480  139.2410 C   0  0  0  0  0  0  0  0  0  0  0  0
  182.4390  175.2680  138.4960 C   0  0  0  0  0  2  0  0  0  0  0  0
  181.4650  176.1090  139.2820 C   0  0  0  0  0  0  0  0  0  0  0  0
  182.0170  178.3810  143.1490 C   0  0  0  0  0  2  0  0  0  0  0  0
  182.7400  179.4710  143.9280 C   0  0  0  0  0  2  0  0  0  0  0  0
  184.2560  178.9970  146.3120 O   0  0  0  0  0  0  0  0  0  0  0  0
  185.8690  178.0440  142.6310 C   0  0  0  0  0  2  0  0  0  0  0  0
  188.2280  177.4870  146.1990 C   0  0  0  0  0  0  0  0  0  0  0  0
  186.9420  178.0410  146.2850 C   0  0  0  0  0  3  0  0  0  0  0  0
  186.1780  178.2490  145.1300 C   0  0  0  0  0  0  0  0  0  0  0  0
  184.1730  179.2100  143.9770 N   0  0  0  0  0  0  0  0  0  0  0  0
  187.9800  177.3390  143.7850 C   0  0  0  0  0  3  0  0  0  0  0  0
  186.7050  177.9030  143.8720 C   0  0  0  0  0  0  0  0  0  0  0  0
  188.7390  177.1380  144.9400 C   0  0  0  0  0  3  0  0  0  0  0  0
  184.9410  179.2540  142.7340 C   0  0  0  0  0  2  0  0  0  0  0  0
  184.8310  178.8390  145.2010 C   0  0  0  0  0  0  0  0  0  0  0  0
  188.5410  177.5520  148.5510 O   0  0  0  0  0  0  0  0  0  0  0  0
  189.0260  177.2740  147.4220 C   0  0  0  0  0  0  0  0  0  0  0  0
  190.4130  176.7310  147.3510 C   0  0  0  0  0  1  0  0  0  0  0  0
  181.5660  175.4270  136.1440 C   0  0  0  0  0  2  0  0  0  0  0  0
  182.4890  175.0750  134.9840 C   0  0  0  0  0  2  0  0  0  0  0  0
  182.4430  173.5900  134.6620 C   0  0  0  0  0  2  0  0  0  0  0  0
  183.7400  172.9170  135.0720 C   0  0  0  0  0  1  0  0  0  0  0  0
  1  4  1  0  0  0  0
  1  8  1  0  0  0  0
  2 12  1  0  0  0  0
  3  7  1  0  0  0  0
  5  6  1  0  0  0  0
  5 15  1  1  0  0  0
  7  8  2  0  0  0  0
  7  9  1  0  0  0  0
  8  5  1  0  0  0  0
  9  6  2  0  0  0  0
 10  2  1  0  0  0  0
 11 31  1  6  0  0  0
 11 10  1  0  0  0  0
 11 13  1  0  0  0  0
 12 14  1  0  0  0  0
 12  3  2  0  0  0  0
 13 14  1  0  0  0  0
 14  1  2  0  0  0  0
 15 16  1  0  0  0  0
 16 22  1  0  0  0  0
 18 26  1  0  0  0  0
 18 24  1  0  0  0  0
 19 20  1  0  0  0  0
 19 29  1  0  0  0  0
 21 27  1  0  0  0  0
 21 20  2  0  0  0  0
 22 27  1  0  0  0  0
 23 24  2  0  0  0  0
 23 25  1  0  0  0  0
 24 21  1  0  0  0  0
 25 19  2  0  0  0  0
 26 22  1  0  0  0  0
 27 17  2  0  0  0  0
 29 28  2  0  0  0  0
 30 29  1  0  0  0  0
 32 31  1  0  0  0  0
 33 32  1  0  0  0  0
 33 34  1  0  0  0  0
M  END
>  <MODEL>
8

>  <REMARK>
 VINA RESULT:      -8.2      3.079      4.329
  Name = 
  7 active torsions:
  status: ('A' for Active; 'I' for Inactive)
    1  A    between atoms: C_3  and  C_24
    2  A    between atoms: C_7  and  C_15
    3  A    between atoms: C_8  and  C_17
    4  A    between atoms: C_8  and  N_18
    5  A    between atoms: C_10  and  C_17
    6  A    between atoms: C_24  and  C_25
    7  A    between atoms: C_25  and  C_27
                            x       y       z     vdW  Elec       q    Type
                         _______ _______ _______ _____ _____    ______ ____

>  <TORSDO>
F 7

$$$$
=
 OpenBabel10262423143D

 34 38  0  0  1  0  0  0  0  0999 V2000
  183.5800  178.7030  141.7880 C   0  0  0  0  0  0  0  0  0  0  0  0
  179.8270  178.5650  142.5640 C   0  0  0  0  0  2  0  0  0  0  0  0
  181.8510  178.6340  144.0120 C   0  0  0  0  0  3  0  0  0  0  0  0
  184.4440  178.7620  140.7000 O   0  0  0  0  0  1  0  0  0  0  0  0
  185.5030  178.8150  143.5200 C   0  0  2  0  0  3  0  0  0  0  0  0
  185.4100  179.0490  145.0340 C   0  0  0  0  0  3  0  0  0  0  0  0
  183.2330  178.7100  144.1730 C   0  0  0  0  0  0  0  0  0  0  0  0
  184.0800  178.7280  143.0960 C   0  0  0  0  0  0  0  0  0  0  0  0
  183.9540  178.8130  145.4570 C   0  0  0  0  0  3  0  0  0  0  0  0
  179.3820  178.1010  141.1780 C   0  0  0  0  0  2  0  0  0  0  0  0
  180.1560  178.8250  140.0760 C   0  0  2  0  0  3  0  0  0  0  0  0
  181.3200  178.5690  142.7170 C   0  0  0  0  0  0  0  0  0  0  0  0
  181.6480  178.5110  140.1870 C   0  0  0  0  0  2  0  0  0  0  0  0
  182.1860  178.6270  141.5920 C   0  0  0  0  0  0  0  0  0  0  0  0
  186.2190  177.4900  143.2830 C   0  0  0  0  0  2  0  0  0  0  0  0
  187.7290  177.6440  143.4010 C   0  0  0  0  0  2  0  0  0  0  0  0
  189.9790  176.1890  142.3860 O   0  0  0  0  0  0  0  0  0  0  0  0
  187.6160  178.3800  139.8010 C   0  0  0  0  0  2  0  0  0  0  0  0
  191.1000  176.3350  138.2880 C   0  0  0  0  0  0  0  0  0  0  0  0
  190.8040  176.3010  139.6590 C   0  0  0  0  0  3  0  0  0  0  0  0
  189.6900  176.9820  140.1640 C   0  0  0  0  0  0  0  0  0  0  0  0
  188.3350  177.8370  142.0900 N   0  0  0  0  0  0  0  0  0  0  0  0
  189.1450  177.7350  137.9230 C   0  0  0  0  0  3  0  0  0  0  0  0
  188.8610  177.7100  139.2900 C   0  0  0  0  0  0  0  0  0  0  0  0
  190.2610  177.0580  137.4260 C   0  0  0  0  0  3  0  0  0  0  0  0
  187.8220  178.8970  141.2250 C   0  0  0  0  0  2  0  0  0  0  0  0
  189.3710  176.9670  141.6010 C   0  0  0  0  0  0  0  0  0  0  0  0
  192.3060  174.3570  137.7720 O   0  0  0  0  0  0  0  0  0  0  0  0
  192.2790  175.6160  137.7660 C   0  0  0  0  0  0  0  0  0  0  0  0
  193.4550  176.3570  137.2260 C   0  0  0  0  0  1  0  0  0  0  0  0
  179.9200  180.3350  140.0830 C   0  0  0  0  0  2  0  0  0  0  0  0
  179.9480  180.9100  138.6730 C   0  0  0  0  0  2  0  0  0  0  0  0
  181.0860  181.9030  138.4950 C   0  0  0  0  0  2  0  0  0  0  0  0
  180.8620  182.7490  137.2560 C   0  0  0  0  0  1  0  0  0  0  0  0
  1  8  1  0  0  0  0
  2 12  1  0  0  0  0
  3  7  1  0  0  0  0
  4  1  1  0  0  0  0
  5 15  1  1  0  0  0
  5  6  1  0  0  0  0
  6  9  2  0  0  0  0
  7  9  1  0  0  0  0
  8  5  1  0  0  0  0
  8  7  2  0  0  0  0
 10  2  1  0  0  0  0
 11 31  1  1  0  0  0
 11 13  1  0  0  0  0
 11 10  1  0  0  0  0
 12  3  2  0  0  0  0
 13 14  1  0  0  0  0
 14  1  2  0  0  0  0
 14 12  1  0  0  0  0
 15 16  1  0  0  0  0
 18 26  1  0  0  0  0
 19 20  1  0  0  0  0
 20 21  2  0  0  0  0
 21 27  1  0  0  0  0
 22 16  1  0  0  0  0
 23 24  2  0  0  0  0
 24 18  1  0  0  0  0
 24 21  1  0  0  0  0
 25 23  1  0  0  0  0
 25 19  2  0  0  0  0
 26 22  1  0  0  0  0
 27 22  1  0  0  0  0
 27 17  2  0  0  0  0
 29 28  2  0  0  0  0
 29 19  1  0  0  0  0
 30 29  1  0  0  0  0
 32 31  1  0  0  0  0
 33 32  1  0  0  0  0
 34 33  1  0  0  0  0
M  END
>  <MODEL>
9

>  <REMARK>
 VINA RESULT:      -8.2      3.679      5.346
  Name = 
  7 active torsions:
  status: ('A' for Active; 'I' for Inactive)
    1  A    between atoms: C_3  and  C_24
    2  A    between atoms: C_7  and  C_15
    3  A    between atoms: C_8  and  C_17
    4  A    between atoms: C_8  and  N_18
    5  A    between atoms: C_10  and  C_17
    6  A    between atoms: C_24  and  C_25
    7  A    between atoms: C_25  and  C_27
                            x       y       z     vdW  Elec       q    Type
                         _______ _______ _______ _____ _____    ______ ____

>  <TORSDO>
F 7

$$$$
