=
 OpenBabel10252414553D

 34 39  0  0  1  0  0  0  0  0999 V2000
  186.3630  178.2720  146.3790 C   0  0  0  0  0  0  0  0  0  0  0  0
  185.8960  178.1090  143.9850 C   0  0  0  0  0  0  0  0  0  0  0  0
  188.1920  177.9280  144.7960 C   0  0  0  0  0  0  0  0  0  0  0  0
  189.9360  177.4160  142.9090 C   0  0  1  0  0  0  0  0  0  0  0  0
  184.0880  178.4440  145.5640 C   0  0  0  0  0  3  0  0  0  0  0  0
  184.5350  178.2810  144.2470 C   0  0  0  0  0  3  0  0  0  0  0  0
  187.6780  177.7980  142.3670 C   0  0  0  0  0  0  0  0  0  0  0  0
  186.8190  178.1030  145.0540 C   0  0  0  0  0  0  0  0  0  0  0  0
  189.7930  177.4650  141.3790 C   0  0  0  0  0  2  0  0  0  0  0  0
  184.9980  178.4390  146.6270 C   0  0  0  0  0  3  0  0  0  0  0  0
  189.1000  177.9410  145.8620 C   0  0  0  0  0  3  0  0  0  0  0  0
  187.2800  178.2670  147.4350 C   0  0  0  0  0  3  0  0  0  0  0  0
  186.3690  177.9440  142.5960 C   0  0  0  0  0  3  0  0  0  0  0  0
  190.9820  178.4370  143.3370 C   0  0  0  0  0  1  0  0  0  0  0  0
  188.3040  177.5950  141.0400 C   0  0  2  0  0  3  0  0  0  0  0  0
  188.6160  177.7560  143.4280 N   0  0  0  0  0  0  0  0  0  0  0  0
  188.6450  178.1060  147.1760 C   0  0  0  0  0  3  0  0  0  0  0  0
  188.1040  178.8100  140.1460 C   0  0  0  0  0  2  0  0  0  0  0  0
  189.0960  178.8400  139.1540 O   0  0  0  0  0  0  0  0  0  0  0  0
  189.2540  178.6580  136.6880 C   0  0  0  0  0  2  0  0  0  0  0  0
  188.5120  178.3530  137.9730 C   0  0  1  0  0  0  0  0  0  0  0  0
  189.3660  177.2680  137.3090 C   0  0  1  0  0  3  0  0  0  0  0  0
  187.3030  175.8290  137.2360 C   0  0  0  0  0  2  0  0  0  0  0  0
  186.4470  177.0170  137.5610 C   0  0  0  0  0  3  0  0  0  0  0  0
  187.0060  178.1790  137.9170 C   0  0  0  0  0  3  0  0  0  0  0  0
  188.5460  176.2810  136.4750 C   0  0  0  0  0  2  0  0  0  0  0  0
  190.3300  175.9870  143.2910 C   0  0  0  0  0  2  0  0  0  0  0  0
  191.6830  175.8810  143.6410 O   0  0  0  0  0  0  0  0  0  0  0  0
  191.6870  175.2780  144.9070 C   0  0  1  0  0  3  0  0  0  0  0  0
  192.6010  174.0470  144.9720 C   0  0  0  0  0  2  0  0  0  0  0  0
  191.8430  172.7440  144.7710 C   0  0  0  0  0  1  0  0  0  0  0  0
  191.9590  176.2970  146.0190 C   0  0  0  0  0  2  0  0  0  0  0  0
  191.6170  175.7970  147.4190 C   0  0  0  0  0  2  0  0  0  0  0  0
  192.8440  175.7880  148.3120 C   0  0  0  0  0  1  0  0  0  0  0  0
  1 10  1  0  0  0  0
  1 12  1  0  0  0  0
  2  6  2  0  0  0  0
  2  8  1  0  0  0  0
  3  8  1  0  0  0  0
  3 11  2  0  0  0  0
  4 27  1  0  0  0  0
  4 14  1  1  0  0  0
  4 16  1  0  0  0  0
  5 10  2  0  0  0  0
  6  5  1  0  0  0  0
  7 13  2  0  0  0  0
  7 16  1  0  0  0  0
  8  1  2  0  0  0  0
  9  4  1  0  0  0  0
 11 17  1  0  0  0  0
 13  2  1  0  0  0  0
 15 18  1  6  0  0  0
 15  9  1  0  0  0  0
 15  7  1  0  0  0  0
 16  3  1  0  0  0  0
 17 12  2  0  0  0  0
 19 18  1  0  0  0  0
 20 22  1  0  0  0  0
 20 21  1  0  0  0  0
 21 19  1  1  0  0  0
 22 26  1  6  0  0  0
 22 21  1  0  0  0  0
 23 24  1  0  0  0  0
 24 25  2  0  0  0  0
 25 21  1  0  0  0  0
 26 23  1  0  0  0  0
 27 28  1  0  0  0  0
 28 29  1  0  0  0  0
 29 30  1  6  0  0  0
 29 32  1  0  0  0  0
 31 30  1  0  0  0  0
 32 33  1  0  0  0  0
 33 34  1  0  0  0  0
M  END
>  <MODEL>
1

>  <REMARK>
 VINA RESULT:      -8.0      0.000      0.000
  Name = 
  9 active torsions:
  status: ('A' for Active; 'I' for Inactive)
    1  A    between atoms: O_3  and  C_13
    2  A    between atoms: O_3  and  C_17
    3  A    between atoms: C_5  and  C_27
    4  A    between atoms: C_7  and  C_8
    5  A    between atoms: C_8  and  O_16
    6  A    between atoms: C_8  and  C_23
    7  A    between atoms: C_12  and  C_23
    8  A    between atoms: O_16  and  C_27
    9  A    between atoms: C_17  and  C_29
                            x       y       z     vdW  Elec       q    Type
                         _______ _______ _______ _____ _____    ______ ____

>  <TORSDO>
F 9

$$$$
=
 OpenBabel10252414553D

 34 39  0  0  1  0  0  0  0  0999 V2000
  184.1820  178.7640  144.4390 C   0  0  0  0  0  0  0  0  0  0  0  0
  185.0710  178.2290  142.2250 C   0  0  0  0  0  0  0  0  0  0  0  0
  186.5800  178.4050  144.1370 C   0  0  0  0  0  0  0  0  0  0  0  0
  189.0710  177.8290  143.5650 C   0  0  1  0  0  0  0  0  0  0  0  0
  182.6930  178.5820  142.5360 C   0  0  0  0  0  3  0  0  0  0  0  0
  183.7780  178.2890  141.7010 C   0  0  0  0  0  3  0  0  0  0  0  0
  187.4470  177.8920  141.8630 C   0  0  0  0  0  0  0  0  0  0  0  0
  185.2790  178.4660  143.6020 C   0  0  0  0  0  0  0  0  0  0  0  0
  189.7680  177.6550  142.2050 C   0  0  0  0  0  2  0  0  0  0  0  0
  182.8930  178.8170  143.9010 C   0  0  0  0  0  3  0  0  0  0  0  0
  186.7770  178.6580  145.5000 C   0  0  0  0  0  3  0  0  0  0  0  0
  184.3930  179.0000  145.8010 C   0  0  0  0  0  3  0  0  0  0  0  0
  186.2160  177.9280  141.3430 C   0  0  0  0  0  3  0  0  0  0  0  0
  189.7080  179.0040  144.2950 C   0  0  0  0  0  1  0  0  0  0  0  0
  188.6880  177.5790  141.1190 C   0  0  2  0  0  3  0  0  0  0  0  0
  187.6730  178.0950  143.2480 N   0  0  0  0  0  0  0  0  0  0  0  0
  185.6870  178.9510  146.3280 C   0  0  0  0  0  3  0  0  0  0  0  0
  188.9770  178.6320  140.0610 C   0  0  0  0  0  2  0  0  0  0  0  0
  190.0240  178.2020  139.2320 O   0  0  0  0  0  0  0  0  0  0  0  0
  190.3160  176.9640  137.1050 C   0  0  0  0  0  2  0  0  0  0  0  0
  189.4490  177.8160  138.0100 C   0  0  1  0  0  0  0  0  0  0  0  0
  189.2160  176.3030  137.9320 C   0  0  1  0  0  3  0  0  0  0  0  0
  186.8430  176.8040  137.2590 C   0  0  0  0  0  2  0  0  0  0  0  0
  187.2020  178.2400  137.0150 C   0  0  0  0  0  3  0  0  0  0  0  0
  188.4010  178.7110  137.3760 C   0  0  0  0  0  3  0  0  0  0  0  0
  188.0590  175.9180  137.0060 C   0  0  0  0  0  2  0  0  0  0  0  0
  189.2250  176.5160  144.3350 C   0  0  0  0  0  2  0  0  0  0  0  0
  190.5460  176.2860  144.7430 O   0  0  0  0  0  0  0  0  0  0  0  0
  190.4850  176.1830  146.1400 C   0  0  1  0  0  3  0  0  0  0  0  0
  191.7650  176.6790  146.8260 C   0  0  0  0  0  2  0  0  0  0  0  0
  192.3890  175.6280  147.7300 C   0  0  0  0  0  1  0  0  0  0  0  0
  189.2080  176.8200  146.7000 C   0  0  0  0  0  2  0  0  0  0  0  0
  189.4550  177.8390  147.8080 C   0  0  0  0  0  2  0  0  0  0  0  0
  188.2960  177.8760  148.7870 C   0  0  0  0  0  1  0  0  0  0  0  0
  1 12  1  0  0  0  0
  2  8  1  0  0  0  0
  3 11  2  0  0  0  0
  4 14  1  1  0  0  0
  4 27  1  0  0  0  0
  5 10  2  0  0  0  0
  6  2  2  0  0  0  0
  6  5  1  0  0  0  0
  7 16  1  0  0  0  0
  8  3  1  0  0  0  0
  8  1  2  0  0  0  0
  9  4  1  0  0  0  0
 10  1  1  0  0  0  0
 11 17  1  0  0  0  0
 12 17  2  0  0  0  0
 13  7  2  0  0  0  0
 13  2  1  0  0  0  0
 15 18  1  6  0  0  0
 15  7  1  0  0  0  0
 15  9  1  0  0  0  0
 16  4  1  0  0  0  0
 16  3  1  0  0  0  0
 19 18  1  0  0  0  0
 20 22  1  0  0  0  0
 20 21  1  0  0  0  0
 21 19  1  1  0  0  0
 22 26  1  6  0  0  0
 22 21  1  0  0  0  0
 24 23  1  0  0  0  0
 24 25  2  0  0  0  0
 25 21  1  0  0  0  0
 26 23  1  0  0  0  0
 27 28  1  0  0  0  0
 28 29  1  0  0  0  0
 29 32  1  1  0  0  0
 29 30  1  0  0  0  0
 30 31  1  0  0  0  0
 32 33  1  0  0  0  0
 33 34  1  0  0  0  0
M  END
>  <MODEL>
2

>  <REMARK>
 VINA RESULT:      -7.4      1.364      2.313
  Name = 
  9 active torsions:
  status: ('A' for Active; 'I' for Inactive)
    1  A    between atoms: O_3  and  C_13
    2  A    between atoms: O_3  and  C_17
    3  A    between atoms: C_5  and  C_27
    4  A    between atoms: C_7  and  C_8
    5  A    between atoms: C_8  and  O_16
    6  A    between atoms: C_8  and  C_23
    7  A    between atoms: C_12  and  C_23
    8  A    between atoms: O_16  and  C_27
    9  A    between atoms: C_17  and  C_29
                            x       y       z     vdW  Elec       q    Type
                         _______ _______ _______ _____ _____    ______ ____

>  <TORSDO>
F 9

$$$$
=
 OpenBabel10252414553D

 34 39  0  0  1  0  0  0  0  0999 V2000
  183.4490  178.6980  143.9340 C   0  0  0  0  0  0  0  0  0  0  0  0
  185.0980  178.5200  142.1380 C   0  0  0  0  0  0  0  0  0  0  0  0
  182.7300  178.7680  141.6000 C   0  0  0  0  0  0  0  0  0  0  0  0
  182.2500  178.9620  139.0310 C   0  0  1  0  0  0  0  0  0  0  0  0
  185.8030  178.4560  144.4560 C   0  0  0  0  0  3  0  0  0  0  0  0
  186.1130  178.4170  143.0920 C   0  0  0  0  0  3  0  0  0  0  0  0
  184.4350  178.5530  139.8030 C   0  0  0  0  0  0  0  0  0  0  0  0
  183.7570  178.6620  142.5570 C   0  0  0  0  0  0  0  0  0  0  0  0
  183.1630  178.6930  137.8230 C   0  0  0  0  0  2  0  0  0  0  0  0
  184.4760  178.5980  144.8770 C   0  0  0  0  0  3  0  0  0  0  0  0
  181.4010  178.8920  142.0260 C   0  0  0  0  0  3  0  0  0  0  0  0
  182.1200  178.8370  144.3440 C   0  0  0  0  0  3  0  0  0  0  0  0
  185.4250  178.4700  140.6990 C   0  0  0  0  0  3  0  0  0  0  0  0
  181.0770  177.9920  138.9850 C   0  0  0  0  0  1  0  0  0  0  0  0
  184.6020  178.5460  138.3320 C   0  0  2  0  0  3  0  0  0  0  0  0
  183.0870  178.7290  140.2030 N   0  0  0  0  0  0  0  0  0  0  0  0
  181.0990  178.9300  143.3930 C   0  0  0  0  0  3  0  0  0  0  0  0
  185.1650  177.2190  137.8470 C   0  0  0  0  0  2  0  0  0  0  0  0
  185.7400  177.3800  136.5780 O   0  0  0  0  0  0  0  0  0  0  0  0
  187.9650  177.5770  135.5040 C   0  0  0  0  0  2  0  0  0  0  0  0
  187.1340  177.3860  136.7560 C   0  0  1  0  0  0  0  0  0  0  0  0
  187.7510  178.7550  136.4500 C   0  0  1  0  0  3  0  0  0  0  0  0
  188.8960  178.6270  138.6880 C   0  0  0  0  0  2  0  0  0  0  0  0
  188.5560  177.1700  138.7930 C   0  0  0  0  0  3  0  0  0  0  0  0
  187.7300  176.6000  137.9080 C   0  0  0  0  0  3  0  0  0  0  0  0
  189.0470  179.0180  137.2200 C   0  0  0  0  0  2  0  0  0  0  0  0
  181.7990  180.4220  138.9540 C   0  0  0  0  0  2  0  0  0  0  0  0
  180.5640  180.5670  138.3070 O   0  0  0  0  0  0  0  0  0  0  0  0
  180.8420  181.3150  137.1540 C   0  0  1  0  0  3  0  0  0  0  0  0
  180.4830  180.5670  135.8630 C   0  0  0  0  0  2  0  0  0  0  0  0
  180.8230  181.3610  134.6120 C   0  0  0  0  0  1  0  0  0  0  0  0
  180.2360  182.7210  137.2310 C   0  0  0  0  0  2  0  0  0  0  0  0
  181.2660  183.8450  137.2130 C   0  0  0  0  0  2  0  0  0  0  0  0
  180.9750  184.8380  136.1020 C   0  0  0  0  0  1  0  0  0  0  0  0
  1 12  1  0  0  0  0
  1 10  2  0  0  0  0
  2  8  2  0  0  0  0
  2  6  1  0  0  0  0
  3 11  2  0  0  0  0
  3  8  1  0  0  0  0
  4 14  1  6  0  0  0
  4 16  1  0  0  0  0
  5 10  1  0  0  0  0
  6  5  2  0  0  0  0
  7 16  1  0  0  0  0
  7 13  2  0  0  0  0
  8  1  1  0  0  0  0
  9 15  1  0  0  0  0
  9  4  1  0  0  0  0
 11 17  1  0  0  0  0
 13  2  1  0  0  0  0
 15 18  1  6  0  0  0
 15  7  1  0  0  0  0
 16  3  1  0  0  0  0
 17 12  2  0  0  0  0
 19 18  1  0  0  0  0
 20 21  1  0  0  0  0
 21 19  1  6  0  0  0
 21 25  1  0  0  0  0
 22 20  1  6  0  0  0
 22 21  1  0  0  0  0
 22 26  1  0  0  0  0
 23 24  1  0  0  0  0
 25 24  2  0  0  0  0
 26 23  1  0  0  0  0
 27  4  1  0  0  0  0
 28 27  1  0  0  0  0
 29 30  1  6  0  0  0
 29 32  1  0  0  0  0
 29 28  1  0  0  0  0
 31 30  1  0  0  0  0
 33 32  1  0  0  0  0
 34 33  1  0  0  0  0
M  END
>  <MODEL>
3

>  <REMARK>
 VINA RESULT:      -7.3      4.546      8.851
  Name = 
  9 active torsions:
  status: ('A' for Active; 'I' for Inactive)
    1  A    between atoms: O_3  and  C_13
    2  A    between atoms: O_3  and  C_17
    3  A    between atoms: C_5  and  C_27
    4  A    between atoms: C_7  and  C_8
    5  A    between atoms: C_8  and  O_16
    6  A    between atoms: C_8  and  C_23
    7  A    between atoms: C_12  and  C_23
    8  A    between atoms: O_16  and  C_27
    9  A    between atoms: C_17  and  C_29
                            x       y       z     vdW  Elec       q    Type
                         _______ _______ _______ _____ _____    ______ ____

>  <TORSDO>
F 9

$$$$
=
 OpenBabel10252414553D

 34 39  0  0  1  0  0  0  0  0999 V2000
  189.8240  177.6150  145.8060 C   0  0  0  0  0  0  0  0  0  0  0  0
  187.4910  177.5840  145.0740 C   0  0  0  0  0  0  0  0  0  0  0  0
  189.2780  177.9120  143.4430 C   0  0  0  0  0  0  0  0  0  0  0  0
  188.4280  178.0550  140.9690 C   0  0  1  0  0  0  0  0  0  0  0  0
  188.0430  177.2860  147.4160 C   0  0  0  0  0  3  0  0  0  0  0  0
  187.0890  177.3760  146.3950 C   0  0  0  0  0  3  0  0  0  0  0  0
  186.8920  177.9030  142.7440 C   0  0  0  0  0  0  0  0  0  0  0  0
  188.8660  177.7040  144.7730 C   0  0  0  0  0  0  0  0  0  0  0  0
  187.0050  178.2220  140.4110 C   0  0  0  0  0  2  0  0  0  0  0  0
  189.4070  177.4040  147.1230 C   0  0  0  0  0  3  0  0  0  0  0  0
  190.6430  178.0460  143.1570 C   0  0  0  0  0  3  0  0  0  0  0  0
  191.1840  177.7370  145.5040 C   0  0  0  0  0  3  0  0  0  0  0  0
  186.4840  177.6870  143.9990 C   0  0  0  0  0  3  0  0  0  0  0  0
  189.2620  179.2600  140.5520 C   0  0  0  0  0  1  0  0  0  0  0  0
  186.0120  178.0030  141.5580 C   0  0  2  0  0  3  0  0  0  0  0  0
  188.2670  177.9940  142.4170 N   0  0  0  0  0  0  0  0  0  0  0  0
  191.5910  177.9550  144.1840 C   0  0  0  0  0  3  0  0  0  0  0  0
  185.0920  179.2110  141.6530 C   0  0  0  0  0  2  0  0  0  0  0  0
  184.8720  179.7460  140.3750 O   0  0  0  0  0  0  0  0  0  0  0  0
  182.9910  179.9680  138.7780 C   0  0  0  0  0  2  0  0  0  0  0  0
  183.6580  179.2140  139.9100 C   0  0  1  0  0  0  0  0  0  0  0  0
  183.7670  178.6900  138.4740 C   0  0  1  0  0  3  0  0  0  0  0  0
  182.7560  176.5340  139.2910 C   0  0  0  0  0  2  0  0  0  0  0  0
  182.3570  177.1940  140.5770 C   0  0  0  0  0  3  0  0  0  0  0  0
  182.7860  178.4270  140.8700 C   0  0  0  0  0  3  0  0  0  0  0  0
  182.7750  177.5650  138.1650 C   0  0  0  0  0  2  0  0  0  0  0  0
  188.9900  176.7430  140.4170 C   0  0  0  0  0  2  0  0  0  0  0  0
  190.0630  176.9470  139.5390 O   0  0  0  0  0  0  0  0  0  0  0  0
  189.7910  176.1280  138.4340 C   0  0  1  0  0  3  0  0  0  0  0  0
  188.8040  176.7710  137.4500 C   0  0  0  0  0  2  0  0  0  0  0  0
  189.2090  178.1820  137.0520 C   0  0  0  0  0  1  0  0  0  0  0  0
  191.0780  175.6300  137.7660 C   0  0  0  0  0  2  0  0  0  0  0  0
  192.3240  176.4220  138.1490 C   0  0  0  0  0  2  0  0  0  0  0  0
  193.4150  176.2650  137.1060 C   0  0  0  0  0  1  0  0  0  0  0  0
  1 10  2  0  0  0  0
  2  6  1  0  0  0  0
  3  8  1  0  0  0  0
  4 14  1  6  0  0  0
  4 16  1  0  0  0  0
  6  5  2  0  0  0  0
  7 13  2  0  0  0  0
  8  2  2  0  0  0  0
  8  1  1  0  0  0  0
  9  4  1  0  0  0  0
  9 15  1  0  0  0  0
 10  5  1  0  0  0  0
 11  3  2  0  0  0  0
 11 17  1  0  0  0  0
 12  1  1  0  0  0  0
 13  2  1  0  0  0  0
 15 18  1  1  0  0  0
 15  7  1  0  0  0  0
 16  7  1  0  0  0  0
 16  3  1  0  0  0  0
 17 12  2  0  0  0  0
 19 18  1  0  0  0  0
 20 21  1  0  0  0  0
 21 19  1  1  0  0  0
 21 25  1  0  0  0  0
 22 26  1  1  0  0  0
 22 20  1  0  0  0  0
 22 21  1  0  0  0  0
 23 24  1  0  0  0  0
 24 25  2  0  0  0  0
 26 23  1  0  0  0  0
 27  4  1  0  0  0  0
 28 27  1  0  0  0  0
 29 30  1  6  0  0  0
 29 28  1  0  0  0  0
 31 30  1  0  0  0  0
 32 33  1  0  0  0  0
 32 29  1  0  0  0  0
 34 33  1  0  0  0  0
M  END
>  <MODEL>
4

>  <REMARK>
 VINA RESULT:      -7.2      2.409      5.287
  Name = 
  9 active torsions:
  status: ('A' for Active; 'I' for Inactive)
    1  A    between atoms: O_3  and  C_13
    2  A    between atoms: O_3  and  C_17
    3  A    between atoms: C_5  and  C_27
    4  A    between atoms: C_7  and  C_8
    5  A    between atoms: C_8  and  O_16
    6  A    between atoms: C_8  and  C_23
    7  A    between atoms: C_12  and  C_23
    8  A    between atoms: O_16  and  C_27
    9  A    between atoms: C_17  and  C_29
                            x       y       z     vdW  Elec       q    Type
                         _______ _______ _______ _____ _____    ______ ____

>  <TORSDO>
F 9

$$$$
=
 OpenBabel10252414553D

 34 39  0  0  1  0  0  0  0  0999 V2000
  189.5570  177.5150  138.3130 C   0  0  0  0  0  0  0  0  0  0  0  0
  187.4140  178.4980  138.9570 C   0  0  0  0  0  0  0  0  0  0  0  0
  188.7870  177.3630  140.6260 C   0  0  0  0  0  0  0  0  0  0  0  0
  187.7990  177.4730  143.0500 C   0  0  1  0  0  0  0  0  0  0  0  0
  188.1890  178.6480  136.6650 C   0  0  0  0  0  3  0  0  0  0  0  0
  187.2220  178.9210  137.6400 C   0  0  0  0  0  3  0  0  0  0  0  0
  186.5870  178.3500  141.2340 C   0  0  0  0  0  0  0  0  0  0  0  0
  188.5870  177.7910  139.3000 C   0  0  0  0  0  0  0  0  0  0  0  0
  186.4050  177.8990  143.5410 C   0  0  0  0  0  2  0  0  0  0  0  0
  189.3540  177.9480  137.0000 C   0  0  0  0  0  3  0  0  0  0  0  0
  189.9460  176.6480  140.9520 C   0  0  0  0  0  3  0  0  0  0  0  0
  190.7170  176.8120  138.6560 C   0  0  0  0  0  3  0  0  0  0  0  0
  186.3910  178.7800  139.9830 C   0  0  0  0  0  3  0  0  0  0  0  0
  188.0190  176.0100  143.4100 C   0  0  0  0  0  1  0  0  0  0  0  0
  185.6730  178.5750  142.3760 C   0  0  2  0  0  3  0  0  0  0  0  0
  187.7720  177.6680  141.6050 N   0  0  0  0  0  0  0  0  0  0  0  0
  190.9080  176.3780  139.9710 C   0  0  0  0  0  3  0  0  0  0  0  0
  184.3380  177.8780  142.1600 C   0  0  0  0  0  2  0  0  0  0  0  0
  183.3520  178.8230  141.8390 O   0  0  0  0  0  0  0  0  0  0  0  0
  181.3320  178.9400  140.4090 C   0  0  0  0  0  2  0  0  0  0  0  0
  182.7090  178.3670  140.6770 C   0  0  1  0  0  0  0  0  0  0  0  0
  182.5340  179.4790  139.6370 C   0  0  1  0  0  3  0  0  0  0  0  0
  183.5790  177.9290  137.9520 C   0  0  0  0  0  2  0  0  0  0  0  0
  183.4160  176.7740  138.8940 C   0  0  0  0  0  3  0  0  0  0  0  0
  183.0280  176.9780  140.1580 C   0  0  0  0  0  3  0  0  0  0  0  0
  182.4780  178.9570  138.1990 C   0  0  0  0  0  2  0  0  0  0  0  0
  188.8250  178.3940  143.7150 C   0  0  0  0  0  2  0  0  0  0  0  0
  188.5770  178.5720  145.0830 O   0  0  0  0  0  0  0  0  0  0  0  0
  189.7700  178.2030  145.7210 C   0  0  1  0  0  3  0  0  0  0  0  0
  189.5570  177.1300  146.7980 C   0  0  0  0  0  2  0  0  0  0  0  0
  188.2080  177.2520  147.4870 C   0  0  0  0  0  1  0  0  0  0  0  0
  190.8660  177.8420  144.7110 C   0  0  0  0  0  2  0  0  0  0  0  0
  191.6810  176.6100  145.0900 C   0  0  0  0  0  2  0  0  0  0  0  0
  191.6810  175.5870  143.9690 C   0  0  0  0  0  1  0  0  0  0  0  0
  1 12  2  0  0  0  0
  1  8  1  0  0  0  0
  2  8  1  0  0  0  0
  2 13  1  0  0  0  0
  3 11  1  0  0  0  0
  3 16  1  0  0  0  0
  4 14  1  1  0  0  0
  4  9  1  0  0  0  0
  4 27  1  0  0  0  0
  5 10  2  0  0  0  0
  5  6  1  0  0  0  0
  6  2  2  0  0  0  0
  7 16  1  0  0  0  0
  7 15  1  0  0  0  0
  8  3  2  0  0  0  0
 10  1  1  0  0  0  0
 12 17  1  0  0  0  0
 13  7  2  0  0  0  0
 15 18  1  6  0  0  0
 15  9  1  0  0  0  0
 16  4  1  0  0  0  0
 17 11  2  0  0  0  0
 19 18  1  0  0  0  0
 20 21  1  0  0  0  0
 21 19  1  1  0  0  0
 22 26  1  6  0  0  0
 22 20  1  0  0  0  0
 22 21  1  0  0  0  0
 23 26  1  0  0  0  0
 23 24  1  0  0  0  0
 24 25  2  0  0  0  0
 25 21  1  0  0  0  0
 27 28  1  0  0  0  0
 28 29  1  0  0  0  0
 29 32  1  6  0  0  0
 29 30  1  0  0  0  0
 30 31  1  0  0  0  0
 32 33  1  0  0  0  0
 34 33  1  0  0  0  0
M  END
>  <MODEL>
5

>  <REMARK>
 VINA RESULT:      -7.0      2.596      5.745
  Name = 
  9 active torsions:
  status: ('A' for Active; 'I' for Inactive)
    1  A    between atoms: O_3  and  C_13
    2  A    between atoms: O_3  and  C_17
    3  A    between atoms: C_5  and  C_27
    4  A    between atoms: C_7  and  C_8
    5  A    between atoms: C_8  and  O_16
    6  A    between atoms: C_8  and  C_23
    7  A    between atoms: C_12  and  C_23
    8  A    between atoms: O_16  and  C_27
    9  A    between atoms: C_17  and  C_29
                            x       y       z     vdW  Elec       q    Type
                         _______ _______ _______ _____ _____    ______ ____

>  <TORSDO>
F 9

$$$$
=
 OpenBabel10252414553D

 34 39  0  0  1  0  0  0  0  0999 V2000
  189.5760  177.4670  138.0430 C   0  0  0  0  0  0  0  0  0  0  0  0
  187.4530  178.4570  138.7430 C   0  0  0  0  0  0  0  0  0  0  0  0
  188.8830  177.3480  140.3830 C   0  0  0  0  0  0  0  0  0  0  0  0
  187.9750  177.4930  142.8370 C   0  0  1  0  0  0  0  0  0  0  0  0
  188.1520  178.5750  136.4250 C   0  0  0  0  0  3  0  0  0  0  0  0
  187.2180  178.8610  137.4270 C   0  0  0  0  0  3  0  0  0  0  0  0
  186.7030  178.3420  141.0480 C   0  0  0  0  0  0  0  0  0  0  0  0
  188.6390  177.7570  139.0580 C   0  0  0  0  0  0  0  0  0  0  0  0
  186.5980  177.9250  143.3670 C   0  0  0  0  0  2  0  0  0  0  0  0
  189.3280  177.8800  136.7310 C   0  0  0  0  0  3  0  0  0  0  0  0
  190.0530  176.6390  140.6810 C   0  0  0  0  0  3  0  0  0  0  0  0
  190.7470  176.7710  138.3580 C   0  0  0  0  0  3  0  0  0  0  0  0
  186.4640  178.7540  139.7990 C   0  0  0  0  0  3  0  0  0  0  0  0
  188.2090  176.0360  143.2110 C   0  0  0  0  0  1  0  0  0  0  0  0
  185.8260  178.5840  142.2170 C   0  0  2  0  0  3  0  0  0  0  0  0
  187.9010  177.6670  141.3900 N   0  0  0  0  0  0  0  0  0  0  0  0
  190.9820  176.3560  139.6730 C   0  0  0  0  0  3  0  0  0  0  0  0
  184.4860  177.8830  142.0560 C   0  0  0  0  0  2  0  0  0  0  0  0
  183.4830  178.8250  141.7870 O   0  0  0  0  0  0  0  0  0  0  0  0
  181.3630  178.8920  140.5060 C   0  0  0  0  0  2  0  0  0  0  0  0
  182.7740  178.3630  140.6670 C   0  0  1  0  0  0  0  0  0  0  0  0
  182.4880  179.4810  139.6590 C   0  0  1  0  0  3  0  0  0  0  0  0
  183.4600  177.9900  137.8800 C   0  0  0  0  0  2  0  0  0  0  0  0
  183.4040  176.8180  138.8130 C   0  0  0  0  0  3  0  0  0  0  0  0
  183.1010  176.9920  140.1040 C   0  0  0  0  0  3  0  0  0  0  0  0
  182.3470  178.9760  138.2200 C   0  0  0  0  0  2  0  0  0  0  0  0
  189.0220  178.4250  143.4530 C   0  0  0  0  0  2  0  0  0  0  0  0
  188.9420  178.4670  144.8520 O   0  0  0  0  0  0  0  0  0  0  0  0
  189.7420  177.4040  145.2950 C   0  0  1  0  0  3  0  0  0  0  0  0
  191.2200  177.5810  144.9200 C   0  0  0  0  0  2  0  0  0  0  0  0
  191.7510  176.4310  144.0780 C   0  0  0  0  0  1  0  0  0  0  0  0
  189.5230  177.1120  146.7840 C   0  0  0  0  0  2  0  0  0  0  0  0
  188.1320  177.4780  147.2920 C   0  0  0  0  0  2  0  0  0  0  0  0
  188.1960  178.0560  148.6940 C   0  0  0  0  0  1  0  0  0  0  0  0
  1 12  2  0  0  0  0
  1  8  1  0  0  0  0
  2  8  1  0  0  0  0
  2 13  1  0  0  0  0
  3 11  1  0  0  0  0
  3 16  1  0  0  0  0
  4 14  1  1  0  0  0
  4  9  1  0  0  0  0
  4 27  1  0  0  0  0
  5 10  2  0  0  0  0
  5  6  1  0  0  0  0
  6  2  2  0  0  0  0
  7 16  1  0  0  0  0
  7 15  1  0  0  0  0
  8  3  2  0  0  0  0
 10  1  1  0  0  0  0
 12 17  1  0  0  0  0
 13  7  2  0  0  0  0
 15 18  1  6  0  0  0
 15  9  1  0  0  0  0
 16  4  1  0  0  0  0
 17 11  2  0  0  0  0
 19 18  1  0  0  0  0
 20 21  1  0  0  0  0
 21 19  1  1  0  0  0
 22 26  1  6  0  0  0
 22 20  1  0  0  0  0
 22 21  1  0  0  0  0
 23 26  1  0  0  0  0
 23 24  1  0  0  0  0
 24 25  2  0  0  0  0
 25 21  1  0  0  0  0
 27 28  1  0  0  0  0
 28 29  1  0  0  0  0
 29 30  1  1  0  0  0
 29 32  1  0  0  0  0
 31 30  1  0  0  0  0
 32 33  1  0  0  0  0
 33 34  1  0  0  0  0
M  END
>  <MODEL>
6

>  <REMARK>
 VINA RESULT:      -6.9      2.596      5.764
  Name = 
  9 active torsions:
  status: ('A' for Active; 'I' for Inactive)
    1  A    between atoms: O_3  and  C_13
    2  A    between atoms: O_3  and  C_17
    3  A    between atoms: C_5  and  C_27
    4  A    between atoms: C_7  and  C_8
    5  A    between atoms: C_8  and  O_16
    6  A    between atoms: C_8  and  C_23
    7  A    between atoms: C_12  and  C_23
    8  A    between atoms: O_16  and  C_27
    9  A    between atoms: C_17  and  C_29
                            x       y       z     vdW  Elec       q    Type
                         _______ _______ _______ _____ _____    ______ ____

>  <TORSDO>
F 9

$$$$
=
 OpenBabel10252414553D

 34 39  0  0  1  0  0  0  0  0999 V2000
  189.7120  176.9740  141.0090 C   0  0  0  0  0  0  0  0  0  0  0  0
  187.6970  178.3500  140.8510 C   0  0  0  0  0  0  0  0  0  0  0  0
  188.2540  177.2360  142.9510 C   0  0  0  0  0  0  0  0  0  0  0  0
  186.6080  177.8030  144.9100 C   0  0  1  0  0  0  0  0  0  0  0  0
  189.1520  178.0870  138.9300 C   0  0  0  0  0  3  0  0  0  0  0  0
  188.0020  178.6280  139.5170 C   0  0  0  0  0  3  0  0  0  0  0  0
  186.1990  178.6200  142.7410 C   0  0  0  0  0  0  0  0  0  0  0  0
  188.5550  177.5190  141.6060 C   0  0  0  0  0  0  0  0  0  0  0  0
  185.2360  178.4980  144.8900 C   0  0  0  0  0  2  0  0  0  0  0  0
  190.0060  177.2630  139.6740 C   0  0  0  0  0  3  0  0  0  0  0  0
  189.1020  176.3980  143.6860 C   0  0  0  0  0  3  0  0  0  0  0  0
  190.5570  176.1500  141.7580 C   0  0  0  0  0  3  0  0  0  0  0  0
  186.4800  178.9140  141.4670 C   0  0  0  0  0  3  0  0  0  0  0  0
  186.4290  176.3810  145.4230 C   0  0  0  0  0  1  0  0  0  0  0  0
  185.0370  179.1270  143.5060 C   0  0  2  0  0  3  0  0  0  0  0  0
  187.0630  177.8160  143.5240 N   0  0  0  0  0  0  0  0  0  0  0  0
  190.2500  175.8600  143.0910 C   0  0  0  0  0  3  0  0  0  0  0  0
  183.7280  178.6230  142.9180 C   0  0  0  0  0  2  0  0  0  0  0  0
  182.6450  179.2140  143.5870 O   0  0  0  0  0  0  0  0  0  0  0  0
  180.3220  178.3520  143.5770 C   0  0  0  0  0  2  0  0  0  0  0  0
  181.4960  178.9460  142.8250 C   0  0  1  0  0  0  0  0  0  0  0  0
  180.3150  179.8370  143.2250 C   0  0  1  0  0  3  0  0  0  0  0  0
  180.0590  180.4190  140.7900 C   0  0  0  0  0  2  0  0  0  0  0  0
  180.9750  179.2930  140.4120 C   0  0  0  0  0  3  0  0  0  0  0  0
  181.6500  178.6230  141.3510 C   0  0  0  0  0  3  0  0  0  0  0  0
  179.3240  180.0750  142.0820 C   0  0  0  0  0  2  0  0  0  0  0  0
  187.5330  178.6310  145.8050 C   0  0  0  0  0  2  0  0  0  0  0  0
  188.8650  178.1990  145.7410 O   0  0  0  0  0  0  0  0  0  0  0  0
  189.2800  178.0990  147.0770 C   0  0  1  0  0  3  0  0  0  0  0  0
  188.1410  178.3640  148.0710 C   0  0  0  0  0  2  0  0  0  0  0  0
  187.7540  177.1230  148.8610 C   0  0  0  0  0  1  0  0  0  0  0  0
  190.0270  176.7860  147.3420 C   0  0  0  0  0  2  0  0  0  0  0  0
  191.3930  176.7010  146.6700 C   0  0  0  0  0  2  0  0  0  0  0  0
  192.2530  175.6270  147.3110 C   0  0  0  0  0  1  0  0  0  0  0  0
  1  8  2  0  0  0  0
  1 12  1  0  0  0  0
  2 13  1  0  0  0  0
  2  8  1  0  0  0  0
  3 16  1  0  0  0  0
  3 11  2  0  0  0  0
  4 14  1  1  0  0  0
  4 27  1  0  0  0  0
  5  6  1  0  0  0  0
  5 10  2  0  0  0  0
  6  2  2  0  0  0  0
  7 15  1  0  0  0  0
  7 16  1  0  0  0  0
  8  3  1  0  0  0  0
  9  4  1  0  0  0  0
 10  1  1  0  0  0  0
 12 17  2  0  0  0  0
 13  7  2  0  0  0  0
 15 18  1  6  0  0  0
 15  9  1  0  0  0  0
 16  4  1  0  0  0  0
 17 11  1  0  0  0  0
 18 19  1  0  0  0  0
 21 22  1  0  0  0  0
 21 20  1  0  0  0  0
 21 19  1  1  0  0  0
 22 26  1  6  0  0  0
 22 20  1  0  0  0  0
 23 26  1  0  0  0  0
 24 23  1  0  0  0  0
 24 25  2  0  0  0  0
 25 21  1  0  0  0  0
 28 27  1  0  0  0  0
 28 29  1  0  0  0  0
 29 32  1  6  0  0  0
 29 30  1  0  0  0  0
 30 31  1  0  0  0  0
 33 34  1  0  0  0  0
 33 32  1  0  0  0  0
M  END
>  <MODEL>
7

>  <REMARK>
 VINA RESULT:      -6.9      2.889      6.224
  Name = 
  9 active torsions:
  status: ('A' for Active; 'I' for Inactive)
    1  A    between atoms: O_3  and  C_13
    2  A    between atoms: O_3  and  C_17
    3  A    between atoms: C_5  and  C_27
    4  A    between atoms: C_7  and  C_8
    5  A    between atoms: C_8  and  O_16
    6  A    between atoms: C_8  and  C_23
    7  A    between atoms: C_12  and  C_23
    8  A    between atoms: O_16  and  C_27
    9  A    between atoms: C_17  and  C_29
                            x       y       z     vdW  Elec       q    Type
                         _______ _______ _______ _____ _____    ______ ____

>  <TORSDO>
F 9

$$$$
=
 OpenBabel10252414553D

 34 39  0  0  1  0  0  0  0  0999 V2000
  186.5780  174.3730  136.1570 C   0  0  0  0  0  0  0  0  0  0  0  0
  188.9190  173.9540  136.7220 C   0  0  0  0  0  0  0  0  0  0  0  0
  187.8570  176.0470  137.3930 C   0  0  0  0  0  0  0  0  0  0  0  0
  189.4060  177.5970  138.8300 C   0  0  1  0  0  0  0  0  0  0  0  0
  187.6400  172.2960  135.5000 C   0  0  0  0  0  3  0  0  0  0  0  0
  188.8390  172.7100  136.0920 C   0  0  0  0  0  3  0  0  0  0  0  0
  190.2440  175.5950  137.9220 C   0  0  0  0  0  0  0  0  0  0  0  0
  187.7830  174.7930  136.7580 C   0  0  0  0  0  0  0  0  0  0  0  0
  190.9180  177.5250  139.0970 C   0  0  0  0  0  2  0  0  0  0  0  0
  186.5110  173.1240  135.5330 C   0  0  0  0  0  3  0  0  0  0  0  0
  186.7300  176.8790  137.4080 C   0  0  0  0  0  3  0  0  0  0  0  0
  185.4570  175.2080  136.1920 C   0  0  0  0  0  3  0  0  0  0  0  0
  190.1860  174.3930  137.3390 C   0  0  0  0  0  3  0  0  0  0  0  0
  189.0980  178.8990  138.1020 C   0  0  0  0  0  1  0  0  0  0  0  0
  191.4270  176.1650  138.6060 C   0  0  2  0  0  3  0  0  0  0  0  0
  189.1070  176.4380  137.9970 N   0  0  0  0  0  0  0  0  0  0  0  0
  185.5350  176.4590  136.8130 C   0  0  0  0  0  3  0  0  0  0  0  0
  192.5730  176.3880  137.6300 C   0  0  0  0  0  2  0  0  0  0  0  0
  193.7580  175.8510  138.1540 O   0  0  0  0  0  0  0  0  0  0  0  0
  195.6860  174.5040  137.3740 C   0  0  0  0  0  2  0  0  0  0  0  0
  194.2380  174.9230  137.2160 C   0  0  1  0  0  0  0  0  0  0  0  0
  194.5780  173.5730  137.8580 C   0  0  1  0  0  3  0  0  0  0  0  0
  193.1610  172.4870  136.0830 C   0  0  0  0  0  2  0  0  0  0  0  0
  193.1390  173.7660  135.3000 C   0  0  0  0  0  3  0  0  0  0  0  0
  193.6230  174.8940  135.8300 C   0  0  0  0  0  3  0  0  0  0  0  0
  194.4550  172.3950  136.8870 C   0  0  0  0  0  2  0  0  0  0  0  0
  188.6930  177.5060  140.1820 C   0  0  0  0  0  2  0  0  0  0  0  0
  189.5610  177.7260  141.2600 O   0  0  0  0  0  0  0  0  0  0  0  0
  189.0280  176.9750  142.3170 C   0  0  1  0  0  3  0  0  0  0  0  0
  190.0080  175.9170  142.8440 C   0  0  0  0  0  2  0  0  0  0  0  0
  191.2600  176.5300  143.4500 C   0  0  0  0  0  1  0  0  0  0  0  0
  188.4530  177.8740  143.4180 C   0  0  0  0  0  2  0  0  0  0  0  0
  187.6310  177.1280  144.4640 C   0  0  0  0  0  2  0  0  0  0  0  0
  188.0640  177.5030  145.8700 C   0  0  0  0  0  1  0  0  0  0  0  0
  1 12  2  0  0  0  0
  1  8  1  0  0  0  0
  2  8  1  0  0  0  0
  2 13  1  0  0  0  0
  3 11  1  0  0  0  0
  3 16  1  0  0  0  0
  4 14  1  6  0  0  0
  4  9  1  0  0  0  0
  4 27  1  0  0  0  0
  5 10  2  0  0  0  0
  5  6  1  0  0  0  0
  6  2  2  0  0  0  0
  7 16  1  0  0  0  0
  7 15  1  0  0  0  0
  8  3  2  0  0  0  0
 10  1  1  0  0  0  0
 12 17  1  0  0  0  0
 13  7  2  0  0  0  0
 15 18  1  6  0  0  0
 15  9  1  0  0  0  0
 16  4  1  0  0  0  0
 17 11  2  0  0  0  0
 18 19  1  0  0  0  0
 20 22  1  0  0  0  0
 21 20  1  0  0  0  0
 21 22  1  0  0  0  0
 21 19  1  1  0  0  0
 22 26  1  6  0  0  0
 23 26  1  0  0  0  0
 24 25  2  0  0  0  0
 24 23  1  0  0  0  0
 25 21  1  0  0  0  0
 27 28  1  0  0  0  0
 28 29  1  0  0  0  0
 29 30  1  1  0  0  0
 29 32  1  0  0  0  0
 30 31  1  0  0  0  0
 32 33  1  0  0  0  0
 33 34  1  0  0  0  0
M  END
>  <MODEL>
8

>  <REMARK>
 VINA RESULT:      -6.7      3.558      7.412
  Name = 
  9 active torsions:
  status: ('A' for Active; 'I' for Inactive)
    1  A    between atoms: O_3  and  C_13
    2  A    between atoms: O_3  and  C_17
    3  A    between atoms: C_5  and  C_27
    4  A    between atoms: C_7  and  C_8
    5  A    between atoms: C_8  and  O_16
    6  A    between atoms: C_8  and  C_23
    7  A    between atoms: C_12  and  C_23
    8  A    between atoms: O_16  and  C_27
    9  A    between atoms: C_17  and  C_29
                            x       y       z     vdW  Elec       q    Type
                         _______ _______ _______ _____ _____    ______ ____

>  <TORSDO>
F 9

$$$$
=
 OpenBabel10252414553D

 34 39  0  0  1  0  0  0  0  0999 V2000
  189.9070  177.6160  145.6610 C   0  0  0  0  0  0  0  0  0  0  0  0
  187.5610  177.5850  144.9720 C   0  0  0  0  0  0  0  0  0  0  0  0
  189.3170  177.9270  143.3110 C   0  0  0  0  0  0  0  0  0  0  0  0
  188.4220  178.0860  140.8540 C   0  0  1  0  0  0  0  0  0  0  0  0
  188.1560  177.2720  147.3010 C   0  0  0  0  0  3  0  0  0  0  0  0
  187.1830  177.3670  146.2990 C   0  0  0  0  0  3  0  0  0  0  0  0
  186.9190  177.9190  142.6560 C   0  0  0  0  0  0  0  0  0  0  0  0
  188.9300  177.7090  144.6470 C   0  0  0  0  0  0  0  0  0  0  0  0
  186.9880  178.2540  140.3230 C   0  0  0  0  0  2  0  0  0  0  0  0
  189.5140  177.3940  146.9840 C   0  0  0  0  0  3  0  0  0  0  0  0
  190.6760  178.0660  143.0010 C   0  0  0  0  0  3  0  0  0  0  0  0
  191.2600  177.7420  145.3350 C   0  0  0  0  0  3  0  0  0  0  0  0
  186.5350  177.6930  143.9170 C   0  0  0  0  0  3  0  0  0  0  0  0
  189.2460  179.2950  140.4300 C   0  0  0  0  0  1  0  0  0  0  0  0
  186.0170  178.0250  141.4860 C   0  0  2  0  0  3  0  0  0  0  0  0
  188.2880  178.0140  142.3040 N   0  0  0  0  0  0  0  0  0  0  0  0
  191.6430  177.9700  144.0100 C   0  0  0  0  0  3  0  0  0  0  0  0
  185.0970  179.2300  141.6070 C   0  0  0  0  0  2  0  0  0  0  0  0
  183.7760  178.8050  141.8110 O   0  0  0  0  0  0  0  0  0  0  0  0
  182.8460  177.1760  140.1930 C   0  0  0  0  0  2  0  0  0  0  0  0
  183.2080  178.6050  140.5420 C   0  0  1  0  0  0  0  0  0  0  0  0
  181.7490  178.1430  140.6270 C   0  0  1  0  0  3  0  0  0  0  0  0
  181.1760  179.9940  139.0200 C   0  0  0  0  0  2  0  0  0  0  0  0
  182.6290  180.1870  138.7040 C   0  0  0  0  0  3  0  0  0  0  0  0
  183.5680  179.5560  139.4180 C   0  0  0  0  0  3  0  0  0  0  0  0
  180.9190  178.5390  139.4030 C   0  0  0  0  0  2  0  0  0  0  0  0
  188.9760  176.7780  140.2830 C   0  0  0  0  0  2  0  0  0  0  0  0
  190.2420  176.9410  139.7040 O   0  0  0  0  0  0  0  0  0  0  0  0
  190.0760  176.5840  138.3580 C   0  0  1  0  0  3  0  0  0  0  0  0
  191.1060  175.5460  137.8910 C   0  0  0  0  0  2  0  0  0  0  0  0
  192.5350  176.0590  137.9800 C   0  0  0  0  0  1  0  0  0  0  0  0
  188.6280  176.1850  138.0510 C   0  0  0  0  0  2  0  0  0  0  0  0
  188.0310  176.8920  136.8380 C   0  0  0  0  0  2  0  0  0  0  0  0
  187.5830  175.8930  135.7880 C   0  0  0  0  0  1  0  0  0  0  0  0
  1 10  2  0  0  0  0
  2  6  1  0  0  0  0
  3  8  1  0  0  0  0
  4 14  1  6  0  0  0
  4 16  1  0  0  0  0
  6  5  2  0  0  0  0
  7 13  2  0  0  0  0
  8  2  2  0  0  0  0
  8  1  1  0  0  0  0
  9  4  1  0  0  0  0
  9 15  1  0  0  0  0
 10  5  1  0  0  0  0
 11  3  2  0  0  0  0
 11 17  1  0  0  0  0
 12  1  1  0  0  0  0
 13  2  1  0  0  0  0
 15 18  1  1  0  0  0
 15  7  1  0  0  0  0
 16  7  1  0  0  0  0
 16  3  1  0  0  0  0
 17 12  2  0  0  0  0
 18 19  1  0  0  0  0
 20 21  1  0  0  0  0
 20 22  1  0  0  0  0
 21 22  1  0  0  0  0
 21 19  1  1  0  0  0
 22 26  1  6  0  0  0
 23 26  1  0  0  0  0
 24 23  1  0  0  0  0
 24 25  2  0  0  0  0
 25 21  1  0  0  0  0
 27  4  1  0  0  0  0
 28 27  1  0  0  0  0
 29 30  1  1  0  0  0
 29 28  1  0  0  0  0
 30 31  1  0  0  0  0
 32 29  1  0  0  0  0
 33 32  1  0  0  0  0
 34 33  1  0  0  0  0
M  END
>  <MODEL>
9

>  <REMARK>
 VINA RESULT:      -6.6      2.757      5.746
  Name = 
  9 active torsions:
  status: ('A' for Active; 'I' for Inactive)
    1  A    between atoms: O_3  and  C_13
    2  A    between atoms: O_3  and  C_17
    3  A    between atoms: C_5  and  C_27
    4  A    between atoms: C_7  and  C_8
    5  A    between atoms: C_8  and  O_16
    6  A    between atoms: C_8  and  C_23
    7  A    between atoms: C_12  and  C_23
    8  A    between atoms: O_16  and  C_27
    9  A    between atoms: C_17  and  C_29
                            x       y       z     vdW  Elec       q    Type
                         _______ _______ _______ _____ _____    ______ ____

>  <TORSDO>
F 9

$$$$
