=
 OpenBabel10262422133D

 43 49  0  0  1  0  0  0  0  0999 V2000
  187.2590  177.7300  147.2360 C   0  0  0  0  0  0  0  0  0  0  0  0
  186.9960  178.0320  142.1040 C   0  0  2  0  0  3  0  0  0  0  0  0
  184.3320  178.1090  141.4070 C   0  0  2  0  0  3  0  0  0  0  0  0
  187.7330  177.6510  144.8570 C   0  0  0  0  0  0  0  0  0  0  0  0
  186.0560  178.3880  146.9780 C   0  0  0  0  0  3  0  0  0  0  0  0
  187.6260  177.4520  148.5450 O   0  0  0  0  0  1  0  0  0  0  0  0
  186.4930  178.2850  144.5860 C   0  0  0  0  0  0  0  0  0  0  0  0
  188.0940  177.3660  146.1780 C   0  0  0  0  0  3  0  0  0  0  0  0
  185.6780  178.6690  145.6620 C   0  0  0  0  0  3  0  0  0  0  0  0
  184.6280  178.3680  142.8970 C   0  0  0  0  0  2  0  0  0  0  0  0
  186.1030  178.6680  143.1800 C   0  0  2  0  0  3  0  0  0  0  0  0
  188.4670  178.0980  142.5040 C   0  0  0  0  0  2  0  0  0  0  0  0
  186.7330  178.6990  140.7450 C   0  0  2  0  0  3  0  0  0  0  0  0
  185.2240  178.9400  140.4800 C   0  0  0  0  0  2  0  0  0  0  0  0
  188.6630  177.2420  143.7500 C   0  0  0  0  0  2  0  0  0  0  0  0
  187.4180  177.9540  139.5900 C   0  0  2  0  0  3  0  0  0  0  0  0
  188.0710  176.0970  137.3900 C   0  0  0  0  0  2  0  0  0  0  0  0
  189.5520  176.3770  137.6510 C   0  0  0  0  0  0  0  0  0  0  0  0
  190.2320  175.1730  137.5600 F   0  0  0  0  0  0  0  0  0  0  0  0
  189.0860  178.6210  139.2720 S   0  0  0  0  0  0  0  0  0  0  0  0
  187.2890  177.3740  137.0930 C   0  0  0  0  0  2  0  0  0  0  0  0
  186.5530  177.9030  138.3210 C   0  0  0  0  0  2  0  0  0  0  0  0
  190.0590  177.2370  136.6920 F   0  0  0  0  0  0  0  0  0  0  0  0
  189.7950  176.9540  139.0510 C   0  0  0  0  0  2  0  0  0  0  0  0
  182.8820  178.2980  141.1030 C   0  0  0  0  0  0  0  0  0  0  0  0
  182.3040  177.5590  140.0240 N   0  0  0  0  0  2  0  0  0  0  0  0
  182.1010  178.8190  141.9970 N   0  0  0  0  0  2  0  0  0  0  0  0
  182.4920  177.9070  138.6170 C   0  0  2  0  0  3  0  0  0  0  0  0
  182.3470  179.4020  138.3980 C   0  0  0  0  0  1  0  0  0  0  0  0
  181.5010  177.1240  137.7230 C   0  0  2  0  0  3  0  0  0  0  0  0
  181.9170  175.7530  137.3580 C   0  0  1  0  0  3  0  0  0  0  0  0
  183.6810  177.1840  134.6540 C   0  0  0  0  0  1  0  0  0  0  0  0
  181.9660  176.8100  136.3420 N   0  0  2  0  0  0  0  0  0  0  0  0
  183.3620  175.4050  137.6410 C   0  0  2  0  0  3  0  0  0  0  0  0
  184.1710  176.0200  136.6760 O   0  0  0  0  0  0  0  0  0  0  0  0
  183.3950  177.0610  136.1360 C   0  0  1  0  0  3  0  0  0  0  0  0
  182.6870  173.1810  136.7670 C   0  0  0  0  0  2  0  0  0  0  0  0
  183.5460  173.9470  137.6900 N   0  0  1  0  0  0  0  0  0  0  0  0
  186.7870  173.3180  136.0730 F   0  0  0  0  0  0  0  0  0  0  0  0
  184.6300  172.7900  135.2430 C   0  0  0  0  0  2  0  0  0  0  0  0
  185.4650  173.6990  136.1280 C   0  0  1  0  0  3  0  0  0  0  0  0
  183.1740  173.2250  135.3170 C   0  0  0  0  0  2  0  0  0  0  0  0
  184.9690  173.6040  137.5710 C   0  0  0  0  0  2  0  0  0  0  0  0
  1  6  1  0  0  0  0
  2 12  1  1  0  0  0
  2 11  1  0  0  0  0
  3 25  1  1  0  0  0
  3 10  1  0  0  0  0
  4  8  1  0  0  0  0
  5  1  1  0  0  0  0
  7  4  2  0  0  0  0
  7  9  1  0  0  0  0
  8  1  2  0  0  0  0
  9  5  2  0  0  0  0
 11 10  1  6  0  0  0
 11  7  1  0  0  0  0
 12 15  1  0  0  0  0
 13 14  1  6  0  0  0
 13  2  1  0  0  0  0
 14  3  1  0  0  0  0
 15  4  1  0  0  0  0
 16 22  1  6  0  0  0
 16 13  1  0  0  0  0
 17 18  1  0  0  0  0
 18 24  1  0  0  0  0
 19 18  1  0  0  0  0
 20 16  1  0  0  0  0
 21 17  1  0  0  0  0
 21 22  1  0  0  0  0
 23 18  1  0  0  0  0
 24 20  1  0  0  0  0
 25 27  2  0  0  0  0
 26 25  1  0  0  0  0
 28 29  1  1  0  0  0
 28 26  1  0  0  0  0
 30 28  1  1  0  0  0
 31 34  1  0  0  0  0
 31 30  1  0  0  0  0
 32 36  1  0  0  0  0
 33 31  1  0  0  0  0
 33 30  1  0  0  0  0
 34 38  1  0  0  0  0
 35 34  1  0  0  0  0
 36 33  1  0  0  0  0
 36 35  1  0  0  0  0
 37 38  1  0  0  0  0
 39 41  1  0  0  0  0
 40 42  1  0  0  0  0
 40 41  1  0  0  0  0
 41 43  1  0  0  0  0
 42 37  1  0  0  0  0
 43 38  1  0  0  0  0
M  END
>  <MODEL>
1

>  <REMARK>
 VINA RESULT:      -9.5      0.000      0.000
  Name = 
  5 active torsions:
  status: ('A' for Active; 'I' for Inactive)
    1  A    between atoms: C_1  and  C_34
    2  A    between atoms: C_2  and  C_13
    3  A    between atoms: C_3  and  C_12
    4  A    between atoms: N_6  and  C_12
    5  A    between atoms: N_14  and  C_22
                            x       y       z     vdW  Elec       q    Type
                         _______ _______ _______ _____ _____    ______ ____

>  <TORSDO>
F 5

$$$$
=
 OpenBabel10262422133D

 43 49  0  0  1  0  0  0  0  0999 V2000
  186.8610  177.4200  144.4470 C   0  0  0  0  0  0  0  0  0  0  0  0
  189.6390  176.9090  140.1440 C   0  0  2  0  0  3  0  0  0  0  0  0
  188.0500  177.6720  138.0270 C   0  0  2  0  0  3  0  0  0  0  0  0
  188.5210  176.7970  142.7910 C   0  0  0  0  0  0  0  0  0  0  0  0
  186.3270  178.3600  143.5630 C   0  0  0  0  0  3  0  0  0  0  0  0
  186.3080  177.2720  145.7110 O   0  0  0  0  0  1  0  0  0  0  0  0
  187.9590  177.7220  141.8740 C   0  0  0  0  0  0  0  0  0  0  0  0
  187.9550  176.6450  144.0610 C   0  0  0  0  0  3  0  0  0  0  0  0
  186.8760  178.5130  142.2870 C   0  0  0  0  0  3  0  0  0  0  0  0
  187.5290  178.0790  139.4190 C   0  0  0  0  0  2  0  0  0  0  0  0
  188.5850  177.9600  140.5220 C   0  0  2  0  0  3  0  0  0  0  0  0
  190.5450  176.5900  141.3300 C   0  0  0  0  0  2  0  0  0  0  0  0
  190.4330  177.3820  138.9170 C   0  0  2  0  0  3  0  0  0  0  0  0
  189.5290  178.0210  137.8310 C   0  0  0  0  0  2  0  0  0  0  0  0
  189.6990  175.9410  142.4190 C   0  0  0  0  0  2  0  0  0  0  0  0
  191.3370  176.2780  138.3490 C   0  0  2  0  0  3  0  0  0  0  0  0
  192.4360  173.7110  137.3880 C   0  0  0  0  0  2  0  0  0  0  0  0
  193.8370  174.2540  137.6770 C   0  0  0  0  0  0  0  0  0  0  0  0
  194.5750  173.2310  138.2530 F   0  0  0  0  0  0  0  0  0  0  0  0
  193.0030  176.9180  137.9730 S   0  0  0  0  0  0  0  0  0  0  0  0
  191.6610  174.6080  136.4270 C   0  0  0  0  0  2  0  0  0  0  0  0
  190.7030  175.5490  137.1530 C   0  0  0  0  0  2  0  0  0  0  0  0
  194.4620  174.6330  136.5010 F   0  0  0  0  0  0  0  0  0  0  0  0
  193.8120  175.4320  138.6590 C   0  0  0  0  0  2  0  0  0  0  0  0
  187.1940  178.2390  136.9430 C   0  0  0  0  0  0  0  0  0  0  0  0
  185.9050  177.6640  136.7130 N   0  0  0  0  0  2  0  0  0  0  0  0
  187.4450  179.4230  136.4780 N   0  0  0  0  0  2  0  0  0  0  0  0
  185.7020  176.3980  136.0100 C   0  0  2  0  0  3  0  0  0  0  0  0
  186.7850  176.1670  134.9720 C   0  0  0  0  0  1  0  0  0  0  0  0
  184.2990  176.3560  135.3570 C   0  0  2  0  0  3  0  0  0  0  0  0
  183.1600  176.5550  136.2780 C   0  0  1  0  0  3  0  0  0  0  0  0
  183.2870  173.0860  136.9260 C   0  0  0  0  0  1  0  0  0  0  0  0
  183.4250  175.2140  135.7480 N   0  0  2  0  0  0  0  0  0  0  0  0
  183.4830  176.4720  137.7550 C   0  0  2  0  0  3  0  0  0  0  0  0
  183.6630  175.1260  138.1010 O   0  0  0  0  0  0  0  0  0  0  0  0
  183.9330  174.4550  136.8950 C   0  0  1  0  0  3  0  0  0  0  0  0
  182.4720  176.8170  139.9950 C   0  0  0  0  0  2  0  0  0  0  0  0
  182.4390  177.1280  138.5540 N   0  0  1  0  0  0  0  0  0  0  0  0
  183.4240  180.6650  138.7320 F   0  0  0  0  0  0  0  0  0  0  0  0
  183.4440  179.0680  140.4840 C   0  0  0  0  0  2  0  0  0  0  0  0
  183.5360  179.3170  138.9890 C   0  0  1  0  0  3  0  0  0  0  0  0
  183.5680  177.5750  140.7480 C   0  0  0  0  0  2  0  0  0  0  0  0
  182.4080  178.5690  138.2760 C   0  0  0  0  0  2  0  0  0  0  0  0
  1  6  1  0  0  0  0
  2 11  1  0  0  0  0
  2 12  1  1  0  0  0
  3 25  1  6  0  0  0
  3 10  1  0  0  0  0
  4  8  2  0  0  0  0
  5  1  2  0  0  0  0
  7  9  2  0  0  0  0
  7  4  1  0  0  0  0
  8  1  1  0  0  0  0
  9  5  1  0  0  0  0
 11 10  1  6  0  0  0
 11  7  1  0  0  0  0
 12 15  1  0  0  0  0
 13 14  1  6  0  0  0
 13  2  1  0  0  0  0
 14  3  1  0  0  0  0
 15  4  1  0  0  0  0
 16 22  1  6  0  0  0
 16 13  1  0  0  0  0
 17 18  1  0  0  0  0
 18 19  1  0  0  0  0
 18 24  1  0  0  0  0
 20 16  1  0  0  0  0
 20 24  1  0  0  0  0
 21 22  1  0  0  0  0
 21 17  1  0  0  0  0
 23 18  1  0  0  0  0
 26 25  1  0  0  0  0
 27 25  2  0  0  0  0
 28 29  1  6  0  0  0
 28 26  1  0  0  0  0
 30 33  1  0  0  0  0
 30 28  1  1  0  0  0
 30 31  1  0  0  0  0
 31 34  1  0  0  0  0
 33 31  1  0  0  0  0
 33 36  1  0  0  0  0
 34 35  1  0  0  0  0
 34 38  1  0  0  0  0
 36 32  1  0  0  0  0
 36 35  1  0  0  0  0
 37 42  1  0  0  0  0
 38 37  1  0  0  0  0
 39 41  1  0  0  0  0
 40 42  1  0  0  0  0
 41 40  1  0  0  0  0
 43 38  1  0  0  0  0
 43 41  1  0  0  0  0
M  END
>  <MODEL>
2

>  <REMARK>
 VINA RESULT:      -8.8      2.708      4.666
  Name = 
  5 active torsions:
  status: ('A' for Active; 'I' for Inactive)
    1  A    between atoms: C_1  and  C_34
    2  A    between atoms: C_2  and  C_13
    3  A    between atoms: C_3  and  C_12
    4  A    between atoms: N_6  and  C_12
    5  A    between atoms: N_14  and  C_22
                            x       y       z     vdW  Elec       q    Type
                         _______ _______ _______ _____ _____    ______ ____

>  <TORSDO>
F 5

$$$$
=
 OpenBabel10262422133D

 43 49  0  0  1  0  0  0  0  0999 V2000
  181.5770  178.9290  140.2220 C   0  0  0  0  0  0  0  0  0  0  0  0
  186.6090  178.3790  141.1540 C   0  0  2  0  0  3  0  0  0  0  0  0
  187.8590  177.9130  138.7450 C   0  0  2  0  0  3  0  0  0  0  0  0
  183.7410  178.5580  141.2550 C   0  0  0  0  0  0  0  0  0  0  0  0
  182.2050  179.3350  139.0440 C   0  0  0  0  0  3  0  0  0  0  0  0
  180.1910  178.9230  140.2970 O   0  0  0  0  0  1  0  0  0  0  0  0
  184.3850  178.9320  140.0470 C   0  0  0  0  0  0  0  0  0  0  0  0
  182.3440  178.5440  141.3230 C   0  0  0  0  0  3  0  0  0  0  0  0
  183.6000  179.3420  138.9590 C   0  0  0  0  0  3  0  0  0  0  0  0
  186.4170  178.4460  138.6430 C   0  0  0  0  0  2  0  0  0  0  0  0
  185.8880  179.0220  139.9600 C   0  0  2  0  0  3  0  0  0  0  0  0
  185.9240  178.7430  142.4680 C   0  0  0  0  0  2  0  0  0  0  0  0
  188.0940  178.7730  141.1430 C   0  0  2  0  0  3  0  0  0  0  0  0
  188.7150  178.7220  139.7230 C   0  0  0  0  0  2  0  0  0  0  0  0
  184.5260  178.1360  142.4650 C   0  0  0  0  0  2  0  0  0  0  0  0
  188.9140  177.9780  142.1700 C   0  0  2  0  0  3  0  0  0  0  0  0
  189.8530  176.5760  144.5930 C   0  0  0  0  0  2  0  0  0  0  0  0
  191.2890  176.8070  144.1170 C   0  0  0  0  0  0  0  0  0  0  0  0
  192.0460  177.1670  145.2210 F   0  0  0  0  0  0  0  0  0  0  0  0
  190.5570  177.5440  141.5080 S   0  0  0  0  0  0  0  0  0  0  0  0
  189.0210  175.8220  143.5590 C   0  0  0  0  0  2  0  0  0  0  0  0
  188.1570  176.7560  142.7150 C   0  0  0  0  0  2  0  0  0  0  0  0
  191.8170  175.6430  143.5860 F   0  0  0  0  0  0  0  0  0  0  0  0
  191.3830  177.9410  143.0880 C   0  0  0  0  0  2  0  0  0  0  0  0
  188.4960  177.8140  137.3970 C   0  0  0  0  0  0  0  0  0  0  0  0
  187.9500  176.8970  136.4450 N   0  0  0  0  0  2  0  0  0  0  0  0
  189.2670  178.7690  136.9790 N   0  0  0  0  0  2  0  0  0  0  0  0
  188.1780  175.4540  136.4950 C   0  0  2  0  0  3  0  0  0  0  0  0
  189.6070  175.1380  136.8930 C   0  0  0  0  0  1  0  0  0  0  0  0
  187.8300  174.8000  135.1350 C   0  0  2  0  0  3  0  0  0  0  0  0
  186.4430  174.3080  135.0000 C   0  0  1  0  0  3  0  0  0  0  0  0
  187.5330  171.3030  136.5020 C   0  0  0  0  0  1  0  0  0  0  0  0
  187.5320  173.3400  135.1650 N   0  0  2  0  0  0  0  0  0  0  0  0
  185.6420  174.2300  136.2820 C   0  0  2  0  0  3  0  0  0  0  0  0
  186.0750  173.1180  137.0170 O   0  0  0  0  0  0  0  0  0  0  0  0
  187.3530  172.8070  136.5190 C   0  0  1  0  0  3  0  0  0  0  0  0
  183.3500  173.8030  137.1340 C   0  0  0  0  0  2  0  0  0  0  0  0
  184.2010  174.1930  135.9950 N   0  0  1  0  0  0  0  0  0  0  0  0
  183.1700  177.7100  135.7180 F   0  0  0  0  0  0  0  0  0  0  0  0
  182.6350  176.1780  137.4460 C   0  0  0  0  0  2  0  0  0  0  0  0
  183.6220  176.5820  136.3660 C   0  0  1  0  0  3  0  0  0  0  0  0
  183.1500  174.9310  138.1490 C   0  0  0  0  0  2  0  0  0  0  0  0
  183.7720  175.4430  135.3570 C   0  0  0  0  0  2  0  0  0  0  0  0
  1  6  1  0  0  0  0
  1  8  1  0  0  0  0
  2 12  1  1  0  0  0
  3 25  1  6  0  0  0
  3 14  1  0  0  0  0
  4  8  2  0  0  0  0
  4 15  1  0  0  0  0
  5  1  2  0  0  0  0
  7  4  1  0  0  0  0
  9  5  1  0  0  0  0
  9  7  2  0  0  0  0
 10  3  1  0  0  0  0
 11 10  1  6  0  0  0
 11  7  1  0  0  0  0
 11  2  1  0  0  0  0
 13 14  1  6  0  0  0
 13  2  1  0  0  0  0
 13 16  1  0  0  0  0
 15 12  1  0  0  0  0
 16 22  1  6  0  0  0
 18 17  1  0  0  0  0
 18 19  1  0  0  0  0
 20 16  1  0  0  0  0
 20 24  1  0  0  0  0
 21 17  1  0  0  0  0
 22 21  1  0  0  0  0
 23 18  1  0  0  0  0
 24 18  1  0  0  0  0
 26 28  1  0  0  0  0
 26 25  1  0  0  0  0
 27 25  2  0  0  0  0
 28 29  1  6  0  0  0
 30 33  1  0  0  0  0
 30 28  1  1  0  0  0
 31 30  1  0  0  0  0
 31 33  1  0  0  0  0
 31 34  1  0  0  0  0
 32 36  1  0  0  0  0
 33 36  1  0  0  0  0
 34 35  1  0  0  0  0
 36 35  1  0  0  0  0
 37 42  1  0  0  0  0
 38 34  1  0  0  0  0
 38 37  1  0  0  0  0
 39 41  1  0  0  0  0
 40 42  1  0  0  0  0
 41 40  1  0  0  0  0
 43 38  1  0  0  0  0
 43 41  1  0  0  0  0
M  END
>  <MODEL>
3

>  <REMARK>
 VINA RESULT:      -8.7      3.326      5.858
  Name = 
  5 active torsions:
  status: ('A' for Active; 'I' for Inactive)
    1  A    between atoms: C_1  and  C_34
    2  A    between atoms: C_2  and  C_13
    3  A    between atoms: C_3  and  C_12
    4  A    between atoms: N_6  and  C_12
    5  A    between atoms: N_14  and  C_22
                            x       y       z     vdW  Elec       q    Type
                         _______ _______ _______ _____ _____    ______ ____

>  <TORSDO>
F 5

$$$$
=
 OpenBabel10262422133D

 43 49  0  0  1  0  0  0  0  0999 V2000
  191.2160  176.4480  145.9990 C   0  0  0  0  0  0  0  0  0  0  0  0
  188.8550  177.5640  141.5630 C   0  0  2  0  0  3  0  0  0  0  0  0
  186.1780  177.9220  142.1080 C   0  0  2  0  0  3  0  0  0  0  0  0
  190.6290  176.7110  143.6580 C   0  0  0  0  0  0  0  0  0  0  0  0
  190.1100  177.2160  146.3660 C   0  0  0  0  0  3  0  0  0  0  0  0
  192.0620  175.9470  146.9770 O   0  0  0  0  0  1  0  0  0  0  0  0
  189.4810  177.4590  144.0280 C   0  0  0  0  0  0  0  0  0  0  0  0
  191.4730  176.2000  144.6490 C   0  0  0  0  0  3  0  0  0  0  0  0
  189.2510  177.7230  145.3860 C   0  0  0  0  0  3  0  0  0  0  0  0
  187.1050  177.9260  143.3390 C   0  0  0  0  0  2  0  0  0  0  0  0
  188.5860  178.0810  142.9840 C   0  0  2  0  0  3  0  0  0  0  0  0
  190.3530  177.4700  141.2880 C   0  0  0  0  0  2  0  0  0  0  0  0
  188.1300  178.4500  140.5380 C   0  0  2  0  0  3  0  0  0  0  0  0
  186.6930  178.8270  140.9850 C   0  0  0  0  0  2  0  0  0  0  0  0
  190.9450  176.4190  142.2190 C   0  0  0  0  0  2  0  0  0  0  0  0
  188.1640  177.8510  139.1250 C   0  0  2  0  0  3  0  0  0  0  0  0
  187.6760  176.2250  136.7090 C   0  0  0  0  0  2  0  0  0  0  0  0
  189.0820  176.5950  136.2300 C   0  0  0  0  0  0  0  0  0  0  0  0
  189.6560  175.4550  135.6880 F   0  0  0  0  0  0  0  0  0  0  0  0
  189.4310  178.6640  138.0940 S   0  0  0  0  0  0  0  0  0  0  0  0
  186.8190  177.4590  136.9740 C   0  0  0  0  0  2  0  0  0  0  0  0
  186.7810  177.8340  138.4540 C   0  0  0  0  0  2  0  0  0  0  0  0
  189.0180  177.5630  135.2420 F   0  0  0  0  0  0  0  0  0  0  0  0
  189.9780  177.0770  137.3770 C   0  0  0  0  0  2  0  0  0  0  0  0
  184.7720  178.2500  142.4880 C   0  0  0  0  0  0  0  0  0  0  0  0
  183.7020  177.6080  141.7890 N   0  0  0  0  0  2  0  0  0  0  0  0
  184.5290  178.8040  143.6350 N   0  0  0  0  0  2  0  0  0  0  0  0
  183.2720  177.9930  140.4460 C   0  0  2  0  0  3  0  0  0  0  0  0
  183.2460  179.5020  140.2900 C   0  0  0  0  0  1  0  0  0  0  0  0
  181.8870  177.3840  140.1220 C   0  0  2  0  0  3  0  0  0  0  0  0
  181.9020  176.1850  139.2580 C   0  0  1  0  0  3  0  0  0  0  0  0
  181.9140  178.3800  136.4900 C   0  0  0  0  0  1  0  0  0  0  0  0
  181.4500  177.4640  138.6990 N   0  0  2  0  0  0  0  0  0  0  0  0
  183.2140  175.8890  138.5630 C   0  0  2  0  0  3  0  0  0  0  0  0
  183.3730  176.7870  137.4990 O   0  0  0  0  0  0  0  0  0  0  0  0
  182.5180  177.8680  137.7810 C   0  0  1  0  0  3  0  0  0  0  0  0
  182.0430  173.9820  137.4890 C   0  0  0  0  0  2  0  0  0  0  0  0
  183.2710  174.4850  138.1330 N   0  0  1  0  0  0  0  0  0  0  0  0
  185.4840  174.4500  135.1990 F   0  0  0  0  0  0  0  0  0  0  0  0
  183.1390  174.1050  135.2460 C   0  0  0  0  0  2  0  0  0  0  0  0
  184.3430  174.7540  135.9060 C   0  0  1  0  0  3  0  0  0  0  0  0
  181.8890  174.4520  136.0410 C   0  0  0  0  0  2  0  0  0  0  0  0
  184.4800  174.2380  137.3390 C   0  0  0  0  0  2  0  0  0  0  0  0
  1  5  1  0  0  0  0
  1  6  1  0  0  0  0
  2 12  1  6  0  0  0
  2 11  1  0  0  0  0
  3 25  1  1  0  0  0
  3 10  1  0  0  0  0
  4  7  2  0  0  0  0
  4  8  1  0  0  0  0
  7  9  1  0  0  0  0
  8  1  2  0  0  0  0
  9  5  2  0  0  0  0
 11 10  1  1  0  0  0
 11  7  1  0  0  0  0
 12 15  1  0  0  0  0
 13 14  1  1  0  0  0
 13  2  1  0  0  0  0
 14  3  1  0  0  0  0
 15  4  1  0  0  0  0
 16 22  1  6  0  0  0
 16 13  1  0  0  0  0
 17 21  1  0  0  0  0
 18 17  1  0  0  0  0
 18 24  1  0  0  0  0
 19 18  1  0  0  0  0
 20 16  1  0  0  0  0
 21 22  1  0  0  0  0
 23 18  1  0  0  0  0
 24 20  1  0  0  0  0
 25 27  2  0  0  0  0
 26 25  1  0  0  0  0
 28 29  1  1  0  0  0
 28 26  1  0  0  0  0
 30 28  1  6  0  0  0
 31 30  1  0  0  0  0
 32 36  1  0  0  0  0
 33 31  1  0  0  0  0
 33 30  1  0  0  0  0
 34 31  1  0  0  0  0
 35 36  1  0  0  0  0
 35 34  1  0  0  0  0
 36 33  1  0  0  0  0
 37 38  1  0  0  0  0
 38 34  1  0  0  0  0
 39 41  1  0  0  0  0
 40 41  1  0  0  0  0
 40 42  1  0  0  0  0
 41 43  1  0  0  0  0
 42 37  1  0  0  0  0
 43 38  1  0  0  0  0
M  END
>  <MODEL>
4

>  <REMARK>
 VINA RESULT:      -8.5      1.756      2.367
  Name = 
  5 active torsions:
  status: ('A' for Active; 'I' for Inactive)
    1  A    between atoms: C_1  and  C_34
    2  A    between atoms: C_2  and  C_13
    3  A    between atoms: C_3  and  C_12
    4  A    between atoms: N_6  and  C_12
    5  A    between atoms: N_14  and  C_22
                            x       y       z     vdW  Elec       q    Type
                         _______ _______ _______ _____ _____    ______ ____

>  <TORSDO>
F 5

$$$$
=
 OpenBabel10262422133D

 43 49  0  0  1  0  0  0  0  0999 V2000
  186.8040  178.4060  146.9320 C   0  0  0  0  0  0  0  0  0  0  0  0
  184.3950  178.6980  142.3930 C   0  0  2  0  0  3  0  0  0  0  0  0
  186.3160  178.6280  140.4200 C   0  0  2  0  0  3  0  0  0  0  0  0
  185.1950  178.7750  145.1530 C   0  0  0  0  0  0  0  0  0  0  0  0
  187.6490  177.7490  146.0360 C   0  0  0  0  0  3  0  0  0  0  0  0
  187.1790  178.5390  148.2610 O   0  0  0  0  0  1  0  0  0  0  0  0
  186.0670  178.1420  144.2290 C   0  0  0  0  0  0  0  0  0  0  0  0
  185.5820  178.9150  146.4900 C   0  0  0  0  0  3  0  0  0  0  0  0
  187.2800  177.6130  144.6940 C   0  0  0  0  0  3  0  0  0  0  0  0
  186.7990  178.2050  141.8210 C   0  0  0  0  0  2  0  0  0  0  0  0
  185.6540  177.9160  142.7960 C   0  0  2  0  0  3  0  0  0  0  0  0
  183.3320  178.6280  143.4860 C   0  0  0  0  0  2  0  0  0  0  0  0
  183.8730  178.1870  141.0410 C   0  0  2  0  0  3  0  0  0  0  0  0
  185.0100  177.9360  140.0170 C   0  0  0  0  0  2  0  0  0  0  0  0
  183.8700  179.3380  144.7220 C   0  0  0  0  0  2  0  0  0  0  0  0
  182.7610  179.0810  140.4720 C   0  0  2  0  0  3  0  0  0  0  0  0
  181.2250  181.2990  139.2720 C   0  0  0  0  0  2  0  0  0  0  0  0
  179.9770  180.7520  139.9680 C   0  0  0  0  0  0  0  0  0  0  0  0
  179.2670  181.8320  140.4700 F   0  0  0  0  0  0  0  0  0  0  0  0
  181.1300  178.2760  140.6130 S   0  0  0  0  0  0  0  0  0  0  0  0
  181.8800  180.2580  138.3680 C   0  0  0  0  0  2  0  0  0  0  0  0
  183.0590  179.5610  139.0430 C   0  0  0  0  0  2  0  0  0  0  0  0
  179.1710  180.0840  139.0620 F   0  0  0  0  0  0  0  0  0  0  0  0
  180.3240  179.8270  141.1400 C   0  0  0  0  0  2  0  0  0  0  0  0
  187.3880  178.4350  139.3980 C   0  0  0  0  0  0  0  0  0  0  0  0
  187.0100  178.2040  138.0390 N   0  0  0  0  0  2  0  0  0  0  0  0
  188.5980  178.8230  139.6560 N   0  0  0  0  0  2  0  0  0  0  0  0
  186.5150  176.9190  137.5480 C   0  0  2  0  0  3  0  0  0  0  0  0
  187.6480  175.9220  137.3860 C   0  0  0  0  0  1  0  0  0  0  0  0
  185.7510  177.1020  136.2140 C   0  0  2  0  0  3  0  0  0  0  0  0
  184.2940  176.8630  136.2750 C   0  0  1  0  0  3  0  0  0  0  0  0
  184.9970  173.4430  135.7430 C   0  0  0  0  0  1  0  0  0  0  0  0
  185.1550  175.8710  135.6230 N   0  0  2  0  0  0  0  0  0  0  0  0
  183.7880  176.1870  137.5310 C   0  0  2  0  0  3  0  0  0  0  0  0
  184.1140  174.8260  137.4730 O   0  0  0  0  0  0  0  0  0  0  0  0
  185.1580  174.7240  136.5350 C   0  0  1  0  0  3  0  0  0  0  0  0
  181.6430  176.8790  136.4900 C   0  0  0  0  0  2  0  0  0  0  0  0
  182.3470  176.4180  137.7020 N   0  0  1  0  0  0  0  0  0  0  0  0
  180.8470  173.0720  137.9670 F   0  0  0  0  0  0  0  0  0  0  0  0
  180.6500  174.6070  136.1710 C   0  0  0  0  0  2  0  0  0  0  0  0
  181.4910  174.1130  137.3350 C   0  0  1  0  0  3  0  0  0  0  0  0
  181.3770  175.7550  135.4860 C   0  0  0  0  0  2  0  0  0  0  0  0
  181.7100  175.2530  138.3290 C   0  0  0  0  0  2  0  0  0  0  0  0
  1  6  1  0  0  0  0
  2 11  1  0  0  0  0
  2 12  1  1  0  0  0
  3 25  1  6  0  0  0
  3 10  1  0  0  0  0
  4  8  2  0  0  0  0
  5  1  2  0  0  0  0
  7  9  2  0  0  0  0
  7  4  1  0  0  0  0
  8  1  1  0  0  0  0
  9  5  1  0  0  0  0
 11 10  1  6  0  0  0
 11  7  1  0  0  0  0
 12 15  1  0  0  0  0
 13 14  1  6  0  0  0
 13  2  1  0  0  0  0
 14  3  1  0  0  0  0
 15  4  1  0  0  0  0
 16 22  1  6  0  0  0
 16 20  1  0  0  0  0
 16 13  1  0  0  0  0
 17 18  1  0  0  0  0
 18 19  1  0  0  0  0
 18 24  1  0  0  0  0
 20 24  1  0  0  0  0
 21 22  1  0  0  0  0
 21 17  1  0  0  0  0
 23 18  1  0  0  0  0
 25 27  2  0  0  0  0
 26 25  1  0  0  0  0
 28 29  1  6  0  0  0
 28 26  1  0  0  0  0
 30 31  1  0  0  0  0
 30 28  1  1  0  0  0
 31 34  1  0  0  0  0
 32 36  1  0  0  0  0
 33 30  1  0  0  0  0
 33 31  1  0  0  0  0
 33 36  1  0  0  0  0
 34 38  1  0  0  0  0
 35 34  1  0  0  0  0
 36 35  1  0  0  0  0
 37 38  1  0  0  0  0
 38 43  1  0  0  0  0
 40 41  1  0  0  0  0
 41 39  1  0  0  0  0
 41 43  1  0  0  0  0
 42 40  1  0  0  0  0
 42 37  1  0  0  0  0
M  END
>  <MODEL>
5

>  <REMARK>
 VINA RESULT:      -8.5      3.448      5.294
  Name = 
  5 active torsions:
  status: ('A' for Active; 'I' for Inactive)
    1  A    between atoms: C_1  and  C_34
    2  A    between atoms: C_2  and  C_13
    3  A    between atoms: C_3  and  C_12
    4  A    between atoms: N_6  and  C_12
    5  A    between atoms: N_14  and  C_22
                            x       y       z     vdW  Elec       q    Type
                         _______ _______ _______ _____ _____    ______ ____

>  <TORSDO>
F 5

$$$$
=
 OpenBabel10262422133D

 43 49  0  0  1  0  0  0  0  0999 V2000
  181.6400  178.6340  139.8620 C   0  0  0  0  0  0  0  0  0  0  0  0
  186.6620  178.2650  140.9300 C   0  0  2  0  0  3  0  0  0  0  0  0
  187.9640  177.5860  138.5990 C   0  0  2  0  0  3  0  0  0  0  0  0
  183.7910  178.4030  140.9630 C   0  0  0  0  0  0  0  0  0  0  0  0
  182.2840  178.9330  138.6600 C   0  0  0  0  0  3  0  0  0  0  0  0
  180.2540  178.6110  139.9140 O   0  0  0  0  0  1  0  0  0  0  0  0
  184.4510  178.6680  139.7350 C   0  0  0  0  0  0  0  0  0  0  0  0
  182.3930  178.3730  141.0080 C   0  0  0  0  0  3  0  0  0  0  0  0
  183.6800  178.9550  138.5990 C   0  0  0  0  0  3  0  0  0  0  0  0
  186.5160  178.0810  138.4210 C   0  0  0  0  0  2  0  0  0  0  0  0
  185.9540  178.7750  139.6650 C   0  0  2  0  0  3  0  0  0  0  0  0
  185.9470  178.7450  142.1890 C   0  0  0  0  0  2  0  0  0  0  0  0
  188.1410  178.6820  140.9050 C   0  0  2  0  0  3  0  0  0  0  0  0
  188.7890  178.5020  139.5080 C   0  0  0  0  0  2  0  0  0  0  0  0
  184.5590  178.1160  142.2220 C   0  0  0  0  0  2  0  0  0  0  0  0
  188.9530  178.0060  142.0190 C   0  0  2  0  0  3  0  0  0  0  0  0
  189.8560  176.8360  144.5750 C   0  0  0  0  0  2  0  0  0  0  0  0
  191.2980  177.1000  144.1360 C   0  0  0  0  0  0  0  0  0  0  0  0
  191.9930  177.5770  145.2370 F   0  0  0  0  0  0  0  0  0  0  0  0
  190.6400  177.6040  141.4540 S   0  0  0  0  0  0  0  0  0  0  0  0
  189.1020  175.9680  143.5720 C   0  0  0  0  0  2  0  0  0  0  0  0
  188.2320  176.7930  142.6270 C   0  0  0  0  0  2  0  0  0  0  0  0
  191.9000  175.9260  143.7160 F   0  0  0  0  0  0  0  0  0  0  0  0
  191.3820  178.1570  143.0280 C   0  0  0  0  0  2  0  0  0  0  0  0
  188.6270  177.3660  137.2790 C   0  0  0  0  0  0  0  0  0  0  0  0
  187.8210  176.9950  136.1580 N   0  0  0  0  0  2  0  0  0  0  0  0
  189.8130  177.8440  137.0680 N   0  0  0  0  0  2  0  0  0  0  0  0
  187.2970  175.6450  135.9540 C   0  0  2  0  0  3  0  0  0  0  0  0
  185.8000  175.6700  135.7050 C   0  0  0  0  0  1  0  0  0  0  0  0
  187.6360  174.7400  137.1630 C   0  0  2  0  0  3  0  0  0  0  0  0
  188.8990  173.9800  137.0570 C   0  0  1  0  0  3  0  0  0  0  0  0
  187.0720  171.4970  135.3340 C   0  0  0  0  0  1  0  0  0  0  0  0
  187.6240  173.2710  136.9090 N   0  0  2  0  0  0  0  0  0  0  0  0
  189.5360  173.9460  135.6840 C   0  0  2  0  0  3  0  0  0  0  0  0
  188.8130  173.0590  134.8740 O   0  0  0  0  0  0  0  0  0  0  0  0
  187.5540  172.9240  135.4870 C   0  0  1  0  0  3  0  0  0  0  0  0
  191.7770  173.9950  134.6180 C   0  0  0  0  0  2  0  0  0  0  0  0
  190.9600  173.5940  135.7790 N   0  0  1  0  0  0  0  0  0  0  0  0
  192.3720  175.9010  138.2680 F   0  0  0  0  0  0  0  0  0  0  0  0
  192.7560  175.8860  135.9280 C   0  0  0  0  0  2  0  0  0  0  0  0
  191.8060  175.5480  137.0630 C   0  0  1  0  0  3  0  0  0  0  0  0
  192.1140  175.4870  134.6080 C   0  0  0  0  0  2  0  0  0  0  0  0
  191.5170  174.0460  137.0590 C   0  0  0  0  0  2  0  0  0  0  0  0
  1  6  1  0  0  0  0
  1  8  1  0  0  0  0
  2 12  1  1  0  0  0
  3 25  1  6  0  0  0
  3 14  1  0  0  0  0
  4  8  2  0  0  0  0
  4 15  1  0  0  0  0
  5  1  2  0  0  0  0
  7  4  1  0  0  0  0
  9  5  1  0  0  0  0
  9  7  2  0  0  0  0
 10  3  1  0  0  0  0
 11 10  1  6  0  0  0
 11  7  1  0  0  0  0
 11  2  1  0  0  0  0
 12 15  1  0  0  0  0
 13 14  1  6  0  0  0
 13  2  1  0  0  0  0
 13 16  1  0  0  0  0
 16 22  1  6  0  0  0
 18 17  1  0  0  0  0
 18 19  1  0  0  0  0
 20 16  1  0  0  0  0
 20 24  1  0  0  0  0
 21 17  1  0  0  0  0
 22 21  1  0  0  0  0
 23 18  1  0  0  0  0
 24 18  1  0  0  0  0
 26 25  1  0  0  0  0
 27 25  2  0  0  0  0
 28 29  1  1  0  0  0
 28 26  1  0  0  0  0
 30 28  1  6  0  0  0
 31 30  1  0  0  0  0
 32 36  1  0  0  0  0
 33 31  1  0  0  0  0
 33 30  1  0  0  0  0
 34 38  1  0  0  0  0
 34 31  1  0  0  0  0
 35 36  1  0  0  0  0
 35 34  1  0  0  0  0
 36 33  1  0  0  0  0
 37 38  1  0  0  0  0
 38 43  1  0  0  0  0
 40 41  1  0  0  0  0
 41 39  1  0  0  0  0
 42 37  1  0  0  0  0
 42 40  1  0  0  0  0
 43 41  1  0  0  0  0
M  END
>  <MODEL>
6

>  <REMARK>
 VINA RESULT:      -8.0      3.659      6.627
  Name = 
  5 active torsions:
  status: ('A' for Active; 'I' for Inactive)
    1  A    between atoms: C_1  and  C_34
    2  A    between atoms: C_2  and  C_13
    3  A    between atoms: C_3  and  C_12
    4  A    between atoms: N_6  and  C_12
    5  A    between atoms: N_14  and  C_22
                            x       y       z     vdW  Elec       q    Type
                         _______ _______ _______ _____ _____    ______ ____

>  <TORSDO>
F 5

$$$$
=
 OpenBabel10262422133D

 43 49  0  0  1  0  0  0  0  0999 V2000
  187.8360  177.8650  146.1370 C   0  0  0  0  0  0  0  0  0  0  0  0
  185.0540  178.4610  141.8470 C   0  0  2  0  0  3  0  0  0  0  0  0
  186.8080  178.6270  139.7300 C   0  0  2  0  0  3  0  0  0  0  0  0
  186.0770  178.3290  144.5310 C   0  0  0  0  0  0  0  0  0  0  0  0
  188.6220  177.3160  145.1220 C   0  0  0  0  0  3  0  0  0  0  0  0
  188.3150  177.8960  147.4390 O   0  0  0  0  0  1  0  0  0  0  0  0
  186.8870  177.8090  143.4890 C   0  0  0  0  0  0  0  0  0  0  0  0
  186.5680  178.3670  145.8400 C   0  0  0  0  0  3  0  0  0  0  0  0
  188.1480  177.2840  143.8080 C   0  0  0  0  0  3  0  0  0  0  0  0
  187.4160  178.1030  141.0450 C   0  0  0  0  0  2  0  0  0  0  0  0
  186.3630  177.6910  142.0790 C   0  0  2  0  0  3  0  0  0  0  0  0
  184.0880  178.2610  143.0110 C   0  0  0  0  0  2  0  0  0  0  0  0
  184.4370  178.0500  140.5020 C   0  0  2  0  0  3  0  0  0  0  0  0
  185.4930  177.9280  139.3730 C   0  0  0  0  0  2  0  0  0  0  0  0
  184.7060  178.8800  144.2590 C   0  0  0  0  0  2  0  0  0  0  0  0
  183.2580  178.9500  140.1040 C   0  0  2  0  0  3  0  0  0  0  0  0
  181.5660  181.2140  139.2490 C   0  0  0  0  0  2  0  0  0  0  0  0
  180.3880  180.5460  139.9610 C   0  0  0  0  0  0  0  0  0  0  0  0
  179.6770  181.5360  140.6200 F   0  0  0  0  0  0  0  0  0  0  0  0
  181.6700  178.0670  140.2630 S   0  0  0  0  0  0  0  0  0  0  0  0
  182.1940  180.3020  138.1990 C   0  0  0  0  0  2  0  0  0  0  0  0
  183.4400  179.5890  138.7180 C   0  0  0  0  0  2  0  0  0  0  0  0
  179.5460  179.9420  139.0430 F   0  0  0  0  0  0  0  0  0  0  0  0
  180.8480  179.5190  141.0030 C   0  0  0  0  0  2  0  0  0  0  0  0
  187.7980  178.5600  138.6130 C   0  0  0  0  0  0  0  0  0  0  0  0
  187.5200  177.7080  137.4990 N   0  0  0  0  0  2  0  0  0  0  0  0
  188.6810  179.5000  138.4810 N   0  0  0  0  0  2  0  0  0  0  0  0
  187.6850  176.2560  137.5350 C   0  0  2  0  0  3  0  0  0  0  0  0
  188.9200  175.8640  138.3240 C   0  0  0  0  0  1  0  0  0  0  0  0
  187.7450  175.6780  136.1000 C   0  0  2  0  0  3  0  0  0  0  0  0
  186.4970  175.0560  135.6090 C   0  0  1  0  0  3  0  0  0  0  0  0
  187.5610  172.0730  137.1720 C   0  0  0  0  0  1  0  0  0  0  0  0
  187.6260  174.1970  135.9820 N   0  0  2  0  0  0  0  0  0  0  0  0
  185.4350  174.7940  136.6550 C   0  0  2  0  0  3  0  0  0  0  0  0
  185.8160  173.6790  137.4140 O   0  0  0  0  0  0  0  0  0  0  0  0
  187.2030  173.5440  137.2230 C   0  0  1  0  0  3  0  0  0  0  0  0
  183.0800  174.0490  136.9030 C   0  0  0  0  0  2  0  0  0  0  0  0
  184.1160  174.6290  136.0280 N   0  0  1  0  0  0  0  0  0  0  0  0
  182.7460  178.0260  135.7280 F   0  0  0  0  0  0  0  0  0  0  0  0
  182.0200  176.2970  137.1790 C   0  0  0  0  0  2  0  0  0  0  0  0
  183.1730  176.9000  136.3950 C   0  0  1  0  0  3  0  0  0  0  0  0
  182.5110  175.0550  137.9070 C   0  0  0  0  0  2  0  0  0  0  0  0
  183.6930  175.8780  135.3840 C   0  0  0  0  0  2  0  0  0  0  0  0
  1  6  1  0  0  0  0
  2 11  1  0  0  0  0
  2 12  1  1  0  0  0
  3 25  1  6  0  0  0
  3 10  1  0  0  0  0
  4  8  2  0  0  0  0
  5  1  2  0  0  0  0
  7  9  2  0  0  0  0
  7  4  1  0  0  0  0
  8  1  1  0  0  0  0
  9  5  1  0  0  0  0
 11 10  1  6  0  0  0
 11  7  1  0  0  0  0
 12 15  1  0  0  0  0
 13 14  1  6  0  0  0
 13  2  1  0  0  0  0
 14  3  1  0  0  0  0
 15  4  1  0  0  0  0
 16 22  1  6  0  0  0
 16 20  1  0  0  0  0
 16 13  1  0  0  0  0
 17 18  1  0  0  0  0
 18 19  1  0  0  0  0
 18 24  1  0  0  0  0
 20 24  1  0  0  0  0
 21 22  1  0  0  0  0
 21 17  1  0  0  0  0
 23 18  1  0  0  0  0
 26 28  1  0  0  0  0
 26 25  1  0  0  0  0
 27 25  2  0  0  0  0
 28 29  1  6  0  0  0
 30 28  1  1  0  0  0
 31 33  1  0  0  0  0
 31 30  1  0  0  0  0
 31 34  1  0  0  0  0
 32 36  1  0  0  0  0
 33 30  1  0  0  0  0
 33 36  1  0  0  0  0
 34 35  1  0  0  0  0
 36 35  1  0  0  0  0
 37 42  1  0  0  0  0
 38 34  1  0  0  0  0
 38 37  1  0  0  0  0
 39 41  1  0  0  0  0
 40 42  1  0  0  0  0
 41 40  1  0  0  0  0
 43 38  1  0  0  0  0
 43 41  1  0  0  0  0
M  END
>  <MODEL>
7

>  <REMARK>
 VINA RESULT:      -7.7      3.443      5.481
  Name = 
  5 active torsions:
  status: ('A' for Active; 'I' for Inactive)
    1  A    between atoms: C_1  and  C_34
    2  A    between atoms: C_2  and  C_13
    3  A    between atoms: C_3  and  C_12
    4  A    between atoms: N_6  and  C_12
    5  A    between atoms: N_14  and  C_22
                            x       y       z     vdW  Elec       q    Type
                         _______ _______ _______ _____ _____    ______ ____

>  <TORSDO>
F 5

$$$$
=
 OpenBabel10262422133D

 43 49  0  0  1  0  0  0  0  0999 V2000
  194.2220  174.6770  137.8220 C   0  0  0  0  0  0  0  0  0  0  0  0
  189.1440  175.3310  137.2990 C   0  0  2  0  0  3  0  0  0  0  0  0
  188.3100  177.0370  139.2940 C   0  0  2  0  0  3  0  0  0  0  0  0
  191.8790  174.4470  137.2370 C   0  0  0  0  0  0  0  0  0  0  0  0
  193.9680  175.9410  138.3570 C   0  0  0  0  0  3  0  0  0  0  0  0
  195.5140  174.1710  137.8370 O   0  0  0  0  0  1  0  0  0  0  0  0
  191.6070  175.7140  137.8140 C   0  0  0  0  0  0  0  0  0  0  0  0
  193.1800  173.9360  137.2620 C   0  0  0  0  0  3  0  0  0  0  0  0
  192.6690  176.4580  138.3480 C   0  0  0  0  0  3  0  0  0  0  0  0
  189.8330  176.9900  139.0650 C   0  0  0  0  0  2  0  0  0  0  0  0
  190.2280  176.3230  137.7440 C   0  0  2  0  0  3  0  0  0  0  0  0
  189.6300  174.4740  136.1340 C   0  0  0  0  0  2  0  0  0  0  0  0
  187.8490  176.0870  136.9630 C   0  0  2  0  0  3  0  0  0  0  0  0
  187.5260  177.2040  137.9890 C   0  0  0  0  0  2  0  0  0  0  0  0
  190.7890  173.6130  136.6240 C   0  0  0  0  0  2  0  0  0  0  0  0
  186.6630  175.1380  136.7390 C   0  0  2  0  0  3  0  0  0  0  0  0
  184.9610  172.7980  136.1500 C   0  0  0  0  0  2  0  0  0  0  0  0
  183.8250  173.7660  135.8080 C   0  0  0  0  0  0  0  0  0  0  0  0
  183.1870  173.2830  134.6760 F   0  0  0  0  0  0  0  0  0  0  0  0
  185.0730  176.0070  136.9490 S   0  0  0  0  0  0  0  0  0  0  0  0
  185.4880  173.0110  137.5660 C   0  0  0  0  0  2  0  0  0  0  0  0
  186.7540  173.8630  137.5930 C   0  0  0  0  0  2  0  0  0  0  0  0
  182.9040  173.8160  136.8400 F   0  0  0  0  0  0  0  0  0  0  0  0
  184.3400  175.1760  135.4970 C   0  0  0  0  0  2  0  0  0  0  0  0
  187.9470  178.0790  140.3010 C   0  0  0  0  0  0  0  0  0  0  0  0
  188.9940  178.7320  141.0230 N   0  0  0  0  0  2  0  0  0  0  0  0
  186.7730  178.6280  140.2620 N   0  0  0  0  0  2  0  0  0  0  0  0
  189.7100  178.1150  142.1380 C   0  0  2  0  0  3  0  0  0  0  0  0
  191.2120  178.2590  141.9710 C   0  0  0  0  0  1  0  0  0  0  0  0
  189.3150  176.6250  142.2830 C   0  0  2  0  0  3  0  0  0  0  0  0
  188.1960  176.3490  143.2080 C   0  0  1  0  0  3  0  0  0  0  0  0
  190.5820  176.2740  145.8110 C   0  0  0  0  0  1  0  0  0  0  0  0
  189.5630  176.0060  143.6150 N   0  0  2  0  0  0  0  0  0  0  0  0
  187.7870  177.4940  144.1100 C   0  0  2  0  0  3  0  0  0  0  0  0
  188.7380  177.6240  145.1320 O   0  0  0  0  0  0  0  0  0  0  0  0
  189.8950  176.9780  144.6600 C   0  0  1  0  0  3  0  0  0  0  0  0
  186.1980  177.7900  145.9940 C   0  0  0  0  0  2  0  0  0  0  0  0
  186.4260  177.2900  144.6250 N   0  0  1  0  0  0  0  0  0  0  0  0
  184.3240  179.6930  142.8040 F   0  0  0  0  0  0  0  0  0  0  0  0
  184.9370  179.7520  145.0940 C   0  0  0  0  0  2  0  0  0  0  0  0
  185.3020  179.3010  143.6900 C   0  0  1  0  0  3  0  0  0  0  0  0
  186.0280  179.3090  146.0570 C   0  0  0  0  0  2  0  0  0  0  0  0
  185.4330  177.7780  143.6600 C   0  0  0  0  0  2  0  0  0  0  0  0
  1  6  1  0  0  0  0
  1  5  1  0  0  0  0
  2 12  1  6  0  0  0
  2 11  1  0  0  0  0
  3 25  1  1  0  0  0
  4  8  1  0  0  0  0
  4  7  2  0  0  0  0
  7  9  1  0  0  0  0
  8  1  2  0  0  0  0
  9  5  2  0  0  0  0
 10  3  1  0  0  0  0
 11  7  1  0  0  0  0
 11 10  1  1  0  0  0
 12 15  1  0  0  0  0
 13  2  1  0  0  0  0
 13 14  1  1  0  0  0
 14  3  1  0  0  0  0
 15  4  1  0  0  0  0
 16 20  1  0  0  0  0
 16 13  1  0  0  0  0
 16 22  1  1  0  0  0
 17 21  1  0  0  0  0
 18 17  1  0  0  0  0
 18 23  1  0  0  0  0
 19 18  1  0  0  0  0
 21 22  1  0  0  0  0
 24 18  1  0  0  0  0
 24 20  1  0  0  0  0
 25 26  1  0  0  0  0
 26 28  1  0  0  0  0
 27 25  2  0  0  0  0
 28 29  1  6  0  0  0
 30 28  1  1  0  0  0
 30 31  1  0  0  0  0
 30 33  1  0  0  0  0
 31 33  1  0  0  0  0
 31 34  1  0  0  0  0
 33 36  1  0  0  0  0
 34 38  1  0  0  0  0
 34 35  1  0  0  0  0
 36 35  1  0  0  0  0
 36 32  1  0  0  0  0
 37 42  1  0  0  0  0
 38 37  1  0  0  0  0
 39 41  1  0  0  0  0
 40 42  1  0  0  0  0
 41 40  1  0  0  0  0
 43 41  1  0  0  0  0
 43 38  1  0  0  0  0
M  END
>  <MODEL>
8

>  <REMARK>
 VINA RESULT:      -7.4      3.722      8.622
  Name = 
  5 active torsions:
  status: ('A' for Active; 'I' for Inactive)
    1  A    between atoms: C_1  and  C_34
    2  A    between atoms: C_2  and  C_13
    3  A    between atoms: C_3  and  C_12
    4  A    between atoms: N_6  and  C_12
    5  A    between atoms: N_14  and  C_22
                            x       y       z     vdW  Elec       q    Type
                         _______ _______ _______ _____ _____    ______ ____

>  <TORSDO>
F 5

$$$$
=
 OpenBabel10262422133D

 43 49  0  0  1  0  0  0  0  0999 V2000
  186.2150  178.3680  145.4690 C   0  0  0  0  0  0  0  0  0  0  0  0
  183.3180  178.7950  141.2360 C   0  0  2  0  0  3  0  0  0  0  0  0
  184.9820  178.5410  139.0550 C   0  0  2  0  0  3  0  0  0  0  0  0
  184.4420  178.8440  143.8810 C   0  0  0  0  0  0  0  0  0  0  0  0
  186.8930  177.6310  144.4960 C   0  0  0  0  0  3  0  0  0  0  0  0
  186.7540  178.4870  146.7420 O   0  0  0  0  0  1  0  0  0  0  0  0
  185.1450  178.1290  142.8770 C   0  0  0  0  0  0  0  0  0  0  0  0
  184.9940  178.9690  145.1600 C   0  0  0  0  0  3  0  0  0  0  0  0
  186.3580  177.5080  143.2100 C   0  0  0  0  0  3  0  0  0  0  0  0
  185.5900  178.0990  140.3990 C   0  0  0  0  0  2  0  0  0  0  0  0
  184.5490  177.9180  141.5070 C   0  0  2  0  0  3  0  0  0  0  0  0
  182.3900  178.8280  142.4460 C   0  0  0  0  0  2  0  0  0  0  0  0
  182.6010  178.3110  139.9660 C   0  0  2  0  0  3  0  0  0  0  0  0
  183.5860  177.9540  138.8230 C   0  0  0  0  0  2  0  0  0  0  0  0
  183.1250  179.5070  143.5950 C   0  0  0  0  0  2  0  0  0  0  0  0
  181.5050  179.2850  139.5100 C   0  0  2  0  0  3  0  0  0  0  0  0
  178.9380  180.5250  138.7390 C   0  0  0  0  0  2  0  0  0  0  0  0
  179.7290  181.5520  137.9260 C   0  0  0  0  0  0  0  0  0  0  0  0
  179.0590  181.7450  136.7270 F   0  0  0  0  0  0  0  0  0  0  0  0
  182.2060  180.9140  139.0830 S   0  0  0  0  0  0  0  0  0  0  0  0
  179.3590  180.5100  140.2060 C   0  0  0  0  0  2  0  0  0  0  0  0
  180.3470  179.3880  140.5160 C   0  0  0  0  0  2  0  0  0  0  0  0
  179.7840  182.7620  138.5950 F   0  0  0  0  0  0  0  0  0  0  0  0
  181.1480  181.0670  137.6030 C   0  0  0  0  0  2  0  0  0  0  0  0
  185.9070  178.2470  137.9190 C   0  0  0  0  0  0  0  0  0  0  0  0
  185.4430  177.4180  136.8510 N   0  0  0  0  0  2  0  0  0  0  0  0
  186.9440  179.0000  137.7250 N   0  0  0  0  0  2  0  0  0  0  0  0
  185.3380  175.9630  136.9490 C   0  0  2  0  0  3  0  0  0  0  0  0
  186.5750  175.3660  137.5950 C   0  0  0  0  0  1  0  0  0  0  0  0
  185.0930  175.3390  135.5530 C   0  0  2  0  0  3  0  0  0  0  0  0
  183.6850  175.0230  135.2340 C   0  0  1  0  0  3  0  0  0  0  0  0
  184.1820  171.9260  136.8570 C   0  0  0  0  0  1  0  0  0  0  0  0
  184.6130  173.9280  135.5390 N   0  0  2  0  0  0  0  0  0  0  0  0
  182.7190  175.0620  136.3980 C   0  0  2  0  0  3  0  0  0  0  0  0
  182.9080  173.9150  137.1800 O   0  0  0  0  0  0  0  0  0  0  0  0
  184.1920  173.4400  136.8550 C   0  0  1  0  0  3  0  0  0  0  0  0
  180.3030  175.0720  136.9670 C   0  0  0  0  0  2  0  0  0  0  0  0
  181.3360  175.2020  135.9220 N   0  0  1  0  0  0  0  0  0  0  0  0
  180.9160  178.7760  135.1740 F   0  0  0  0  0  0  0  0  0  0  0  0
  179.9410  177.5460  136.9510 C   0  0  0  0  0  2  0  0  0  0  0  0
  181.1020  177.6760  135.9820 C   0  0  1  0  0  3  0  0  0  0  0  0
  180.1640  176.3270  137.8330 C   0  0  0  0  0  2  0  0  0  0  0  0
  181.1890  176.4200  135.1160 C   0  0  0  0  0  2  0  0  0  0  0  0
  1  6  1  0  0  0  0
  2 11  1  0  0  0  0
  2 12  1  1  0  0  0
  3 25  1  6  0  0  0
  3 10  1  0  0  0  0
  4  8  2  0  0  0  0
  5  1  2  0  0  0  0
  7  9  2  0  0  0  0
  7  4  1  0  0  0  0
  8  1  1  0  0  0  0
  9  5  1  0  0  0  0
 11 10  1  6  0  0  0
 11  7  1  0  0  0  0
 12 15  1  0  0  0  0
 13 14  1  6  0  0  0
 13  2  1  0  0  0  0
 14  3  1  0  0  0  0
 15  4  1  0  0  0  0
 16 13  1  0  0  0  0
 16 22  1  1  0  0  0
 17 21  1  0  0  0  0
 18 23  1  0  0  0  0
 18 17  1  0  0  0  0
 19 18  1  0  0  0  0
 20 16  1  0  0  0  0
 21 22  1  0  0  0  0
 24 18  1  0  0  0  0
 24 20  1  0  0  0  0
 26 28  1  0  0  0  0
 26 25  1  0  0  0  0
 27 25  2  0  0  0  0
 28 29  1  6  0  0  0
 30 28  1  1  0  0  0
 31 33  1  0  0  0  0
 31 30  1  0  0  0  0
 31 34  1  0  0  0  0
 33 30  1  0  0  0  0
 33 36  1  0  0  0  0
 34 35  1  0  0  0  0
 36 32  1  0  0  0  0
 36 35  1  0  0  0  0
 37 42  1  0  0  0  0
 38 34  1  0  0  0  0
 38 37  1  0  0  0  0
 39 41  1  0  0  0  0
 40 42  1  0  0  0  0
 41 40  1  0  0  0  0
 43 38  1  0  0  0  0
 43 41  1  0  0  0  0
M  END
>  <MODEL>
9

>  <REMARK>
 VINA RESULT:      -7.1      3.611      5.878
  Name = 
  5 active torsions:
  status: ('A' for Active; 'I' for Inactive)
    1  A    between atoms: C_1  and  C_34
    2  A    between atoms: C_2  and  C_13
    3  A    between atoms: C_3  and  C_12
    4  A    between atoms: N_6  and  C_12
    5  A    between atoms: N_14  and  C_22
                            x       y       z     vdW  Elec       q    Type
                         _______ _______ _______ _____ _____    ______ ____

>  <TORSDO>
F 5

$$$$
