=
 OpenBabel10262421413D

 32 37  0  0  1  0  0  0  0  0999 V2000
  192.8980  176.2190  138.3420 C   0  0  0  0  0  0  0  0  0  0  0  0
  189.2700  177.8190  141.7260 C   0  0  1  0  0  3  0  0  0  0  0  0
  190.9370  175.0380  143.9060 C   0  0  0  0  0  1  0  0  0  0  0  0
  186.8180  178.5700  142.0750 C   0  0  0  0  0  0  0  0  0  0  0  0
  185.7190  178.6180  143.0710 C   0  0  0  0  0  0  0  0  0  0  0  0
  190.5750  176.9050  139.7840 C   0  0  0  0  0  0  0  0  0  0  0  0
  192.0570  178.2360  141.4190 C   0  0  0  0  0  2  0  0  0  0  0  0
  183.6490  178.7020  144.9240 C   0  0  0  0  0  3  0  0  0  0  0  0
  192.9940  176.9930  139.4990 C   0  0  0  0  0  3  0  0  0  0  0  0
  191.6950  177.5620  142.7440 C   0  0  2  0  0  3  0  0  0  0  0  0
  190.2120  177.1490  142.7390 C   0  0  2  0  0  0  0  0  0  0  0  0
  188.2390  177.6350  143.8060 C   0  0  2  0  0  3  0  0  0  0  0  0
  183.5580  179.3840  143.7500 N   0  0  0  0  0  0  0  0  0  0  0  0
  191.6380  175.7980  137.9000 C   0  0  0  0  0  3  0  0  0  0  0  0
  191.8540  177.3450  140.2290 C   0  0  0  0  0  0  0  0  0  0  0  0
  184.5570  179.3580  142.8290 C   0  0  0  0  0  3  0  0  0  0  0  0
  190.4910  176.1390  138.6170 C   0  0  0  0  0  3  0  0  0  0  0  0
  189.8020  175.8280  143.2720 C   0  0  2  0  0  3  0  0  0  0  0  0
  189.5630  177.0580  144.0650 N   0  0  1  0  0  0  0  0  0  0  0  0
  187.0770  177.0960  144.6280 C   0  0  0  0  0  2  0  0  0  0  0  0
  189.3710  177.1660  140.4630 O   0  0  0  0  0  0  0  0  0  0  0  0
  186.7870  179.2570  141.0180 O   0  0  0  0  0  0  0  0  0  0  0  0
  184.7920  177.9540  145.2180 C   0  0  0  0  0  3  0  0  0  0  0  0
  187.9160  177.5910  142.3340 C   0  0  2  0  0  3  0  0  0  0  0  0
  185.8400  177.9110  144.2990 C   0  0  0  0  0  0  0  0  0  0  0  0
  191.2220  179.6710  143.7670 O   0  0  0  0  0  1  0  0  0  0  0  0
  192.0030  178.5210  143.8850 C   0  0  0  0  0  2  0  0  0  0  0  0
  194.0670  175.8900  137.6490 O   0  0  0  0  0  0  0  0  0  0  0  0
  194.4850  174.5470  137.4410 C   0  0  0  0  0  2  0  0  0  0  0  0
  195.2810  174.0870  138.6090 C   0  0  0  0  0  0  0  0  0  0  0  0
  195.9920  175.0050  139.3690 O   0  0  0  0  0  1  0  0  0  0  0  0
  195.3420  172.8610  138.8860 O   0  0  0  0  0  0  0  0  0  0  0  0
  1  9  1  0  0  0  0
  2 21  1  6  0  0  0
  2 24  1  0  0  0  0
  2 11  1  0  0  0  0
  4 24  1  0  0  0  0
  4  5  1  0  0  0  0
  5 25  1  0  0  0  0
  6 15  1  0  0  0  0
  6 21  1  0  0  0  0
  7 10  1  0  0  0  0
  8 23  1  0  0  0  0
  9 15  2  0  0  0  0
 10 27  1  1  0  0  0
 11 10  1  0  0  0  0
 11 18  1  0  0  0  0
 11 19  1  0  0  0  0
 12 19  1  0  0  0  0
 12 20  1  0  0  0  0
 13  8  2  0  0  0  0
 14  1  2  0  0  0  0
 14 17  1  0  0  0  0
 15  7  1  0  0  0  0
 16  5  2  0  0  0  0
 16 13  1  0  0  0  0
 17  6  2  0  0  0  0
 18  3  1  0  0  0  0
 18 19  1  0  0  0  0
 22  4  2  0  0  0  0
 24 12  1  0  0  0  0
 25 20  1  0  0  0  0
 25 23  2  0  0  0  0
 26 27  1  0  0  0  0
 28  1  1  0  0  0  0
 29 28  1  0  0  0  0
 29 30  1  0  0  0  0
 30 32  2  0  0  0  0
 30 31  1  0  0  0  0
M  END
>  <MODEL>
1

>  <REMARK>
 VINA RESULT:      -8.4      0.000      0.000
  Name = 
  4 active torsions:
  status: ('A' for Active; 'I' for Inactive)
    1  A    between atoms: C_1  and  C_10
    2  A    between atoms: C_2  and  O_24
    3  A    between atoms: C_10  and  O_24
    4  A    between atoms: C_13  and  C_14
                            x       y       z     vdW  Elec       q    Type
                         _______ _______ _______ _____ _____    ______ ____

>  <TORSDO>
F 4

$$$$
=
 OpenBabel10262421413D

 32 37  0  0  1  0  0  0  0  0999 V2000
  187.5390  177.5260  142.9260 C   0  0  0  0  0  0  0  0  0  0  0  0
  190.8420  176.7740  138.9640 C   0  0  1  0  0  3  0  0  0  0  0  0
  187.5530  175.5590  137.2400 C   0  0  0  0  0  1  0  0  0  0  0  0
  193.1800  175.9490  138.2240 C   0  0  0  0  0  0  0  0  0  0  0  0
  193.9310  175.3670  137.0830 C   0  0  0  0  0  0  0  0  0  0  0  0
  189.5680  176.7520  141.1290 C   0  0  0  0  0  0  0  0  0  0  0  0
  188.9110  178.7410  139.6270 C   0  0  0  0  0  2  0  0  0  0  0  0
  195.3430  174.2660  134.9580 C   0  0  0  0  0  3  0  0  0  0  0  0
  187.7360  178.2380  141.7420 C   0  0  0  0  0  3  0  0  0  0  0  0
  188.6010  178.0160  138.3160 C   0  0  2  0  0  3  0  0  0  0  0  0
  189.5430  176.8110  138.1430 C   0  0  2  0  0  0  0  0  0  0  0  0
  191.2340  176.0720  136.7790 C   0  0  2  0  0  3  0  0  0  0  0  0
  195.9950  174.7330  136.0560 N   0  0  0  0  0  0  0  0  0  0  0  0
  188.3660  176.4340  143.2170 C   0  0  0  0  0  3  0  0  0  0  0  0
  188.7370  177.8710  140.8370 C   0  0  0  0  0  0  0  0  0  0  0  0
  195.3260  175.2760  137.1080 C   0  0  0  0  0  3  0  0  0  0  0  0
  189.3680  176.0540  142.3240 C   0  0  0  0  0  3  0  0  0  0  0  0
  189.0160  175.5160  137.6520 C   0  0  2  0  0  3  0  0  0  0  0  0
  189.8030  176.3900  136.7490 N   0  0  1  0  0  0  0  0  0  0  0  0
  191.7190  174.9740  135.8420 C   0  0  0  0  0  2  0  0  0  0  0  0
  190.5750  176.2730  140.2710 O   0  0  0  0  0  0  0  0  0  0  0  0
  193.7700  176.4600  139.2150 O   0  0  0  0  0  0  0  0  0  0  0  0
  193.9500  174.3400  134.8800 C   0  0  0  0  0  3  0  0  0  0  0  0
  191.6940  175.8090  138.1910 C   0  0  2  0  0  3  0  0  0  0  0  0
  193.2320  174.8980  135.9370 C   0  0  0  0  0  0  0  0  0  0  0  0
  187.4940  179.5400  136.8440 O   0  0  0  0  0  1  0  0  0  0  0  0
  188.7400  179.0020  137.1640 C   0  0  0  0  0  2  0  0  0  0  0  0
  186.5220  177.9290  143.7970 O   0  0  0  0  0  0  0  0  0  0  0  0
  186.7190  178.0610  145.1990 C   0  0  0  0  0  2  0  0  0  0  0  0
  185.5550  178.7620  145.8020 C   0  0  0  0  0  0  0  0  0  0  0  0
  185.6810  179.3770  147.0390 O   0  0  0  0  0  1  0  0  0  0  0  0
  184.4450  178.7640  145.2090 O   0  0  0  0  0  0  0  0  0  0  0  0
  1 14  1  0  0  0  0
  1 28  1  0  0  0  0
  2 21  1  1  0  0  0
  3 18  1  0  0  0  0
  4 22  2  0  0  0  0
  5 16  1  0  0  0  0
  5  4  1  0  0  0  0
  6 17  1  0  0  0  0
  7 15  1  0  0  0  0
  8 13  1  0  0  0  0
  9  1  2  0  0  0  0
 10 27  1  6  0  0  0
 10  7  1  0  0  0  0
 11 10  1  0  0  0  0
 11  2  1  0  0  0  0
 12 24  1  0  0  0  0
 13 16  2  0  0  0  0
 15  6  2  0  0  0  0
 15  9  1  0  0  0  0
 17 14  2  0  0  0  0
 18 11  1  0  0  0  0
 19 12  1  0  0  0  0
 19 18  1  0  0  0  0
 19 11  1  0  0  0  0
 20 25  1  0  0  0  0
 20 12  1  0  0  0  0
 21  6  1  0  0  0  0
 23  8  2  0  0  0  0
 23 25  1  0  0  0  0
 24  4  1  0  0  0  0
 24  2  1  0  0  0  0
 25  5  2  0  0  0  0
 26 27  1  0  0  0  0
 28 29  1  0  0  0  0
 29 30  1  0  0  0  0
 30 31  1  0  0  0  0
 32 30  2  0  0  0  0
M  END
>  <MODEL>
2

>  <REMARK>
 VINA RESULT:      -7.9      3.249      9.182
  Name = 
  4 active torsions:
  status: ('A' for Active; 'I' for Inactive)
    1  A    between atoms: C_1  and  C_10
    2  A    between atoms: C_2  and  O_24
    3  A    between atoms: C_10  and  O_24
    4  A    between atoms: C_13  and  C_14
                            x       y       z     vdW  Elec       q    Type
                         _______ _______ _______ _____ _____    ______ ____

>  <TORSDO>
F 4

$$$$
=
 OpenBabel10262421413D

 32 37  0  0  1  0  0  0  0  0999 V2000
  185.6110  178.5380  144.1890 C   0  0  0  0  0  0  0  0  0  0  0  0
  189.4000  176.8700  141.0210 C   0  0  1  0  0  3  0  0  0  0  0  0
  191.5800  178.9210  143.5330 C   0  0  0  0  0  1  0  0  0  0  0  0
  190.1430  176.4290  138.5820 C   0  0  0  0  0  0  0  0  0  0  0  0
  191.3310  176.3530  137.6950 C   0  0  0  0  0  0  0  0  0  0  0  0
  187.3910  177.9360  142.0870 C   0  0  0  0  0  0  0  0  0  0  0  0
  188.4450  176.1210  143.5830 C   0  0  0  0  0  2  0  0  0  0  0  0
  193.5460  176.2210  136.0230 C   0  0  0  0  0  3  0  0  0  0  0  0
  186.5860  177.5550  144.3570 C   0  0  0  0  0  3  0  0  0  0  0  0
  189.9050  176.5790  143.5990 C   0  0  2  0  0  3  0  0  0  0  0  0
  190.2810  177.1950  142.2390 C   0  0  2  0  0  0  0  0  0  0  0  0
  191.6550  176.8060  140.4430 C   0  0  2  0  0  3  0  0  0  0  0  0
  192.3280  175.7940  135.5950 N   0  0  0  0  0  0  0  0  0  0  0  0
  185.5190  179.2130  142.9650 C   0  0  0  0  0  3  0  0  0  0  0  0
  187.4790  177.2400  143.3270 C   0  0  0  0  0  0  0  0  0  0  0  0
  191.2300  175.8480  136.3950 C   0  0  0  0  0  3  0  0  0  0  0  0
  186.4020  178.9120  141.9280 C   0  0  0  0  0  3  0  0  0  0  0  0
  191.0870  178.4370  142.1780 C   0  0  2  0  0  3  0  0  0  0  0  0
  191.7120  177.1270  141.8720 N   0  0  1  0  0  0  0  0  0  0  0  0
  192.7800  177.3430  139.5680 C   0  0  0  0  0  2  0  0  0  0  0  0
  188.2620  177.7280  141.0030 O   0  0  0  0  0  0  0  0  0  0  0  0
  189.0240  175.9650  138.2330 O   0  0  0  0  0  0  0  0  0  0  0  0
  193.7020  176.7280  137.3150 C   0  0  0  0  0  3  0  0  0  0  0  0
  190.3110  177.1730  139.8660 C   0  0  2  0  0  3  0  0  0  0  0  0
  192.5990  176.7910  138.1660 C   0  0  0  0  0  0  0  0  0  0  0  0
  191.7240  175.7470  144.9090 O   0  0  0  0  0  1  0  0  0  0  0  0
  190.7920  175.3880  143.9350 C   0  0  0  0  0  2  0  0  0  0  0  0
  184.7440  178.8210  145.2490 O   0  0  0  0  0  0  0  0  0  0  0  0
  184.8830  178.2290  146.5330 C   0  0  0  0  0  2  0  0  0  0  0  0
  185.9520  178.9290  147.2930 C   0  0  0  0  0  0  0  0  0  0  0  0
  187.0710  178.2280  147.7200 O   0  0  0  0  0  1  0  0  0  0  0  0
  185.8250  180.1460  147.5820 O   0  0  0  0  0  0  0  0  0  0  0  0
  1  9  1  0  0  0  0
  1 28  1  0  0  0  0
  2 21  1  6  0  0  0
  2 11  1  0  0  0  0
  4 24  1  0  0  0  0
  5 25  1  0  0  0  0
  5  4  1  0  0  0  0
  6 15  1  0  0  0  0
  7 10  1  0  0  0  0
  8 23  1  0  0  0  0
 10 27  1  6  0  0  0
 11 10  1  0  0  0  0
 12 19  1  0  0  0  0
 13  8  2  0  0  0  0
 13 16  1  0  0  0  0
 14  1  2  0  0  0  0
 15  7  1  0  0  0  0
 15  9  2  0  0  0  0
 16  5  2  0  0  0  0
 17  6  2  0  0  0  0
 17 14  1  0  0  0  0
 18 11  1  0  0  0  0
 18  3  1  0  0  0  0
 19 18  1  0  0  0  0
 19 11  1  0  0  0  0
 20 12  1  0  0  0  0
 21  6  1  0  0  0  0
 22  4  2  0  0  0  0
 23 25  2  0  0  0  0
 24 12  1  0  0  0  0
 24  2  1  0  0  0  0
 25 20  1  0  0  0  0
 27 26  1  0  0  0  0
 28 29  1  0  0  0  0
 29 30  1  0  0  0  0
 30 32  2  0  0  0  0
 30 31  1  0  0  0  0
M  END
>  <MODEL>
3

>  <REMARK>
 VINA RESULT:      -7.6      2.892      8.272
  Name = 
  4 active torsions:
  status: ('A' for Active; 'I' for Inactive)
    1  A    between atoms: C_1  and  C_10
    2  A    between atoms: C_2  and  O_24
    3  A    between atoms: C_10  and  O_24
    4  A    between atoms: C_13  and  C_14
                            x       y       z     vdW  Elec       q    Type
                         _______ _______ _______ _____ _____    ______ ____

>  <TORSDO>
F 4

$$$$
=
 OpenBabel10262421413D

 32 37  0  0  1  0  0  0  0  0999 V2000
  193.5530  176.0020  137.0570 C   0  0  0  0  0  0  0  0  0  0  0  0
  189.3340  176.7520  140.0250 C   0  0  1  0  0  3  0  0  0  0  0  0
  188.5760  179.3780  137.2320 C   0  0  0  0  0  1  0  0  0  0  0  0
  188.3860  176.9680  142.4230 C   0  0  0  0  0  0  0  0  0  0  0  0
  187.2920  177.5780  143.2200 C   0  0  0  0  0  0  0  0  0  0  0  0
  191.6410  176.5660  139.0510 C   0  0  0  0  0  0  0  0  0  0  0  0
  189.8670  175.3940  137.5940 C   0  0  0  0  0  2  0  0  0  0  0  0
  185.2570  178.7260  144.7240 C   0  0  0  0  0  3  0  0  0  0  0  0
  192.2210  175.6270  136.8770 C   0  0  0  0  0  3  0  0  0  0  0  0
  188.8400  176.5170  137.4390 C   0  0  2  0  0  3  0  0  0  0  0  0
  188.7800  177.3600  138.7260 C   0  0  2  0  0  0  0  0  0  0  0  0
  187.3360  177.8780  140.4330 C   0  0  2  0  0  3  0  0  0  0  0  0
  186.0770  177.7880  145.2690 N   0  0  0  0  0  0  0  0  0  0  0  0
  193.9310  176.6480  138.2410 C   0  0  0  0  0  3  0  0  0  0  0  0
  191.2570  175.8980  137.8540 C   0  0  0  0  0  0  0  0  0  0  0  0
  187.0800  177.2120  144.5530 C   0  0  0  0  0  3  0  0  0  0  0  0
  192.9820  176.9270  139.2250 C   0  0  0  0  0  3  0  0  0  0  0  0
  188.7090  178.8390  138.6480 C   0  0  2  0  0  3  0  0  0  0  0  0
  187.4980  178.0520  138.9860 N   0  0  1  0  0  0  0  0  0  0  0  0
  186.6070  178.9830  141.1850 C   0  0  0  0  0  2  0  0  0  0  0  0
  190.7470  176.9230  140.0770 O   0  0  0  0  0  0  0  0  0  0  0  0
  189.1050  176.0400  142.8840 O   0  0  0  0  0  0  0  0  0  0  0  0
  185.4230  179.1220  143.3950 C   0  0  0  0  0  3  0  0  0  0  0  0
  188.6610  177.5740  141.0860 C   0  0  2  0  0  3  0  0  0  0  0  0
  186.4360  178.5470  142.6280 C   0  0  0  0  0  0  0  0  0  0  0  0
  187.0630  176.3270  135.8500 O   0  0  0  0  0  1  0  0  0  0  0  0
  187.4860  175.9040  137.1110 C   0  0  0  0  0  2  0  0  0  0  0  0
  194.4800  175.7140  136.0510 O   0  0  0  0  0  0  0  0  0  0  0  0
  194.6630  176.5460  134.9140 C   0  0  0  0  0  2  0  0  0  0  0  0
  195.8500  177.4170  135.1180 C   0  0  0  0  0  0  0  0  0  0  0  0
  196.9910  176.9030  135.7180 O   0  0  0  0  0  1  0  0  0  0  0  0
  195.8070  178.6290  134.7840 O   0  0  0  0  0  0  0  0  0  0  0  0
  1 14  1  0  0  0  0
  2 21  1  6  0  0  0
  2 24  1  0  0  0  0
  3 18  1  0  0  0  0
  4 22  2  0  0  0  0
  4  5  1  0  0  0  0
  5 16  1  0  0  0  0
  6 17  1  0  0  0  0
  6 21  1  0  0  0  0
  7 15  1  0  0  0  0
  8 13  1  0  0  0  0
  9  1  2  0  0  0  0
  9 15  1  0  0  0  0
 10 27  1  1  0  0  0
 10  7  1  0  0  0  0
 10 11  1  0  0  0  0
 11 19  1  0  0  0  0
 11  2  1  0  0  0  0
 12 24  1  0  0  0  0
 12 20  1  0  0  0  0
 14 17  2  0  0  0  0
 15  6  2  0  0  0  0
 16 13  2  0  0  0  0
 18 11  1  0  0  0  0
 18 19  1  0  0  0  0
 19 12  1  0  0  0  0
 20 25  1  0  0  0  0
 23  8  2  0  0  0  0
 24  4  1  0  0  0  0
 25  5  2  0  0  0  0
 25 23  1  0  0  0  0
 26 27  1  0  0  0  0
 28  1  1  0  0  0  0
 29 30  1  0  0  0  0
 29 28  1  0  0  0  0
 30 31  1  0  0  0  0
 32 30  2  0  0  0  0
M  END
>  <MODEL>
4

>  <REMARK>
 VINA RESULT:      -7.3      2.522      4.399
  Name = 
  4 active torsions:
  status: ('A' for Active; 'I' for Inactive)
    1  A    between atoms: C_1  and  C_10
    2  A    between atoms: C_2  and  O_24
    3  A    between atoms: C_10  and  O_24
    4  A    between atoms: C_13  and  C_14
                            x       y       z     vdW  Elec       q    Type
                         _______ _______ _______ _____ _____    ______ ____

>  <TORSDO>
F 4

$$$$
=
 OpenBabel10262421413D

 32 37  0  0  1  0  0  0  0  0999 V2000
  188.0830  178.2550  140.6250 C   0  0  0  0  0  0  0  0  0  0  0  0
  191.5770  175.6810  137.7370 C   0  0  1  0  0  3  0  0  0  0  0  0
  188.3890  173.6290  136.7890 C   0  0  0  0  0  1  0  0  0  0  0  0
  193.9590  174.6780  137.6070 C   0  0  0  0  0  0  0  0  0  0  0  0
  194.7700  173.6170  136.9590 C   0  0  0  0  0  0  0  0  0  0  0  0
  190.2050  176.7370  139.5560 C   0  0  0  0  0  0  0  0  0  0  0  0
  189.5890  177.6340  137.2210 C   0  0  0  0  0  2  0  0  0  0  0  0
  196.2950  171.6270  135.7600 C   0  0  0  0  0  3  0  0  0  0  0  0
  188.3250  178.2570  139.2510 C   0  0  0  0  0  3  0  0  0  0  0  0
  189.3510  176.3250  136.4670 C   0  0  2  0  0  3  0  0  0  0  0  0
  190.3170  175.2390  136.9740 C   0  0  2  0  0  0  0  0  0  0  0  0
  192.0800  173.9630  136.2470 C   0  0  2  0  0  3  0  0  0  0  0  0
  196.8880  172.6190  136.4760 N   0  0  0  0  0  0  0  0  0  0  0  0
  188.9120  177.5020  141.4660 C   0  0  0  0  0  3  0  0  0  0  0  0
  189.3720  177.5110  138.7000 C   0  0  0  0  0  0  0  0  0  0  0  0
  196.1640  173.6030  137.0720 C   0  0  0  0  0  3  0  0  0  0  0  0
  189.9600  176.7510  140.9340 C   0  0  0  0  0  3  0  0  0  0  0  0
  189.8320  173.8590  137.2110 C   0  0  2  0  0  3  0  0  0  0  0  0
  190.6480  174.1670  136.0100 N   0  0  1  0  0  0  0  0  0  0  0  0
  192.6240  172.5570  136.0320 C   0  0  0  0  0  2  0  0  0  0  0  0
  191.2570  175.9200  139.1050 O   0  0  0  0  0  0  0  0  0  0  0  0
  194.4940  175.6490  138.2070 O   0  0  0  0  0  0  0  0  0  0  0  0
  194.9060  171.5980  135.6110 C   0  0  0  0  0  3  0  0  0  0  0  0
  192.4780  174.4860  137.6040 C   0  0  2  0  0  3  0  0  0  0  0  0
  194.1310  172.5970  136.2010 C   0  0  0  0  0  0  0  0  0  0  0  0
  189.0260  177.8330  134.6400 O   0  0  0  0  0  1  0  0  0  0  0  0
  189.5280  176.5760  134.9750 C   0  0  0  0  0  2  0  0  0  0  0  0
  187.0220  179.0130  141.1280 O   0  0  0  0  0  0  0  0  0  0  0  0
  185.8510  178.4250  141.6790 C   0  0  0  0  0  2  0  0  0  0  0  0
  184.6470  179.0270  141.0490 C   0  0  0  0  0  0  0  0  0  0  0  0
  184.7670  179.7380  139.8630 O   0  0  0  0  0  0  0  0  0  0  0  0
  183.5260  178.9260  141.6090 O   0  0  0  0  0  1  0  0  0  0  0  0
  1 28  1  0  0  0  0
  1 14  1  0  0  0  0
  2 21  1  1  0  0  0
  3 18  1  0  0  0  0
  4 22  2  0  0  0  0
  5 16  1  0  0  0  0
  5  4  1  0  0  0  0
  6 17  1  0  0  0  0
  7 15  1  0  0  0  0
  8 13  1  0  0  0  0
  9  1  2  0  0  0  0
 10 27  1  6  0  0  0
 10 11  1  0  0  0  0
 10  7  1  0  0  0  0
 11 18  1  0  0  0  0
 11  2  1  0  0  0  0
 12 24  1  0  0  0  0
 13 16  2  0  0  0  0
 15  9  1  0  0  0  0
 15  6  2  0  0  0  0
 17 14  2  0  0  0  0
 19 12  1  0  0  0  0
 19 11  1  0  0  0  0
 19 18  1  0  0  0  0
 20 25  1  0  0  0  0
 20 12  1  0  0  0  0
 21  6  1  0  0  0  0
 23  8  2  0  0  0  0
 23 25  1  0  0  0  0
 24  4  1  0  0  0  0
 24  2  1  0  0  0  0
 25  5  2  0  0  0  0
 26 27  1  0  0  0  0
 28 29  1  0  0  0  0
 30 32  1  0  0  0  0
 30 29  1  0  0  0  0
 31 30  2  0  0  0  0
M  END
>  <MODEL>
5

>  <REMARK>
 VINA RESULT:      -7.0      3.493      9.661
  Name = 
  4 active torsions:
  status: ('A' for Active; 'I' for Inactive)
    1  A    between atoms: C_1  and  C_10
    2  A    between atoms: C_2  and  O_24
    3  A    between atoms: C_10  and  O_24
    4  A    between atoms: C_13  and  C_14
                            x       y       z     vdW  Elec       q    Type
                         _______ _______ _______ _____ _____    ______ ____

>  <TORSDO>
F 4

$$$$
=
 OpenBabel10262421413D

 32 37  0  0  1  0  0  0  0  0999 V2000
  185.8630  178.0770  143.2000 C   0  0  0  0  0  0  0  0  0  0  0  0
  182.2020  179.8050  139.9170 C   0  0  1  0  0  3  0  0  0  0  0  0
  181.3210  175.9990  139.8450 C   0  0  0  0  0  1  0  0  0  0  0  0
  181.6290  181.3970  137.9590 C   0  0  0  0  0  0  0  0  0  0  0  0
  180.7250  181.5740  136.7940 C   0  0  0  0  0  0  0  0  0  0  0  0
  184.3180  179.1660  141.1090 C   0  0  0  0  0  0  0  0  0  0  0  0
  182.2480  179.0030  142.6350 C   0  0  0  0  0  2  0  0  0  0  0  0
  179.0470  181.9100  134.6040 C   0  0  0  0  0  3  0  0  0  0  0  0
  184.4890  178.2530  143.3620 C   0  0  0  0  0  3  0  0  0  0  0  0
  181.3270  178.1390  141.7720 C   0  0  2  0  0  3  0  0  0  0  0  0
  181.5330  178.4700  140.2830 C   0  0  2  0  0  0  0  0  0  0  0  0
  180.4040  179.3730  138.5000 C   0  0  2  0  0  3  0  0  0  0  0  0
  179.8390  182.9290  135.0350 N   0  0  0  0  0  0  0  0  0  0  0  0
  186.4670  178.4580  141.9950 C   0  0  0  0  0  3  0  0  0  0  0  0
  183.7040  178.7920  142.3370 C   0  0  0  0  0  0  0  0  0  0  0  0
  180.6670  182.7890  136.1030 C   0  0  0  0  0  3  0  0  0  0  0  0
  185.6990  178.9960  140.9620 C   0  0  0  0  0  3  0  0  0  0  0  0
  181.6000  177.3830  139.2780 C   0  0  2  0  0  3  0  0  0  0  0  0
  180.3760  178.2130  139.3980 N   0  0  1  0  0  0  0  0  0  0  0  0
  179.9020  179.1600  137.0790 C   0  0  0  0  0  2  0  0  0  0  0  0
  183.6180  179.6780  140.0010 O   0  0  0  0  0  0  0  0  0  0  0  0
  182.3090  182.3520  138.4220 O   0  0  0  0  0  0  0  0  0  0  0  0
  179.0620  180.6790  135.2640 C   0  0  0  0  0  3  0  0  0  0  0  0
  181.7710  180.0100  138.4930 C   0  0  2  0  0  3  0  0  0  0  0  0
  179.8940  180.5010  136.3690 C   0  0  0  0  0  0  0  0  0  0  0  0
  179.6810  177.8750  143.4860 O   0  0  0  0  0  1  0  0  0  0  0  0
  179.8850  178.3760  142.2010 C   0  0  0  0  0  2  0  0  0  0  0  0
  186.6050  177.5310  144.2510 O   0  0  0  0  0  0  0  0  0  0  0  0
  186.4640  177.9630  145.5970 C   0  0  0  0  0  2  0  0  0  0  0  0
  187.7130  177.6700  146.3490 C   0  0  0  0  0  0  0  0  0  0  0  0
  188.8120  177.1410  145.6870 O   0  0  0  0  0  0  0  0  0  0  0  0
  187.7610  177.8630  147.5910 O   0  0  0  0  0  1  0  0  0  0  0  0
  1  9  1  0  0  0  0
  1 28  1  0  0  0  0
  2 21  1  6  0  0  0
  2 11  1  0  0  0  0
  4 22  2  0  0  0  0
  4 24  1  0  0  0  0
  5  4  1  0  0  0  0
  6 15  1  0  0  0  0
  8 13  2  0  0  0  0
  8 23  1  0  0  0  0
 10 27  1  1  0  0  0
 10  7  1  0  0  0  0
 11 10  1  0  0  0  0
 12 19  1  0  0  0  0
 13 16  1  0  0  0  0
 14  1  2  0  0  0  0
 15  7  1  0  0  0  0
 15  9  2  0  0  0  0
 16  5  2  0  0  0  0
 17  6  2  0  0  0  0
 17 14  1  0  0  0  0
 18 19  1  0  0  0  0
 18  3  1  0  0  0  0
 18 11  1  0  0  0  0
 19 11  1  0  0  0  0
 20 12  1  0  0  0  0
 21  6  1  0  0  0  0
 23 25  2  0  0  0  0
 24 12  1  0  0  0  0
 24  2  1  0  0  0  0
 25  5  1  0  0  0  0
 25 20  1  0  0  0  0
 27 26  1  0  0  0  0
 28 29  1  0  0  0  0
 29 30  1  0  0  0  0
 30 32  1  0  0  0  0
 31 30  2  0  0  0  0
M  END
>  <MODEL>
6

>  <REMARK>
 VINA RESULT:      -7.0      5.905      9.615
  Name = 
  4 active torsions:
  status: ('A' for Active; 'I' for Inactive)
    1  A    between atoms: C_1  and  C_10
    2  A    between atoms: C_2  and  O_24
    3  A    between atoms: C_10  and  O_24
    4  A    between atoms: C_13  and  C_14
                            x       y       z     vdW  Elec       q    Type
                         _______ _______ _______ _____ _____    ______ ____

>  <TORSDO>
F 4

$$$$
=
 OpenBabel10262421413D

 32 37  0  0  1  0  0  0  0  0999 V2000
  185.3140  178.6340  143.6710 C   0  0  0  0  0  0  0  0  0  0  0  0
  189.3850  176.9400  140.8920 C   0  0  1  0  0  3  0  0  0  0  0  0
  191.3130  179.0720  143.5400 C   0  0  0  0  0  1  0  0  0  0  0  0
  190.3470  176.4540  138.5390 C   0  0  0  0  0  0  0  0  0  0  0  0
  191.6100  176.3720  137.7630 C   0  0  0  0  0  0  0  0  0  0  0  0
  187.2790  178.0060  141.7510 C   0  0  0  0  0  0  0  0  0  0  0  0
  188.2140  176.2370  143.3760 C   0  0  0  0  0  2  0  0  0  0  0  0
  193.9660  176.2290  136.2980 C   0  0  0  0  0  3  0  0  0  0  0  0
  186.2790  177.6660  143.9470 C   0  0  0  0  0  3  0  0  0  0  0  0
  189.6620  176.7120  143.5100 C   0  0  2  0  0  3  0  0  0  0  0  0
  190.1510  177.3020  142.1750 C   0  0  2  0  0  0  0  0  0  0  0  0
  191.6840  176.8900  140.5170 C   0  0  2  0  0  3  0  0  0  0  0  0
  192.7950  175.7780  135.7740 N   0  0  0  0  0  0  0  0  0  0  0  0
  185.3240  179.2800  142.4290 C   0  0  0  0  0  3  0  0  0  0  0  0
  187.2630  177.3390  143.0090 C   0  0  0  0  0  0  0  0  0  0  0  0
  191.6300  175.8370  136.4710 C   0  0  0  0  0  3  0  0  0  0  0  0
  186.2990  178.9670  141.4810 C   0  0  0  0  0  3  0  0  0  0  0  0
  190.9480  178.5520  142.1580 C   0  0  2  0  0  3  0  0  0  0  0  0
  191.6100  177.2430  141.9390 N   0  0  1  0  0  0  0  0  0  0  0  0
  192.8760  177.4190  139.7340 C   0  0  0  0  0  2  0  0  0  0  0  0
  188.2460  177.7840  140.7530 O   0  0  0  0  0  0  0  0  0  0  0  0
  189.2670  175.9690  138.1030 O   0  0  0  0  0  0  0  0  0  0  0  0
  194.0020  176.7660  137.5860 C   0  0  0  0  0  3  0  0  0  0  0  0
  190.3930  177.2280  139.8160 C   0  0  2  0  0  3  0  0  0  0  0  0
  192.8270  176.8350  138.3350 C   0  0  0  0  0  0  0  0  0  0  0  0
  191.4020  175.9440  144.9580 O   0  0  0  0  0  1  0  0  0  0  0  0
  190.5260  175.5390  143.9520 C   0  0  0  0  0  2  0  0  0  0  0  0
  184.3530  178.9300  144.6430 O   0  0  0  0  0  0  0  0  0  0  0  0
  183.2340  179.7680  144.3880 C   0  0  0  0  0  2  0  0  0  0  0  0
  182.1540  178.9750  143.7450 C   0  0  0  0  0  0  0  0  0  0  0  0
  181.9890  179.0170  142.3670 O   0  0  0  0  0  0  0  0  0  0  0  0
  181.3640  178.2970  144.4510 O   0  0  0  0  0  1  0  0  0  0  0  0
  1  9  1  0  0  0  0
  1 28  1  0  0  0  0
  2 21  1  6  0  0  0
  2 11  1  0  0  0  0
  4 24  1  0  0  0  0
  5 25  1  0  0  0  0
  5  4  1  0  0  0  0
  6 15  1  0  0  0  0
  7 10  1  0  0  0  0
  8 23  1  0  0  0  0
 10 27  1  6  0  0  0
 11 10  1  0  0  0  0
 12 19  1  0  0  0  0
 13  8  2  0  0  0  0
 13 16  1  0  0  0  0
 14  1  2  0  0  0  0
 15  7  1  0  0  0  0
 15  9  2  0  0  0  0
 16  5  2  0  0  0  0
 17  6  2  0  0  0  0
 17 14  1  0  0  0  0
 18 11  1  0  0  0  0
 18  3  1  0  0  0  0
 19 18  1  0  0  0  0
 19 11  1  0  0  0  0
 20 12  1  0  0  0  0
 21  6  1  0  0  0  0
 22  4  2  0  0  0  0
 23 25  2  0  0  0  0
 24 12  1  0  0  0  0
 24  2  1  0  0  0  0
 25 20  1  0  0  0  0
 27 26  1  0  0  0  0
 29 28  1  0  0  0  0
 30 29  1  0  0  0  0
 30 32  1  0  0  0  0
 31 30  2  0  0  0  0
M  END
>  <MODEL>
7

>  <REMARK>
 VINA RESULT:      -6.7      2.825      8.576
  Name = 
  4 active torsions:
  status: ('A' for Active; 'I' for Inactive)
    1  A    between atoms: C_1  and  C_10
    2  A    between atoms: C_2  and  O_24
    3  A    between atoms: C_10  and  O_24
    4  A    between atoms: C_13  and  C_14
                            x       y       z     vdW  Elec       q    Type
                         _______ _______ _______ _____ _____    ______ ____

>  <TORSDO>
F 4

$$$$
=
 OpenBabel10262421413D

 32 37  0  0  1  0  0  0  0  0999 V2000
  180.1920  181.8680  135.8710 C   0  0  0  0  0  0  0  0  0  0  0  0
  181.4080  176.9110  136.9300 C   0  0  1  0  0  3  0  0  0  0  0  0
  184.5580  178.6400  138.4650 C   0  0  0  0  0  1  0  0  0  0  0  0
  181.4430  174.4640  136.0860 C   0  0  0  0  0  0  0  0  0  0  0  0
  182.1530  173.1680  136.2260 C   0  0  0  0  0  0  0  0  0  0  0  0
  180.8520  179.1270  135.8870 C   0  0  0  0  0  0  0  0  0  0  0  0
  180.3790  179.0910  138.4200 C   0  0  0  0  0  2  0  0  0  0  0  0
  183.4810  170.7390  136.4690 C   0  0  0  0  0  3  0  0  0  0  0  0
  180.1720  181.1490  137.0670 C   0  0  0  0  0  3  0  0  0  0  0  0
  181.7200  178.5820  138.9520 C   0  0  2  0  0  3  0  0  0  0  0  0
  182.3320  177.5730  137.9640 C   0  0  2  0  0  0  0  0  0  0  0  0
  182.8850  175.3500  137.8260 C   0  0  2  0  0  3  0  0  0  0  0  0
  182.3020  170.8210  135.7960 N   0  0  0  0  0  0  0  0  0  0  0  0
  180.5310  181.2120  134.6810 C   0  0  0  0  0  3  0  0  0  0  0  0
  180.4960  179.7890  137.0970 C   0  0  0  0  0  0  0  0  0  0  0  0
  181.6340  171.9970  135.6640 C   0  0  0  0  0  3  0  0  0  0  0  0
  180.8580  179.8560  134.6930 C   0  0  0  0  0  3  0  0  0  0  0  0
  183.7780  177.6220  137.6460 C   0  0  2  0  0  3  0  0  0  0  0  0
  183.2500  176.5720  138.5500 N   0  0  1  0  0  0  0  0  0  0  0  0
  183.9910  174.3320  137.5860 C   0  0  0  0  0  2  0  0  0  0  0  0
  181.2340  177.7750  135.8100 O   0  0  0  0  0  0  0  0  0  0  0  0
  180.3110  174.5460  135.5370 O   0  0  0  0  0  0  0  0  0  0  0  0
  184.0390  171.8780  137.0540 C   0  0  0  0  0  3  0  0  0  0  0  0
  182.1790  175.6840  136.5370 C   0  0  2  0  0  3  0  0  0  0  0  0
  183.3770  173.1010  136.9460 C   0  0  0  0  0  0  0  0  0  0  0  0
  182.2630  178.6270  141.2810 O   0  0  0  0  0  1  0  0  0  0  0  0
  181.5000  177.9580  140.3240 C   0  0  0  0  0  2  0  0  0  0  0  0
  179.8650  183.2270  135.8920 O   0  0  0  0  0  0  0  0  0  0  0  0
  180.8420  184.2540  135.7960 C   0  0  0  0  0  2  0  0  0  0  0  0
  181.1830  184.7470  137.1560 C   0  0  0  0  0  0  0  0  0  0  0  0
  180.2170  185.3790  137.9270 O   0  0  0  0  0  1  0  0  0  0  0  0
  182.3560  184.6280  137.5940 O   0  0  0  0  0  0  0  0  0  0  0  0
  1 28  1  0  0  0  0
  1  9  1  0  0  0  0
  2 21  1  6  0  0  0
  2 11  1  0  0  0  0
  4  5  1  0  0  0  0
  4 24  1  0  0  0  0
  5 25  1  0  0  0  0
  6 15  1  0  0  0  0
  7 10  1  0  0  0  0
  8 23  1  0  0  0  0
  9 15  2  0  0  0  0
 10 27  1  1  0  0  0
 11 19  1  0  0  0  0
 11 10  1  0  0  0  0
 12 19  1  0  0  0  0
 13  8  2  0  0  0  0
 14 17  1  0  0  0  0
 14  1  2  0  0  0  0
 15  7  1  0  0  0  0
 16 13  1  0  0  0  0
 16  5  2  0  0  0  0
 17  6  2  0  0  0  0
 18 11  1  0  0  0  0
 18  3  1  0  0  0  0
 18 19  1  0  0  0  0
 20 12  1  0  0  0  0
 21  6  1  0  0  0  0
 22  4  2  0  0  0  0
 24  2  1  0  0  0  0
 24 12  1  0  0  0  0
 25 23  2  0  0  0  0
 25 20  1  0  0  0  0
 27 26  1  0  0  0  0
 29 28  1  0  0  0  0
 29 30  1  0  0  0  0
 30 32  2  0  0  0  0
 30 31  1  0  0  0  0
M  END
>  <MODEL>
8

>  <REMARK>
 VINA RESULT:      -5.9      8.197     11.802
  Name = 
  4 active torsions:
  status: ('A' for Active; 'I' for Inactive)
    1  A    between atoms: C_1  and  C_10
    2  A    between atoms: C_2  and  O_24
    3  A    between atoms: C_10  and  O_24
    4  A    between atoms: C_13  and  C_14
                            x       y       z     vdW  Elec       q    Type
                         _______ _______ _______ _____ _____    ______ ____

>  <TORSDO>
F 4

$$$$
=
 OpenBabel10262421413D

 32 37  0  0  1  0  0  0  0  0999 V2000
  187.8780  177.7200  141.8090 C   0  0  0  0  0  0  0  0  0  0  0  0
  183.4790  179.8140  139.9550 C   0  0  1  0  0  3  0  0  0  0  0  0
  182.3680  176.0690  140.0450 C   0  0  0  0  0  1  0  0  0  0  0  0
  182.4140  181.5370  138.3440 C   0  0  0  0  0  0  0  0  0  0  0  0
  181.1980  181.8230  137.5430 C   0  0  0  0  0  0  0  0  0  0  0  0
  185.8190  179.0010  140.3720 C   0  0  0  0  0  0  0  0  0  0  0  0
  184.3450  178.8650  142.4820 C   0  0  0  0  0  2  0  0  0  0  0  0
  178.9310  182.3640  136.0300 C   0  0  0  0  0  3  0  0  0  0  0  0
  186.6440  177.9600  142.4150 C   0  0  0  0  0  3  0  0  0  0  0  0
  183.1390  178.0990  141.9360 C   0  0  2  0  0  3  0  0  0  0  0  0
  182.8760  178.4980  140.4730 C   0  0  2  0  0  0  0  0  0  0  0  0
  181.2960  179.5540  139.1860 C   0  0  2  0  0  3  0  0  0  0  0  0
  179.8850  183.3150  136.2140 N   0  0  0  0  0  0  0  0  0  0  0  0
  188.0860  178.1330  140.4870 C   0  0  0  0  0  3  0  0  0  0  0  0
  185.6100  178.5930  141.7200 C   0  0  0  0  0  0  0  0  0  0  0  0
  181.0030  183.0740  136.9490 C   0  0  0  0  0  3  0  0  0  0  0  0
  187.0640  178.7660  139.7790 C   0  0  0  0  0  3  0  0  0  0  0  0
  182.5420  177.4640  139.4650 C   0  0  2  0  0  3  0  0  0  0  0  0
  181.4810  178.3510  140.0030 N   0  0  1  0  0  0  0  0  0  0  0  0
  180.3500  179.4450  137.9990 C   0  0  0  0  0  2  0  0  0  0  0  0
  184.8350  179.6080  139.5690 O   0  0  0  0  0  0  0  0  0  0  0  0
  183.2710  182.4280  138.5920 O   0  0  0  0  0  0  0  0  0  0  0  0
  179.0740  181.1010  136.6070 C   0  0  0  0  0  3  0  0  0  0  0  0
  182.6270  180.1170  138.7560 C   0  0  2  0  0  3  0  0  0  0  0  0
  180.2040  180.8200  137.3750 C   0  0  0  0  0  0  0  0  0  0  0  0
  182.3460  178.6510  144.1240 O   0  0  0  0  0  1  0  0  0  0  0  0
  181.9320  178.3890  142.8180 C   0  0  0  0  0  2  0  0  0  0  0  0
  188.8810  177.0800  142.5430 O   0  0  0  0  0  0  0  0  0  0  0  0
  189.9150  177.7880  143.2120 C   0  0  0  0  0  2  0  0  0  0  0  0
  189.7620  177.6250  144.6820 C   0  0  0  0  0  0  0  0  0  0  0  0
  188.4940  177.5820  145.2460 O   0  0  0  0  0  0  0  0  0  0  0  0
  190.7800  177.5660  145.4190 O   0  0  0  0  0  1  0  0  0  0  0  0
  1  9  1  0  0  0  0
  1 28  1  0  0  0  0
  2 21  1  6  0  0  0
  2 11  1  0  0  0  0
  4 22  2  0  0  0  0
  4 24  1  0  0  0  0
  5  4  1  0  0  0  0
  6 15  1  0  0  0  0
  8 13  2  0  0  0  0
  8 23  1  0  0  0  0
 10  7  1  0  0  0  0
 10 27  1  1  0  0  0
 11 10  1  0  0  0  0
 12 19  1  0  0  0  0
 13 16  1  0  0  0  0
 14  1  2  0  0  0  0
 15  9  2  0  0  0  0
 15  7  1  0  0  0  0
 16  5  2  0  0  0  0
 17  6  2  0  0  0  0
 17 14  1  0  0  0  0
 18 19  1  0  0  0  0
 18  3  1  0  0  0  0
 18 11  1  0  0  0  0
 19 11  1  0  0  0  0
 20 12  1  0  0  0  0
 21  6  1  0  0  0  0
 23 25  2  0  0  0  0
 24 12  1  0  0  0  0
 24  2  1  0  0  0  0
 25  5  1  0  0  0  0
 25 20  1  0  0  0  0
 27 26  1  0  0  0  0
 28 29  1  0  0  0  0
 29 30  1  0  0  0  0
 30 31  2  0  0  0  0
 30 32  1  0  0  0  0
M  END
>  <MODEL>
9

>  <REMARK>
 VINA RESULT:      -5.7      4.738      8.075
  Name = 
  4 active torsions:
  status: ('A' for Active; 'I' for Inactive)
    1  A    between atoms: C_1  and  C_10
    2  A    between atoms: C_2  and  O_24
    3  A    between atoms: C_10  and  O_24
    4  A    between atoms: C_13  and  C_14
                            x       y       z     vdW  Elec       q    Type
                         _______ _______ _______ _____ _____    ______ ____

>  <TORSDO>
F 4

$$$$
