=
 OpenBabel10262420473D

 28 33  0  0  1  0  0  0  0  0999 V2000
  186.7950  177.6930  145.4810 C   0  0  0  0  0  0  0  0  0  0  0  0
  188.1940  177.2240  145.7280 C   0  0  1  0  0  3  0  0  0  0  0  0
  188.3020  176.9550  143.1940 C   0  0  1  0  0  3  0  0  0  0  0  0
  186.8480  178.1570  139.3030 C   0  0  0  0  0  3  0  0  0  0  0  0
  182.8720  179.3270  145.0250 C   0  0  0  0  0  1  0  0  0  0  0  0
  190.4680  178.0310  145.3870 C   0  0  2  0  0  3  0  0  0  0  0  0
  188.7890  176.4690  144.5460 C   0  0  1  0  0  3  0  0  0  0  0  0
  189.2910  178.5760  147.5050 C   0  0  0  0  0  1  0  0  0  0  0  0
  189.7930  177.3490  139.9370 C   0  0  0  0  0  3  0  0  0  0  0  0
  186.6550  177.9830  141.7390 C   0  0  0  0  0  0  0  0  0  0  0  0
  189.1300  178.3890  146.0080 C   0  0  2  0  0  3  0  0  0  0  0  0
  188.9070  178.5630  137.9050 C   0  0  0  0  0  0  0  0  0  0  0  0
  187.4240  177.8240  140.6250 C   0  0  1  0  0  3  0  0  0  0  0  0
  189.0230  176.4070  141.9950 C   0  0  0  0  0  2  0  0  0  0  0  0
  189.8810  178.0690  138.6620 C   0  0  0  0  0  3  0  0  0  0  0  0
  185.0410  178.4980  144.0110 C   0  0  0  0  0  0  0  0  0  0  0  0
  187.1250  177.6210  143.0420 C   0  0  0  0  0  0  0  0  0  0  0  0
  188.7690  177.2260  140.7790 C   0  0  0  0  0  0  0  0  0  0  0  0
  184.7300  178.4830  146.3840 N   0  0  0  0  0  0  0  0  0  0  0  0
  184.5750  178.7920  142.7290 C   0  0  0  0  0  3  0  0  0  0  0  0
  184.2460  178.7550  145.1440 C   0  0  0  0  0  0  0  0  0  0  0  0
  190.8560  179.0930  144.3780 C   0  0  0  0  0  1  0  0  0  0  0  0
  189.3050  179.2120  136.6290 C   0  0  0  0  0  1  0  0  0  0  0  0
  187.4690  178.4570  138.1680 C   0  0  0  0  0  3  0  0  0  0  0  0
  185.3740  178.5510  141.6200 C   0  0  0  0  0  3  0  0  0  0  0  0
  185.9730  177.9730  146.5730 C   0  0  0  0  0  3  0  0  0  0  0  0
  186.3300  177.9390  144.1760 C   0  0  0  0  0  0  0  0  0  0  0  0
  190.2860  176.6980  144.6820 C   0  0  0  0  0  2  0  0  0  0  0  0
  1 26  1  0  0  0  0
  2  1  1  6  0  0  0
  2 11  1  0  0  0  0
  3 14  1  6  0  0  0
  3  7  1  0  0  0  0
  5 21  1  0  0  0  0
  6 22  1  6  0  0  0
  6 11  1  0  0  0  0
  7 28  1  6  0  0  0
  7  2  1  0  0  0  0
  9 18  2  0  0  0  0
 10 17  2  0  0  0  0
 11  8  1  1  0  0  0
 12 24  1  0  0  0  0
 12 15  2  0  0  0  0
 13  4  1  6  0  0  0
 13 18  1  0  0  0  0
 13 10  1  0  0  0  0
 15  9  1  0  0  0  0
 16 27  1  0  0  0  0
 16 21  2  0  0  0  0
 17  3  1  0  0  0  0
 17 27  1  0  0  0  0
 18 14  1  0  0  0  0
 19 26  2  0  0  0  0
 20 16  1  0  0  0  0
 21 19  1  0  0  0  0
 23 12  1  0  0  0  0
 24  4  2  0  0  0  0
 25 10  1  0  0  0  0
 25 20  2  0  0  0  0
 27  1  2  0  0  0  0
 28  6  1  0  0  0  0
M  END
>  <MODEL>
1

>  <REMARK>
 VINA RESULT:      -9.2      0.000      0.000
  Name = 
  0 active torsions:
  status: ('A' for Active; 'I' for Inactive)
                            x       y       z     vdW  Elec       q    Type
                         _______ _______ _______ _____ _____    ______ ____

>  <TORSDO>
F 0

$$$$
=
 OpenBabel10262420473D

 28 33  0  0  1  0  0  0  0  0999 V2000
  180.9430  178.9420  140.7370 C   0  0  0  0  0  0  0  0  0  0  0  0
  181.5640  178.7900  139.3840 C   0  0  1  0  0  3  0  0  0  0  0  0
  183.7780  178.9710  140.6380 C   0  0  1  0  0  3  0  0  0  0  0  0
  185.9650  178.4500  144.3320 C   0  0  0  0  0  3  0  0  0  0  0  0
  178.9310  179.0800  144.5050 C   0  0  0  0  0  1  0  0  0  0  0  0
  182.8110  177.1100  138.1360 C   0  0  2  0  0  3  0  0  0  0  0  0
  183.0250  179.2210  139.3450 C   0  0  1  0  0  3  0  0  0  0  0  0
  180.3310  177.1190  138.0150 C   0  0  0  0  0  1  0  0  0  0  0  0
  187.1350  177.9680  141.4810 C   0  0  0  0  0  3  0  0  0  0  0  0
  183.8950  178.7080  143.0470 C   0  0  0  0  0  0  0  0  0  0  0  0
  181.5300  177.3440  138.9160 C   0  0  2  0  0  3  0  0  0  0  0  0
  188.0720  177.2160  143.7040 C   0  0  0  0  0  0  0  0  0  0  0  0
  185.2460  178.5240  143.0410 C   0  0  0  0  0  0  0  0  0  0  0  0
  185.2670  179.1610  140.5830 C   0  0  0  0  0  2  0  0  0  0  0  0
  188.0620  177.2670  142.3760 C   0  0  0  0  0  3  0  0  0  0  0  0
  181.0720  178.9270  143.1590 C   0  0  0  0  0  0  0  0  0  0  0  0
  183.1450  178.8520  141.8370 C   0  0  0  0  0  0  0  0  0  0  0  0
  185.9480  178.5120  141.7370 C   0  0  0  0  0  0  0  0  0  0  0  0
  178.9560  179.0880  142.0530 N   0  0  0  0  0  0  0  0  0  0  0  0
  181.8240  178.8420  144.3310 C   0  0  0  0  0  3  0  0  0  0  0  0
  179.6690  179.0320  143.2070 C   0  0  0  0  0  0  0  0  0  0  0  0
  183.5890  175.9740  138.7710 C   0  0  0  0  0  1  0  0  0  0  0  0
  189.1750  176.4510  144.3420 C   0  0  0  0  0  1  0  0  0  0  0  0
  187.1480  177.9110  144.6040 C   0  0  0  0  0  2  0  0  0  0  0  0
  183.2050  178.7220  144.2720 C   0  0  0  0  0  3  0  0  0  0  0  0
  179.5550  179.0370  140.8370 C   0  0  0  0  0  3  0  0  0  0  0  0
  181.7260  178.9020  141.9050 C   0  0  0  0  0  0  0  0  0  0  0  0
  183.6210  178.3930  138.2170 C   0  0  0  0  0  2  0  0  0  0  0  0
  1 26  2  0  0  0  0
  1 27  1  0  0  0  0
  2  1  1  1  0  0  0
  3 14  1  1  0  0  0
  3 17  1  0  0  0  0
  4 24  1  0  0  0  0
  6 28  1  0  0  0  0
  6 22  1  1  0  0  0
  6 11  1  0  0  0  0
  7 28  1  6  0  0  0
  7  2  1  0  0  0  0
  7  3  1  0  0  0  0
  9 18  2  0  0  0  0
  9 15  1  0  0  0  0
 10 25  1  0  0  0  0
 11  8  1  6  0  0  0
 11  2  1  0  0  0  0
 12 23  1  0  0  0  0
 12 24  1  0  0  0  0
 13 10  1  0  0  0  0
 13  4  2  0  0  0  0
 14 18  1  0  0  0  0
 15 12  2  0  0  0  0
 16 21  1  0  0  0  0
 16 20  1  0  0  0  0
 17 27  1  0  0  0  0
 17 10  2  0  0  0  0
 18 13  1  0  0  0  0
 19 21  2  0  0  0  0
 21  5  1  0  0  0  0
 25 20  2  0  0  0  0
 26 19  1  0  0  0  0
 27 16  2  0  0  0  0
M  END
>  <MODEL>
2

>  <REMARK>
 VINA RESULT:      -8.8      3.271      6.886
  Name = 
  0 active torsions:
  status: ('A' for Active; 'I' for Inactive)
                            x       y       z     vdW  Elec       q    Type
                         _______ _______ _______ _____ _____    ______ ____

>  <TORSDO>
F 0

$$$$
=
 OpenBabel10262420473D

 28 33  0  0  1  0  0  0  0  0999 V2000
  182.9950  178.8110  142.0170 C   0  0  0  0  0  0  0  0  0  0  0  0
  182.3810  178.7740  140.6540 C   0  0  1  0  0  3  0  0  0  0  0  0
  184.7920  178.8220  139.8230 C   0  0  1  0  0  3  0  0  0  0  0  0
  188.9600  177.9520  140.5780 C   0  0  0  0  0  3  0  0  0  0  0  0
  184.4980  178.6280  146.0140 C   0  0  0  0  0  1  0  0  0  0  0  0
  182.1450  177.2020  138.8080 C   0  0  2  0  0  3  0  0  0  0  0  0
  183.3460  179.1940  139.5520 C   0  0  1  0  0  3  0  0  0  0  0  0
  180.4210  177.2440  140.5940 C   0  0  0  0  0  1  0  0  0  0  0  0
  187.5630  177.7170  137.8000 C   0  0  0  0  0  3  0  0  0  0  0  0
  186.6520  178.3430  141.3040 C   0  0  0  0  0  0  0  0  0  0  0  0
  181.9020  177.3760  140.2960 C   0  0  2  0  0  3  0  0  0  0  0  0
  189.7890  176.7600  138.5170 C   0  0  0  0  0  0  0  0  0  0  0  0
  187.5250  178.1480  140.2750 C   0  0  1  0  0  3  0  0  0  0  0  0
  185.7460  179.0030  138.6770 C   0  0  0  0  0  2  0  0  0  0  0  0
  188.7910  176.9300  137.6550 C   0  0  0  0  0  3  0  0  0  0  0  0
  184.8920  178.5760  143.5120 C   0  0  0  0  0  0  0  0  0  0  0  0
  185.2630  178.6010  141.0800 C   0  0  0  0  0  0  0  0  0  0  0  0
  187.0110  178.2460  138.8900 C   0  0  0  0  0  0  0  0  0  0  0  0
  182.6810  178.8550  144.3850 N   0  0  0  0  0  0  0  0  0  0  0  0
  186.2580  178.3800  143.7130 C   0  0  0  0  0  3  0  0  0  0  0  0
  184.0100  178.6890  144.6040 C   0  0  0  0  0  0  0  0  0  0  0  0
  183.0500  176.0070  138.5810 C   0  0  0  0  0  1  0  0  0  0  0  0
  190.9370  175.9300  138.0670 C   0  0  0  0  0  1  0  0  0  0  0  0
  189.9040  177.3800  139.8400 C   0  0  0  0  0  3  0  0  0  0  0  0
  187.1150  178.2530  142.6290 C   0  0  0  0  0  3  0  0  0  0  0  0
  182.1610  178.9090  143.1320 C   0  0  0  0  0  3  0  0  0  0  0  0
  184.3820  178.6580  142.1940 C   0  0  0  0  0  0  0  0  0  0  0  0
  182.8340  178.4650  138.3200 C   0  0  0  0  0  2  0  0  0  0  0  0
  1 27  2  0  0  0  0
  1 26  1  0  0  0  0
  2  1  1  1  0  0  0
  3 14  1  1  0  0  0
  3 17  1  0  0  0  0
  6 22  1  1  0  0  0
  6 11  1  0  0  0  0
  7 28  1  6  0  0  0
  7  3  1  0  0  0  0
  7  2  1  0  0  0  0
  9 18  2  0  0  0  0
 10 25  1  0  0  0  0
 11  8  1  6  0  0  0
 11  2  1  0  0  0  0
 12 24  1  0  0  0  0
 13  4  1  6  0  0  0
 13 10  1  0  0  0  0
 14 18  1  0  0  0  0
 15  9  1  0  0  0  0
 15 12  2  0  0  0  0
 16 20  1  0  0  0  0
 16 21  2  0  0  0  0
 17 10  2  0  0  0  0
 17 27  1  0  0  0  0
 18 13  1  0  0  0  0
 19 21  1  0  0  0  0
 21  5  1  0  0  0  0
 23 12  1  0  0  0  0
 24  4  2  0  0  0  0
 25 20  2  0  0  0  0
 26 19  2  0  0  0  0
 27 16  1  0  0  0  0
 28  6  1  0  0  0  0
M  END
>  <MODEL>
3

>  <REMARK>
 VINA RESULT:      -8.7      2.325      5.543
  Name = 
  0 active torsions:
  status: ('A' for Active; 'I' for Inactive)
                            x       y       z     vdW  Elec       q    Type
                         _______ _______ _______ _____ _____    ______ ____

>  <TORSDO>
F 0

$$$$
=
 OpenBabel10262420473D

 28 33  0  0  1  0  0  0  0  0999 V2000
  184.5940  178.4730  138.8320 C   0  0  0  0  0  0  0  0  0  0  0  0
  185.4910  178.2530  137.6550 C   0  0  1  0  0  3  0  0  0  0  0  0
  187.3770  178.3690  139.3680 C   0  0  1  0  0  3  0  0  0  0  0  0
  188.6600  177.8570  143.4660 C   0  0  0  0  0  3  0  0  0  0  0  0
  181.8040  178.8130  142.0520 C   0  0  0  0  0  1  0  0  0  0  0  0
  186.8970  176.4820  136.7480 C   0  0  2  0  0  3  0  0  0  0  0  0
  186.9440  178.6150  137.9350 C   0  0  1  0  0  3  0  0  0  0  0  0
  184.5090  176.6000  136.0760 C   0  0  0  0  0  1  0  0  0  0  0  0
  190.4080  177.2390  140.9580 C   0  0  0  0  0  3  0  0  0  0  0  0
  186.9430  178.1710  141.7470 C   0  0  0  0  0  0  0  0  0  0  0  0
  185.4880  176.7970  137.2180 C   0  0  2  0  0  3  0  0  0  0  0  0
  190.7870  176.5100  143.3480 C   0  0  0  0  0  0  0  0  0  0  0  0
  188.2500  177.9260  142.0460 C   0  0  0  0  0  0  0  0  0  0  0  0
  188.8490  178.4890  139.6440 C   0  0  0  0  0  2  0  0  0  0  0  0
  191.0750  176.5230  142.0500 C   0  0  0  0  0  3  0  0  0  0  0  0
  184.1800  178.5230  141.2220 C   0  0  0  0  0  0  0  0  0  0  0  0
  186.4890  178.3140  140.3970 C   0  0  0  0  0  0  0  0  0  0  0  0
  189.2220  177.8430  140.9320 C   0  0  0  0  0  0  0  0  0  0  0  0
  182.3740  178.7480  139.6680 N   0  0  0  0  0  0  0  0  0  0  0  0
  184.6470  178.4380  142.5340 C   0  0  0  0  0  3  0  0  0  0  0  0
  182.8090  178.6930  140.9530 C   0  0  0  0  0  0  0  0  0  0  0  0
  187.4550  175.3310  137.5620 C   0  0  0  0  0  1  0  0  0  0  0  0
  191.6800  175.7140  144.2300 C   0  0  0  0  0  1  0  0  0  0  0  0
  189.7230  177.2730  144.0060 C   0  0  0  0  0  2  0  0  0  0  0  0
  185.9990  178.2530  142.7870 C   0  0  0  0  0  3  0  0  0  0  0  0
  183.2240  178.6340  138.6170 C   0  0  0  0  0  3  0  0  0  0  0  0
  185.0950  178.4310  140.1460 C   0  0  0  0  0  0  0  0  0  0  0  0
  187.7320  177.7280  136.9850 C   0  0  0  0  0  2  0  0  0  0  0  0
  1 27  1  0  0  0  0
  2  7  1  0  0  0  0
  2  1  1  1  0  0  0
  3 14  1  1  0  0  0
  3 17  1  0  0  0  0
  4 24  1  0  0  0  0
  6 28  1  0  0  0  0
  6 11  1  0  0  0  0
  6 22  1  1  0  0  0
  7 28  1  6  0  0  0
  7  3  1  0  0  0  0
  9 15  1  0  0  0  0
 10 13  1  0  0  0  0
 10 25  1  0  0  0  0
 11  8  1  6  0  0  0
 11  2  1  0  0  0  0
 12 24  1  0  0  0  0
 12 23  1  0  0  0  0
 13  4  2  0  0  0  0
 14 18  1  0  0  0  0
 15 12  2  0  0  0  0
 16 20  1  0  0  0  0
 17 10  2  0  0  0  0
 18  9  2  0  0  0  0
 18 13  1  0  0  0  0
 19 21  2  0  0  0  0
 20 25  2  0  0  0  0
 21 16  1  0  0  0  0
 21  5  1  0  0  0  0
 26  1  2  0  0  0  0
 26 19  1  0  0  0  0
 27 17  1  0  0  0  0
 27 16  2  0  0  0  0
M  END
>  <MODEL>
4

>  <REMARK>
 VINA RESULT:      -8.0      2.365      6.165
  Name = 
  0 active torsions:
  status: ('A' for Active; 'I' for Inactive)
                            x       y       z     vdW  Elec       q    Type
                         _______ _______ _______ _____ _____    ______ ____

>  <TORSDO>
F 0

$$$$
=
 OpenBabel10262420473D

 28 33  0  0  1  0  0  0  0  0999 V2000
  190.1440  177.4750  140.4100 C   0  0  0  0  0  0  0  0  0  0  0  0
  190.0480  177.6920  141.8870 C   0  0  1  0  0  3  0  0  0  0  0  0
  187.7360  178.6320  141.3620 C   0  0  1  0  0  3  0  0  0  0  0  0
  184.3150  178.7180  138.7180 C   0  0  0  0  0  3  0  0  0  0  0  0
  190.5570  176.4930  136.2700 C   0  0  0  0  0  1  0  0  0  0  0  0
  188.8500  176.7530  143.7890 C   0  0  2  0  0  3  0  0  0  0  0  0
  188.9450  178.6680  142.2770 C   0  0  1  0  0  3  0  0  0  0  0  0
  191.0440  175.7880  143.1400 C   0  0  0  0  0  1  0  0  0  0  0  0
  184.1780  178.9750  141.8240 C   0  0  0  0  0  3  0  0  0  0  0  0
  186.6640  178.2390  139.2210 C   0  0  0  0  0  0  0  0  0  0  0  0
  189.7530  176.3950  142.6230 C   0  0  2  0  0  3  0  0  0  0  0  0
  182.2970  178.4760  140.2110 C   0  0  0  0  0  0  0  0  0  0  0  0
  185.4350  178.6070  139.6790 C   0  0  1  0  0  3  0  0  0  0  0  0
  186.5310  179.4000  141.8280 C   0  0  0  0  0  2  0  0  0  0  0  0
  182.8090  178.6280  141.4280 C   0  0  0  0  0  3  0  0  0  0  0  0
  189.1420  177.3120  138.2060 C   0  0  0  0  0  0  0  0  0  0  0  0
  187.8050  178.1730  140.0830 C   0  0  0  0  0  0  0  0  0  0  0  0
  185.2990  178.9810  141.1060 C   0  0  0  0  0  0  0  0  0  0  0  0
  191.4330  176.7120  138.5500 N   0  0  0  0  0  0  0  0  0  0  0  0
  188.0350  177.4360  137.3670 C   0  0  0  0  0  3  0  0  0  0  0  0
  190.3750  176.8480  137.7100 C   0  0  0  0  0  0  0  0  0  0  0  0
  187.5560  175.9700  143.6830 C   0  0  0  0  0  1  0  0  0  0  0  0
  180.8470  178.1610  140.1220 C   0  0  0  0  0  1  0  0  0  0  0  0
  183.0060  178.6720  138.9440 C   0  0  0  0  0  3  0  0  0  0  0  0
  186.8190  177.8780  137.8710 C   0  0  0  0  0  3  0  0  0  0  0  0
  191.3420  177.0030  139.8720 C   0  0  0  0  0  3  0  0  0  0  0  0
  189.0250  177.6510  139.5750 C   0  0  0  0  0  0  0  0  0  0  0  0
  188.5580  178.2400  143.6840 C   0  0  0  0  0  2  0  0  0  0  0  0
  2  1  1  6  0  0  0
  2  7  1  0  0  0  0
  2 11  1  0  0  0  0
  3 14  1  6  0  0  0
  3  7  1  0  0  0  0
  4 24  2  0  0  0  0
  5 21  1  0  0  0  0
  6 22  1  6  0  0  0
  7 28  1  1  0  0  0
 10 13  1  0  0  0  0
 10 17  2  0  0  0  0
 11  8  1  1  0  0  0
 11  6  1  0  0  0  0
 12 15  2  0  0  0  0
 13  4  1  6  0  0  0
 13 18  1  0  0  0  0
 15  9  1  0  0  0  0
 16 27  1  0  0  0  0
 17  3  1  0  0  0  0
 18  9  2  0  0  0  0
 18 14  1  0  0  0  0
 19 26  2  0  0  0  0
 20 25  2  0  0  0  0
 20 16  1  0  0  0  0
 21 16  2  0  0  0  0
 21 19  1  0  0  0  0
 23 12  1  0  0  0  0
 24 12  1  0  0  0  0
 25 10  1  0  0  0  0
 26  1  1  0  0  0  0
 27 17  1  0  0  0  0
 27  1  2  0  0  0  0
 28  6  1  0  0  0  0
M  END
>  <MODEL>
5

>  <REMARK>
 VINA RESULT:      -7.9      2.846      6.050
  Name = 
  0 active torsions:
  status: ('A' for Active; 'I' for Inactive)
                            x       y       z     vdW  Elec       q    Type
                         _______ _______ _______ _____ _____    ______ ____

>  <TORSDO>
F 0

$$$$
=
 OpenBabel10262420473D

 28 33  0  0  1  0  0  0  0  0999 V2000
  188.1900  178.0100  139.4860 C   0  0  0  0  0  0  0  0  0  0  0  0
  188.8570  178.1760  140.8140 C   0  0  1  0  0  3  0  0  0  0  0  0
  186.5690  178.9810  141.6010 C   0  0  1  0  0  3  0  0  0  0  0  0
  182.2760  178.9300  141.0860 C   0  0  0  0  0  3  0  0  0  0  0  0
  186.4590  177.1850  135.6660 C   0  0  0  0  0  1  0  0  0  0  0  0
  188.8430  177.1030  143.0020 C   0  0  2  0  0  3  0  0  0  0  0  0
  188.0740  179.0670  141.7700 C   0  0  1  0  0  3  0  0  0  0  0  0
  190.4290  176.3020  141.2680 C   0  0  0  0  0  1  0  0  0  0  0  0
  183.7420  179.0820  143.8340 C   0  0  0  0  0  3  0  0  0  0  0  0
  184.5670  178.5870  140.2890 C   0  0  0  0  0  0  0  0  0  0  0  0
  189.0340  176.8400  141.5190 C   0  0  2  0  0  3  0  0  0  0  0  0
  181.3220  178.5130  143.3820 C   0  0  0  0  0  0  0  0  0  0  0  0
  183.7340  178.8610  141.3310 C   0  0  0  0  0  0  0  0  0  0  0  0
  185.7450  179.6560  142.6610 C   0  0  0  0  0  2  0  0  0  0  0  0
  182.3790  178.6600  144.1730 C   0  0  0  0  0  3  0  0  0  0  0  0
  186.2070  177.8520  138.0980 C   0  0  0  0  0  0  0  0  0  0  0  0
  185.9900  178.5680  140.4410 C   0  0  0  0  0  0  0  0  0  0  0  0
  184.3350  179.1810  142.6460 C   0  0  0  0  0  0  0  0  0  0  0  0
  188.3710  177.3890  137.1870 N   0  0  0  0  0  0  0  0  0  0  0  0
  184.8220  177.9300  137.9510 C   0  0  0  0  0  3  0  0  0  0  0  0
  187.0280  177.4830  137.0140 C   0  0  0  0  0  0  0  0  0  0  0  0
  187.7100  176.2430  143.5260 C   0  0  0  0  0  1  0  0  0  0  0  0
  180.0450  178.1090  144.0270 C   0  0  0  0  0  1  0  0  0  0  0  0
  181.2720  178.7930  141.9440 C   0  0  0  0  0  2  0  0  0  0  0  0
  184.0210  178.2780  139.0300 C   0  0  0  0  0  3  0  0  0  0  0  0
  188.9600  177.6330  138.3840 C   0  0  0  0  0  3  0  0  0  0  0  0
  186.7960  178.1410  139.3510 C   0  0  0  0  0  0  0  0  0  0  0  0
  188.4810  178.5710  143.1490 C   0  0  0  0  0  2  0  0  0  0  0  0
  2  1  1  6  0  0  0
  2 11  1  0  0  0  0
  2  7  1  0  0  0  0
  3  7  1  0  0  0  0
  3 14  1  6  0  0  0
  4 13  2  0  0  0  0
  4 24  1  0  0  0  0
  5 21  1  0  0  0  0
  6 28  1  0  0  0  0
  6 22  1  6  0  0  0
  7 28  1  1  0  0  0
  9 15  1  0  0  0  0
 10 17  1  0  0  0  0
 10 13  1  0  0  0  0
 11  8  1  1  0  0  0
 11  6  1  0  0  0  0
 12 23  1  0  0  0  0
 12 15  2  0  0  0  0
 13 18  1  0  0  0  0
 16 27  1  0  0  0  0
 17  3  1  0  0  0  0
 18 14  1  0  0  0  0
 18  9  2  0  0  0  0
 19 26  1  0  0  0  0
 20 16  2  0  0  0  0
 20 25  1  0  0  0  0
 21 19  2  0  0  0  0
 21 16  1  0  0  0  0
 24 12  1  0  0  0  0
 25 10  2  0  0  0  0
 26  1  2  0  0  0  0
 27  1  1  0  0  0  0
 27 17  2  0  0  0  0
M  END
>  <MODEL>
6

>  <REMARK>
 VINA RESULT:      -7.8      2.735      6.463
  Name = 
  0 active torsions:
  status: ('A' for Active; 'I' for Inactive)
                            x       y       z     vdW  Elec       q    Type
                         _______ _______ _______ _____ _____    ______ ____

>  <TORSDO>
F 0

$$$$
=
 OpenBabel10262420473D

 28 33  0  0  1  0  0  0  0  0999 V2000
  186.4980  178.6480  140.9460 C   0  0  0  0  0  0  0  0  0  0  0  0
  187.7160  178.6490  140.0780 C   0  0  1  0  0  3  0  0  0  0  0  0
  189.0000  178.5520  142.2790 C   0  0  1  0  0  3  0  0  0  0  0  0
  189.0580  177.4340  146.4560 C   0  0  0  0  0  3  0  0  0  0  0  0
  182.8670  178.3730  143.1840 C   0  0  0  0  0  1  0  0  0  0  0  0
  189.4640  177.0940  139.3950 C   0  0  2  0  0  3  0  0  0  0  0  0
  188.9890  179.0100  140.8330 C   0  0  1  0  0  3  0  0  0  0  0  0
  187.3770  177.2390  138.0560 C   0  0  0  0  0  1  0  0  0  0  0  0
  191.5090  177.2840  144.5340 C   0  0  0  0  0  3  0  0  0  0  0  0
  187.9020  177.9620  144.3610 C   0  0  0  0  0  0  0  0  0  0  0  0
  187.9590  177.2820  139.4570 C   0  0  2  0  0  3  0  0  0  0  0  0
  191.2270  176.1950  146.7970 C   0  0  0  0  0  0  0  0  0  0  0  0
  189.0790  177.7160  145.0030 C   0  0  0  0  0  0  0  0  0  0  0  0
  190.3110  178.6760  143.0020 C   0  0  0  0  0  2  0  0  0  0  0  0
  191.8810  176.4250  145.6630 C   0  0  0  0  0  3  0  0  0  0  0  0
  185.3980  178.3000  143.0800 C   0  0  0  0  0  0  0  0  0  0  0  0
  187.8550  178.3030  142.9720 C   0  0  0  0  0  0  0  0  0  0  0  0
  190.3390  177.8450  144.2370 C   0  0  0  0  0  0  0  0  0  0  0  0
  184.1160  178.7100  141.1010 N   0  0  0  0  0  0  0  0  0  0  0  0
  185.4630  178.0220  144.4450 C   0  0  0  0  0  3  0  0  0  0  0  0
  184.1560  178.4650  142.4360 C   0  0  0  0  0  0  0  0  0  0  0  0
  189.8480  175.8470  140.1670 C   0  0  0  0  0  1  0  0  0  0  0  0
  191.8820  175.2980  147.7850 C   0  0  0  0  0  1  0  0  0  0  0  0
  189.9590  176.8060  147.2030 C   0  0  0  0  0  2  0  0  0  0  0  0
  186.6920  177.8440  145.0660 C   0  0  0  0  0  3  0  0  0  0  0  0
  185.2440  178.7950  140.3520 C   0  0  0  0  0  3  0  0  0  0  0  0
  186.5920  178.4120  142.3300 C   0  0  0  0  0  0  0  0  0  0  0  0
  190.0900  178.3140  140.0490 C   0  0  0  0  0  2  0  0  0  0  0  0
  1 27  1  0  0  0  0
  2  7  1  0  0  0  0
  2  1  1  1  0  0  0
  3 17  1  0  0  0  0
  3 14  1  1  0  0  0
  4 24  1  0  0  0  0
  6 11  1  0  0  0  0
  6 28  1  0  0  0  0
  6 22  1  1  0  0  0
  7 28  1  6  0  0  0
  7  3  1  0  0  0  0
  9 15  1  0  0  0  0
 10 13  1  0  0  0  0
 10 25  1  0  0  0  0
 11  8  1  6  0  0  0
 11  2  1  0  0  0  0
 12 24  1  0  0  0  0
 12 23  1  0  0  0  0
 13  4  2  0  0  0  0
 14 18  1  0  0  0  0
 15 12  2  0  0  0  0
 16 20  1  0  0  0  0
 17 10  2  0  0  0  0
 18  9  2  0  0  0  0
 18 13  1  0  0  0  0
 19 21  2  0  0  0  0
 20 25  2  0  0  0  0
 21 16  1  0  0  0  0
 21  5  1  0  0  0  0
 26  1  2  0  0  0  0
 26 19  1  0  0  0  0
 27 17  1  0  0  0  0
 27 16  2  0  0  0  0
M  END
>  <MODEL>
7

>  <REMARK>
 VINA RESULT:      -7.8      1.805      5.769
  Name = 
  0 active torsions:
  status: ('A' for Active; 'I' for Inactive)
                            x       y       z     vdW  Elec       q    Type
                         _______ _______ _______ _____ _____    ______ ____

>  <TORSDO>
F 0

$$$$
=
 OpenBabel10262420473D

 28 33  0  0  1  0  0  0  0  0999 V2000
  184.2700  178.8340  143.1860 C   0  0  0  0  0  0  0  0  0  0  0  0
  183.5170  179.0670  141.9150 C   0  0  1  0  0  3  0  0  0  0  0  0
  185.7960  178.8350  140.7950 C   0  0  1  0  0  3  0  0  0  0  0  0
  189.8070  177.2250  140.9180 C   0  0  0  0  0  3  0  0  0  0  0  0
  186.1410  177.9140  146.9180 C   0  0  0  0  0  1  0  0  0  0  0  0
  182.8150  177.7960  139.9580 C   0  0  2  0  0  3  0  0  0  0  0  0
  184.4150  179.4620  140.7500 C   0  0  1  0  0  3  0  0  0  0  0  0
  181.3270  177.8880  141.9430 C   0  0  0  0  0  1  0  0  0  0  0  0
  188.1000  177.5660  138.3310 C   0  0  0  0  0  3  0  0  0  0  0  0
  187.6940  177.8830  141.9680 C   0  0  0  0  0  0  0  0  0  0  0  0
  182.7670  177.8190  141.4750 C   0  0  2  0  0  3  0  0  0  0  0  0
  190.1910  176.1840  138.6540 C   0  0  0  0  0  0  0  0  0  0  0  0
  188.4040  177.6840  140.8220 C   0  0  1  0  0  3  0  0  0  0  0  0
  186.6380  179.0030  139.5620 C   0  0  0  0  0  2  0  0  0  0  0  0
  189.1520  176.6180  137.9490 C   0  0  0  0  0  3  0  0  0  0  0  0
  186.2480  178.1150  144.3940 C   0  0  0  0  0  0  0  0  0  0  0  0
  186.3540  178.3860  141.9510 C   0  0  0  0  0  0  0  0  0  0  0  0
  187.7680  178.0350  139.5310 C   0  0  0  0  0  0  0  0  0  0  0  0
  184.2250  178.6300  145.5650 N   0  0  0  0  0  0  0  0  0  0  0  0
  187.5730  177.6800  144.3980 C   0  0  0  0  0  3  0  0  0  0  0  0
  185.5220  178.2290  145.5950 C   0  0  0  0  0  0  0  0  0  0  0  0
  183.4700  176.5110  139.4930 C   0  0  0  0  0  1  0  0  0  0  0  0
  191.1240  175.2460  137.9770 C   0  0  0  0  0  1  0  0  0  0  0  0
  190.5540  176.6070  140.0090 C   0  0  0  0  0  3  0  0  0  0  0  0
  188.2740  177.5560  143.2070 C   0  0  0  0  0  3  0  0  0  0  0  0
  183.5910  178.9220  144.4020 C   0  0  0  0  0  3  0  0  0  0  0  0
  185.6210  178.4410  143.1680 C   0  0  0  0  0  0  0  0  0  0  0  0
  183.6560  178.9850  139.5230 C   0  0  0  0  0  2  0  0  0  0  0  0
  1 26  1  0  0  0  0
  2  1  1  1  0  0  0
  3 14  1  1  0  0  0
  3 17  1  0  0  0  0
  6 22  1  1  0  0  0
  6 11  1  0  0  0  0
  7 28  1  6  0  0  0
  7  3  1  0  0  0  0
  7  2  1  0  0  0  0
  9 18  2  0  0  0  0
 10 25  1  0  0  0  0
 11  2  1  0  0  0  0
 11  8  1  6  0  0  0
 12 24  1  0  0  0  0
 13  4  1  1  0  0  0
 13 10  1  0  0  0  0
 15  9  1  0  0  0  0
 15 12  2  0  0  0  0
 16 20  1  0  0  0  0
 16 21  2  0  0  0  0
 17 10  2  0  0  0  0
 17 27  1  0  0  0  0
 18 14  1  0  0  0  0
 18 13  1  0  0  0  0
 19 21  1  0  0  0  0
 21  5  1  0  0  0  0
 23 12  1  0  0  0  0
 24  4  2  0  0  0  0
 25 20  2  0  0  0  0
 26 19  2  0  0  0  0
 27  1  2  0  0  0  0
 27 16  1  0  0  0  0
 28  6  1  0  0  0  0
M  END
>  <MODEL>
8

>  <REMARK>
 VINA RESULT:      -7.7      1.719      4.881
  Name = 
  0 active torsions:
  status: ('A' for Active; 'I' for Inactive)
                            x       y       z     vdW  Elec       q    Type
                         _______ _______ _______ _____ _____    ______ ____

>  <TORSDO>
F 0

$$$$
=
 OpenBabel10262420473D

 28 33  0  0  1  0  0  0  0  0999 V2000
  180.4800  178.1940  140.1450 C   0  0  0  0  0  0  0  0  0  0  0  0
  180.6460  177.9240  138.6830 C   0  0  1  0  0  3  0  0  0  0  0  0
  183.0730  178.6040  139.0720 C   0  0  1  0  0  3  0  0  0  0  0  0
  186.3950  178.9700  141.8160 C   0  0  0  0  0  3  0  0  0  0  0  0
  179.8070  178.6280  144.3430 C   0  0  0  0  0  1  0  0  0  0  0  0
  181.7080  176.2630  137.2510 C   0  0  2  0  0  3  0  0  0  0  0  0
  181.9100  178.5440  138.1000 C   0  0  1  0  0  3  0  0  0  0  0  0
  179.3660  175.9060  137.9930 C   0  0  0  0  0  1  0  0  0  0  0  0
  186.6470  178.2230  138.7980 C   0  0  0  0  0  3  0  0  0  0  0  0
  184.0100  178.7340  141.3050 C   0  0  0  0  0  0  0  0  0  0  0  0
  180.7290  176.4330  138.3980 C   0  0  2  0  0  3  0  0  0  0  0  0
  188.3740  177.9610  140.6230 C   0  0  0  0  0  0  0  0  0  0  0  0
  185.2950  178.7430  140.8520 C   0  0  0  0  0  0  0  0  0  0  0  0
  184.4030  178.9900  138.4880 C   0  0  0  0  0  2  0  0  0  0  0  0
  187.9250  177.8050  139.3820 C   0  0  0  0  0  3  0  0  0  0  0  0
  181.3870  178.5700  142.3630 C   0  0  0  0  0  0  0  0  0  0  0  0
  182.8960  178.5830  140.4210 C   0  0  0  0  0  0  0  0  0  0  0  0
  185.5270  178.6280  139.3940 C   0  0  0  0  0  0  0  0  0  0  0  0
  179.0350  178.2610  142.0450 N   0  0  0  0  0  0  0  0  0  0  0  0
  182.4790  178.7730  143.2060 C   0  0  0  0  0  3  0  0  0  0  0  0
  180.0800  178.4840  142.8820 C   0  0  0  0  0  0  0  0  0  0  0  0
  182.8440  175.3590  137.6860 C   0  0  0  0  0  1  0  0  0  0  0  0
  189.7450  177.4660  140.9130 C   0  0  0  0  0  1  0  0  0  0  0  0
  187.6800  178.6500  141.7140 C   0  0  0  0  0  2  0  0  0  0  0  0
  183.7640  178.8400  142.6860 C   0  0  0  0  0  3  0  0  0  0  0  0
  179.2060  178.1080  140.7080 C   0  0  0  0  0  3  0  0  0  0  0  0
  181.5920  178.4440  140.9690 C   0  0  0  0  0  0  0  0  0  0  0  0
  182.2500  177.6440  136.9220 C   0  0  0  0  0  2  0  0  0  0  0  0
  1 26  2  0  0  0  0
  1 27  1  0  0  0  0
  2  1  1  1  0  0  0
  3 14  1  1  0  0  0
  3 17  1  0  0  0  0
  6 22  1  1  0  0  0
  6 11  1  0  0  0  0
  7 28  1  6  0  0  0
  7  2  1  0  0  0  0
  7  3  1  0  0  0  0
  9 15  1  0  0  0  0
  9 18  2  0  0  0  0
 10 25  1  0  0  0  0
 11  8  1  6  0  0  0
 11  2  1  0  0  0  0
 12 23  1  0  0  0  0
 12 24  1  0  0  0  0
 13 10  1  0  0  0  0
 13  4  2  0  0  0  0
 14 18  1  0  0  0  0
 15 12  2  0  0  0  0
 16 21  1  0  0  0  0
 16 20  1  0  0  0  0
 17 27  1  0  0  0  0
 17 10  2  0  0  0  0
 18 13  1  0  0  0  0
 19 21  2  0  0  0  0
 21  5  1  0  0  0  0
 24  4  1  0  0  0  0
 25 20  2  0  0  0  0
 26 19  1  0  0  0  0
 27 16  2  0  0  0  0
 28  6  1  0  0  0  0
M  END
>  <MODEL>
9

>  <REMARK>
 VINA RESULT:      -7.6      3.927      7.122
  Name = 
  0 active torsions:
  status: ('A' for Active; 'I' for Inactive)
                            x       y       z     vdW  Elec       q    Type
                         _______ _______ _______ _____ _____    ______ ____

>  <TORSDO>
F 0

$$$$
