=
 OpenBabel10262421313D

 32 35  0  0  1  0  0  0  0  0999 V2000
  188.2700  178.1600  142.0800 C   0  0  1  0  0  3  0  0  0  0  0  0
  184.7430  178.1930  145.5880 C   0  0  0  0  0  3  0  0  0  0  0  0
  185.6960  177.9540  146.5770 C   0  0  0  0  0  3  0  0  0  0  0  0
  190.6410  177.5470  142.7670 C   0  0  1  0  0  3  0  0  0  0  0  0
  191.5400  176.8710  143.8160 C   0  0  1  0  0  3  0  0  0  0  0  0
  185.1440  178.3710  144.2630 C   0  0  0  0  0  3  0  0  0  0  0  0
  186.9140  178.5060  142.5430 N   0  0  0  0  0  0  0  0  0  0  0  0
  187.4620  178.0380  144.9050 C   0  0  0  0  0  0  0  0  0  0  0  0
  188.9250  178.0590  144.5410 C   0  0  1  0  0  3  0  0  0  0  0  0
  187.0490  177.8880  146.2400 C   0  0  0  0  0  3  0  0  0  0  0  0
  186.5030  178.3010  143.9100 C   0  0  0  0  0  0  0  0  0  0  0  0
  189.7920  177.3340  145.5770 C   0  0  0  0  0  2  0  0  0  0  0  0
  190.8850  177.0030  141.5040 O   0  0  0  0  0  1  0  0  0  0  0  0
  192.0560  176.8290  146.1740 O   0  0  0  0  0  1  0  0  0  0  0  0
  189.1500  177.4570  143.1420 C   0  0  1  0  0  3  0  0  0  0  0  0
  191.2660  177.4540  145.2090 C   0  0  1  0  0  3  0  0  0  0  0  0
  190.3800  174.7570  143.1610 O   0  0  0  0  0  0  0  0  0  0  0  0
  192.3680  174.6590  144.2920 O   0  0  0  0  0  1  0  0  0  0  0  0
  191.4620  175.3680  143.7780 C   0  0  0  0  0  0  0  0  0  0  0  0
  186.0500  179.2410  141.6240 C   0  0  0  0  0  2  0  0  0  0  0  0
  183.7160  178.8600  140.9980 C   0  0  0  0  0  3  0  0  0  0  0  0
  184.9430  178.3650  141.1410 C   0  0  0  0  0  3  0  0  0  0  0  0
  182.5950  177.9960  140.5100 C   0  0  0  0  0  2  0  0  0  0  0  0
  181.2920  178.3220  141.2260 C   0  0  0  0  0  2  0  0  0  0  0  0
  181.5720  178.9510  142.5790 C   0  0  0  0  0  2  0  0  0  0  0  0
  180.3360  179.5900  143.1050 C   0  0  0  0  0  0  0  0  0  0  0  0
  180.0000  180.7340  142.7050 O   0  0  0  0  0  0  0  0  0  0  0  0
  179.5710  178.9390  144.0640 O   0  0  0  0  0  1  0  0  0  0  0  0
  188.2350  177.4560  140.8520 O   0  0  0  0  0  0  0  0  0  0  0  0
  188.4720  178.3630  139.8040 C   0  0  0  0  0  3  0  0  0  0  0  0
  189.1800  177.6430  138.6760 C   0  0  0  0  0  2  0  0  0  0  0  0
  187.6980  177.9230  138.5790 C   0  0  0  0  0  2  0  0  0  0  0  0
  1 29  1  6  0  0  0
  1  7  1  0  0  0  0
  1 15  1  0  0  0  0
  2  3  1  0  0  0  0
  4 13  1  6  0  0  0
  4 15  1  0  0  0  0
  4  5  1  0  0  0  0
  5 19  1  1  0  0  0
  5 16  1  0  0  0  0
  6  2  2  0  0  0  0
  7 11  1  0  0  0  0
  8 10  1  0  0  0  0
  9  8  1  0  0  0  0
  9 12  1  1  0  0  0
 10  3  2  0  0  0  0
 11  6  1  0  0  0  0
 11  8  2  0  0  0  0
 15  9  1  0  0  0  0
 16 12  1  0  0  0  0
 16 14  1  0  0  0  0
 17 19  2  0  0  0  0
 19 18  1  0  0  0  0
 20  7  1  0  0  0  0
 21 22  2  0  0  0  0
 22 20  1  0  0  0  0
 23 21  1  0  0  0  0
 23 24  1  0  0  0  0
 24 25  1  0  0  0  0
 25 26  1  0  0  0  0
 26 28  1  0  0  0  0
 27 26  2  0  0  0  0
 30 29  1  0  0  0  0
 31 30  1  0  0  0  0
 32 31  1  0  0  0  0
 32 30  1  0  0  0  0
M  END
>  <MODEL>
1

>  <REMARK>
 VINA RESULT:      -8.3      0.000      0.000
  Name = 
  9 active torsions:
  status: ('A' for Active; 'I' for Inactive)
    1  A    between atoms: C_1  and  C_24
    2  A    between atoms: C_2  and  C_10
    3  A    between atoms: C_2  and  C_12
    4  A    between atoms: C_3  and  O_28
    5  A    between atoms: C_7  and  C_22
    6  A    between atoms: C_8  and  O_28
    7  A    between atoms: C_9  and  N_14
    8  A    between atoms: C_9  and  C_21
    9  A    between atoms: C_10  and  C_24
                            x       y       z     vdW  Elec       q    Type
                         _______ _______ _______ _____ _____    ______ ____

>  <TORSDO>
F 9

$$$$
=
 OpenBabel10262421313D

 32 35  0  0  1  0  0  0  0  0999 V2000
  188.1930  178.1470  142.0680 C   0  0  1  0  0  3  0  0  0  0  0  0
  184.7020  178.2030  145.6120 C   0  0  0  0  0  3  0  0  0  0  0  0
  185.6640  177.9650  146.5920 C   0  0  0  0  0  3  0  0  0  0  0  0
  190.5690  177.5300  142.7340 C   0  0  1  0  0  3  0  0  0  0  0  0
  191.4760  176.8540  143.7760 C   0  0  1  0  0  3  0  0  0  0  0  0
  185.0900  178.3760  144.2820 C   0  0  0  0  0  3  0  0  0  0  0  0
  186.8430  178.4990  142.5450 N   0  0  0  0  0  0  0  0  0  0  0  0
  187.4130  178.0380  144.9020 C   0  0  0  0  0  0  0  0  0  0  0  0
  188.8720  178.0530  144.5230 C   0  0  1  0  0  3  0  0  0  0  0  0
  187.0130  177.8930  146.2410 C   0  0  0  0  0  3  0  0  0  0  0  0
  186.4450  178.3000  143.9160 C   0  0  0  0  0  0  0  0  0  0  0  0
  189.7470  177.3290  145.5530 C   0  0  0  0  0  2  0  0  0  0  0  0
  190.7990  176.9800  141.4700 O   0  0  0  0  0  1  0  0  0  0  0  0
  192.0160  176.8190  146.1290 O   0  0  0  0  0  1  0  0  0  0  0  0
  189.0810  177.4460  143.1250 C   0  0  1  0  0  3  0  0  0  0  0  0
  191.2190  177.4420  145.1690 C   0  0  1  0  0  3  0  0  0  0  0  0
  192.4000  174.6000  144.3340 O   0  0  0  0  0  1  0  0  0  0  0  0
  190.4210  174.7680  143.1940 O   0  0  0  0  0  0  0  0  0  0  0  0
  191.3930  175.3510  143.7440 C   0  0  0  0  0  0  0  0  0  0  0  0
  185.9720  179.2340  141.6310 C   0  0  0  0  0  2  0  0  0  0  0  0
  183.8490  178.9010  140.4630 C   0  0  0  0  0  3  0  0  0  0  0  0
  184.7720  178.4170  141.2890 C   0  0  0  0  0  3  0  0  0  0  0  0
  182.6420  178.0910  140.1050 C   0  0  0  0  0  2  0  0  0  0  0  0
  181.3750  178.6970  140.6910 C   0  0  0  0  0  2  0  0  0  0  0  0
  180.1520  177.9280  140.2240 C   0  0  0  0  0  2  0  0  0  0  0  0
  179.5290  177.2210  141.3760 C   0  0  0  0  0  0  0  0  0  0  0  0
  179.4510  177.7900  142.4960 O   0  0  0  0  0  1  0  0  0  0  0  0
  179.0660  175.9210  141.2260 O   0  0  0  0  0  0  0  0  0  0  0  0
  188.1440  177.4400  140.8440 O   0  0  0  0  0  0  0  0  0  0  0  0
  188.3940  178.3380  139.7920 C   0  0  0  0  0  3  0  0  0  0  0  0
  189.0190  177.5870  138.6350 C   0  0  0  0  0  2  0  0  0  0  0  0
  187.5520  177.9520  138.5940 C   0  0  0  0  0  2  0  0  0  0  0  0
  1 29  1  6  0  0  0
  1  7  1  0  0  0  0
  1 15  1  0  0  0  0
  2  3  1  0  0  0  0
  4 13  1  6  0  0  0
  4 15  1  0  0  0  0
  4  5  1  0  0  0  0
  5 19  1  1  0  0  0
  5 16  1  0  0  0  0
  6  2  2  0  0  0  0
  7 11  1  0  0  0  0
  8 10  1  0  0  0  0
  9  8  1  0  0  0  0
  9 12  1  1  0  0  0
 10  3  2  0  0  0  0
 11  6  1  0  0  0  0
 11  8  2  0  0  0  0
 15  9  1  0  0  0  0
 16 12  1  0  0  0  0
 16 14  1  0  0  0  0
 18 19  2  0  0  0  0
 19 17  1  0  0  0  0
 20  7  1  0  0  0  0
 21 22  2  0  0  0  0
 22 20  1  0  0  0  0
 23 21  1  0  0  0  0
 23 24  1  0  0  0  0
 25 24  1  0  0  0  0
 25 26  1  0  0  0  0
 26 27  1  0  0  0  0
 28 26  2  0  0  0  0
 30 29  1  0  0  0  0
 31 30  1  0  0  0  0
 32 31  1  0  0  0  0
 32 30  1  0  0  0  0
M  END
>  <MODEL>
2

>  <REMARK>
 VINA RESULT:      -7.9      0.954      1.322
  Name = 
  9 active torsions:
  status: ('A' for Active; 'I' for Inactive)
    1  A    between atoms: C_1  and  C_24
    2  A    between atoms: C_2  and  C_10
    3  A    between atoms: C_2  and  C_12
    4  A    between atoms: C_3  and  O_28
    5  A    between atoms: C_7  and  C_22
    6  A    between atoms: C_8  and  O_28
    7  A    between atoms: C_9  and  N_14
    8  A    between atoms: C_9  and  C_21
    9  A    between atoms: C_10  and  C_24
                            x       y       z     vdW  Elec       q    Type
                         _______ _______ _______ _____ _____    ______ ____

>  <TORSDO>
F 9

$$$$
=
 OpenBabel10262421313D

 32 35  0  0  1  0  0  0  0  0999 V2000
  188.1800  178.1710  142.0140 C   0  0  1  0  0  3  0  0  0  0  0  0
  184.6690  178.2250  145.5390 C   0  0  0  0  0  3  0  0  0  0  0  0
  185.6260  177.9920  146.5250 C   0  0  0  0  0  3  0  0  0  0  0  0
  190.5540  177.5620  142.6950 C   0  0  1  0  0  3  0  0  0  0  0  0
  191.4580  176.8920  143.7430 C   0  0  1  0  0  3  0  0  0  0  0  0
  185.0640  178.3960  144.2110 C   0  0  0  0  0  3  0  0  0  0  0  0
  186.8260  178.5200  142.4820 N   0  0  0  0  0  0  0  0  0  0  0  0
  187.3850  178.0660  144.8440 C   0  0  0  0  0  0  0  0  0  0  0  0
  188.8460  178.0840  144.4730 C   0  0  1  0  0  3  0  0  0  0  0  0
  186.9780  177.9240  146.1810 C   0  0  0  0  0  3  0  0  0  0  0  0
  186.4210  178.3230  143.8520 C   0  0  0  0  0  0  0  0  0  0  0  0
  189.7180  177.3650  145.5090 C   0  0  0  0  0  2  0  0  0  0  0  0
  190.7920  177.0110  141.4330 O   0  0  0  0  0  1  0  0  0  0  0  0
  191.9850  176.8640  146.0990 O   0  0  0  0  0  1  0  0  0  0  0  0
  189.0650  177.4750  143.0770 C   0  0  1  0  0  3  0  0  0  0  0  0
  191.1910  177.4830  145.1330 C   0  0  1  0  0  3  0  0  0  0  0  0
  192.3920  174.6420  144.2990 O   0  0  0  0  0  1  0  0  0  0  0  0
  190.4060  174.8010  143.1710 O   0  0  0  0  0  0  0  0  0  0  0  0
  191.3790  175.3890  143.7130 C   0  0  0  0  0  0  0  0  0  0  0  0
  185.9580  179.2500  141.5620 C   0  0  0  0  0  2  0  0  0  0  0  0
  183.8980  178.8690  140.3000 C   0  0  0  0  0  3  0  0  0  0  0  0
  184.8000  178.4010  141.1580 C   0  0  0  0  0  3  0  0  0  0  0  0
  182.7330  178.0270  139.8800 C   0  0  0  0  0  2  0  0  0  0  0  0
  182.6550  177.9060  138.3650 C   0  0  0  0  0  2  0  0  0  0  0  0
  183.9910  177.4630  137.7970 C   0  0  0  0  0  2  0  0  0  0  0  0
  183.9070  176.0450  137.3550 C   0  0  0  0  0  0  0  0  0  0  0  0
  184.1940  175.7370  136.1700 O   0  0  0  0  0  0  0  0  0  0  0  0
  183.4770  175.0660  138.2400 O   0  0  0  0  0  1  0  0  0  0  0  0
  188.1400  177.4610  140.7910 O   0  0  0  0  0  0  0  0  0  0  0  0
  188.3970  178.3570  139.7390 C   0  0  0  0  0  3  0  0  0  0  0  0
  189.0770  177.6130  138.6090 C   0  0  0  0  0  2  0  0  0  0  0  0
  187.6030  177.9370  138.5200 C   0  0  0  0  0  2  0  0  0  0  0  0
  1 29  1  6  0  0  0
  1  7  1  0  0  0  0
  1 15  1  0  0  0  0
  2  3  1  0  0  0  0
  4 13  1  6  0  0  0
  4 15  1  0  0  0  0
  4  5  1  0  0  0  0
  5 19  1  1  0  0  0
  5 16  1  0  0  0  0
  6  2  2  0  0  0  0
  7 11  1  0  0  0  0
  8 10  1  0  0  0  0
  9  8  1  0  0  0  0
  9 12  1  1  0  0  0
 10  3  2  0  0  0  0
 11  6  1  0  0  0  0
 11  8  2  0  0  0  0
 15  9  1  0  0  0  0
 16 12  1  0  0  0  0
 16 14  1  0  0  0  0
 18 19  2  0  0  0  0
 19 17  1  0  0  0  0
 20  7  1  0  0  0  0
 21 22  2  0  0  0  0
 22 20  1  0  0  0  0
 23 21  1  0  0  0  0
 24 23  1  0  0  0  0
 25 24  1  0  0  0  0
 26 25  1  0  0  0  0
 26 28  1  0  0  0  0
 27 26  2  0  0  0  0
 30 29  1  0  0  0  0
 31 30  1  0  0  0  0
 32 31  1  0  0  0  0
 32 30  1  0  0  0  0
M  END
>  <MODEL>
3

>  <REMARK>
 VINA RESULT:      -7.6      2.247      2.854
  Name = 
  9 active torsions:
  status: ('A' for Active; 'I' for Inactive)
    1  A    between atoms: C_1  and  C_24
    2  A    between atoms: C_2  and  C_10
    3  A    between atoms: C_2  and  C_12
    4  A    between atoms: C_3  and  O_28
    5  A    between atoms: C_7  and  C_22
    6  A    between atoms: C_8  and  O_28
    7  A    between atoms: C_9  and  N_14
    8  A    between atoms: C_9  and  C_21
    9  A    between atoms: C_10  and  C_24
                            x       y       z     vdW  Elec       q    Type
                         _______ _______ _______ _____ _____    ______ ____

>  <TORSDO>
F 9

$$$$
=
 OpenBabel10262421313D

 32 35  0  0  1  0  0  0  0  0999 V2000
  188.7390  177.7900  139.1760 C   0  0  1  0  0  3  0  0  0  0  0  0
  190.1960  177.5450  143.9270 C   0  0  0  0  0  3  0  0  0  0  0  0
  191.4830  177.1810  143.5350 C   0  0  0  0  0  3  0  0  0  0  0  0
  190.3800  177.0500  137.3780 C   0  0  1  0  0  3  0  0  0  0  0  0
  191.6490  176.2460  137.0510 C   0  0  1  0  0  3  0  0  0  0  0  0
  189.2340  177.8510  142.9630 C   0  0  0  0  0  3  0  0  0  0  0  0
  188.5550  178.1200  140.6010 N   0  0  0  0  0  0  0  0  0  0  0  0
  190.8390  177.3950  141.1980 C   0  0  0  0  0  0  0  0  0  0  0  0
  191.1980  177.4170  139.7340 C   0  0  1  0  0  3  0  0  0  0  0  0
  191.8060  177.1160  142.1780 C   0  0  0  0  0  3  0  0  0  0  0  0
  189.5450  177.7840  141.5940 C   0  0  0  0  0  0  0  0  0  0  0  0
  192.4360  176.5660  139.4270 C   0  0  0  0  0  2  0  0  0  0  0  0
  189.3240  176.6340  136.5630 O   0  0  0  0  0  1  0  0  0  0  0  0
  193.9590  175.9450  137.6850 O   0  0  0  0  0  1  0  0  0  0  0  0
  190.0090  176.9590  138.8710 C   0  0  1  0  0  3  0  0  0  0  0  0
  192.8080  176.6870  137.9530 C   0  0  1  0  0  3  0  0  0  0  0  0
  192.0110  173.9710  136.0820 O   0  0  0  0  0  0  0  0  0  0  0  0
  190.7120  174.2170  137.9520 O   0  0  0  0  0  1  0  0  0  0  0  0
  191.4220  174.7570  137.0620 C   0  0  0  0  0  0  0  0  0  0  0  0
  187.4220  178.9680  140.9600 C   0  0  0  0  0  2  0  0  0  0  0  0
  185.5200  178.9160  142.4970 C   0  0  0  0  0  3  0  0  0  0  0  0
  186.5430  178.2710  141.9430 C   0  0  0  0  0  3  0  0  0  0  0  0
  184.6250  178.2290  143.4810 C   0  0  0  0  0  2  0  0  0  0  0  0
  184.8910  178.7080  144.9010 C   0  0  0  0  0  2  0  0  0  0  0  0
  186.0110  177.9000  145.5340 C   0  0  0  0  0  2  0  0  0  0  0  0
  186.3500  178.4660  146.8680 C   0  0  0  0  0  0  0  0  0  0  0  0
  187.2430  177.9260  147.5710 O   0  0  0  0  0  1  0  0  0  0  0  0
  185.6580  179.5670  147.3520 O   0  0  0  0  0  0  0  0  0  0  0  0
  187.5700  177.2200  138.6200 O   0  0  0  0  0  0  0  0  0  0  0  0
  186.8930  178.2060  137.8810 C   0  0  0  0  0  3  0  0  0  0  0  0
  186.0020  177.5350  136.8580 C   0  0  0  0  0  2  0  0  0  0  0  0
  185.4040  178.0840  138.1330 C   0  0  0  0  0  2  0  0  0  0  0  0
  1 29  1  1  0  0  0
  1  7  1  0  0  0  0
  3  2  1  0  0  0  0
  4 13  1  6  0  0  0
  4 15  1  0  0  0  0
  5 19  1  1  0  0  0
  5  4  1  0  0  0  0
  5 16  1  0  0  0  0
  6  2  2  0  0  0  0
  7 20  1  0  0  0  0
  7 11  1  0  0  0  0
  8 11  2  0  0  0  0
  8 10  1  0  0  0  0
  9 12  1  1  0  0  0
  9  8  1  0  0  0  0
 10  3  2  0  0  0  0
 11  6  1  0  0  0  0
 14 16  1  0  0  0  0
 15  1  1  0  0  0  0
 15  9  1  0  0  0  0
 16 12  1  0  0  0  0
 17 19  2  0  0  0  0
 19 18  1  0  0  0  0
 20 22  1  0  0  0  0
 21 23  1  0  0  0  0
 22 21  2  0  0  0  0
 23 24  1  0  0  0  0
 24 25  1  0  0  0  0
 25 26  1  0  0  0  0
 26 28  2  0  0  0  0
 26 27  1  0  0  0  0
 30 32  1  0  0  0  0
 30 29  1  0  0  0  0
 31 30  1  0  0  0  0
 31 32  1  0  0  0  0
M  END
>  <MODEL>
4

>  <REMARK>
 VINA RESULT:      -7.5      3.198      5.463
  Name = 
  9 active torsions:
  status: ('A' for Active; 'I' for Inactive)
    1  A    between atoms: C_1  and  C_24
    2  A    between atoms: C_2  and  C_10
    3  A    between atoms: C_2  and  C_12
    4  A    between atoms: C_3  and  O_28
    5  A    between atoms: C_7  and  C_22
    6  A    between atoms: C_8  and  O_28
    7  A    between atoms: C_9  and  N_14
    8  A    between atoms: C_9  and  C_21
    9  A    between atoms: C_10  and  C_24
                            x       y       z     vdW  Elec       q    Type
                         _______ _______ _______ _____ _____    ______ ____

>  <TORSDO>
F 9

$$$$
=
 OpenBabel10262421313D

 32 35  0  0  1  0  0  0  0  0999 V2000
  185.7270  178.1560  139.5880 C   0  0  1  0  0  3  0  0  0  0  0  0
  184.4320  179.7950  144.1030 C   0  0  0  0  0  3  0  0  0  0  0  0
  183.1320  179.3250  143.9230 C   0  0  0  0  0  3  0  0  0  0  0  0
  183.9080  177.1950  138.0920 C   0  0  1  0  0  3  0  0  0  0  0  0
  182.4010  177.1030  137.8010 C   0  0  1  0  0  3  0  0  0  0  0  0
  185.3980  179.5630  143.1220 C   0  0  0  0  0  3  0  0  0  0  0  0
  186.0780  178.6140  140.9440 N   0  0  0  0  0  0  0  0  0  0  0  0
  183.7550  178.4130  141.7540 C   0  0  0  0  0  0  0  0  0  0  0  0
  183.4310  177.5860  140.5350 C   0  0  1  0  0  3  0  0  0  0  0  0
  182.7970  178.6280  142.7600 C   0  0  0  0  0  3  0  0  0  0  0  0
  185.0720  178.8690  141.9440 C   0  0  0  0  0  0  0  0  0  0  0  0
  181.9270  177.5530  140.2390 C   0  0  0  0  0  2  0  0  0  0  0  0
  184.5900  177.6310  136.9530 O   0  0  0  0  0  1  0  0  0  0  0  0
  180.2710  176.5780  138.8090 O   0  0  0  0  0  1  0  0  0  0  0  0
  184.2060  178.0940  139.3070 C   0  0  1  0  0  3  0  0  0  0  0  0
  181.6430  176.6390  139.0520 C   0  0  1  0  0  3  0  0  0  0  0  0
  181.7590  179.5110  137.9770 O   0  0  0  0  0  1  0  0  0  0  0  0
  181.4440  178.3930  136.0050 O   0  0  0  0  0  0  0  0  0  0  0  0
  181.8380  178.3640  137.2010 C   0  0  0  0  0  0  0  0  0  0  0  0
  187.4920  178.6250  141.3110 C   0  0  0  0  0  2  0  0  0  0  0  0
  188.6240  177.8780  143.3470 C   0  0  0  0  0  3  0  0  0  0  0  0
  187.7600  177.6100  142.3710 C   0  0  0  0  0  3  0  0  0  0  0  0
  188.8990  176.8730  144.4210 C   0  0  0  0  0  2  0  0  0  0  0  0
  188.4840  177.3960  145.7890 C   0  0  0  0  0  2  0  0  0  0  0  0
  186.9750  177.5460  145.8640 C   0  0  0  0  0  2  0  0  0  0  0  0
  186.6000  178.2550  147.1180 C   0  0  0  0  0  0  0  0  0  0  0  0
  185.4440  178.7340  147.2480 O   0  0  0  0  0  0  0  0  0  0  0  0
  187.5360  178.4200  148.1300 O   0  0  0  0  0  1  0  0  0  0  0  0
  186.4330  178.8770  138.5960 O   0  0  0  0  0  0  0  0  0  0  0  0
  187.3850  178.0260  138.0080 C   0  0  0  0  0  3  0  0  0  0  0  0
  187.8850  178.6530  136.7240 C   0  0  0  0  0  2  0  0  0  0  0  0
  188.7280  178.7240  137.9770 C   0  0  0  0  0  2  0  0  0  0  0  0
  1 29  1  6  0  0  0
  1  7  1  0  0  0  0
  3  2  1  0  0  0  0
  4 13  1  6  0  0  0
  4 15  1  0  0  0  0
  5 19  1  1  0  0  0
  5  4  1  0  0  0  0
  5 16  1  0  0  0  0
  6  2  2  0  0  0  0
  7 20  1  0  0  0  0
  7 11  1  0  0  0  0
  8 11  2  0  0  0  0
  8 10  1  0  0  0  0
  9 12  1  6  0  0  0
  9  8  1  0  0  0  0
 10  3  2  0  0  0  0
 11  6  1  0  0  0  0
 14 16  1  0  0  0  0
 15  1  1  0  0  0  0
 15  9  1  0  0  0  0
 16 12  1  0  0  0  0
 18 19  2  0  0  0  0
 19 17  1  0  0  0  0
 20 22  1  0  0  0  0
 21 23  1  0  0  0  0
 22 21  2  0  0  0  0
 23 24  1  0  0  0  0
 24 25  1  0  0  0  0
 25 26  1  0  0  0  0
 26 27  2  0  0  0  0
 26 28  1  0  0  0  0
 30 29  1  0  0  0  0
 31 32  1  0  0  0  0
 31 30  1  0  0  0  0
 32 30  1  0  0  0  0
M  END
>  <MODEL>
5

>  <REMARK>
 VINA RESULT:      -7.4      3.046      7.393
  Name = 
  9 active torsions:
  status: ('A' for Active; 'I' for Inactive)
    1  A    between atoms: C_1  and  C_24
    2  A    between atoms: C_2  and  C_10
    3  A    between atoms: C_2  and  C_12
    4  A    between atoms: C_3  and  O_28
    5  A    between atoms: C_7  and  C_22
    6  A    between atoms: C_8  and  O_28
    7  A    between atoms: C_9  and  N_14
    8  A    between atoms: C_9  and  C_21
    9  A    between atoms: C_10  and  C_24
                            x       y       z     vdW  Elec       q    Type
                         _______ _______ _______ _____ _____    ______ ____

>  <TORSDO>
F 9

$$$$
=
 OpenBabel10262421313D

 32 35  0  0  1  0  0  0  0  0999 V2000
  186.2110  178.0360  140.9210 C   0  0  1  0  0  3  0  0  0  0  0  0
  185.1560  178.7880  145.7240 C   0  0  0  0  0  3  0  0  0  0  0  0
  183.8080  178.9720  145.4200 C   0  0  0  0  0  3  0  0  0  0  0  0
  184.3500  178.3650  139.2180 C   0  0  1  0  0  3  0  0  0  0  0  0
  182.9790  178.9930  138.9190 C   0  0  1  0  0  3  0  0  0  0  0  0
  186.0570  178.4470  144.7150 C   0  0  0  0  0  3  0  0  0  0  0  0
  186.5530  177.9230  142.3510 N   0  0  0  0  0  0  0  0  0  0  0  0
  184.2650  178.5030  143.0770 C   0  0  0  0  0  0  0  0  0  0  0  0
  183.7840  178.2480  141.6710 C   0  0  1  0  0  3  0  0  0  0  0  0
  183.3620  178.8200  144.1060 C   0  0  0  0  0  3  0  0  0  0  0  0
  185.6220  178.2960  143.3860 C   0  0  0  0  0  0  0  0  0  0  0  0
  182.4400  178.9270  141.3840 C   0  0  0  0  0  2  0  0  0  0  0  0
  185.2800  178.7630  138.2540 O   0  0  0  0  0  1  0  0  0  0  0  0
  180.7140  179.1570  139.7390 O   0  0  0  0  0  1  0  0  0  0  0  0
  184.8370  178.6940  140.6420 C   0  0  1  0  0  3  0  0  0  0  0  0
  181.9570  178.5720  139.9830 C   0  0  1  0  0  3  0  0  0  0  0  0
  181.8700  181.1990  138.5360 O   0  0  0  0  0  0  0  0  0  0  0  0
  184.1490  181.0900  138.7220 O   0  0  0  0  0  1  0  0  0  0  0  0
  183.0440  180.4840  138.7190 C   0  0  0  0  0  0  0  0  0  0  0  0
  187.7970  177.2430  142.6980 C   0  0  0  0  0  2  0  0  0  0  0  0
  190.1230  177.8880  143.0970 C   0  0  0  0  0  3  0  0  0  0  0  0
  188.8390  178.2360  143.0900 C   0  0  0  0  0  3  0  0  0  0  0  0
  191.1810  178.8740  143.4830 C   0  0  0  0  0  2  0  0  0  0  0  0
  191.9400  178.4170  144.7200 C   0  0  0  0  0  2  0  0  0  0  0  0
  191.6790  176.9460  144.9910 C   0  0  0  0  0  2  0  0  0  0  0  0
  191.3190  176.7530  146.4220 C   0  0  0  0  0  0  0  0  0  0  0  0
  192.1390  176.2140  147.2090 O   0  0  0  0  0  1  0  0  0  0  0  0
  190.0650  177.1330  146.8810 O   0  0  0  0  0  0  0  0  0  0  0  0
  187.2590  178.6330  140.1820 O   0  0  0  0  0  0  0  0  0  0  0  0
  188.0370  177.6180  139.5980 C   0  0  0  0  0  3  0  0  0  0  0  0
  188.5090  178.0760  138.2350 C   0  0  0  0  0  2  0  0  0  0  0  0
  189.4550  178.1190  139.4140 C   0  0  0  0  0  2  0  0  0  0  0  0
  1 29  1  6  0  0  0
  1  7  1  0  0  0  0
  3  2  1  0  0  0  0
  4 13  1  6  0  0  0
  4 15  1  0  0  0  0
  5 19  1  1  0  0  0
  5  4  1  0  0  0  0
  5 16  1  0  0  0  0
  6  2  2  0  0  0  0
  7 20  1  0  0  0  0
  7 11  1  0  0  0  0
  8 11  2  0  0  0  0
  8 10  1  0  0  0  0
  9 12  1  6  0  0  0
  9  8  1  0  0  0  0
 10  3  2  0  0  0  0
 11  6  1  0  0  0  0
 14 16  1  0  0  0  0
 15  1  1  0  0  0  0
 15  9  1  0  0  0  0
 16 12  1  0  0  0  0
 17 19  2  0  0  0  0
 19 18  1  0  0  0  0
 20 22  1  0  0  0  0
 21 23  1  0  0  0  0
 22 21  2  0  0  0  0
 23 24  1  0  0  0  0
 24 25  1  0  0  0  0
 25 26  1  0  0  0  0
 26 28  2  0  0  0  0
 26 27  1  0  0  0  0
 30 29  1  0  0  0  0
 31 32  1  0  0  0  0
 31 30  1  0  0  0  0
 32 30  1  0  0  0  0
M  END
>  <MODEL>
6

>  <REMARK>
 VINA RESULT:      -7.3      2.056      7.752
  Name = 
  9 active torsions:
  status: ('A' for Active; 'I' for Inactive)
    1  A    between atoms: C_1  and  C_24
    2  A    between atoms: C_2  and  C_10
    3  A    between atoms: C_2  and  C_12
    4  A    between atoms: C_3  and  O_28
    5  A    between atoms: C_7  and  C_22
    6  A    between atoms: C_8  and  O_28
    7  A    between atoms: C_9  and  N_14
    8  A    between atoms: C_9  and  C_21
    9  A    between atoms: C_10  and  C_24
                            x       y       z     vdW  Elec       q    Type
                         _______ _______ _______ _____ _____    ______ ____

>  <TORSDO>
F 9

$$$$
=
 OpenBabel10262421313D

 32 35  0  0  1  0  0  0  0  0999 V2000
  186.0380  178.6170  139.8000 C   0  0  1  0  0  3  0  0  0  0  0  0
  189.1150  177.3930  143.5120 C   0  0  0  0  0  3  0  0  0  0  0  0
  190.1260  177.0890  142.6010 C   0  0  0  0  0  3  0  0  0  0  0  0
  186.8210  178.2210  137.4120 C   0  0  1  0  0  3  0  0  0  0  0  0
  187.7970  177.4750  136.4880 C   0  0  1  0  0  3  0  0  0  0  0  0
  187.8990  177.9050  143.0580 C   0  0  0  0  0  3  0  0  0  0  0  0
  186.4250  178.6570  141.2220 N   0  0  0  0  0  0  0  0  0  0  0  0
  188.6880  177.7820  140.7640 C   0  0  0  0  0  0  0  0  0  0  0  0
  188.4820  178.0900  139.3030 C   0  0  1  0  0  3  0  0  0  0  0  0
  189.9180  177.2920  141.2360 C   0  0  0  0  0  3  0  0  0  0  0  0
  187.6750  178.1090  141.6850 C   0  0  0  0  0  0  0  0  0  0  0  0
  189.4330  177.2940  138.4010 C   0  0  0  0  0  2  0  0  0  0  0  0
  185.5040  178.0000  136.9990 O   0  0  0  0  0  1  0  0  0  0  0  0
  190.1380  177.0060  136.1300 O   0  0  0  0  0  1  0  0  0  0  0  0
  187.0210  177.8390  138.8910 C   0  0  1  0  0  3  0  0  0  0  0  0
  189.2440  177.7020  136.9440 C   0  0  1  0  0  3  0  0  0  0  0  0
  187.0860  175.5460  135.0660 O   0  0  0  0  0  0  0  0  0  0  0  0
  187.4950  175.2250  137.2960 O   0  0  0  0  0  1  0  0  0  0  0  0
  187.4510  176.0190  136.3180 C   0  0  0  0  0  0  0  0  0  0  0  0
  185.5900  179.4390  142.1300 C   0  0  0  0  0  2  0  0  0  0  0  0
  184.9750  179.3090  144.4940 C   0  0  0  0  0  3  0  0  0  0  0  0
  185.3250  178.6700  143.3800 C   0  0  0  0  0  3  0  0  0  0  0  0
  184.7000  178.5520  145.7550 C   0  0  0  0  0  2  0  0  0  0  0  0
  185.8410  178.7020  146.7510 C   0  0  0  0  0  2  0  0  0  0  0  0
  186.8510  177.5810  146.5760 C   0  0  0  0  0  2  0  0  0  0  0  0
  188.0230  177.8150  147.4610 C   0  0  0  0  0  0  0  0  0  0  0  0
  189.1760  177.9090  146.9660 O   0  0  0  0  0  0  0  0  0  0  0  0
  187.8520  177.8920  148.8360 O   0  0  0  0  0  1  0  0  0  0  0  0
  184.6980  178.1940  139.6380 O   0  0  0  0  0  0  0  0  0  0  0  0
  183.8780  179.3280  139.5040 C   0  0  0  0  0  3  0  0  0  0  0  0
  182.7030  178.9890  138.6110 C   0  0  0  0  0  2  0  0  0  0  0  0
  182.5210  179.0380  140.1120 C   0  0  0  0  0  2  0  0  0  0  0  0
  1 29  1  1  0  0  0
  1  7  1  0  0  0  0
  3  2  2  0  0  0  0
  4 13  1  6  0  0  0
  4 15  1  0  0  0  0
  5 19  1  1  0  0  0
  5 16  1  0  0  0  0
  5  4  1  0  0  0  0
  6  2  1  0  0  0  0
  7 11  1  0  0  0  0
  7 20  1  0  0  0  0
  8 10  2  0  0  0  0
  8 11  1  0  0  0  0
  9 12  1  6  0  0  0
  9  8  1  0  0  0  0
 10  3  1  0  0  0  0
 11  6  2  0  0  0  0
 14 16  1  0  0  0  0
 15  9  1  0  0  0  0
 15  1  1  0  0  0  0
 16 12  1  0  0  0  0
 17 19  2  0  0  0  0
 19 18  1  0  0  0  0
 20 22  1  0  0  0  0
 21 23  1  0  0  0  0
 22 21  2  0  0  0  0
 23 24  1  0  0  0  0
 25 24  1  0  0  0  0
 25 26  1  0  0  0  0
 26 28  1  0  0  0  0
 27 26  2  0  0  0  0
 30 29  1  0  0  0  0
 30 32  1  0  0  0  0
 31 30  1  0  0  0  0
 31 32  1  0  0  0  0
M  END
>  <MODEL>
7

>  <REMARK>
 VINA RESULT:      -7.2      2.839      6.490
  Name = 
  9 active torsions:
  status: ('A' for Active; 'I' for Inactive)
    1  A    between atoms: C_1  and  C_24
    2  A    between atoms: C_2  and  C_10
    3  A    between atoms: C_2  and  C_12
    4  A    between atoms: C_3  and  O_28
    5  A    between atoms: C_7  and  C_22
    6  A    between atoms: C_8  and  O_28
    7  A    between atoms: C_9  and  N_14
    8  A    between atoms: C_9  and  C_21
    9  A    between atoms: C_10  and  C_24
                            x       y       z     vdW  Elec       q    Type
                         _______ _______ _______ _____ _____    ______ ____

>  <TORSDO>
F 9

$$$$
=
 OpenBabel10262421313D

 32 35  0  0  1  0  0  0  0  0999 V2000
  185.5600  178.1290  139.8460 C   0  0  1  0  0  3  0  0  0  0  0  0
  184.0160  179.7560  144.2870 C   0  0  0  0  0  3  0  0  0  0  0  0
  182.7070  179.3730  143.9950 C   0  0  0  0  0  3  0  0  0  0  0  0
  183.8080  177.3160  138.1900 C   0  0  1  0  0  3  0  0  0  0  0  0
  182.3260  177.3250  137.7810 C   0  0  1  0  0  3  0  0  0  0  0  0
  185.0400  179.4840  143.3790 C   0  0  0  0  0  3  0  0  0  0  0  0
  185.8300  178.5370  141.2360 N   0  0  0  0  0  0  0  0  0  0  0  0
  183.4420  178.4680  141.8590 C   0  0  0  0  0  0  0  0  0  0  0  0
  183.1650  177.6870  140.5990 C   0  0  1  0  0  3  0  0  0  0  0  0
  182.4230  178.7220  142.7920 C   0  0  0  0  0  3  0  0  0  0  0  0
  184.7660  178.8350  142.1620 C   0  0  0  0  0  0  0  0  0  0  0  0
  181.6900  177.7550  140.1860 C   0  0  0  0  0  2  0  0  0  0  0  0
  184.6040  177.7310  137.1190 O   0  0  0  0  0  1  0  0  0  0  0  0
  180.0950  176.9150  138.6080 O   0  0  0  0  0  1  0  0  0  0  0  0
  184.0640  178.1690  139.4470 C   0  0  1  0  0  3  0  0  0  0  0  0
  181.4450  176.8850  138.9580 C   0  0  1  0  0  3  0  0  0  0  0  0
  181.9290  179.7870  137.9370 O   0  0  0  0  0  1  0  0  0  0  0  0
  181.4980  178.6880  135.9760 O   0  0  0  0  0  0  0  0  0  0  0  0
  181.8900  178.6310  137.1710 C   0  0  0  0  0  0  0  0  0  0  0  0
  187.2080  178.4520  141.7120 C   0  0  0  0  0  2  0  0  0  0  0  0
  187.9170  177.8870  143.9840 C   0  0  0  0  0  3  0  0  0  0  0  0
  187.3010  177.5120  142.8670 C   0  0  0  0  0  3  0  0  0  0  0  0
  188.0140  176.9570  145.1530 C   0  0  0  0  0  2  0  0  0  0  0  0
  189.1150  177.3850  146.1120 C   0  0  0  0  0  2  0  0  0  0  0  0
  190.3480  177.8250  145.3430 C   0  0  0  0  0  2  0  0  0  0  0  0
  191.3890  176.7640  145.4070 C   0  0  0  0  0  0  0  0  0  0  0  0
  191.6460  176.0730  144.3870 O   0  0  0  0  0  0  0  0  0  0  0  0
  192.0520  176.5120  146.6000 O   0  0  0  0  0  1  0  0  0  0  0  0
  186.3850  178.8250  138.9310 O   0  0  0  0  0  0  0  0  0  0  0  0
  187.3850  177.9520  138.4690 C   0  0  0  0  0  3  0  0  0  0  0  0
  187.9130  178.4580  137.1440 C   0  0  0  0  0  2  0  0  0  0  0  0
  188.7050  178.6920  138.4100 C   0  0  0  0  0  2  0  0  0  0  0  0
  1 29  1  6  0  0  0
  1  7  1  0  0  0  0
  3  2  1  0  0  0  0
  4 13  1  6  0  0  0
  4 15  1  0  0  0  0
  5 19  1  1  0  0  0
  5  4  1  0  0  0  0
  5 16  1  0  0  0  0
  6  2  2  0  0  0  0
  7 20  1  0  0  0  0
  7 11  1  0  0  0  0
  8 11  2  0  0  0  0
  8 10  1  0  0  0  0
  9 12  1  6  0  0  0
  9  8  1  0  0  0  0
 10  3  2  0  0  0  0
 11  6  1  0  0  0  0
 14 16  1  0  0  0  0
 15  1  1  0  0  0  0
 15  9  1  0  0  0  0
 16 12  1  0  0  0  0
 18 19  2  0  0  0  0
 19 17  1  0  0  0  0
 20 22  1  0  0  0  0
 21 23  1  0  0  0  0
 22 21  2  0  0  0  0
 23 24  1  0  0  0  0
 25 26  1  0  0  0  0
 25 24  1  0  0  0  0
 26 28  1  0  0  0  0
 27 26  2  0  0  0  0
 30 29  1  0  0  0  0
 31 32  1  0  0  0  0
 31 30  1  0  0  0  0
 32 30  1  0  0  0  0
M  END
>  <MODEL>
8

>  <REMARK>
 VINA RESULT:      -7.0      2.590      8.086
  Name = 
  9 active torsions:
  status: ('A' for Active; 'I' for Inactive)
    1  A    between atoms: C_1  and  C_24
    2  A    between atoms: C_2  and  C_10
    3  A    between atoms: C_2  and  C_12
    4  A    between atoms: C_3  and  O_28
    5  A    between atoms: C_7  and  C_22
    6  A    between atoms: C_8  and  O_28
    7  A    between atoms: C_9  and  N_14
    8  A    between atoms: C_9  and  C_21
    9  A    between atoms: C_10  and  C_24
                            x       y       z     vdW  Elec       q    Type
                         _______ _______ _______ _____ _____    ______ ____

>  <TORSDO>
F 9

$$$$
=
 OpenBabel10262421313D

 32 35  0  0  1  0  0  0  0  0999 V2000
  184.9930  178.7300  141.2390 C   0  0  1  0  0  3  0  0  0  0  0  0
  188.1700  177.3820  137.6550 C   0  0  0  0  0  3  0  0  0  0  0  0
  187.1510  177.4310  136.7050 C   0  0  0  0  0  3  0  0  0  0  0  0
  182.5270  178.9260  140.6450 C   0  0  1  0  0  3  0  0  0  0  0  0
  181.4090  178.5430  139.6620 C   0  0  1  0  0  3  0  0  0  0  0  0
  187.9100  177.7540  138.9750 C   0  0  0  0  0  3  0  0  0  0  0  0
  186.3650  178.5700  140.7230 N   0  0  0  0  0  0  0  0  0  0  0  0
  185.5910  178.1960  138.4090 C   0  0  0  0  0  0  0  0  0  0  0  0
  184.2380  178.7320  138.8040 C   0  0  1  0  0  3  0  0  0  0  0  0
  185.8710  177.8460  137.0770 C   0  0  0  0  0  3  0  0  0  0  0  0
  186.6240  178.1680  139.3630 C   0  0  0  0  0  0  0  0  0  0  0  0
  183.1330  178.2930  137.8360 C   0  0  0  0  0  2  0  0  0  0  0  0
  182.1680  178.5620  141.9460 O   0  0  0  0  0  1  0  0  0  0  0  0
  180.8080  178.5580  137.3240 O   0  0  0  0  0  1  0  0  0  0  0  0
  183.8830  178.3150  140.2420 C   0  0  1  0  0  3  0  0  0  0  0  0
  181.8030  178.9250  138.2300 C   0  0  1  0  0  3  0  0  0  0  0  0
  181.8910  176.0930  139.5470 O   0  0  0  0  0  0  0  0  0  0  0  0
  179.7970  176.8130  140.1280 O   0  0  0  0  0  1  0  0  0  0  0  0
  180.9750  177.1060  139.7930 C   0  0  0  0  0  0  0  0  0  0  0  0
  187.4650  179.0140  141.5750 C   0  0  0  0  0  2  0  0  0  0  0  0
  189.2760  177.9850  142.8570 C   0  0  0  0  0  3  0  0  0  0  0  0
  188.0990  177.8460  142.2530 C   0  0  0  0  0  3  0  0  0  0  0  0
  189.9230  176.8240  143.5460 C   0  0  0  0  0  2  0  0  0  0  0  0
  190.2830  177.1650  144.9850 C   0  0  0  0  0  2  0  0  0  0  0  0
  189.0290  177.4310  145.7980 C   0  0  0  0  0  2  0  0  0  0  0  0
  189.2640  177.0730  147.2230 C   0  0  0  0  0  0  0  0  0  0  0  0
  190.4260  176.7940  147.6180 O   0  0  0  0  0  0  0  0  0  0  0  0
  188.1980  177.0100  148.1090 O   0  0  0  0  0  1  0  0  0  0  0  0
  184.8410  178.1200  142.5060 O   0  0  0  0  0  0  0  0  0  0  0  0
  184.9190  179.1130  143.4980 C   0  0  0  0  0  3  0  0  0  0  0  0
  183.9940  178.7490  144.6400 C   0  0  0  0  0  2  0  0  0  0  0  0
  185.4810  178.5080  144.7680 C   0  0  0  0  0  2  0  0  0  0  0  0
  1 29  1  1  0  0  0
  2  6  1  0  0  0  0
  3 10  1  0  0  0  0
  3  2  2  0  0  0  0
  4 13  1  1  0  0  0
  5 19  1  6  0  0  0
  5  4  1  0  0  0  0
  6 11  2  0  0  0  0
  7  1  1  0  0  0  0
  7 20  1  0  0  0  0
  8  9  1  0  0  0  0
  8 11  1  0  0  0  0
  9 12  1  6  0  0  0
  9 15  1  0  0  0  0
 10  8  2  0  0  0  0
 11  7  1  0  0  0  0
 12 16  1  0  0  0  0
 14 16  1  0  0  0  0
 15  4  1  0  0  0  0
 15  1  1  0  0  0  0
 16  5  1  0  0  0  0
 17 19  2  0  0  0  0
 19 18  1  0  0  0  0
 20 22  1  0  0  0  0
 21 23  1  0  0  0  0
 22 21  2  0  0  0  0
 23 24  1  0  0  0  0
 24 25  1  0  0  0  0
 25 26  1  0  0  0  0
 26 27  2  0  0  0  0
 26 28  1  0  0  0  0
 29 30  1  0  0  0  0
 30 31  1  0  0  0  0
 30 32  1  0  0  0  0
 31 32  1  0  0  0  0
M  END
>  <MODEL>
9

>  <REMARK>
 VINA RESULT:      -7.0      2.473      8.598
  Name = 
  9 active torsions:
  status: ('A' for Active; 'I' for Inactive)
    1  A    between atoms: C_1  and  C_24
    2  A    between atoms: C_2  and  C_10
    3  A    between atoms: C_2  and  C_12
    4  A    between atoms: C_3  and  O_28
    5  A    between atoms: C_7  and  C_22
    6  A    between atoms: C_8  and  O_28
    7  A    between atoms: C_9  and  N_14
    8  A    between atoms: C_9  and  C_21
    9  A    between atoms: C_10  and  C_24
                            x       y       z     vdW  Elec       q    Type
                         _______ _______ _______ _____ _____    ______ ____

>  <TORSDO>
F 9

$$$$
