=
 OpenBabel10262422503D

 37 42  0  0  1  0  0  0  0  0999 V2000
  188.1840  177.0220  143.6890 C   0  0  1  0  0  0  0  0  0  0  0  0
  185.1610  178.8570  144.4120 C   0  0  0  0  0  0  0  0  0  0  0  0
  185.9740  179.1660  140.6680 C   0  0  2  0  0  3  0  0  0  0  0  0
  189.3520  177.2190  144.7070 C   0  0  0  0  0  0  0  0  0  0  0  0
  183.7350  178.2530  142.2850 C   0  0  0  0  0  3  0  0  0  0  0  0
  187.2140  178.4800  140.2670 N   0  0  0  0  0  0  0  0  0  0  0  0
  191.2590  176.8560  143.1220 C   0  0  0  0  0  0  0  0  0  0  0  0
  189.3930  178.4180  145.6290 C   0  0  0  0  0  2  0  0  0  0  0  0
  185.8960  179.3780  142.1440 C   0  0  0  0  0  3  0  0  0  0  0  0
  187.3050  178.2530  138.8460 C   0  0  0  0  0  0  0  0  0  0  0  0
  182.4860  177.4620  140.4120 N   0  0  0  0  0  1  0  0  0  0  0  0
  190.6390  176.7070  144.3710 O   0  0  0  0  0  0  0  0  0  0  0  0
  186.8870  177.1300  144.2780 O   0  0  0  0  0  0  0  0  0  0  0  0
  184.2090  177.9080  145.1290 C   0  0  0  0  0  1  0  0  0  0  0  0
  184.9200  177.8770  138.9150 N   0  0  0  0  0  0  0  0  0  0  0  0
  189.0290  177.0400  146.1750 C   0  0  0  0  0  2  0  0  0  0  0  0
  183.6490  178.0720  140.9630 C   0  0  0  0  0  0  0  0  0  0  0  0
  186.6110  178.4420  144.7280 C   0  0  0  0  0  2  0  0  0  0  0  0
  190.7340  177.6600  142.1000 O   0  0  0  0  0  0  0  0  0  0  0  0
  187.8040  177.4370  141.1220 C   0  0  0  0  0  2  0  0  0  0  0  0
  184.8080  178.3870  140.1090 C   0  0  0  0  0  0  0  0  0  0  0  0
  188.3410  177.9800  142.4590 C   0  0  2  0  0  3  0  0  0  0  0  0
  184.9350  178.8620  142.9150 C   0  0  0  0  0  0  0  0  0  0  0  0
  184.9310  180.2530  144.9590 C   0  0  0  0  0  1  0  0  0  0  0  0
  189.7150  178.6290  142.2980 C   0  0  0  0  0  2  0  0  0  0  0  0
  192.3230  176.2230  142.8990 O   0  0  0  0  0  0  0  0  0  0  0  0
  188.2940  175.5730  143.2180 C   0  0  0  0  0  1  0  0  0  0  0  0
  186.1670  177.9400  138.1940 C   0  0  0  0  0  3  0  0  0  0  0  0
  189.0560  179.3840  137.7460 O   0  0  0  0  0  0  0  0  0  0  0  0
  188.6280  178.2760  138.1690 C   0  0  0  0  0  0  0  0  0  0  0  0
  188.9480  175.8800  137.4300 C   0  0  0  0  0  3  0  0  0  0  0  0
  189.4720  177.0710  137.9580 C   0  0  0  0  0  0  0  0  0  0  0  0
  190.8440  177.1310  138.2520 C   0  0  0  0  0  3  0  0  0  0  0  0
  193.0210  176.0950  138.3440 O   0  0  0  0  0  1  0  0  0  0  0  0
  191.1310  174.8410  137.5260 C   0  0  0  0  0  3  0  0  0  0  0  0
  191.6690  176.0220  138.0420 C   0  0  0  0  0  0  0  0  0  0  0  0
  189.7700  174.7700  137.2180 C   0  0  0  0  0  3  0  0  0  0  0  0
  1 27  1  6  0  0  0
  1 13  1  0  0  0  0
  1  4  1  0  0  0  0
  2 18  1  0  0  0  0
  2 24  1  0  0  0  0
  2 14  1  0  0  0  0
  3  9  1  1  0  0  0
  4  8  1  0  0  0  0
  4 16  1  0  0  0  0
  5 23  1  0  0  0  0
  6  3  1  0  0  0  0
  6 20  1  0  0  0  0
  7 12  1  0  0  0  0
  8 16  1  0  0  0  0
  9 23  2  0  0  0  0
 10  6  1  0  0  0  0
 11 17  1  0  0  0  0
 12  4  1  0  0  0  0
 13 18  1  0  0  0  0
 15 21  2  0  0  0  0
 17  5  2  0  0  0  0
 19 25  1  0  0  0  0
 19  7  1  0  0  0  0
 21  3  1  0  0  0  0
 21 17  1  0  0  0  0
 22 20  1  6  0  0  0
 22  1  1  0  0  0  0
 23  2  1  0  0  0  0
 25 22  1  0  0  0  0
 26  7  2  0  0  0  0
 28 10  2  0  0  0  0
 28 15  1  0  0  0  0
 29 30  2  0  0  0  0
 30 10  1  0  0  0  0
 31 32  1  0  0  0  0
 32 30  1  0  0  0  0
 32 33  2  0  0  0  0
 35 36  2  0  0  0  0
 36 33  1  0  0  0  0
 36 34  1  0  0  0  0
 37 31  2  0  0  0  0
 37 35  1  0  0  0  0
M  END
>  <MODEL>
1

>  <REMARK>
 VINA RESULT:      -7.5      0.000      0.000
  Name = 
  2 active torsions:
  status: ('A' for Active; 'I' for Inactive)
    1  A    between atoms: C_6  and  C_31
    2  A    between atoms: C_14  and  C_31
                            x       y       z     vdW  Elec       q    Type
                         _______ _______ _______ _____ _____    ______ ____

>  <TORSDO>
F 2

$$$$
=
 OpenBabel10262422503D

 37 42  0  0  1  0  0  0  0  0999 V2000
  186.2890  175.7050  135.6420 C   0  0  1  0  0  0  0  0  0  0  0  0
  184.0020  172.9380  136.0200 C   0  0  0  0  0  0  0  0  0  0  0  0
  182.9700  175.7780  138.3970 C   0  0  0  0  0  0  0  0  0  0  0  0
  187.8030  175.3240  135.5740 C   0  0  0  0  0  0  0  0  0  0  0  0
  181.7320  174.2460  136.2570 C   0  0  0  0  0  3  0  0  0  0  0  0
  183.8610  176.9500  138.3500 N   0  0  0  0  0  0  0  0  0  0  0  0
  188.7340  177.4290  136.5670 C   0  0  0  0  0  0  0  0  0  0  0  0
  188.2980  173.9930  136.0970 C   0  0  0  0  0  2  0  0  0  0  0  0
  183.5990  174.5650  137.7950 C   0  0  0  0  0  3  0  0  0  0  0  0
  183.2700  178.1370  138.9150 C   0  0  0  0  0  0  0  0  0  0  0  0
  179.7320  175.5490  136.2550 N   0  0  0  0  0  1  0  0  0  0  0  0
  188.7690  176.3690  135.6490 O   0  0  0  0  0  0  0  0  0  0  0  0
  185.4230  174.7050  135.1030 O   0  0  0  0  0  0  0  0  0  0  0  0
  183.4760  172.5850  134.6350 C   0  0  0  0  0  1  0  0  0  0  0  0
  181.1880  177.3550  137.9730 N   0  0  0  0  0  0  0  0  0  0  0  0
  188.2010  174.2430  134.5940 C   0  0  0  0  0  2  0  0  0  0  0  0
  181.0310  175.2650  136.7650 C   0  0  2  0  0  3  0  0  0  0  0  0
  185.4210  173.5240  135.8810 C   0  0  0  0  0  2  0  0  0  0  0  0
  187.8100  177.4970  137.6190 O   0  0  0  0  0  0  0  0  0  0  0  0
  184.7590  177.1640  137.2030 C   0  0  0  0  0  2  0  0  0  0  0  0
  181.6610  176.1600  137.7520 C   0  0  0  0  0  0  0  0  0  0  0  0
  185.8730  176.1050  137.0980 C   0  0  2  0  0  3  0  0  0  0  0  0
  183.1010  173.9220  136.7350 C   0  0  0  0  0  0  0  0  0  0  0  0
  184.0880  171.6580  136.8280 C   0  0  0  0  0  1  0  0  0  0  0  0
  187.0250  176.3970  138.0580 C   0  0  0  0  0  2  0  0  0  0  0  0
  189.5540  178.3720  136.4280 O   0  0  0  0  0  0  0  0  0  0  0  0
  186.1320  176.9130  134.7210 C   0  0  0  0  0  1  0  0  0  0  0  0
  181.9530  178.3320  138.7070 C   0  0  0  0  0  3  0  0  0  0  0  0
  184.2690  180.2660  139.0710 O   0  0  0  0  0  0  0  0  0  0  0  0
  184.1220  179.1360  139.6120 C   0  0  0  0  0  0  0  0  0  0  0  0
  184.1090  178.7690  142.1130 C   0  0  0  0  0  3  0  0  0  0  0  0
  184.8130  178.8810  140.9030 C   0  0  0  0  0  0  0  0  0  0  0  0
  186.2060  178.7040  140.9150 C   0  0  0  0  0  3  0  0  0  0  0  0
  188.2590  178.2750  142.1070 O   0  0  0  0  0  1  0  0  0  0  0  0
  186.1690  178.3410  143.3070 C   0  0  0  0  0  3  0  0  0  0  0  0
  186.8810  178.4400  142.1100 C   0  0  0  0  0  0  0  0  0  0  0  0
  184.7820  178.5040  143.3080 C   0  0  0  0  0  3  0  0  0  0  0  0
  1 27  1  6  0  0  0
  1 22  1  0  0  0  0
  2 23  1  0  0  0  0
  2 24  1  0  0  0  0
  4  1  1  0  0  0  0
  4 12  1  0  0  0  0
  4  8  1  0  0  0  0
  5 23  2  0  0  0  0
  5 17  1  0  0  0  0
  6  3  1  0  0  0  0
  6 10  1  0  0  0  0
  7 19  1  0  0  0  0
  9  3  2  0  0  0  0
 10 30  1  0  0  0  0
 12  7  1  0  0  0  0
 13  1  1  0  0  0  0
 13 18  1  0  0  0  0
 14  2  1  0  0  0  0
 15 28  1  0  0  0  0
 16  4  1  0  0  0  0
 16  8  1  0  0  0  0
 17 11  1  6  0  0  0
 17 21  1  0  0  0  0
 18  2  1  0  0  0  0
 19 25  1  0  0  0  0
 20  6  1  0  0  0  0
 21 15  2  0  0  0  0
 21  3  1  0  0  0  0
 22 20  1  6  0  0  0
 22 25  1  0  0  0  0
 23  9  1  0  0  0  0
 26  7  2  0  0  0  0
 28 10  2  0  0  0  0
 29 30  2  0  0  0  0
 30 32  1  0  0  0  0
 31 37  1  0  0  0  0
 32 33  1  0  0  0  0
 32 31  2  0  0  0  0
 33 36  2  0  0  0  0
 34 36  1  0  0  0  0
 35 37  2  0  0  0  0
 36 35  1  0  0  0  0
M  END
>  <MODEL>
2

>  <REMARK>
 VINA RESULT:      -7.3      3.676      7.577
  Name = 
  2 active torsions:
  status: ('A' for Active; 'I' for Inactive)
    1  A    between atoms: C_6  and  C_31
    2  A    between atoms: C_14  and  C_31
                            x       y       z     vdW  Elec       q    Type
                         _______ _______ _______ _____ _____    ______ ____

>  <TORSDO>
F 2

$$$$
=
 OpenBabel10262422503D

 37 42  0  0  1  0  0  0  0  0999 V2000
  186.3190  176.2990  135.8590 C   0  0  1  0  0  0  0  0  0  0  0  0
  184.3490  173.2780  135.9950 C   0  0  0  0  0  0  0  0  0  0  0  0
  183.1310  175.7160  138.7070 C   0  0  0  0  0  0  0  0  0  0  0  0
  187.8590  176.0940  135.7030 C   0  0  0  0  0  0  0  0  0  0  0  0
  181.9670  174.3000  136.4480 C   0  0  0  0  0  3  0  0  0  0  0  0
  183.8930  176.9750  138.7640 N   0  0  0  0  0  0  0  0  0  0  0  0
  188.6090  178.1660  136.8960 C   0  0  0  0  0  0  0  0  0  0  0  0
  188.5120  174.7760  136.0570 C   0  0  0  0  0  2  0  0  0  0  0  0
  183.8560  174.6500  137.9530 C   0  0  0  0  0  3  0  0  0  0  0  0
  183.2060  178.0230  139.4770 C   0  0  0  0  0  0  0  0  0  0  0  0
  179.8450  175.3720  136.6530 N   0  0  0  0  0  1  0  0  0  0  0  0
  188.7150  177.2230  135.8640 O   0  0  0  0  0  0  0  0  0  0  0  0
  185.5390  175.2760  135.2390 O   0  0  0  0  0  0  0  0  0  0  0  0
  183.8040  173.0230  134.5960 C   0  0  0  0  0  1  0  0  0  0  0  0
  181.1780  177.1280  138.5170 N   0  0  0  0  0  0  0  0  0  0  0  0
  188.3260  175.1740  134.5950 C   0  0  0  0  0  2  0  0  0  0  0  0
  181.1870  175.1770  137.0880 C   0  0  2  0  0  3  0  0  0  0  0  0
  185.6920  174.0240  135.8790 C   0  0  0  0  0  2  0  0  0  0  0  0
  187.7290  178.0200  137.9770 O   0  0  0  0  0  0  0  0  0  0  0  0
  184.7130  177.4070  137.6210 C   0  0  0  0  0  2  0  0  0  0  0  0
  181.7630  176.0230  138.1490 C   0  0  0  0  0  0  0  0  0  0  0  0
  185.9260  176.4930  137.3640 C   0  0  2  0  0  3  0  0  0  0  0  0
  183.3820  174.0760  136.8440 C   0  0  0  0  0  0  0  0  0  0  0  0
  184.6010  171.9340  136.6520 C   0  0  0  0  0  1  0  0  0  0  0  0
  187.0820  176.8010  138.3140 C   0  0  0  0  0  2  0  0  0  0  0  0
  189.3200  179.2020  136.8380 O   0  0  0  0  0  0  0  0  0  0  0  0
  185.9980  177.5760  135.0850 C   0  0  0  0  0  1  0  0  0  0  0  0
  181.8680  178.0970  139.3330 C   0  0  0  0  0  3  0  0  0  0  0  0
  184.2060  180.1440  139.7150 O   0  0  0  0  0  0  0  0  0  0  0  0
  183.9780  179.0270  140.2550 C   0  0  0  0  0  0  0  0  0  0  0  0
  185.8250  178.3780  141.8540 C   0  0  0  0  0  3  0  0  0  0  0  0
  184.5020  178.7900  141.6250 C   0  0  0  0  0  0  0  0  0  0  0  0
  183.6690  179.0230  142.7310 C   0  0  0  0  0  3  0  0  0  0  0  0
  183.3020  179.0590  145.1150 O   0  0  0  0  0  1  0  0  0  0  0  0
  185.4550  178.4120  144.2440 C   0  0  0  0  0  3  0  0  0  0  0  0
  184.1400  178.8320  144.0330 C   0  0  0  0  0  0  0  0  0  0  0  0
  186.2990  178.1870  143.1540 C   0  0  0  0  0  3  0  0  0  0  0  0
  1 27  1  6  0  0  0
  1 22  1  0  0  0  0
  2 24  1  0  0  0  0
  2 23  1  0  0  0  0
  3  6  1  0  0  0  0
  4  1  1  0  0  0  0
  4 12  1  0  0  0  0
  4  8  1  0  0  0  0
  5 23  2  0  0  0  0
  5 17  1  0  0  0  0
  6 10  1  0  0  0  0
  7 19  1  0  0  0  0
  9  3  2  0  0  0  0
 10 30  1  0  0  0  0
 12  7  1  0  0  0  0
 13  1  1  0  0  0  0
 13 18  1  0  0  0  0
 14  2  1  0  0  0  0
 15 28  1  0  0  0  0
 16  4  1  0  0  0  0
 16  8  1  0  0  0  0
 17 11  1  6  0  0  0
 17 21  1  0  0  0  0
 18  2  1  0  0  0  0
 19 25  1  0  0  0  0
 20  6  1  0  0  0  0
 21 15  2  0  0  0  0
 21  3  1  0  0  0  0
 22 20  1  6  0  0  0
 22 25  1  0  0  0  0
 23  9  1  0  0  0  0
 26  7  2  0  0  0  0
 28 10  2  0  0  0  0
 29 30  2  0  0  0  0
 30 32  1  0  0  0  0
 31 37  1  0  0  0  0
 32 31  2  0  0  0  0
 32 33  1  0  0  0  0
 33 36  2  0  0  0  0
 36 35  1  0  0  0  0
 36 34  1  0  0  0  0
 37 35  2  0  0  0  0
M  END
>  <MODEL>
3

>  <REMARK>
 VINA RESULT:      -7.3      3.453      7.791
  Name = 
  2 active torsions:
  status: ('A' for Active; 'I' for Inactive)
    1  A    between atoms: C_6  and  C_31
    2  A    between atoms: C_14  and  C_31
                            x       y       z     vdW  Elec       q    Type
                         _______ _______ _______ _____ _____    ______ ____

>  <TORSDO>
F 2

$$$$
=
 OpenBabel10262422503D

 37 42  0  0  1  0  0  0  0  0999 V2000
  184.2310  175.8690  137.2210 C   0  0  1  0  0  0  0  0  0  0  0  0
  187.2950  177.7680  137.3960 C   0  0  0  0  0  0  0  0  0  0  0  0
  184.8030  179.1280  139.9880 C   0  0  2  0  0  3  0  0  0  0  0  0
  183.6990  175.5770  135.7810 C   0  0  0  0  0  0  0  0  0  0  0  0
  187.5080  178.0600  140.0020 C   0  0  0  0  0  3  0  0  0  0  0  0
  183.4980  178.4450  139.9790 N   0  0  0  0  0  0  0  0  0  0  0  0
  181.2550  175.4810  136.3270 C   0  0  0  0  0  0  0  0  0  0  0  0
  184.1470  176.4100  134.5990 C   0  0  0  0  0  2  0  0  0  0  0  0
  185.5840  178.8740  138.7410 C   0  0  0  0  0  3  0  0  0  0  0  0
  182.7310  178.6660  141.1790 C   0  0  0  0  0  0  0  0  0  0  0  0
  187.6810  178.0720  142.3820 N   0  0  0  0  0  1  0  0  0  0  0  0
  182.3910  175.0310  135.6380 O   0  0  0  0  0  0  0  0  0  0  0  0
  185.6540  175.9580  137.2980 O   0  0  0  0  0  0  0  0  0  0  0  0
  188.4390  176.7780  137.5680 C   0  0  0  0  0  1  0  0  0  0  0  0
  184.8440  178.6090  142.3490 N   0  0  0  0  0  0  0  0  0  0  0  0
  184.6780  174.9900  134.7870 C   0  0  0  0  0  2  0  0  0  0  0  0
  186.9460  178.3180  141.1870 C   0  0  0  0  0  0  0  0  0  0  0  0
  186.1580  177.0860  136.6110 C   0  0  0  0  0  2  0  0  0  0  0  0
  181.2560  176.6280  137.1330 O   0  0  0  0  0  0  0  0  0  0  0  0
  183.3520  177.1170  139.3610 C   0  0  0  0  0  2  0  0  0  0  0  0
  185.5310  178.7280  141.2470 C   0  0  0  0  0  0  0  0  0  0  0  0
  183.5400  177.1350  137.8320 C   0  0  2  0  0  3  0  0  0  0  0  0
  186.7780  178.2740  138.7260 C   0  0  0  0  0  0  0  0  0  0  0  0
  187.8080  178.9390  136.5790 C   0  0  0  0  0  1  0  0  0  0  0  0
  182.2790  177.6120  137.1110 C   0  0  0  0  0  2  0  0  0  0  0  0
  180.1930  174.8140  136.2350 O   0  0  0  0  0  0  0  0  0  0  0  0
  183.8580  174.6400  138.0480 C   0  0  0  0  0  1  0  0  0  0  0  0
  183.4070  178.7290  142.3440 C   0  0  0  0  0  3  0  0  0  0  0  0
  180.6020  177.7070  141.4910 O   0  0  0  0  0  0  0  0  0  0  0  0
  181.2470  178.7240  141.1170 C   0  0  0  0  0  0  0  0  0  0  0  0
  179.6320  180.6330  141.4840 C   0  0  0  0  0  3  0  0  0  0  0  0
  180.4820  179.9030  140.6360 C   0  0  0  0  0  0  0  0  0  0  0  0
  180.6400  180.3330  139.3090 C   0  0  0  0  0  3  0  0  0  0  0  0
  180.1130  181.8600  137.5170 O   0  0  0  0  0  1  0  0  0  0  0  0
  179.1020  182.1620  139.6850 C   0  0  0  0  0  3  0  0  0  0  0  0
  179.9520  181.4520  138.8330 C   0  0  0  0  0  0  0  0  0  0  0  0
  178.9440  181.7530  141.0110 C   0  0  0  0  0  3  0  0  0  0  0  0
  1 13  1  0  0  0  0
  1 22  1  0  0  0  0
  1 27  1  1  0  0  0
  2 14  1  0  0  0  0
  2 23  1  0  0  0  0
  3  9  1  6  0  0  0
  3 21  1  0  0  0  0
  4  1  1  0  0  0  0
  5 17  2  0  0  0  0
  6  3  1  0  0  0  0
  6 10  1  0  0  0  0
  7 19  1  0  0  0  0
  8 16  1  0  0  0  0
  8  4  1  0  0  0  0
 10 28  2  0  0  0  0
 12  4  1  0  0  0  0
 12  7  1  0  0  0  0
 16  4  1  0  0  0  0
 17 21  1  0  0  0  0
 17 11  1  0  0  0  0
 18 13  1  0  0  0  0
 18  2  1  0  0  0  0
 20  6  1  0  0  0  0
 21 15  2  0  0  0  0
 22 25  1  6  0  0  0
 22 20  1  0  0  0  0
 23  9  2  0  0  0  0
 23  5  1  0  0  0  0
 24  2  1  0  0  0  0
 25 19  1  0  0  0  0
 26  7  2  0  0  0  0
 28 15  1  0  0  0  0
 30 10  1  0  0  0  0
 30 29  2  0  0  0  0
 32 30  1  0  0  0  0
 32 31  2  0  0  0  0
 33 32  1  0  0  0  0
 34 36  1  0  0  0  0
 35 37  2  0  0  0  0
 36 33  2  0  0  0  0
 36 35  1  0  0  0  0
 37 31  1  0  0  0  0
M  END
>  <MODEL>
4

>  <REMARK>
 VINA RESULT:      -6.6      4.471      9.050
  Name = 
  2 active torsions:
  status: ('A' for Active; 'I' for Inactive)
    1  A    between atoms: C_6  and  C_31
    2  A    between atoms: C_14  and  C_31
                            x       y       z     vdW  Elec       q    Type
                         _______ _______ _______ _____ _____    ______ ____

>  <TORSDO>
F 2

$$$$
=
 OpenBabel10262422503D

 37 42  0  0  1  0  0  0  0  0999 V2000
  187.7040  177.1490  143.7950 C   0  0  1  0  0  0  0  0  0  0  0  0
  185.8110  178.9190  146.3060 C   0  0  0  0  0  0  0  0  0  0  0  0
  184.3520  179.6880  142.8340 C   0  0  2  0  0  3  0  0  0  0  0  0
  189.2570  177.1990  143.9600 C   0  0  0  0  0  0  0  0  0  0  0  0
  183.3790  178.6090  145.3540 C   0  0  0  0  0  3  0  0  0  0  0  0
  185.0740  179.0420  141.7250 N   0  0  0  0  0  0  0  0  0  0  0  0
  189.8700  177.0130  141.5370 C   0  0  0  0  0  0  0  0  0  0  0  0
  189.9200  178.2710  144.7970 C   0  0  0  0  0  2  0  0  0  0  0  0
  185.1540  179.7130  144.0940 C   0  0  0  0  0  3  0  0  0  0  0  0
  184.3140  178.9950  140.5010 C   0  0  0  0  0  0  0  0  0  0  0  0
  181.2190  178.0790  144.4860 N   0  0  0  0  0  1  0  0  0  0  0  0
  190.0690  176.7160  142.8930 O   0  0  0  0  0  0  0  0  0  0  0  0
  186.9950  177.2000  145.0330 O   0  0  0  0  0  0  0  0  0  0  0  0
  185.3670  177.9010  147.3480 C   0  0  0  0  0  1  0  0  0  0  0  0
  182.3780  178.6470  141.9040 N   0  0  0  0  0  0  0  0  0  0  0  0
  189.8200  176.8400  145.3180 C   0  0  0  0  0  2  0  0  0  0  0  0
  182.5350  178.5990  144.3170 C   0  0  0  0  0  0  0  0  0  0  0  0
  187.1390  178.4480  145.6820 C   0  0  0  0  0  2  0  0  0  0  0  0
  188.9250  177.9470  141.0910 O   0  0  0  0  0  0  0  0  0  0  0  0
  185.9570  177.8910  141.9760 C   0  0  0  0  0  2  0  0  0  0  0  0
  183.0160  179.0030  142.9840 C   0  0  0  0  0  0  0  0  0  0  0  0
  187.2080  178.2530  142.7990 C   0  0  2  0  0  3  0  0  0  0  0  0
  184.7690  179.1170  145.2260 C   0  0  0  0  0  0  0  0  0  0  0  0
  186.0550  180.2380  147.0150 C   0  0  0  0  0  1  0  0  0  0  0  0
  188.2900  178.8980  141.9340 C   0  0  0  0  0  2  0  0  0  0  0  0
  190.5550  176.3980  140.6800 O   0  0  0  0  0  0  0  0  0  0  0  0
  187.4020  175.7700  143.2120 C   0  0  0  0  0  1  0  0  0  0  0  0
  182.9870  178.7830  140.6040 C   0  0  0  0  0  3  0  0  0  0  0  0
  185.0800  180.2160  138.6370 O   0  0  0  0  0  0  0  0  0  0  0  0
  185.0060  179.0850  139.1890 C   0  0  0  0  0  0  0  0  0  0  0  0
  184.8230  176.9230  137.8930 C   0  0  0  0  0  3  0  0  0  0  0  0
  185.6100  177.9220  138.4880 C   0  0  0  0  0  0  0  0  0  0  0  0
  187.0070  177.8330  138.3780 C   0  0  0  0  0  3  0  0  0  0  0  0
  188.9870  176.6860  137.6110 O   0  0  0  0  0  1  0  0  0  0  0  0
  186.8090  175.7720  137.1260 C   0  0  0  0  0  3  0  0  0  0  0  0
  187.6040  176.7630  137.7050 C   0  0  0  0  0  0  0  0  0  0  0  0
  185.4170  175.8530  137.2180 C   0  0  0  0  0  3  0  0  0  0  0  0
  1 27  1  6  0  0  0
  1  4  1  0  0  0  0
  1 13  1  0  0  0  0
  2 24  1  0  0  0  0
  2 14  1  0  0  0  0
  3 21  1  0  0  0  0
  3  9  1  1  0  0  0
  4  8  1  0  0  0  0
  4 16  1  0  0  0  0
  6 20  1  0  0  0  0
  6  3  1  0  0  0  0
  7 12  1  0  0  0  0
  8 16  1  0  0  0  0
  9 23  2  0  0  0  0
 10 28  2  0  0  0  0
 10  6  1  0  0  0  0
 12  4  1  0  0  0  0
 13 18  1  0  0  0  0
 15 21  2  0  0  0  0
 17 11  1  0  0  0  0
 17  5  2  0  0  0  0
 18  2  1  0  0  0  0
 19  7  1  0  0  0  0
 19 25  1  0  0  0  0
 20 22  1  0  0  0  0
 21 17  1  0  0  0  0
 22 25  1  6  0  0  0
 22  1  1  0  0  0  0
 23  5  1  0  0  0  0
 23  2  1  0  0  0  0
 26  7  2  0  0  0  0
 28 15  1  0  0  0  0
 29 30  2  0  0  0  0
 30 10  1  0  0  0  0
 31 32  1  0  0  0  0
 32 30  1  0  0  0  0
 33 32  2  0  0  0  0
 34 36  1  0  0  0  0
 35 37  1  0  0  0  0
 35 36  2  0  0  0  0
 36 33  1  0  0  0  0
 37 31  2  0  0  0  0
M  END
>  <MODEL>
5

>  <REMARK>
 VINA RESULT:      -6.4      1.949      2.973
  Name = 
  2 active torsions:
  status: ('A' for Active; 'I' for Inactive)
    1  A    between atoms: C_6  and  C_31
    2  A    between atoms: C_14  and  C_31
                            x       y       z     vdW  Elec       q    Type
                         _______ _______ _______ _____ _____    ______ ____

>  <TORSDO>
F 2

$$$$
=
 OpenBabel10262422503D

 37 42  0  0  1  0  0  0  0  0999 V2000
  182.9390  174.6470  136.3360 C   0  0  1  0  0  0  0  0  0  0  0  0
  180.2430  174.7900  138.7330 C   0  0  0  0  0  0  0  0  0  0  0  0
  182.9350  177.3650  139.6860 C   0  0  0  0  0  0  0  0  0  0  0  0
  183.4110  173.2130  135.9370 C   0  0  0  0  0  0  0  0  0  0  0  0
  180.0870  177.3920  139.0950 C   0  0  0  0  0  3  0  0  0  0  0  0
  184.1030  177.3680  138.7900 N   0  0  0  0  0  0  0  0  0  0  0  0
  185.8040  173.7630  135.4340 C   0  0  0  0  0  0  0  0  0  0  0  0
  183.1100  172.0180  136.8160 C   0  0  0  0  0  2  0  0  0  0  0  0
  182.1200  176.1210  139.5500 C   0  0  0  0  0  3  0  0  0  0  0  0
  184.8990  178.5660  138.8960 C   0  0  0  0  0  0  0  0  0  0  0  0
  179.9220  179.7710  139.1720 N   0  0  0  0  0  1  0  0  0  0  0  0
  184.6070  173.0800  135.1730 O   0  0  0  0  0  0  0  0  0  0  0  0
  181.5510  174.7210  136.6680 O   0  0  0  0  0  0  0  0  0  0  0  0
  178.9470  174.9760  137.9550 C   0  0  0  0  0  1  0  0  0  0  0  0
  182.8080  179.7330  139.2170 N   0  0  0  0  0  0  0  0  0  0  0  0
  182.3450  172.2270  135.5110 C   0  0  0  0  0  2  0  0  0  0  0  0
  180.6860  178.5730  139.2710 C   0  0  2  0  0  3  0  0  0  0  0  0
  181.2460  174.0170  137.8550 C   0  0  0  0  0  2  0  0  0  0  0  0
  185.9990  174.5520  136.5760 O   0  0  0  0  0  0  0  0  0  0  0  0
  184.0200  176.7690  137.4480 C   0  0  0  0  0  2  0  0  0  0  0  0
  182.1500  178.6290  139.4350 C   0  0  0  0  0  0  0  0  0  0  0  0
  183.8370  175.2400  137.4750 C   0  0  2  0  0  3  0  0  0  0  0  0
  180.8410  176.1130  139.1630 C   0  0  0  0  0  0  0  0  0  0  0  0
  179.9370  173.9560  139.9620 C   0  0  0  0  0  1  0  0  0  0  0  0
  185.1590  174.5140  137.7200 C   0  0  0  0  0  2  0  0  0  0  0  0
  186.7370  173.6820  134.5940 O   0  0  0  0  0  0  0  0  0  0  0  0
  183.0980  175.4930  135.0750 C   0  0  0  0  0  1  0  0  0  0  0  0
  184.2440  179.7280  139.0900 C   0  0  0  0  0  3  0  0  0  0  0  0
  186.8220  178.7520  137.5480 O   0  0  0  0  0  0  0  0  0  0  0  0
  186.3700  178.5040  138.6990 C   0  0  0  0  0  0  0  0  0  0  0  0
  187.1210  178.5310  141.1120 C   0  0  0  0  0  3  0  0  0  0  0  0
  187.3380  178.1640  139.7740 C   0  0  0  0  0  0  0  0  0  0  0  0
  188.4850  177.4190  139.4580 C   0  0  0  0  0  3  0  0  0  0  0  0
  190.5350  176.3320  140.1220 O   0  0  0  0  0  1  0  0  0  0  0  0
  189.1770  177.4430  141.7760 C   0  0  0  0  0  3  0  0  0  0  0  0
  189.4020  177.0630  140.4510 C   0  0  0  0  0  0  0  0  0  0  0  0
  188.0350  178.1760  142.1070 C   0  0  0  0  0  3  0  0  0  0  0  0
  1 27  1  6  0  0  0
  1 13  1  0  0  0  0
  1 22  1  0  0  0  0
  2 23  1  0  0  0  0
  2 24  1  0  0  0  0
  4  1  1  0  0  0  0
  4  8  1  0  0  0  0
  5 23  2  0  0  0  0
  5 17  1  0  0  0  0
  6 10  1  0  0  0  0
  6  3  1  0  0  0  0
  7 19  1  0  0  0  0
  9  3  2  0  0  0  0
 10 28  2  0  0  0  0
 12  7  1  0  0  0  0
 12  4  1  0  0  0  0
 13 18  1  0  0  0  0
 14  2  1  0  0  0  0
 15 21  2  0  0  0  0
 16  4  1  0  0  0  0
 16  8  1  0  0  0  0
 17 11  1  6  0  0  0
 17 21  1  0  0  0  0
 18  2  1  0  0  0  0
 19 25  1  0  0  0  0
 20  6  1  0  0  0  0
 21  3  1  0  0  0  0
 22 20  1  6  0  0  0
 22 25  1  0  0  0  0
 23  9  1  0  0  0  0
 26  7  2  0  0  0  0
 28 15  1  0  0  0  0
 29 30  2  0  0  0  0
 30 10  1  0  0  0  0
 30 32  1  0  0  0  0
 31 37  1  0  0  0  0
 32 31  2  0  0  0  0
 33 32  1  0  0  0  0
 33 36  2  0  0  0  0
 34 36  1  0  0  0  0
 35 37  2  0  0  0  0
 36 35  1  0  0  0  0
M  END
>  <MODEL>
6

>  <REMARK>
 VINA RESULT:      -6.3      4.357      7.246
  Name = 
  2 active torsions:
  status: ('A' for Active; 'I' for Inactive)
    1  A    between atoms: C_6  and  C_31
    2  A    between atoms: C_14  and  C_31
                            x       y       z     vdW  Elec       q    Type
                         _______ _______ _______ _____ _____    ______ ____

>  <TORSDO>
F 2

$$$$
=
 OpenBabel10262422503D

 37 42  0  0  1  0  0  0  0  0999 V2000
  185.6200  173.4130  136.9550 C   0  0  1  0  0  0  0  0  0  0  0  0
  188.6590  175.2500  136.3090 C   0  0  0  0  0  0  0  0  0  0  0  0
  185.8210  177.7200  137.1020 C   0  0  2  0  0  3  0  0  0  0  0  0
  185.3140  172.2450  135.9640 C   0  0  0  0  0  0  0  0  0  0  0  0
  188.4670  177.1200  138.1500 C   0  0  0  0  0  3  0  0  0  0  0  0
  184.5200  177.0760  137.3480 N   0  0  0  0  0  0  0  0  0  0  0  0
  182.8130  172.3110  136.1110 C   0  0  0  0  0  0  0  0  0  0  0  0
  185.9590  172.1910  134.5960 C   0  0  0  0  0  2  0  0  0  0  0  0
  186.7820  176.8080  136.4120 C   0  0  0  0  0  3  0  0  0  0  0  0
  183.5790  177.9340  138.0240 C   0  0  0  0  0  0  0  0  0  0  0  0
  188.2650  178.6280  139.9880 N   0  0  0  0  0  1  0  0  0  0  0  0
  184.0320  171.6240  136.0210 O   0  0  0  0  0  0  0  0  0  0  0  0
  187.0150  173.6470  137.1510 O   0  0  0  0  0  0  0  0  0  0  0  0
  189.7400  174.6820  137.2190 C   0  0  0  0  0  1  0  0  0  0  0  0
  185.4820  178.7930  139.2410 N   0  0  0  0  0  0  0  0  0  0  0  0
  186.4230  171.2490  135.7040 C   0  0  0  0  0  2  0  0  0  0  0  0
  187.7320  178.0140  138.8190 C   0  0  0  0  0  0  0  0  0  0  0  0
  187.6450  174.1370  135.9830 C   0  0  0  0  0  2  0  0  0  0  0  0
  182.7120  173.7050  136.0080 O   0  0  0  0  0  0  0  0  0  0  0  0
  184.4440  175.6460  137.6900 C   0  0  0  0  0  2  0  0  0  0  0  0
  186.3350  178.2540  138.4160 C   0  0  0  0  0  0  0  0  0  0  0  0
  184.8690  174.7220  136.5330 C   0  0  2  0  0  3  0  0  0  0  0  0
  187.9510  176.4310  136.9400 C   0  0  0  0  0  0  0  0  0  0  0  0
  189.3190  175.6930  135.0170 C   0  0  0  0  0  1  0  0  0  0  0  0
  183.7480  174.5410  135.5100 C   0  0  0  0  0  2  0  0  0  0  0  0
  181.7640  171.6480  136.3170 O   0  0  0  0  0  0  0  0  0  0  0  0
  185.0950  172.9440  138.3100 C   0  0  0  0  0  1  0  0  0  0  0  0
  184.0660  178.7650  138.9680 C   0  0  0  0  0  3  0  0  0  0  0  0
  181.6640  178.4620  136.7570 O   0  0  0  0  0  0  0  0  0  0  0  0
  182.1250  177.8190  137.7390 C   0  0  0  0  0  0  0  0  0  0  0  0
  180.8190  175.6970  138.1620 C   0  0  0  0  0  3  0  0  0  0  0  0
  181.1850  176.9980  138.5450 C   0  0  0  0  0  0  0  0  0  0  0  0
  180.6740  177.5140  139.7470 C   0  0  0  0  0  3  0  0  0  0  0  0
  179.3050  177.2840  141.7200 O   0  0  0  0  0  1  0  0  0  0  0  0
  179.4440  175.4680  140.1390 C   0  0  0  0  0  3  0  0  0  0  0  0
  179.8060  176.7570  140.5380 C   0  0  0  0  0  0  0  0  0  0  0  0
  179.9520  174.9370  138.9520 C   0  0  0  0  0  3  0  0  0  0  0  0
  1 13  1  0  0  0  0
  1 27  1  1  0  0  0
  2 23  1  0  0  0  0
  2 14  1  0  0  0  0
  3  9  1  1  0  0  0
  3  6  1  0  0  0  0
  3 21  1  0  0  0  0
  4 12  1  0  0  0  0
  4  1  1  0  0  0  0
  5 17  2  0  0  0  0
  6 20  1  0  0  0  0
  6 10  1  0  0  0  0
  7 26  2  0  0  0  0
  8 16  1  0  0  0  0
  8  4  1  0  0  0  0
  9 23  2  0  0  0  0
 10 28  2  0  0  0  0
 12  7  1  0  0  0  0
 16  4  1  0  0  0  0
 17 11  1  0  0  0  0
 18  2  1  0  0  0  0
 18 13  1  0  0  0  0
 19  7  1  0  0  0  0
 21 17  1  0  0  0  0
 21 15  2  0  0  0  0
 22 25  1  1  0  0  0
 22  1  1  0  0  0  0
 22 20  1  0  0  0  0
 23  5  1  0  0  0  0
 24  2  1  0  0  0  0
 25 19  1  0  0  0  0
 28 15  1  0  0  0  0
 29 30  2  0  0  0  0
 30 10  1  0  0  0  0
 30 32  1  0  0  0  0
 31 32  2  0  0  0  0
 31 37  1  0  0  0  0
 32 33  1  0  0  0  0
 33 36  2  0  0  0  0
 35 36  1  0  0  0  0
 36 34  1  0  0  0  0
 37 35  2  0  0  0  0
M  END
>  <MODEL>
7

>  <REMARK>
 VINA RESULT:      -6.3      4.750      8.965
  Name = 
  2 active torsions:
  status: ('A' for Active; 'I' for Inactive)
    1  A    between atoms: C_6  and  C_31
    2  A    between atoms: C_14  and  C_31
                            x       y       z     vdW  Elec       q    Type
                         _______ _______ _______ _____ _____    ______ ____

>  <TORSDO>
F 2

$$$$
=
 OpenBabel10262422503D

 37 42  0  0  1  0  0  0  0  0999 V2000
  188.2200  176.9320  144.3780 C   0  0  1  0  0  0  0  0  0  0  0  0
  185.4100  178.9490  145.4100 C   0  0  0  0  0  0  0  0  0  0  0  0
  185.9420  179.3470  141.6230 C   0  0  2  0  0  3  0  0  0  0  0  0
  189.4770  177.0040  145.3020 C   0  0  0  0  0  0  0  0  0  0  0  0
  183.7780  178.5340  143.3890 C   0  0  0  0  0  3  0  0  0  0  0  0
  187.0910  178.5910  141.0980 N   0  0  0  0  0  0  0  0  0  0  0  0
  191.2180  176.5680  143.5530 C   0  0  0  0  0  0  0  0  0  0  0  0
  189.6810  178.1600  146.2570 C   0  0  0  0  0  2  0  0  0  0  0  0
  185.9990  179.5060  143.1070 C   0  0  0  0  0  3  0  0  0  0  0  0
  187.0510  178.4140  139.6680 C   0  0  0  0  0  0  0  0  0  0  0  0
  182.3270  177.9100  141.5990 N   0  0  0  0  0  1  0  0  0  0  0  0
  190.6910  176.4140  144.8440 O   0  0  0  0  0  0  0  0  0  0  0  0
  186.9860  177.1100  145.0750 O   0  0  0  0  0  0  0  0  0  0  0  0
  184.4500  178.0440  146.1710 C   0  0  0  0  0  1  0  0  0  0  0  0
  184.6570  178.2080  139.9210 N   0  0  0  0  0  0  0  0  0  0  0  0
  189.2590  176.7900  146.7840 C   0  0  0  0  0  2  0  0  0  0  0  0
  183.5730  178.4130  142.0730 C   0  0  0  0  0  0  0  0  0  0  0  0
  186.8460  178.4190  145.5910 C   0  0  0  0  0  2  0  0  0  0  0  0
  190.6760  177.4470  142.6060 O   0  0  0  0  0  0  0  0  0  0  0  0
  187.6680  177.4750  141.8660 C   0  0  0  0  0  2  0  0  0  0  0  0
  184.6800  178.6780  141.1370 C   0  0  0  0  0  0  0  0  0  0  0  0
  188.3490  177.9250  143.1730 C   0  0  2  0  0  3  0  0  0  0  0  0
  185.0660  179.0300  143.9370 C   0  0  0  0  0  0  0  0  0  0  0  0
  185.3290  180.3350  146.0210 C   0  0  0  0  0  1  0  0  0  0  0  0
  189.7510  178.4790  142.9200 C   0  0  0  0  0  2  0  0  0  0  0  0
  192.2100  175.8690  143.2220 O   0  0  0  0  0  0  0  0  0  0  0  0
  188.1830  175.4990  143.8510 C   0  0  0  0  0  1  0  0  0  0  0  0
  185.8450  178.2110  139.1030 C   0  0  0  0  0  3  0  0  0  0  0  0
  189.1600  179.2840  139.0770 O   0  0  0  0  0  0  0  0  0  0  0  0
  188.3140  178.3690  138.8860 C   0  0  0  0  0  0  0  0  0  0  0  0
  189.6680  176.3840  138.1000 C   0  0  0  0  0  3  0  0  0  0  0  0
  188.6360  177.3140  137.8900 C   0  0  0  0  0  0  0  0  0  0  0  0
  187.8630  177.2100  136.7220 C   0  0  0  0  0  3  0  0  0  0  0  0
  187.3570  176.1280  134.6260 O   0  0  0  0  0  1  0  0  0  0  0  0
  189.1620  175.3030  135.9960 C   0  0  0  0  0  3  0  0  0  0  0  0
  188.1260  176.2140  135.7780 C   0  0  0  0  0  0  0  0  0  0  0  0
  189.9320  175.3870  137.1570 C   0  0  0  0  0  3  0  0  0  0  0  0
  1 27  1  6  0  0  0
  1 13  1  0  0  0  0
  1  4  1  0  0  0  0
  2 18  1  0  0  0  0
  2 24  1  0  0  0  0
  2 14  1  0  0  0  0
  3  9  1  1  0  0  0
  4  8  1  0  0  0  0
  4 16  1  0  0  0  0
  5 23  1  0  0  0  0
  6  3  1  0  0  0  0
  6 20  1  0  0  0  0
  7 12  1  0  0  0  0
  8 16  1  0  0  0  0
  9 23  2  0  0  0  0
 10  6  1  0  0  0  0
 11 17  1  0  0  0  0
 12  4  1  0  0  0  0
 13 18  1  0  0  0  0
 15 21  2  0  0  0  0
 17  5  2  0  0  0  0
 19 25  1  0  0  0  0
 19  7  1  0  0  0  0
 21  3  1  0  0  0  0
 21 17  1  0  0  0  0
 22 20  1  6  0  0  0
 22  1  1  0  0  0  0
 23  2  1  0  0  0  0
 25 22  1  0  0  0  0
 26  7  2  0  0  0  0
 28 10  2  0  0  0  0
 28 15  1  0  0  0  0
 30 29  2  0  0  0  0
 30 10  1  0  0  0  0
 32 31  1  0  0  0  0
 32 30  1  0  0  0  0
 33 32  2  0  0  0  0
 34 36  1  0  0  0  0
 35 37  1  0  0  0  0
 36 35  2  0  0  0  0
 36 33  1  0  0  0  0
 37 31  2  0  0  0  0
M  END
>  <MODEL>
8

>  <REMARK>
 VINA RESULT:      -5.6      1.235      1.710
  Name = 
  2 active torsions:
  status: ('A' for Active; 'I' for Inactive)
    1  A    between atoms: C_6  and  C_31
    2  A    between atoms: C_14  and  C_31
                            x       y       z     vdW  Elec       q    Type
                         _______ _______ _______ _____ _____    ______ ____

>  <TORSDO>
F 2

$$$$
=
 OpenBabel10262422503D

 37 42  0  0  1  0  0  0  0  0999 V2000
  185.7000  173.4210  136.9370 C   0  0  1  0  0  0  0  0  0  0  0  0
  188.8340  175.1240  136.3800 C   0  0  0  0  0  0  0  0  0  0  0  0
  186.0710  177.7190  137.0210 C   0  0  2  0  0  3  0  0  0  0  0  0
  185.3850  172.2490  135.9540 C   0  0  0  0  0  0  0  0  0  0  0  0
  188.6480  177.0320  138.1820 C   0  0  0  0  0  3  0  0  0  0  0  0
  184.7360  177.1320  137.2270 N   0  0  0  0  0  0  0  0  0  0  0  0
  182.8850  172.4180  136.0030 C   0  0  0  0  0  0  0  0  0  0  0  0
  186.0790  172.1450  134.6130 C   0  0  0  0  0  2  0  0  0  0  0  0
  187.0200  176.7570  136.3850 C   0  0  0  0  0  3  0  0  0  0  0  0
  183.8060  178.0390  137.8520 C   0  0  0  0  0  0  0  0  0  0  0  0
  188.4380  178.5800  139.9860 N   0  0  0  0  0  1  0  0  0  0  0  0
  184.0780  171.6810  135.9720 O   0  0  0  0  0  0  0  0  0  0  0  0
  187.0950  173.6030  137.1830 O   0  0  0  0  0  0  0  0  0  0  0  0
  189.8560  174.5290  137.3400 C   0  0  0  0  0  1  0  0  0  0  0  0
  185.6930  178.8420  139.1290 N   0  0  0  0  0  0  0  0  0  0  0  0
  186.4620  171.2050  135.7540 C   0  0  0  0  0  2  0  0  0  0  0  0
  187.9250  177.9660  138.8070 C   0  0  0  0  0  0  0  0  0  0  0  0
  187.7890  174.0460  136.0330 C   0  0  0  0  0  2  0  0  0  0  0  0
  182.8450  173.8120  135.8730 O   0  0  0  0  0  0  0  0  0  0  0  0
  184.5890  175.7130  137.5890 C   0  0  0  0  0  2  0  0  0  0  0  0
  186.5550  178.2550  138.3460 C   0  0  0  0  0  0  0  0  0  0  0  0
  185.0200  174.7510  136.4650 C   0  0  2  0  0  3  0  0  0  0  0  0
  188.1510  176.3430  136.9630 C   0  0  0  0  0  0  0  0  0  0  0  0
  189.5600  175.5160  135.1080 C   0  0  0  0  0  1  0  0  0  0  0  0
  183.9320  174.5970  135.4030 C   0  0  0  0  0  2  0  0  0  0  0  0
  181.8030  171.8010  136.1780 O   0  0  0  0  0  0  0  0  0  0  0  0
  185.1050  172.9980  138.2790 C   0  0  0  0  0  1  0  0  0  0  0  0
  184.2890  178.8660  138.8000 C   0  0  0  0  0  3  0  0  0  0  0  0
  181.8520  176.8420  137.3010 O   0  0  0  0  0  0  0  0  0  0  0  0
  182.3600  177.9770  137.5130 C   0  0  0  0  0  0  0  0  0  0  0  0
  181.1160  179.7130  136.1620 C   0  0  0  0  0  3  0  0  0  0  0  0
  181.4810  179.1700  137.4050 C   0  0  0  0  0  0  0  0  0  0  0  0
  180.9630  179.7530  138.5720 C   0  0  0  0  0  3  0  0  0  0  0  0
  179.6170  181.4300  139.6650 O   0  0  0  0  0  1  0  0  0  0  0  0
  179.7690  181.3960  137.2590 C   0  0  0  0  0  3  0  0  0  0  0  0
  180.1150  180.8620  138.5020 C   0  0  0  0  0  0  0  0  0  0  0  0
  180.2680  180.8210  136.0880 C   0  0  0  0  0  3  0  0  0  0  0  0
  1 13  1  0  0  0  0
  1 27  1  1  0  0  0
  2 23  1  0  0  0  0
  2 14  1  0  0  0  0
  3  9  1  1  0  0  0
  3  6  1  0  0  0  0
  3 21  1  0  0  0  0
  4 12  1  0  0  0  0
  4  1  1  0  0  0  0
  5 17  2  0  0  0  0
  6 20  1  0  0  0  0
  6 10  1  0  0  0  0
  7 26  2  0  0  0  0
  8 16  1  0  0  0  0
  8  4  1  0  0  0  0
  9 23  2  0  0  0  0
 10 28  2  0  0  0  0
 12  7  1  0  0  0  0
 16  4  1  0  0  0  0
 17 11  1  0  0  0  0
 18  2  1  0  0  0  0
 18 13  1  0  0  0  0
 19  7  1  0  0  0  0
 21 17  1  0  0  0  0
 21 15  2  0  0  0  0
 22 25  1  1  0  0  0
 22  1  1  0  0  0  0
 22 20  1  0  0  0  0
 23  5  1  0  0  0  0
 24  2  1  0  0  0  0
 25 19  1  0  0  0  0
 28 15  1  0  0  0  0
 29 30  2  0  0  0  0
 30 10  1  0  0  0  0
 31 32  1  0  0  0  0
 32 30  1  0  0  0  0
 32 33  2  0  0  0  0
 35 36  2  0  0  0  0
 36 33  1  0  0  0  0
 36 34  1  0  0  0  0
 37 31  2  0  0  0  0
 37 35  1  0  0  0  0
M  END
>  <MODEL>
9

>  <REMARK>
 VINA RESULT:      -5.5      4.928      9.096
  Name = 
  2 active torsions:
  status: ('A' for Active; 'I' for Inactive)
    1  A    between atoms: C_6  and  C_31
    2  A    between atoms: C_14  and  C_31
                            x       y       z     vdW  Elec       q    Type
                         _______ _______ _______ _____ _____    ______ ____

>  <TORSDO>
F 2

$$$$
