=
 OpenBabel10262422583D

 37 40  0  0  1  0  0  0  0  0999 V2000
  190.2070  176.3070  137.8930 C   0  0  1  0  0  3  0  0  0  0  0  0
  187.0910  174.6530  136.8830 O   0  0  0  0  0  0  0  0  0  0  0  0
  191.1910  175.4360  137.0980 C   0  0  1  0  0  3  0  0  0  0  0  0
  188.0530  171.6810  136.0430 C   0  0  0  0  0  2  0  0  0  0  0  0
  186.9780  176.9870  137.5460 C   0  0  1  0  0  3  0  0  0  0  0  0
  188.8730  179.7930  137.2880 O   0  0  0  0  0  1  0  0  0  0  0  0
  188.6790  173.0780  135.9730 C   0  0  1  0  0  3  0  0  0  0  0  0
  187.2550  171.4310  134.9140 O   0  0  0  0  0  0  0  0  0  0  0  0
  189.9240  177.6490  137.1910 C   0  0  0  0  0  2  0  0  0  0  0  0
  189.8020  173.1430  134.9540 C   0  0  0  0  0  2  0  0  0  0  0  0
  191.0260  173.8320  135.5490 C   0  0  2  0  0  3  0  0  0  0  0  0
  186.5170  173.6980  134.7400 C   0  0  0  0  0  2  0  0  0  0  0  0
  186.1270  172.2550  135.0480 C   0  0  0  0  0  2  0  0  0  0  0  0
  190.7610  175.1900  135.7800 O   0  0  0  0  0  0  0  0  0  0  0  0
  189.0310  178.6020  137.9940 C   0  0  2  0  0  3  0  0  0  0  0  0
  187.6270  174.1620  135.6870 C   0  0  1  0  0  3  0  0  0  0  0  0
  187.8560  175.7920  137.1470 C   0  0  1  0  0  3  0  0  0  0  0  0
  187.6500  178.0690  138.4280 C   0  0  2  0  0  3  0  0  0  0  0  0
  188.9400  175.4950  138.1800 C   0  0  0  0  0  2  0  0  0  0  0  0
  187.0540  177.6310  135.0950 C   0  0  0  0  0  1  0  0  0  0  0  0
  186.2140  177.5770  136.3610 C   0  0  0  0  0  2  0  0  0  0  0  0
  192.9180  176.3600  138.5050 C   0  0  0  0  0  1  0  0  0  0  0  0
  192.5640  175.9520  137.1510 N   0  0  0  0  0  2  0  0  0  0  0  0
  192.2040  173.7040  134.5940 C   0  0  0  0  0  2  0  0  0  0  0  0
  193.1350  172.5810  135.0200 C   0  0  0  0  0  2  0  0  0  0  0  0
  193.4090  172.6720  136.3850 O   0  0  0  0  0  1  0  0  0  0  0  0
  187.7060  177.6420  139.7580 O   0  0  0  0  0  0  0  0  0  0  0  0
  188.5820  178.5320  140.3880 C   0  0  0  0  0  2  0  0  0  0  0  0
  188.0300  177.0860  142.3560 C   0  0  0  0  0  2  0  0  0  0  0  0
  191.3670  177.2570  142.5980 C   0  0  0  0  0  2  0  0  0  0  0  0
  190.8030  176.6880  143.8100 N   0  0  0  0  0  2  0  0  0  0  0  0
  190.3610  178.5770  145.1010 O   0  0  0  0  0  0  0  0  0  0  0  0
  188.5410  177.0600  144.8350 C   0  0  0  0  0  2  0  0  0  0  0  0
  189.9590  177.4740  144.6450 C   0  0  0  0  0  0  0  0  0  0  0  0
  190.3750  177.1360  141.4440 C   0  0  0  0  0  2  0  0  0  0  0  0
  187.6640  177.6420  143.7290 C   0  0  0  0  0  2  0  0  0  0  0  0
  189.1040  177.9450  141.6920 C   0  0  1  0  0  3  0  0  0  0  0  0
  1  9  1  6  0  0  0
  1 19  1  0  0  0  0
  2 17  1  0  0  0  0
  3 23  1  6  0  0  0
  3  1  1  0  0  0  0
  5 21  1  6  0  0  0
  5 18  1  0  0  0  0
  7 10  1  6  0  0  0
  7  4  1  0  0  0  0
  8 13  1  0  0  0  0
  8  4  1  0  0  0  0
  9 15  1  0  0  0  0
 10 11  1  0  0  0  0
 11 24  1  6  0  0  0
 11 14  1  0  0  0  0
 12 13  1  0  0  0  0
 14  3  1  0  0  0  0
 15  6  1  6  0  0  0
 15 18  1  0  0  0  0
 16 12  1  6  0  0  0
 16  7  1  0  0  0  0
 16  2  1  0  0  0  0
 17  5  1  0  0  0  0
 17 19  1  1  0  0  0
 18 27  1  1  0  0  0
 20 21  1  0  0  0  0
 23 22  1  0  0  0  0
 24 25  1  0  0  0  0
 25 26  1  0  0  0  0
 27 28  1  0  0  0  0
 29 36  1  0  0  0  0
 30 31  1  0  0  0  0
 31 34  1  0  0  0  0
 34 33  1  0  0  0  0
 34 32  2  0  0  0  0
 35 37  1  0  0  0  0
 35 30  1  0  0  0  0
 36 33  1  0  0  0  0
 37 28  1  6  0  0  0
 37 29  1  0  0  0  0
M  END
>  <MODEL>
1

>  <REMARK>
 VINA RESULT:      -6.5      0.000      0.000
  Name = 
  7 active torsions:
  status: ('A' for Active; 'I' for Inactive)
    1  A    between atoms: C_3  and  C_32
    2  A    between atoms: C_5  and  N_23
    3  A    between atoms: C_10  and  C_14
    4  A    between atoms: C_21  and  C_32
    5  A    between atoms: C_27  and  O_33
    6  A    between atoms: C_27  and  C_37
    7  A    between atoms: O_33  and  C_34
                            x       y       z     vdW  Elec       q    Type
                         _______ _______ _______ _____ _____    ______ ____

>  <TORSDO>
F 7

$$$$
=
 OpenBabel10262422583D

 37 40  0  0  1  0  0  0  0  0999 V2000
  181.3490  180.6470  139.3200 C   0  0  1  0  0  3  0  0  0  0  0  0
  181.9130  177.1750  138.2750 O   0  0  0  0  0  0  0  0  0  0  0  0
  180.9450  181.2290  137.9580 C   0  0  1  0  0  3  0  0  0  0  0  0
  182.5480  177.4330  135.1130 C   0  0  0  0  0  2  0  0  0  0  0  0
  181.3010  177.5810  140.5900 C   0  0  1  0  0  3  0  0  0  0  0  0
  179.3060  179.6890  142.3550 O   0  0  0  0  0  1  0  0  0  0  0  0
  181.6620  178.1990  136.1020 C   0  0  1  0  0  3  0  0  0  0  0  0
  181.8710  176.3170  134.5940 O   0  0  0  0  0  0  0  0  0  0  0  0
  180.1270  180.3600  140.2130 C   0  0  0  0  0  2  0  0  0  0  0  0
  180.5670  178.9760  135.3940 C   0  0  0  0  0  2  0  0  0  0  0  0
  180.4920  180.4030  135.9300 C   0  0  2  0  0  3  0  0  0  0  0  0
  180.7050  175.8790  136.6330 C   0  0  0  0  0  2  0  0  0  0  0  0
  181.7700  175.4000  135.6520 C   0  0  0  0  0  2  0  0  0  0  0  0
  180.0420  180.4060  137.2580 O   0  0  0  0  0  0  0  0  0  0  0  0
  180.4780  179.8790  141.6250 C   0  0  2  0  0  3  0  0  0  0  0  0
  181.0610  177.2690  137.1690 C   0  0  1  0  0  3  0  0  0  0  0  0
  181.4150  178.1330  139.1610 C   0  0  1  0  0  3  0  0  0  0  0  0
  181.3680  178.6220  141.7350 C   0  0  2  0  0  3  0  0  0  0  0  0
  182.2360  179.4180  139.0960 C   0  0  0  0  0  2  0  0  0  0  0  0
  178.9310  176.9820  139.9170 C   0  0  0  0  0  1  0  0  0  0  0  0
  180.1440  176.5970  140.7490 C   0  0  0  0  0  2  0  0  0  0  0  0
  181.5580  183.5550  137.7890 C   0  0  0  0  0  1  0  0  0  0  0  0
  180.4760  182.6150  138.0580 N   0  0  0  0  0  2  0  0  0  0  0  0
  179.5390  181.2240  135.0730 C   0  0  0  0  0  2  0  0  0  0  0  0
  180.2000  182.5060  134.5940 C   0  0  0  0  0  2  0  0  0  0  0  0
  179.3480  183.5930  134.7950 O   0  0  0  0  0  1  0  0  0  0  0  0
  182.6930  179.0020  141.9670 O   0  0  0  0  0  0  0  0  0  0  0  0
  182.9390  178.6630  143.3010 C   0  0  0  0  0  2  0  0  0  0  0  0
  185.2330  179.3550  142.5730 C   0  0  0  0  0  2  0  0  0  0  0  0
  185.8930  177.9670  145.5500 C   0  0  0  0  0  2  0  0  0  0  0  0
  187.1260  178.1940  144.8150 N   0  0  0  0  0  2  0  0  0  0  0  0
  187.3460  176.2360  143.5720 O   0  0  0  0  0  0  0  0  0  0  0  0
  187.5060  178.2670  142.3340 C   0  0  0  0  0  2  0  0  0  0  0  0
  187.3760  177.4940  143.6000 C   0  0  0  0  0  0  0  0  0  0  0  0
  184.7760  178.8480  144.9950 C   0  0  0  0  0  2  0  0  0  0  0  0
  186.1330  178.4860  141.7000 C   0  0  0  0  0  2  0  0  0  0  0  0
  184.4320  178.4970  143.5500 C   0  0  1  0  0  3  0  0  0  0  0  0
  1 19  1  6  0  0  0
  1  9  1  0  0  0  0
  2 17  1  0  0  0  0
  3 23  1  1  0  0  0
  3  1  1  0  0  0  0
  5 21  1  6  0  0  0
  5 18  1  0  0  0  0
  7  4  1  6  0  0  0
  7 16  1  0  0  0  0
  8  4  1  0  0  0  0
  8 13  1  0  0  0  0
  9 15  1  0  0  0  0
 10 11  1  0  0  0  0
 10  7  1  0  0  0  0
 11 24  1  6  0  0  0
 11 14  1  0  0  0  0
 13 12  1  0  0  0  0
 14  3  1  0  0  0  0
 15 18  1  0  0  0  0
 15  6  1  1  0  0  0
 16 12  1  6  0  0  0
 16  2  1  0  0  0  0
 17 19  1  1  0  0  0
 17  5  1  0  0  0  0
 18 27  1  6  0  0  0
 20 21  1  0  0  0  0
 22 23  1  0  0  0  0
 25 26  1  0  0  0  0
 25 24  1  0  0  0  0
 27 28  1  0  0  0  0
 29 37  1  0  0  0  0
 31 30  1  0  0  0  0
 32 34  2  0  0  0  0
 33 34  1  0  0  0  0
 34 31  1  0  0  0  0
 35 30  1  0  0  0  0
 36 33  1  0  0  0  0
 36 29  1  0  0  0  0
 37 28  1  1  0  0  0
 37 35  1  0  0  0  0
M  END
>  <MODEL>
2

>  <REMARK>
 VINA RESULT:      -5.7      6.368      9.168
  Name = 
  7 active torsions:
  status: ('A' for Active; 'I' for Inactive)
    1  A    between atoms: C_3  and  C_32
    2  A    between atoms: C_5  and  N_23
    3  A    between atoms: C_10  and  C_14
    4  A    between atoms: C_21  and  C_32
    5  A    between atoms: C_27  and  O_33
    6  A    between atoms: C_27  and  C_37
    7  A    between atoms: O_33  and  C_34
                            x       y       z     vdW  Elec       q    Type
                         _______ _______ _______ _____ _____    ______ ____

>  <TORSDO>
F 7

$$$$
=
 OpenBabel10262422583D

 37 40  0  0  1  0  0  0  0  0999 V2000
  183.3330  177.2990  137.3450 C   0  0  1  0  0  3  0  0  0  0  0  0
  186.3080  178.8110  138.8700 O   0  0  0  0  0  0  0  0  0  0  0  0
  184.0280  176.1740  136.5640 C   0  0  1  0  0  3  0  0  0  0  0  0
  188.7020  177.9380  136.8780 C   0  0  0  0  0  2  0  0  0  0  0  0
  184.1820  179.0760  140.0150 C   0  0  1  0  0  3  0  0  0  0  0  0
  181.3550  177.2770  140.5680 O   0  0  0  0  0  1  0  0  0  0  0  0
  187.3880  177.2940  137.3320 C   0  0  1  0  0  3  0  0  0  0  0  0
  189.7390  177.6560  137.7840 O   0  0  0  0  0  0  0  0  0  0  0  0
  182.7070  176.7910  138.6570 C   0  0  0  0  0  2  0  0  0  0  0  0
  187.3940  175.7900  137.1220 C   0  0  0  0  0  2  0  0  0  0  0  0
  186.0990  175.3390  136.4530 C   0  0  2  0  0  3  0  0  0  0  0  0
  188.3010  177.7210  139.6920 C   0  0  0  0  0  2  0  0  0  0  0  0
  189.4490  178.3910  138.9440 C   0  0  0  0  0  2  0  0  0  0  0  0
  185.0110  175.5100  137.3210 O   0  0  0  0  0  0  0  0  0  0  0  0
  181.9070  177.8510  139.4240 C   0  0  2  0  0  3  0  0  0  0  0  0
  187.0610  177.6340  138.7960 C   0  0  1  0  0  3  0  0  0  0  0  0
  184.9880  178.3570  138.9230 C   0  0  1  0  0  3  0  0  0  0  0  0
  182.6500  179.1500  139.8010 C   0  0  2  0  0  3  0  0  0  0  0  0
  184.3230  178.4500  137.5520 C   0  0  0  0  0  2  0  0  0  0  0  0
  185.6950  179.4500  142.0140 C   0  0  0  0  0  1  0  0  0  0  0  0
  184.5650  178.6230  141.4220 C   0  0  0  0  0  2  0  0  0  0  0  0
  182.2840  175.9090  134.9200 C   0  0  0  0  0  1  0  0  0  0  0  0
  183.0720  175.2440  135.9510 N   0  0  0  0  0  2  0  0  0  0  0  0
  186.2070  173.8720  136.0630 C   0  0  0  0  0  2  0  0  0  0  0  0
  185.9890  172.9680  137.2650 C   0  0  0  0  0  2  0  0  0  0  0  0
  184.8160  172.2290  137.1080 O   0  0  0  0  0  1  0  0  0  0  0  0
  182.3370  180.1550  138.8820 O   0  0  0  0  0  0  0  0  0  0  0  0
  180.9990  180.4750  139.1340 C   0  0  0  0  0  2  0  0  0  0  0  0
  179.9720  180.6910  136.8600 C   0  0  0  0  0  2  0  0  0  0  0  0
  179.3870  183.7380  138.1240 C   0  0  0  0  0  2  0  0  0  0  0  0
  179.1180  183.7250  136.6960 N   0  0  0  0  0  2  0  0  0  0  0  0
  181.2000  184.2290  135.7810 O   0  0  0  0  0  0  0  0  0  0  0  0
  180.1300  182.2880  134.9030 C   0  0  0  0  0  2  0  0  0  0  0  0
  180.1760  183.4980  135.7700 C   0  0  0  0  0  0  0  0  0  0  0  0
  179.3610  182.3170  138.6810 C   0  0  0  0  0  2  0  0  0  0  0  0
  180.7620  181.0960  135.6190 C   0  0  0  0  0  2  0  0  0  0  0  0
  180.4690  181.4490  138.0900 C   0  0  1  0  0  3  0  0  0  0  0  0
  1 19  1  1  0  0  0
  1  9  1  0  0  0  0
  2 17  1  0  0  0  0
  3 23  1  1  0  0  0
  3 14  1  0  0  0  0
  3  1  1  0  0  0  0
  4  8  1  0  0  0  0
  5 21  1  1  0  0  0
  7  4  1  1  0  0  0
  7 16  1  0  0  0  0
  8 13  1  0  0  0  0
  9 15  1  0  0  0  0
 10  7  1  0  0  0  0
 11 24  1  1  0  0  0
 11 10  1  0  0  0  0
 11 14  1  0  0  0  0
 13 12  1  0  0  0  0
 15 18  1  0  0  0  0
 15  6  1  1  0  0  0
 16  2  1  0  0  0  0
 16 12  1  1  0  0  0
 17 19  1  6  0  0  0
 17  5  1  0  0  0  0
 18 27  1  6  0  0  0
 18  5  1  0  0  0  0
 21 20  1  0  0  0  0
 22 23  1  0  0  0  0
 24 25  1  0  0  0  0
 26 25  1  0  0  0  0
 27 28  1  0  0  0  0
 29 37  1  0  0  0  0
 30 35  1  0  0  0  0
 31 30  1  0  0  0  0
 33 36  1  0  0  0  0
 33 34  1  0  0  0  0
 34 32  2  0  0  0  0
 34 31  1  0  0  0  0
 36 29  1  0  0  0  0
 37 35  1  0  0  0  0
 37 28  1  1  0  0  0
M  END
>  <MODEL>
3

>  <REMARK>
 VINA RESULT:      -5.5      5.633      8.752
  Name = 
  7 active torsions:
  status: ('A' for Active; 'I' for Inactive)
    1  A    between atoms: C_3  and  C_32
    2  A    between atoms: C_5  and  N_23
    3  A    between atoms: C_10  and  C_14
    4  A    between atoms: C_21  and  C_32
    5  A    between atoms: C_27  and  O_33
    6  A    between atoms: C_27  and  C_37
    7  A    between atoms: O_33  and  C_34
                            x       y       z     vdW  Elec       q    Type
                         _______ _______ _______ _____ _____    ______ ____

>  <TORSDO>
F 7

$$$$
=
 OpenBabel10262422583D

 37 40  0  0  1  0  0  0  0  0999 V2000
  190.0950  176.4470  138.5570 C   0  0  1  0  0  3  0  0  0  0  0  0
  186.9920  174.9570  137.2860 O   0  0  0  0  0  0  0  0  0  0  0  0
  191.0920  175.4750  137.9100 C   0  0  1  0  0  3  0  0  0  0  0  0
  187.8210  171.8900  136.6780 C   0  0  0  0  0  2  0  0  0  0  0  0
  186.9770  177.3230  137.8360 C   0  0  1  0  0  3  0  0  0  0  0  0
  189.0850  179.9800  137.6700 O   0  0  0  0  0  1  0  0  0  0  0  0
  188.5500  173.2370  136.6190 C   0  0  1  0  0  3  0  0  0  0  0  0
  187.1310  171.6400  135.4800 O   0  0  0  0  0  0  0  0  0  0  0  0
  189.9830  177.7680  137.7750 C   0  0  0  0  0  2  0  0  0  0  0  0
  189.7750  173.1770  135.7240 C   0  0  0  0  0  2  0  0  0  0  0  0
  190.9760  173.8120  136.4190 C   0  0  2  0  0  3  0  0  0  0  0  0
  186.5780  173.9390  135.1350 C   0  0  0  0  0  2  0  0  0  0  0  0
  186.0570  172.5420  135.4580 C   0  0  0  0  0  2  0  0  0  0  0  0
  190.7860  175.1940  136.5650 O   0  0  0  0  0  0  0  0  0  0  0  0
  189.0820  178.8170  138.4360 C   0  0  2  0  0  3  0  0  0  0  0  0
  187.6130  174.3740  136.1760 C   0  0  1  0  0  3  0  0  0  0  0  0
  187.8040  176.0530  137.5840 C   0  0  1  0  0  3  0  0  0  0  0  0
  187.6280  178.3980  138.7410 C   0  0  2  0  0  3  0  0  0  0  0  0
  188.7500  175.7350  138.7390 C   0  0  0  0  0  2  0  0  0  0  0  0
  187.3550  177.8400  135.3840 C   0  0  0  0  0  1  0  0  0  0  0  0
  186.3860  177.9040  136.5540 C   0  0  0  0  0  2  0  0  0  0  0  0
  192.9970  176.5370  136.8810 C   0  0  0  0  0  1  0  0  0  0  0  0
  192.4850  175.8990  138.0890 N   0  0  0  0  0  2  0  0  0  0  0  0
  192.2350  173.5600  135.6020 C   0  0  0  0  0  2  0  0  0  0  0  0
  193.1800  172.6170  136.3290 C   0  0  0  0  0  2  0  0  0  0  0  0
  193.0130  171.3120  135.8650 O   0  0  0  0  0  1  0  0  0  0  0  0
  187.5140  178.0340  140.0850 O   0  0  0  0  0  0  0  0  0  0  0  0
  186.5430  178.8910  140.6130 C   0  0  0  0  0  2  0  0  0  0  0  0
  184.7590  178.0270  142.1430 C   0  0  0  0  0  2  0  0  0  0  0  0
  187.4900  177.6170  144.0400 C   0  0  0  0  0  2  0  0  0  0  0  0
  186.2900  177.4350  144.8390 N   0  0  0  0  0  2  0  0  0  0  0  0
  185.8160  179.6040  145.5470 O   0  0  0  0  0  0  0  0  0  0  0  0
  184.0070  178.4340  144.5250 C   0  0  0  0  0  2  0  0  0  0  0  0
  185.3980  178.5250  145.0510 C   0  0  0  0  0  0  0  0  0  0  0  0
  187.1710  177.4410  142.5580 C   0  0  0  0  0  2  0  0  0  0  0  0
  183.9520  178.9210  143.0790 C   0  0  0  0  0  2  0  0  0  0  0  0
  186.2050  178.5080  142.0480 C   0  0  1  0  0  3  0  0  0  0  0  0
  1  9  1  6  0  0  0
  1 19  1  0  0  0  0
  2 17  1  0  0  0  0
  3 23  1  6  0  0  0
  3  1  1  0  0  0  0
  5 21  1  6  0  0  0
  5 18  1  0  0  0  0
  7 10  1  6  0  0  0
  7  4  1  0  0  0  0
  8  4  1  0  0  0  0
  9 15  1  0  0  0  0
 10 11  1  0  0  0  0
 11 24  1  6  0  0  0
 11 14  1  0  0  0  0
 12 13  1  0  0  0  0
 13  8  1  0  0  0  0
 14  3  1  0  0  0  0
 15  6  1  6  0  0  0
 15 18  1  0  0  0  0
 16 12  1  6  0  0  0
 16  7  1  0  0  0  0
 16  2  1  0  0  0  0
 17  5  1  0  0  0  0
 17 19  1  1  0  0  0
 18 27  1  1  0  0  0
 20 21  1  0  0  0  0
 22 23  1  0  0  0  0
 24 25  1  0  0  0  0
 26 25  1  0  0  0  0
 27 28  1  0  0  0  0
 29 36  1  0  0  0  0
 30 31  1  0  0  0  0
 31 34  1  0  0  0  0
 33 34  1  0  0  0  0
 34 32  2  0  0  0  0
 35 30  1  0  0  0  0
 36 33  1  0  0  0  0
 37 28  1  6  0  0  0
 37 29  1  0  0  0  0
 37 35  1  0  0  0  0
M  END
>  <MODEL>
4

>  <REMARK>
 VINA RESULT:      -5.3      1.805      2.173
  Name = 
  7 active torsions:
  status: ('A' for Active; 'I' for Inactive)
    1  A    between atoms: C_3  and  C_32
    2  A    between atoms: C_5  and  N_23
    3  A    between atoms: C_10  and  C_14
    4  A    between atoms: C_21  and  C_32
    5  A    between atoms: C_27  and  O_33
    6  A    between atoms: C_27  and  C_37
    7  A    between atoms: O_33  and  C_34
                            x       y       z     vdW  Elec       q    Type
                         _______ _______ _______ _____ _____    ______ ____

>  <TORSDO>
F 7

$$$$
=
 OpenBabel10262422583D

 37 40  0  0  1  0  0  0  0  0999 V2000
  185.1690  178.6280  138.3020 C   0  0  1  0  0  3  0  0  0  0  0  0
  183.1490  179.1950  141.3120 O   0  0  0  0  0  0  0  0  0  0  0  0
  186.5390  178.4640  138.9780 C   0  0  1  0  0  3  0  0  0  0  0  0
  185.2920  180.3170  143.4590 C   0  0  0  0  0  2  0  0  0  0  0  0
  182.0480  178.2530  139.3630 C   0  0  1  0  0  3  0  0  0  0  0  0
  182.7680  176.1050  136.8320 O   0  0  0  0  0  1  0  0  0  0  0  0
  185.3520  179.3250  142.2930 C   0  0  1  0  0  3  0  0  0  0  0  0
  184.8740  179.6810  144.6400 O   0  0  0  0  0  0  0  0  0  0  0  0
  184.5430  177.2730  137.9280 C   0  0  0  0  0  2  0  0  0  0  0  0
  186.5390  178.3860  142.4110 C   0  0  0  0  0  2  0  0  0  0  0  0
  187.2800  178.2910  141.0810 C   0  0  2  0  0  3  0  0  0  0  0  0
  183.3880  178.1970  143.4990 C   0  0  0  0  0  2  0  0  0  0  0  0
  183.5160  179.3790  144.4550 C   0  0  0  0  0  2  0  0  0  0  0  0
  186.4880  177.6440  140.1220 O   0  0  0  0  0  0  0  0  0  0  0  0
  183.2250  177.3820  137.1530 C   0  0  2  0  0  3  0  0  0  0  0  0
  184.0440  178.5270  142.1550 C   0  0  1  0  0  3  0  0  0  0  0  0
  183.3680  178.6080  140.0630 C   0  0  1  0  0  3  0  0  0  0  0  0
  182.0880  178.1880  137.8160 C   0  0  2  0  0  3  0  0  0  0  0  0
  184.2690  179.4850  139.1980 C   0  0  0  0  0  2  0  0  0  0  0  0
  180.1230  177.4280  140.7910 C   0  0  0  0  0  1  0  0  0  0  0  0
  181.3570  177.0440  139.9900 C   0  0  0  0  0  2  0  0  0  0  0  0
  187.5770  178.8830  136.8430 C   0  0  0  0  0  1  0  0  0  0  0  0
  187.5830  178.0450  138.0360 N   0  0  0  0  0  2  0  0  0  0  0  0
  188.5770  177.5180  141.2690 C   0  0  0  0  0  2  0  0  0  0  0  0
  188.8070  177.1830  142.7340 C   0  0  0  0  0  2  0  0  0  0  0  0
  189.5150  175.9860  142.8500 O   0  0  0  0  0  1  0  0  0  0  0  0
  182.0490  179.4770  137.2770 O   0  0  0  0  0  0  0  0  0  0  0  0
  180.6880  179.7710  137.1360 C   0  0  0  0  0  2  0  0  0  0  0  0
  180.0750  181.6400  135.5850 C   0  0  0  0  0  2  0  0  0  0  0  0
  179.7190  183.1310  138.5640 C   0  0  0  0  0  2  0  0  0  0  0  0
  179.6800  184.1180  137.4990 N   0  0  0  0  0  2  0  0  0  0  0  0
  181.9310  184.6530  137.2180 O   0  0  0  0  0  0  0  0  0  0  0  0
  180.7580  184.0510  135.2320 C   0  0  0  0  0  2  0  0  0  0  0  0
  180.8300  184.3450  136.6900 C   0  0  0  0  0  0  0  0  0  0  0  0
  179.4110  181.7410  138.0100 C   0  0  0  0  0  2  0  0  0  0  0  0
  181.0990  182.5860  134.9670 C   0  0  0  0  0  2  0  0  0  0  0  0
  180.4690  181.2730  137.0140 C   0  0  1  0  0  3  0  0  0  0  0  0
  1  9  1  1  0  0  0
  1  3  1  0  0  0  0
  1 19  1  0  0  0  0
  2 16  1  0  0  0  0
  3 23  1  6  0  0  0
  3 14  1  0  0  0  0
  4  8  1  0  0  0  0
  5 21  1  1  0  0  0
  5 17  1  0  0  0  0
  7 10  1  1  0  0  0
  7  4  1  0  0  0  0
 11 24  1  1  0  0  0
 11 10  1  0  0  0  0
 12 13  1  0  0  0  0
 13  8  1  0  0  0  0
 14 11  1  0  0  0  0
 15  6  1  1  0  0  0
 15 18  1  0  0  0  0
 15  9  1  0  0  0  0
 16  7  1  0  0  0  0
 16 12  1  1  0  0  0
 17 19  1  6  0  0  0
 17  2  1  0  0  0  0
 18 27  1  6  0  0  0
 18  5  1  0  0  0  0
 21 20  1  0  0  0  0
 22 23  1  0  0  0  0
 24 25  1  0  0  0  0
 25 26  1  0  0  0  0
 28 27  1  0  0  0  0
 29 37  1  0  0  0  0
 31 30  1  0  0  0  0
 33 34  1  0  0  0  0
 34 32  2  0  0  0  0
 34 31  1  0  0  0  0
 35 30  1  0  0  0  0
 36 33  1  0  0  0  0
 36 29  1  0  0  0  0
 37 28  1  6  0  0  0
 37 35  1  0  0  0  0
M  END
>  <MODEL>
5

>  <REMARK>
 VINA RESULT:      -5.3      5.753      9.506
  Name = 
  7 active torsions:
  status: ('A' for Active; 'I' for Inactive)
    1  A    between atoms: C_3  and  C_32
    2  A    between atoms: C_5  and  N_23
    3  A    between atoms: C_10  and  C_14
    4  A    between atoms: C_21  and  C_32
    5  A    between atoms: C_27  and  O_33
    6  A    between atoms: C_27  and  C_37
    7  A    between atoms: O_33  and  C_34
                            x       y       z     vdW  Elec       q    Type
                         _______ _______ _______ _____ _____    ______ ____

>  <TORSDO>
F 7

$$$$
=
 OpenBabel10262422583D

 37 40  0  0  1  0  0  0  0  0999 V2000
  184.0880  177.6290  138.8580 C   0  0  1  0  0  3  0  0  0  0  0  0
  181.4970  175.0390  138.6470 O   0  0  0  0  0  0  0  0  0  0  0  0
  184.8910  177.2450  137.6060 C   0  0  1  0  0  3  0  0  0  0  0  0
  182.9060  172.7020  136.9090 C   0  0  0  0  0  2  0  0  0  0  0  0
  180.9480  177.1080  139.7940 C   0  0  1  0  0  3  0  0  0  0  0  0
  181.6280  180.4230  139.5130 O   0  0  0  0  0  1  0  0  0  0  0  0
  182.9930  174.2320  136.9310 C   0  0  1  0  0  3  0  0  0  0  0  0
  181.8440  172.2720  136.0960 O   0  0  0  0  0  0  0  0  0  0  0  0
  183.1550  178.8260  138.6020 C   0  0  0  0  0  2  0  0  0  0  0  0
  183.5410  174.7860  135.6270 C   0  0  0  0  0  2  0  0  0  0  0  0
  184.6250  175.8240  135.9010 C   0  0  2  0  0  3  0  0  0  0  0  0
  180.4430  174.1170  136.6790 C   0  0  0  0  0  2  0  0  0  0  0  0
  180.6690  172.6120  136.7820 C   0  0  0  0  0  2  0  0  0  0  0  0
  184.0720  176.9670  136.4960 O   0  0  0  0  0  0  0  0  0  0  0  0
  182.4090  179.3190  139.8470 C   0  0  2  0  0  3  0  0  0  0  0  0
  181.6370  174.8770  137.2640 C   0  0  1  0  0  3  0  0  0  0  0  0
  181.9160  176.3520  138.8710 C   0  0  1  0  0  3  0  0  0  0  0  0
  181.5480  178.2840  140.6030 C   0  0  2  0  0  3  0  0  0  0  0  0
  183.3540  176.3890  139.3800 C   0  0  0  0  0  2  0  0  0  0  0  0
  179.8470  177.9480  137.6720 C   0  0  0  0  0  1  0  0  0  0  0  0
  179.6370  177.4720  139.1000 C   0  0  0  0  0  2  0  0  0  0  0  0
  187.1470  177.9570  138.0710 C   0  0  0  0  0  1  0  0  0  0  0  0
  185.9420  178.2200  137.2940 N   0  0  0  0  0  2  0  0  0  0  0  0
  185.3040  176.2130  134.5960 C   0  0  0  0  0  2  0  0  0  0  0  0
  186.8070  176.0030  134.6770 C   0  0  0  0  0  2  0  0  0  0  0  0
  187.0960  174.8620  135.4280 O   0  0  0  0  0  1  0  0  0  0  0  0
  182.2560  177.8010  141.7080 O   0  0  0  0  0  0  0  0  0  0  0  0
  182.5400  178.9320  142.4810 C   0  0  0  0  0  2  0  0  0  0  0  0
  185.0000  179.3820  142.3610 C   0  0  0  0  0  2  0  0  0  0  0  0
  184.6390  178.6400  145.6070 C   0  0  0  0  0  2  0  0  0  0  0  0
  186.0470  178.6670  145.2510 N   0  0  0  0  0  2  0  0  0  0  0  0
  186.4330  176.4830  144.5360 O   0  0  0  0  0  0  0  0  0  0  0  0
  187.1330  178.1980  143.0360 C   0  0  0  0  0  2  0  0  0  0  0  0
  186.5710  177.7170  144.3280 C   0  0  0  0  0  0  0  0  0  0  0  0
  183.8170  179.4170  144.5810 C   0  0  0  0  0  2  0  0  0  0  0  0
  186.0290  178.3200  141.9870 C   0  0  0  0  0  2  0  0  0  0  0  0
  183.8750  178.7760  143.1960 C   0  0  1  0  0  3  0  0  0  0  0  0
  1  9  1  6  0  0  0
  1 19  1  0  0  0  0
  2 17  1  0  0  0  0
  3 23  1  6  0  0  0
  3  1  1  0  0  0  0
  4  7  1  0  0  0  0
  5 21  1  6  0  0  0
  5 18  1  0  0  0  0
  7 10  1  6  0  0  0
  7 16  1  0  0  0  0
  8 13  1  0  0  0  0
  8  4  1  0  0  0  0
  9 15  1  0  0  0  0
 10 11  1  0  0  0  0
 11 24  1  6  0  0  0
 11 14  1  0  0  0  0
 12 13  1  0  0  0  0
 14  3  1  0  0  0  0
 15  6  1  6  0  0  0
 15 18  1  0  0  0  0
 16 12  1  1  0  0  0
 16  2  1  0  0  0  0
 17 19  1  1  0  0  0
 17  5  1  0  0  0  0
 18 27  1  1  0  0  0
 20 21  1  0  0  0  0
 23 22  1  0  0  0  0
 24 25  1  0  0  0  0
 25 26  1  0  0  0  0
 27 28  1  0  0  0  0
 29 37  1  0  0  0  0
 31 30  1  0  0  0  0
 33 34  1  0  0  0  0
 34 32  2  0  0  0  0
 34 31  1  0  0  0  0
 35 30  1  0  0  0  0
 36 29  1  0  0  0  0
 36 33  1  0  0  0  0
 37 28  1  6  0  0  0
 37 35  1  0  0  0  0
M  END
>  <MODEL>
6

>  <REMARK>
 VINA RESULT:      -5.2      4.620      6.203
  Name = 
  7 active torsions:
  status: ('A' for Active; 'I' for Inactive)
    1  A    between atoms: C_3  and  C_32
    2  A    between atoms: C_5  and  N_23
    3  A    between atoms: C_10  and  C_14
    4  A    between atoms: C_21  and  C_32
    5  A    between atoms: C_27  and  O_33
    6  A    between atoms: C_27  and  C_37
    7  A    between atoms: O_33  and  C_34
                            x       y       z     vdW  Elec       q    Type
                         _______ _______ _______ _____ _____    ______ ____

>  <TORSDO>
F 7

$$$$
=
 OpenBabel10262422583D

 37 40  0  0  1  0  0  0  0  0999 V2000
  188.1290  174.5080  136.5160 C   0  0  1  0  0  3  0  0  0  0  0  0
  185.5220  176.8640  137.5750 O   0  0  0  0  0  0  0  0  0  0  0  0
  187.2190  173.3760  136.0160 C   0  0  1  0  0  3  0  0  0  0  0  0
  182.9660  174.9610  138.1290 C   0  0  0  0  0  2  0  0  0  0  0  0
  187.6830  177.7690  136.9350 C   0  0  1  0  0  3  0  0  0  0  0  0
  190.1330  177.1300  134.6710 O   0  0  0  0  0  1  0  0  0  0  0  0
  184.1450  174.9260  137.1510 C   0  0  1  0  0  3  0  0  0  0  0  0
  181.9140  175.7410  137.6190 O   0  0  0  0  0  0  0  0  0  0  0  0
  188.6750  175.3650  135.3600 C   0  0  0  0  0  2  0  0  0  0  0  0
  183.8530  174.0510  135.9460 C   0  0  0  0  0  2  0  0  0  0  0  0
  185.0260  173.1150  135.6670 C   0  0  2  0  0  3  0  0  0  0  0  0
  183.3780  177.2990  136.5530 C   0  0  0  0  0  2  0  0  0  0  0  0
  182.3600  177.0700  137.6660 C   0  0  0  0  0  2  0  0  0  0  0  0
  186.1440  173.8440  135.2370 O   0  0  0  0  0  0  0  0  0  0  0  0
  189.6750  176.4430  135.7940 C   0  0  2  0  0  3  0  0  0  0  0  0
  184.5600  176.3380  136.7060 C   0  0  1  0  0  3  0  0  0  0  0  0
  186.7350  176.5610  136.9510 C   0  0  1  0  0  3  0  0  0  0  0  0
  189.1980  177.4520  136.8600 C   0  0  2  0  0  3  0  0  0  0  0  0
  187.3770  175.3240  137.5730 C   0  0  0  0  0  2  0  0  0  0  0  0
  186.7260  178.2540  134.6390 C   0  0  0  0  0  1  0  0  0  0  0  0
  187.2520  178.8430  135.9380 C   0  0  0  0  0  2  0  0  0  0  0  0
  188.0990  171.1400  136.2130 C   0  0  0  0  0  1  0  0  0  0  0  0
  187.9700  172.3070  135.3480 N   0  0  0  0  0  2  0  0  0  0  0  0
  184.6360  172.1090  134.5940 C   0  0  0  0  0  2  0  0  0  0  0  0
  184.5880  170.6980  135.1580 C   0  0  0  0  0  2  0  0  0  0  0  0
  183.9420  170.6950  136.3950 O   0  0  0  0  0  1  0  0  0  0  0  0
  189.6740  177.0690  138.1170 O   0  0  0  0  0  0  0  0  0  0  0  0
  189.3510  178.1330  138.9670 C   0  0  0  0  0  2  0  0  0  0  0  0
  188.7800  177.0970  141.1750 C   0  0  0  0  0  2  0  0  0  0  0  0
  192.0890  177.5090  141.4930 C   0  0  0  0  0  2  0  0  0  0  0  0
  191.4980  177.1720  142.7770 N   0  0  0  0  0  2  0  0  0  0  0  0
  190.9030  179.2590  143.6260 O   0  0  0  0  0  0  0  0  0  0  0  0
  189.1740  177.6170  143.6200 C   0  0  0  0  0  2  0  0  0  0  0  0
  190.5770  178.0640  143.3980 C   0  0  0  0  0  0  0  0  0  0  0  0
  191.1590  177.0930  140.3560 C   0  0  0  0  0  2  0  0  0  0  0  0
  188.3220  177.9040  142.3860 C   0  0  0  0  0  2  0  0  0  0  0  0
  189.8400  177.8600  140.3840 C   0  0  1  0  0  3  0  0  0  0  0  0
  1  9  1  6  0  0  0
  1 19  1  0  0  0  0
  3 23  1  6  0  0  0
  3  1  1  0  0  0  0
  5 21  1  6  0  0  0
  5 17  1  0  0  0  0
  7 10  1  6  0  0  0
  7  4  1  0  0  0  0
  8 13  1  0  0  0  0
  8  4  1  0  0  0  0
  9 15  1  0  0  0  0
 11 24  1  6  0  0  0
 11 10  1  0  0  0  0
 12 13  1  0  0  0  0
 14 11  1  0  0  0  0
 14  3  1  0  0  0  0
 15  6  1  6  0  0  0
 15 18  1  0  0  0  0
 16 12  1  1  0  0  0
 16  7  1  0  0  0  0
 16  2  1  0  0  0  0
 17 19  1  1  0  0  0
 17  2  1  0  0  0  0
 18  5  1  0  0  0  0
 18 27  1  1  0  0  0
 20 21  1  0  0  0  0
 23 22  1  0  0  0  0
 24 25  1  0  0  0  0
 25 26  1  0  0  0  0
 27 28  1  0  0  0  0
 29 36  1  0  0  0  0
 30 31  1  0  0  0  0
 31 34  1  0  0  0  0
 34 33  1  0  0  0  0
 34 32  2  0  0  0  0
 35 37  1  0  0  0  0
 35 30  1  0  0  0  0
 36 33  1  0  0  0  0
 37 28  1  6  0  0  0
 37 29  1  0  0  0  0
M  END
>  <MODEL>
7

>  <REMARK>
 VINA RESULT:      -5.2      2.416      4.487
  Name = 
  7 active torsions:
  status: ('A' for Active; 'I' for Inactive)
    1  A    between atoms: C_3  and  C_32
    2  A    between atoms: C_5  and  N_23
    3  A    between atoms: C_10  and  C_14
    4  A    between atoms: C_21  and  C_32
    5  A    between atoms: C_27  and  O_33
    6  A    between atoms: C_27  and  C_37
    7  A    between atoms: O_33  and  C_34
                            x       y       z     vdW  Elec       q    Type
                         _______ _______ _______ _____ _____    ______ ____

>  <TORSDO>
F 7

$$$$
=
 OpenBabel10262422583D

 37 40  0  0  1  0  0  0  0  0999 V2000
  180.4790  176.9220  137.6140 C   0  0  1  0  0  3  0  0  0  0  0  0
  183.7620  178.5590  137.5810 O   0  0  0  0  0  0  0  0  0  0  0  0
  180.8540  175.6500  136.8400 C   0  0  1  0  0  3  0  0  0  0  0  0
  185.2300  177.2520  135.0120 C   0  0  0  0  0  2  0  0  0  0  0  0
  182.2350  179.1080  139.3870 C   0  0  1  0  0  3  0  0  0  0  0  0
  179.8970  177.5500  141.2970 O   0  0  0  0  0  1  0  0  0  0  0  0
  184.2140  176.7520  136.0430 C   0  0  1  0  0  3  0  0  0  0  0  0
  186.5440  177.0930  135.4840 O   0  0  0  0  0  0  0  0  0  0  0  0
  180.4230  176.6800  139.1330 C   0  0  0  0  0  2  0  0  0  0  0  0
  184.1860  175.2360  136.1200 C   0  0  0  0  0  2  0  0  0  0  0  0
  182.7480  174.7260  136.0920 C   0  0  2  0  0  3  0  0  0  0  0  0
  185.9510  177.5520  137.7530 C   0  0  0  0  0  2  0  0  0  0  0  0
  186.7010  178.0330  136.5140 C   0  0  0  0  0  2  0  0  0  0  0  0
  182.0740  175.0910  137.2660 O   0  0  0  0  0  0  0  0  0  0  0  0
  179.9480  177.8900  139.9460 C   0  0  2  0  0  3  0  0  0  0  0  0
  184.4660  177.3590  137.4340 C   0  0  1  0  0  3  0  0  0  0  0  0
  182.5790  178.1760  138.2170 C   0  0  1  0  0  3  0  0  0  0  0  0
  180.7370  179.2050  139.7700 C   0  0  2  0  0  3  0  0  0  0  0  0
  181.4350  178.0510  137.2150 C   0  0  0  0  0  2  0  0  0  0  0  0
  183.4540  177.4280  140.8410 C   0  0  0  0  0  1  0  0  0  0  0  0
  183.1440  178.8960  140.5960 C   0  0  0  0  0  2  0  0  0  0  0  0
  179.0340  174.7220  135.5590 C   0  0  0  0  0  1  0  0  0  0  0  0
  179.7660  174.6650  136.8180 N   0  0  0  0  0  2  0  0  0  0  0  0
  182.7430  173.2100  135.9590 C   0  0  0  0  0  2  0  0  0  0  0  0
  183.7680  172.5760  136.8860 C   0  0  0  0  0  2  0  0  0  0  0  0
  183.3480  171.3030  137.2730 O   0  0  0  0  0  1  0  0  0  0  0  0
  180.0620  180.0430  138.8780 O   0  0  0  0  0  0  0  0  0  0  0  0
  180.3710  181.3420  139.2960 C   0  0  0  0  0  2  0  0  0  0  0  0
  179.7160  181.6250  136.8950 C   0  0  0  0  0  2  0  0  0  0  0  0
  179.2280  184.7250  138.0660 C   0  0  0  0  0  2  0  0  0  0  0  0
  179.1730  184.7210  136.6140 N   0  0  0  0  0  2  0  0  0  0  0  0
  181.4040  185.0260  136.0190 O   0  0  0  0  0  0  0  0  0  0  0  0
  180.3050  183.1790  134.9870 C   0  0  0  0  0  2  0  0  0  0  0  0
  180.3310  184.3900  135.8540 C   0  0  0  0  0  0  0  0  0  0  0  0
  178.9920  183.3180  138.6100 C   0  0  0  0  0  2  0  0  0  0  0  0
  180.7140  181.9430  135.7860 C   0  0  0  0  0  2  0  0  0  0  0  0
  180.0920  182.3480  138.1870 C   0  0  1  0  0  3  0  0  0  0  0  0
  1 19  1  1  0  0  0
  1  9  1  0  0  0  0
  2 17  1  0  0  0  0
  3 23  1  1  0  0  0
  3 14  1  0  0  0  0
  3  1  1  0  0  0  0
  4  8  1  0  0  0  0
  5 18  1  0  0  0  0
  5 21  1  1  0  0  0
  7  4  1  6  0  0  0
  7 10  1  0  0  0  0
  7 16  1  0  0  0  0
  8 13  1  0  0  0  0
  9 15  1  0  0  0  0
 11 24  1  1  0  0  0
 11 10  1  0  0  0  0
 11 14  1  0  0  0  0
 13 12  1  0  0  0  0
 15  6  1  1  0  0  0
 16  2  1  0  0  0  0
 16 12  1  6  0  0  0
 17 19  1  6  0  0  0
 17  5  1  0  0  0  0
 18 27  1  6  0  0  0
 18 15  1  0  0  0  0
 21 20  1  0  0  0  0
 22 23  1  0  0  0  0
 24 25  1  0  0  0  0
 25 26  1  0  0  0  0
 27 28  1  0  0  0  0
 29 37  1  0  0  0  0
 30 35  1  0  0  0  0
 31 30  1  0  0  0  0
 33 36  1  0  0  0  0
 33 34  1  0  0  0  0
 34 32  2  0  0  0  0
 34 31  1  0  0  0  0
 36 29  1  0  0  0  0
 37 35  1  0  0  0  0
 37 28  1  1  0  0  0
M  END
>  <MODEL>
8

>  <REMARK>
 VINA RESULT:      -5.0      6.819      9.833
  Name = 
  7 active torsions:
  status: ('A' for Active; 'I' for Inactive)
    1  A    between atoms: C_3  and  C_32
    2  A    between atoms: C_5  and  N_23
    3  A    between atoms: C_10  and  C_14
    4  A    between atoms: C_21  and  C_32
    5  A    between atoms: C_27  and  O_33
    6  A    between atoms: C_27  and  C_37
    7  A    between atoms: O_33  and  C_34
                            x       y       z     vdW  Elec       q    Type
                         _______ _______ _______ _____ _____    ______ ____

>  <TORSDO>
F 7

$$$$
=
 OpenBabel10262422583D

 37 40  0  0  1  0  0  0  0  0999 V2000
  189.2530  175.6640  136.6420 C   0  0  1  0  0  3  0  0  0  0  0  0
  190.9750  176.0280  139.8610 O   0  0  0  0  0  0  0  0  0  0  0  0
  188.0260  176.5370  136.9430 C   0  0  1  0  0  3  0  0  0  0  0  0
  188.5880  176.7800  141.9120 C   0  0  0  0  0  2  0  0  0  0  0  0
  192.3200  175.5370  137.9000 C   0  0  1  0  0  3  0  0  0  0  0  0
  192.3640  176.3120  134.5940 O   0  0  0  0  0  1  0  0  0  0  0  0
  188.8660  177.0570  140.4300 C   0  0  1  0  0  3  0  0  0  0  0  0
  189.2060  177.7440  142.7270 O   0  0  0  0  0  0  0  0  0  0  0  0
  190.3030  176.4110  135.8000 C   0  0  0  0  0  2  0  0  0  0  0  0
  188.0710  178.2470  139.9200 C   0  0  0  0  0  2  0  0  0  0  0  0
  187.3990  177.9110  138.5920 C   0  0  2  0  0  3  0  0  0  0  0  0
  191.1030  177.9700  141.2920 C   0  0  0  0  0  2  0  0  0  0  0  0
  190.5840  177.4930  142.6450 C   0  0  0  0  0  2  0  0  0  0  0  0
  188.3600  177.7450  137.5840 O   0  0  0  0  0  0  0  0  0  0  0  0
  191.5000  175.5510  135.3790 C   0  0  2  0  0  3  0  0  0  0  0  0
  190.3660  177.2530  140.1570 C   0  0  1  0  0  3  0  0  0  0  0  0
  190.9620  175.9790  138.4660 C   0  0  1  0  0  3  0  0  0  0  0  0
  192.2960  174.8600  136.5070 C   0  0  2  0  0  3  0  0  0  0  0  0
  189.8110  175.1140  137.9590 C   0  0  0  0  0  2  0  0  0  0  0  0
  194.0030  176.6930  139.4020 C   0  0  0  0  0  1  0  0  0  0  0  0
  193.3870  176.6240  138.0140 C   0  0  0  0  0  2  0  0  0  0  0  0
  186.4310  175.5410  135.4350 C   0  0  0  0  0  1  0  0  0  0  0  0
  187.1830  176.7460  135.7610 N   0  0  0  0  0  2  0  0  0  0  0  0
  186.4470  179.0310  138.2010 C   0  0  0  0  0  2  0  0  0  0  0  0
  185.0450  178.7670  138.7270 C   0  0  0  0  0  2  0  0  0  0  0  0
  184.5370  179.9110  139.3440 O   0  0  0  0  0  1  0  0  0  0  0  0
  191.8890  173.5280  136.6220 O   0  0  0  0  0  0  0  0  0  0  0  0
  192.6960  172.8220  135.7240 C   0  0  0  0  0  2  0  0  0  0  0  0
  194.6420  172.2940  137.2080 C   0  0  0  0  0  2  0  0  0  0  0  0
  196.1890  173.7150  134.5980 C   0  0  0  0  0  2  0  0  0  0  0  0
  197.1090  173.5770  135.7150 N   0  0  0  0  0  2  0  0  0  0  0  0
  196.7640  175.5490  136.9060 O   0  0  0  0  0  0  0  0  0  0  0  0
  196.6210  173.5380  138.1780 C   0  0  0  0  0  2  0  0  0  0  0  0
  196.8820  174.2960  136.9230 C   0  0  0  0  0  0  0  0  0  0  0  0
  195.0090  172.7600  134.7630 C   0  0  0  0  0  2  0  0  0  0  0  0
  195.1320  173.2260  138.3120 C   0  0  0  0  0  2  0  0  0  0  0  0
  194.1700  173.0910  135.9940 C   0  0  1  0  0  3  0  0  0  0  0  0
  1  9  1  1  0  0  0
  1  3  1  0  0  0  0
  1 19  1  0  0  0  0
  2 16  1  0  0  0  0
  3 23  1  6  0  0  0
  3 14  1  0  0  0  0
  4  8  1  0  0  0  0
  5 21  1  6  0  0  0
  5 17  1  0  0  0  0
  7 10  1  1  0  0  0
  7  4  1  0  0  0  0
 11 24  1  6  0  0  0
 11 10  1  0  0  0  0
 12 13  1  0  0  0  0
 13  8  1  0  0  0  0
 14 11  1  0  0  0  0
 15  6  1  1  0  0  0
 15  9  1  0  0  0  0
 15 18  1  0  0  0  0
 16  7  1  0  0  0  0
 16 12  1  1  0  0  0
 17 19  1  1  0  0  0
 17  2  1  0  0  0  0
 18 27  1  1  0  0  0
 18  5  1  0  0  0  0
 21 20  1  0  0  0  0
 22 23  1  0  0  0  0
 24 25  1  0  0  0  0
 25 26  1  0  0  0  0
 28 27  1  0  0  0  0
 29 36  1  0  0  0  0
 30 35  1  0  0  0  0
 30 31  1  0  0  0  0
 31 34  1  0  0  0  0
 32 34  2  0  0  0  0
 33 36  1  0  0  0  0
 34 33  1  0  0  0  0
 35 37  1  0  0  0  0
 37 28  1  6  0  0  0
 37 29  1  0  0  0  0
M  END
>  <MODEL>
9

>  <REMARK>
 VINA RESULT:      -5.0      2.734      7.885
  Name = 
  7 active torsions:
  status: ('A' for Active; 'I' for Inactive)
    1  A    between atoms: C_3  and  C_32
    2  A    between atoms: C_5  and  N_23
    3  A    between atoms: C_10  and  C_14
    4  A    between atoms: C_21  and  C_32
    5  A    between atoms: C_27  and  O_33
    6  A    between atoms: C_27  and  C_37
    7  A    between atoms: O_33  and  C_34
                            x       y       z     vdW  Elec       q    Type
                         _______ _______ _______ _____ _____    ______ ____

>  <TORSDO>
F 7

$$$$
