=
 OpenBabel10262420273D

 55 59  0  0  1  0  0  0  0  0999 V2000
  183.0180  176.5630  139.3000 C   0  0  0  0  0  2  0  0  0  0  0  0
  187.6820  178.1020  138.2030 C   0  0  0  0  0  3  0  0  0  0  0  0
  187.9650  177.5230  140.8770 O   0  0  0  0  0  0  0  0  0  0  0  0
  189.6890  176.4950  134.5940 O   0  0  0  0  0  0  0  0  0  0  0  0
  189.3450  176.9910  135.7010 C   0  0  0  0  0  0  0  0  0  0  0  0
  185.7470  178.6180  144.4200 C   0  0  0  0  0  3  0  0  0  0  0  0
  185.3900  179.0720  145.8130 C   0  0  0  0  0  2  0  0  0  0  0  0
  183.3440  178.5240  143.7640 C   0  0  2  0  0  3  0  0  0  0  0  0
  183.0380  179.3090  145.0340 C   0  0  0  0  0  2  0  0  0  0  0  0
  186.2590  179.0670  141.4840 C   0  0  0  0  0  2  0  0  0  0  0  0
  183.9280  178.7930  146.1560 C   0  0  0  0  0  2  0  0  0  0  0  0
  182.3500  176.3450  136.9200 C   0  0  0  0  0  3  0  0  0  0  0  0
  184.8290  178.4640  143.4460 C   0  0  0  0  0  0  0  0  0  0  0  0
  184.9690  175.8250  136.0950 C   0  0  0  0  0  0  0  0  0  0  0  0
  184.1730  176.9430  140.1750 C   0  0  0  0  0  3  0  0  0  0  0  0
  184.6980  176.0640  137.4480 C   0  0  0  0  0  3  0  0  0  0  0  0
  182.8910  178.7190  141.3460 C   0  0  0  0  0  0  0  0  0  0  0  0
  187.6400  178.5230  136.7780 C   0  0  0  0  0  2  0  0  0  0  0  0
  182.5690  179.0620  142.6010 C   0  0  0  0  0  3  0  0  0  0  0  0
  187.0830  178.7890  139.1170 N   0  0  0  0  0  0  0  0  0  0  0  0
  187.1560  178.4110  140.4930 C   0  0  0  0  0  0  0  0  0  0  0  0
  182.6210  176.1080  135.5710 C   0  0  0  0  0  3  0  0  0  0  0  0
  187.9810  177.4030  135.9090 N   0  0  0  0  0  0  0  0  0  0  0  0
  183.3840  176.3350  137.8650 C   0  0  0  0  0  0  0  0  0  0  0  0
  185.2770  178.0470  142.0600 C   0  0  1  0  0  3  0  0  0  0  0  0
  184.1010  177.8800  141.1280 C   0  0  0  0  0  0  0  0  0  0  0  0
  186.9290  176.8800  135.0480 C   0  0  0  0  0  2  0  0  0  0  0  0
  186.3680  175.5960  135.6380 C   0  0  0  0  0  2  0  0  0  0  0  0
  183.9290  175.8520  135.1590 C   0  0  0  0  0  3  0  0  0  0  0  0
  180.7030  179.3060  140.2480 C   0  0  0  0  0  2  0  0  0  0  0  0
  180.7990  180.1180  137.8880 C   0  0  2  0  0  3  0  0  0  0  0  0
  182.8650  180.1670  139.3070 C   0  0  0  0  0  2  0  0  0  0  0  0
  182.3210  179.9880  137.8940 C   0  0  0  0  0  2  0  0  0  0  0  0
  180.1750  179.0960  138.8340 C   0  0  0  0  0  2  0  0  0  0  0  0
  182.1670  179.2800  140.2390 N   0  0  0  0  0  0  0  0  0  0  0  0
  180.2580  179.9440  136.5090 C   0  0  0  0  0  0  0  0  0  0  0  0
  179.2580  180.6060  136.1190 O   0  0  0  0  0  0  0  0  0  0  0  0
  180.8990  179.0440  135.6120 N   0  0  0  0  0  1  0  0  0  0  0  0
  190.5920  177.2000  136.9860 S   0  0  0  0  0  0  0  0  0  0  0  0
  190.8460  175.4120  137.3320 C   0  0  2  0  0  0  0  0  0  0  0  0
  189.5890  174.6680  136.9080 C   0  0  0  0  0  1  0  0  0  0  0  0
  191.0660  175.1680  138.7060 O   0  0  0  0  0  0  0  0  0  0  0  0
  190.2310  175.9360  139.3820 O   0  0  0  0  0  1  0  0  0  0  0  0
  192.0160  174.9170  136.4660 C   0  0  0  0  0  2  0  0  0  0  0  0
  193.7280  176.2480  137.4920 O   0  0  0  0  0  1  0  0  0  0  0  0
  193.3620  174.9300  137.1990 C   0  0  2  0  0  3  0  0  0  0  0  0
  194.4780  174.2110  136.4140 C   0  0  1  0  0  0  0  0  0  0  0  0
  193.9100  173.6410  135.1200 C   0  0  0  0  0  1  0  0  0  0  0  0
  195.5880  175.1710  136.0820 C   0  0  0  0  0  3  0  0  0  0  0  0
  196.6230  175.1960  136.7320 O   0  0  0  0  0  0  0  0  0  0  0  0
  195.0530  173.0670  137.2540 C   0  0  0  0  0  2  0  0  0  0  0  0
  195.1870  171.8710  136.4890 O   0  0  0  0  0  0  0  0  0  0  0  0
  194.7510  170.6200  136.9410 C   0  0  0  0  0  0  0  0  0  0  0  0
  193.6320  169.9460  136.2330 C   0  0  0  0  0  1  0  0  0  0  0  0
  195.3040  170.0180  137.9900 C   0  0  0  0  0  2  0  0  0  0  0  0
  1 15  1  0  0  0  0
  2 20  2  0  0  0  0
  4  5  2  0  0  0  0
  5 23  1  0  0  0  0
  5 39  1  0  0  0  0
  6  7  1  0  0  0  0
  7 11  1  0  0  0  0
  8 19  1  6  0  0  0
  8  9  1  0  0  0  0
  9 11  1  0  0  0  0
 12 24  1  0  0  0  0
 13  8  1  0  0  0  0
 13  6  2  0  0  0  0
 14 16  1  0  0  0  0
 15 26  2  0  0  0  0
 16 24  2  0  0  0  0
 17 19  2  0  0  0  0
 18  2  1  0  0  0  0
 20 21  1  0  0  0  0
 21  3  2  0  0  0  0
 21 10  1  0  0  0  0
 22 12  2  0  0  0  0
 23 18  1  0  0  0  0
 24  1  1  0  0  0  0
 25 10  1  6  0  0  0
 25 13  1  0  0  0  0
 26 17  1  0  0  0  0
 26 25  1  0  0  0  0
 27 28  1  0  0  0  0
 27 23  1  0  0  0  0
 28 14  1  0  0  0  0
 29 22  1  0  0  0  0
 29 14  2  0  0  0  0
 31 36  1  6  0  0  0
 31 33  1  0  0  0  0
 31 34  1  0  0  0  0
 32 35  1  0  0  0  0
 33 32  1  0  0  0  0
 34 30  1  0  0  0  0
 35 30  1  0  0  0  0
 35 17  1  0  0  0  0
 37 36  2  0  0  0  0
 38 36  1  0  0  0  0
 39 40  1  0  0  0  0
 40 41  1  6  0  0  0
 40 42  1  0  0  0  0
 42 43  1  0  0  0  0
 44 46  1  0  0  0  0
 44 40  1  0  0  0  0
 46 45  1  6  0  0  0
 47 48  1  6  0  0  0
 47 46  1  0  0  0  0
 47 51  1  0  0  0  0
 49 47  1  0  0  0  0
 49 50  2  0  0  0  0
 52 53  1  0  0  0  0
 52 51  1  0  0  0  0
 53 55  2  0  0  0  0
 54 53  1  0  0  0  0
M  END
>  <MODEL>
1

>  <REMARK>
 VINA RESULT:      -6.3      0.000      0.000
  Name = 
  12 active torsions:
  status: ('A' for Active; 'I' for Inactive)
    1  A    between atoms: C_1  and  O_53
    2  A    between atoms: O_6  and  C_20
    3  A    between atoms: C_8  and  S_22
    4  A    between atoms: C_10  and  C_32
    5  A    between atoms: C_11  and  C_29
    6  A    between atoms: C_12  and  C_14
    7  A    between atoms: C_12  and  C_20
    8  A    between atoms: C_14  and  C_29
    9  A    between atoms: C_20  and  S_22
   10  A    between atoms: C_29  and  C_38
   11  A    between atoms: C_33  and  N_52
   12  A    between atoms: C_38  and  O_53
                            x       y       z     vdW  Elec       q    Type
                         _______ _______ _______ _____ _____    ______ ____

>  <TORSDO>
F 12

$$$$
=
 OpenBabel10262420273D

 55 59  0  0  1  0  0  0  0  0999 V2000
  182.9460  176.5140  139.4080 C   0  0  0  0  0  2  0  0  0  0  0  0
  187.5980  178.0290  138.2310 C   0  0  0  0  0  3  0  0  0  0  0  0
  187.9230  177.4560  140.9010 O   0  0  0  0  0  0  0  0  0  0  0  0
  189.5390  176.4050  134.5940 O   0  0  0  0  0  0  0  0  0  0  0  0
  189.2150  176.9050  135.7050 C   0  0  0  0  0  0  0  0  0  0  0  0
  185.7670  178.5700  144.4780 C   0  0  0  0  0  3  0  0  0  0  0  0
  185.4350  179.0290  145.8750 C   0  0  0  0  0  2  0  0  0  0  0  0
  183.3540  178.4850  143.8610 C   0  0  2  0  0  3  0  0  0  0  0  0
  183.0720  179.2750  145.1340 C   0  0  0  0  0  2  0  0  0  0  0  0
  186.2330  179.0090  141.5320 C   0  0  0  0  0  2  0  0  0  0  0  0
  183.9780  178.7570  146.2430 C   0  0  0  0  0  2  0  0  0  0  0  0
  182.2380  176.2930  137.0400 C   0  0  0  0  0  3  0  0  0  0  0  0
  184.8330  178.4170  143.5190 C   0  0  0  0  0  0  0  0  0  0  0  0
  184.8410  175.7600  136.1740 C   0  0  0  0  0  0  0  0  0  0  0  0
  184.1170  176.8910  140.2630 C   0  0  0  0  0  3  0  0  0  0  0  0
  184.5930  176.0030  137.5310 C   0  0  0  0  0  3  0  0  0  0  0  0
  182.8620  178.6760  141.4510 C   0  0  0  0  0  0  0  0  0  0  0  0
  187.5350  178.4470  136.8060 C   0  0  0  0  0  2  0  0  0  0  0  0
  182.5620  179.0230  142.7100 C   0  0  0  0  0  3  0  0  0  0  0  0
  187.0170  178.7220  139.1530 N   0  0  0  0  0  0  0  0  0  0  0  0
  187.1110  178.3470  140.5280 C   0  0  0  0  0  0  0  0  0  0  0  0
  182.4860  176.0520  135.6880 C   0  0  0  0  0  3  0  0  0  0  0  0
  187.8560  177.3230  135.9340 N   0  0  0  0  0  0  0  0  0  0  0  0
  183.2870  176.2810  137.9680 C   0  0  0  0  0  0  0  0  0  0  0  0
  185.2560  177.9950  142.1270 C   0  0  1  0  0  3  0  0  0  0  0  0
  184.0640  177.8310  141.2150 C   0  0  0  0  0  0  0  0  0  0  0  0
  186.7880  176.8030  135.0920 C   0  0  0  0  0  2  0  0  0  0  0  0
  186.2310  175.5230  135.6950 C   0  0  0  0  0  2  0  0  0  0  0  0
  183.7860  175.7890  135.2550 C   0  0  0  0  0  3  0  0  0  0  0  0
  180.6810  179.4630  140.4710 C   0  0  0  0  0  2  0  0  0  0  0  0
  180.6740  180.0580  138.0460 C   0  0  2  0  0  3  0  0  0  0  0  0
  182.8450  179.9420  139.2940 C   0  0  0  0  0  2  0  0  0  0  0  0
  182.1610  179.7240  137.9480 C   0  0  0  0  0  2  0  0  0  0  0  0
  180.0080  179.2110  139.1270 C   0  0  0  0  0  2  0  0  0  0  0  0
  182.1220  179.2380  140.3540 N   0  0  0  0  0  0  0  0  0  0  0  0
  179.9970  179.8470  136.7330 C   0  0  0  0  0  0  0  0  0  0  0  0
  179.8600  180.7970  135.9160 O   0  0  0  0  0  0  0  0  0  0  0  0
  179.5300  178.5470  136.3860 N   0  0  0  0  0  1  0  0  0  0  0  0
  190.4830  177.1110  136.9690 S   0  0  0  0  0  0  0  0  0  0  0  0
  191.4070  175.5640  136.6010 C   0  0  2  0  0  0  0  0  0  0  0  0
  191.0090  175.0980  135.2100 C   0  0  0  0  0  1  0  0  0  0  0  0
  191.1000  174.5360  137.5210 O   0  0  0  0  0  0  0  0  0  0  0  0
  190.2110  175.0200  138.3700 O   0  0  0  0  0  1  0  0  0  0  0  0
  192.9090  175.8940  136.5880 C   0  0  0  0  0  2  0  0  0  0  0  0
  194.0510  176.3570  138.6470 O   0  0  0  0  0  1  0  0  0  0  0  0
  193.6660  175.3200  137.7910 C   0  0  2  0  0  3  0  0  0  0  0  0
  194.8840  174.4650  137.3790 C   0  0  1  0  0  0  0  0  0  0  0  0
  194.4250  173.0560  137.0250 C   0  0  0  0  0  1  0  0  0  0  0  0
  195.5700  175.0730  136.1870 C   0  0  0  0  0  3  0  0  0  0  0  0
  196.3670  175.9920  136.3120 O   0  0  0  0  0  0  0  0  0  0  0  0
  195.8830  174.3900  138.5360 C   0  0  0  0  0  2  0  0  0  0  0  0
  196.9840  173.5380  138.2230 O   0  0  0  0  0  0  0  0  0  0  0  0
  198.2960  174.0040  138.0780 C   0  0  0  0  0  0  0  0  0  0  0  0
  198.8740  174.8740  139.1340 C   0  0  0  0  0  1  0  0  0  0  0  0
  199.0390  173.6960  137.0190 C   0  0  0  0  0  2  0  0  0  0  0  0
  1 15  1  0  0  0  0
  2 20  2  0  0  0  0
  4  5  2  0  0  0  0
  5 23  1  0  0  0  0
  5 39  1  0  0  0  0
  6  7  1  0  0  0  0
  7 11  1  0  0  0  0
  8 19  1  6  0  0  0
  8  9  1  0  0  0  0
  9 11  1  0  0  0  0
 12 24  1  0  0  0  0
 13  8  1  0  0  0  0
 13  6  2  0  0  0  0
 14 16  1  0  0  0  0
 15 26  2  0  0  0  0
 16 24  2  0  0  0  0
 17 19  2  0  0  0  0
 18  2  1  0  0  0  0
 20 21  1  0  0  0  0
 21  3  2  0  0  0  0
 21 10  1  0  0  0  0
 22 12  2  0  0  0  0
 23 18  1  0  0  0  0
 24  1  1  0  0  0  0
 25 10  1  6  0  0  0
 25 13  1  0  0  0  0
 26 17  1  0  0  0  0
 26 25  1  0  0  0  0
 27 28  1  0  0  0  0
 27 23  1  0  0  0  0
 28 14  1  0  0  0  0
 29 22  1  0  0  0  0
 29 14  2  0  0  0  0
 31 36  1  6  0  0  0
 31 34  1  0  0  0  0
 32 35  1  0  0  0  0
 33 31  1  0  0  0  0
 33 32  1  0  0  0  0
 34 30  1  0  0  0  0
 35 30  1  0  0  0  0
 35 17  1  0  0  0  0
 37 36  2  0  0  0  0
 38 36  1  0  0  0  0
 40 41  1  6  0  0  0
 40 39  1  0  0  0  0
 40 42  1  0  0  0  0
 42 43  1  0  0  0  0
 44 40  1  0  0  0  0
 44 46  1  0  0  0  0
 46 45  1  1  0  0  0
 47 48  1  6  0  0  0
 47 46  1  0  0  0  0
 47 51  1  0  0  0  0
 49 50  2  0  0  0  0
 49 47  1  0  0  0  0
 52 51  1  0  0  0  0
 53 52  1  0  0  0  0
 53 54  1  0  0  0  0
 55 53  2  0  0  0  0
M  END
>  <MODEL>
2

>  <REMARK>
 VINA RESULT:      -5.7      1.151      1.657
  Name = 
  12 active torsions:
  status: ('A' for Active; 'I' for Inactive)
    1  A    between atoms: C_1  and  O_53
    2  A    between atoms: O_6  and  C_20
    3  A    between atoms: C_8  and  S_22
    4  A    between atoms: C_10  and  C_32
    5  A    between atoms: C_11  and  C_29
    6  A    between atoms: C_12  and  C_14
    7  A    between atoms: C_12  and  C_20
    8  A    between atoms: C_14  and  C_29
    9  A    between atoms: C_20  and  S_22
   10  A    between atoms: C_29  and  C_38
   11  A    between atoms: C_33  and  N_52
   12  A    between atoms: C_38  and  O_53
                            x       y       z     vdW  Elec       q    Type
                         _______ _______ _______ _____ _____    ______ ____

>  <TORSDO>
F 12

$$$$
=
 OpenBabel10262420273D

 55 59  0  0  1  0  0  0  0  0999 V2000
  186.4010  177.6150  136.4810 C   0  0  0  0  0  2  0  0  0  0  0  0
  186.5500  177.9490  141.5010 C   0  0  0  0  0  3  0  0  0  0  0  0
  189.1160  178.7180  140.8740 O   0  0  0  0  0  0  0  0  0  0  0  0
  183.2650  180.0340  143.6210 O   0  0  0  0  0  0  0  0  0  0  0  0
  184.3310  179.4960  143.2150 C   0  0  0  0  0  0  0  0  0  0  0  0
  192.2210  177.0200  138.3940 C   0  0  0  0  0  3  0  0  0  0  0  0
  193.5550  176.5290  137.8910 C   0  0  0  0  0  2  0  0  0  0  0  0
  191.0610  176.1460  136.3690 C   0  0  2  0  0  3  0  0  0  0  0  0
  192.3330  175.3650  136.0620 C   0  0  0  0  0  2  0  0  0  0  0  0
  189.5540  176.6650  139.7520 C   0  0  0  0  0  2  0  0  0  0  0  0
  193.5360  176.2380  136.3920 C   0  0  0  0  0  2  0  0  0  0  0  0
  183.9270  177.4450  136.3990 C   0  0  0  0  0  3  0  0  0  0  0  0
  191.0620  176.7610  137.7590 C   0  0  0  0  0  0  0  0  0  0  0  0
  183.6160  178.8970  138.7660 C   0  0  0  0  0  0  0  0  0  0  0  0
  187.5470  177.7530  137.4370 C   0  0  0  0  0  3  0  0  0  0  0  0
  184.9000  178.6360  138.2700 C   0  0  0  0  0  3  0  0  0  0  0  0
  188.6540  175.6770  136.6390 C   0  0  0  0  0  0  0  0  0  0  0  0
  185.2230  177.4780  141.9730 C   0  0  0  0  0  2  0  0  0  0  0  0
  189.8460  175.2960  136.1610 C   0  0  0  0  0  3  0  0  0  0  0  0
  187.4020  177.1280  140.9840 N   0  0  0  0  0  0  0  0  0  0  0  0
  188.6960  177.5690  140.5670 C   0  0  0  0  0  0  0  0  0  0  0  0
  182.6480  177.7040  136.8940 C   0  0  0  0  0  3  0  0  0  0  0  0
  184.2990  178.6000  142.0890 N   0  0  0  0  0  0  0  0  0  0  0  0
  185.0600  177.8980  137.0860 C   0  0  0  0  0  0  0  0  0  0  0  0
  189.7590  177.2530  138.3560 C   0  0  1  0  0  3  0  0  0  0  0  0
  188.5830  176.9070  137.4740 C   0  0  0  0  0  0  0  0  0  0  0  0
  183.1690  178.6340  141.1700 C   0  0  0  0  0  2  0  0  0  0  0  0
  183.4410  179.6280  140.0520 C   0  0  0  0  0  2  0  0  0  0  0  0
  182.4930  178.4260  138.0770 C   0  0  0  0  0  3  0  0  0  0  0  0
  187.0270  174.4870  135.1300 C   0  0  0  0  0  2  0  0  0  0  0  0
  185.0560  173.4030  136.2150 C   0  0  2  0  0  3  0  0  0  0  0  0
  187.0660  173.9960  137.5910 C   0  0  0  0  0  2  0  0  0  0  0  0
  185.5470  173.8590  137.5870 C   0  0  0  0  0  2  0  0  0  0  0  0
  185.5070  174.3840  135.1360 C   0  0  0  0  0  2  0  0  0  0  0  0
  187.5060  174.8280  136.4710 N   0  0  0  0  0  0  0  0  0  0  0  0
  183.5700  173.2670  136.2010 C   0  0  0  0  0  0  0  0  0  0  0  0
  182.8480  174.1220  135.6200 O   0  0  0  0  0  0  0  0  0  0  0  0
  182.9630  172.1400  136.8240 N   0  0  0  0  0  1  0  0  0  0  0  0
  185.8690  179.8470  144.0880 S   0  0  0  0  0  0  0  0  0  0  0  0
  185.4530  178.9370  145.6310 C   0  0  2  0  0  0  0  0  0  0  0  0
  183.9680  178.6120  145.5980 C   0  0  0  0  0  1  0  0  0  0  0  0
  185.7150  179.7100  146.7840 O   0  0  0  0  0  0  0  0  0  0  0  0
  185.4520  178.9530  147.8340 O   0  0  0  0  0  1  0  0  0  0  0  0
  186.2370  177.6150  145.6340 C   0  0  0  0  0  2  0  0  0  0  0  0
  188.0050  176.9390  144.1580 O   0  0  0  0  0  1  0  0  0  0  0  0
  187.7080  177.7820  145.2350 C   0  0  2  0  0  3  0  0  0  0  0  0
  188.6790  177.5360  146.4090 C   0  0  1  0  0  0  0  0  0  0  0  0
  189.1300  178.8710  146.9900 C   0  0  0  0  0  1  0  0  0  0  0  0
  188.0030  176.7340  147.4880 C   0  0  0  0  0  3  0  0  0  0  0  0
  187.9760  177.1230  148.6470 O   0  0  0  0  0  0  0  0  0  0  0  0
  189.9060  176.7640  145.9190 C   0  0  0  0  0  2  0  0  0  0  0  0
  190.9740  177.6430  145.5700 O   0  0  0  0  0  0  0  0  0  0  0  0
  191.2590  178.0140  144.2510 C   0  0  0  0  0  0  0  0  0  0  0  0
  191.5290  176.9550  143.2440 C   0  0  0  0  0  1  0  0  0  0  0  0
  191.3000  179.2880  143.8710 C   0  0  0  0  0  2  0  0  0  0  0  0
  1 24  1  0  0  0  0
  1 15  1  0  0  0  0
  2 18  1  0  0  0  0
  5  4  2  0  0  0  0
  5 39  1  0  0  0  0
  7  6  1  0  0  0  0
  8  9  1  1  0  0  0
  8 13  1  0  0  0  0
  9 11  1  0  0  0  0
 10 21  1  0  0  0  0
 11  7  1  0  0  0  0
 12 22  2  0  0  0  0
 12 24  1  0  0  0  0
 13 25  1  0  0  0  0
 13  6  2  0  0  0  0
 14 28  1  0  0  0  0
 15 26  2  0  0  0  0
 16 14  1  0  0  0  0
 17 26  1  0  0  0  0
 18 23  1  0  0  0  0
 19  8  1  0  0  0  0
 19 17  2  0  0  0  0
 20  2  2  0  0  0  0
 21  3  2  0  0  0  0
 21 20  1  0  0  0  0
 22 29  1  0  0  0  0
 23  5  1  0  0  0  0
 24 16  2  0  0  0  0
 25 10  1  1  0  0  0
 26 25  1  0  0  0  0
 27 23  1  0  0  0  0
 28 27  1  0  0  0  0
 29 14  2  0  0  0  0
 30 34  1  0  0  0  0
 30 35  1  0  0  0  0
 31 36  1  1  0  0  0
 31 33  1  0  0  0  0
 33 32  1  0  0  0  0
 34 31  1  0  0  0  0
 35 17  1  0  0  0  0
 35 32  1  0  0  0  0
 36 38  1  0  0  0  0
 37 36  2  0  0  0  0
 39 40  1  0  0  0  0
 40 41  1  6  0  0  0
 40 44  1  0  0  0  0
 40 42  1  0  0  0  0
 42 43  1  0  0  0  0
 46 45  1  6  0  0  0
 46 44  1  0  0  0  0
 46 47  1  0  0  0  0
 47 48  1  1  0  0  0
 47 49  1  0  0  0  0
 49 50  2  0  0  0  0
 51 47  1  0  0  0  0
 52 51  1  0  0  0  0
 53 52  1  0  0  0  0
 54 53  1  0  0  0  0
 55 53  2  0  0  0  0
M  END
>  <MODEL>
3

>  <REMARK>
 VINA RESULT:      -5.4      3.673      8.868
  Name = 
  12 active torsions:
  status: ('A' for Active; 'I' for Inactive)
    1  A    between atoms: C_1  and  O_53
    2  A    between atoms: O_6  and  C_20
    3  A    between atoms: C_8  and  S_22
    4  A    between atoms: C_10  and  C_32
    5  A    between atoms: C_11  and  C_29
    6  A    between atoms: C_12  and  C_14
    7  A    between atoms: C_12  and  C_20
    8  A    between atoms: C_14  and  C_29
    9  A    between atoms: C_20  and  S_22
   10  A    between atoms: C_29  and  C_38
   11  A    between atoms: C_33  and  N_52
   12  A    between atoms: C_38  and  O_53
                            x       y       z     vdW  Elec       q    Type
                         _______ _______ _______ _____ _____    ______ ____

>  <TORSDO>
F 12

$$$$
=
 OpenBabel10262420273D

 55 59  0  0  1  0  0  0  0  0999 V2000
  183.1190  176.3360  139.5740 C   0  0  0  0  0  2  0  0  0  0  0  0
  187.6380  178.1460  138.2940 C   0  0  0  0  0  3  0  0  0  0  0  0
  188.0650  177.5720  140.9500 O   0  0  0  0  0  0  0  0  0  0  0  0
  189.5800  176.6730  134.5930 O   0  0  0  0  0  0  0  0  0  0  0  0
  189.2550  177.1440  135.7170 C   0  0  0  0  0  0  0  0  0  0  0  0
  185.9380  178.5210  144.5900 C   0  0  0  0  0  3  0  0  0  0  0  0
  185.6140  178.9490  145.9990 C   0  0  0  0  0  2  0  0  0  0  0  0
  183.5190  178.2930  144.0340 C   0  0  2  0  0  3  0  0  0  0  0  0
  183.2220  179.0530  145.3200 C   0  0  0  0  0  2  0  0  0  0  0  0
  186.3000  179.0120  141.6380 C   0  0  0  0  0  2  0  0  0  0  0  0
  184.1860  178.5840  146.4010 C   0  0  0  0  0  2  0  0  0  0  0  0
  182.3660  176.0900  137.2220 C   0  0  0  0  0  3  0  0  0  0  0  0
  184.9910  178.3190  143.6540 C   0  0  0  0  0  0  0  0  0  0  0  0
  184.9730  175.7260  136.2860 C   0  0  0  0  0  0  0  0  0  0  0  0
  184.2860  176.7780  140.4030 C   0  0  0  0  0  3  0  0  0  0  0  0
  184.7460  175.9430  137.6500 C   0  0  0  0  0  3  0  0  0  0  0  0
  182.9550  178.4720  141.6380 C   0  0  0  0  0  0  0  0  0  0  0  0
  187.5120  178.5700  136.8750 C   0  0  0  0  0  2  0  0  0  0  0  0
  182.6670  178.7900  142.9070 C   0  0  0  0  0  3  0  0  0  0  0  0
  187.0390  178.7930  139.2370 N   0  0  0  0  0  0  0  0  0  0  0  0
  187.1900  178.4140  140.6060 C   0  0  0  0  0  0  0  0  0  0  0  0
  182.5930  175.8760  135.8620 C   0  0  0  0  0  3  0  0  0  0  0  0
  187.8790  177.4750  135.9850 N   0  0  0  0  0  0  0  0  0  0  0  0
  183.4370  176.1360  138.1230 C   0  0  0  0  0  0  0  0  0  0  0  0
  185.4030  177.9350  142.2470 C   0  0  1  0  0  3  0  0  0  0  0  0
  184.2000  177.7050  141.3640 C   0  0  0  0  0  0  0  0  0  0  0  0
  186.8240  176.8960  135.1650 C   0  0  0  0  0  2  0  0  0  0  0  0
  186.3630  175.5790  135.7690 C   0  0  0  0  0  2  0  0  0  0  0  0
  183.8950  175.6970  135.3930 C   0  0  0  0  0  3  0  0  0  0  0  0
  180.7080  178.7670  140.5410 C   0  0  0  0  0  2  0  0  0  0  0  0
  180.6820  179.7890  138.2630 C   0  0  2  0  0  3  0  0  0  0  0  0
  182.6950  180.0690  139.7310 C   0  0  0  0  0  2  0  0  0  0  0  0
  182.2030  179.9250  138.2940 C   0  0  0  0  0  2  0  0  0  0  0  0
  180.2370  178.5950  139.1020 C   0  0  0  0  0  2  0  0  0  0  0  0
  182.1540  178.9950  140.5650 N   0  0  0  0  0  0  0  0  0  0  0  0
  180.1910  179.6470  136.8610 C   0  0  0  0  0  0  0  0  0  0  0  0
  179.9860  178.5090  136.3610 O   0  0  0  0  0  0  0  0  0  0  0  0
  179.9200  180.8140  136.0910 N   0  0  0  0  0  1  0  0  0  0  0  0
  190.5400  177.4180  136.9500 S   0  0  0  0  0  0  0  0  0  0  0  0
  190.8750  175.6460  137.3110 C   0  0  2  0  0  0  0  0  0  0  0  0
  189.7740  174.8190  136.6650 C   0  0  0  0  0  1  0  0  0  0  0  0
  190.8750  175.3820  138.6990 O   0  0  0  0  0  0  0  0  0  0  0  0
  190.9230  176.5460  139.3220 O   0  0  0  0  0  1  0  0  0  0  0  0
  192.2120  175.2670  136.6540 C   0  0  0  0  0  2  0  0  0  0  0  0
  193.9050  176.2240  138.0590 O   0  0  0  0  0  1  0  0  0  0  0  0
  193.3340  175.0090  137.6660 C   0  0  2  0  0  3  0  0  0  0  0  0
  194.4110  174.0420  137.1320 C   0  0  1  0  0  0  0  0  0  0  0  0
  195.6370  174.0880  138.0360 C   0  0  0  0  0  1  0  0  0  0  0  0
  193.8800  172.6350  137.0970 C   0  0  0  0  0  3  0  0  0  0  0  0
  193.7170  172.0430  136.0390 O   0  0  0  0  0  0  0  0  0  0  0  0
  194.8210  174.4480  135.7140 C   0  0  0  0  0  2  0  0  0  0  0  0
  195.4890  175.7080  135.7020 O   0  0  0  0  0  0  0  0  0  0  0  0
  194.9820  176.8380  135.0510 C   0  0  0  0  0  0  0  0  0  0  0  0
  195.8980  177.9650  134.7390 C   0  0  0  0  0  1  0  0  0  0  0  0
  193.7010  176.9360  134.7070 C   0  0  0  0  0  2  0  0  0  0  0  0
  1 15  1  0  0  0  0
  2 20  2  0  0  0  0
  4  5  2  0  0  0  0
  5 23  1  0  0  0  0
  5 39  1  0  0  0  0
  6  7  1  0  0  0  0
  7 11  1  0  0  0  0
  8 19  1  6  0  0  0
  8  9  1  0  0  0  0
  9 11  1  0  0  0  0
 12 24  1  0  0  0  0
 13  8  1  0  0  0  0
 13  6  2  0  0  0  0
 14 16  1  0  0  0  0
 15 26  2  0  0  0  0
 16 24  2  0  0  0  0
 17 19  2  0  0  0  0
 18  2  1  0  0  0  0
 20 21  1  0  0  0  0
 21  3  2  0  0  0  0
 21 10  1  0  0  0  0
 22 12  2  0  0  0  0
 23 18  1  0  0  0  0
 24  1  1  0  0  0  0
 25 10  1  6  0  0  0
 25 13  1  0  0  0  0
 26 17  1  0  0  0  0
 26 25  1  0  0  0  0
 27 28  1  0  0  0  0
 27 23  1  0  0  0  0
 28 14  1  0  0  0  0
 29 22  1  0  0  0  0
 29 14  2  0  0  0  0
 30 35  1  0  0  0  0
 31 36  1  6  0  0  0
 31 33  1  0  0  0  0
 31 34  1  0  0  0  0
 32 35  1  0  0  0  0
 33 32  1  0  0  0  0
 34 30  1  0  0  0  0
 35 17  1  0  0  0  0
 37 36  2  0  0  0  0
 38 36  1  0  0  0  0
 39 40  1  0  0  0  0
 40 41  1  6  0  0  0
 40 42  1  0  0  0  0
 42 43  1  0  0  0  0
 44 40  1  0  0  0  0
 44 46  1  0  0  0  0
 46 45  1  6  0  0  0
 47 46  1  0  0  0  0
 47 48  1  1  0  0  0
 49 47  1  0  0  0  0
 50 49  2  0  0  0  0
 51 47  1  0  0  0  0
 52 51  1  0  0  0  0
 53 52  1  0  0  0  0
 54 53  1  0  0  0  0
 55 53  2  0  0  0  0
M  END
>  <MODEL>
4

>  <REMARK>
 VINA RESULT:      -4.8      0.933      2.139
  Name = 
  12 active torsions:
  status: ('A' for Active; 'I' for Inactive)
    1  A    between atoms: C_1  and  O_53
    2  A    between atoms: O_6  and  C_20
    3  A    between atoms: C_8  and  S_22
    4  A    between atoms: C_10  and  C_32
    5  A    between atoms: C_11  and  C_29
    6  A    between atoms: C_12  and  C_14
    7  A    between atoms: C_12  and  C_20
    8  A    between atoms: C_14  and  C_29
    9  A    between atoms: C_20  and  S_22
   10  A    between atoms: C_29  and  C_38
   11  A    between atoms: C_33  and  N_52
   12  A    between atoms: C_38  and  O_53
                            x       y       z     vdW  Elec       q    Type
                         _______ _______ _______ _____ _____    ______ ____

>  <TORSDO>
F 12

$$$$
=
 OpenBabel10262420273D

 55 59  0  0  1  0  0  0  0  0999 V2000
  182.8540  176.5690  140.1550 C   0  0  0  0  0  2  0  0  0  0  0  0
  187.3240  178.2080  138.5250 C   0  0  0  0  0  3  0  0  0  0  0  0
  187.9680  177.4860  141.0990 O   0  0  0  0  0  0  0  0  0  0  0  0
  188.8260  176.8210  134.5940 O   0  0  0  0  0  0  0  0  0  0  0  0
  188.6340  177.2520  135.7630 C   0  0  0  0  0  0  0  0  0  0  0  0
  186.2480  178.3640  144.9660 C   0  0  0  0  0  3  0  0  0  0  0  0
  186.0830  178.7380  146.4170 C   0  0  0  0  0  2  0  0  0  0  0  0
  183.7790  178.2850  144.6370 C   0  0  2  0  0  3  0  0  0  0  0  0
  183.6470  178.9960  145.9780 C   0  0  0  0  0  2  0  0  0  0  0  0
  186.3570  178.9780  142.0170 C   0  0  0  0  0  2  0  0  0  0  0  0
  184.6810  178.4270  146.9390 C   0  0  0  0  0  2  0  0  0  0  0  0
  181.8700  176.4760  137.8800 C   0  0  0  0  0  3  0  0  0  0  0  0
  185.2080  178.2550  144.1180 C   0  0  0  0  0  0  0  0  0  0  0  0
  184.3540  176.0270  136.6800 C   0  0  0  0  0  0  0  0  0  0  0  0
  184.1160  176.9110  140.8860 C   0  0  0  0  0  3  0  0  0  0  0  0
  184.2680  176.1880  138.0690 C   0  0  0  0  0  3  0  0  0  0  0  0
  183.0020  178.6090  142.3170 C   0  0  0  0  0  0  0  0  0  0  0  0
  187.0890  178.7070  137.1450 C   0  0  0  0  0  2  0  0  0  0  0  0
  182.8530  178.8790  143.6210 C   0  0  0  0  0  3  0  0  0  0  0  0
  186.8530  178.8390  139.5480 N   0  0  0  0  0  0  0  0  0  0  0  0
  187.1120  178.3870  140.8790 C   0  0  0  0  0  0  0  0  0  0  0  0
  181.9560  176.3170  136.4950 C   0  0  0  0  0  3  0  0  0  0  0  0
  187.3100  177.6390  136.1760 N   0  0  0  0  0  0  0  0  0  0  0  0
  183.0220  176.4240  138.6730 C   0  0  0  0  0  0  0  0  0  0  0  0
  185.4640  177.9190  142.6630 C   0  0  1  0  0  3  0  0  0  0  0  0
  184.1720  177.7930  141.8900 C   0  0  0  0  0  0  0  0  0  0  0  0
  186.1520  177.1550  135.4380 C   0  0  0  0  0  2  0  0  0  0  0  0
  185.6780  175.8350  136.0260 C   0  0  0  0  0  2  0  0  0  0  0  0
  183.1960  176.0950  135.8960 C   0  0  0  0  0  3  0  0  0  0  0  0
  180.6990  179.3450  141.6160 C   0  0  0  0  0  2  0  0  0  0  0  0
  180.4340  180.1640  139.2720 C   0  0  2  0  0  3  0  0  0  0  0  0
  182.7150  180.0680  140.3070 C   0  0  0  0  0  2  0  0  0  0  0  0
  181.9210  179.9350  139.0110 C   0  0  0  0  0  2  0  0  0  0  0  0
  179.9190  179.1790  140.3180 C   0  0  0  0  0  2  0  0  0  0  0  0
  182.1340  179.2230  141.3500 N   0  0  0  0  0  0  0  0  0  0  0  0
  179.6480  180.0350  138.0090 C   0  0  0  0  0  0  0  0  0  0  0  0
  179.2740  178.9050  137.5950 O   0  0  0  0  0  0  0  0  0  0  0  0
  179.2900  181.2060  137.2840 N   0  0  0  0  0  1  0  0  0  0  0  0
  190.0430  177.4010  136.8770 S   0  0  0  0  0  0  0  0  0  0  0  0
  190.6260  175.6640  136.7210 C   0  0  2  0  0  0  0  0  0  0  0  0
  189.4100  174.7800  136.4880 C   0  0  0  0  0  1  0  0  0  0  0  0
  191.2820  175.2210  137.8920 O   0  0  0  0  0  0  0  0  0  0  0  0
  190.5590  175.6200  138.9230 O   0  0  0  0  0  1  0  0  0  0  0  0
  191.5340  175.5720  135.4840 C   0  0  0  0  0  2  0  0  0  0  0  0
  193.2870  177.1590  135.0790 O   0  0  0  0  0  1  0  0  0  0  0  0
  192.9850  175.9780  135.7650 C   0  0  2  0  0  3  0  0  0  0  0  0
  193.9960  174.8660  135.4170 C   0  0  1  0  0  0  0  0  0  0  0  0
  193.2980  173.7670  134.6260 C   0  0  0  0  0  1  0  0  0  0  0  0
  195.1250  175.4230  134.5940 C   0  0  0  0  0  3  0  0  0  0  0  0
  196.2350  175.6020  135.0740 O   0  0  0  0  0  0  0  0  0  0  0  0
  194.5750  174.2670  136.7020 C   0  0  0  0  0  2  0  0  0  0  0  0
  195.7340  173.4780  136.4360 O   0  0  0  0  0  0  0  0  0  0  0  0
  196.6440  173.0970  137.4290 C   0  0  0  0  0  0  0  0  0  0  0  0
  197.4430  174.1440  138.1170 C   0  0  0  0  0  1  0  0  0  0  0  0
  196.8190  171.8240  137.7720 C   0  0  0  0  0  2  0  0  0  0  0  0
  1 15  1  0  0  0  0
  2 20  2  0  0  0  0
  4  5  2  0  0  0  0
  5 23  1  0  0  0  0
  5 39  1  0  0  0  0
  6  7  1  0  0  0  0
  7 11  1  0  0  0  0
  8 19  1  6  0  0  0
  8  9  1  0  0  0  0
  9 11  1  0  0  0  0
 12 24  1  0  0  0  0
 13  8  1  0  0  0  0
 13  6  2  0  0  0  0
 14 16  1  0  0  0  0
 15 26  2  0  0  0  0
 16 24  2  0  0  0  0
 17 19  2  0  0  0  0
 18  2  1  0  0  0  0
 20 21  1  0  0  0  0
 21  3  2  0  0  0  0
 21 10  1  0  0  0  0
 22 12  2  0  0  0  0
 23 18  1  0  0  0  0
 24  1  1  0  0  0  0
 25 10  1  6  0  0  0
 25 13  1  0  0  0  0
 26 17  1  0  0  0  0
 26 25  1  0  0  0  0
 27 28  1  0  0  0  0
 27 23  1  0  0  0  0
 28 14  1  0  0  0  0
 29 22  1  0  0  0  0
 29 14  2  0  0  0  0
 31 36  1  6  0  0  0
 31 34  1  0  0  0  0
 32 35  1  0  0  0  0
 33 31  1  0  0  0  0
 33 32  1  0  0  0  0
 34 30  1  0  0  0  0
 35 30  1  0  0  0  0
 35 17  1  0  0  0  0
 37 36  2  0  0  0  0
 38 36  1  0  0  0  0
 40 41  1  6  0  0  0
 40 39  1  0  0  0  0
 40 42  1  0  0  0  0
 42 43  1  0  0  0  0
 44 46  1  0  0  0  0
 44 40  1  0  0  0  0
 46 45  1  6  0  0  0
 47 48  1  6  0  0  0
 47 46  1  0  0  0  0
 47 51  1  0  0  0  0
 49 50  2  0  0  0  0
 49 47  1  0  0  0  0
 52 51  1  0  0  0  0
 52 53  1  0  0  0  0
 53 55  2  0  0  0  0
 53 54  1  0  0  0  0
M  END
>  <MODEL>
5

>  <REMARK>
 VINA RESULT:      -4.3      1.297      1.517
  Name = 
  12 active torsions:
  status: ('A' for Active; 'I' for Inactive)
    1  A    between atoms: C_1  and  O_53
    2  A    between atoms: O_6  and  C_20
    3  A    between atoms: C_8  and  S_22
    4  A    between atoms: C_10  and  C_32
    5  A    between atoms: C_11  and  C_29
    6  A    between atoms: C_12  and  C_14
    7  A    between atoms: C_12  and  C_20
    8  A    between atoms: C_14  and  C_29
    9  A    between atoms: C_20  and  S_22
   10  A    between atoms: C_29  and  C_38
   11  A    between atoms: C_33  and  N_52
   12  A    between atoms: C_38  and  O_53
                            x       y       z     vdW  Elec       q    Type
                         _______ _______ _______ _____ _____    ______ ____

>  <TORSDO>
F 12

$$$$
=
 OpenBabel10262420273D

 55 59  0  0  1  0  0  0  0  0999 V2000
  181.4420  177.5890  138.1170 C   0  0  0  0  0  2  0  0  0  0  0  0
  186.1710  178.0100  139.7890 C   0  0  0  0  0  3  0  0  0  0  0  0
  184.8870  177.2730  142.1070 O   0  0  0  0  0  0  0  0  0  0  0  0
  189.4480  176.1160  137.4850 O   0  0  0  0  0  0  0  0  0  0  0  0
  188.6680  176.6350  138.3300 C   0  0  0  0  0  0  0  0  0  0  0  0
  181.3750  178.7230  144.1670 C   0  0  0  0  0  3  0  0  0  0  0  0
  180.4260  179.1940  145.2400 C   0  0  0  0  0  2  0  0  0  0  0  0
  179.7120  179.2340  142.3810 C   0  0  2  0  0  3  0  0  0  0  0  0
  178.9310  180.0170  143.4290 C   0  0  0  0  0  2  0  0  0  0  0  0
  183.4320  179.1550  142.0070 C   0  0  0  0  0  2  0  0  0  0  0  0
  178.9810  179.2590  144.7480 C   0  0  0  0  0  2  0  0  0  0  0  0
  182.1060  177.6330  135.7270 C   0  0  0  0  0  3  0  0  0  0  0  0
  181.1010  178.8320  142.8520 C   0  0  0  0  0  0  0  0  0  0  0  0
  184.6180  176.5350  136.2670 C   0  0  0  0  0  0  0  0  0  0  0  0
  182.0070  177.6460  139.5040 C   0  0  0  0  0  3  0  0  0  0  0  0
  183.7220  176.7780  137.3160 C   0  0  0  0  0  3  0  0  0  0  0  0
  180.6500  179.6290  140.1330 C   0  0  0  0  0  0  0  0  0  0  0  0
  186.9650  178.4860  138.6270 C   0  0  0  0  0  2  0  0  0  0  0  0
  179.7820  179.9880  141.0890 C   0  0  0  0  0  3  0  0  0  0  0  0
  185.3160  178.7830  140.3710 N   0  0  0  0  0  0  0  0  0  0  0  0
  184.5800  178.3440  141.5150 C   0  0  0  0  0  0  0  0  0  0  0  0
  183.0000  177.3930  134.6820 C   0  0  0  0  0  3  0  0  0  0  0  0
  187.5020  177.3520  137.8830 N   0  0  0  0  0  0  0  0  0  0  0  0
  182.4620  177.3380  137.0480 C   0  0  0  0  0  0  0  0  0  0  0  0
  182.1280  178.3770  141.8360 C   0  0  1  0  0  3  0  0  0  0  0  0
  181.6150  178.5340  140.4250 C   0  0  0  0  0  0  0  0  0  0  0  0
  186.9890  177.1320  136.5380 C   0  0  0  0  0  2  0  0  0  0  0  0
  185.9780  175.9960  136.5500 C   0  0  0  0  0  2  0  0  0  0  0  0
  184.2550  176.8480  134.9520 C   0  0  0  0  0  3  0  0  0  0  0  0
  181.8530  181.3130  138.7000 C   0  0  0  0  0  2  0  0  0  0  0  0
  180.6820  182.0900  136.6350 C   0  0  2  0  0  3  0  0  0  0  0  0
  179.9570  179.9660  137.7540 C   0  0  0  0  0  2  0  0  0  0  0  0
  179.4980  181.1790  136.9510 C   0  0  0  0  0  2  0  0  0  0  0  0
  181.3710  182.5320  137.9240 C   0  0  0  0  0  2  0  0  0  0  0  0
  180.7370  180.3910  138.9170 N   0  0  0  0  0  0  0  0  0  0  0  0
  180.2410  183.2800  135.8500 C   0  0  0  0  0  0  0  0  0  0  0  0
  180.1430  183.2250  134.5940 O   0  0  0  0  0  0  0  0  0  0  0  0
  179.8950  184.4800  136.5320 N   0  0  0  0  0  1  0  0  0  0  0  0
  189.0610  176.4880  140.0820 S   0  0  0  0  0  0  0  0  0  0  0  0
  190.7280  177.2600  139.9950 C   0  0  2  0  0  0  0  0  0  0  0  0
  190.7370  178.2250  138.8200 C   0  0  0  0  0  1  0  0  0  0  0  0
  191.7440  176.2990  139.7920 O   0  0  0  0  0  0  0  0  0  0  0  0
  192.7530  176.9120  139.2000 O   0  0  0  0  0  1  0  0  0  0  0  0
  190.9500  178.0670  141.2850 C   0  0  0  0  0  2  0  0  0  0  0  0
  188.9320  178.9000  142.2800 O   0  0  0  0  0  1  0  0  0  0  0  0
  189.8530  177.8490  142.3330 C   0  0  2  0  0  3  0  0  0  0  0  0
  190.4140  177.6800  143.7610 C   0  0  1  0  0  0  0  0  0  0  0  0
  190.6220  176.2010  144.0590 C   0  0  0  0  0  1  0  0  0  0  0  0
  191.7300  178.3970  143.8940 C   0  0  0  0  0  3  0  0  0  0  0  0
  191.7790  179.5980  144.1220 O   0  0  0  0  0  0  0  0  0  0  0  0
  189.4320  178.2630  144.7800 C   0  0  0  0  0  2  0  0  0  0  0  0
  188.6770  177.2380  145.4250 O   0  0  0  0  0  0  0  0  0  0  0  0
  187.8390  177.4790  146.5200 C   0  0  0  0  0  0  0  0  0  0  0  0
  188.2260  176.9540  147.8550 C   0  0  0  0  0  1  0  0  0  0  0  0
  186.7030  178.1600  146.4010 C   0  0  0  0  0  2  0  0  0  0  0  0
  1 15  1  0  0  0  0
  2 20  2  0  0  0  0
  4  5  2  0  0  0  0
  5 39  1  0  0  0  0
  6  7  1  0  0  0  0
  8 19  1  6  0  0  0
  8 13  1  0  0  0  0
  8  9  1  0  0  0  0
  9 11  1  0  0  0  0
 11  7  1  0  0  0  0
 12 24  1  0  0  0  0
 13  6  2  0  0  0  0
 14 28  1  0  0  0  0
 14 16  1  0  0  0  0
 15 26  2  0  0  0  0
 17 26  1  0  0  0  0
 17 19  2  0  0  0  0
 18  2  1  0  0  0  0
 20 21  1  0  0  0  0
 21 10  1  0  0  0  0
 21  3  2  0  0  0  0
 22 29  1  0  0  0  0
 22 12  2  0  0  0  0
 23  5  1  0  0  0  0
 23 18  1  0  0  0  0
 24 16  2  0  0  0  0
 24  1  1  0  0  0  0
 25 10  1  6  0  0  0
 25 13  1  0  0  0  0
 26 25  1  0  0  0  0
 27 28  1  0  0  0  0
 27 23  1  0  0  0  0
 29 14  2  0  0  0  0
 30 35  1  0  0  0  0
 31 36  1  1  0  0  0
 31 33  1  0  0  0  0
 31 34  1  0  0  0  0
 32 35  1  0  0  0  0
 33 32  1  0  0  0  0
 34 30  1  0  0  0  0
 35 17  1  0  0  0  0
 36 38  1  0  0  0  0
 37 36  2  0  0  0  0
 40 41  1  6  0  0  0
 40 39  1  0  0  0  0
 40 44  1  0  0  0  0
 42 40  1  0  0  0  0
 43 42  1  0  0  0  0
 44 46  1  0  0  0  0
 46 45  1  1  0  0  0
 46 47  1  0  0  0  0
 47 49  1  0  0  0  0
 47 48  1  1  0  0  0
 47 51  1  0  0  0  0
 49 50  2  0  0  0  0
 51 52  1  0  0  0  0
 52 53  1  0  0  0  0
 53 54  1  0  0  0  0
 55 53  2  0  0  0  0
M  END
>  <MODEL>
6

>  <REMARK>
 VINA RESULT:      -3.7      3.421      5.681
  Name = 
  12 active torsions:
  status: ('A' for Active; 'I' for Inactive)
    1  A    between atoms: C_1  and  O_53
    2  A    between atoms: O_6  and  C_20
    3  A    between atoms: C_8  and  S_22
    4  A    between atoms: C_10  and  C_32
    5  A    between atoms: C_11  and  C_29
    6  A    between atoms: C_12  and  C_14
    7  A    between atoms: C_12  and  C_20
    8  A    between atoms: C_14  and  C_29
    9  A    between atoms: C_20  and  S_22
   10  A    between atoms: C_29  and  C_38
   11  A    between atoms: C_33  and  N_52
   12  A    between atoms: C_38  and  O_53
                            x       y       z     vdW  Elec       q    Type
                         _______ _______ _______ _____ _____    ______ ____

>  <TORSDO>
F 12

$$$$
=
 OpenBabel10262420273D

 55 59  0  0  1  0  0  0  0  0999 V2000
  182.5150  176.3460  139.8810 C   0  0  0  0  0  2  0  0  0  0  0  0
  186.9510  178.1790  138.3700 C   0  0  0  0  0  3  0  0  0  0  0  0
  187.5080  177.6400  141.0090 O   0  0  0  0  0  0  0  0  0  0  0  0
  188.7320  176.6820  134.5990 O   0  0  0  0  0  0  0  0  0  0  0  0
  188.4550  177.1620  135.7320 C   0  0  0  0  0  0  0  0  0  0  0  0
  185.5450  178.6120  144.7350 C   0  0  0  0  0  3  0  0  0  0  0  0
  185.2840  179.0520  146.1530 C   0  0  0  0  0  2  0  0  0  0  0  0
  183.1050  178.3570  144.2950 C   0  0  2  0  0  3  0  0  0  0  0  0
  182.8620  179.1290  145.5860 C   0  0  0  0  0  2  0  0  0  0  0  0
  185.7640  179.0730  141.7640 C   0  0  0  0  0  2  0  0  0  0  0  0
  183.8800  178.6800  146.6260 C   0  0  0  0  0  2  0  0  0  0  0  0
  181.6540  176.0670  137.5700 C   0  0  0  0  0  3  0  0  0  0  0  0
  184.5570  178.3910  143.8470 C   0  0  0  0  0  0  0  0  0  0  0  0
  184.2180  175.7140  136.5160 C   0  0  0  0  0  0  0  0  0  0  0  0
  183.7150  176.8070  140.6490 C   0  0  0  0  0  3  0  0  0  0  0  0
  184.0520  175.9450  137.8880 C   0  0  0  0  0  3  0  0  0  0  0  0
  182.4280  178.5040  141.9270 C   0  0  0  0  0  0  0  0  0  0  0  0
  186.7560  178.5870  136.9550 C   0  0  0  0  0  2  0  0  0  0  0  0
  182.1970  178.8340  143.2050 C   0  0  0  0  0  3  0  0  0  0  0  0
  186.3910  178.8320  139.3330 N   0  0  0  0  0  0  0  0  0  0  0  0
  186.6110  178.4700  140.6980 C   0  0  0  0  0  0  0  0  0  0  0  0
  181.8190  175.8390  136.2030 C   0  0  0  0  0  3  0  0  0  0  0  0
  187.0910  177.4850  136.0600 N   0  0  0  0  0  0  0  0  0  0  0  0
  182.7650  176.1320  138.4190 C   0  0  0  0  0  0  0  0  0  0  0  0
  184.9070  177.9940  142.4260 C   0  0  1  0  0  3  0  0  0  0  0  0
  183.6660  177.7440  141.6030 C   0  0  0  0  0  0  0  0  0  0  0  0
  186.0030  176.8880  135.2970 C   0  0  0  0  0  2  0  0  0  0  0  0
  185.5830  175.5740  135.9370 C   0  0  0  0  0  2  0  0  0  0  0  0
  183.0990  175.6660  135.6760 C   0  0  0  0  0  3  0  0  0  0  0  0
  182.0390  179.0500  139.5010 C   0  0  0  0  0  2  0  0  0  0  0  0
  179.9520  180.3000  138.9380 C   0  0  2  0  0  3  0  0  0  0  0  0
  180.1330  179.1030  141.1340 C   0  0  0  0  0  2  0  0  0  0  0  0
  179.5490  180.3130  140.4110 C   0  0  0  0  0  2  0  0  0  0  0  0
  181.4720  180.2800  138.8030 C   0  0  0  0  0  2  0  0  0  0  0  0
  181.5730  179.0080  140.8880 N   0  0  0  0  0  0  0  0  0  0  0  0
  179.3840  181.4810  138.2240 C   0  0  0  0  0  0  0  0  0  0  0  0
  179.0870  181.4150  137.0010 O   0  0  0  0  0  0  0  0  0  0  0  0
  179.1460  182.6870  138.9430 N   0  0  0  0  0  1  0  0  0  0  0  0
  189.7940  177.4610  136.9000 S   0  0  0  0  0  0  0  0  0  0  0  0
  190.5670  175.7970  136.7730 C   0  0  2  0  0  0  0  0  0  0  0  0
  189.7220  174.9580  135.8280 C   0  0  0  0  0  1  0  0  0  0  0  0
  190.6190  175.1440  138.0250 O   0  0  0  0  0  0  0  0  0  0  0  0
  190.1670  173.9150  137.8470 O   0  0  0  0  0  1  0  0  0  0  0  0
  191.9640  175.9640  136.1530 C   0  0  0  0  0  2  0  0  0  0  0  0
  193.8360  176.7180  137.4500 O   0  0  0  0  0  1  0  0  0  0  0  0
  193.1010  175.5790  137.1070 C   0  0  2  0  0  3  0  0  0  0  0  0
  194.0210  174.4830  136.5310 C   0  0  1  0  0  0  0  0  0  0  0  0
  193.4560  173.9830  135.2070 C   0  0  0  0  0  1  0  0  0  0  0  0
  195.4040  175.0280  136.3000 C   0  0  0  0  0  3  0  0  0  0  0  0
  196.1480  175.2910  137.2340 O   0  0  0  0  0  0  0  0  0  0  0  0
  194.1130  173.3100  137.5100 C   0  0  0  0  0  2  0  0  0  0  0  0
  195.4030  172.7010  137.4790 O   0  0  0  0  0  0  0  0  0  0  0  0
  195.6060  171.3580  137.1410 C   0  0  0  0  0  0  0  0  0  0  0  0
  196.9210  170.7300  137.4360 C   0  0  0  0  0  1  0  0  0  0  0  0
  194.6600  170.6270  136.5600 C   0  0  0  0  0  2  0  0  0  0  0  0
  1 15  1  0  0  0  0
  2 20  2  0  0  0  0
  4  5  2  0  0  0  0
  5 23  1  0  0  0  0
  5 39  1  0  0  0  0
  6  7  1  0  0  0  0
  7 11  1  0  0  0  0
  8 19  1  6  0  0  0
  8  9  1  0  0  0  0
  9 11  1  0  0  0  0
 12 24  1  0  0  0  0
 13  8  1  0  0  0  0
 13  6  2  0  0  0  0
 14 16  1  0  0  0  0
 15 26  2  0  0  0  0
 16 24  2  0  0  0  0
 17 19  2  0  0  0  0
 18  2  1  0  0  0  0
 20 21  1  0  0  0  0
 21  3  2  0  0  0  0
 21 10  1  0  0  0  0
 22 12  2  0  0  0  0
 23 18  1  0  0  0  0
 24  1  1  0  0  0  0
 25 10  1  6  0  0  0
 25 13  1  0  0  0  0
 26 17  1  0  0  0  0
 26 25  1  0  0  0  0
 27 28  1  0  0  0  0
 27 23  1  0  0  0  0
 28 14  1  0  0  0  0
 29 22  1  0  0  0  0
 29 14  2  0  0  0  0
 30 35  1  0  0  0  0
 31 36  1  6  0  0  0
 31 33  1  0  0  0  0
 33 32  1  0  0  0  0
 34 31  1  0  0  0  0
 34 30  1  0  0  0  0
 35 32  1  0  0  0  0
 35 17  1  0  0  0  0
 36 38  1  0  0  0  0
 37 36  2  0  0  0  0
 40 41  1  6  0  0  0
 40 39  1  0  0  0  0
 40 42  1  0  0  0  0
 43 42  1  0  0  0  0
 44 40  1  0  0  0  0
 44 46  1  0  0  0  0
 46 45  1  6  0  0  0
 47 48  1  6  0  0  0
 47 46  1  0  0  0  0
 47 51  1  0  0  0  0
 49 47  1  0  0  0  0
 49 50  2  0  0  0  0
 52 51  1  0  0  0  0
 53 54  1  0  0  0  0
 53 52  1  0  0  0  0
 55 53  2  0  0  0  0
M  END
>  <MODEL>
7

>  <REMARK>
 VINA RESULT:      -3.6      1.168      1.467
  Name = 
  12 active torsions:
  status: ('A' for Active; 'I' for Inactive)
    1  A    between atoms: C_1  and  O_53
    2  A    between atoms: O_6  and  C_20
    3  A    between atoms: C_8  and  S_22
    4  A    between atoms: C_10  and  C_32
    5  A    between atoms: C_11  and  C_29
    6  A    between atoms: C_12  and  C_14
    7  A    between atoms: C_12  and  C_20
    8  A    between atoms: C_14  and  C_29
    9  A    between atoms: C_20  and  S_22
   10  A    between atoms: C_29  and  C_38
   11  A    between atoms: C_33  and  N_52
   12  A    between atoms: C_38  and  O_53
                            x       y       z     vdW  Elec       q    Type
                         _______ _______ _______ _____ _____    ______ ____

>  <TORSDO>
F 12

$$$$
