=
 OpenBabel10262421533D

 30 34  0  0  1  0  0  0  0  0999 V2000
  184.9620  178.5030  141.8850 C   0  0  0  0  0  2  0  0  0  0  0  0
  185.0080  179.4730  140.7980 N   0  0  0  0  0  2  0  0  0  0  0  0
  184.2680  180.2880  138.7530 O   0  0  0  0  0  0  0  0  0  0  0  0
  184.1570  179.4090  139.6500 C   0  0  0  0  0  0  0  0  0  0  0  0
  183.1480  178.3020  139.4930 C   0  0  1  0  0  3  0  0  0  0  0  0
  179.5050  178.1670  139.7750 O   0  0  0  0  0  1  0  0  0  0  0  0
  181.7390  178.8930  139.4090 C   0  0  2  0  0  3  0  0  0  0  0  0
  181.3250  179.4640  140.7590 C   0  0  2  0  0  3  0  0  0  0  0  0
  180.8000  178.1000  140.2990 C   0  0  1  0  0  3  0  0  0  0  0  0
  179.6380  180.9590  141.5550 O   0  0  0  0  0  0  0  0  0  0  0  0
  180.3550  180.5940  140.5870 C   0  0  0  0  0  0  0  0  0  0  0  0
  180.2840  181.3010  139.3520 N   0  0  0  0  0  1  0  0  0  0  0  0
  183.1060  175.6820  138.5850 S   0  0  0  0  0  1  0  0  0  0  0  0
  183.4730  177.4370  138.2640 C   0  0  1  0  0  3  0  0  0  0  0  0
  182.6680  177.8680  137.0500 C   0  0  0  0  0  1  0  0  0  0  0  0
  184.1760  179.0610  143.0610 C   0  0  0  0  0  2  0  0  0  0  0  0
  184.4500  178.2600  144.3230 C   0  0  0  0  0  2  0  0  0  0  0  0
  185.0780  179.1170  145.3220 N   0  0  0  0  0  0  0  0  0  0  0  0
  186.3770  178.5900  145.8190 C   0  0  1  0  0  0  0  0  0  0  0  0
  186.4160  178.6540  147.3250 C   0  0  0  0  0  2  0  0  0  0  0  0
  185.1420  178.3450  146.5730 C   0  0  1  0  0  3  0  0  0  0  0  0
  186.8480  177.2270  145.2920 C   0  0  0  0  0  2  0  0  0  0  0  0
  190.7480  176.2870  143.0820 C   0  0  1  0  0  3  0  0  0  0  0  0
  190.6290  178.0570  144.8500 C   0  0  0  0  0  2  0  0  0  0  0  0
  190.1080  176.1110  141.8410 O   0  0  0  0  0  0  0  0  0  0  0  0
  188.1760  177.3240  144.6100 C   0  0  0  0  0  0  0  0  0  0  0  0
  190.8970  177.7790  143.3750 C   0  0  0  0  0  2  0  0  0  0  0  0
  189.3330  175.8170  142.9810 C   0  0  2  0  0  3  0  0  0  0  0  0
  189.1970  177.8670  145.3000 C   0  0  0  0  0  3  0  0  0  0  0  0
  188.2850  176.9120  143.1680 C   0  0  0  0  0  2  0  0  0  0  0  0
  1 16  1  0  0  0  0
  2  1  1  0  0  0  0
  3  4  2  0  0  0  0
  4  2  1  0  0  0  0
  5  4  1  6  0  0  0
  7  5  1  1  0  0  0
  7  9  1  0  0  0  0
  7  8  1  0  0  0  0
  8 11  1  6  0  0  0
  9  6  1  6  0  0  0
  9  8  1  0  0  0  0
 11 10  2  0  0  0  0
 12 11  1  0  0  0  0
 14 15  1  6  0  0  0
 14 13  1  0  0  0  0
 14  5  1  0  0  0  0
 16 17  1  0  0  0  0
 17 18  1  0  0  0  0
 18 19  1  0  0  0  0
 18 21  1  0  0  0  0
 19 22  1  6  0  0  0
 19 21  1  0  0  0  0
 19 20  1  0  0  0  0
 21 20  1  1  0  0  0
 23 27  1  1  0  0  0
 24 29  1  0  0  0  0
 25 28  1  0  0  0  0
 25 23  1  0  0  0  0
 26 22  1  0  0  0  0
 26 29  2  0  0  0  0
 27 24  1  0  0  0  0
 28 23  1  0  0  0  0
 28 30  1  1  0  0  0
 30 26  1  0  0  0  0
M  END
>  <MODEL>
1

>  <REMARK>
 VINA RESULT:      -7.5      0.000      0.000
  Name = 
  10 active torsions:
  status: ('A' for Active; 'I' for Inactive)
    1  A    between atoms: C_3  and  C_11
    2  A    between atoms: C_3  and  C_19
    3  A    between atoms: C_4  and  C_13
    4  A    between atoms: N_7  and  C_16
    5  A    between atoms: C_8  and  C_13
    6  A    between atoms: C_9  and  C_17
    7  A    between atoms: N_10  and  C_15
    8  A    between atoms: C_13  and  C_30
    9  A    between atoms: C_15  and  C_26
   10  A    between atoms: C_16  and  C_26
                            x       y       z     vdW  Elec       q    Type
                         _______ _______ _______ _____ _____    ______ ____

>  <TORSDO>
F 10

$$$$
=
 OpenBabel10262421533D

 30 34  0  0  1  0  0  0  0  0999 V2000
  185.0200  178.7310  140.7580 C   0  0  0  0  0  2  0  0  0  0  0  0
  184.3740  179.7100  139.8930 N   0  0  0  0  0  2  0  0  0  0  0  0
  182.5660  180.4520  138.6390 O   0  0  0  0  0  0  0  0  0  0  0  0
  183.0460  179.5570  139.3860 C   0  0  0  0  0  0  0  0  0  0  0  0
  182.2250  178.3380  139.7170 C   0  0  1  0  0  3  0  0  0  0  0  0
  179.0790  177.7600  141.4890 O   0  0  0  0  0  1  0  0  0  0  0  0
  180.8770  178.7650  140.3020 C   0  0  2  0  0  3  0  0  0  0  0  0
  181.0410  179.1880  141.7550 C   0  0  2  0  0  3  0  0  0  0  0  0
  180.4740  177.8080  141.4080 C   0  0  1  0  0  3  0  0  0  0  0  0
  179.5920  180.2630  143.3230 O   0  0  0  0  0  0  0  0  0  0  0  0
  180.0100  180.2070  142.1370 C   0  0  0  0  0  0  0  0  0  0  0  0
  179.5450  181.1540  141.1810 N   0  0  0  0  0  1  0  0  0  0  0  0
  182.4010  175.7040  138.8710 S   0  0  0  0  0  1  0  0  0  0  0  0
  182.0470  177.4460  138.4780 C   0  0  1  0  0  3  0  0  0  0  0  0
  180.6310  177.5240  137.9330 C   0  0  0  0  0  1  0  0  0  0  0  0
  185.4280  179.3720  142.0760 C   0  0  0  0  0  2  0  0  0  0  0  0
  184.8040  178.6380  143.2500 C   0  0  0  0  0  2  0  0  0  0  0  0
  185.0510  179.3810  144.4810 N   0  0  0  0  0  0  0  0  0  0  0  0
  185.9700  178.6810  145.4180 C   0  0  1  0  0  0  0  0  0  0  0  0
  185.3930  178.6980  146.8120 C   0  0  0  0  0  2  0  0  0  0  0  0
  184.5160  178.5730  145.5870 C   0  0  1  0  0  3  0  0  0  0  0  0
  186.4700  177.2840  145.0240 C   0  0  0  0  0  2  0  0  0  0  0  0
  190.6610  176.1880  143.5360 C   0  0  1  0  0  3  0  0  0  0  0  0
  190.3090  177.4390  145.6760 C   0  0  0  0  0  2  0  0  0  0  0  0
  190.3530  176.4610  142.1900 O   0  0  0  0  0  0  0  0  0  0  0  0
  187.9320  177.2880  144.7050 C   0  0  0  0  0  0  0  0  0  0  0  0
  190.9170  177.4970  144.2790 C   0  0  0  0  0  2  0  0  0  0  0  0
  189.2740  176.0460  142.9970 C   0  0  2  0  0  3  0  0  0  0  0  0
  188.7970  177.4270  145.7280 C   0  0  0  0  0  3  0  0  0  0  0  0
  188.3630  177.2420  143.2650 C   0  0  0  0  0  2  0  0  0  0  0  0
  1 16  1  0  0  0  0
  2  1  1  0  0  0  0
  3  4  2  0  0  0  0
  4  2  1  0  0  0  0
  5  4  1  6  0  0  0
  7  5  1  1  0  0  0
  7  9  1  0  0  0  0
  7  8  1  0  0  0  0
  8 11  1  6  0  0  0
  9  6  1  6  0  0  0
  9  8  1  0  0  0  0
 11 10  2  0  0  0  0
 12 11  1  0  0  0  0
 14 15  1  1  0  0  0
 14 13  1  0  0  0  0
 14  5  1  0  0  0  0
 16 17  1  0  0  0  0
 17 18  1  0  0  0  0
 18 19  1  0  0  0  0
 18 21  1  0  0  0  0
 19 22  1  6  0  0  0
 19 21  1  0  0  0  0
 19 20  1  0  0  0  0
 21 20  1  1  0  0  0
 23 27  1  1  0  0  0
 24 29  1  0  0  0  0
 25 28  1  0  0  0  0
 25 23  1  0  0  0  0
 26 22  1  0  0  0  0
 26 29  2  0  0  0  0
 27 24  1  0  0  0  0
 28 30  1  1  0  0  0
 28 23  1  0  0  0  0
 30 26  1  0  0  0  0
M  END
>  <MODEL>
2

>  <REMARK>
 VINA RESULT:      -7.5      1.148      1.219
  Name = 
  10 active torsions:
  status: ('A' for Active; 'I' for Inactive)
    1  A    between atoms: C_3  and  C_11
    2  A    between atoms: C_3  and  C_19
    3  A    between atoms: C_4  and  C_13
    4  A    between atoms: N_7  and  C_16
    5  A    between atoms: C_8  and  C_13
    6  A    between atoms: C_9  and  C_17
    7  A    between atoms: N_10  and  C_15
    8  A    between atoms: C_13  and  C_30
    9  A    between atoms: C_15  and  C_26
   10  A    between atoms: C_16  and  C_26
                            x       y       z     vdW  Elec       q    Type
                         _______ _______ _______ _____ _____    ______ ____

>  <TORSDO>
F 10

$$$$
=
 OpenBabel10262421533D

 30 34  0  0  1  0  0  0  0  0999 V2000
  184.8330  178.2240  142.1410 C   0  0  0  0  0  2  0  0  0  0  0  0
  184.9190  179.2570  141.1180 N   0  0  0  0  0  2  0  0  0  0  0  0
  184.2510  180.2010  139.1030 O   0  0  0  0  0  0  0  0  0  0  0  0
  184.1070  179.2690  139.9400 C   0  0  0  0  0  0  0  0  0  0  0  0
  183.1010  178.1780  139.6810 C   0  0  1  0  0  3  0  0  0  0  0  0
  179.4860  177.8720  140.1370 O   0  0  0  0  0  1  0  0  0  0  0  0
  181.6840  178.7310  139.8460 C   0  0  2  0  0  3  0  0  0  0  0  0
  181.3530  178.9050  141.3220 C   0  0  2  0  0  3  0  0  0  0  0  0
  180.8130  177.7020  140.5430 C   0  0  1  0  0  3  0  0  0  0  0  0
  180.2530  180.9210  140.6570 O   0  0  0  0  0  0  0  0  0  0  0  0
  180.3630  180.0130  141.5220 C   0  0  0  0  0  0  0  0  0  0  0  0
  179.4990  180.0120  142.6550 N   0  0  0  0  0  1  0  0  0  0  0  0
  183.1350  175.7500  138.3420 S   0  0  0  0  0  1  0  0  0  0  0  0
  183.3090  177.5620  138.2880 C   0  0  1  0  0  3  0  0  0  0  0  0
  182.3020  178.0980  137.2840 C   0  0  0  0  0  1  0  0  0  0  0  0
  186.1560  178.0950  142.8800 C   0  0  0  0  0  2  0  0  0  0  0  0
  187.3210  178.4290  141.9640 C   0  0  0  0  0  2  0  0  0  0  0  0
  188.0610  177.2120  141.6480 N   0  0  0  0  0  0  0  0  0  0  0  0
  189.3800  177.1300  142.3290 C   0  0  1  0  0  0  0  0  0  0  0  0
  190.4470  176.7330  141.3380 C   0  0  0  0  0  2  0  0  0  0  0  0
  189.2880  177.6230  140.9500 C   0  0  1  0  0  3  0  0  0  0  0  0
  189.8180  178.3220  143.1930 C   0  0  0  0  0  2  0  0  0  0  0  0
  190.8540  176.2440  147.1410 C   0  0  1  0  0  3  0  0  0  0  0  0
  188.6320  177.3360  146.7710 C   0  0  0  0  0  2  0  0  0  0  0  0
  192.1790  176.7190  147.1470 O   0  0  0  0  0  0  0  0  0  0  0  0
  189.9300  177.9480  144.6370 C   0  0  0  0  0  0  0  0  0  0  0  0
  189.9100  177.3530  147.6010 C   0  0  0  0  0  2  0  0  0  0  0  0
  191.5930  176.5470  145.8770 C   0  0  2  0  0  3  0  0  0  0  0  0
  188.7890  177.7420  145.3220 C   0  0  0  0  0  3  0  0  0  0  0  0
  191.2900  177.9190  145.2780 C   0  0  0  0  0  2  0  0  0  0  0  0
  1 16  1  0  0  0  0
  2  1  1  0  0  0  0
  3  4  2  0  0  0  0
  4  2  1  0  0  0  0
  5  4  1  6  0  0  0
  7  5  1  1  0  0  0
  7  9  1  0  0  0  0
  7  8  1  0  0  0  0
  8 11  1  6  0  0  0
  9  6  1  6  0  0  0
  9  8  1  0  0  0  0
 10 11  2  0  0  0  0
 11 12  1  0  0  0  0
 14 15  1  6  0  0  0
 14 13  1  0  0  0  0
 14  5  1  0  0  0  0
 17 16  1  0  0  0  0
 18 17  1  0  0  0  0
 18 19  1  0  0  0  0
 19 22  1  1  0  0  0
 20 19  1  0  0  0  0
 21 20  1  6  0  0  0
 21 18  1  0  0  0  0
 21 19  1  0  0  0  0
 22 26  1  0  0  0  0
 23 25  1  0  0  0  0
 23 27  1  1  0  0  0
 24 27  1  0  0  0  0
 26 30  1  0  0  0  0
 26 29  2  0  0  0  0
 28 30  1  1  0  0  0
 28 23  1  0  0  0  0
 28 25  1  0  0  0  0
 29 24  1  0  0  0  0
M  END
>  <MODEL>
3

>  <REMARK>
 VINA RESULT:      -7.1      1.973      3.236
  Name = 
  10 active torsions:
  status: ('A' for Active; 'I' for Inactive)
    1  A    between atoms: C_3  and  C_11
    2  A    between atoms: C_3  and  C_19
    3  A    between atoms: C_4  and  C_13
    4  A    between atoms: N_7  and  C_16
    5  A    between atoms: C_8  and  C_13
    6  A    between atoms: C_9  and  C_17
    7  A    between atoms: N_10  and  C_15
    8  A    between atoms: C_13  and  C_30
    9  A    between atoms: C_15  and  C_26
   10  A    between atoms: C_16  and  C_26
                            x       y       z     vdW  Elec       q    Type
                         _______ _______ _______ _____ _____    ______ ____

>  <TORSDO>
F 10

$$$$
=
 OpenBabel10262421533D

 30 34  0  0  1  0  0  0  0  0999 V2000
  188.0050  177.9510  140.5460 C   0  0  0  0  0  2  0  0  0  0  0  0
  188.3580  178.8930  139.4910 N   0  0  0  0  0  2  0  0  0  0  0  0
  189.1050  179.3730  137.3450 O   0  0  0  0  0  0  0  0  0  0  0  0
  188.8170  178.4900  138.1980 C   0  0  0  0  0  0  0  0  0  0  0  0
  188.9750  177.0330  137.8500 C   0  0  1  0  0  3  0  0  0  0  0  0
  186.7730  174.8100  135.9570 O   0  0  0  0  0  1  0  0  0  0  0  0
  188.0550  176.6770  136.6800 C   0  0  2  0  0  3  0  0  0  0  0  0
  186.6080  176.9970  137.0290 C   0  0  2  0  0  3  0  0  0  0  0  0
  187.1200  175.5540  137.0890 C   0  0  1  0  0  3  0  0  0  0  0  0
  186.4100  177.7620  134.7720 O   0  0  0  0  0  0  0  0  0  0  0  0
  185.8200  177.3270  135.7960 C   0  0  0  0  0  0  0  0  0  0  0  0
  184.4160  177.0920  135.7540 N   0  0  0  0  0  1  0  0  0  0  0  0
  191.4670  176.7840  139.0400 S   0  0  0  0  0  1  0  0  0  0  0  0
  190.4430  176.7020  137.5360 C   0  0  1  0  0  3  0  0  0  0  0  0
  190.5880  175.3090  136.9490 C   0  0  0  0  0  1  0  0  0  0  0  0
  187.5510  178.6950  141.7920 C   0  0  0  0  0  2  0  0  0  0  0  0
  186.2560  178.1100  142.3300 C   0  0  0  0  0  2  0  0  0  0  0  0
  185.5500  179.1180  143.1130 N   0  0  0  0  0  0  0  0  0  0  0  0
  185.4820  178.7970  144.5630 C   0  0  1  0  0  0  0  0  0  0  0  0
  184.0730  178.9910  145.0680 C   0  0  0  0  0  2  0  0  0  0  0  0
  184.3580  178.4670  143.6790 C   0  0  1  0  0  3  0  0  0  0  0  0
  186.0780  177.4620  145.0330 C   0  0  0  0  0  2  0  0  0  0  0  0
  189.9860  177.0130  147.3790 C   0  0  1  0  0  3  0  0  0  0  0  0
  187.9290  177.9890  148.4210 C   0  0  0  0  0  2  0  0  0  0  0  0
  190.7900  177.3870  146.2860 O   0  0  0  0  0  0  0  0  0  0  0  0
  187.2280  177.6670  145.9680 C   0  0  0  0  0  0  0  0  0  0  0  0
  189.3720  178.2590  148.0140 C   0  0  0  0  0  2  0  0  0  0  0  0
  189.5640  176.7700  145.9660 C   0  0  2  0  0  3  0  0  0  0  0  0
  186.9540  177.7980  147.2800 C   0  0  0  0  0  3  0  0  0  0  0  0
  188.6110  177.8190  145.3970 C   0  0  0  0  0  2  0  0  0  0  0  0
  1 16  1  0  0  0  0
  2  1  1  0  0  0  0
  3  4  2  0  0  0  0
  4  2  1  0  0  0  0
  5  4  1  6  0  0  0
  7  8  1  0  0  0  0
  7  9  1  0  0  0  0
  7  5  1  1  0  0  0
  8 11  1  6  0  0  0
  8  9  1  0  0  0  0
  9  6  1  6  0  0  0
 10 11  2  0  0  0  0
 12 11  1  0  0  0  0
 14 15  1  1  0  0  0
 14  5  1  0  0  0  0
 14 13  1  0  0  0  0
 16 17  1  0  0  0  0
 17 18  1  0  0  0  0
 18 21  1  0  0  0  0
 18 19  1  0  0  0  0
 19 22  1  1  0  0  0
 19 20  1  0  0  0  0
 21 19  1  0  0  0  0
 21 20  1  1  0  0  0
 22 26  1  0  0  0  0
 23 27  1  6  0  0  0
 25 23  1  0  0  0  0
 26 29  2  0  0  0  0
 27 24  1  0  0  0  0
 28 30  1  6  0  0  0
 28 25  1  0  0  0  0
 28 23  1  0  0  0  0
 29 24  1  0  0  0  0
 30 26  1  0  0  0  0
M  END
>  <MODEL>
4

>  <REMARK>
 VINA RESULT:      -7.0      4.302      5.521
  Name = 
  10 active torsions:
  status: ('A' for Active; 'I' for Inactive)
    1  A    between atoms: C_3  and  C_11
    2  A    between atoms: C_3  and  C_19
    3  A    between atoms: C_4  and  C_13
    4  A    between atoms: N_7  and  C_16
    5  A    between atoms: C_8  and  C_13
    6  A    between atoms: C_9  and  C_17
    7  A    between atoms: N_10  and  C_15
    8  A    between atoms: C_13  and  C_30
    9  A    between atoms: C_15  and  C_26
   10  A    between atoms: C_16  and  C_26
                            x       y       z     vdW  Elec       q    Type
                         _______ _______ _______ _____ _____    ______ ____

>  <TORSDO>
F 10

$$$$
=
 OpenBabel10262421533D

 30 34  0  0  1  0  0  0  0  0999 V2000
  184.9180  178.4610  141.7960 C   0  0  0  0  0  2  0  0  0  0  0  0
  184.6380  179.5520  140.8720 N   0  0  0  0  0  2  0  0  0  0  0  0
  184.2540  180.3740  138.7340 O   0  0  0  0  0  0  0  0  0  0  0  0
  184.4920  179.3720  139.4610 C   0  0  0  0  0  0  0  0  0  0  0  0
  184.6350  178.0090  138.8350 C   0  0  1  0  0  3  0  0  0  0  0  0
  182.0420  175.4820  138.3190 O   0  0  0  0  0  1  0  0  0  0  0  0
  183.2700  177.5180  138.3470 C   0  0  2  0  0  3  0  0  0  0  0  0
  182.2380  177.6310  139.4610 C   0  0  2  0  0  3  0  0  0  0  0  0
  182.8680  176.2770  139.1200 C   0  0  1  0  0  3  0  0  0  0  0  0
  179.8540  177.4850  139.5630 O   0  0  0  0  0  0  0  0  0  0  0  0
  180.8630  177.8370  138.8990 C   0  0  0  0  0  0  0  0  0  0  0  0
  180.6880  178.4890  137.6440 N   0  0  0  0  0  1  0  0  0  0  0  0
  187.3560  177.8210  138.3390 S   0  0  0  0  0  1  0  0  0  0  0  0
  185.6660  178.0370  137.6950 C   0  0  1  0  0  3  0  0  0  0  0  0
  185.4080  176.9360  136.6810 C   0  0  0  0  0  1  0  0  0  0  0  0
  184.0960  178.6140  143.0660 C   0  0  0  0  0  2  0  0  0  0  0  0
  184.8150  177.9970  144.2530 C   0  0  0  0  0  2  0  0  0  0  0  0
  185.2670  179.0500  145.1560 N   0  0  0  0  0  0  0  0  0  0  0  0
  186.4500  178.6620  145.9700 C   0  0  1  0  0  0  0  0  0  0  0  0
  186.2210  179.0260  147.4160 C   0  0  0  0  0  2  0  0  0  0  0  0
  185.0970  178.5450  146.5270 C   0  0  1  0  0  3  0  0  0  0  0  0
  186.9880  177.2320  145.8190 C   0  0  0  0  0  2  0  0  0  0  0  0
  190.6950  176.1430  143.3600 C   0  0  1  0  0  3  0  0  0  0  0  0
  190.8800  177.1680  145.6360 C   0  0  0  0  0  2  0  0  0  0  0  0
  190.1270  176.5710  142.1460 O   0  0  0  0  0  0  0  0  0  0  0  0
  188.3470  177.2150  145.1940 C   0  0  0  0  0  0  0  0  0  0  0  0
  191.1820  177.3530  144.1540 C   0  0  0  0  0  2  0  0  0  0  0  0
  189.2200  176.1140  143.1220 C   0  0  2  0  0  3  0  0  0  0  0  0
  189.4150  177.2090  146.0140 C   0  0  0  0  0  3  0  0  0  0  0  0
  188.4600  177.3070  143.6970 C   0  0  0  0  0  2  0  0  0  0  0  0
  1 16  1  0  0  0  0
  2  1  1  0  0  0  0
  3  4  2  0  0  0  0
  4  2  1  0  0  0  0
  5  4  1  6  0  0  0
  7  5  1  1  0  0  0
  7  9  1  0  0  0  0
  7  8  1  0  0  0  0
  8 11  1  6  0  0  0
  9  6  1  6  0  0  0
  9  8  1  0  0  0  0
 11 10  2  0  0  0  0
 12 11  1  0  0  0  0
 14 15  1  6  0  0  0
 14 13  1  0  0  0  0
 14  5  1  0  0  0  0
 16 17  1  0  0  0  0
 17 18  1  0  0  0  0
 18 19  1  0  0  0  0
 18 21  1  0  0  0  0
 19 22  1  6  0  0  0
 19 21  1  0  0  0  0
 19 20  1  0  0  0  0
 21 20  1  1  0  0  0
 23 27  1  1  0  0  0
 24 29  1  0  0  0  0
 25 28  1  0  0  0  0
 25 23  1  0  0  0  0
 26 22  1  0  0  0  0
 26 29  2  0  0  0  0
 27 24  1  0  0  0  0
 28 23  1  0  0  0  0
 28 30  1  1  0  0  0
 30 26  1  0  0  0  0
M  END
>  <MODEL>
5

>  <REMARK>
 VINA RESULT:      -7.0      1.635      1.994
  Name = 
  10 active torsions:
  status: ('A' for Active; 'I' for Inactive)
    1  A    between atoms: C_3  and  C_11
    2  A    between atoms: C_3  and  C_19
    3  A    between atoms: C_4  and  C_13
    4  A    between atoms: N_7  and  C_16
    5  A    between atoms: C_8  and  C_13
    6  A    between atoms: C_9  and  C_17
    7  A    between atoms: N_10  and  C_15
    8  A    between atoms: C_13  and  C_30
    9  A    between atoms: C_15  and  C_26
   10  A    between atoms: C_16  and  C_26
                            x       y       z     vdW  Elec       q    Type
                         _______ _______ _______ _____ _____    ______ ____

>  <TORSDO>
F 10

$$$$
=
 OpenBabel10262421533D

 30 34  0  0  1  0  0  0  0  0999 V2000
  188.5540  177.9440  140.2820 C   0  0  0  0  0  2  0  0  0  0  0  0
  188.7690  178.7480  139.0860 N   0  0  0  0  0  2  0  0  0  0  0  0
  188.2340  179.3600  136.9110 O   0  0  0  0  0  0  0  0  0  0  0  0
  187.9750  178.6270  137.9030 C   0  0  0  0  0  0  0  0  0  0  0  0
  186.8510  177.6270  137.8230 C   0  0  1  0  0  3  0  0  0  0  0  0
  183.2320  177.8560  137.3590 O   0  0  0  0  0  1  0  0  0  0  0  0
  185.5070  178.3570  137.8330 C   0  0  2  0  0  3  0  0  0  0  0  0
  184.8220  178.1840  139.1820 C   0  0  2  0  0  3  0  0  0  0  0  0
  184.3810  177.3500  137.9740 C   0  0  1  0  0  3  0  0  0  0  0  0
  184.2250  180.4940  139.0380 O   0  0  0  0  0  0  0  0  0  0  0  0
  183.9360  179.3550  139.4870 C   0  0  0  0  0  0  0  0  0  0  0  0
  182.7330  179.1740  140.2290 N   0  0  0  0  0  1  0  0  0  0  0  0
  188.7390  176.2530  136.3270 S   0  0  0  0  0  1  0  0  0  0  0  0
  187.0010  176.7350  136.5790 C   0  0  1  0  0  3  0  0  0  0  0  0
  186.1770  175.4650  136.7000 C   0  0  0  0  0  1  0  0  0  0  0  0
  187.9510  178.7920  141.3920 C   0  0  0  0  0  2  0  0  0  0  0  0
  186.8350  178.0420  142.0990 C   0  0  0  0  0  2  0  0  0  0  0  0
  185.9890  178.9870  142.8190 N   0  0  0  0  0  0  0  0  0  0  0  0
  185.7810  178.6240  144.2470 C   0  0  1  0  0  0  0  0  0  0  0  0
  184.3170  178.7250  144.5960 C   0  0  0  0  0  2  0  0  0  0  0  0
  184.7830  178.2560  143.2360 C   0  0  1  0  0  3  0  0  0  0  0  0
  186.4000  177.3130  144.7510 C   0  0  0  0  0  2  0  0  0  0  0  0
  190.1290  177.0160  147.3950 C   0  0  1  0  0  3  0  0  0  0  0  0
  187.9530  177.8830  148.2800 C   0  0  0  0  0  2  0  0  0  0  0  0
  190.9980  177.4400  146.3720 O   0  0  0  0  0  0  0  0  0  0  0  0
  187.4620  177.5590  145.7760 C   0  0  0  0  0  0  0  0  0  0  0  0
  189.4100  178.2250  147.9900 C   0  0  0  0  0  2  0  0  0  0  0  0
  189.8310  176.7710  145.9510 C   0  0  2  0  0  3  0  0  0  0  0  0
  187.0800  177.6610  147.0630 C   0  0  0  0  0  3  0  0  0  0  0  0
  188.8770  177.7820  145.3180 C   0  0  0  0  0  2  0  0  0  0  0  0
  1 16  1  0  0  0  0
  2  1  1  0  0  0  0
  3  4  2  0  0  0  0
  4  2  1  0  0  0  0
  5  4  1  6  0  0  0
  7  5  1  1  0  0  0
  7  9  1  0  0  0  0
  7  8  1  0  0  0  0
  8 11  1  6  0  0  0
  9  6  1  6  0  0  0
  9  8  1  0  0  0  0
 10 11  2  0  0  0  0
 11 12  1  0  0  0  0
 13 14  1  0  0  0  0
 14 15  1  1  0  0  0
 14  5  1  0  0  0  0
 16 17  1  0  0  0  0
 17 18  1  0  0  0  0
 18 21  1  0  0  0  0
 18 19  1  0  0  0  0
 19 20  1  0  0  0  0
 19 22  1  1  0  0  0
 21 19  1  0  0  0  0
 21 20  1  1  0  0  0
 22 26  1  0  0  0  0
 23 27  1  6  0  0  0
 25 23  1  0  0  0  0
 26 29  2  0  0  0  0
 27 24  1  0  0  0  0
 28 30  1  6  0  0  0
 28 25  1  0  0  0  0
 28 23  1  0  0  0  0
 29 24  1  0  0  0  0
 30 26  1  0  0  0  0
M  END
>  <MODEL>
6

>  <REMARK>
 VINA RESULT:      -6.9      2.774      3.907
  Name = 
  10 active torsions:
  status: ('A' for Active; 'I' for Inactive)
    1  A    between atoms: C_3  and  C_11
    2  A    between atoms: C_3  and  C_19
    3  A    between atoms: C_4  and  C_13
    4  A    between atoms: N_7  and  C_16
    5  A    between atoms: C_8  and  C_13
    6  A    between atoms: C_9  and  C_17
    7  A    between atoms: N_10  and  C_15
    8  A    between atoms: C_13  and  C_30
    9  A    between atoms: C_15  and  C_26
   10  A    between atoms: C_16  and  C_26
                            x       y       z     vdW  Elec       q    Type
                         _______ _______ _______ _____ _____    ______ ____

>  <TORSDO>
F 10

$$$$
=
 OpenBabel10262421533D

 30 34  0  0  1  0  0  0  0  0999 V2000
  187.9290  178.5500  141.5890 C   0  0  0  0  0  2  0  0  0  0  0  0
  188.4040  177.1840  141.7670 N   0  0  0  0  0  2  0  0  0  0  0  0
  189.5390  175.5550  142.9710 O   0  0  0  0  0  0  0  0  0  0  0  0
  189.1650  176.7570  142.9000 C   0  0  0  0  0  0  0  0  0  0  0  0
  189.5360  177.7230  143.9940 C   0  0  1  0  0  3  0  0  0  0  0  0
  190.3340  176.2870  147.2610 O   0  0  0  0  0  1  0  0  0  0  0  0
  189.1820  177.1240  145.3570 C   0  0  2  0  0  3  0  0  0  0  0  0
  189.1070  178.2200  146.4120 C   0  0  2  0  0  3  0  0  0  0  0  0
  190.3420  177.3180  146.3160 C   0  0  1  0  0  3  0  0  0  0  0  0
  187.1500  177.1250  147.2420 O   0  0  0  0  0  0  0  0  0  0  0  0
  188.1470  177.8480  147.5020 C   0  0  0  0  0  0  0  0  0  0  0  0
  188.3920  178.2530  148.8460 N   0  0  0  0  0  1  0  0  0  0  0  0
  191.7630  177.4960  142.3570 S   0  0  0  0  0  1  0  0  0  0  0  0
  191.0250  178.0970  143.9100 C   0  0  1  0  0  3  0  0  0  0  0  0
  191.2290  179.6010  143.9730 C   0  0  0  0  0  1  0  0  0  0  0  0
  186.4200  178.5700  141.4080 C   0  0  0  0  0  2  0  0  0  0  0  0
  185.7460  179.2990  142.5580 C   0  0  0  0  0  2  0  0  0  0  0  0
  185.6020  178.3950  143.6940 N   0  0  0  0  0  0  0  0  0  0  0  0
  184.2970  178.5330  144.3950 C   0  0  1  0  0  0  0  0  0  0  0  0
  184.5200  178.6160  145.8850 C   0  0  0  0  0  2  0  0  0  0  0  0
  185.4860  179.2310  144.8980 C   0  0  1  0  0  3  0  0  0  0  0  0
  183.3280  179.6160  143.9010 C   0  0  0  0  0  2  0  0  0  0  0  0
  179.8090  178.8160  141.0810 C   0  0  1  0  0  3  0  0  0  0  0  0
  179.7100  178.2220  143.5110 C   0  0  0  0  0  2  0  0  0  0  0  0
  180.6370  178.4130  140.0160 O   0  0  0  0  0  0  0  0  0  0  0  0
  182.1360  179.0240  143.2180 C   0  0  0  0  0  0  0  0  0  0  0  0
  179.6770  177.6760  142.0880 C   0  0  0  0  0  2  0  0  0  0  0  0
  181.2000  179.3380  140.9180 C   0  0  2  0  0  3  0  0  0  0  0  0
  181.0390  178.7880  143.9630 C   0  0  0  0  0  3  0  0  0  0  0  0
  182.2490  178.6280  141.7720 C   0  0  0  0  0  2  0  0  0  0  0  0
  1  2  1  0  0  0  0
  2  4  1  0  0  0  0
  4  3  2  0  0  0  0
  5  4  1  6  0  0  0
  7  5  1  6  0  0  0
  7  9  1  0  0  0  0
  7  8  1  0  0  0  0
  8 11  1  1  0  0  0
  9  8  1  0  0  0  0
  9  6  1  1  0  0  0
 10 11  2  0  0  0  0
 11 12  1  0  0  0  0
 13 14  1  0  0  0  0
 14 15  1  6  0  0  0
 14  5  1  0  0  0  0
 16  1  1  0  0  0  0
 16 17  1  0  0  0  0
 17 18  1  0  0  0  0
 18 19  1  0  0  0  0
 18 21  1  0  0  0  0
 19 22  1  6  0  0  0
 19 21  1  0  0  0  0
 19 20  1  0  0  0  0
 21 20  1  1  0  0  0
 23 27  1  1  0  0  0
 24 29  1  0  0  0  0
 25 28  1  0  0  0  0
 25 23  1  0  0  0  0
 26 22  1  0  0  0  0
 26 29  2  0  0  0  0
 27 24  1  0  0  0  0
 28 23  1  0  0  0  0
 28 30  1  1  0  0  0
 30 26  1  0  0  0  0
M  END
>  <MODEL>
7

>  <REMARK>
 VINA RESULT:      -6.9      3.024      8.459
  Name = 
  10 active torsions:
  status: ('A' for Active; 'I' for Inactive)
    1  A    between atoms: C_3  and  C_11
    2  A    between atoms: C_3  and  C_19
    3  A    between atoms: C_4  and  C_13
    4  A    between atoms: N_7  and  C_16
    5  A    between atoms: C_8  and  C_13
    6  A    between atoms: C_9  and  C_17
    7  A    between atoms: N_10  and  C_15
    8  A    between atoms: C_13  and  C_30
    9  A    between atoms: C_15  and  C_26
   10  A    between atoms: C_16  and  C_26
                            x       y       z     vdW  Elec       q    Type
                         _______ _______ _______ _____ _____    ______ ____

>  <TORSDO>
F 10

$$$$
=
 OpenBabel10262421533D

 30 34  0  0  1  0  0  0  0  0999 V2000
  188.1920  177.9520  140.4240 C   0  0  0  0  0  2  0  0  0  0  0  0
  188.4190  178.9580  139.3950 N   0  0  0  0  0  2  0  0  0  0  0  0
  188.9780  179.5740  137.2270 O   0  0  0  0  0  0  0  0  0  0  0  0
  188.7970  178.6390  138.0530 C   0  0  0  0  0  0  0  0  0  0  0  0
  188.9980  177.2100  137.6230 C   0  0  1  0  0  3  0  0  0  0  0  0
  191.7010  174.8540  138.3430 O   0  0  0  0  0  1  0  0  0  0  0  0
  190.0310  176.5360  138.5290 C   0  0  2  0  0  3  0  0  0  0  0  0
  191.3630  177.2700  138.4490 C   0  0  2  0  0  3  0  0  0  0  0  0
  191.1510  175.9590  137.6850 C   0  0  1  0  0  3  0  0  0  0  0  0
  191.5160  176.9490  140.8130 O   0  0  0  0  0  0  0  0  0  0  0  0
  192.1310  177.1280  139.7290 C   0  0  0  0  0  0  0  0  0  0  0  0
  193.5550  177.1290  139.7190 N   0  0  0  0  0  1  0  0  0  0  0  0
  186.3820  177.3730  136.7180 S   0  0  0  0  0  1  0  0  0  0  0  0
  187.6630  176.4470  137.6220 C   0  0  1  0  0  3  0  0  0  0  0  0
  187.8000  175.0810  136.9700 C   0  0  0  0  0  1  0  0  0  0  0  0
  187.7350  178.6080  141.7180 C   0  0  0  0  0  2  0  0  0  0  0  0
  186.3560  178.1110  142.1180 C   0  0  0  0  0  2  0  0  0  0  0  0
  185.6870  179.1230  142.9290 N   0  0  0  0  0  0  0  0  0  0  0  0
  185.6640  178.7970  144.3790 C   0  0  1  0  0  0  0  0  0  0  0  0
  184.2750  179.0020  144.9320 C   0  0  0  0  0  2  0  0  0  0  0  0
  184.5080  178.4820  143.5310 C   0  0  1  0  0  3  0  0  0  0  0  0
  186.2610  177.4530  144.8230 C   0  0  0  0  0  2  0  0  0  0  0  0
  190.0520  176.9600  147.3450 C   0  0  1  0  0  3  0  0  0  0  0  0
  187.9420  177.8980  148.3110 C   0  0  0  0  0  2  0  0  0  0  0  0
  190.9070  177.3660  146.3030 O   0  0  0  0  0  0  0  0  0  0  0  0
  187.3630  177.6380  145.8180 C   0  0  0  0  0  0  0  0  0  0  0  0
  189.4020  178.1860  147.9820 C   0  0  0  0  0  2  0  0  0  0  0  0
  189.7020  176.7520  145.9070 C   0  0  2  0  0  3  0  0  0  0  0  0
  187.0250  177.7330  147.1180 C   0  0  0  0  0  3  0  0  0  0  0  0
  188.7720  177.8120  145.3200 C   0  0  0  0  0  2  0  0  0  0  0  0
  1 16  1  0  0  0  0
  2  1  1  0  0  0  0
  3  4  2  0  0  0  0
  4  2  1  0  0  0  0
  5  4  1  1  0  0  0
  7  5  1  6  0  0  0
  8  7  1  0  0  0  0
  8 11  1  1  0  0  0
  9  6  1  1  0  0  0
  9  8  1  0  0  0  0
  9  7  1  0  0  0  0
 11 10  2  0  0  0  0
 12 11  1  0  0  0  0
 13 14  1  0  0  0  0
 14 15  1  6  0  0  0
 14  5  1  0  0  0  0
 16 17  1  0  0  0  0
 17 18  1  0  0  0  0
 18 21  1  0  0  0  0
 18 19  1  0  0  0  0
 19 22  1  1  0  0  0
 19 20  1  0  0  0  0
 21 19  1  0  0  0  0
 21 20  1  1  0  0  0
 22 26  1  0  0  0  0
 23 27  1  6  0  0  0
 25 23  1  0  0  0  0
 26 29  2  0  0  0  0
 27 24  1  0  0  0  0
 28 30  1  6  0  0  0
 28 25  1  0  0  0  0
 28 23  1  0  0  0  0
 29 24  1  0  0  0  0
 30 26  1  0  0  0  0
M  END
>  <MODEL>
8

>  <REMARK>
 VINA RESULT:      -6.9      4.214      6.625
  Name = 
  10 active torsions:
  status: ('A' for Active; 'I' for Inactive)
    1  A    between atoms: C_3  and  C_11
    2  A    between atoms: C_3  and  C_19
    3  A    between atoms: C_4  and  C_13
    4  A    between atoms: N_7  and  C_16
    5  A    between atoms: C_8  and  C_13
    6  A    between atoms: C_9  and  C_17
    7  A    between atoms: N_10  and  C_15
    8  A    between atoms: C_13  and  C_30
    9  A    between atoms: C_15  and  C_26
   10  A    between atoms: C_16  and  C_26
                            x       y       z     vdW  Elec       q    Type
                         _______ _______ _______ _____ _____    ______ ____

>  <TORSDO>
F 10

$$$$
=
 OpenBabel10262421533D

 30 34  0  0  1  0  0  0  0  0999 V2000
  184.3480  178.9500  141.2080 C   0  0  0  0  0  2  0  0  0  0  0  0
  183.0510  178.4760  141.6710 N   0  0  0  0  0  2  0  0  0  0  0  0
  180.8000  178.0200  141.3290 O   0  0  0  0  0  0  0  0  0  0  0  0
  181.8840  178.4420  140.8450 C   0  0  0  0  0  0  0  0  0  0  0  0
  181.9320  178.9170  139.4160 C   0  0  1  0  0  3  0  0  0  0  0  0
  182.5760  177.1710  136.2690 O   0  0  0  0  0  1  0  0  0  0  0  0
  181.8580  177.7180  138.4690 C   0  0  2  0  0  3  0  0  0  0  0  0
  183.0900  176.8390  138.6320 C   0  0  2  0  0  3  0  0  0  0  0  0
  182.9780  177.8050  137.4480 C   0  0  1  0  0  3  0  0  0  0  0  0
  181.5870  175.0020  138.3470 O   0  0  0  0  0  0  0  0  0  0  0  0
  182.7770  175.4100  138.3020 C   0  0  0  0  0  0  0  0  0  0  0  0
  183.8090  174.5260  137.8750 N   0  0  0  0  0  1  0  0  0  0  0  0
  181.4620  181.4410  138.3680 S   0  0  0  0  0  1  0  0  0  0  0  0
  180.8060  179.9270  139.1390 C   0  0  1  0  0  3  0  0  0  0  0  0
  179.7530  179.3490  138.2090 C   0  0  0  0  0  1  0  0  0  0  0  0
  185.2500  179.2710  142.3890 C   0  0  0  0  0  2  0  0  0  0  0  0
  184.7860  178.5420  143.6380 C   0  0  0  0  0  2  0  0  0  0  0  0
  185.1400  179.3190  144.8210 N   0  0  0  0  0  0  0  0  0  0  0  0
  186.1480  178.6490  145.6860 C   0  0  1  0  0  0  0  0  0  0  0  0
  185.7030  178.6990  147.1270 C   0  0  0  0  0  2  0  0  0  0  0  0
  184.7170  178.5370  145.9930 C   0  0  1  0  0  3  0  0  0  0  0  0
  186.6220  177.2450  145.2830 C   0  0  0  0  0  2  0  0  0  0  0  0
  190.6700  176.1560  143.4390 C   0  0  1  0  0  3  0  0  0  0  0  0
  190.5010  177.3540  145.6310 C   0  0  0  0  0  2  0  0  0  0  0  0
  190.2590  176.4670  142.1290 O   0  0  0  0  0  0  0  0  0  0  0  0
  188.0540  177.2470  144.8490 C   0  0  0  0  0  0  0  0  0  0  0  0
  190.9980  177.4440  144.1930 C   0  0  0  0  0  2  0  0  0  0  0  0
  189.2440  176.0400  143.0080 C   0  0  2  0  0  3  0  0  0  0  0  0
  188.9980  177.3530  145.8040 C   0  0  0  0  0  3  0  0  0  0  0  0
  188.3680  177.2350  143.3790 C   0  0  0  0  0  2  0  0  0  0  0  0
  1  2  1  0  0  0  0
  1 16  1  0  0  0  0
  4  3  2  0  0  0  0
  4  2  1  0  0  0  0
  5  4  1  1  0  0  0
  7  8  1  0  0  0  0
  7  5  1  1  0  0  0
  8 11  1  6  0  0  0
  9  6  1  6  0  0  0
  9  7  1  0  0  0  0
  9  8  1  0  0  0  0
 11 10  2  0  0  0  0
 12 11  1  0  0  0  0
 13 14  1  0  0  0  0
 14 15  1  6  0  0  0
 14  5  1  0  0  0  0
 16 17  1  0  0  0  0
 17 18  1  0  0  0  0
 18 19  1  0  0  0  0
 18 21  1  0  0  0  0
 19 22  1  6  0  0  0
 19 21  1  0  0  0  0
 19 20  1  0  0  0  0
 21 20  1  1  0  0  0
 23 27  1  1  0  0  0
 24 29  1  0  0  0  0
 25 28  1  0  0  0  0
 25 23  1  0  0  0  0
 26 22  1  0  0  0  0
 26 29  2  0  0  0  0
 27 24  1  0  0  0  0
 28 30  1  1  0  0  0
 28 23  1  0  0  0  0
 30 26  1  0  0  0  0
M  END
>  <MODEL>
9

>  <REMARK>
 VINA RESULT:      -6.8      2.155      3.211
  Name = 
  10 active torsions:
  status: ('A' for Active; 'I' for Inactive)
    1  A    between atoms: C_3  and  C_11
    2  A    between atoms: C_3  and  C_19
    3  A    between atoms: C_4  and  C_13
    4  A    between atoms: N_7  and  C_16
    5  A    between atoms: C_8  and  C_13
    6  A    between atoms: C_9  and  C_17
    7  A    between atoms: N_10  and  C_15
    8  A    between atoms: C_13  and  C_30
    9  A    between atoms: C_15  and  C_26
   10  A    between atoms: C_16  and  C_26
                            x       y       z     vdW  Elec       q    Type
                         _______ _______ _______ _____ _____    ______ ____

>  <TORSDO>
F 10

$$$$
