=
 OpenBabel10262419223D

 31 35  0  0  1  0  0  0  0  0999 V2000
  192.0230  177.0560  140.4890 C   0  0  2  0  0  3  0  0  0  0  0  0
  188.3110  177.5830  139.7320 N   0  0  0  0  0  0  0  0  0  0  0  0
  188.1060  177.2660  138.3320 C   0  0  0  0  0  0  0  0  0  0  0  0
  188.9620  175.8370  136.3930 C   0  0  0  0  0  3  0  0  0  0  0  0
  189.5290  177.1620  140.4560 C   0  0  1  0  0  3  0  0  0  0  0  0
  192.0290  177.4970  141.9550 C   0  0  0  0  0  2  0  0  0  0  0  0
  188.9180  176.3700  137.7580 C   0  0  0  0  0  3  0  0  0  0  0  0
  187.2880  178.3270  141.9680 C   0  0  1  0  0  3  0  0  0  0  0  0
  193.2380  177.5120  139.8400 N   0  0  0  0  0  1  0  0  0  0  0  0
  186.0720  178.5800  138.3990 C   0  0  0  0  0  3  0  0  0  0  0  0
  188.2660  176.2080  135.3260 C   0  0  0  0  0  3  0  0  0  0  0  0
  188.2910  177.4260  142.5360 N   0  0  0  0  0  2  0  0  0  0  0  0
  187.2100  178.1710  140.4650 C   0  0  0  0  0  0  0  0  0  0  0  0
  190.8080  177.6250  139.7550 C   0  0  0  0  0  2  0  0  0  0  0  0
  187.2470  177.2520  135.2280 C   0  0  0  0  0  3  0  0  0  0  0  0
  189.5540  177.7190  141.8820 C   0  0  1  0  0  3  0  0  0  0  0  0
  190.7210  177.1100  142.6460 C   0  0  0  0  0  2  0  0  0  0  0  0
  186.1940  178.6640  139.8230 N   0  0  0  0  0  0  0  0  0  0  0  0
  186.9510  177.9120  137.6500 C   0  0  0  0  0  0  0  0  0  0  0  0
  186.6960  177.9600  136.2060 C   0  0  0  0  0  3  0  0  0  0  0  0
  185.9360  178.0560  142.6180 C   0  0  0  0  0  2  0  0  0  0  0  0
  184.5140  179.1930  144.2910 C   0  0  0  0  0  1  0  0  0  0  0  0
  185.8920  178.6140  144.0300 C   0  0  1  0  0  3  0  0  0  0  0  0
  186.1610  177.5760  144.9690 O   0  0  0  0  0  0  0  0  0  0  0  0
  189.3740  177.3920  146.8330 C   0  0  0  0  0  0  0  0  0  0  0  0
  187.6700  178.3710  148.2470 C   0  0  0  0  0  3  0  0  0  0  0  0
  190.6830  176.9670  146.6450 O   0  0  0  0  0  1  0  0  0  0  0  0
  188.4440  177.2650  145.7990 C   0  0  0  0  0  3  0  0  0  0  0  0
  186.7390  178.2430  147.2110 C   0  0  0  0  0  3  0  0  0  0  0  0
  187.1190  177.6930  145.9830 C   0  0  0  0  0  0  0  0  0  0  0  0
  188.9880  177.9440  148.0570 C   0  0  0  0  0  3  0  0  0  0  0  0
  1  9  1  6  0  0  0
  1  6  1  0  0  0  0
  2  5  1  0  0  0  0
  2 13  1  0  0  0  0
  3  2  1  0  0  0  0
  4  7  1  0  0  0  0
  5 14  1  6  0  0  0
  5 16  1  0  0  0  0
  6 17  1  0  0  0  0
  7  3  2  0  0  0  0
  8 12  1  0  0  0  0
  8 21  1  1  0  0  0
 10 18  1  0  0  0  0
 11  4  2  0  0  0  0
 13  8  1  0  0  0  0
 14  1  1  0  0  0  0
 15 11  1  0  0  0  0
 15 20  2  0  0  0  0
 16 12  1  0  0  0  0
 16 17  1  1  0  0  0
 18 13  2  0  0  0  0
 19  3  1  0  0  0  0
 19 10  2  0  0  0  0
 20 19  1  0  0  0  0
 21 23  1  0  0  0  0
 23 22  1  1  0  0  0
 23 24  1  0  0  0  0
 24 30  1  0  0  0  0
 25 31  1  0  0  0  0
 27 25  1  0  0  0  0
 28 30  1  0  0  0  0
 28 25  2  0  0  0  0
 29 26  1  0  0  0  0
 30 29  2  0  0  0  0
 31 26  2  0  0  0  0
M  END
>  <MODEL>
1

>  <REMARK>
 VINA RESULT:      -9.1      0.000      0.000
  Name = 
  4 active torsions:
  status: ('A' for Active; 'I' for Inactive)
    1  A    between atoms: O_3  and  C_9
    2  A    between atoms: O_3  and  C_22
    3  A    between atoms: C_9  and  C_23
    4  A    between atoms: C_15  and  C_23
                            x       y       z     vdW  Elec       q    Type
                         _______ _______ _______ _____ _____    ______ ____

>  <TORSDO>
F 4

$$$$
=
 OpenBabel10262419223D

 31 35  0  0  1  0  0  0  0  0999 V2000
  190.1760  177.1100  139.6420 C   0  0  2  0  0  3  0  0  0  0  0  0
  188.1640  177.7970  142.8210 N   0  0  0  0  0  0  0  0  0  0  0  0
  189.0680  177.6470  143.9460 C   0  0  0  0  0  0  0  0  0  0  0  0
  191.5100  177.8520  144.6720 C   0  0  0  0  0  3  0  0  0  0  0  0
  188.6610  177.9530  141.4370 C   0  0  1  0  0  3  0  0  0  0  0  0
  189.0490  177.2530  138.6150 C   0  0  0  0  0  2  0  0  0  0  0  0
  190.3690  177.8990  143.7540 C   0  0  0  0  0  3  0  0  0  0  0  0
  185.7970  178.3460  141.9890 C   0  0  1  0  0  3  0  0  0  0  0  0
  191.0590  176.0280  139.2450 N   0  0  0  0  0  1  0  0  0  0  0  0
  187.1360  177.3200  145.3710 C   0  0  0  0  0  3  0  0  0  0  0  0
  191.5600  177.4190  145.9250 C   0  0  0  0  0  3  0  0  0  0  0  0
  186.5110  178.9380  140.8590 N   0  0  0  0  0  2  0  0  0  0  0  0
  186.7550  177.9730  143.1000 C   0  0  0  0  0  0  0  0  0  0  0  0
  189.6110  176.8230  141.0330 C   0  0  0  0  0  2  0  0  0  0  0  0
  190.4730  176.8790  146.7400 C   0  0  0  0  0  3  0  0  0  0  0  0
  187.5110  177.9760  140.4280 C   0  0  1  0  0  3  0  0  0  0  0  0
  188.0500  178.3250  139.0490 C   0  0  0  0  0  2  0  0  0  0  0  0
  186.2900  177.7090  144.2840 N   0  0  0  0  0  0  0  0  0  0  0  0
  188.4660  177.2900  145.2590 C   0  0  0  0  0  0  0  0  0  0  0  0
  189.1770  176.8320  146.4580 C   0  0  0  0  0  3  0  0  0  0  0  0
  184.7360  179.3220  142.4860 C   0  0  0  0  0  2  0  0  0  0  0  0
  182.8630  179.0190  144.0720 C   0  0  0  0  0  1  0  0  0  0  0  0
  183.4120  178.6130  142.7180 C   0  0  1  0  0  3  0  0  0  0  0  0
  182.4850  178.9710  141.6970 O   0  0  0  0  0  0  0  0  0  0  0  0
  182.9000  176.6440  138.8250 C   0  0  0  0  0  0  0  0  0  0  0  0
  182.3940  178.8650  138.0050 C   0  0  0  0  0  3  0  0  0  0  0  0
  183.1840  175.3080  138.5800 O   0  0  0  0  0  1  0  0  0  0  0  0
  182.8380  177.1150  140.1390 C   0  0  0  0  0  3  0  0  0  0  0  0
  182.3320  179.3360  139.3210 C   0  0  0  0  0  3  0  0  0  0  0  0
  182.5510  178.4660  140.3940 C   0  0  0  0  0  0  0  0  0  0  0  0
  182.6790  177.5190  137.7580 C   0  0  0  0  0  3  0  0  0  0  0  0
  1  9  1  6  0  0  0
  1 14  1  0  0  0  0
  2 13  1  0  0  0  0
  2  3  1  0  0  0  0
  3 19  1  0  0  0  0
  4 11  2  0  0  0  0
  5 14  1  6  0  0  0
  5  2  1  0  0  0  0
  6 17  1  0  0  0  0
  6  1  1  0  0  0  0
  7  3  2  0  0  0  0
  7  4  1  0  0  0  0
  8 21  1  1  0  0  0
  8 13  1  0  0  0  0
 11 15  1  0  0  0  0
 12  8  1  0  0  0  0
 13 18  2  0  0  0  0
 16 17  1  6  0  0  0
 16 12  1  0  0  0  0
 16  5  1  0  0  0  0
 18 10  1  0  0  0  0
 19 10  2  0  0  0  0
 19 20  1  0  0  0  0
 20 15  2  0  0  0  0
 21 23  1  0  0  0  0
 23 22  1  1  0  0  0
 24 23  1  0  0  0  0
 25 28  1  0  0  0  0
 26 29  2  0  0  0  0
 27 25  1  0  0  0  0
 28 30  2  0  0  0  0
 29 30  1  0  0  0  0
 30 24  1  0  0  0  0
 31 26  1  0  0  0  0
 31 25  2  0  0  0  0
M  END
>  <MODEL>
2

>  <REMARK>
 VINA RESULT:      -9.0      2.726      6.971
  Name = 
  4 active torsions:
  status: ('A' for Active; 'I' for Inactive)
    1  A    between atoms: O_3  and  C_9
    2  A    between atoms: O_3  and  C_22
    3  A    between atoms: C_9  and  C_23
    4  A    between atoms: C_15  and  C_23
                            x       y       z     vdW  Elec       q    Type
                         _______ _______ _______ _____ _____    ______ ____

>  <TORSDO>
F 4

$$$$
=
 OpenBabel10262419223D

 31 35  0  0  1  0  0  0  0  0999 V2000
  182.4560  176.8510  137.9380 C   0  0  2  0  0  3  0  0  0  0  0  0
  185.4930  178.2110  139.8230 N   0  0  0  0  0  0  0  0  0  0  0  0
  186.5960  178.2670  138.8830 C   0  0  0  0  0  0  0  0  0  0  0  0
  187.1910  178.5520  136.4140 C   0  0  0  0  0  3  0  0  0  0  0  0
  184.0910  178.0740  139.3730 C   0  0  1  0  0  3  0  0  0  0  0  0
  181.4560  176.8130  139.0980 C   0  0  0  0  0  2  0  0  0  0  0  0
  186.3170  178.4430  137.5860 C   0  0  0  0  0  3  0  0  0  0  0  0
  184.6420  178.6410  142.2080 C   0  0  1  0  0  3  0  0  0  0  0  0
  182.2580  175.6900  137.0900 N   0  0  0  0  0  1  0  0  0  0  0  0
  188.1170  178.2800  140.7690 C   0  0  0  0  0  3  0  0  0  0  0  0
  188.5030  178.3770  136.3280 C   0  0  0  0  0  3  0  0  0  0  0  0
  183.3940  178.9760  141.5240 N   0  0  0  0  0  2  0  0  0  0  0  0
  185.7740  178.4740  141.2180 C   0  0  0  0  0  0  0  0  0  0  0  0
  183.8930  176.8620  138.4590 C   0  0  0  0  0  2  0  0  0  0  0  0
  189.4430  178.0390  137.3950 C   0  0  0  0  0  3  0  0  0  0  0  0
  183.1350  177.9230  140.5580 C   0  0  1  0  0  3  0  0  0  0  0  0
  181.6970  177.9760  140.0610 C   0  0  0  0  0  2  0  0  0  0  0  0
  187.0010  178.4640  141.6450 N   0  0  0  0  0  0  0  0  0  0  0  0
  187.9730  178.1950  139.4450 C   0  0  0  0  0  0  0  0  0  0  0  0
  189.2170  177.9690  138.7010 C   0  0  0  0  0  3  0  0  0  0  0  0
  184.9650  179.7220  143.2330 C   0  0  0  0  0  2  0  0  0  0  0  0
  183.5130  178.9080  145.0610 C   0  0  0  0  0  1  0  0  0  0  0  0
  184.9490  179.1560  144.6430 C   0  0  1  0  0  3  0  0  0  0  0  0
  185.6790  177.9330  144.6820 O   0  0  0  0  0  0  0  0  0  0  0  0
  188.0290  177.7820  147.5600 C   0  0  0  0  0  0  0  0  0  0  0  0
  189.2020  177.2080  145.5220 C   0  0  0  0  0  3  0  0  0  0  0  0
  188.0310  177.9810  148.9340 O   0  0  0  0  0  1  0  0  0  0  0  0
  186.8490  177.9590  146.8320 C   0  0  0  0  0  3  0  0  0  0  0  0
  188.0220  177.3860  144.7930 C   0  0  0  0  0  3  0  0  0  0  0  0
  186.8410  177.7600  145.4410 C   0  0  0  0  0  0  0  0  0  0  0  0
  189.2050  177.4070  146.9060 C   0  0  0  0  0  3  0  0  0  0  0  0
  1  9  1  6  0  0  0
  1 14  1  0  0  0  0
  1  6  1  0  0  0  0
  2 13  1  0  0  0  0
  3 19  1  0  0  0  0
  3  2  1  0  0  0  0
  4  7  1  0  0  0  0
  5 14  1  6  0  0  0
  5  2  1  0  0  0  0
  5 16  1  0  0  0  0
  6 17  1  0  0  0  0
  7  3  2  0  0  0  0
  8 21  1  1  0  0  0
 10 18  1  0  0  0  0
 11  4  2  0  0  0  0
 11 15  1  0  0  0  0
 12  8  1  0  0  0  0
 13 18  2  0  0  0  0
 13  8  1  0  0  0  0
 15 20  2  0  0  0  0
 16 17  1  6  0  0  0
 16 12  1  0  0  0  0
 19 10  2  0  0  0  0
 20 19  1  0  0  0  0
 21 23  1  0  0  0  0
 23 24  1  0  0  0  0
 23 22  1  6  0  0  0
 24 30  1  0  0  0  0
 25 27  1  0  0  0  0
 26 31  2  0  0  0  0
 28 25  2  0  0  0  0
 29 30  2  0  0  0  0
 29 26  1  0  0  0  0
 30 28  1  0  0  0  0
 31 25  1  0  0  0  0
M  END
>  <MODEL>
3

>  <REMARK>
 VINA RESULT:      -8.8      2.365      4.853
  Name = 
  4 active torsions:
  status: ('A' for Active; 'I' for Inactive)
    1  A    between atoms: O_3  and  C_9
    2  A    between atoms: O_3  and  C_22
    3  A    between atoms: C_9  and  C_23
    4  A    between atoms: C_15  and  C_23
                            x       y       z     vdW  Elec       q    Type
                         _______ _______ _______ _____ _____    ______ ____

>  <TORSDO>
F 4

$$$$
=
 OpenBabel10262419223D

 31 35  0  0  1  0  0  0  0  0999 V2000
  186.9180  178.2380  139.1590 C   0  0  2  0  0  3  0  0  0  0  0  0
  184.3740  178.3090  142.0130 N   0  0  0  0  0  0  0  0  0  0  0  0
  183.0570  178.1540  141.4240 C   0  0  0  0  0  0  0  0  0  0  0  0
  181.7870  177.1350  139.4530 C   0  0  0  0  0  3  0  0  0  0  0  0
  185.6060  177.9800  141.2670 C   0  0  1  0  0  3  0  0  0  0  0  0
  188.1920  178.4770  139.9740 C   0  0  0  0  0  2  0  0  0  0  0  0
  182.9520  177.4710  140.2770 C   0  0  0  0  0  3  0  0  0  0  0  0
  185.7860  178.5920  144.1400 C   0  0  1  0  0  3  0  0  0  0  0  0
  187.0080  178.9490  137.8980 N   0  0  0  0  0  1  0  0  0  0  0  0
  182.1140  179.1340  143.4280 C   0  0  0  0  0  3  0  0  0  0  0  0
  180.5290  177.5380  139.5780 C   0  0  0  0  0  3  0  0  0  0  0  0
  186.7550  177.7820  143.4040 N   0  0  0  0  0  2  0  0  0  0  0  0
  184.4540  178.6270  143.4230 C   0  0  0  0  0  0  0  0  0  0  0  0
  185.6840  178.7140  139.9260 C   0  0  0  0  0  2  0  0  0  0  0  0
  179.9580  178.4240  140.5910 C   0  0  0  0  0  3  0  0  0  0  0  0
  186.8590  178.3410  142.0670 C   0  0  1  0  0  3  0  0  0  0  0  0
  188.0930  177.8140  141.3480 C   0  0  0  0  0  2  0  0  0  0  0  0
  183.3980  179.0460  144.0540 N   0  0  0  0  0  0  0  0  0  0  0  0
  181.9020  178.7070  142.1810 C   0  0  0  0  0  0  0  0  0  0  0  0
  180.5370  178.9080  141.6830 C   0  0  0  0  0  3  0  0  0  0  0  0
  185.6330  178.0430  145.5530 C   0  0  0  0  0  2  0  0  0  0  0  0
  186.3540  179.0040  147.7140 C   0  0  0  0  0  1  0  0  0  0  0  0
  186.8360  178.4010  146.4090 C   0  0  1  0  0  3  0  0  0  0  0  0
  187.6070  177.2330  146.6760 O   0  0  0  0  0  0  0  0  0  0  0  0
  191.2730  176.7030  147.0030 C   0  0  0  0  0  0  0  0  0  0  0  0
  190.7360  177.2750  144.7130 C   0  0  0  0  0  3  0  0  0  0  0  0
  192.2110  176.3740  147.9730 O   0  0  0  0  0  1  0  0  0  0  0  0
  189.9210  176.7950  147.3430 C   0  0  0  0  0  3  0  0  0  0  0  0
  189.3830  177.3680  145.0540 C   0  0  0  0  0  3  0  0  0  0  0  0
  188.9670  177.1280  146.3680 C   0  0  0  0  0  0  0  0  0  0  0  0
  191.6800  176.9430  145.6890 C   0  0  0  0  0  3  0  0  0  0  0  0
  1  9  1  6  0  0  0
  1 14  1  0  0  0  0
  1  6  1  0  0  0  0
  2 13  1  0  0  0  0
  3  2  1  0  0  0  0
  3 19  1  0  0  0  0
  4 11  2  0  0  0  0
  4  7  1  0  0  0  0
  5 14  1  6  0  0  0
  5  2  1  0  0  0  0
  5 16  1  0  0  0  0
  6 17  1  0  0  0  0
  7  3  2  0  0  0  0
  8 21  1  1  0  0  0
 10 18  1  0  0  0  0
 11 15  1  0  0  0  0
 12  8  1  0  0  0  0
 13 18  2  0  0  0  0
 13  8  1  0  0  0  0
 15 20  2  0  0  0  0
 16 17  1  6  0  0  0
 16 12  1  0  0  0  0
 19 10  2  0  0  0  0
 20 19  1  0  0  0  0
 21 23  1  0  0  0  0
 23 24  1  0  0  0  0
 23 22  1  1  0  0  0
 25 28  1  0  0  0  0
 25 27  1  0  0  0  0
 26 29  2  0  0  0  0
 26 31  1  0  0  0  0
 29 30  1  0  0  0  0
 30 24  1  0  0  0  0
 30 28  2  0  0  0  0
 31 25  2  0  0  0  0
M  END
>  <MODEL>
4

>  <REMARK>
 VINA RESULT:      -8.8      2.771      5.054
  Name = 
  4 active torsions:
  status: ('A' for Active; 'I' for Inactive)
    1  A    between atoms: O_3  and  C_9
    2  A    between atoms: O_3  and  C_22
    3  A    between atoms: C_9  and  C_23
    4  A    between atoms: C_15  and  C_23
                            x       y       z     vdW  Elec       q    Type
                         _______ _______ _______ _____ _____    ______ ____

>  <TORSDO>
F 4

$$$$
=
 OpenBabel10262419223D

 31 35  0  0  1  0  0  0  0  0999 V2000
  185.1450  178.4650  145.7910 C   0  0  2  0  0  3  0  0  0  0  0  0
  186.4930  178.1100  142.2300 N   0  0  0  0  0  0  0  0  0  0  0  0
  187.8180  177.5270  142.3250 C   0  0  0  0  0  0  0  0  0  0  0  0
  189.3000  175.9900  143.7310 C   0  0  0  0  0  3  0  0  0  0  0  0
  185.5400  178.0680  143.3590 C   0  0  1  0  0  3  0  0  0  0  0  0
  183.8080  179.1400  145.4710 C   0  0  0  0  0  2  0  0  0  0  0  0
  188.0870  176.7260  143.3640 C   0  0  0  0  0  3  0  0  0  0  0  0
  184.6110  179.0030  140.7270 C   0  0  1  0  0  3  0  0  0  0  0  0
  185.6980  179.0370  147.0050 N   0  0  0  0  0  1  0  0  0  0  0  0
  188.2930  178.4040  140.1170 C   0  0  0  0  0  3  0  0  0  0  0  0
  190.5040  176.0300  143.1760 C   0  0  0  0  0  3  0  0  0  0  0  0
  183.7450  178.4280  141.7550 N   0  0  0  0  0  2  0  0  0  0  0  0
  186.0500  178.5840  140.9370 C   0  0  0  0  0  0  0  0  0  0  0  0
  186.1370  178.6500  144.6430 C   0  0  0  0  0  2  0  0  0  0  0  0
  190.9460  176.8190  142.0280 C   0  0  0  0  0  3  0  0  0  0  0  0
  184.2640  178.8510  143.0440 C   0  0  1  0  0  3  0  0  0  0  0  0
  183.2410  178.6240  144.1480 C   0  0  0  0  0  2  0  0  0  0  0  0
  186.9110  178.7490  139.9770 N   0  0  0  0  0  0  0  0  0  0  0  0
  188.7670  177.8060  141.2130 C   0  0  0  0  0  0  0  0  0  0  0  0
  190.2120  177.5580  141.2050 C   0  0  0  0  0  3  0  0  0  0  0  0
  184.1130  178.5840  139.3490 C   0  0  0  0  0  2  0  0  0  0  0  0
  182.4140  180.2640  138.7150 C   0  0  0  0  0  1  0  0  0  0  0  0
  182.6230  178.8450  139.2080 C   0  0  1  0  0  3  0  0  0  0  0  0
  182.0560  177.9260  138.2790 O   0  0  0  0  0  0  0  0  0  0  0  0
  179.8630  175.6300  140.2160 C   0  0  0  0  0  0  0  0  0  0  0  0
  180.6500  174.5110  138.2190 C   0  0  0  0  0  3  0  0  0  0  0  0
  179.1210  175.6170  141.3890 O   0  0  0  0  0  1  0  0  0  0  0  0
  180.5750  176.7770  139.8540 C   0  0  0  0  0  3  0  0  0  0  0  0
  181.3620  175.6580  137.8560 C   0  0  0  0  0  3  0  0  0  0  0  0
  181.3290  176.7970  138.6680 C   0  0  0  0  0  0  0  0  0  0  0  0
  179.9010  174.4970  139.3990 C   0  0  0  0  0  3  0  0  0  0  0  0
  1  9  1  1  0  0  0
  2  3  1  0  0  0  0
  2  5  1  0  0  0  0
  3  7  2  0  0  0  0
  5 14  1  1  0  0  0
  6  1  1  0  0  0  0
  7  4  1  0  0  0  0
  8 21  1  6  0  0  0
  8 13  1  0  0  0  0
  8 12  1  0  0  0  0
 10 19  2  0  0  0  0
 11  4  2  0  0  0  0
 12 16  1  0  0  0  0
 13  2  1  0  0  0  0
 14  1  1  0  0  0  0
 15 11  1  0  0  0  0
 16  5  1  0  0  0  0
 16 17  1  1  0  0  0
 17  6  1  0  0  0  0
 18 10  1  0  0  0  0
 18 13  2  0  0  0  0
 19  3  1  0  0  0  0
 20 19  1  0  0  0  0
 20 15  2  0  0  0  0
 23 22  1  6  0  0  0
 23 21  1  0  0  0  0
 24 30  1  0  0  0  0
 24 23  1  0  0  0  0
 25 27  1  0  0  0  0
 26 31  1  0  0  0  0
 28 25  1  0  0  0  0
 29 26  2  0  0  0  0
 29 30  1  0  0  0  0
 30 28  2  0  0  0  0
 31 25  2  0  0  0  0
M  END
>  <MODEL>
5

>  <REMARK>
 VINA RESULT:      -8.6      3.941      7.741
  Name = 
  4 active torsions:
  status: ('A' for Active; 'I' for Inactive)
    1  A    between atoms: O_3  and  C_9
    2  A    between atoms: O_3  and  C_22
    3  A    between atoms: C_9  and  C_23
    4  A    between atoms: C_15  and  C_23
                            x       y       z     vdW  Elec       q    Type
                         _______ _______ _______ _____ _____    ______ ____

>  <TORSDO>
F 4

$$$$
=
 OpenBabel10262419223D

 31 35  0  0  1  0  0  0  0  0999 V2000
  185.2200  178.5240  145.8490 C   0  0  2  0  0  3  0  0  0  0  0  0
  186.2760  178.1320  142.1940 N   0  0  0  0  0  0  0  0  0  0  0  0
  187.6110  177.5640  142.1870 C   0  0  0  0  0  0  0  0  0  0  0  0
  189.2210  176.0640  143.4870 C   0  0  0  0  0  3  0  0  0  0  0  0
  185.4190  178.0950  143.3980 C   0  0  1  0  0  3  0  0  0  0  0  0
  183.8540  179.1790  145.6300 C   0  0  0  0  0  2  0  0  0  0  0  0
  187.9730  176.7820  143.2120 C   0  0  0  0  0  3  0  0  0  0  0  0
  184.2660  178.9820  140.8390 C   0  0  1  0  0  3  0  0  0  0  0  0
  185.8640  179.1190  147.0050 N   0  0  0  0  0  1  0  0  0  0  0  0
  187.8920  178.4140  139.9360 C   0  0  0  0  0  3  0  0  0  0  0  0
  190.3750  176.1090  142.8350 C   0  0  0  0  0  3  0  0  0  0  0  0
  183.4940  178.4130  141.9430 N   0  0  0  0  0  2  0  0  0  0  0  0
  185.7220  178.5810  140.9350 C   0  0  0  0  0  0  0  0  0  0  0  0
  186.1120  178.7020  144.6200 C   0  0  0  0  0  2  0  0  0  0  0  0
  190.7110  176.8860  141.6430 C   0  0  0  0  0  3  0  0  0  0  0  0
  184.1120  178.8600  143.1790 C   0  0  1  0  0  3  0  0  0  0  0  0
  183.1860  178.6380  144.3660 C   0  0  0  0  0  2  0  0  0  0  0  0
  186.4990  178.7430  139.9060 N   0  0  0  0  0  0  0  0  0  0  0  0
  188.4610  177.8380  140.9970 C   0  0  0  0  0  0  0  0  0  0  0  0
  189.9040  177.6050  140.8730 C   0  0  0  0  0  3  0  0  0  0  0  0
  183.6610  178.5380  139.5130 C   0  0  0  0  0  2  0  0  0  0  0  0
  182.2000  179.4090  137.7180 C   0  0  0  0  0  1  0  0  0  0  0  0
  182.3770  179.2950  139.2200 C   0  0  1  0  0  3  0  0  0  0  0  0
  181.2660  178.6030  139.7830 O   0  0  0  0  0  0  0  0  0  0  0  0
  179.5200  178.8870  143.0540 C   0  0  0  0  0  0  0  0  0  0  0  0
  179.2020  180.9230  141.7840 C   0  0  0  0  0  3  0  0  0  0  0  0
  179.2980  178.1390  144.2020 O   0  0  0  0  0  1  0  0  0  0  0  0
  180.2830  178.3550  142.0110 C   0  0  0  0  0  3  0  0  0  0  0  0
  179.9660  180.3900  140.7400 C   0  0  0  0  0  3  0  0  0  0  0  0
  180.5110  179.1070  140.8470 C   0  0  0  0  0  0  0  0  0  0  0  0
  178.9800  180.1700  142.9400 C   0  0  0  0  0  3  0  0  0  0  0  0
  1  9  1  1  0  0  0
  2  5  1  0  0  0  0
  3  2  1  0  0  0  0
  3  7  2  0  0  0  0
  5 14  1  1  0  0  0
  6  1  1  0  0  0  0
  7  4  1  0  0  0  0
  8 21  1  6  0  0  0
  8 13  1  0  0  0  0
  8 12  1  0  0  0  0
 10 19  2  0  0  0  0
 11  4  2  0  0  0  0
 12 16  1  0  0  0  0
 13  2  1  0  0  0  0
 14  1  1  0  0  0  0
 15 11  1  0  0  0  0
 16  5  1  0  0  0  0
 16 17  1  1  0  0  0
 17  6  1  0  0  0  0
 18 10  1  0  0  0  0
 18 13  2  0  0  0  0
 19  3  1  0  0  0  0
 20 19  1  0  0  0  0
 20 15  2  0  0  0  0
 23 22  1  6  0  0  0
 23 21  1  0  0  0  0
 23 24  1  0  0  0  0
 24 30  1  0  0  0  0
 25 27  1  0  0  0  0
 26 31  2  0  0  0  0
 28 25  2  0  0  0  0
 29 30  2  0  0  0  0
 29 26  1  0  0  0  0
 30 28  1  0  0  0  0
 31 25  1  0  0  0  0
M  END
>  <MODEL>
6

>  <REMARK>
 VINA RESULT:      -8.6      3.712      7.289
  Name = 
  4 active torsions:
  status: ('A' for Active; 'I' for Inactive)
    1  A    between atoms: O_3  and  C_9
    2  A    between atoms: O_3  and  C_22
    3  A    between atoms: C_9  and  C_23
    4  A    between atoms: C_15  and  C_23
                            x       y       z     vdW  Elec       q    Type
                         _______ _______ _______ _____ _____    ______ ____

>  <TORSDO>
F 4

$$$$
=
 OpenBabel10262419223D

 31 35  0  0  1  0  0  0  0  0999 V2000
  189.1360  177.0210  136.2050 C   0  0  2  0  0  3  0  0  0  0  0  0
  186.7640  177.9550  139.0550 N   0  0  0  0  0  0  0  0  0  0  0  0
  185.4200  177.9790  138.5090 C   0  0  0  0  0  0  0  0  0  0  0  0
  183.9040  176.9720  136.7140 C   0  0  0  0  0  3  0  0  0  0  0  0
  187.8820  177.3000  138.3450 C   0  0  1  0  0  3  0  0  0  0  0  0
  190.4630  177.1160  136.9620 C   0  0  0  0  0  2  0  0  0  0  0  0
  185.1430  177.1840  137.4680 C   0  0  0  0  0  3  0  0  0  0  0  0
  188.2850  178.2390  141.1040 C   0  0  1  0  0  3  0  0  0  0  0  0
  189.3100  177.5290  134.8570 N   0  0  0  0  0  1  0  0  0  0  0  0
  184.7570  179.3780  140.3730 C   0  0  0  0  0  3  0  0  0  0  0  0
  182.7500  177.6220  136.7980 C   0  0  0  0  0  3  0  0  0  0  0  0
  189.0550  177.1680  140.4740 N   0  0  0  0  0  2  0  0  0  0  0  0
  186.9570  178.4340  140.4060 C   0  0  0  0  0  0  0  0  0  0  0  0
  188.0450  177.8220  136.9150 C   0  0  0  0  0  2  0  0  0  0  0  0
  182.3970  178.7270  137.6870 C   0  0  0  0  0  3  0  0  0  0  0  0
  189.2110  177.5150  139.0720 C   0  0  1  0  0  3  0  0  0  0  0  0
  190.2940  176.6720  138.4150 C   0  0  0  0  0  2  0  0  0  0  0  0
  186.0250  179.1280  140.9880 N   0  0  0  0  0  0  0  0  0  0  0  0
  184.4200  178.8390  139.1990 C   0  0  0  0  0  0  0  0  0  0  0  0
  183.0990  179.2300  138.6960 C   0  0  0  0  0  3  0  0  0  0  0  0
  188.0870  177.9200  142.5820 C   0  0  0  0  0  2  0  0  0  0  0  0
  190.2200  178.6280  143.6120 C   0  0  0  0  0  1  0  0  0  0  0  0
  189.3800  177.4310  143.2100 C   0  0  1  0  0  3  0  0  0  0  0  0
  189.0910  176.6400  144.3600 O   0  0  0  0  0  0  0  0  0  0  0  0
  186.8470  178.2530  146.8490 C   0  0  0  0  0  0  0  0  0  0  0  0
  188.9640  177.7160  147.8920 C   0  0  0  0  0  3  0  0  0  0  0  0
  185.5670  178.7860  146.9280 O   0  0  0  0  0  1  0  0  0  0  0  0
  187.3060  177.7190  145.6410 C   0  0  0  0  0  3  0  0  0  0  0  0
  189.4240  177.1820  146.6830 C   0  0  0  0  0  3  0  0  0  0  0  0
  188.5990  177.1780  145.5540 C   0  0  0  0  0  0  0  0  0  0  0  0
  187.6750  178.2520  147.9730 C   0  0  0  0  0  3  0  0  0  0  0  0
  1  9  1  6  0  0  0
  1 14  1  0  0  0  0
  1  6  1  0  0  0  0
  2 13  1  0  0  0  0
  3  2  1  0  0  0  0
  3 19  1  0  0  0  0
  4 11  2  0  0  0  0
  4  7  1  0  0  0  0
  5 14  1  6  0  0  0
  5  2  1  0  0  0  0
  5 16  1  0  0  0  0
  6 17  1  0  0  0  0
  7  3  2  0  0  0  0
  8 21  1  1  0  0  0
 10 18  1  0  0  0  0
 11 15  1  0  0  0  0
 12  8  1  0  0  0  0
 13 18  2  0  0  0  0
 13  8  1  0  0  0  0
 15 20  2  0  0  0  0
 16 17  1  6  0  0  0
 16 12  1  0  0  0  0
 19 10  2  0  0  0  0
 20 19  1  0  0  0  0
 21 23  1  0  0  0  0
 23 22  1  1  0  0  0
 23 24  1  0  0  0  0
 24 30  1  0  0  0  0
 25 27  1  0  0  0  0
 25 31  1  0  0  0  0
 26 31  2  0  0  0  0
 28 25  2  0  0  0  0
 29 26  1  0  0  0  0
 30 28  1  0  0  0  0
 30 29  2  0  0  0  0
M  END
>  <MODEL>
7

>  <REMARK>
 VINA RESULT:      -8.6      1.997      3.696
  Name = 
  4 active torsions:
  status: ('A' for Active; 'I' for Inactive)
    1  A    between atoms: O_3  and  C_9
    2  A    between atoms: O_3  and  C_22
    3  A    between atoms: C_9  and  C_23
    4  A    between atoms: C_15  and  C_23
                            x       y       z     vdW  Elec       q    Type
                         _______ _______ _______ _____ _____    ______ ____

>  <TORSDO>
F 4

$$$$
=
 OpenBabel10262419223D

 31 35  0  0  1  0  0  0  0  0999 V2000
  190.9530  175.9170  136.3850 C   0  0  2  0  0  3  0  0  0  0  0  0
  187.7600  177.0890  138.1330 N   0  0  0  0  0  0  0  0  0  0  0  0
  186.6380  176.6590  137.3190 C   0  0  0  0  0  0  0  0  0  0  0  0
  185.8510  174.8710  135.6700 C   0  0  0  0  0  3  0  0  0  0  0  0
  189.1120  176.5180  137.9590 C   0  0  1  0  0  3  0  0  0  0  0  0
  191.9820  176.5150  137.3480 C   0  0  0  0  0  2  0  0  0  0  0  0
  186.7810  175.5570  136.5720 C   0  0  0  0  0  3  0  0  0  0  0  0
  188.5770  178.2780  140.2570 C   0  0  1  0  0  3  0  0  0  0  0  0
  191.4360  176.0410  135.0220 N   0  0  0  0  0  1  0  0  0  0  0  0
  185.2870  178.3540  138.4000 C   0  0  0  0  0  3  0  0  0  0  0  0
  184.6450  175.2480  135.2660 C   0  0  0  0  0  3  0  0  0  0  0  0
  189.6320  177.2660  140.2170 N   0  0  0  0  0  2  0  0  0  0  0  0
  187.4910  177.9670  139.2500 C   0  0  0  0  0  0  0  0  0  0  0  0
  189.6060  176.6290  136.5150 C   0  0  0  0  0  2  0  0  0  0  0  0
  183.9060  176.4570  135.6260 C   0  0  0  0  0  3  0  0  0  0  0  0
  190.1350  177.2200  138.8550 C   0  0  1  0  0  3  0  0  0  0  0  0
  191.4650  176.4820  138.7860 C   0  0  0  0  0  2  0  0  0  0  0  0
  186.3470  178.5770  139.3360 N   0  0  0  0  0  0  0  0  0  0  0  0
  185.3760  177.4400  137.4320 C   0  0  0  0  0  0  0  0  0  0  0  0
  184.2150  177.3700  136.5390 C   0  0  0  0  0  3  0  0  0  0  0  0
  188.0080  178.3630  141.6690 C   0  0  0  0  0  2  0  0  0  0  0  0
  189.7190  178.4470  143.4520 C   0  0  0  0  0  1  0  0  0  0  0  0
  188.8300  177.5280  142.6370 C   0  0  1  0  0  3  0  0  0  0  0  0
  187.9650  176.8030  143.5060 O   0  0  0  0  0  0  0  0  0  0  0  0
  185.7570  178.4230  146.0220 C   0  0  0  0  0  0  0  0  0  0  0  0
  187.8410  177.7740  147.0680 C   0  0  0  0  0  3  0  0  0  0  0  0
  184.4980  179.0020  146.1060 O   0  0  0  0  0  1  0  0  0  0  0  0
  186.2080  177.9090  144.8030 C   0  0  0  0  0  3  0  0  0  0  0  0
  188.2930  177.2600  145.8480 C   0  0  0  0  0  3  0  0  0  0  0  0
  187.4810  177.3220  144.7110 C   0  0  0  0  0  0  0  0  0  0  0  0
  186.5730  178.3560  147.1530 C   0  0  0  0  0  3  0  0  0  0  0  0
  1  9  1  6  0  0  0
  1 14  1  0  0  0  0
  1  6  1  0  0  0  0
  2 13  1  0  0  0  0
  3 19  1  0  0  0  0
  3  2  1  0  0  0  0
  4  7  1  0  0  0  0
  5 14  1  6  0  0  0
  5  2  1  0  0  0  0
  5 16  1  0  0  0  0
  6 17  1  0  0  0  0
  7  3  2  0  0  0  0
  8 21  1  1  0  0  0
 10 18  1  0  0  0  0
 11 15  1  0  0  0  0
 11  4  2  0  0  0  0
 12  8  1  0  0  0  0
 13 18  2  0  0  0  0
 13  8  1  0  0  0  0
 15 20  2  0  0  0  0
 16 17  1  1  0  0  0
 16 12  1  0  0  0  0
 19 10  2  0  0  0  0
 20 19  1  0  0  0  0
 21 23  1  0  0  0  0
 23 22  1  1  0  0  0
 23 24  1  0  0  0  0
 24 30  1  0  0  0  0
 25 27  1  0  0  0  0
 25 31  1  0  0  0  0
 26 31  2  0  0  0  0
 28 25  2  0  0  0  0
 29 26  1  0  0  0  0
 30 28  1  0  0  0  0
 30 29  2  0  0  0  0
M  END
>  <MODEL>
8

>  <REMARK>
 VINA RESULT:      -8.4      2.000      3.216
  Name = 
  4 active torsions:
  status: ('A' for Active; 'I' for Inactive)
    1  A    between atoms: O_3  and  C_9
    2  A    between atoms: O_3  and  C_22
    3  A    between atoms: C_9  and  C_23
    4  A    between atoms: C_15  and  C_23
                            x       y       z     vdW  Elec       q    Type
                         _______ _______ _______ _____ _____    ______ ____

>  <TORSDO>
F 4

$$$$
=
 OpenBabel10262419223D

 31 35  0  0  1  0  0  0  0  0999 V2000
  190.7610  177.1680  139.2420 C   0  0  2  0  0  3  0  0  0  0  0  0
  188.4890  177.7620  142.2600 N   0  0  0  0  0  0  0  0  0  0  0  0
  189.3120  177.6530  143.4500 C   0  0  0  0  0  0  0  0  0  0  0  0
  191.6810  177.9710  144.3550 C   0  0  0  0  0  3  0  0  0  0  0  0
  189.0790  177.9400  140.9170 C   0  0  1  0  0  3  0  0  0  0  0  0
  189.7090  177.2600  138.1330 C   0  0  0  0  0  2  0  0  0  0  0  0
  190.6100  177.9660  143.3540 C   0  0  0  0  0  3  0  0  0  0  0  0
  186.1670  178.2010  141.2530 C   0  0  1  0  0  3  0  0  0  0  0  0
  191.7200  176.1290  138.9160 N   0  0  0  0  0  1  0  0  0  0  0  0
  187.2970  177.2370  144.7280 C   0  0  0  0  0  3  0  0  0  0  0  0
  191.6570  177.5400  145.6100 C   0  0  0  0  0  3  0  0  0  0  0  0
  186.9350  178.8250  140.1770 N   0  0  0  0  0  2  0  0  0  0  0  0
  187.0560  177.8720  142.4320 C   0  0  0  0  0  0  0  0  0  0  0  0
  190.1080  176.8550  140.5880 C   0  0  0  0  0  2  0  0  0  0  0  0
  190.5390  176.9500  146.3430 C   0  0  0  0  0  3  0  0  0  0  0  0
  188.0080  177.9100  139.8250 C   0  0  1  0  0  3  0  0  0  0  0  0
  188.6310  178.2850  138.4880 C   0  0  0  0  0  2  0  0  0  0  0  0
  186.5170  177.5870  143.5790 N   0  0  0  0  0  0  0  0  0  0  0  0
  188.6310  177.2690  144.7160 C   0  0  0  0  0  0  0  0  0  0  0  0
  189.2700  176.8440  145.9660 C   0  0  0  0  0  3  0  0  0  0  0  0
  185.0280  179.1260  141.6660 C   0  0  0  0  0  2  0  0  0  0  0  0
  182.5590  179.0010  141.7040 C   0  0  0  0  0  1  0  0  0  0  0  0
  183.7880  178.8690  140.8260 C   0  0  1  0  0  3  0  0  0  0  0  0
  183.7200  179.8130  139.7610 O   0  0  0  0  0  0  0  0  0  0  0  0
  180.9730  180.7750  137.4460 C   0  0  0  0  0  0  0  0  0  0  0  0
  181.6310  178.4850  137.0190 C   0  0  0  0  0  3  0  0  0  0  0  0
  180.1680  181.8690  137.1580 O   0  0  0  0  0  1  0  0  0  0  0  0
  181.9340  180.8630  138.4570 C   0  0  0  0  0  3  0  0  0  0  0  0
  182.5930  178.5730  138.0310 C   0  0  0  0  0  3  0  0  0  0  0  0
  182.7520  179.7600  138.7530 C   0  0  0  0  0  0  0  0  0  0  0  0
  180.8210  179.5870  136.7280 C   0  0  0  0  0  3  0  0  0  0  0  0
  1  9  1  6  0  0  0
  1 14  1  0  0  0  0
  2 13  1  0  0  0  0
  2  3  1  0  0  0  0
  3 19  1  0  0  0  0
  4 11  2  0  0  0  0
  5 14  1  6  0  0  0
  5  2  1  0  0  0  0
  6 17  1  0  0  0  0
  6  1  1  0  0  0  0
  7  3  2  0  0  0  0
  7  4  1  0  0  0  0
  8 21  1  1  0  0  0
  8 13  1  0  0  0  0
 11 15  1  0  0  0  0
 12  8  1  0  0  0  0
 13 18  2  0  0  0  0
 16 17  1  6  0  0  0
 16 12  1  0  0  0  0
 16  5  1  0  0  0  0
 18 10  1  0  0  0  0
 19 10  2  0  0  0  0
 19 20  1  0  0  0  0
 20 15  2  0  0  0  0
 23 21  1  0  0  0  0
 23 22  1  1  0  0  0
 24 23  1  0  0  0  0
 25 28  1  0  0  0  0
 26 29  2  0  0  0  0
 27 25  1  0  0  0  0
 28 30  2  0  0  0  0
 29 30  1  0  0  0  0
 30 24  1  0  0  0  0
 31 26  1  0  0  0  0
 31 25  2  0  0  0  0
M  END
>  <MODEL>
9

>  <REMARK>
 VINA RESULT:      -8.0      3.343      7.617
  Name = 
  4 active torsions:
  status: ('A' for Active; 'I' for Inactive)
    1  A    between atoms: O_3  and  C_9
    2  A    between atoms: O_3  and  C_22
    3  A    between atoms: C_9  and  C_23
    4  A    between atoms: C_15  and  C_23
                            x       y       z     vdW  Elec       q    Type
                         _______ _______ _______ _____ _____    ______ ____

>  <TORSDO>
F 4

$$$$
