=
 OpenBabel10252415003D

 34 40  0  0  1  0  0  0  0  0999 V2000
  184.1390  178.5030  143.7960 C   0  0  0  0  0  0  0  0  0  0  0  0
  184.7030  178.6320  141.4280 C   0  0  0  0  0  0  0  0  0  0  0  0
  186.4280  178.1030  143.0820 C   0  0  0  0  0  0  0  0  0  0  0  0
  188.7280  177.6840  142.4550 C   0  0  0  0  0  0  0  0  0  0  0  0
  182.4260  179.0220  142.1710 C   0  0  0  0  0  3  0  0  0  0  0  0
  183.3680  178.9350  141.1410 C   0  0  0  0  0  3  0  0  0  0  0  0
  187.0940  178.2040  140.7240 C   0  0  0  0  0  0  0  0  0  0  0  0
  185.0960  178.4120  142.7630 C   0  0  0  0  0  0  0  0  0  0  0  0
  188.1210  178.0820  139.7690 C   0  0  0  0  0  0  0  0  0  0  0  0
  189.7080  177.5750  141.4710 C   0  0  0  0  0  2  0  0  0  0  0  0
  182.8100  178.8060  143.4970 C   0  0  0  0  0  3  0  0  0  0  0  0
  186.7810  177.8910  144.4330 C   0  0  0  0  0  0  0  0  0  0  0  0
  184.5330  178.2850  145.1170 C   0  0  0  0  0  3  0  0  0  0  0  0
  185.6870  178.5540  140.2930 C   0  0  0  0  0  3  0  0  0  0  0  0
  189.0430  177.4850  143.7610 N   0  0  0  0  0  0  0  0  0  0  0  0
  188.1200  177.5790  144.7550 C   0  0  0  0  0  0  0  0  0  0  0  0
  189.3870  177.7710  140.1660 N   0  0  0  0  0  0  0  0  0  0  0  0
  187.4090  178.0010  142.0820 C   0  0  0  0  0  0  0  0  0  0  0  0
  185.8280  177.9890  145.4040 N   0  0  0  0  0  0  0  0  0  0  0  0
  190.5370  176.9860  147.6890 C   0  0  1  0  0  3  0  0  0  0  0  0
  189.9930  178.0640  148.6240 C   0  0  0  0  0  2  0  0  0  0  0  0
  188.5770  177.3390  146.1650 C   0  0  1  0  0  3  0  0  0  0  0  0
  188.4690  178.1020  148.5500 C   0  0  0  0  0  2  0  0  0  0  0  0
  190.1020  177.2630  146.2530 C   0  0  0  0  0  2  0  0  0  0  0  0
  188.0160  178.3920  147.1220 C   0  0  0  0  0  2  0  0  0  0  0  0
  191.9280  176.9690  147.7580 O   0  0  0  0  0  1  0  0  0  0  0  0
  187.8470  178.2660  138.3090 C   0  0  0  0  0  2  0  0  0  0  0  0
  190.0380  176.9160  136.8610 N   0  0  0  0  0  1  0  0  0  0  0  0
  187.6870  176.9200  137.6010 C   0  0  2  0  0  3  0  0  0  0  0  0
  188.6600  176.7840  136.4210 C   0  0  1  0  0  3  0  0  0  0  0  0
  186.8760  178.1240  135.1580 C   0  0  0  0  0  2  0  0  0  0  0  0
  185.9930  176.9840  135.6540 C   0  0  0  0  0  2  0  0  0  0  0  0
  186.2280  176.7140  137.1460 C   0  0  0  0  0  2  0  0  0  0  0  0
  188.3650  177.7770  135.2860 C   0  0  0  0  0  2  0  0  0  0  0  0
  1 13  1  0  0  0  0
  2  8  1  0  0  0  0
  3 12  1  0  0  0  0
  4 15  2  0  0  0  0
  5 11  1  0  0  0  0
  6  2  1  0  0  0  0
  6  5  2  0  0  0  0
  7 18  2  0  0  0  0
  8  3  2  0  0  0  0
  8  1  1  0  0  0  0
  9 17  2  0  0  0  0
  9  7  1  0  0  0  0
 10  4  1  0  0  0  0
 11  1  2  0  0  0  0
 12 16  2  0  0  0  0
 12 19  1  0  0  0  0
 13 19  2  0  0  0  0
 14  7  1  0  0  0  0
 14  2  2  0  0  0  0
 15 16  1  0  0  0  0
 17 10  1  0  0  0  0
 18  4  1  0  0  0  0
 18  3  1  0  0  0  0
 20 26  1  6  0  0  0
 20 21  1  0  0  0  0
 22 16  1  6  0  0  0
 22 24  1  0  0  0  0
 22 25  1  0  0  0  0
 23 21  1  0  0  0  0
 24 20  1  0  0  0  0
 25 23  1  0  0  0  0
 27  9  1  0  0  0  0
 29 27  1  6  0  0  0
 30 28  1  1  0  0  0
 30 29  1  0  0  0  0
 31 34  1  0  0  0  0
 31 32  1  0  0  0  0
 32 33  1  0  0  0  0
 33 29  1  0  0  0  0
 34 30  1  0  0  0  0
M  END
>  <MODEL>
1

>  <REMARK>
 VINA RESULT:     -10.5      0.000      0.000
  Name = 
  3 active torsions:
  status: ('A' for Active; 'I' for Inactive)
    1  A    between atoms: C_3  and  C_13
    2  A    between atoms: C_3  and  C_17
    3  A    between atoms: C_12  and  C_28
                            x       y       z     vdW  Elec       q    Type
                         _______ _______ _______ _____ _____    ______ ____

>  <TORSDO>
F 3

$$$$
=
 OpenBabel10252415003D

 34 40  0  0  1  0  0  0  0  0999 V2000
  186.6650  178.1580  138.5400 C   0  0  0  0  0  0  0  0  0  0  0  0
  186.6500  178.5220  140.9510 C   0  0  0  0  0  0  0  0  0  0  0  0
  188.6560  177.6590  139.8440 C   0  0  0  0  0  0  0  0  0  0  0  0
  190.6800  177.1460  141.0650 C   0  0  0  0  0  0  0  0  0  0  0  0
  184.6790  179.0140  139.6220 C   0  0  0  0  0  3  0  0  0  0  0  0
  185.3290  178.9710  140.8600 C   0  0  0  0  0  3  0  0  0  0  0  0
  188.7420  177.9980  142.2710 C   0  0  0  0  0  0  0  0  0  0  0  0
  187.3280  178.1130  139.7860 C   0  0  0  0  0  0  0  0  0  0  0  0
  189.4940  177.9230  143.4590 C   0  0  0  0  0  0  0  0  0  0  0  0
  191.3810  177.0910  142.2690 C   0  0  0  0  0  3  0  0  0  0  0  0
  185.3460  178.6080  138.4630 C   0  0  0  0  0  3  0  0  0  0  0  0
  189.2990  177.2570  138.6520 C   0  0  0  0  0  0  0  0  0  0  0  0
  187.3400  177.7500  137.3890 C   0  0  0  0  0  3  0  0  0  0  0  0
  187.3110  178.4860  142.3020 C   0  0  0  0  0  3  0  0  0  0  0  0
  191.2780  176.7640  139.9070 N   0  0  0  0  0  2  0  0  0  0  0  0
  190.6340  176.8030  138.7090 C   0  0  0  0  0  0  0  0  0  0  0  0
  190.7810  177.4780  143.4240 N   0  0  0  0  0  0  0  0  0  0  0  0
  189.3500  177.6040  141.0630 C   0  0  0  0  0  0  0  0  0  0  0  0
  188.6250  177.3140  137.4680 N   0  0  0  0  0  0  0  0  0  0  0  0
  193.6390  176.0770  136.4200 C   0  0  1  0  0  3  0  0  0  0  0  0
  193.2760  174.6390  136.0550 C   0  0  0  0  0  2  0  0  0  0  0  0
  191.3890  176.3580  137.4900 C   0  0  1  0  0  3  0  0  0  0  0  0
  191.7720  174.5180  135.8320 C   0  0  0  0  0  2  0  0  0  0  0  0
  192.9000  176.5050  137.6830 C   0  0  0  0  0  2  0  0  0  0  0  0
  191.0160  174.9290  137.0920 C   0  0  0  0  0  2  0  0  0  0  0  0
  195.0130  176.1720  136.6300 O   0  0  0  0  0  1  0  0  0  0  0  0
  188.9120  178.3460  144.7710 C   0  0  0  0  0  2  0  0  0  0  0  0
  186.0900  177.5600  145.1450 N   0  0  0  0  0  1  0  0  0  0  0  0
  188.4760  177.1370  145.6000 C   0  0  2  0  0  3  0  0  0  0  0  0
  187.0730  177.3350  146.1910 C   0  0  1  0  0  3  0  0  0  0  0  0
  188.3270  178.6410  148.0060 C   0  0  0  0  0  2  0  0  0  0  0  0
  189.1000  177.3300  148.0970 C   0  0  0  0  0  2  0  0  0  0  0  0
  189.5080  176.8320  146.7040 C   0  0  0  0  0  2  0  0  0  0  0  0
  187.0160  178.4670  147.2290 C   0  0  0  0  0  2  0  0  0  0  0  0
  1  8  2  0  0  0  0
  2 14  1  0  0  0  0
  3 18  2  0  0  0  0
  4 10  2  0  0  0  0
  5  6  1  0  0  0  0
  6  2  2  0  0  0  0
  7 14  2  0  0  0  0
  7  9  1  0  0  0  0
  8  3  1  0  0  0  0
  8  2  1  0  0  0  0
  9 27  1  0  0  0  0
 10 17  1  0  0  0  0
 11  1  1  0  0  0  0
 11  5  2  0  0  0  0
 12 16  2  0  0  0  0
 12  3  1  0  0  0  0
 13 19  2  0  0  0  0
 13  1  1  0  0  0  0
 15  4  1  0  0  0  0
 16 15  1  0  0  0  0
 17  9  2  0  0  0  0
 18  4  1  0  0  0  0
 18  7  1  0  0  0  0
 19 12  1  0  0  0  0
 20 26  1  1  0  0  0
 20 24  1  0  0  0  0
 21 20  1  0  0  0  0
 22 24  1  0  0  0  0
 22 16  1  1  0  0  0
 23 21  1  0  0  0  0
 23 25  1  0  0  0  0
 25 22  1  0  0  0  0
 29 27  1  1  0  0  0
 29 30  1  0  0  0  0
 29 33  1  0  0  0  0
 30 28  1  6  0  0  0
 30 34  1  0  0  0  0
 31 32  1  0  0  0  0
 33 32  1  0  0  0  0
 34 31  1  0  0  0  0
M  END
>  <MODEL>
2

>  <REMARK>
 VINA RESULT:     -10.1      2.898      8.058
  Name = 
  3 active torsions:
  status: ('A' for Active; 'I' for Inactive)
    1  A    between atoms: C_3  and  C_13
    2  A    between atoms: C_3  and  C_17
    3  A    between atoms: C_12  and  C_28
                            x       y       z     vdW  Elec       q    Type
                         _______ _______ _______ _____ _____    ______ ____

>  <TORSDO>
F 3

$$$$
=
 OpenBabel10252415003D

 34 40  0  0  1  0  0  0  0  0999 V2000
  186.2730  178.0660  145.8750 C   0  0  0  0  0  0  0  0  0  0  0  0
  187.9020  177.8400  144.0750 C   0  0  0  0  0  0  0  0  0  0  0  0
  185.5760  178.4110  143.5720 C   0  0  0  0  0  0  0  0  0  0  0  0
  184.8020  178.7800  141.3090 C   0  0  0  0  0  0  0  0  0  0  0  0
  188.5690  177.5050  146.3850 C   0  0  0  0  0  3  0  0  0  0  0  0
  188.8860  177.5420  145.0230 C   0  0  0  0  0  3  0  0  0  0  0  0
  187.1400  178.2130  141.6940 C   0  0  0  0  0  0  0  0  0  0  0  0
  186.5850  178.1060  144.4990 C   0  0  0  0  0  0  0  0  0  0  0  0
  187.3490  178.2880  140.3030 C   0  0  0  0  0  0  0  0  0  0  0  0
  185.0610  178.8410  139.9410 C   0  0  0  0  0  2  0  0  0  0  0  0
  187.2650  177.7670  146.8110 C   0  0  0  0  0  3  0  0  0  0  0  0
  184.2680  178.6700  144.0380 C   0  0  0  0  0  0  0  0  0  0  0  0
  184.9670  178.3290  146.2900 C   0  0  0  0  0  3  0  0  0  0  0  0
  188.2830  177.8640  142.6200 C   0  0  0  0  0  3  0  0  0  0  0  0
  183.5520  179.0250  141.7800 N   0  0  0  0  0  0  0  0  0  0  0  0
  183.2530  178.9800  143.1070 C   0  0  0  0  0  0  0  0  0  0  0  0
  186.3130  178.5990  139.4740 N   0  0  0  0  0  0  0  0  0  0  0  0
  185.8480  178.4650  142.1950 C   0  0  0  0  0  0  0  0  0  0  0  0
  184.0050  178.6210  145.3750 N   0  0  0  0  0  0  0  0  0  0  0  0
  179.6600  180.3380  142.8880 C   0  0  1  0  0  3  0  0  0  0  0  0
  178.9310  179.0470  143.2510 C   0  0  0  0  0  2  0  0  0  0  0  0
  181.8380  179.2670  143.5190 C   0  0  1  0  0  3  0  0  0  0  0  0
  179.6780  178.3160  144.3630 C   0  0  0  0  0  2  0  0  0  0  0  0
  181.0820  180.0310  142.4300 C   0  0  0  0  0  2  0  0  0  0  0  0
  181.0990  177.9880  143.9160 C   0  0  0  0  0  2  0  0  0  0  0  0
  178.9730  180.9900  141.8660 O   0  0  0  0  0  1  0  0  0  0  0  0
  188.7020  178.0510  139.7100 C   0  0  0  0  0  2  0  0  0  0  0  0
  191.1250  176.4100  140.1060 N   0  0  0  0  0  1  0  0  0  0  0  0
  188.8410  176.6160  139.2010 C   0  0  2  0  0  3  0  0  0  0  0  0
  190.3070  176.2590  138.9150 C   0  0  1  0  0  3  0  0  0  0  0  0
  189.8680  177.4410  136.6830 C   0  0  0  0  0  2  0  0  0  0  0  0
  188.7300  176.4280  136.6290 C   0  0  0  0  0  2  0  0  0  0  0  0
  187.9600  176.3920  137.9560 C   0  0  0  0  0  2  0  0  0  0  0  0
  190.9030  177.0660  137.7520 C   0  0  0  0  0  2  0  0  0  0  0  0
  1 13  1  0  0  0  0
  1 11  2  0  0  0  0
  2  8  1  0  0  0  0
  2  6  1  0  0  0  0
  3 12  1  0  0  0  0
  3  8  2  0  0  0  0
  4 15  2  0  0  0  0
  4 18  1  0  0  0  0
  5 11  1  0  0  0  0
  6  5  2  0  0  0  0
  7 18  2  0  0  0  0
  7 14  1  0  0  0  0
  8  1  1  0  0  0  0
  9  7  1  0  0  0  0
 10  4  1  0  0  0  0
 12 19  1  0  0  0  0
 14  2  2  0  0  0  0
 15 16  1  0  0  0  0
 16 12  2  0  0  0  0
 17 10  1  0  0  0  0
 17  9  2  0  0  0  0
 18  3  1  0  0  0  0
 19 13  2  0  0  0  0
 20 26  1  6  0  0  0
 20 21  1  0  0  0  0
 21 23  1  0  0  0  0
 22 16  1  6  0  0  0
 22 25  1  0  0  0  0
 24 20  1  0  0  0  0
 24 22  1  0  0  0  0
 25 23  1  0  0  0  0
 27  9  1  0  0  0  0
 29 27  1  6  0  0  0
 30 29  1  0  0  0  0
 30 28  1  1  0  0  0
 31 34  1  0  0  0  0
 32 31  1  0  0  0  0
 32 33  1  0  0  0  0
 33 29  1  0  0  0  0
 34 30  1  0  0  0  0
M  END
>  <MODEL>
3

>  <REMARK>
 VINA RESULT:     -10.0      3.119      5.991
  Name = 
  3 active torsions:
  status: ('A' for Active; 'I' for Inactive)
    1  A    between atoms: C_3  and  C_13
    2  A    between atoms: C_3  and  C_17
    3  A    between atoms: C_12  and  C_28
                            x       y       z     vdW  Elec       q    Type
                         _______ _______ _______ _____ _____    ______ ____

>  <TORSDO>
F 3

$$$$
=
 OpenBabel10252415003D

 34 40  0  0  1  0  0  0  0  0999 V2000
  189.6710  177.5020  141.2390 C   0  0  0  0  0  0  0  0  0  0  0  0
  187.7130  178.1500  139.9390 C   0  0  0  0  0  0  0  0  0  0  0  0
  187.5520  177.8850  142.3680 C   0  0  0  0  0  0  0  0  0  0  0  0
  185.4840  178.2540  143.5690 C   0  0  0  0  0  0  0  0  0  0  0  0
  189.8430  177.7640  138.8420 C   0  0  0  0  0  3  0  0  0  0  0  0
  188.4890  178.1060  138.7770 C   0  0  0  0  0  3  0  0  0  0  0  0
  185.5280  178.5440  141.1500 C   0  0  0  0  0  0  0  0  0  0  0  0
  188.3040  177.8470  141.1820 C   0  0  0  0  0  0  0  0  0  0  0  0
  184.1630  178.8850  141.2020 C   0  0  0  0  0  0  0  0  0  0  0  0
  184.1340  178.5980  143.5660 C   0  0  0  0  0  3  0  0  0  0  0  0
  190.4350  177.4630  140.0710 C   0  0  0  0  0  3  0  0  0  0  0  0
  188.1830  177.5740  143.5930 C   0  0  0  0  0  0  0  0  0  0  0  0
  190.2520  177.2030  142.4730 C   0  0  0  0  0  3  0  0  0  0  0  0
  186.2580  178.5160  139.8260 C   0  0  0  0  0  3  0  0  0  0  0  0
  186.1120  177.9510  144.7350 N   0  0  0  0  0  0  0  0  0  0  0  0
  187.4280  177.6140  144.7860 C   0  0  0  0  0  0  0  0  0  0  0  0
  183.5110  178.9040  142.3990 N   0  0  0  0  0  0  0  0  0  0  0  0
  186.1910  178.2280  142.3530 C   0  0  1  0  0  3  0  0  0  0  0  0
  189.5060  177.2440  143.6080 N   0  0  0  0  0  0  0  0  0  0  0  0
  190.1240  177.0900  147.4800 C   0  0  1  0  0  3  0  0  0  0  0  0
  189.5020  177.9650  148.5650 C   0  0  0  0  0  2  0  0  0  0  0  0
  188.0220  177.2980  146.1280 C   0  0  1  0  0  3  0  0  0  0  0  0
  187.9870  177.7770  148.5880 C   0  0  0  0  0  2  0  0  0  0  0  0
  189.5450  177.4480  146.1150 C   0  0  0  0  0  2  0  0  0  0  0  0
  187.3890  178.1450  147.2340 C   0  0  0  0  0  2  0  0  0  0  0  0
  191.5040  177.2790  147.4640 O   0  0  0  0  0  1  0  0  0  0  0  0
  183.4090  179.2510  139.9630 C   0  0  0  0  0  2  0  0  0  0  0  0
  183.1670  176.5960  138.6920 N   0  0  0  0  0  1  0  0  0  0  0  0
  182.0920  178.4790  139.8670 C   0  0  2  0  0  3  0  0  0  0  0  0
  182.0710  177.5500  138.6450 C   0  0  1  0  0  3  0  0  0  0  0  0
  181.3870  179.6780  137.3890 C   0  0  0  0  0  2  0  0  0  0  0  0
  180.2990  179.6870  138.4570 C   0  0  0  0  0  2  0  0  0  0  0  0
  180.8930  179.4470  139.8520 C   0  0  0  0  0  2  0  0  0  0  0  0
  182.0880  178.3150  137.3120 C   0  0  0  0  0  2  0  0  0  0  0  0
  1 13  1  0  0  0  0
  2  8  1  0  0  0  0
  3 12  1  0  0  0  0
  4 15  2  0  0  0  0
  5 11  1  0  0  0  0
  6  5  2  0  0  0  0
  6  2  1  0  0  0  0
  7  9  2  0  0  0  0
  8  1  1  0  0  0  0
  8  3  2  0  0  0  0
  9 17  1  0  0  0  0
 10  4  1  0  0  0  0
 11  1  2  0  0  0  0
 12 19  1  0  0  0  0
 12 16  2  0  0  0  0
 13 19  2  0  0  0  0
 14  2  2  0  0  0  0
 14  7  1  0  0  0  0
 15 16  1  0  0  0  0
 17 10  2  0  0  0  0
 18  7  1  1  0  0  0
 18  3  1  0  0  0  0
 18  4  1  0  0  0  0
 20 26  1  6  0  0  0
 20 21  1  0  0  0  0
 21 23  1  0  0  0  0
 22 16  1  6  0  0  0
 22 25  1  0  0  0  0
 24 22  1  0  0  0  0
 24 20  1  0  0  0  0
 25 23  1  0  0  0  0
 27  9  1  0  0  0  0
 29 27  1  6  0  0  0
 30 28  1  6  0  0  0
 30 29  1  0  0  0  0
 31 32  1  0  0  0  0
 32 33  1  0  0  0  0
 33 29  1  0  0  0  0
 34 31  1  0  0  0  0
 34 30  1  0  0  0  0
M  END
>  <MODEL>
4

>  <REMARK>
 VINA RESULT:     -10.0      2.110      4.717
  Name = 
  3 active torsions:
  status: ('A' for Active; 'I' for Inactive)
    1  A    between atoms: C_3  and  C_13
    2  A    between atoms: C_3  and  C_17
    3  A    between atoms: C_12  and  C_28
                            x       y       z     vdW  Elec       q    Type
                         _______ _______ _______ _____ _____    ______ ____

>  <TORSDO>
F 3

$$$$
=
 OpenBabel10252415003D

 34 40  0  0  1  0  0  0  0  0999 V2000
  185.5330  178.2410  145.3910 C   0  0  0  0  0  0  0  0  0  0  0  0
  184.1910  178.8110  143.4370 C   0  0  0  0  0  0  0  0  0  0  0  0
  186.5450  178.1870  143.1810 C   0  0  0  0  0  0  0  0  0  0  0  0
  187.6260  178.1020  141.0180 C   0  0  0  0  0  0  0  0  0  0  0  0
  183.2080  178.8510  145.6550 C   0  0  0  0  0  3  0  0  0  0  0  0
  183.0910  179.0260  144.2730 C   0  0  0  0  0  3  0  0  0  0  0  0
  185.2790  178.7390  141.1550 C   0  0  0  0  0  0  0  0  0  0  0  0
  185.4230  178.4140  143.9950 C   0  0  0  0  0  0  0  0  0  0  0  0
  185.2710  178.8750  139.7530 C   0  0  0  0  0  0  0  0  0  0  0  0
  187.5670  178.2510  139.6340 C   0  0  0  0  0  2  0  0  0  0  0  0
  184.4270  178.4590  146.2150 C   0  0  0  0  0  3  0  0  0  0  0  0
  187.7610  177.7920  143.7800 C   0  0  0  0  0  0  0  0  0  0  0  0
  186.7550  177.8480  145.9390 C   0  0  0  0  0  3  0  0  0  0  0  0
  184.0260  179.0170  141.9560 C   0  0  0  0  0  3  0  0  0  0  0  0
  188.7850  177.7220  141.6170 N   0  0  0  0  0  0  0  0  0  0  0  0
  188.8890  177.5610  142.9630 C   0  0  0  0  0  0  0  0  0  0  0  0
  186.4050  178.6270  139.0390 N   0  0  0  0  0  0  0  0  0  0  0  0
  186.4740  178.3460  141.7880 C   0  0  0  0  0  0  0  0  0  0  0  0
  187.8280  177.6350  145.1340 N   0  0  0  0  0  0  0  0  0  0  0  0
  191.6830  177.0200  145.5520 C   0  0  1  0  0  3  0  0  0  0  0  0
  191.9410  175.5420  145.2700 C   0  0  0  0  0  2  0  0  0  0  0  0
  190.2170  177.1380  143.5210 C   0  0  1  0  0  3  0  0  0  0  0  0
  191.8760  175.2760  143.7690 C   0  0  0  0  0  2  0  0  0  0  0  0
  190.3130  177.4290  145.0200 C   0  0  0  0  0  2  0  0  0  0  0  0
  190.5070  175.6660  143.2210 C   0  0  0  0  0  2  0  0  0  0  0  0
  191.7340  177.2480  146.9260 O   0  0  0  0  0  1  0  0  0  0  0  0
  184.0280  179.2690  139.0200 C   0  0  0  0  0  2  0  0  0  0  0  0
  181.7810  179.5520  137.1240 N   0  0  0  0  0  1  0  0  0  0  0  0
  183.5170  178.1260  138.1410 C   0  0  2  0  0  3  0  0  0  0  0  0
  182.0270  178.2940  137.8080 C   0  0  1  0  0  3  0  0  0  0  0  0
  181.6790  177.2220  140.1110 C   0  0  0  0  0  2  0  0  0  0  0  0
  182.5630  176.1450  139.4920 C   0  0  0  0  0  2  0  0  0  0  0  0
  183.7890  176.7630  138.8070 C   0  0  0  0  0  2  0  0  0  0  0  0
  181.1210  178.1730  139.0440 C   0  0  0  0  0  2  0  0  0  0  0  0
  1 13  1  0  0  0  0
  1 11  2  0  0  0  0
  2  8  1  0  0  0  0
  2  6  1  0  0  0  0
  3 12  1  0  0  0  0
  3  8  2  0  0  0  0
  4 15  2  0  0  0  0
  4 18  1  0  0  0  0
  5 11  1  0  0  0  0
  6  5  2  0  0  0  0
  7 18  2  0  0  0  0
  7 14  1  0  0  0  0
  8  1  1  0  0  0  0
  9  7  1  0  0  0  0
 10  4  1  0  0  0  0
 12 19  1  0  0  0  0
 14  2  2  0  0  0  0
 15 16  1  0  0  0  0
 16 12  2  0  0  0  0
 17 10  1  0  0  0  0
 17  9  2  0  0  0  0
 18  3  1  0  0  0  0
 19 13  2  0  0  0  0
 20 26  1  1  0  0  0
 21 20  1  0  0  0  0
 22 16  1  1  0  0  0
 22 24  1  0  0  0  0
 23 21  1  0  0  0  0
 24 20  1  0  0  0  0
 25 22  1  0  0  0  0
 25 23  1  0  0  0  0
 27  9  1  0  0  0  0
 29 33  1  0  0  0  0
 29 27  1  1  0  0  0
 30 28  1  1  0  0  0
 30 29  1  0  0  0  0
 30 34  1  0  0  0  0
 32 31  1  0  0  0  0
 33 32  1  0  0  0  0
 34 31  1  0  0  0  0
M  END
>  <MODEL>
5

>  <REMARK>
 VINA RESULT:     -10.0      2.445      3.947
  Name = 
  3 active torsions:
  status: ('A' for Active; 'I' for Inactive)
    1  A    between atoms: C_3  and  C_13
    2  A    between atoms: C_3  and  C_17
    3  A    between atoms: C_12  and  C_28
                            x       y       z     vdW  Elec       q    Type
                         _______ _______ _______ _____ _____    ______ ____

>  <TORSDO>
F 3

$$$$
=
 OpenBabel10252415003D

 34 40  0  0  1  0  0  0  0  0999 V2000
  188.8230  177.2200  145.4370 C   0  0  0  0  0  0  0  0  0  0  0  0
  186.5750  178.1330  145.2010 C   0  0  0  0  0  0  0  0  0  0  0  0
  187.9400  177.6810  143.2200 C   0  0  0  0  0  0  0  0  0  0  0  0
  187.1350  178.1030  140.9770 C   0  0  0  0  0  0  0  0  0  0  0  0
  187.4830  177.6590  147.4010 C   0  0  0  0  0  3  0  0  0  0  0  0
  186.4380  178.1170  146.5920 C   0  0  0  0  0  3  0  0  0  0  0  0
  185.6900  178.5930  142.8770 C   0  0  0  0  0  0  0  0  0  0  0  0
  187.7740  177.6810  144.6140 C   0  0  0  0  0  0  0  0  0  0  0  0
  184.7030  179.0220  141.9690 C   0  0  0  0  0  0  0  0  0  0  0  0
  186.1250  178.5390  140.1210 C   0  0  0  0  0  2  0  0  0  0  0  0
  188.6740  177.2100  146.8250 C   0  0  0  0  0  3  0  0  0  0  0  0
  189.1580  177.2200  142.6720 C   0  0  0  0  0  0  0  0  0  0  0  0
  190.0090  176.7740  144.8520 C   0  0  0  0  0  3  0  0  0  0  0  0
  185.4310  178.6400  144.3660 C   0  0  0  0  0  3  0  0  0  0  0  0
  188.3140  177.6560  140.4730 N   0  0  0  0  0  0  0  0  0  0  0  0
  189.3260  177.2180  141.2700 C   0  0  0  0  0  0  0  0  0  0  0  0
  184.9460  178.9820  140.6290 N   0  0  0  0  0  0  0  0  0  0  0  0
  186.9180  178.1280  142.3670 C   0  0  0  0  0  0  0  0  0  0  0  0
  190.1500  176.7840  143.5000 N   0  0  0  0  0  0  0  0  0  0  0  0
  191.6490  175.9270  138.4890 C   0  0  1  0  0  3  0  0  0  0  0  0
  192.7670  176.9520  138.6630 C   0  0  0  0  0  2  0  0  0  0  0  0
  190.5880  176.7450  140.6080 C   0  0  1  0  0  3  0  0  0  0  0  0
  193.0040  177.2230  140.1450 C   0  0  0  0  0  2  0  0  0  0  0  0
  190.3610  176.4350  139.1270 C   0  0  0  0  0  2  0  0  0  0  0  0
  191.7290  177.7470  140.7980 C   0  0  0  0  0  2  0  0  0  0  0  0
  191.4350  175.6960  137.1310 O   0  0  0  0  0  1  0  0  0  0  0  0
  183.3710  179.5080  142.4470 C   0  0  0  0  0  2  0  0  0  0  0  0
  181.9640  178.3900  140.1030 N   0  0  0  0  0  1  0  0  0  0  0  0
  182.3620  178.3620  142.5370 C   0  0  2  0  0  3  0  0  0  0  0  0
  181.3240  178.4350  141.4070 C   0  0  1  0  0  3  0  0  0  0  0  0
  180.1670  180.1170  142.9580 C   0  0  0  0  0  2  0  0  0  0  0  0
  180.2700  178.9470  143.9310 C   0  0  0  0  0  2  0  0  0  0  0  0
  181.6810  178.3430  143.9190 C   0  0  0  0  0  2  0  0  0  0  0  0
  180.4130  179.6680  141.5120 C   0  0  0  0  0  2  0  0  0  0  0  0
  1 11  2  0  0  0  0
  2  6  1  0  0  0  0
  3  8  2  0  0  0  0
  4 18  1  0  0  0  0
  6  5  2  0  0  0  0
  7 14  1  0  0  0  0
  8  2  1  0  0  0  0
  8  1  1  0  0  0  0
  9 27  1  0  0  0  0
  9  7  1  0  0  0  0
 10 17  1  0  0  0  0
 10  4  1  0  0  0  0
 11  5  1  0  0  0  0
 12  3  1  0  0  0  0
 12 19  1  0  0  0  0
 13  1  1  0  0  0  0
 14  2  2  0  0  0  0
 15  4  2  0  0  0  0
 15 16  1  0  0  0  0
 16 12  2  0  0  0  0
 17  9  2  0  0  0  0
 18  7  2  0  0  0  0
 18  3  1  0  0  0  0
 19 13  2  0  0  0  0
 20 26  1  6  0  0  0
 20 21  1  0  0  0  0
 20 24  1  0  0  0  0
 21 23  1  0  0  0  0
 22 25  1  0  0  0  0
 22 16  1  6  0  0  0
 23 25  1  0  0  0  0
 24 22  1  0  0  0  0
 29 27  1  1  0  0  0
 29 33  1  0  0  0  0
 30 28  1  6  0  0  0
 30 34  1  0  0  0  0
 30 29  1  0  0  0  0
 31 32  1  0  0  0  0
 33 32  1  0  0  0  0
 34 31  1  0  0  0  0
M  END
>  <MODEL>
6

>  <REMARK>
 VINA RESULT:      -9.9      2.944      6.772
  Name = 
  3 active torsions:
  status: ('A' for Active; 'I' for Inactive)
    1  A    between atoms: C_3  and  C_13
    2  A    between atoms: C_3  and  C_17
    3  A    between atoms: C_12  and  C_28
                            x       y       z     vdW  Elec       q    Type
                         _______ _______ _______ _____ _____    ______ ____

>  <TORSDO>
F 3

$$$$
=
 OpenBabel10252415003D

 34 40  0  0  1  0  0  0  0  0999 V2000
  182.2530  178.9110  142.8150 C   0  0  0  0  0  0  0  0  0  0  0  0
  184.6450  178.7660  143.2660 C   0  0  0  0  0  0  0  0  0  0  0  0
  183.8150  178.7060  140.9640 C   0  0  0  0  0  0  0  0  0  0  0  0
  185.3010  178.5110  139.0650 C   0  0  0  0  0  0  0  0  0  0  0  0
  183.0610  178.9750  145.0940 C   0  0  0  0  0  3  0  0  0  0  0  0
  184.3770  178.8580  144.6360 C   0  0  0  0  0  3  0  0  0  0  0  0
  186.2370  178.5580  141.3130 C   0  0  0  0  0  0  0  0  0  0  0  0
  183.5780  178.7930  142.3450 C   0  0  0  0  0  0  0  0  0  0  0  0
  187.5200  178.4480  140.7430 C   0  0  0  0  0  0  0  0  0  0  0  0
  186.5920  178.4020  138.5500 C   0  0  0  0  0  3  0  0  0  0  0  0
  181.9990  179.0030  144.1850 C   0  0  0  0  0  3  0  0  0  0  0  0
  182.7180  178.7360  140.0740 C   0  0  0  0  0  0  0  0  0  0  0  0
  181.2000  178.9380  141.9000 C   0  0  0  0  0  3  0  0  0  0  0  0
  186.0730  178.6340  142.8150 C   0  0  0  0  0  3  0  0  0  0  0  0
  184.2310  178.5420  138.2290 N   0  0  0  0  0  2  0  0  0  0  0  0
  182.9550  178.6500  138.6850 C   0  0  0  0  0  0  0  0  0  0  0  0
  187.6590  178.3750  139.3900 N   0  0  0  0  0  0  0  0  0  0  0  0
  185.1190  178.5910  140.4570 C   0  0  0  0  0  0  0  0  0  0  0  0
  181.4510  178.8500  140.5670 N   0  0  0  0  0  0  0  0  0  0  0  0
  180.2940  180.1050  136.3190 C   0  0  1  0  0  3  0  0  0  0  0  0
  180.6890  179.3300  135.0640 C   0  0  0  0  0  2  0  0  0  0  0  0
  181.8450  178.6750  137.6740 C   0  0  1  0  0  3  0  0  0  0  0  0
  181.0540  177.8930  135.4280 C   0  0  0  0  0  2  0  0  0  0  0  0
  181.4420  180.1090  137.3220 C   0  0  0  0  0  2  0  0  0  0  0  0
  182.2120  177.8780  136.4210 C   0  0  0  0  0  2  0  0  0  0  0  0
  179.9720  181.4160  135.9740 O   0  0  0  0  0  1  0  0  0  0  0  0
  188.7480  178.4280  141.5970 C   0  0  0  0  0  2  0  0  0  0  0  0
  188.2890  176.0030  143.2190 N   0  0  0  0  0  1  0  0  0  0  0  0
  189.5320  177.1280  141.4110 C   0  0  2  0  0  3  0  0  0  0  0  0
  189.6140  176.3270  142.7190 C   0  0  1  0  0  3  0  0  0  0  0  0
  191.5650  177.9080  143.2390 C   0  0  0  0  0  2  0  0  0  0  0  0
  192.0550  177.3780  141.8960 C   0  0  0  0  0  2  0  0  0  0  0  0
  190.9370  177.4160  140.8450 C   0  0  0  0  0  2  0  0  0  0  0  0
  190.4340  177.0390  143.8060 C   0  0  0  0  0  2  0  0  0  0  0  0
  1 11  1  0  0  0  0
  2  6  2  0  0  0  0
  3  8  1  0  0  0  0
  4 18  1  0  0  0  0
  6  5  1  0  0  0  0
  7 14  2  0  0  0  0
  8  1  2  0  0  0  0
  8  2  1  0  0  0  0
  9  7  1  0  0  0  0
  9 27  1  0  0  0  0
 10  4  2  0  0  0  0
 10 17  1  0  0  0  0
 11  5  2  0  0  0  0
 12 19  1  0  0  0  0
 12  3  1  0  0  0  0
 13  1  1  0  0  0  0
 14  2  1  0  0  0  0
 15 16  1  0  0  0  0
 15  4  1  0  0  0  0
 16 12  2  0  0  0  0
 17  9  2  0  0  0  0
 18  3  2  0  0  0  0
 18  7  1  0  0  0  0
 19 13  2  0  0  0  0
 20 26  1  6  0  0  0
 20 24  1  0  0  0  0
 21 23  1  0  0  0  0
 21 20  1  0  0  0  0
 22 16  1  1  0  0  0
 23 25  1  0  0  0  0
 24 22  1  0  0  0  0
 25 22  1  0  0  0  0
 29 27  1  1  0  0  0
 29 30  1  0  0  0  0
 30 28  1  1  0  0  0
 30 34  1  0  0  0  0
 31 34  1  0  0  0  0
 32 31  1  0  0  0  0
 33 29  1  0  0  0  0
 33 32  1  0  0  0  0
M  END
>  <MODEL>
7

>  <REMARK>
 VINA RESULT:      -9.8      4.101      8.040
  Name = 
  3 active torsions:
  status: ('A' for Active; 'I' for Inactive)
    1  A    between atoms: C_3  and  C_13
    2  A    between atoms: C_3  and  C_17
    3  A    between atoms: C_12  and  C_28
                            x       y       z     vdW  Elec       q    Type
                         _______ _______ _______ _____ _____    ______ ____

>  <TORSDO>
F 3

$$$$
=
 OpenBabel10252415003D

 34 40  0  0  1  0  0  0  0  0999 V2000
  187.8420  177.5010  144.2660 C   0  0  0  0  0  0  0  0  0  0  0  0
  185.7310  178.4340  143.4800 C   0  0  0  0  0  0  0  0  0  0  0  0
  187.4910  177.8420  141.8850 C   0  0  0  0  0  0  0  0  0  0  0  0
  187.2200  178.1410  139.4990 C   0  0  0  0  0  0  0  0  0  0  0  0
  186.1090  178.0790  145.8510 C   0  0  0  0  0  3  0  0  0  0  0  0
  185.2860  178.5050  144.8040 C   0  0  0  0  0  3  0  0  0  0  0  0
  185.4020  178.7680  140.9950 C   0  0  0  0  0  0  0  0  0  0  0  0
  187.0170  177.9280  143.2040 C   0  0  0  0  0  0  0  0  0  0  0  0
  184.6560  179.1580  139.8660 C   0  0  0  0  0  0  0  0  0  0  0  0
  186.4410  178.5410  138.4150 C   0  0  0  0  0  2  0  0  0  0  0  0
  187.3860  177.5770  145.5840 C   0  0  0  0  0  3  0  0  0  0  0  0
  188.7870  177.3300  141.6510 C   0  0  0  0  0  0  0  0  0  0  0  0
  189.1150  177.0020  143.9880 C   0  0  0  0  0  3  0  0  0  0  0  0
  184.8180  178.9080  142.3830 C   0  0  0  0  0  3  0  0  0  0  0  0
  188.4690  177.6460  139.2990 N   0  0  0  0  0  0  0  0  0  0  0  0
  189.2640  177.2400  140.3260 C   0  0  0  0  0  0  0  0  0  0  0  0
  185.1910  179.0320  138.6200 N   0  0  0  0  0  0  0  0  0  0  0  0
  186.6990  178.2530  140.8010 C   0  0  0  0  0  0  0  0  0  0  0  0
  189.5550  176.9280  142.7040 N   0  0  0  0  0  0  0  0  0  0  0  0
  192.1040  175.7240  138.2200 C   0  0  1  0  0  3  0  0  0  0  0  0
  193.1820  176.7500  138.5610 C   0  0  0  0  0  2  0  0  0  0  0  0
  190.6280  176.7080  139.9920 C   0  0  1  0  0  3  0  0  0  0  0  0
  193.0980  177.1290  140.0370 C   0  0  0  0  0  2  0  0  0  0  0  0
  190.7210  176.2900  138.5230 C   0  0  0  0  0  2  0  0  0  0  0  0
  191.7240  177.7110  140.3550 C   0  0  0  0  0  2  0  0  0  0  0  0
  192.1860  175.3940  136.8690 O   0  0  0  0  0  1  0  0  0  0  0  0
  183.2660  179.6930  140.0050 C   0  0  0  0  0  2  0  0  0  0  0  0
  181.3750  180.5910  137.9210 N   0  0  0  0  0  1  0  0  0  0  0  0
  182.2470  178.7690  139.3350 C   0  0  2  0  0  3  0  0  0  0  0  0
  181.0100  179.5440  138.8600 C   0  0  1  0  0  3  0  0  0  0  0  0
  180.2560  179.2830  141.2970 C   0  0  0  0  0  2  0  0  0  0  0  0
  180.5000  177.8120  140.9770 C   0  0  0  0  0  2  0  0  0  0  0  0
  181.8530  177.6160  140.2800 C   0  0  0  0  0  2  0  0  0  0  0  0
  180.1900  180.1310  140.0200 C   0  0  0  0  0  2  0  0  0  0  0  0
  1 11  2  0  0  0  0
  2  6  1  0  0  0  0
  3  8  2  0  0  0  0
  4 18  1  0  0  0  0
  6  5  2  0  0  0  0
  7 14  1  0  0  0  0
  8  2  1  0  0  0  0
  8  1  1  0  0  0  0
  9 27  1  0  0  0  0
  9  7  1  0  0  0  0
 10 17  1  0  0  0  0
 10  4  1  0  0  0  0
 11  5  1  0  0  0  0
 12  3  1  0  0  0  0
 12 19  1  0  0  0  0
 13  1  1  0  0  0  0
 14  2  2  0  0  0  0
 15  4  2  0  0  0  0
 15 16  1  0  0  0  0
 16 12  2  0  0  0  0
 17  9  2  0  0  0  0
 18  7  2  0  0  0  0
 18  3  1  0  0  0  0
 19 13  2  0  0  0  0
 20 26  1  6  0  0  0
 20 24  1  0  0  0  0
 20 21  1  0  0  0  0
 21 23  1  0  0  0  0
 22 16  1  6  0  0  0
 22 25  1  0  0  0  0
 23 25  1  0  0  0  0
 24 22  1  0  0  0  0
 29 27  1  1  0  0  0
 29 33  1  0  0  0  0
 30 28  1  6  0  0  0
 30 29  1  0  0  0  0
 30 34  1  0  0  0  0
 32 31  1  0  0  0  0
 33 32  1  0  0  0  0
 34 31  1  0  0  0  0
M  END
>  <MODEL>
8

>  <REMARK>
 VINA RESULT:      -9.7      3.226      6.309
  Name = 
  3 active torsions:
  status: ('A' for Active; 'I' for Inactive)
    1  A    between atoms: C_3  and  C_13
    2  A    between atoms: C_3  and  C_17
    3  A    between atoms: C_12  and  C_28
                            x       y       z     vdW  Elec       q    Type
                         _______ _______ _______ _____ _____    ______ ____

>  <TORSDO>
F 3

$$$$
=
 OpenBabel10252415003D

 34 40  0  0  1  0  0  0  0  0999 V2000
  189.1530  177.4060  144.8800 C   0  0  0  0  0  0  0  0  0  0  0  0
  190.6460  177.0440  142.9880 C   0  0  0  0  0  0  0  0  0  0  0  0
  188.3530  177.8210  142.6220 C   0  0  0  0  0  0  0  0  0  0  0  0
  187.4820  178.2650  140.4090 C   0  0  0  0  0  0  0  0  0  0  0  0
  191.4160  176.6420  145.2540 C   0  0  0  0  0  3  0  0  0  0  0  0
  191.6540  176.6570  143.8760 C   0  0  0  0  0  3  0  0  0  0  0  0
  189.7800  177.4930  140.6550 C   0  0  0  0  0  0  0  0  0  0  0  0
  189.3850  177.4240  143.4890 C   0  0  0  0  0  0  0  0  0  0  0  0
  189.9120  177.5540  139.2540 C   0  0  0  0  0  0  0  0  0  0  0  0
  187.6650  178.3080  139.0280 C   0  0  0  0  0  2  0  0  0  0  0  0
  190.1680  177.0170  145.7570 C   0  0  0  0  0  3  0  0  0  0  0  0
  187.1030  178.1930  143.1650 C   0  0  0  0  0  0  0  0  0  0  0  0
  187.9020  177.7820  145.3720 C   0  0  0  0  0  3  0  0  0  0  0  0
  190.9400  177.0400  141.5130 C   0  0  0  0  0  3  0  0  0  0  0  0
  186.2890  178.6180  140.9540 N   0  0  0  0  0  0  0  0  0  0  0  0
  186.0660  178.5940  142.2950 C   0  0  0  0  0  0  0  0  0  0  0  0
  188.8610  177.9580  138.4880 N   0  0  0  0  0  0  0  0  0  0  0  0
  188.5470  177.8560  141.2320 C   0  0  0  0  0  0  0  0  0  0  0  0
  186.9170  178.1610  144.5160 N   0  0  0  0  0  0  0  0  0  0  0  0
  182.2400  178.9840  142.3590 C   0  0  1  0  0  3  0  0  0  0  0  0
  182.0050  178.4700  143.7780 C   0  0  0  0  0  2  0  0  0  0  0  0
  184.7100  179.0040  142.7910 C   0  0  1  0  0  3  0  0  0  0  0  0
  183.0980  178.9840  144.7100 C   0  0  0  0  0  2  0  0  0  0  0  0
  183.6020  178.5260  141.8500 C   0  0  0  0  0  2  0  0  0  0  0  0
  184.4680  178.5230  144.2230 C   0  0  0  0  0  2  0  0  0  0  0  0
  181.2410  178.4990  141.5170 O   0  0  0  0  0  1  0  0  0  0  0  0
  191.2020  177.2010  138.5820 C   0  0  0  0  0  2  0  0  0  0  0  0
  193.7680  175.7870  138.2160 N   0  0  0  0  0  1  0  0  0  0  0  0
  191.3080  175.6940  138.3430 C   0  0  2  0  0  3  0  0  0  0  0  0
  192.5650  175.3390  137.5360 C   0  0  1  0  0  3  0  0  0  0  0  0
  191.1100  175.9700  135.5210 C   0  0  0  0  0  2  0  0  0  0  0  0
  190.1890  174.9280  136.1460 C   0  0  0  0  0  2  0  0  0  0  0  0
  190.0350  175.1610  137.6550 C   0  0  0  0  0  2  0  0  0  0  0  0
  192.5290  175.8870  136.1000 C   0  0  0  0  0  2  0  0  0  0  0  0
  1 13  1  0  0  0  0
  1 11  2  0  0  0  0
  2  8  1  0  0  0  0
  2  6  1  0  0  0  0
  3 12  1  0  0  0  0
  3  8  2  0  0  0  0
  4 15  2  0  0  0  0
  4 18  1  0  0  0  0
  5 11  1  0  0  0  0
  6  5  2  0  0  0  0
  7 18  2  0  0  0  0
  7 14  1  0  0  0  0
  8  1  1  0  0  0  0
  9  7  1  0  0  0  0
 10  4  1  0  0  0  0
 12 19  1  0  0  0  0
 14  2  2  0  0  0  0
 15 16  1  0  0  0  0
 16 12  2  0  0  0  0
 17 10  1  0  0  0  0
 17  9  2  0  0  0  0
 18  3  1  0  0  0  0
 19 13  2  0  0  0  0
 20 26  1  6  0  0  0
 20 21  1  0  0  0  0
 21 23  1  0  0  0  0
 22 16  1  6  0  0  0
 22 25  1  0  0  0  0
 24 20  1  0  0  0  0
 24 22  1  0  0  0  0
 25 23  1  0  0  0  0
 27  9  1  0  0  0  0
 29 27  1  6  0  0  0
 30 28  1  1  0  0  0
 30 29  1  0  0  0  0
 31 34  1  0  0  0  0
 31 32  1  0  0  0  0
 32 33  1  0  0  0  0
 33 29  1  0  0  0  0
 34 30  1  0  0  0  0
M  END
>  <MODEL>
9

>  <REMARK>
 VINA RESULT:      -9.7      2.959      5.658
  Name = 
  3 active torsions:
  status: ('A' for Active; 'I' for Inactive)
    1  A    between atoms: C_3  and  C_13
    2  A    between atoms: C_3  and  C_17
    3  A    between atoms: C_12  and  C_28
                            x       y       z     vdW  Elec       q    Type
                         _______ _______ _______ _____ _____    ______ ____

>  <TORSDO>
F 3

$$$$
