=
 OpenBabel10262422263D

 43 47  0  0  1  0  0  0  0  0999 V2000
  187.3250  177.9190  147.0760 C   0  0  0  0  0  0  0  0  0  0  0  0
  184.1920  178.9080  143.2990 N   0  0  0  0  0  0  0  0  0  0  0  0
  185.4090  178.6460  145.7420 C   0  0  0  0  0  0  0  0  0  0  0  0
  188.0130  177.4890  146.0110 C   0  0  0  0  0  3  0  0  0  0  0  0
  187.9240  177.7920  148.4290 C   0  0  0  0  0  1  0  0  0  0  0  0
  186.1140  178.1870  144.5190 C   0  0  0  0  0  0  0  0  0  0  0  0
  185.9860  178.5160  146.9350 C   0  0  0  0  0  3  0  0  0  0  0  0
  187.4900  177.5750  144.6000 C   0  0  0  0  0  2  0  0  0  0  0  0
  185.9760  177.9610  142.0200 C   0  0  0  0  0  2  0  0  0  0  0  0
  185.4810  178.3390  143.3540 C   0  0  0  0  0  0  0  0  0  0  0  0
  183.5140  179.3570  144.4790 C   0  0  0  0  0  3  0  0  0  0  0  0
  183.6980  178.9600  141.9400 C   0  0  1  0  0  3  0  0  0  0  0  0
  184.8510  178.4160  141.0740 C   0  0  1  0  0  3  0  0  0  0  0  0
  184.0970  179.2300  145.6360 N   0  0  0  0  0  0  0  0  0  0  0  0
  182.4860  178.0560  141.7990 C   0  0  0  0  0  2  0  0  0  0  0  0
  181.3860  178.7920  141.1990 N   0  0  0  0  0  2  0  0  0  0  0  0
  180.7900  178.1720  137.5560 C   0  0  0  0  0  3  0  0  0  0  0  0
  181.4740  180.4710  137.8780 C   0  0  0  0  0  3  0  0  0  0  0  0
  181.0890  179.4310  137.0280 C   0  0  0  0  0  0  0  0  0  0  0  0
  180.8790  177.9540  138.9340 C   0  0  0  0  0  3  0  0  0  0  0  0
  181.2670  178.9960  139.7900 C   0  0  0  0  0  0  0  0  0  0  0  0
  181.0070  179.6410  135.6940 F   0  0  0  0  0  0  0  0  0  0  0  0
  181.5660  180.2540  139.2540 C   0  0  0  0  0  3  0  0  0  0  0  0
  185.3380  179.4390  140.2280 O   0  0  0  0  0  0  0  0  0  0  0  0
  185.6510  178.9290  138.9890 N   0  0  0  0  0  0  0  0  0  0  0  0
  184.5560  178.1300  138.4420 C   0  0  0  0  0  1  0  0  0  0  0  0
  186.8790  178.1330  139.0200 C   0  0  0  0  0  2  0  0  0  0  0  0
  187.8740  178.6850  138.0570 C   0  0  0  0  0  0  0  0  0  0  0  0
  187.4930  179.1230  136.9890 O   0  0  0  0  0  0  0  0  0  0  0  0
  189.3350  178.6850  138.3820 C   0  0  0  0  0  2  0  0  0  0  0  0
  189.8220  177.3550  138.9670 C   0  0  2  0  0  3  0  0  0  0  0  0
  189.8800  177.0110  141.4690 C   0  0  0  0  0  0  0  0  0  0  0  0
  190.4310  177.5630  140.2730 N   0  0  0  0  0  2  0  0  0  0  0  0
  188.7970  176.3650  141.4280 O   0  0  0  0  0  0  0  0  0  0  0  0
  190.5690  177.2190  142.7510 C   0  0  0  0  0  0  0  0  0  0  0  0
  191.5610  176.3780  144.7680 C   0  0  0  0  0  3  0  0  0  0  0  0
  191.4880  178.7010  144.3550 C   0  0  0  0  0  3  0  0  0  0  0  0
  191.8310  177.6530  145.1470 N   0  0  0  0  0  0  0  0  0  0  0  0
  190.8610  178.4800  143.1710 N   0  0  0  0  0  0  0  0  0  0  0  0
  190.9210  176.1330  143.5550 C   0  0  0  0  0  3  0  0  0  0  0  0
  190.8040  176.6450  138.0440 C   0  0  0  0  0  2  0  0  0  0  0  0
  190.9960  174.2670  137.9040 O   0  0  0  0  0  1  0  0  0  0  0  0
  190.2160  175.3540  137.5010 C   0  0  0  0  0  2  0  0  0  0  0  0
  1  5  1  0  0  0  0
  2 10  1  0  0  0  0
  2 11  1  0  0  0  0
  3  7  2  0  0  0  0
  4  1  2  0  0  0  0
  6  8  1  0  0  0  0
  6  3  1  0  0  0  0
  7  1  1  0  0  0  0
  8  4  1  0  0  0  0
  9 10  1  0  0  0  0
 10  6  2  0  0  0  0
 11 14  2  0  0  0  0
 12 15  1  1  0  0  0
 12  2  1  0  0  0  0
 13 24  1  6  0  0  0
 13 12  1  0  0  0  0
 13  9  1  0  0  0  0
 14  3  1  0  0  0  0
 16 15  1  0  0  0  0
 17 20  1  0  0  0  0
 18 23  2  0  0  0  0
 19 17  2  0  0  0  0
 19 18  1  0  0  0  0
 20 21  2  0  0  0  0
 21 16  1  0  0  0  0
 22 19  1  0  0  0  0
 23 21  1  0  0  0  0
 25 27  1  0  0  0  0
 25 24  1  0  0  0  0
 26 25  1  0  0  0  0
 28 30  1  0  0  0  0
 28 27  1  0  0  0  0
 29 28  2  0  0  0  0
 30 31  1  0  0  0  0
 31 41  1  6  0  0  0
 31 33  1  0  0  0  0
 32 35  1  0  0  0  0
 33 32  1  0  0  0  0
 34 32  2  0  0  0  0
 35 39  2  0  0  0  0
 35 40  1  0  0  0  0
 36 38  1  0  0  0  0
 37 38  2  0  0  0  0
 39 37  1  0  0  0  0
 40 36  2  0  0  0  0
 43 42  1  0  0  0  0
 43 41  1  0  0  0  0
M  END
>  <MODEL>
1

>  <REMARK>
 VINA RESULT:      -8.6      0.000      0.000
  Name = 
  13 active torsions:
  status: ('A' for Active; 'I' for Inactive)
    1  A    between atoms: C_1  and  N_28
    2  A    between atoms: C_1  and  C_34
    3  A    between atoms: N_2  and  C_6
    4  A    between atoms: N_2  and  O_13
    5  A    between atoms: C_3  and  C_4
    6  A    between atoms: C_3  and  C_12
    7  A    between atoms: C_4  and  C_15
    8  A    between atoms: C_4  and  N_22
    9  A    between atoms: C_6  and  C_12
   10  A    between atoms: C_11  and  C_14
   11  A    between atoms: O_13  and  C_38
   12  A    between atoms: C_15  and  C_42
   13  A    between atoms: N_28  and  C_35
                            x       y       z     vdW  Elec       q    Type
                         _______ _______ _______ _____ _____    ______ ____

>  <TORSDO>
F 13

$$$$
=
 OpenBabel10262422263D

 43 47  0  0  1  0  0  0  0  0999 V2000
  193.6060  174.9040  136.6860 C   0  0  0  0  0  0  0  0  0  0  0  0
  190.5670  177.3680  139.8090 N   0  0  0  0  0  0  0  0  0  0  0  0
  192.7130  176.2360  138.5330 C   0  0  0  0  0  0  0  0  0  0  0  0
  192.4060  174.7260  136.1200 C   0  0  0  0  0  3  0  0  0  0  0  0
  194.8070  174.3040  136.0510 C   0  0  0  0  0  1  0  0  0  0  0  0
  191.3520  176.0750  137.9610 C   0  0  0  0  0  0  0  0  0  0  0  0
  193.7630  175.6830  137.9260 C   0  0  0  0  0  3  0  0  0  0  0  0
  191.1310  175.2940  136.6900 C   0  0  0  0  0  2  0  0  0  0  0  0
  188.9170  176.6220  138.2480 C   0  0  0  0  0  2  0  0  0  0  0  0
  190.3410  176.6460  138.6180 C   0  0  0  0  0  0  0  0  0  0  0  0
  191.8810  177.5280  140.3570 C   0  0  0  0  0  3  0  0  0  0  0  0
  189.3300  177.8860  140.3520 C   0  0  1  0  0  3  0  0  0  0  0  0
  188.2450  177.4800  139.3350 C   0  0  1  0  0  3  0  0  0  0  0  0
  192.8960  176.9890  139.7460 N   0  0  0  0  0  0  0  0  0  0  0  0
  189.0430  177.2280  141.6910 C   0  0  0  0  0  2  0  0  0  0  0  0
  189.3860  178.1370  142.7720 N   0  0  0  0  0  2  0  0  0  0  0  0
  191.6150  176.5570  145.3300 C   0  0  0  0  0  3  0  0  0  0  0  0
  189.6670  177.4850  146.4260 C   0  0  0  0  0  3  0  0  0  0  0  0
  190.8810  176.7980  146.4950 C   0  0  0  0  0  0  0  0  0  0  0  0
  191.1320  177.0010  144.0960 C   0  0  0  0  0  3  0  0  0  0  0  0
  189.9110  177.6910  144.0230 C   0  0  0  0  0  0  0  0  0  0  0  0
  191.3480  176.3630  147.6890 F   0  0  0  0  0  0  0  0  0  0  0  0
  189.1820  177.9280  145.1940 C   0  0  0  0  0  3  0  0  0  0  0  0
  187.6900  178.6360  138.7410 O   0  0  0  0  0  0  0  0  0  0  0  0
  187.0330  178.3100  137.5770 N   0  0  0  0  0  0  0  0  0  0  0  0
  187.6280  178.9740  136.4180 C   0  0  0  0  0  1  0  0  0  0  0  0
  185.6050  178.6220  137.6500 C   0  0  0  0  0  2  0  0  0  0  0  0
  184.8180  177.3800  137.8880 C   0  0  0  0  0  0  0  0  0  0  0  0
  185.1620  176.3420  137.3550 O   0  0  0  0  0  0  0  0  0  0  0  0
  183.6000  177.4000  138.7580 C   0  0  0  0  0  2  0  0  0  0  0  0
  183.3600  178.7570  139.4270 C   0  0  2  0  0  3  0  0  0  0  0  0
  184.5620  179.0060  141.6350 C   0  0  0  0  0  0  0  0  0  0  0  0
  183.4120  178.6310  140.8760 N   0  0  0  0  0  2  0  0  0  0  0  0
  185.6030  179.4100  141.0480 O   0  0  0  0  0  0  0  0  0  0  0  0
  184.5350  178.8970  143.1010 C   0  0  0  0  0  0  0  0  0  0  0  0
  185.5960  178.4010  145.1950 C   0  0  0  0  0  3  0  0  0  0  0  0
  183.3330  179.0680  145.1360 C   0  0  0  0  0  3  0  0  0  0  0  0
  184.4320  178.6820  145.8330 N   0  0  0  0  0  0  0  0  0  0  0  0
  183.3890  179.1710  143.7830 N   0  0  0  0  0  0  0  0  0  0  0  0
  185.6720  178.5030  143.8080 C   0  0  0  0  0  3  0  0  0  0  0  0
  182.0340  179.3790  139.0090 C   0  0  0  0  0  2  0  0  0  0  0  0
  181.5500  179.0110  136.6970 O   0  0  0  0  0  1  0  0  0  0  0  0
  181.3190  178.5160  137.9830 C   0  0  0  0  0  2  0  0  0  0  0  0
  1  7  1  0  0  0  0
  2 12  1  0  0  0  0
  2 11  1  0  0  0  0
  3 14  1  0  0  0  0
  4  1  2  0  0  0  0
  4  8  1  0  0  0  0
  5  1  1  0  0  0  0
  6  3  1  0  0  0  0
  6 10  2  0  0  0  0
  7  3  2  0  0  0  0
  8  6  1  0  0  0  0
  9 10  1  0  0  0  0
  9 13  1  0  0  0  0
 10  2  1  0  0  0  0
 12 15  1  1  0  0  0
 13 24  1  6  0  0  0
 13 12  1  0  0  0  0
 14 11  2  0  0  0  0
 15 16  1  0  0  0  0
 16 21  1  0  0  0  0
 17 19  1  0  0  0  0
 18 19  2  0  0  0  0
 19 22  1  0  0  0  0
 20 17  2  0  0  0  0
 21 20  1  0  0  0  0
 21 23  2  0  0  0  0
 23 18  1  0  0  0  0
 25 27  1  0  0  0  0
 25 24  1  0  0  0  0
 26 25  1  0  0  0  0
 27 28  1  0  0  0  0
 28 30  1  0  0  0  0
 29 28  2  0  0  0  0
 31 30  1  6  0  0  0
 31 33  1  0  0  0  0
 32 35  1  0  0  0  0
 33 32  1  0  0  0  0
 34 32  2  0  0  0  0
 35 39  2  0  0  0  0
 35 40  1  0  0  0  0
 36 38  1  0  0  0  0
 37 38  2  0  0  0  0
 39 37  1  0  0  0  0
 40 36  2  0  0  0  0
 41 31  1  0  0  0  0
 42 43  1  0  0  0  0
 43 41  1  0  0  0  0
M  END
>  <MODEL>
2

>  <REMARK>
 VINA RESULT:      -7.9      3.146      8.806
  Name = 
  13 active torsions:
  status: ('A' for Active; 'I' for Inactive)
    1  A    between atoms: C_1  and  N_28
    2  A    between atoms: C_1  and  C_34
    3  A    between atoms: N_2  and  C_6
    4  A    between atoms: N_2  and  O_13
    5  A    between atoms: C_3  and  C_4
    6  A    between atoms: C_3  and  C_12
    7  A    between atoms: C_4  and  C_15
    8  A    between atoms: C_4  and  N_22
    9  A    between atoms: C_6  and  C_12
   10  A    between atoms: C_11  and  C_14
   11  A    between atoms: O_13  and  C_38
   12  A    between atoms: C_15  and  C_42
   13  A    between atoms: N_28  and  C_35
                            x       y       z     vdW  Elec       q    Type
                         _______ _______ _______ _____ _____    ______ ____

>  <TORSDO>
F 13

$$$$
=
 OpenBabel10262422263D

 43 47  0  0  1  0  0  0  0  0999 V2000
  191.7770  176.0590  147.0200 C   0  0  0  0  0  0  0  0  0  0  0  0
  187.9360  177.9360  144.4150 N   0  0  0  0  0  0  0  0  0  0  0  0
  189.6780  177.1360  146.3760 C   0  0  0  0  0  0  0  0  0  0  0  0
  192.1370  175.8100  145.7550 C   0  0  0  0  0  3  0  0  0  0  0  0
  192.6700  175.6370  148.1290 C   0  0  0  0  0  1  0  0  0  0  0  0
  190.0140  176.8880  144.9510 C   0  0  0  0  0  0  0  0  0  0  0  0
  190.5110  176.7430  147.3380 C   0  0  0  0  0  3  0  0  0  0  0  0
  191.2980  176.1980  144.5650 C   0  0  0  0  0  2  0  0  0  0  0  0
  189.2490  177.1630  142.5730 C   0  0  0  0  0  2  0  0  0  0  0  0
  189.1340  177.2990  144.0350 C   0  0  0  0  0  0  0  0  0  0  0  0
  187.6150  178.1810  145.7900 C   0  0  0  0  0  3  0  0  0  0  0  0
  187.1340  178.2810  143.2610 C   0  0  1  0  0  3  0  0  0  0  0  0
  187.9790  177.8560  142.0460 C   0  0  1  0  0  3  0  0  0  0  0  0
  188.4460  177.7990  146.7170 N   0  0  0  0  0  0  0  0  0  0  0  0
  185.8380  177.4880  143.2820 C   0  0  0  0  0  2  0  0  0  0  0  0
  184.7640  178.3110  143.8130 N   0  0  0  0  0  2  0  0  0  0  0  0
  181.2160  179.2000  143.0180 C   0  0  0  0  0  3  0  0  0  0  0  0
  182.3890  178.6680  140.9690 C   0  0  0  0  0  3  0  0  0  0  0  0
  181.2180  179.0500  141.6280 C   0  0  0  0  0  0  0  0  0  0  0  0
  182.3850  178.9640  143.7470 C   0  0  0  0  0  3  0  0  0  0  0  0
  183.5620  178.5780  143.0880 C   0  0  0  0  0  0  0  0  0  0  0  0
  180.0850  179.2740  140.9230 F   0  0  0  0  0  0  0  0  0  0  0  0
  183.5570  178.4300  141.6960 C   0  0  0  0  0  3  0  0  0  0  0  0
  188.3470  178.9960  141.2960 O   0  0  0  0  0  0  0  0  0  0  0  0
  188.0230  178.8250  139.9700 N   0  0  0  0  0  0  0  0  0  0  0  0
  186.7400  178.1420  139.8130 C   0  0  0  0  0  1  0  0  0  0  0  0
  189.0650  178.1000  139.2410 C   0  0  0  0  0  2  0  0  0  0  0  0
  189.1350  178.5800  137.8320 C   0  0  0  0  0  0  0  0  0  0  0  0
  188.9190  179.7510  137.5870 O   0  0  0  0  0  0  0  0  0  0  0  0
  189.4480  177.6320  136.7160 C   0  0  0  0  0  2  0  0  0  0  0  0
  189.8670  176.2420  137.2050 C   0  0  2  0  0  3  0  0  0  0  0  0
  192.3470  176.1620  137.6830 C   0  0  0  0  0  0  0  0  0  0  0  0
  191.2370  175.9510  136.8090 N   0  0  0  0  0  2  0  0  0  0  0  0
  192.1660  176.6710  138.8220 O   0  0  0  0  0  0  0  0  0  0  0  0
  193.7020  175.8050  137.2380 C   0  0  0  0  0  0  0  0  0  0  0  0
  195.7210  174.5290  137.4600 C   0  0  0  0  0  3  0  0  0  0  0  0
  195.5110  176.1350  135.7440 C   0  0  0  0  0  3  0  0  0  0  0  0
  196.2360  175.1870  136.3910 N   0  0  0  0  0  0  0  0  0  0  0  0
  194.2570  176.4380  136.1700 N   0  0  0  0  0  0  0  0  0  0  0  0
  194.4360  174.8250  137.9080 C   0  0  0  0  0  3  0  0  0  0  0  0
  188.9380  175.1480  136.6960 C   0  0  0  0  0  2  0  0  0  0  0  0
  186.6810  175.6470  137.3070 O   0  0  0  0  0  1  0  0  0  0  0  0
  187.6000  175.7200  136.2570 C   0  0  0  0  0  2  0  0  0  0  0  0
  1  7  1  0  0  0  0
  1  5  1  0  0  0  0
  2 11  1  0  0  0  0
  3 14  1  0  0  0  0
  3  7  2  0  0  0  0
  4  1  2  0  0  0  0
  6  3  1  0  0  0  0
  8  6  1  0  0  0  0
  8  4  1  0  0  0  0
  9 10  1  0  0  0  0
 10  2  1  0  0  0  0
 10  6  2  0  0  0  0
 11 14  2  0  0  0  0
 12 15  1  1  0  0  0
 12  2  1  0  0  0  0
 13 24  1  1  0  0  0
 13  9  1  0  0  0  0
 13 12  1  0  0  0  0
 15 16  1  0  0  0  0
 17 20  1  0  0  0  0
 18 19  1  0  0  0  0
 18 23  2  0  0  0  0
 19 17  2  0  0  0  0
 21 20  2  0  0  0  0
 21 16  1  0  0  0  0
 22 19  1  0  0  0  0
 23 21  1  0  0  0  0
 25 24  1  0  0  0  0
 26 25  1  0  0  0  0
 27 25  1  0  0  0  0
 28 27  1  0  0  0  0
 29 28  2  0  0  0  0
 30 31  1  0  0  0  0
 30 28  1  0  0  0  0
 31 41  1  6  0  0  0
 32 34  2  0  0  0  0
 33 31  1  0  0  0  0
 33 32  1  0  0  0  0
 35 32  1  0  0  0  0
 35 40  1  0  0  0  0
 36 40  2  0  0  0  0
 37 39  1  0  0  0  0
 37 38  2  0  0  0  0
 38 36  1  0  0  0  0
 39 35  2  0  0  0  0
 43 41  1  0  0  0  0
 43 42  1  0  0  0  0
M  END
>  <MODEL>
3

>  <REMARK>
 VINA RESULT:      -7.8      2.874      4.822
  Name = 
  13 active torsions:
  status: ('A' for Active; 'I' for Inactive)
    1  A    between atoms: C_1  and  N_28
    2  A    between atoms: C_1  and  C_34
    3  A    between atoms: N_2  and  C_6
    4  A    between atoms: N_2  and  O_13
    5  A    between atoms: C_3  and  C_4
    6  A    between atoms: C_3  and  C_12
    7  A    between atoms: C_4  and  C_15
    8  A    between atoms: C_4  and  N_22
    9  A    between atoms: C_6  and  C_12
   10  A    between atoms: C_11  and  C_14
   11  A    between atoms: O_13  and  C_38
   12  A    between atoms: C_15  and  C_42
   13  A    between atoms: N_28  and  C_35
                            x       y       z     vdW  Elec       q    Type
                         _______ _______ _______ _____ _____    ______ ____

>  <TORSDO>
F 13

$$$$
=
 OpenBabel10262422263D

 43 47  0  0  1  0  0  0  0  0999 V2000
  187.6140  177.7640  147.2050 C   0  0  0  0  0  0  0  0  0  0  0  0
  184.2470  178.8360  143.6580 N   0  0  0  0  0  0  0  0  0  0  0  0
  185.5870  178.4450  146.0190 C   0  0  0  0  0  0  0  0  0  0  0  0
  188.2900  177.5050  146.0780 C   0  0  0  0  0  3  0  0  0  0  0  0
  188.2790  177.5580  148.5170 C   0  0  0  0  0  1  0  0  0  0  0  0
  186.2750  178.1740  144.7320 C   0  0  0  0  0  0  0  0  0  0  0  0
  186.2240  178.2490  147.1720 C   0  0  0  0  0  3  0  0  0  0  0  0
  187.7010  177.6820  144.7020 C   0  0  0  0  0  2  0  0  0  0  0  0
  186.0490  178.1840  142.2290 C   0  0  0  0  0  2  0  0  0  0  0  0
  185.5810  178.3820  143.6110 C   0  0  0  0  0  0  0  0  0  0  0  0
  183.5850  179.1040  144.9010 C   0  0  0  0  0  3  0  0  0  0  0  0
  183.6930  178.9790  142.3300 C   0  0  1  0  0  3  0  0  0  0  0  0
  184.8490  178.6280  141.3740 C   0  0  1  0  0  3  0  0  0  0  0  0
  184.2270  178.9160  146.0180 N   0  0  0  0  0  0  0  0  0  0  0  0
  182.5570  177.9870  142.1400 C   0  0  0  0  0  2  0  0  0  0  0  0
  181.9810  178.1450  140.8150 N   0  0  0  0  0  2  0  0  0  0  0  0
  181.8740  175.1570  138.5630 C   0  0  0  0  0  3  0  0  0  0  0  0
  179.6210  175.7440  139.2260 C   0  0  0  0  0  3  0  0  0  0  0  0
  180.4970  174.9220  138.5120 C   0  0  0  0  0  0  0  0  0  0  0  0
  182.3730  176.2150  139.3270 C   0  0  0  0  0  3  0  0  0  0  0  0
  181.4970  177.0440  140.0440 C   0  0  0  0  0  0  0  0  0  0  0  0
  180.0130  173.9000  137.7690 F   0  0  0  0  0  0  0  0  0  0  0  0
  180.1190  176.8030  139.9880 C   0  0  0  0  0  3  0  0  0  0  0  0
  185.2100  179.7690  140.6210 O   0  0  0  0  0  0  0  0  0  0  0  0
  185.0310  179.5340  139.2770 N   0  0  0  0  0  0  0  0  0  0  0  0
  183.6810  179.8880  138.8430 C   0  0  0  0  0  1  0  0  0  0  0  0
  185.3170  178.1420  138.9230 C   0  0  0  0  0  2  0  0  0  0  0  0
  186.1550  178.0870  137.6920 C   0  0  0  0  0  0  0  0  0  0  0  0
  186.8830  179.0230  137.4210 O   0  0  0  0  0  0  0  0  0  0  0  0
  186.0940  176.9050  136.7760 C   0  0  0  0  0  2  0  0  0  0  0  0
  187.4720  176.3140  136.4600 C   0  0  2  0  0  3  0  0  0  0  0  0
  189.4570  175.9160  137.9710 C   0  0  0  0  0  0  0  0  0  0  0  0
  188.4610  176.7790  137.4210 N   0  0  0  0  0  2  0  0  0  0  0  0
  189.4650  174.6900  137.6750 O   0  0  0  0  0  0  0  0  0  0  0  0
  190.4560  176.4580  138.9030 C   0  0  0  0  0  0  0  0  0  0  0  0
  191.0650  177.3900  141.0280 C   0  0  0  0  0  3  0  0  0  0  0  0
  192.6980  177.0800  139.3530 C   0  0  0  0  0  3  0  0  0  0  0  0
  192.3490  177.4880  140.6000 N   0  0  0  0  0  0  0  0  0  0  0  0
  191.7560  176.5730  138.5160 N   0  0  0  0  0  0  0  0  0  0  0  0
  190.0870  176.8700  140.1850 C   0  0  0  0  0  3  0  0  0  0  0  0
  187.9290  176.6440  135.0450 C   0  0  0  0  0  2  0  0  0  0  0  0
  190.2690  176.8310  134.5940 O   0  0  0  0  0  1  0  0  0  0  0  0
  189.1560  177.5400  135.0560 C   0  0  0  0  0  2  0  0  0  0  0  0
  1  5  1  0  0  0  0
  2 11  1  0  0  0  0
  3  7  2  0  0  0  0
  4  1  2  0  0  0  0
  6  3  1  0  0  0  0
  7  1  1  0  0  0  0
  8  6  1  0  0  0  0
  8  4  1  0  0  0  0
  9 10  1  0  0  0  0
 10  2  1  0  0  0  0
 10  6  2  0  0  0  0
 11 14  2  0  0  0  0
 12 15  1  1  0  0  0
 12  2  1  0  0  0  0
 13 24  1  1  0  0  0
 13  9  1  0  0  0  0
 13 12  1  0  0  0  0
 14  3  1  0  0  0  0
 16 15  1  0  0  0  0
 17 20  1  0  0  0  0
 18 23  2  0  0  0  0
 19 17  2  0  0  0  0
 19 18  1  0  0  0  0
 20 21  2  0  0  0  0
 21 16  1  0  0  0  0
 22 19  1  0  0  0  0
 23 21  1  0  0  0  0
 25 24  1  0  0  0  0
 26 25  1  0  0  0  0
 27 25  1  0  0  0  0
 28 27  1  0  0  0  0
 29 28  2  0  0  0  0
 30 28  1  0  0  0  0
 31 41  1  6  0  0  0
 31 30  1  0  0  0  0
 31 33  1  0  0  0  0
 32 35  1  0  0  0  0
 33 32  1  0  0  0  0
 34 32  2  0  0  0  0
 35 40  1  0  0  0  0
 37 38  2  0  0  0  0
 38 36  1  0  0  0  0
 39 35  2  0  0  0  0
 39 37  1  0  0  0  0
 40 36  2  0  0  0  0
 41 43  1  0  0  0  0
 42 43  1  0  0  0  0
M  END
>  <MODEL>
4

>  <REMARK>
 VINA RESULT:      -7.7      2.095      2.964
  Name = 
  13 active torsions:
  status: ('A' for Active; 'I' for Inactive)
    1  A    between atoms: C_1  and  N_28
    2  A    between atoms: C_1  and  C_34
    3  A    between atoms: N_2  and  C_6
    4  A    between atoms: N_2  and  O_13
    5  A    between atoms: C_3  and  C_4
    6  A    between atoms: C_3  and  C_12
    7  A    between atoms: C_4  and  C_15
    8  A    between atoms: C_4  and  N_22
    9  A    between atoms: C_6  and  C_12
   10  A    between atoms: C_11  and  C_14
   11  A    between atoms: O_13  and  C_38
   12  A    between atoms: C_15  and  C_42
   13  A    between atoms: N_28  and  C_35
                            x       y       z     vdW  Elec       q    Type
                         _______ _______ _______ _____ _____    ______ ____

>  <TORSDO>
F 13

$$$$
=
 OpenBabel10262422263D

 43 47  0  0  1  0  0  0  0  0999 V2000
  184.2590  178.7820  144.1860 C   0  0  0  0  0  0  0  0  0  0  0  0
  188.5550  177.1290  142.2190 N   0  0  0  0  0  0  0  0  0  0  0  0
  186.3640  177.6000  143.7990 C   0  0  0  0  0  0  0  0  0  0  0  0
  184.3230  179.4530  143.0300 C   0  0  0  0  0  3  0  0  0  0  0  0
  183.1040  179.0040  145.0940 C   0  0  0  0  0  1  0  0  0  0  0  0
  186.5010  178.3130  142.5040 C   0  0  0  0  0  0  0  0  0  0  0  0
  185.3090  177.8270  144.5800 C   0  0  0  0  0  3  0  0  0  0  0  0
  185.4540  179.2970  142.0450 C   0  0  0  0  0  2  0  0  0  0  0  0
  187.9320  178.6280  140.4630 C   0  0  0  0  0  2  0  0  0  0  0  0
  187.5830  178.0470  141.7710 C   0  0  0  0  0  0  0  0  0  0  0  0
  188.4200  176.4360  143.4660 C   0  0  0  0  0  3  0  0  0  0  0  0
  189.6420  177.0090  141.2720 C   0  0  1  0  0  3  0  0  0  0  0  0
  189.2450  177.9150  140.0900 C   0  0  1  0  0  3  0  0  0  0  0  0
  187.3770  176.6640  144.2120 N   0  0  0  0  0  0  0  0  0  0  0  0
  190.9270  177.5250  141.8980 C   0  0  0  0  0  2  0  0  0  0  0  0
  191.6310  176.4330  142.5490 N   0  0  0  0  0  2  0  0  0  0  0  0
  191.4610  177.1800  146.2130 C   0  0  0  0  0  3  0  0  0  0  0  0
  192.1290  174.8760  145.8930 C   0  0  0  0  0  3  0  0  0  0  0  0
  191.8340  175.9430  146.7460 C   0  0  0  0  0  0  0  0  0  0  0  0
  191.3840  177.3490  144.8280 C   0  0  0  0  0  3  0  0  0  0  0  0
  191.6810  176.2800  143.9690 C   0  0  0  0  0  0  0  0  0  0  0  0
  191.9130  175.7820  148.0870 F   0  0  0  0  0  0  0  0  0  0  0  0
  192.0560  175.0450  144.5100 C   0  0  0  0  0  3  0  0  0  0  0  0
  189.0370  177.1290  138.9340 O   0  0  0  0  0  0  0  0  0  0  0  0
  189.7550  177.6330  137.8750 N   0  0  0  0  0  0  0  0  0  0  0  0
  189.0680  178.7590  137.2440 C   0  0  0  0  0  1  0  0  0  0  0  0
  190.0480  176.6060  136.8730 C   0  0  0  0  0  2  0  0  0  0  0  0
  190.1930  175.2760  137.5290 C   0  0  0  0  0  0  0  0  0  0  0  0
  191.0780  175.1030  138.3440 O   0  0  0  0  0  0  0  0  0  0  0  0
  189.2750  174.1460  137.1780 C   0  0  0  0  0  2  0  0  0  0  0  0
  188.1240  174.5670  136.2590 C   0  0  2  0  0  3  0  0  0  0  0  0
  186.3180  176.3030  136.5900 C   0  0  0  0  0  0  0  0  0  0  0  0
  187.0380  175.1500  137.0310 N   0  0  0  0  0  2  0  0  0  0  0  0
  186.6550  176.8890  135.5250 O   0  0  0  0  0  0  0  0  0  0  0  0
  185.2000  176.8150  137.3960 C   0  0  0  0  0  0  0  0  0  0  0  0
  184.1850  178.5230  138.7400 C   0  0  0  0  0  3  0  0  0  0  0  0
  183.0510  176.4930  138.3380 C   0  0  0  0  0  3  0  0  0  0  0  0
  183.1020  177.7230  138.9100 N   0  0  0  0  0  0  0  0  0  0  0  0
  184.0940  176.0480  137.5910 N   0  0  0  0  0  0  0  0  0  0  0  0
  185.2620  178.0840  137.9750 C   0  0  0  0  0  3  0  0  0  0  0  0
  187.6010  173.4070  135.4220 C   0  0  0  0  0  2  0  0  0  0  0  0
  185.9990  171.9070  136.3710 O   0  0  0  0  0  1  0  0  0  0  0  0
  187.3680  172.1720  136.2760 C   0  0  0  0  0  2  0  0  0  0  0  0
  1  7  1  0  0  0  0
  1  5  1  0  0  0  0
  2 11  1  0  0  0  0
  3 14  1  0  0  0  0
  3  7  2  0  0  0  0
  4  1  2  0  0  0  0
  6  3  1  0  0  0  0
  8  6  1  0  0  0  0
  8  4  1  0  0  0  0
  9 10  1  0  0  0  0
 10  2  1  0  0  0  0
 10  6  2  0  0  0  0
 11 14  2  0  0  0  0
 12 15  1  1  0  0  0
 12  2  1  0  0  0  0
 13 24  1  6  0  0  0
 13  9  1  0  0  0  0
 13 12  1  0  0  0  0
 15 16  1  0  0  0  0
 16 21  1  0  0  0  0
 17 19  1  0  0  0  0
 18 19  2  0  0  0  0
 19 22  1  0  0  0  0
 20 17  2  0  0  0  0
 21 23  2  0  0  0  0
 21 20  1  0  0  0  0
 23 18  1  0  0  0  0
 25 24  1  0  0  0  0
 26 25  1  0  0  0  0
 27 28  1  0  0  0  0
 27 25  1  0  0  0  0
 28 29  2  0  0  0  0
 30 28  1  0  0  0  0
 31 41  1  1  0  0  0
 31 33  1  0  0  0  0
 31 30  1  0  0  0  0
 32 33  1  0  0  0  0
 32 35  1  0  0  0  0
 34 32  2  0  0  0  0
 35 39  2  0  0  0  0
 35 40  1  0  0  0  0
 36 38  1  0  0  0  0
 37 38  2  0  0  0  0
 39 37  1  0  0  0  0
 40 36  2  0  0  0  0
 41 43  1  0  0  0  0
 43 42  1  0  0  0  0
M  END
>  <MODEL>
5

>  <REMARK>
 VINA RESULT:      -7.5      3.521      7.894
  Name = 
  13 active torsions:
  status: ('A' for Active; 'I' for Inactive)
    1  A    between atoms: C_1  and  N_28
    2  A    between atoms: C_1  and  C_34
    3  A    between atoms: N_2  and  C_6
    4  A    between atoms: N_2  and  O_13
    5  A    between atoms: C_3  and  C_4
    6  A    between atoms: C_3  and  C_12
    7  A    between atoms: C_4  and  C_15
    8  A    between atoms: C_4  and  N_22
    9  A    between atoms: C_6  and  C_12
   10  A    between atoms: C_11  and  C_14
   11  A    between atoms: O_13  and  C_38
   12  A    between atoms: C_15  and  C_42
   13  A    between atoms: N_28  and  C_35
                            x       y       z     vdW  Elec       q    Type
                         _______ _______ _______ _____ _____    ______ ____

>  <TORSDO>
F 13

$$$$
=
 OpenBabel10262422263D

 43 47  0  0  1  0  0  0  0  0999 V2000
  188.4480  177.5080  146.5790 C   0  0  0  0  0  0  0  0  0  0  0  0
  190.4190  176.6990  142.0490 N   0  0  0  0  0  0  0  0  0  0  0  0
  189.8600  176.7480  144.7330 C   0  0  0  0  0  0  0  0  0  0  0  0
  187.6100  178.1760  145.7760 C   0  0  0  0  0  3  0  0  0  0  0  0
  188.2080  177.5080  148.0450 C   0  0  0  0  0  1  0  0  0  0  0  0
  188.9730  177.4710  143.7860 C   0  0  0  0  0  0  0  0  0  0  0  0
  189.6040  176.7720  146.0400 C   0  0  0  0  0  3  0  0  0  0  0  0
  187.7710  178.2360  144.2790 C   0  0  0  0  0  2  0  0  0  0  0  0
  188.5630  178.0470  141.3750 C   0  0  0  0  0  2  0  0  0  0  0  0
  189.2870  177.4140  142.4900 C   0  0  0  0  0  0  0  0  0  0  0  0
  191.2710  175.9960  142.9620 C   0  0  0  0  0  3  0  0  0  0  0  0
  190.5690  176.7860  140.6120 C   0  0  1  0  0  3  0  0  0  0  0  0
  189.3500  177.5960  140.1310 C   0  0  1  0  0  3  0  0  0  0  0  0
  191.0000  176.0230  144.2350 N   0  0  0  0  0  0  0  0  0  0  0  0
  191.8450  177.5380  140.2750 C   0  0  0  0  0  2  0  0  0  0  0  0
  192.1290  177.4180  138.8550 N   0  0  0  0  0  2  0  0  0  0  0  0
  193.9870  174.3960  137.6600 C   0  0  0  0  0  3  0  0  0  0  0  0
  191.7010  174.2970  136.8730 C   0  0  0  0  0  3  0  0  0  0  0  0
  192.9810  173.7410  136.9450 C   0  0  0  0  0  0  0  0  0  0  0  0
  193.7130  175.6080  138.3000 C   0  0  0  0  0  3  0  0  0  0  0  0
  192.4290  176.1700  138.2280 C   0  0  0  0  0  0  0  0  0  0  0  0
  193.2480  172.5700  136.3220 F   0  0  0  0  0  0  0  0  0  0  0  0
  191.4260  175.5080  137.5090 C   0  0  0  0  0  3  0  0  0  0  0  0
  188.5220  176.7820  139.3250 O   0  0  0  0  0  0  0  0  0  0  0  0
  188.2010  177.4320  138.1560 N   0  0  0  0  0  0  0  0  0  0  0  0
  189.1190  178.5370  137.8830 C   0  0  0  0  0  1  0  0  0  0  0  0
  186.8210  177.9240  138.1650 C   0  0  0  0  0  2  0  0  0  0  0  0
  185.9800  177.1120  137.2410 C   0  0  0  0  0  0  0  0  0  0  0  0
  186.4180  176.8020  136.1500 O   0  0  0  0  0  0  0  0  0  0  0  0
  184.5970  176.6950  137.6320 C   0  0  0  0  0  2  0  0  0  0  0  0
  183.6900  177.8760  137.9910 C   0  0  2  0  0  3  0  0  0  0  0  0
  183.8770  178.8730  140.3050 C   0  0  0  0  0  0  0  0  0  0  0  0
  183.3830  177.8730  139.4140 N   0  0  0  0  0  2  0  0  0  0  0  0
  184.6560  179.7700  139.8800 O   0  0  0  0  0  0  0  0  0  0  0  0
  183.4920  178.8390  141.7230 C   0  0  0  0  0  0  0  0  0  0  0  0
  184.0460  178.6550  144.0510 C   0  0  0  0  0  3  0  0  0  0  0  0
  181.7970  178.9000  143.3780 C   0  0  0  0  0  3  0  0  0  0  0  0
  182.7270  178.7560  144.3560 N   0  0  0  0  0  0  0  0  0  0  0  0
  182.1810  178.9390  142.0760 N   0  0  0  0  0  0  0  0  0  0  0  0
  184.4580  178.6960  142.7210 C   0  0  0  0  0  3  0  0  0  0  0  0
  182.3990  177.8780  137.1820 C   0  0  0  0  0  2  0  0  0  0  0  0
  180.2720  178.9530  137.0060 O   0  0  0  0  0  1  0  0  0  0  0  0
  181.5870  179.1360  137.4410 C   0  0  0  0  0  2  0  0  0  0  0  0
  1  5  1  0  0  0  0
  2 10  1  0  0  0  0
  2 11  1  0  0  0  0
  3  7  2  0  0  0  0
  4  1  2  0  0  0  0
  6  8  1  0  0  0  0
  6  3  1  0  0  0  0
  7  1  1  0  0  0  0
  8  4  1  0  0  0  0
  9 10  1  0  0  0  0
 10  6  2  0  0  0  0
 11 14  2  0  0  0  0
 12 15  1  1  0  0  0
 12  2  1  0  0  0  0
 13 24  1  6  0  0  0
 13 12  1  0  0  0  0
 13  9  1  0  0  0  0
 14  3  1  0  0  0  0
 16 15  1  0  0  0  0
 17 20  1  0  0  0  0
 18 19  1  0  0  0  0
 18 23  2  0  0  0  0
 19 17  2  0  0  0  0
 21 20  2  0  0  0  0
 21 16  1  0  0  0  0
 22 19  1  0  0  0  0
 23 21  1  0  0  0  0
 25 27  1  0  0  0  0
 25 24  1  0  0  0  0
 26 25  1  0  0  0  0
 28 30  1  0  0  0  0
 28 27  1  0  0  0  0
 29 28  2  0  0  0  0
 30 31  1  0  0  0  0
 31 41  1  6  0  0  0
 31 33  1  0  0  0  0
 32 35  1  0  0  0  0
 33 32  1  0  0  0  0
 34 32  2  0  0  0  0
 35 39  2  0  0  0  0
 35 40  1  0  0  0  0
 36 38  1  0  0  0  0
 37 38  2  0  0  0  0
 39 37  1  0  0  0  0
 40 36  2  0  0  0  0
 41 43  1  0  0  0  0
 42 43  1  0  0  0  0
M  END
>  <MODEL>
6

>  <REMARK>
 VINA RESULT:      -7.4      2.937      7.853
  Name = 
  13 active torsions:
  status: ('A' for Active; 'I' for Inactive)
    1  A    between atoms: C_1  and  N_28
    2  A    between atoms: C_1  and  C_34
    3  A    between atoms: N_2  and  C_6
    4  A    between atoms: N_2  and  O_13
    5  A    between atoms: C_3  and  C_4
    6  A    between atoms: C_3  and  C_12
    7  A    between atoms: C_4  and  C_15
    8  A    between atoms: C_4  and  N_22
    9  A    between atoms: C_6  and  C_12
   10  A    between atoms: C_11  and  C_14
   11  A    between atoms: O_13  and  C_38
   12  A    between atoms: C_15  and  C_42
   13  A    between atoms: N_28  and  C_35
                            x       y       z     vdW  Elec       q    Type
                         _______ _______ _______ _____ _____    ______ ____

>  <TORSDO>
F 13

$$$$
=
 OpenBabel10262422263D

 43 47  0  0  1  0  0  0  0  0999 V2000
  194.9970  174.2240  136.4220 C   0  0  0  0  0  0  0  0  0  0  0  0
  190.5390  176.3170  137.3210 N   0  0  0  0  0  0  0  0  0  0  0  0
  192.6860  175.0020  136.2350 C   0  0  2  0  0  3  0  0  0  0  0  0
  195.1550  174.7190  137.6550 C   0  0  0  0  0  3  0  0  0  0  0  0
  196.1280  173.5130  135.7720 C   0  0  0  0  0  1  0  0  0  0  0  0
  192.7930  175.5780  137.5990 C   0  0  0  0  0  0  0  0  0  0  0  0
  193.7250  174.3690  135.6930 C   0  0  0  0  0  3  0  0  0  0  0  0
  194.0680  175.4550  138.3960 C   0  0  0  0  0  3  0  0  0  0  0  0
  191.5910  176.8520  139.4010 C   0  0  0  0  0  2  0  0  0  0  0  0
  191.7200  176.2060  138.0840 C   0  0  0  0  0  0  0  0  0  0  0  0
  190.4340  175.7550  136.0070 C   0  0  0  0  0  3  0  0  0  0  0  0
  189.5160  177.0450  138.0390 C   0  0  1  0  0  3  0  0  0  0  0  0
  190.1350  177.3530  139.4160 C   0  0  1  0  0  3  0  0  0  0  0  0
  191.4570  175.1310  135.4970 N   0  0  0  0  0  0  0  0  0  0  0  0
  189.2110  178.3460  137.3170 C   0  0  0  0  0  2  0  0  0  0  0  0
  187.9310  178.8700  137.7630 N   0  0  0  0  0  2  0  0  0  0  0  0
  184.4070  177.6190  137.9250 C   0  0  0  0  0  3  0  0  0  0  0  0
  185.3270  177.1470  135.7370 C   0  0  0  0  0  3  0  0  0  0  0  0
  184.2650  177.0820  136.6420 C   0  0  0  0  0  0  0  0  0  0  0  0
  185.6120  178.2170  138.3010 C   0  0  0  0  0  3  0  0  0  0  0  0
  186.6820  178.2820  137.3950 C   0  0  0  0  0  0  0  0  0  0  0  0
  183.0990  176.4980  136.2790 F   0  0  0  0  0  0  0  0  0  0  0  0
  186.5330  177.7430  136.1120 C   0  0  0  0  0  3  0  0  0  0  0  0
  189.4180  176.6720  140.4260 O   0  0  0  0  0  0  0  0  0  0  0  0
  189.1200  177.5260  141.4620 N   0  0  0  0  0  0  0  0  0  0  0  0
  188.3370  178.6740  141.0070 C   0  0  0  0  0  1  0  0  0  0  0  0
  190.3250  177.9900  142.1540 C   0  0  0  0  0  2  0  0  0  0  0  0
  190.5740  177.1590  143.3650 C   0  0  0  0  0  0  0  0  0  0  0  0
  190.8780  175.9890  143.2370 O   0  0  0  0  0  0  0  0  0  0  0  0
  190.4320  177.7440  144.7360 C   0  0  0  0  0  2  0  0  0  0  0  0
  189.3360  177.0700  145.5680 C   0  0  2  0  0  3  0  0  0  0  0  0
  187.1000  177.2110  144.4010 C   0  0  0  0  0  0  0  0  0  0  0  0
  188.0510  177.7140  145.3410 N   0  0  0  0  0  2  0  0  0  0  0  0
  187.3820  176.2090  143.6900 O   0  0  0  0  0  0  0  0  0  0  0  0
  185.8000  177.8820  144.2520 C   0  0  0  0  0  0  0  0  0  0  0  0
  183.8770  178.9760  145.1790 C   0  0  0  0  0  3  0  0  0  0  0  0
  184.0470  178.6410  142.8500 C   0  0  0  0  0  3  0  0  0  0  0  0
  183.3670  179.1050  143.9290 N   0  0  0  0  0  0  0  0  0  0  0  0
  185.2510  178.0350  143.0160 N   0  0  0  0  0  0  0  0  0  0  0  0
  185.1110  178.3590  145.3680 C   0  0  0  0  0  3  0  0  0  0  0  0
  189.6600  177.0720  147.0570 C   0  0  0  0  0  2  0  0  0  0  0  0
  192.0140  177.1090  147.4680 O   0  0  0  0  0  1  0  0  0  0  0  0
  190.9110  176.2600  147.3500 C   0  0  0  0  0  2  0  0  0  0  0  0
  1  4  1  0  0  0  0
  2 12  1  0  0  0  0
  2 10  1  0  0  0  0
  3  7  1  6  0  0  0
  3  6  1  0  0  0  0
  4  8  2  0  0  0  0
  5  1  1  0  0  0  0
  6 10  2  0  0  0  0
  6  8  1  0  0  0  0
  7  1  2  0  0  0  0
  9 13  1  0  0  0  0
 10  9  1  0  0  0  0
 11  2  1  0  0  0  0
 12 15  1  6  0  0  0
 12 13  1  0  0  0  0
 13 24  1  1  0  0  0
 14 11  2  0  0  0  0
 14  3  1  0  0  0  0
 15 16  1  0  0  0  0
 17 20  1  0  0  0  0
 18 23  2  0  0  0  0
 18 19  1  0  0  0  0
 19 17  2  0  0  0  0
 21 16  1  0  0  0  0
 21 20  2  0  0  0  0
 22 19  1  0  0  0  0
 23 21  1  0  0  0  0
 24 25  1  0  0  0  0
 25 27  1  0  0  0  0
 26 25  1  0  0  0  0
 27 28  1  0  0  0  0
 28 30  1  0  0  0  0
 29 28  2  0  0  0  0
 31 30  1  6  0  0  0
 31 41  1  0  0  0  0
 32 33  1  0  0  0  0
 33 31  1  0  0  0  0
 34 32  2  0  0  0  0
 35 32  1  0  0  0  0
 35 40  1  0  0  0  0
 36 40  2  0  0  0  0
 37 39  1  0  0  0  0
 37 38  2  0  0  0  0
 38 36  1  0  0  0  0
 39 35  2  0  0  0  0
 41 43  1  0  0  0  0
 43 42  1  0  0  0  0
M  END
>  <MODEL>
7

>  <REMARK>
 VINA RESULT:      -7.3      2.782      8.199
  Name = 
  13 active torsions:
  status: ('A' for Active; 'I' for Inactive)
    1  A    between atoms: C_1  and  N_28
    2  A    between atoms: C_1  and  C_34
    3  A    between atoms: N_2  and  C_6
    4  A    between atoms: N_2  and  O_13
    5  A    between atoms: C_3  and  C_4
    6  A    between atoms: C_3  and  C_12
    7  A    between atoms: C_4  and  C_15
    8  A    between atoms: C_4  and  N_22
    9  A    between atoms: C_6  and  C_12
   10  A    between atoms: C_11  and  C_14
   11  A    between atoms: O_13  and  C_38
   12  A    between atoms: C_15  and  C_42
   13  A    between atoms: N_28  and  C_35
                            x       y       z     vdW  Elec       q    Type
                         _______ _______ _______ _____ _____    ______ ____

>  <TORSDO>
F 13

$$$$
=
 OpenBabel10262422263D

 43 47  0  0  1  0  0  0  0  0999 V2000
  180.8140  173.5260  135.7730 C   0  0  0  0  0  0  0  0  0  0  0  0
  183.7050  176.6250  138.4370 N   0  0  0  0  0  0  0  0  0  0  0  0
  181.7830  174.8710  137.5700 C   0  0  0  0  0  0  0  0  0  0  0  0
  181.7390  173.8960  134.8790 C   0  0  0  0  0  3  0  0  0  0  0  0
  179.7370  172.5890  135.3610 C   0  0  0  0  0  1  0  0  0  0  0  0
  182.8380  175.3260  136.6300 C   0  0  0  0  0  0  0  0  0  0  0  0
  180.8390  174.0270  137.1580 C   0  0  0  0  0  3  0  0  0  0  0  0
  182.8670  174.8420  135.2020 C   0  0  0  0  0  2  0  0  0  0  0  0
  184.8830  176.7630  136.3610 C   0  0  0  0  0  2  0  0  0  0  0  0
  183.7520  176.1780  137.1010 C   0  0  0  0  0  0  0  0  0  0  0  0
  182.6900  176.1800  139.3470 C   0  0  0  0  0  3  0  0  0  0  0  0
  184.7820  177.5480  138.7210 C   0  0  1  0  0  3  0  0  0  0  0  0
  185.6060  177.6130  137.4210 C   0  0  1  0  0  3  0  0  0  0  0  0
  181.7810  175.3470  138.9290 N   0  0  0  0  0  0  0  0  0  0  0  0
  184.2110  178.9210  139.0320 C   0  0  0  0  0  2  0  0  0  0  0  0
  185.0170  179.5720  140.0510 N   0  0  0  0  0  2  0  0  0  0  0  0
  184.5250  178.2570  143.5210 C   0  0  0  0  0  3  0  0  0  0  0  0
  186.8540  178.0340  142.9000 C   0  0  0  0  0  3  0  0  0  0  0  0
  185.8300  177.8680  143.8360 C   0  0  0  0  0  0  0  0  0  0  0  0
  184.2460  178.8150  142.2710 C   0  0  0  0  0  3  0  0  0  0  0  0
  185.2720  178.9850  141.3290 C   0  0  0  0  0  0  0  0  0  0  0  0
  186.1010  177.3320  145.0490 F   0  0  0  0  0  0  0  0  0  0  0  0
  186.5770  178.5930  141.6510 C   0  0  0  0  0  3  0  0  0  0  0  0
  186.8970  177.0820  137.6450 O   0  0  0  0  0  0  0  0  0  0  0  0
  187.8270  178.0920  137.7120 N   0  0  0  0  0  0  0  0  0  0  0  0
  187.5770  179.1240  136.7070 C   0  0  0  0  0  1  0  0  0  0  0  0
  189.1950  177.5870  137.5750 C   0  0  0  0  0  2  0  0  0  0  0  0
  189.5840  176.8210  138.7920 C   0  0  0  0  0  0  0  0  0  0  0  0
  189.7650  175.6220  138.7130 O   0  0  0  0  0  0  0  0  0  0  0  0
  189.7340  177.5090  140.1130 C   0  0  0  0  0  2  0  0  0  0  0  0
  190.9960  177.0880  140.8730 C   0  0  2  0  0  3  0  0  0  0  0  0
  190.6430  176.2680  143.2360 C   0  0  0  0  0  0  0  0  0  0  0  0
  190.8410  177.3280  142.2990 N   0  0  0  0  0  2  0  0  0  0  0  0
  190.5390  175.0780  142.8310 O   0  0  0  0  0  0  0  0  0  0  0  0
  190.5390  176.5730  144.6700 C   0  0  0  0  0  0  0  0  0  0  0  0
  191.5040  176.7530  146.8590 C   0  0  0  0  0  3  0  0  0  0  0  0
  189.2180  177.2350  146.5230 C   0  0  0  0  0  3  0  0  0  0  0  0
  190.2940  177.1290  147.3440 N   0  0  0  0  0  0  0  0  0  0  0  0
  189.3450  176.9560  145.2000 N   0  0  0  0  0  0  0  0  0  0  0  0
  191.6530  176.4660  145.5050 C   0  0  0  0  0  3  0  0  0  0  0  0
  192.2420  177.8000  140.3600 C   0  0  0  0  0  2  0  0  0  0  0  0
  194.2710  176.5890  140.0010 O   0  0  0  0  0  1  0  0  0  0  0  0
  193.0400  176.9100  139.4220 C   0  0  0  0  0  2  0  0  0  0  0  0
  1  7  1  0  0  0  0
  2 12  1  0  0  0  0
  2 11  1  0  0  0  0
  3 14  1  0  0  0  0
  4  8  1  0  0  0  0
  4  1  2  0  0  0  0
  5  1  1  0  0  0  0
  6 10  2  0  0  0  0
  6  3  1  0  0  0  0
  7  3  2  0  0  0  0
  8  6  1  0  0  0  0
  9 10  1  0  0  0  0
  9 13  1  0  0  0  0
 10  2  1  0  0  0  0
 12 15  1  6  0  0  0
 13 24  1  1  0  0  0
 13 12  1  0  0  0  0
 14 11  2  0  0  0  0
 15 16  1  0  0  0  0
 16 21  1  0  0  0  0
 17 19  1  0  0  0  0
 18 19  2  0  0  0  0
 19 22  1  0  0  0  0
 20 17  2  0  0  0  0
 21 23  2  0  0  0  0
 21 20  1  0  0  0  0
 23 18  1  0  0  0  0
 24 25  1  0  0  0  0
 26 25  1  0  0  0  0
 27 25  1  0  0  0  0
 27 28  1  0  0  0  0
 28 30  1  0  0  0  0
 29 28  2  0  0  0  0
 31 30  1  6  0  0  0
 31 33  1  0  0  0  0
 32 35  1  0  0  0  0
 33 32  1  0  0  0  0
 34 32  2  0  0  0  0
 35 39  2  0  0  0  0
 35 40  1  0  0  0  0
 36 38  1  0  0  0  0
 37 38  2  0  0  0  0
 39 37  1  0  0  0  0
 40 36  2  0  0  0  0
 41 31  1  0  0  0  0
 43 42  1  0  0  0  0
 43 41  1  0  0  0  0
M  END
>  <MODEL>
8

>  <REMARK>
 VINA RESULT:      -7.3      3.111      6.625
  Name = 
  13 active torsions:
  status: ('A' for Active; 'I' for Inactive)
    1  A    between atoms: C_1  and  N_28
    2  A    between atoms: C_1  and  C_34
    3  A    between atoms: N_2  and  C_6
    4  A    between atoms: N_2  and  O_13
    5  A    between atoms: C_3  and  C_4
    6  A    between atoms: C_3  and  C_12
    7  A    between atoms: C_4  and  C_15
    8  A    between atoms: C_4  and  N_22
    9  A    between atoms: C_6  and  C_12
   10  A    between atoms: C_11  and  C_14
   11  A    between atoms: O_13  and  C_38
   12  A    between atoms: C_15  and  C_42
   13  A    between atoms: N_28  and  C_35
                            x       y       z     vdW  Elec       q    Type
                         _______ _______ _______ _____ _____    ______ ____

>  <TORSDO>
F 13

$$$$
=
 OpenBabel10262422263D

 43 47  0  0  1  0  0  0  0  0999 V2000
  187.2100  177.9510  146.9820 C   0  0  0  0  0  0  0  0  0  0  0  0
  184.1230  178.9290  143.1640 N   0  0  0  0  0  0  0  0  0  0  0  0
  185.3140  178.6830  145.6210 C   0  0  0  0  0  0  0  0  0  0  0  0
  187.9030  177.5030  145.9290 C   0  0  0  0  0  3  0  0  0  0  0  0
  187.7940  177.8340  148.3430 C   0  0  0  0  0  1  0  0  0  0  0  0
  186.0260  178.2030  144.4100 C   0  0  0  0  0  0  0  0  0  0  0  0
  185.8780  178.5600  146.8220 C   0  0  0  0  0  3  0  0  0  0  0  0
  187.3950  177.5770  144.5120 C   0  0  0  0  0  2  0  0  0  0  0  0
  185.9100  177.9490  141.9130 C   0  0  0  0  0  2  0  0  0  0  0  0
  185.4060  178.3470  143.2380 C   0  0  0  0  0  0  0  0  0  0  0  0
  183.4380  179.3980  144.3320 C   0  0  0  0  0  3  0  0  0  0  0  0
  183.6430  178.9710  141.8000 C   0  0  1  0  0  3  0  0  0  0  0  0
  184.7980  178.4060  140.9510 C   0  0  1  0  0  3  0  0  0  0  0  0
  184.0090  179.2780  145.4960 N   0  0  0  0  0  0  0  0  0  0  0  0
  182.4230  178.0770  141.6580 C   0  0  0  0  0  2  0  0  0  0  0  0
  181.3010  178.8490  141.1500 N   0  0  0  0  0  2  0  0  0  0  0  0
  181.1770  181.0300  138.1110 C   0  0  0  0  0  3  0  0  0  0  0  0
  180.8850  178.7190  137.4540 C   0  0  0  0  0  3  0  0  0  0  0  0
  180.9710  180.0710  137.1150 C   0  0  0  0  0  0  0  0  0  0  0  0
  181.2940  180.6340  139.4460 C   0  0  0  0  0  3  0  0  0  0  0  0
  181.2060  179.2770  139.7910 C   0  0  0  0  0  0  0  0  0  0  0  0
  180.8540  180.4550  135.8220 F   0  0  0  0  0  0  0  0  0  0  0  0
  180.9990  178.3230  138.7880 C   0  0  0  0  0  3  0  0  0  0  0  0
  185.3040  179.4140  140.0990 O   0  0  0  0  0  0  0  0  0  0  0  0
  185.4990  178.9170  138.8310 N   0  0  0  0  0  0  0  0  0  0  0  0
  184.4340  177.9940  138.4430 C   0  0  0  0  0  1  0  0  0  0  0  0
  186.8000  178.2600  138.6950 C   0  0  0  0  0  2  0  0  0  0  0  0
  187.2680  178.3310  137.2820 C   0  0  0  0  0  0  0  0  0  0  0  0
  187.5620  179.4080  136.8030 O   0  0  0  0  0  0  0  0  0  0  0  0
  187.3570  177.0950  136.4420 C   0  0  0  0  0  2  0  0  0  0  0  0
  187.8630  175.8740  137.2180 C   0  0  2  0  0  3  0  0  0  0  0  0
  190.3350  175.5310  137.6100 C   0  0  0  0  0  0  0  0  0  0  0  0
  189.1890  175.4890  136.7590 N   0  0  0  0  0  2  0  0  0  0  0  0
  190.2310  175.9670  138.7890 O   0  0  0  0  0  0  0  0  0  0  0  0
  191.6390  175.0850  137.0990 C   0  0  0  0  0  0  0  0  0  0  0  0
  193.9350  174.4740  137.4350 C   0  0  0  0  0  3  0  0  0  0  0  0
  193.0070  174.4690  135.2650 C   0  0  0  0  0  3  0  0  0  0  0  0
  194.0610  174.2760  136.0980 N   0  0  0  0  0  0  0  0  0  0  0  0
  191.8110  174.8720  135.7660 N   0  0  0  0  0  0  0  0  0  0  0  0
  192.7140  174.8840  137.9660 C   0  0  0  0  0  3  0  0  0  0  0  0
  186.9130  174.6890  137.1110 C   0  0  0  0  0  2  0  0  0  0  0  0
  184.5370  174.7340  136.8510 O   0  0  0  0  0  1  0  0  0  0  0  0
  185.7420  175.0010  136.1940 C   0  0  0  0  0  2  0  0  0  0  0  0
  1  5  1  0  0  0  0
  2 10  1  0  0  0  0
  2 11  1  0  0  0  0
  3  7  2  0  0  0  0
  4  1  2  0  0  0  0
  6  8  1  0  0  0  0
  6  3  1  0  0  0  0
  7  1  1  0  0  0  0
  8  4  1  0  0  0  0
  9 10  1  0  0  0  0
 10  6  2  0  0  0  0
 11 14  2  0  0  0  0
 12 15  1  1  0  0  0
 12  2  1  0  0  0  0
 13 24  1  6  0  0  0
 13 12  1  0  0  0  0
 13  9  1  0  0  0  0
 14  3  1  0  0  0  0
 16 15  1  0  0  0  0
 17 20  1  0  0  0  0
 18 23  2  0  0  0  0
 19 18  1  0  0  0  0
 19 17  2  0  0  0  0
 20 21  2  0  0  0  0
 21 16  1  0  0  0  0
 22 19  1  0  0  0  0
 23 21  1  0  0  0  0
 25 24  1  0  0  0  0
 26 25  1  0  0  0  0
 27 25  1  0  0  0  0
 28 27  1  0  0  0  0
 29 28  2  0  0  0  0
 30 28  1  0  0  0  0
 31 30  1  6  0  0  0
 32 34  2  0  0  0  0
 33 31  1  0  0  0  0
 33 32  1  0  0  0  0
 35 32  1  0  0  0  0
 35 40  1  0  0  0  0
 36 40  2  0  0  0  0
 37 39  1  0  0  0  0
 37 38  2  0  0  0  0
 38 36  1  0  0  0  0
 39 35  2  0  0  0  0
 41 31  1  0  0  0  0
 43 42  1  0  0  0  0
 43 41  1  0  0  0  0
M  END
>  <MODEL>
9

>  <REMARK>
 VINA RESULT:      -7.3      2.340      3.680
  Name = 
  13 active torsions:
  status: ('A' for Active; 'I' for Inactive)
    1  A    between atoms: C_1  and  N_28
    2  A    between atoms: C_1  and  C_34
    3  A    between atoms: N_2  and  C_6
    4  A    between atoms: N_2  and  O_13
    5  A    between atoms: C_3  and  C_4
    6  A    between atoms: C_3  and  C_12
    7  A    between atoms: C_4  and  C_15
    8  A    between atoms: C_4  and  N_22
    9  A    between atoms: C_6  and  C_12
   10  A    between atoms: C_11  and  C_14
   11  A    between atoms: O_13  and  C_38
   12  A    between atoms: C_15  and  C_42
   13  A    between atoms: N_28  and  C_35
                            x       y       z     vdW  Elec       q    Type
                         _______ _______ _______ _____ _____    ______ ____

>  <TORSDO>
F 13

$$$$
