=
 OpenBabel10262422283D

 43 47  0  0  1  0  0  0  0  0999 V2000
  181.6430  179.4680  142.8200 C   0  0  1  0  0  3  0  0  0  0  0  0
  186.1700  178.2570  145.0300 C   0  0  0  0  0  0  0  0  0  0  0  0
  187.9100  177.4290  142.9880 C   0  0  0  0  0  0  0  0  0  0  0  0
  183.4510  178.9840  144.4660 C   0  0  1  0  0  3  0  0  0  0  0  0
  182.4130  178.7000  141.7450 C   0  0  0  0  0  2  0  0  0  0  0  0
  180.1570  179.3630  142.5510 C   0  0  0  0  0  1  0  0  0  0  0  0
  184.1990  178.1600  143.4130 C   0  0  1  0  0  3  0  0  0  0  0  0
  181.9510  178.9090  144.2090 C   0  0  0  0  0  2  0  0  0  0  0  0
  183.9150  178.7430  142.0260 C   0  0  0  0  0  2  0  0  0  0  0  0
  186.5550  177.6100  142.7160 C   0  0  0  0  0  3  0  0  0  0  0  0
  185.6790  178.0580  143.7150 C   0  0  0  0  0  0  0  0  0  0  0  0
  185.2600  178.7440  146.1340 C   0  0  0  0  0  2  0  0  0  0  0  0
  187.5400  178.0750  145.3000 C   0  0  0  0  0  0  0  0  0  0  0  0
  188.3980  177.6590  144.2740 C   0  0  0  0  0  3  0  0  0  0  0  0
  183.7880  178.4620  145.8500 C   0  0  0  0  0  2  0  0  0  0  0  0
  188.8190  176.9180  141.9280 C   0  0  0  0  0  2  0  0  0  0  0  0
  188.9550  177.9220  140.8840 N   0  0  0  0  0  2  0  0  0  0  0  0
  190.1090  177.5730  140.0670 C   0  0  1  0  0  3  0  0  0  0  0  0
  190.5860  176.3090  140.4170 O   0  0  0  0  0  1  0  0  0  0  0  0
  189.7450  177.6080  138.5820 C   0  0  0  0  0  2  0  0  0  0  0  0
  188.8250  176.4630  138.1640 C   0  0  0  0  0  2  0  0  0  0  0  0
  188.1430  176.7770  136.9180 N   0  0  0  0  0  0  0  0  0  0  0  0
  185.8060  177.3070  136.8070 C   0  0  2  0  0  3  0  0  0  0  0  0
  188.0050  178.1780  136.8760 N   0  0  0  0  0  2  0  0  0  0  0  0
  186.8030  176.2010  137.0180 C   0  0  1  0  0  3  0  0  0  0  0  0
  186.6160  175.1450  135.9470 C   0  0  0  0  0  1  0  0  0  0  0  0
  186.6680  178.4620  136.3880 C   0  0  0  0  0  2  0  0  0  0  0  0
  185.1740  177.5980  138.0470 O   0  0  0  0  0  0  0  0  0  0  0  0
  183.8060  177.4090  138.2560 C   0  0  0  0  0  0  0  0  0  0  0  0
  181.7720  176.3880  138.8500 C   0  0  0  0  0  0  0  0  0  0  0  0
  181.2160  177.9640  138.2210 S   0  0  0  0  0  0  0  0  0  0  0  0
  180.9890  175.5150  139.1840 O   0  0  0  0  0  0  0  0  0  0  0  0
  182.9320  178.3260  137.8680 C   0  0  0  0  0  3  0  0  0  0  0  0
  183.2420  176.1930  138.9120 C   0  0  0  0  0  2  0  0  0  0  0  0
  188.0410  178.2970  146.6280 N   0  0  0  0  0  2  0  0  0  0  0  0
  188.5500  177.2630  147.5280 C   0  0  2  0  0  3  0  0  0  0  0  0
  187.9610  177.3900  148.7860 O   0  0  0  0  0  1  0  0  0  0  0  0
  190.0650  177.3330  147.6540 C   0  0  0  0  0  2  0  0  0  0  0  0
  190.6690  176.1140  147.1460 N   0  0  0  0  0  2  0  0  0  0  0  0
  191.7770  176.5210  146.2930 C   0  0  0  0  0  2  0  0  0  0  0  0
  191.8410  178.1250  144.3610 C   0  0  0  0  0  1  0  0  0  0  0  0
  191.3120  176.7960  144.8650 C   0  0  0  0  0  3  0  0  0  0  0  0
  191.7190  175.6790  143.9210 C   0  0  0  0  0  1  0  0  0  0  0  0
  1  6  1  6  0  0  0
  1  8  1  0  0  0  0
  2 13  1  0  0  0  0
  2 12  1  0  0  0  0
  3 14  1  0  0  0  0
  4  8  1  6  0  0  0
  4 15  1  0  0  0  0
  5  9  1  0  0  0  0
  5  1  1  0  0  0  0
  7  9  1  6  0  0  0
  7 11  1  0  0  0  0
  7  4  1  0  0  0  0
 10  3  2  0  0  0  0
 10 11  1  0  0  0  0
 11  2  2  0  0  0  0
 13 35  1  0  0  0  0
 14 13  2  0  0  0  0
 15 12  1  0  0  0  0
 16  3  1  0  0  0  0
 17 16  1  0  0  0  0
 18 19  1  1  0  0  0
 18 17  1  0  0  0  0
 20 18  1  0  0  0  0
 21 20  1  0  0  0  0
 22 25  1  0  0  0  0
 22 21  1  0  0  0  0
 23 25  1  0  0  0  0
 23 28  1  1  0  0  0
 24 22  1  0  0  0  0
 25 26  1  6  0  0  0
 27 23  1  0  0  0  0
 27 24  1  0  0  0  0
 28 29  1  0  0  0  0
 29 34  1  0  0  0  0
 30 34  1  0  0  0  0
 30 32  2  0  0  0  0
 31 30  1  0  0  0  0
 33 31  1  0  0  0  0
 33 29  2  0  0  0  0
 35 36  1  0  0  0  0
 36 38  1  0  0  0  0
 36 37  1  1  0  0  0
 39 38  1  0  0  0  0
 40 39  1  0  0  0  0
 41 42  1  0  0  0  0
 42 40  1  0  0  0  0
 43 42  1  0  0  0  0
M  END
>  <MODEL>
1

>  <REMARK>
 VINA RESULT:      -8.3      0.000      0.000
  Name = 
  14 active torsions:
  status: ('A' for Active; 'I' for Inactive)
    1  A    between atoms: C_1  and  C_9
    2  A    between atoms: C_1  and  N_35
    3  A    between atoms: C_2  and  N_6
    4  A    between atoms: C_2  and  C_13
    5  A    between atoms: C_3  and  N_4
    6  A    between atoms: C_3  and  C_7
    7  A    between atoms: N_6  and  C_12
    8  A    between atoms: C_7  and  C_12
    9  A    between atoms: C_9  and  N_32
   10  A    between atoms: C_10  and  O_14
   11  A    between atoms: C_11  and  O_14
   12  A    between atoms: C_25  and  N_32
   13  A    between atoms: C_25  and  C_37
   14  A    between atoms: C_34  and  N_35
                            x       y       z     vdW  Elec       q    Type
                         _______ _______ _______ _____ _____    ______ ____

>  <TORSDO>
F 14

$$$$
=
 OpenBabel10262422283D

 43 47  0  0  1  0  0  0  0  0999 V2000
  185.5120  178.0360  145.9800 C   0  0  1  0  0  3  0  0  0  0  0  0
  182.9220  178.8150  141.5610 C   0  0  0  0  0  0  0  0  0  0  0  0
  184.7420  178.4880  139.4480 C   0  0  0  0  0  0  0  0  0  0  0  0
  183.7620  178.5990  144.2970 C   0  0  1  0  0  3  0  0  0  0  0  0
  186.5940  178.2020  144.9120 C   0  0  0  0  0  2  0  0  0  0  0  0
  186.0800  178.3910  147.3380 C   0  0  0  0  0  1  0  0  0  0  0  0
  184.8450  178.8290  143.2370 C   0  0  1  0  0  3  0  0  0  0  0  0
  184.3130  178.9340  145.6770 C   0  0  0  0  0  2  0  0  0  0  0  0
  186.0310  177.9030  143.5240 C   0  0  0  0  0  2  0  0  0  0  0  0
  185.2050  178.5500  140.7620 C   0  0  0  0  0  3  0  0  0  0  0  0
  184.3070  178.6760  141.8310 C   0  0  0  0  0  0  0  0  0  0  0  0
  181.9210  178.9480  142.6850 C   0  0  0  0  0  2  0  0  0  0  0  0
  182.4580  178.7490  140.2330 C   0  0  0  0  0  0  0  0  0  0  0  0
  183.3760  178.5890  139.1870 C   0  0  0  0  0  3  0  0  0  0  0  0
  182.5520  179.4560  143.9770 C   0  0  0  0  0  2  0  0  0  0  0  0
  185.7100  178.3920  138.3230 C   0  0  0  0  0  2  0  0  0  0  0  0
  186.9670  177.8480  138.8140 N   0  0  0  0  0  2  0  0  0  0  0  0
  188.0250  178.2590  137.9020 C   0  0  1  0  0  3  0  0  0  0  0  0
  187.6220  179.3730  137.1630 O   0  0  0  0  0  1  0  0  0  0  0  0
  189.3080  178.5720  138.6740 C   0  0  0  0  0  2  0  0  0  0  0  0
  189.2070  178.2410  140.1610 C   0  0  0  0  0  2  0  0  0  0  0  0
  190.0930  177.1400  140.5060 N   0  0  0  0  0  0  0  0  0  0  0  0
  191.2220  176.9840  142.6170 C   0  0  2  0  0  3  0  0  0  0  0  0
  189.3570  176.2790  141.3440 N   0  0  0  0  0  2  0  0  0  0  0  0
  191.1810  177.7090  141.2990 C   0  0  1  0  0  3  0  0  0  0  0  0
  192.4990  177.5150  140.5770 C   0  0  0  0  0  1  0  0  0  0  0  0
  190.2420  175.8660  142.4180 C   0  0  0  0  0  2  0  0  0  0  0  0
  190.7590  177.8600  143.6360 O   0  0  0  0  0  0  0  0  0  0  0  0
  190.7100  177.4890  144.9820 C   0  0  0  0  0  0  0  0  0  0  0  0
  191.2650  176.4580  147.0210 C   0  0  0  0  0  0  0  0  0  0  0  0
  189.7730  177.3380  147.4560 S   0  0  0  0  0  0  0  0  0  0  0  0
  191.8230  175.7100  147.8060 O   0  0  0  0  0  0  0  0  0  0  0  0
  189.6950  177.8640  145.7480 C   0  0  0  0  0  3  0  0  0  0  0  0
  191.7650  176.6640  145.6390 C   0  0  0  0  0  2  0  0  0  0  0  0
  181.0530  178.8690  139.9610 N   0  0  0  0  0  2  0  0  0  0  0  0
  180.3290  180.1230  139.7610 C   0  0  2  0  0  3  0  0  0  0  0  0
  178.9930  179.9710  140.1300 O   0  0  0  0  0  1  0  0  0  0  0  0
  180.4200  180.5910  138.3160 C   0  0  0  0  0  2  0  0  0  0  0  0
  180.9900  181.9260  138.2540 N   0  0  0  0  0  2  0  0  0  0  0  0
  180.2780  182.6360  137.2020 C   0  0  0  0  0  2  0  0  0  0  0  0
  180.6260  184.0330  135.1430 C   0  0  0  0  0  1  0  0  0  0  0  0
  181.1810  183.6500  136.5020 C   0  0  0  0  0  3  0  0  0  0  0  0
  181.3900  184.8910  137.3500 C   0  0  0  0  0  1  0  0  0  0  0  0
  1  6  1  1  0  0  0
  2 11  1  0  0  0  0
  2 12  1  0  0  0  0
  3 10  1  0  0  0  0
  4 15  1  6  0  0  0
  4  8  1  0  0  0  0
  5  1  1  0  0  0  0
  7  9  1  1  0  0  0
  7  4  1  0  0  0  0
  8  1  1  0  0  0  0
  9  5  1  0  0  0  0
 10 11  2  0  0  0  0
 11  7  1  0  0  0  0
 12 15  1  0  0  0  0
 13  2  2  0  0  0  0
 14  3  2  0  0  0  0
 14 13  1  0  0  0  0
 16 17  1  0  0  0  0
 16  3  1  0  0  0  0
 18 19  1  1  0  0  0
 18 20  1  0  0  0  0
 18 17  1  0  0  0  0
 20 21  1  0  0  0  0
 21 22  1  0  0  0  0
 22 25  1  0  0  0  0
 22 24  1  0  0  0  0
 23 28  1  1  0  0  0
 24 27  1  0  0  0  0
 25 26  1  6  0  0  0
 25 23  1  0  0  0  0
 27 23  1  0  0  0  0
 28 29  1  0  0  0  0
 29 34  1  0  0  0  0
 29 33  2  0  0  0  0
 30 31  1  0  0  0  0
 30 32  2  0  0  0  0
 33 31  1  0  0  0  0
 34 30  1  0  0  0  0
 35 13  1  0  0  0  0
 36 35  1  0  0  0  0
 36 37  1  6  0  0  0
 38 36  1  0  0  0  0
 39 38  1  0  0  0  0
 40 39  1  0  0  0  0
 41 42  1  0  0  0  0
 42 40  1  0  0  0  0
 42 43  1  0  0  0  0
M  END
>  <MODEL>
2

>  <REMARK>
 VINA RESULT:      -8.3      3.666      8.754
  Name = 
  14 active torsions:
  status: ('A' for Active; 'I' for Inactive)
    1  A    between atoms: C_1  and  C_9
    2  A    between atoms: C_1  and  N_35
    3  A    between atoms: C_2  and  N_6
    4  A    between atoms: C_2  and  C_13
    5  A    between atoms: C_3  and  N_4
    6  A    between atoms: C_3  and  C_7
    7  A    between atoms: N_6  and  C_12
    8  A    between atoms: C_7  and  C_12
    9  A    between atoms: C_9  and  N_32
   10  A    between atoms: C_10  and  O_14
   11  A    between atoms: C_11  and  O_14
   12  A    between atoms: C_25  and  N_32
   13  A    between atoms: C_25  and  C_37
   14  A    between atoms: C_34  and  N_35
                            x       y       z     vdW  Elec       q    Type
                         _______ _______ _______ _____ _____    ______ ____

>  <TORSDO>
F 14

$$$$
=
 OpenBabel10262422283D

 43 47  0  0  1  0  0  0  0  0999 V2000
  191.0430  176.9610  146.5890 C   0  0  1  0  0  3  0  0  0  0  0  0
  188.9180  177.8960  141.9570 C   0  0  0  0  0  0  0  0  0  0  0  0
  186.1560  178.2130  142.3450 C   0  0  0  0  0  0  0  0  0  0  0  0
  190.6670  177.2630  144.1440 C   0  0  1  0  0  3  0  0  0  0  0  0
  189.5410  176.7700  146.7980 C   0  0  0  0  0  2  0  0  0  0  0  0
  191.8060  176.1740  147.6330 C   0  0  0  0  0  1  0  0  0  0  0  0
  189.1680  177.0090  144.3360 C   0  0  1  0  0  3  0  0  0  0  0  0
  191.4580  176.4930  145.1940 C   0  0  0  0  0  2  0  0  0  0  0  0
  188.7490  177.5090  145.7210 C   0  0  0  0  0  2  0  0  0  0  0  0
  186.9540  177.7400  143.3850 C   0  0  0  0  0  3  0  0  0  0  0  0
  188.3410  177.6100  143.2200 C   0  0  0  0  0  0  0  0  0  0  0  0
  190.4090  177.7730  141.7380 C   0  0  0  0  0  2  0  0  0  0  0  0
  188.1080  178.3770  140.9100 C   0  0  0  0  0  0  0  0  0  0  0  0
  186.7310  178.5290  141.1150 C   0  0  0  0  0  3  0  0  0  0  0  0
  191.0750  176.8410  142.7450 C   0  0  0  0  0  2  0  0  0  0  0  0
  184.6830  178.3110  142.5250 C   0  0  0  0  0  2  0  0  0  0  0  0
  184.3870  179.2860  143.5630 N   0  0  0  0  0  2  0  0  0  0  0  0
  183.2110  178.8310  144.2910 C   0  0  1  0  0  3  0  0  0  0  0  0
  183.3430  179.1150  145.6520 O   0  0  0  0  0  1  0  0  0  0  0  0
  181.9470  179.4880  143.7340 C   0  0  0  0  0  2  0  0  0  0  0  0
  180.6900  178.6490  143.9520 C   0  0  0  0  0  2  0  0  0  0  0  0
  179.8860  178.5970  142.7410 N   0  0  0  0  0  0  0  0  0  0  0  0
  180.8190  178.1920  140.5690 C   0  0  2  0  0  3  0  0  0  0  0  0
  179.7150  177.2340  142.4300 N   0  0  0  0  0  2  0  0  0  0  0  0
  180.6880  179.1990  141.6780 C   0  0  1  0  0  3  0  0  0  0  0  0
  179.9960  180.4410  141.1510 C   0  0  0  0  0  1  0  0  0  0  0  0
  179.8830  177.0990  140.9940 C   0  0  0  0  0  2  0  0  0  0  0  0
  182.1550  177.7060  140.5470 O   0  0  0  0  0  0  0  0  0  0  0  0
  182.7230  177.1170  139.4150 C   0  0  0  0  0  0  0  0  0  0  0  0
  183.4170  175.4790  137.8760 C   0  0  0  0  0  0  0  0  0  0  0  0
  184.0540  176.9700  137.1280 S   0  0  0  0  0  0  0  0  0  0  0  0
  183.6520  174.3760  137.4150 O   0  0  0  0  0  0  0  0  0  0  0  0
  183.4020  177.8500  138.5430 C   0  0  0  0  0  3  0  0  0  0  0  0
  182.6130  175.6610  139.1110 C   0  0  0  0  0  2  0  0  0  0  0  0
  188.6970  178.6870  139.6370 N   0  0  0  0  0  2  0  0  0  0  0  0
  188.3220  178.0860  138.3580 C   0  0  2  0  0  3  0  0  0  0  0  0
  187.8300  176.7970  138.5590 O   0  0  0  0  0  1  0  0  0  0  0  0
  189.5000  178.0480  137.3950 C   0  0  0  0  0  2  0  0  0  0  0  0
  190.5610  177.2120  137.9310 N   0  0  0  0  0  2  0  0  0  0  0  0
  190.9060  176.2570  136.8880 C   0  0  0  0  0  2  0  0  0  0  0  0
  189.8450  173.9870  137.0680 C   0  0  0  0  0  1  0  0  0  0  0  0
  191.0380  174.8420  137.4480 C   0  0  0  0  0  3  0  0  0  0  0  0
  192.3240  174.1790  136.9900 C   0  0  0  0  0  1  0  0  0  0  0  0
  1  5  1  0  0  0  0
  1  6  1  1  0  0  0
  2 11  1  0  0  0  0
  3 16  1  0  0  0  0
  3 10  1  0  0  0  0
  4 15  1  6  0  0  0
  4  7  1  0  0  0  0
  4  8  1  0  0  0  0
  7  9  1  1  0  0  0
  8  1  1  0  0  0  0
  9  5  1  0  0  0  0
 11 10  2  0  0  0  0
 11  7  1  0  0  0  0
 12  2  1  0  0  0  0
 12 15  1  0  0  0  0
 13 14  1  0  0  0  0
 13  2  2  0  0  0  0
 14  3  2  0  0  0  0
 16 17  1  0  0  0  0
 17 18  1  0  0  0  0
 18 19  1  1  0  0  0
 20 21  1  0  0  0  0
 20 18  1  0  0  0  0
 22 21  1  0  0  0  0
 23 28  1  1  0  0  0
 23 27  1  0  0  0  0
 23 25  1  0  0  0  0
 24 22  1  0  0  0  0
 25 26  1  6  0  0  0
 25 22  1  0  0  0  0
 27 24  1  0  0  0  0
 29 28  1  0  0  0  0
 30 34  1  0  0  0  0
 31 30  1  0  0  0  0
 31 33  1  0  0  0  0
 32 30  2  0  0  0  0
 33 29  2  0  0  0  0
 34 29  1  0  0  0  0
 35 13  1  0  0  0  0
 36 37  1  1  0  0  0
 36 35  1  0  0  0  0
 38 39  1  0  0  0  0
 38 36  1  0  0  0  0
 40 42  1  0  0  0  0
 40 39  1  0  0  0  0
 41 42  1  0  0  0  0
 43 42  1  0  0  0  0
M  END
>  <MODEL>
3

>  <REMARK>
 VINA RESULT:      -8.2      2.924      7.447
  Name = 
  14 active torsions:
  status: ('A' for Active; 'I' for Inactive)
    1  A    between atoms: C_1  and  C_9
    2  A    between atoms: C_1  and  N_35
    3  A    between atoms: C_2  and  N_6
    4  A    between atoms: C_2  and  C_13
    5  A    between atoms: C_3  and  N_4
    6  A    between atoms: C_3  and  C_7
    7  A    between atoms: N_6  and  C_12
    8  A    between atoms: C_7  and  C_12
    9  A    between atoms: C_9  and  N_32
   10  A    between atoms: C_10  and  O_14
   11  A    between atoms: C_11  and  O_14
   12  A    between atoms: C_25  and  N_32
   13  A    between atoms: C_25  and  C_37
   14  A    between atoms: C_34  and  N_35
                            x       y       z     vdW  Elec       q    Type
                         _______ _______ _______ _____ _____    ______ ____

>  <TORSDO>
F 14

$$$$
=
 OpenBabel10262422283D

 43 47  0  0  1  0  0  0  0  0999 V2000
  187.0400  177.4920  146.4490 C   0  0  1  0  0  3  0  0  0  0  0  0
  183.5060  178.7220  142.8660 C   0  0  0  0  0  0  0  0  0  0  0  0
  184.7610  178.5770  140.3590 C   0  0  0  0  0  0  0  0  0  0  0  0
  184.9620  178.2350  145.2910 C   0  0  1  0  0  3  0  0  0  0  0  0
  187.8440  177.7460  145.1730 C   0  0  0  0  0  2  0  0  0  0  0  0
  187.9260  177.7090  147.6580 C   0  0  0  0  0  1  0  0  0  0  0  0
  185.7710  178.5520  144.0280 C   0  0  1  0  0  3  0  0  0  0  0  0
  185.8360  178.4300  146.5240 C   0  0  0  0  0  2  0  0  0  0  0  0
  186.9580  177.5890  143.9390 C   0  0  0  0  0  2  0  0  0  0  0  0
  185.5240  178.5070  141.5240 C   0  0  0  0  0  3  0  0  0  0  0  0
  184.9100  178.5410  142.7830 C   0  0  0  0  0  0  0  0  0  0  0  0
  182.8040  178.7590  144.2040 C   0  0  0  0  0  2  0  0  0  0  0  0
  182.7390  178.7900  141.6870 C   0  0  0  0  0  0  0  0  0  0  0  0
  183.3770  178.7190  140.4420 C   0  0  0  0  0  3  0  0  0  0  0  0
  183.7410  179.1330  145.3480 C   0  0  0  0  0  2  0  0  0  0  0  0
  185.4310  178.5770  139.0310 C   0  0  0  0  0  2  0  0  0  0  0  0
  184.5250  178.0280  138.0340 N   0  0  0  0  0  2  0  0  0  0  0  0
  185.0920  176.7780  137.5460 C   0  0  1  0  0  3  0  0  0  0  0  0
  184.2580  176.2140  136.5780 O   0  0  0  0  0  1  0  0  0  0  0  0
  186.4880  177.0130  136.9680 C   0  0  0  0  0  2  0  0  0  0  0  0
  187.5360  176.0530  137.5270 C   0  0  0  0  0  2  0  0  0  0  0  0
  188.8620  176.6490  137.4800 N   0  0  0  0  0  0  0  0  0  0  0  0
  189.9840  177.4930  139.4240 C   0  0  2  0  0  3  0  0  0  0  0  0
  189.7620  175.6670  137.9370 N   0  0  0  0  0  2  0  0  0  0  0  0
  188.8650  177.7410  138.4510 C   0  0  1  0  0  3  0  0  0  0  0  0
  189.0990  179.0600  137.7410 C   0  0  0  0  0  1  0  0  0  0  0  0
  190.7090  176.3290  138.8150 C   0  0  0  0  0  2  0  0  0  0  0  0
  189.4270  177.1170  140.6770 O   0  0  0  0  0  0  0  0  0  0  0  0
  190.1450  177.1920  141.8730 C   0  0  0  0  0  0  0  0  0  0  0  0
  191.2730  176.5360  143.8300 C   0  0  0  0  0  0  0  0  0  0  0  0
  191.3580  178.3160  143.9440 S   0  0  0  0  0  0  0  0  0  0  0  0
  191.6790  175.8130  144.7240 O   0  0  0  0  0  0  0  0  0  0  0  0
  190.4100  178.3670  142.4270 C   0  0  0  0  0  3  0  0  0  0  0  0
  190.6510  175.9900  142.5970 C   0  0  0  0  0  2  0  0  0  0  0  0
  181.3140  178.9520  141.7710 N   0  0  0  0  0  2  0  0  0  0  0  0
  180.3220  178.0950  141.1230 C   0  0  2  0  0  3  0  0  0  0  0  0
  179.5070  177.4930  142.0830 O   0  0  0  0  0  1  0  0  0  0  0  0
  180.9860  177.0300  140.2630 C   0  0  0  0  0  2  0  0  0  0  0  0
  180.5030  177.1150  138.8950 N   0  0  0  0  0  2  0  0  0  0  0  0
  180.1220  178.5020  138.6730 C   0  0  0  0  0  2  0  0  0  0  0  0
  180.4580  179.1440  136.2680 C   0  0  0  0  0  1  0  0  0  0  0  0
  181.0470  179.1810  137.6650 C   0  0  0  0  0  3  0  0  0  0  0  0
  181.3540  180.6120  138.0660 C   0  0  0  0  0  1  0  0  0  0  0  0
  1  8  1  0  0  0  0
  1  6  1  1  0  0  0
  2 12  1  0  0  0  0
  3 14  2  0  0  0  0
  3 10  1  0  0  0  0
  4 15  1  1  0  0  0
  4  8  1  0  0  0  0
  5  1  1  0  0  0  0
  7  9  1  6  0  0  0
  7  4  1  0  0  0  0
  9  5  1  0  0  0  0
 10 11  2  0  0  0  0
 11  2  1  0  0  0  0
 11  7  1  0  0  0  0
 12 15  1  0  0  0  0
 13 35  1  0  0  0  0
 13  2  2  0  0  0  0
 14 13  1  0  0  0  0
 16  3  1  0  0  0  0
 17 16  1  0  0  0  0
 18 19  1  6  0  0  0
 18 17  1  0  0  0  0
 20 21  1  0  0  0  0
 20 18  1  0  0  0  0
 22 21  1  0  0  0  0
 22 24  1  0  0  0  0
 22 25  1  0  0  0  0
 23 28  1  1  0  0  0
 24 27  1  0  0  0  0
 25 26  1  6  0  0  0
 25 23  1  0  0  0  0
 27 23  1  0  0  0  0
 28 29  1  0  0  0  0
 29 33  2  0  0  0  0
 29 34  1  0  0  0  0
 30 31  1  0  0  0  0
 30 32  2  0  0  0  0
 33 31  1  0  0  0  0
 34 30  1  0  0  0  0
 36 35  1  0  0  0  0
 36 37  1  1  0  0  0
 38 36  1  0  0  0  0
 39 38  1  0  0  0  0
 40 39  1  0  0  0  0
 41 42  1  0  0  0  0
 42 43  1  0  0  0  0
 42 40  1  0  0  0  0
M  END
>  <MODEL>
4

>  <REMARK>
 VINA RESULT:      -8.1      3.145      7.683
  Name = 
  14 active torsions:
  status: ('A' for Active; 'I' for Inactive)
    1  A    between atoms: C_1  and  C_9
    2  A    between atoms: C_1  and  N_35
    3  A    between atoms: C_2  and  N_6
    4  A    between atoms: C_2  and  C_13
    5  A    between atoms: C_3  and  N_4
    6  A    between atoms: C_3  and  C_7
    7  A    between atoms: N_6  and  C_12
    8  A    between atoms: C_7  and  C_12
    9  A    between atoms: C_9  and  N_32
   10  A    between atoms: C_10  and  O_14
   11  A    between atoms: C_11  and  O_14
   12  A    between atoms: C_25  and  N_32
   13  A    between atoms: C_25  and  C_37
   14  A    between atoms: C_34  and  N_35
                            x       y       z     vdW  Elec       q    Type
                         _______ _______ _______ _____ _____    ______ ____

>  <TORSDO>
F 14

$$$$
=
 OpenBabel10262422283D

 43 47  0  0  1  0  0  0  0  0999 V2000
  191.2350  176.8740  146.6690 C   0  0  1  0  0  3  0  0  0  0  0  0
  189.2010  177.8100  141.9970 C   0  0  0  0  0  0  0  0  0  0  0  0
  186.4570  178.2900  142.3530 C   0  0  0  0  0  0  0  0  0  0  0  0
  190.8950  177.1360  144.2150 C   0  0  1  0  0  3  0  0  0  0  0  0
  189.7230  176.7710  146.8700 C   0  0  0  0  0  2  0  0  0  0  0  0
  191.9450  176.0720  147.7390 C   0  0  0  0  0  1  0  0  0  0  0  0
  189.3820  176.9700  144.3990 C   0  0  1  0  0  3  0  0  0  0  0  0
  191.6340  176.3500  145.2900 C   0  0  0  0  0  2  0  0  0  0  0  0
  188.9810  177.5260  145.7680 C   0  0  0  0  0  2  0  0  0  0  0  0
  187.2200  177.7980  143.4110 C   0  0  0  0  0  3  0  0  0  0  0  0
  188.5980  177.5880  143.2620 C   0  0  0  0  0  0  0  0  0  0  0  0
  190.6840  177.6000  141.7950 C   0  0  0  0  0  2  0  0  0  0  0  0
  188.4270  178.3100  140.9320 C   0  0  0  0  0  0  0  0  0  0  0  0
  187.0580  178.5430  141.1210 C   0  0  0  0  0  3  0  0  0  0  0  0
  191.2900  176.6580  142.8300 C   0  0  0  0  0  2  0  0  0  0  0  0
  184.9910  178.4720  142.5170 C   0  0  0  0  0  2  0  0  0  0  0  0
  184.7400  179.4120  143.5990 N   0  0  0  0  0  2  0  0  0  0  0  0
  183.8040  178.7930  144.5290 C   0  0  1  0  0  3  0  0  0  0  0  0
  184.2390  178.9720  145.8440 O   0  0  0  0  0  1  0  0  0  0  0  0
  182.4040  179.3800  144.3510 C   0  0  0  0  0  2  0  0  0  0  0  0
  181.6350  178.7540  143.1900 C   0  0  0  0  0  2  0  0  0  0  0  0
  181.3780  179.7380  142.1490 N   0  0  0  0  0  0  0  0  0  0  0  0
  179.8190  179.3740  140.3630 C   0  0  2  0  0  3  0  0  0  0  0  0
  180.1630  180.3680  142.4820 N   0  0  0  0  0  2  0  0  0  0  0  0
  181.1670  178.9930  140.9100 C   0  0  1  0  0  3  0  0  0  0  0  0
  182.2400  179.3560  139.9020 C   0  0  0  0  0  1  0  0  0  0  0  0
  179.4020  180.5070  141.2540 C   0  0  0  0  0  2  0  0  0  0  0  0
  178.9310  178.2750  140.5270 O   0  0  0  0  0  0  0  0  0  0  0  0
  179.1760  177.0200  139.9660 C   0  0  0  0  0  0  0  0  0  0  0  0
  179.4970  175.3310  138.3620 C   0  0  0  0  0  0  0  0  0  0  0  0
  179.6170  174.4090  139.8860 S   0  0  0  0  0  0  0  0  0  0  0  0
  179.5210  174.7820  137.2730 O   0  0  0  0  0  0  0  0  0  0  0  0
  179.2790  175.9460  140.7360 C   0  0  0  0  0  3  0  0  0  0  0  0
  179.3330  176.7990  138.4990 C   0  0  0  0  0  2  0  0  0  0  0  0
  189.0420  178.5560  139.6570 N   0  0  0  0  0  2  0  0  0  0  0  0
  189.0600  177.6270  138.5290 C   0  0  2  0  0  3  0  0  0  0  0  0
  190.3400  177.0960  138.3650 O   0  0  0  0  0  1  0  0  0  0  0  0
  188.6100  178.3050  137.2430 C   0  0  0  0  0  2  0  0  0  0  0  0
  187.2050  178.6630  137.3280 N   0  0  0  0  0  2  0  0  0  0  0  0
  186.5450  178.0330  136.1930 C   0  0  0  0  0  2  0  0  0  0  0  0
  186.1310  175.6770  136.9600 C   0  0  0  0  0  1  0  0  0  0  0  0
  185.4970  177.0190  136.6490 C   0  0  0  0  0  3  0  0  0  0  0  0
  184.7200  177.5220  137.8520 C   0  0  0  0  0  1  0  0  0  0  0  0
  1  5  1  0  0  0  0
  1  6  1  1  0  0  0
  2 11  1  0  0  0  0
  3 16  1  0  0  0  0
  3 10  1  0  0  0  0
  4 15  1  6  0  0  0
  4  7  1  0  0  0  0
  4  8  1  0  0  0  0
  7  9  1  1  0  0  0
  8  1  1  0  0  0  0
  9  5  1  0  0  0  0
 11 10  2  0  0  0  0
 11  7  1  0  0  0  0
 12  2  1  0  0  0  0
 12 15  1  0  0  0  0
 13 14  1  0  0  0  0
 13  2  2  0  0  0  0
 14  3  2  0  0  0  0
 16 17  1  0  0  0  0
 17 18  1  0  0  0  0
 18 19  1  1  0  0  0
 20 18  1  0  0  0  0
 21 20  1  0  0  0  0
 22 24  1  0  0  0  0
 22 21  1  0  0  0  0
 23 28  1  1  0  0  0
 23 25  1  0  0  0  0
 23 27  1  0  0  0  0
 25 26  1  6  0  0  0
 25 22  1  0  0  0  0
 27 24  1  0  0  0  0
 29 28  1  0  0  0  0
 29 33  2  0  0  0  0
 30 34  1  0  0  0  0
 30 31  1  0  0  0  0
 31 33  1  0  0  0  0
 32 30  2  0  0  0  0
 34 29  1  0  0  0  0
 35 13  1  0  0  0  0
 36 37  1  6  0  0  0
 36 35  1  0  0  0  0
 38 39  1  0  0  0  0
 38 36  1  0  0  0  0
 40 42  1  0  0  0  0
 40 39  1  0  0  0  0
 42 41  1  0  0  0  0
 42 43  1  0  0  0  0
M  END
>  <MODEL>
5

>  <REMARK>
 VINA RESULT:      -8.0      2.716      7.766
  Name = 
  14 active torsions:
  status: ('A' for Active; 'I' for Inactive)
    1  A    between atoms: C_1  and  C_9
    2  A    between atoms: C_1  and  N_35
    3  A    between atoms: C_2  and  N_6
    4  A    between atoms: C_2  and  C_13
    5  A    between atoms: C_3  and  N_4
    6  A    between atoms: C_3  and  C_7
    7  A    between atoms: N_6  and  C_12
    8  A    between atoms: C_7  and  C_12
    9  A    between atoms: C_9  and  N_32
   10  A    between atoms: C_10  and  O_14
   11  A    between atoms: C_11  and  O_14
   12  A    between atoms: C_25  and  N_32
   13  A    between atoms: C_25  and  C_37
   14  A    between atoms: C_34  and  N_35
                            x       y       z     vdW  Elec       q    Type
                         _______ _______ _______ _____ _____    ______ ____

>  <TORSDO>
F 14

$$$$
=
 OpenBabel10262422283D

 43 47  0  0  1  0  0  0  0  0999 V2000
  188.7250  176.9820  146.7910 C   0  0  1  0  0  3  0  0  0  0  0  0
  184.4790  178.6020  144.3040 C   0  0  0  0  0  0  0  0  0  0  0  0
  185.0530  178.5830  141.5560 C   0  0  0  0  0  0  0  0  0  0  0  0
  186.4690  177.8880  146.2460 C   0  0  1  0  0  3  0  0  0  0  0  0
  189.1950  177.2910  145.3700 C   0  0  0  0  0  2  0  0  0  0  0  0
  189.8970  177.0770  147.7450 C   0  0  0  0  0  1  0  0  0  0  0  0
  186.9500  178.2590  144.8400 C   0  0  1  0  0  3  0  0  0  0  0  0
  187.6340  177.9600  147.2250 C   0  0  0  0  0  2  0  0  0  0  0  0
  188.0190  177.2570  144.3950 C   0  0  0  0  0  2  0  0  0  0  0  0
  186.0790  178.4000  142.4820 C   0  0  0  0  0  3  0  0  0  0  0  0
  185.8040  178.3700  143.8570 C   0  0  0  0  0  0  0  0  0  0  0  0
  184.1400  178.5740  145.7770 C   0  0  0  0  0  2  0  0  0  0  0  0
  183.4450  178.7840  143.3660 C   0  0  0  0  0  0  0  0  0  0  0  0
  183.7440  178.7740  141.9970 C   0  0  0  0  0  3  0  0  0  0  0  0
  185.3550  178.8290  146.6650 C   0  0  0  0  0  2  0  0  0  0  0  0
  185.3660  178.6480  140.1040 C   0  0  0  0  0  2  0  0  0  0  0  0
  184.1370  178.8680  139.3560 N   0  0  0  0  0  2  0  0  0  0  0  0
  184.0460  177.8450  138.3240 C   0  0  1  0  0  3  0  0  0  0  0  0
  182.9340  178.0750  137.5100 O   0  0  0  0  0  1  0  0  0  0  0  0
  185.3210  177.8170  137.4810 C   0  0  0  0  0  2  0  0  0  0  0  0
  185.6770  176.4190  136.9790 C   0  0  0  0  0  2  0  0  0  0  0  0
  186.9600  176.4270  136.2930 N   0  0  0  0  0  0  0  0  0  0  0  0
  189.0560  176.6000  137.4450 C   0  0  2  0  0  3  0  0  0  0  0  0
  187.4990  175.1330  136.4350 N   0  0  0  0  0  2  0  0  0  0  0  0
  187.8220  177.3510  137.0270 C   0  0  1  0  0  3  0  0  0  0  0  0
  188.2170  178.5070  136.1300 C   0  0  0  0  0  1  0  0  0  0  0  0
  188.9120  175.2890  136.7310 C   0  0  0  0  0  2  0  0  0  0  0  0
  189.0120  176.3940  138.8520 O   0  0  0  0  0  0  0  0  0  0  0  0
  190.0570  176.7690  139.7000 C   0  0  0  0  0  0  0  0  0  0  0  0
  191.2050  177.4910  141.6210 C   0  0  0  0  0  0  0  0  0  0  0  0
  192.5360  177.3390  140.4400 S   0  0  0  0  0  0  0  0  0  0  0  0
  191.3860  177.9380  142.7410 O   0  0  0  0  0  0  0  0  0  0  0  0
  191.2950  176.8740  139.2380 C   0  0  0  0  0  3  0  0  0  0  0  0
  189.8620  177.0720  141.1470 C   0  0  0  0  0  2  0  0  0  0  0  0
  182.0990  178.9970  143.8190 N   0  0  0  0  0  2  0  0  0  0  0  0
  180.9300  179.1700  142.9590 C   0  0  2  0  0  3  0  0  0  0  0  0
  180.0720  180.1280  143.5010 O   0  0  0  0  0  1  0  0  0  0  0  0
  180.1860  177.8570  142.7630 C   0  0  0  0  0  2  0  0  0  0  0  0
  178.9310  178.0890  142.0680 N   0  0  0  0  0  2  0  0  0  0  0  0
  179.0480  177.4450  140.7680 C   0  0  0  0  0  2  0  0  0  0  0  0
  179.5120  177.8450  138.3320 C   0  0  0  0  0  1  0  0  0  0  0  0
  179.7000  178.3700  139.7430 C   0  0  0  0  0  3  0  0  0  0  0  0
  179.1640  179.7860  139.8500 C   0  0  0  0  0  1  0  0  0  0  0  0
  1  8  1  0  0  0  0
  1  6  1  1  0  0  0
  2 12  1  0  0  0  0
  3 14  2  0  0  0  0
  3 10  1  0  0  0  0
  4 15  1  1  0  0  0
  4  8  1  0  0  0  0
  5  1  1  0  0  0  0
  7  9  1  6  0  0  0
  7  4  1  0  0  0  0
  9  5  1  0  0  0  0
 10 11  2  0  0  0  0
 11  2  1  0  0  0  0
 11  7  1  0  0  0  0
 12 15  1  0  0  0  0
 13 35  1  0  0  0  0
 13  2  2  0  0  0  0
 14 13  1  0  0  0  0
 16  3  1  0  0  0  0
 17 16  1  0  0  0  0
 18 19  1  6  0  0  0
 18 17  1  0  0  0  0
 20 18  1  0  0  0  0
 21 20  1  0  0  0  0
 22 24  1  0  0  0  0
 22 21  1  0  0  0  0
 22 25  1  0  0  0  0
 23 28  1  1  0  0  0
 24 27  1  0  0  0  0
 25 26  1  6  0  0  0
 25 23  1  0  0  0  0
 27 23  1  0  0  0  0
 28 29  1  0  0  0  0
 29 34  1  0  0  0  0
 30 32  2  0  0  0  0
 31 30  1  0  0  0  0
 33 29  2  0  0  0  0
 33 31  1  0  0  0  0
 34 30  1  0  0  0  0
 36 37  1  1  0  0  0
 36 35  1  0  0  0  0
 38 36  1  0  0  0  0
 39 38  1  0  0  0  0
 40 39  1  0  0  0  0
 41 42  1  0  0  0  0
 42 43  1  0  0  0  0
 42 40  1  0  0  0  0
M  END
>  <MODEL>
6

>  <REMARK>
 VINA RESULT:      -7.9      3.212      7.550
  Name = 
  14 active torsions:
  status: ('A' for Active; 'I' for Inactive)
    1  A    between atoms: C_1  and  C_9
    2  A    between atoms: C_1  and  N_35
    3  A    between atoms: C_2  and  N_6
    4  A    between atoms: C_2  and  C_13
    5  A    between atoms: C_3  and  N_4
    6  A    between atoms: C_3  and  C_7
    7  A    between atoms: N_6  and  C_12
    8  A    between atoms: C_7  and  C_12
    9  A    between atoms: C_9  and  N_32
   10  A    between atoms: C_10  and  O_14
   11  A    between atoms: C_11  and  O_14
   12  A    between atoms: C_25  and  N_32
   13  A    between atoms: C_25  and  C_37
   14  A    between atoms: C_34  and  N_35
                            x       y       z     vdW  Elec       q    Type
                         _______ _______ _______ _____ _____    ______ ____

>  <TORSDO>
F 14

$$$$
=
 OpenBabel10262422283D

 43 47  0  0  1  0  0  0  0  0999 V2000
  185.0570  178.1910  145.7110 C   0  0  1  0  0  3  0  0  0  0  0  0
  182.7350  178.6600  141.1030 C   0  0  0  0  0  0  0  0  0  0  0  0
  184.7070  178.3450  139.1300 C   0  0  0  0  0  0  0  0  0  0  0  0
  183.3990  178.5960  143.8950 C   0  0  1  0  0  3  0  0  0  0  0  0
  186.1990  178.3700  144.7100 C   0  0  0  0  0  2  0  0  0  0  0  0
  185.5140  178.6280  147.0860 C   0  0  0  0  0  1  0  0  0  0  0  0
  184.5380  178.8400  142.8990 C   0  0  1  0  0  3  0  0  0  0  0  0
  183.8390  179.0140  145.2930 C   0  0  0  0  0  2  0  0  0  0  0  0
  185.7460  177.9880  143.3020 C   0  0  0  0  0  2  0  0  0  0  0  0
  185.0770  178.4820  140.4670 C   0  0  0  0  0  3  0  0  0  0  0  0
  184.1040  178.6030  141.4690 C   0  0  0  0  0  0  0  0  0  0  0  0
  181.6550  178.7860  142.1530 C   0  0  0  0  0  2  0  0  0  0  0  0
  182.3660  178.5190  139.7520 C   0  0  0  0  0  0  0  0  0  0  0  0
  183.3590  178.3650  138.7750 C   0  0  0  0  0  3  0  0  0  0  0  0
  182.1730  179.3760  143.4610 C   0  0  0  0  0  2  0  0  0  0  0  0
  185.7520  178.2540  138.0750 C   0  0  0  0  0  2  0  0  0  0  0  0
  187.0400  177.9830  138.6950 N   0  0  0  0  0  2  0  0  0  0  0  0
  188.0840  178.3280  137.7400 C   0  0  1  0  0  3  0  0  0  0  0  0
  187.7550  179.5070  137.0680 O   0  0  0  0  0  1  0  0  0  0  0  0
  189.4300  178.4840  138.4500 C   0  0  0  0  0  2  0  0  0  0  0  0
  189.3520  178.2090  139.9490 C   0  0  0  0  0  2  0  0  0  0  0  0
  190.2540  177.1320  140.3260 N   0  0  0  0  0  0  0  0  0  0  0  0
  191.4990  177.1260  142.3760 C   0  0  2  0  0  3  0  0  0  0  0  0
  189.5640  176.3390  141.2640 N   0  0  0  0  0  2  0  0  0  0  0  0
  191.3850  177.7520  141.0130 C   0  0  1  0  0  3  0  0  0  0  0  0
  192.6610  177.4990  140.2350 C   0  0  0  0  0  1  0  0  0  0  0  0
  190.5080  176.0010  142.3150 C   0  0  0  0  0  2  0  0  0  0  0  0
  191.0940  178.0780  143.3520 O   0  0  0  0  0  0  0  0  0  0  0  0
  190.7730  177.7200  144.6640 C   0  0  0  0  0  0  0  0  0  0  0  0
  189.5650  177.4870  146.6680 C   0  0  0  0  0  0  0  0  0  0  0  0
  191.1240  176.7290  147.0960 S   0  0  0  0  0  0  0  0  0  0  0  0
  188.6790  177.6470  147.4910 O   0  0  0  0  0  0  0  0  0  0  0  0
  191.6790  177.1570  145.4500 C   0  0  0  0  0  3  0  0  0  0  0  0
  189.4240  177.9400  145.2610 C   0  0  0  0  0  2  0  0  0  0  0  0
  180.9780  178.5550  139.3840 N   0  0  0  0  0  2  0  0  0  0  0  0
  180.3470  177.7190  138.3640 C   0  0  2  0  0  3  0  0  0  0  0  0
  179.2210  178.3590  137.8470 O   0  0  0  0  0  1  0  0  0  0  0  0
  179.9610  176.3570  138.9230 C   0  0  0  0  0  2  0  0  0  0  0  0
  180.3670  175.3040  138.0090 N   0  0  0  0  0  2  0  0  0  0  0  0
  181.7760  175.0450  138.2700 C   0  0  0  0  0  2  0  0  0  0  0  0
  181.9390  173.2280  136.5440 C   0  0  0  0  0  1  0  0  0  0  0  0
  182.4970  174.5570  137.0150 C   0  0  0  0  0  3  0  0  0  0  0  0
  182.4240  175.5800  135.8970 C   0  0  0  0  0  1  0  0  0  0  0  0
  1  6  1  1  0  0  0
  2 11  1  0  0  0  0
  2 12  1  0  0  0  0
  3 10  1  0  0  0  0
  4 15  1  6  0  0  0
  4  8  1  0  0  0  0
  5  1  1  0  0  0  0
  7  9  1  1  0  0  0
  7  4  1  0  0  0  0
  8  1  1  0  0  0  0
  9  5  1  0  0  0  0
 10 11  2  0  0  0  0
 11  7  1  0  0  0  0
 12 15  1  0  0  0  0
 13  2  2  0  0  0  0
 14  3  2  0  0  0  0
 14 13  1  0  0  0  0
 16 17  1  0  0  0  0
 16  3  1  0  0  0  0
 18 19  1  1  0  0  0
 18 20  1  0  0  0  0
 18 17  1  0  0  0  0
 20 21  1  0  0  0  0
 21 22  1  0  0  0  0
 22 25  1  0  0  0  0
 22 24  1  0  0  0  0
 23 28  1  1  0  0  0
 24 27  1  0  0  0  0
 25 26  1  6  0  0  0
 25 23  1  0  0  0  0
 27 23  1  0  0  0  0
 28 29  1  0  0  0  0
 29 34  1  0  0  0  0
 29 33  2  0  0  0  0
 30 31  1  0  0  0  0
 30 32  2  0  0  0  0
 33 31  1  0  0  0  0
 34 30  1  0  0  0  0
 35 13  1  0  0  0  0
 36 37  1  1  0  0  0
 36 38  1  0  0  0  0
 36 35  1  0  0  0  0
 39 40  1  0  0  0  0
 39 38  1  0  0  0  0
 41 42  1  0  0  0  0
 42 40  1  0  0  0  0
 43 42  1  0  0  0  0
M  END
>  <MODEL>
7

>  <REMARK>
 VINA RESULT:      -7.8      3.185      8.267
  Name = 
  14 active torsions:
  status: ('A' for Active; 'I' for Inactive)
    1  A    between atoms: C_1  and  C_9
    2  A    between atoms: C_1  and  N_35
    3  A    between atoms: C_2  and  N_6
    4  A    between atoms: C_2  and  C_13
    5  A    between atoms: C_3  and  N_4
    6  A    between atoms: C_3  and  C_7
    7  A    between atoms: N_6  and  C_12
    8  A    between atoms: C_7  and  C_12
    9  A    between atoms: C_9  and  N_32
   10  A    between atoms: C_10  and  O_14
   11  A    between atoms: C_11  and  O_14
   12  A    between atoms: C_25  and  N_32
   13  A    between atoms: C_25  and  C_37
   14  A    between atoms: C_34  and  N_35
                            x       y       z     vdW  Elec       q    Type
                         _______ _______ _______ _____ _____    ______ ____

>  <TORSDO>
F 14

$$$$
=
 OpenBabel10262422283D

 43 47  0  0  1  0  0  0  0  0999 V2000
  188.2560  177.1060  145.8460 C   0  0  1  0  0  3  0  0  0  0  0  0
  183.9690  178.8370  143.5090 C   0  0  0  0  0  0  0  0  0  0  0  0
  184.3890  178.6600  140.7390 C   0  0  0  0  0  0  0  0  0  0  0  0
  186.0230  178.1060  145.3770 C   0  0  1  0  0  3  0  0  0  0  0  0
  188.6630  177.3240  144.3890 C   0  0  0  0  0  2  0  0  0  0  0  0
  189.4820  177.1810  146.7320 C   0  0  0  0  0  1  0  0  0  0  0  0
  186.4450  178.3860  143.9300 C   0  0  1  0  0  3  0  0  0  0  0  0
  187.2420  178.1600  146.2880 C   0  0  0  0  0  2  0  0  0  0  0  0
  187.4350  177.3090  143.4800 C   0  0  0  0  0  2  0  0  0  0  0  0
  185.4540  178.4650  141.6170 C   0  0  0  0  0  3  0  0  0  0  0  0
  185.2540  178.5130  143.0040 C   0  0  0  0  0  0  0  0  0  0  0  0
  183.7110  178.8950  144.9970 C   0  0  0  0  0  2  0  0  0  0  0  0
  182.8960  179.0310  142.6180 C   0  0  0  0  0  0  0  0  0  0  0  0
  183.1180  178.9420  141.2370 C   0  0  0  0  0  3  0  0  0  0  0  0
  184.9830  179.1240  145.8060 C   0  0  0  0  0  2  0  0  0  0  0  0
  184.6250  178.6420  139.2700 C   0  0  0  0  0  2  0  0  0  0  0  0
  186.0560  178.5850  139.0120 N   0  0  0  0  0  2  0  0  0  0  0  0
  186.2570  178.5940  137.5700 C   0  0  1  0  0  3  0  0  0  0  0  0
  187.3570  179.3890  137.2400 O   0  0  0  0  0  1  0  0  0  0  0  0
  186.4570  177.1710  137.0470 C   0  0  0  0  0  2  0  0  0  0  0  0
  187.8950  176.8860  136.6230 C   0  0  0  0  0  2  0  0  0  0  0  0
  188.5370  175.9700  137.5540 N   0  0  0  0  0  0  0  0  0  0  0  0
  190.6910  174.9960  137.1530 C   0  0  2  0  0  3  0  0  0  0  0  0
  189.5020  176.7190  138.2540 N   0  0  0  0  0  2  0  0  0  0  0  0
  189.2440  174.9780  136.7470 C   0  0  1  0  0  3  0  0  0  0  0  0
  188.6660  173.6000  137.0050 C   0  0  0  0  0  1  0  0  0  0  0  0
  190.6940  175.8960  138.3530 C   0  0  0  0  0  2  0  0  0  0  0  0
  191.4540  175.5810  136.1050 O   0  0  0  0  0  0  0  0  0  0  0  0
  192.8160  175.3260  135.9330 C   0  0  0  0  0  0  0  0  0  0  0  0
  195.1430  175.6570  135.8560 C   0  0  0  0  0  0  0  0  0  0  0  0
  195.0010  173.9640  135.3080 S   0  0  0  0  0  0  0  0  0  0  0  0
  196.2130  176.2430  135.8670 O   0  0  0  0  0  0  0  0  0  0  0  0
  193.2290  174.1620  135.4530 C   0  0  0  0  0  3  0  0  0  0  0  0
  193.8790  176.3190  136.2650 C   0  0  0  0  0  2  0  0  0  0  0  0
  181.5890  179.3370  143.1300 N   0  0  0  0  0  2  0  0  0  0  0  0
  180.3930  179.5710  142.3230 C   0  0  2  0  0  3  0  0  0  0  0  0
  179.9080  180.8600  142.5440 O   0  0  0  0  0  1  0  0  0  0  0  0
  179.3090  178.5480  142.6280 C   0  0  0  0  0  2  0  0  0  0  0  0
  179.5940  177.2940  141.9520 N   0  0  0  0  0  2  0  0  0  0  0  0
  179.8780  177.6250  140.5630 C   0  0  0  0  0  2  0  0  0  0  0  0
  180.2820  175.1710  140.2050 C   0  0  0  0  0  1  0  0  0  0  0  0
  180.7760  176.5750  139.9110 C   0  0  0  0  0  3  0  0  0  0  0  0
  180.8850  176.7870  138.4120 C   0  0  0  0  0  1  0  0  0  0  0  0
  1  8  1  0  0  0  0
  1  6  1  1  0  0  0
  2 12  1  0  0  0  0
  3 14  2  0  0  0  0
  3 10  1  0  0  0  0
  4 15  1  1  0  0  0
  4  8  1  0  0  0  0
  5  1  1  0  0  0  0
  7  9  1  6  0  0  0
  7  4  1  0  0  0  0
  9  5  1  0  0  0  0
 10 11  2  0  0  0  0
 11  2  1  0  0  0  0
 11  7  1  0  0  0  0
 12 15  1  0  0  0  0
 13 35  1  0  0  0  0
 13  2  2  0  0  0  0
 14 13  1  0  0  0  0
 16  3  1  0  0  0  0
 17 16  1  0  0  0  0
 18 19  1  1  0  0  0
 18 17  1  0  0  0  0
 20 18  1  0  0  0  0
 21 20  1  0  0  0  0
 21 22  1  0  0  0  0
 22 24  1  0  0  0  0
 23 28  1  6  0  0  0
 23 27  1  0  0  0  0
 24 27  1  0  0  0  0
 25 26  1  1  0  0  0
 25 23  1  0  0  0  0
 25 22  1  0  0  0  0
 29 28  1  0  0  0  0
 29 34  1  0  0  0  0
 30 32  2  0  0  0  0
 30 34  1  0  0  0  0
 31 33  1  0  0  0  0
 31 30  1  0  0  0  0
 33 29  2  0  0  0  0
 36 37  1  1  0  0  0
 36 38  1  0  0  0  0
 36 35  1  0  0  0  0
 39 38  1  0  0  0  0
 40 39  1  0  0  0  0
 42 41  1  0  0  0  0
 42 40  1  0  0  0  0
 43 42  1  0  0  0  0
M  END
>  <MODEL>
8

>  <REMARK>
 VINA RESULT:      -7.8      3.957      8.051
  Name = 
  14 active torsions:
  status: ('A' for Active; 'I' for Inactive)
    1  A    between atoms: C_1  and  C_9
    2  A    between atoms: C_1  and  N_35
    3  A    between atoms: C_2  and  N_6
    4  A    between atoms: C_2  and  C_13
    5  A    between atoms: C_3  and  N_4
    6  A    between atoms: C_3  and  C_7
    7  A    between atoms: N_6  and  C_12
    8  A    between atoms: C_7  and  C_12
    9  A    between atoms: C_9  and  N_32
   10  A    between atoms: C_10  and  O_14
   11  A    between atoms: C_11  and  O_14
   12  A    between atoms: C_25  and  N_32
   13  A    between atoms: C_25  and  C_37
   14  A    between atoms: C_34  and  N_35
                            x       y       z     vdW  Elec       q    Type
                         _______ _______ _______ _____ _____    ______ ____

>  <TORSDO>
F 14

$$$$
=
 OpenBabel10262422283D

 43 47  0  0  1  0  0  0  0  0999 V2000
  191.1250  176.8240  146.4220 C   0  0  1  0  0  3  0  0  0  0  0  0
  187.9920  177.8570  142.4270 C   0  0  0  0  0  0  0  0  0  0  0  0
  185.4420  178.3920  143.4730 C   0  0  0  0  0  0  0  0  0  0  0  0
  190.1780  177.1210  144.1360 C   0  0  1  0  0  3  0  0  0  0  0  0
  189.7120  176.7510  147.0010 C   0  0  0  0  0  2  0  0  0  0  0  0
  192.0650  175.9940  147.2710 C   0  0  0  0  0  1  0  0  0  0  0  0
  188.7590  176.9860  144.6990 C   0  0  1  0  0  3  0  0  0  0  0  0
  191.1470  176.3070  144.9840 C   0  0  0  0  0  2  0  0  0  0  0  0
  188.7330  177.5350  146.1280 C   0  0  0  0  0  2  0  0  0  0  0  0
  186.4370  177.8720  144.2990 C   0  0  0  0  0  3  0  0  0  0  0  0
  187.7260  177.6330  143.8020 C   0  0  0  0  0  0  0  0  0  0  0  0
  189.3690  177.6170  141.8530 C   0  0  0  0  0  2  0  0  0  0  0  0
  186.9840  178.3850  141.5970 C   0  0  0  0  0  0  0  0  0  0  0  0
  185.7150  178.6460  142.1300 C   0  0  0  0  0  3  0  0  0  0  0  0
  190.1960  176.6500  142.6940 C   0  0  0  0  0  2  0  0  0  0  0  0
  184.0700  178.6050  144.0060 C   0  0  0  0  0  2  0  0  0  0  0  0
  183.2390  179.2050  142.9730 N   0  0  0  0  0  2  0  0  0  0  0  0
  181.9360  178.5560  143.0060 C   0  0  1  0  0  3  0  0  0  0  0  0
  181.3790  178.6510  144.2830 O   0  0  0  0  0  1  0  0  0  0  0  0
  180.9980  179.1830  141.9730 C   0  0  0  0  0  2  0  0  0  0  0  0
  180.9560  178.4110  140.6570 C   0  0  0  0  0  2  0  0  0  0  0  0
  181.4400  179.2350  139.5590 N   0  0  0  0  0  0  0  0  0  0  0  0
  182.3860  178.3170  137.5560 C   0  0  2  0  0  3  0  0  0  0  0  0
  180.4410  179.2080  138.5660 N   0  0  0  0  0  2  0  0  0  0  0  0
  182.6210  178.5640  139.0200 C   0  0  1  0  0  3  0  0  0  0  0  0
  183.8390  179.4510  139.1920 C   0  0  0  0  0  1  0  0  0  0  0  0
  181.1140  179.0640  137.2870 C   0  0  0  0  0  2  0  0  0  0  0  0
  182.1840  176.9240  137.3530 O   0  0  0  0  0  0  0  0  0  0  0  0
  183.2410  176.0190  137.2350 C   0  0  0  0  0  0  0  0  0  0  0  0
  184.5510  174.0870  137.5190 C   0  0  0  0  0  0  0  0  0  0  0  0
  185.6070  175.0890  136.4860 S   0  0  0  0  0  0  0  0  0  0  0  0
  184.9200  173.0160  137.9710 O   0  0  0  0  0  0  0  0  0  0  0  0
  184.3440  176.3540  136.5800 C   0  0  0  0  0  3  0  0  0  0  0  0
  183.2100  174.6480  137.8220 C   0  0  0  0  0  2  0  0  0  0  0  0
  187.2600  178.6330  140.2090 N   0  0  0  0  0  2  0  0  0  0  0  0
  188.4370  178.1630  139.4800 C   0  0  2  0  0  3  0  0  0  0  0  0
  189.0590  179.2310  138.8330 O   0  0  0  0  0  1  0  0  0  0  0  0
  188.0710  177.0860  138.4690 C   0  0  0  0  0  2  0  0  0  0  0  0
  189.0200  177.0840  137.3700 N   0  0  0  0  0  2  0  0  0  0  0  0
  189.5860  175.7440  137.3080 C   0  0  0  0  0  2  0  0  0  0  0  0
  191.5450  176.3090  138.7740 C   0  0  0  0  0  1  0  0  0  0  0  0
  191.1080  175.7750  137.4240 C   0  0  0  0  0  3  0  0  0  0  0  0
  191.7130  174.4040  137.1830 C   0  0  0  0  0  1  0  0  0  0  0  0
  1  5  1  0  0  0  0
  1  6  1  1  0  0  0
  2 11  1  0  0  0  0
  3 16  1  0  0  0  0
  3 10  1  0  0  0  0
  4 15  1  6  0  0  0
  4  7  1  0  0  0  0
  4  8  1  0  0  0  0
  7  9  1  1  0  0  0
  8  1  1  0  0  0  0
  9  5  1  0  0  0  0
 11 10  2  0  0  0  0
 11  7  1  0  0  0  0
 12  2  1  0  0  0  0
 12 15  1  0  0  0  0
 13 14  1  0  0  0  0
 13  2  2  0  0  0  0
 14  3  2  0  0  0  0
 17 18  1  0  0  0  0
 17 16  1  0  0  0  0
 18 19  1  1  0  0  0
 20 18  1  0  0  0  0
 21 20  1  0  0  0  0
 22 21  1  0  0  0  0
 23 28  1  1  0  0  0
 23 25  1  0  0  0  0
 24 22  1  0  0  0  0
 25 26  1  6  0  0  0
 25 22  1  0  0  0  0
 27 23  1  0  0  0  0
 27 24  1  0  0  0  0
 29 28  1  0  0  0  0
 29 34  1  0  0  0  0
 30 34  1  0  0  0  0
 30 32  2  0  0  0  0
 31 33  1  0  0  0  0
 31 30  1  0  0  0  0
 33 29  2  0  0  0  0
 35 13  1  0  0  0  0
 36 37  1  6  0  0  0
 36 35  1  0  0  0  0
 38 36  1  0  0  0  0
 39 38  1  0  0  0  0
 40 39  1  0  0  0  0
 40 42  1  0  0  0  0
 42 41  1  0  0  0  0
 43 42  1  0  0  0  0
M  END
>  <MODEL>
9

>  <REMARK>
 VINA RESULT:      -7.7      2.827      6.946
  Name = 
  14 active torsions:
  status: ('A' for Active; 'I' for Inactive)
    1  A    between atoms: C_1  and  C_9
    2  A    between atoms: C_1  and  N_35
    3  A    between atoms: C_2  and  N_6
    4  A    between atoms: C_2  and  C_13
    5  A    between atoms: C_3  and  N_4
    6  A    between atoms: C_3  and  C_7
    7  A    between atoms: N_6  and  C_12
    8  A    between atoms: C_7  and  C_12
    9  A    between atoms: C_9  and  N_32
   10  A    between atoms: C_10  and  O_14
   11  A    between atoms: C_11  and  O_14
   12  A    between atoms: C_25  and  N_32
   13  A    between atoms: C_25  and  C_37
   14  A    between atoms: C_34  and  N_35
                            x       y       z     vdW  Elec       q    Type
                         _______ _______ _______ _____ _____    ______ ____

>  <TORSDO>
F 14

$$$$
