=
 OpenBabel10262419403D

 31 34  0  0  1  0  0  0  0  0999 V2000
  188.3060  177.2880  144.2390 C   0  0  0  0  0  0  0  0  0  0  0  0
  187.2780  177.7020  145.1390 C   0  0  0  0  0  0  0  0  0  0  0  0
  186.3990  177.9980  147.4100 C   0  0  0  0  0  3  0  0  0  0  0  0
  189.6430  177.0240  144.5720 C   0  0  0  0  0  0  0  0  0  0  0  0
  191.6500  176.6800  145.7640 C   0  0  2  0  0  3  0  0  0  0  0  0
  187.3740  177.5770  146.5000 C   0  0  0  0  0  3  0  0  0  0  0  0
  189.0760  177.1240  141.8660 C   0  0  0  0  0  0  0  0  0  0  0  0
  185.8100  178.3260  143.3400 C   0  0  0  0  0  3  0  0  0  0  0  0
  185.2560  178.5720  146.9500 C   0  0  0  0  0  3  0  0  0  0  0  0
  190.2700  176.5750  142.3280 C   0  0  0  0  0  3  0  0  0  0  0  0
  188.0580  177.3710  142.8840 C   0  0  0  0  0  0  0  0  0  0  0  0
  190.2690  176.9390  145.8010 O   0  0  0  0  0  0  0  0  0  0  0  0
  183.8670  179.3620  145.2490 O   0  0  0  0  0  1  0  0  0  0  0  0
  190.5300  176.5750  143.6850 C   0  0  0  0  0  0  0  0  0  0  0  0
  191.6860  176.4020  144.3450 O   0  0  0  0  0  0  0  0  0  0  0  0
  186.7790  177.8470  142.4820 C   0  0  0  0  0  3  0  0  0  0  0  0
  186.0130  178.2180  144.6960 C   0  0  0  0  0  0  0  0  0  0  0  0
  185.0470  178.7280  145.5880 C   0  0  0  0  0  0  0  0  0  0  0  0
  192.1880  175.5910  146.7200 C   0  0  0  0  0  3  0  0  0  0  0  0
  192.4940  175.8760  148.0100 C   0  0  0  0  0  2  0  0  0  0  0  0
  188.6910  177.0230  140.4940 O   0  0  0  0  0  0  0  0  0  0  0  0
  190.6270  176.3930  138.9440 C   0  0  0  0  0  1  0  0  0  0  0  0
  189.4350  177.2580  139.2540 C   0  0  1  0  0  3  0  0  0  0  0  0
  188.9200  179.3910  138.3210 O   0  0  0  0  0  1  0  0  0  0  0  0
  188.8860  178.0140  138.0090 C   0  0  2  0  0  3  0  0  0  0  0  0
  187.0160  176.5950  136.7350 C   0  0  0  0  0  1  0  0  0  0  0  0
  187.4140  177.6220  137.7660 C   0  0  2  0  0  3  0  0  0  0  0  0
  186.4500  178.6730  137.9760 O   0  0  0  0  0  0  0  0  0  0  0  0
  185.2230  178.5490  138.6890 C   0  0  0  0  0  0  0  0  0  0  0  0
  184.3210  177.6890  138.4010 O   0  0  0  0  0  0  0  0  0  0  0  0
  185.0180  179.4700  139.7710 N   0  0  0  0  0  1  0  0  0  0  0  0
  1  4  1  0  0  0  0
  1  2  2  0  0  0  0
  2  6  1  0  0  0  0
  4 12  1  0  0  0  0
  5 12  1  0  0  0  0
  5 19  1  1  0  0  0
  6  3  2  0  0  0  0
  7 10  2  0  0  0  0
  7 11  1  0  0  0  0
  8 17  2  0  0  0  0
  9  3  1  0  0  0  0
 10 14  1  0  0  0  0
 11  1  1  0  0  0  0
 13 18  1  0  0  0  0
 14 15  1  0  0  0  0
 14  4  2  0  0  0  0
 15  5  1  0  0  0  0
 16 11  2  0  0  0  0
 16  8  1  0  0  0  0
 17  2  1  0  0  0  0
 17 18  1  0  0  0  0
 18  9  2  0  0  0  0
 19 20  2  0  0  0  0
 21  7  1  0  0  0  0
 23 22  1  6  0  0  0
 23 21  1  0  0  0  0
 25 24  1  1  0  0  0
 25 23  1  0  0  0  0
 27 26  1  6  0  0  0
 27 28  1  0  0  0  0
 27 25  1  0  0  0  0
 28 29  1  0  0  0  0
 29 31  1  0  0  0  0
 30 29  2  0  0  0  0
M  END
>  <MODEL>
1

>  <REMARK>
 VINA RESULT:     -10.3      0.000      0.000
  Name = 
  7 active torsions:
  status: ('A' for Active; 'I' for Inactive)
    1  A    between atoms: C_1  and  O_24
    2  A    between atoms: C_2  and  C_13
    3  A    between atoms: C_9  and  C_22
    4  A    between atoms: C_9  and  O_23
    5  A    between atoms: C_15  and  O_23
    6  A    between atoms: C_19  and  C_22
    7  A    between atoms: C_19  and  O_24
                            x       y       z     vdW  Elec       q    Type
                         _______ _______ _______ _____ _____    ______ ____

>  <TORSDO>
F 7

$$$$
=
 OpenBabel10262419403D

 31 34  0  0  1  0  0  0  0  0999 V2000
  188.5530  177.8220  143.7540 C   0  0  0  0  0  0  0  0  0  0  0  0
  189.1220  177.5360  145.0310 C   0  0  0  0  0  0  0  0  0  0  0  0
  188.9490  177.3650  147.4720 C   0  0  0  0  0  3  0  0  0  0  0  0
  187.1860  177.9380  143.4610 C   0  0  0  0  0  0  0  0  0  0  0  0
  184.8370  178.0660  143.6480 C   0  0  2  0  0  3  0  0  0  0  0  0
  188.4320  177.6640  146.2080 C   0  0  0  0  0  3  0  0  0  0  0  0
  188.8810  177.8730  141.2760 C   0  0  0  0  0  0  0  0  0  0  0  0
  191.2790  177.0620  144.0820 C   0  0  0  0  0  3  0  0  0  0  0  0
  190.2280  176.9190  147.5850 C   0  0  0  0  0  3  0  0  0  0  0  0
  187.5580  178.2890  141.1440 C   0  0  0  0  0  3  0  0  0  0  0  0
  189.3730  177.7530  142.6460 C   0  0  0  0  0  0  0  0  0  0  0  0
  186.0820  177.9650  144.2920 O   0  0  0  0  0  0  0  0  0  0  0  0
  192.2870  176.2720  146.6990 O   0  0  0  0  0  1  0  0  0  0  0  0
  186.7350  178.2740  142.2530 C   0  0  0  0  0  0  0  0  0  0  0  0
  185.3960  178.3230  142.3390 O   0  0  0  0  0  0  0  0  0  0  0  0
  190.7390  177.4190  142.8630 C   0  0  0  0  0  3  0  0  0  0  0  0
  190.4970  177.1600  145.2080 C   0  0  0  0  0  0  0  0  0  0  0  0
  191.0220  176.7720  146.4580 C   0  0  0  0  0  0  0  0  0  0  0  0
  183.8340  179.0980  144.2130 C   0  0  0  0  0  3  0  0  0  0  0  0
  182.4960  178.9240  144.0820 C   0  0  0  0  0  2  0  0  0  0  0  0
  189.8130  178.0020  140.2000 O   0  0  0  0  0  0  0  0  0  0  0  0
  190.1970  176.1450  138.4820 C   0  0  0  0  0  1  0  0  0  0  0  0
  189.7620  177.5490  138.8090 C   0  0  1  0  0  3  0  0  0  0  0  0
  188.8530  179.5850  137.9630 O   0  0  0  0  0  1  0  0  0  0  0  0
  188.9080  178.2010  137.6820 C   0  0  2  0  0  3  0  0  0  0  0  0
  187.0870  176.3340  137.1070 C   0  0  0  0  0  1  0  0  0  0  0  0
  187.4670  177.6510  137.7340 C   0  0  2  0  0  3  0  0  0  0  0  0
  186.4240  178.6460  137.7300 O   0  0  0  0  0  0  0  0  0  0  0  0
  185.1930  178.5670  138.4430 C   0  0  0  0  0  0  0  0  0  0  0  0
  184.4160  177.5520  138.4010 O   0  0  0  0  0  0  0  0  0  0  0  0
  184.8320  179.7170  139.2230 N   0  0  0  0  0  1  0  0  0  0  0  0
  1  2  2  0  0  0  0
  2 17  1  0  0  0  0
  2  6  1  0  0  0  0
  3  9  1  0  0  0  0
  4  1  1  0  0  0  0
  4 12  1  0  0  0  0
  5 19  1  1  0  0  0
  5 12  1  0  0  0  0
  6  3  2  0  0  0  0
  7 11  1  0  0  0  0
  8 17  2  0  0  0  0
 10  7  2  0  0  0  0
 10 14  1  0  0  0  0
 11 16  2  0  0  0  0
 11  1  1  0  0  0  0
 14 15  1  0  0  0  0
 14  4  2  0  0  0  0
 15  5  1  0  0  0  0
 16  8  1  0  0  0  0
 17 18  1  0  0  0  0
 18 13  1  0  0  0  0
 18  9  2  0  0  0  0
 20 19  2  0  0  0  0
 21  7  1  0  0  0  0
 23 22  1  1  0  0  0
 23 21  1  0  0  0  0
 25 27  1  0  0  0  0
 25 24  1  1  0  0  0
 25 23  1  0  0  0  0
 27 26  1  6  0  0  0
 28 27  1  0  0  0  0
 28 29  1  0  0  0  0
 29 31  1  0  0  0  0
 30 29  2  0  0  0  0
M  END
>  <MODEL>
2

>  <REMARK>
 VINA RESULT:      -9.8      1.442      4.445
  Name = 
  7 active torsions:
  status: ('A' for Active; 'I' for Inactive)
    1  A    between atoms: C_1  and  O_24
    2  A    between atoms: C_2  and  C_13
    3  A    between atoms: C_9  and  C_22
    4  A    between atoms: C_9  and  O_23
    5  A    between atoms: C_15  and  O_23
    6  A    between atoms: C_19  and  C_22
    7  A    between atoms: C_19  and  O_24
                            x       y       z     vdW  Elec       q    Type
                         _______ _______ _______ _____ _____    ______ ____

>  <TORSDO>
F 7

$$$$
=
 OpenBabel10262419403D

 31 34  0  0  1  0  0  0  0  0999 V2000
  188.3720  177.3020  144.2430 C   0  0  0  0  0  0  0  0  0  0  0  0
  187.3230  177.7170  145.1160 C   0  0  0  0  0  0  0  0  0  0  0  0
  186.3840  178.0090  147.3630 C   0  0  0  0  0  3  0  0  0  0  0  0
  189.6990  177.0310  144.6100 C   0  0  0  0  0  0  0  0  0  0  0  0
  191.6720  176.6740  145.8550 C   0  0  2  0  0  3  0  0  0  0  0  0
  187.3810  177.5870  146.4790 C   0  0  0  0  0  3  0  0  0  0  0  0
  189.2050  177.1420  141.8910 C   0  0  0  0  0  0  0  0  0  0  0  0
  185.9060  178.3530  143.2810 C   0  0  0  0  0  3  0  0  0  0  0  0
  185.2560  178.5900  146.8750 C   0  0  0  0  0  3  0  0  0  0  0  0
  190.3850  176.5860  142.3830 C   0  0  0  0  0  3  0  0  0  0  0  0
  188.1610  177.3910  142.8820 C   0  0  0  0  0  0  0  0  0  0  0  0
  190.2910  176.9390  145.8560 O   0  0  0  0  0  0  0  0  0  0  0  0
  183.9170  179.3910  145.1390 O   0  0  0  0  0  1  0  0  0  0  0  0
  190.6080  176.5810  143.7460 C   0  0  0  0  0  0  0  0  0  0  0  0
  191.7450  176.4010  144.4370 O   0  0  0  0  0  0  0  0  0  0  0  0
  186.8960  177.8740  142.4470 C   0  0  0  0  0  3  0  0  0  0  0  0
  186.0720  178.2410  144.6410 C   0  0  0  0  0  0  0  0  0  0  0  0
  185.0850  178.7510  145.5080 C   0  0  0  0  0  0  0  0  0  0  0  0
  192.1790  175.5800  146.8220 C   0  0  0  0  0  3  0  0  0  0  0  0
  192.5530  175.8800  148.0910 C   0  0  0  0  0  2  0  0  0  0  0  0
  188.8580  177.0470  140.5080 O   0  0  0  0  0  0  0  0  0  0  0  0
  190.8750  176.4400  139.0560 C   0  0  0  0  0  1  0  0  0  0  0  0
  189.6400  177.2680  139.2900 C   0  0  1  0  0  3  0  0  0  0  0  0
  188.9150  179.3210  138.3160 O   0  0  0  0  0  1  0  0  0  0  0  0
  189.1120  177.9590  137.9980 C   0  0  2  0  0  3  0  0  0  0  0  0
  186.4460  178.0750  137.8940 C   0  0  0  0  0  1  0  0  0  0  0  0
  187.7440  177.3630  137.6080 C   0  0  2  0  0  3  0  0  0  0  0  0
  187.6640  175.9240  137.6410 O   0  0  0  0  0  0  0  0  0  0  0  0
  186.8210  175.1160  136.8250 C   0  0  0  0  0  0  0  0  0  0  0  0
  185.9700  174.2830  137.2940 O   0  0  0  0  0  0  0  0  0  0  0  0
  186.9770  175.2600  135.4050 N   0  0  0  0  0  1  0  0  0  0  0  0
  1  4  1  0  0  0  0
  1  2  2  0  0  0  0
  2  6  1  0  0  0  0
  4 12  1  0  0  0  0
  5 12  1  0  0  0  0
  5 19  1  1  0  0  0
  6  3  2  0  0  0  0
  7 10  2  0  0  0  0
  7 11  1  0  0  0  0
  8 17  2  0  0  0  0
  9  3  1  0  0  0  0
 10 14  1  0  0  0  0
 11  1  1  0  0  0  0
 13 18  1  0  0  0  0
 14 15  1  0  0  0  0
 14  4  2  0  0  0  0
 15  5  1  0  0  0  0
 16 11  2  0  0  0  0
 16  8  1  0  0  0  0
 17  2  1  0  0  0  0
 17 18  1  0  0  0  0
 18  9  2  0  0  0  0
 19 20  2  0  0  0  0
 21  7  1  0  0  0  0
 23 22  1  6  0  0  0
 23 21  1  0  0  0  0
 25 24  1  1  0  0  0
 25 23  1  0  0  0  0
 27 28  1  0  0  0  0
 27 26  1  1  0  0  0
 27 25  1  0  0  0  0
 29 30  2  0  0  0  0
 29 28  1  0  0  0  0
 31 29  1  0  0  0  0
M  END
>  <MODEL>
3

>  <REMARK>
 VINA RESULT:      -9.7      1.495      1.681
  Name = 
  7 active torsions:
  status: ('A' for Active; 'I' for Inactive)
    1  A    between atoms: C_1  and  O_24
    2  A    between atoms: C_2  and  C_13
    3  A    between atoms: C_9  and  C_22
    4  A    between atoms: C_9  and  O_23
    5  A    between atoms: C_15  and  O_23
    6  A    between atoms: C_19  and  C_22
    7  A    between atoms: C_19  and  O_24
                            x       y       z     vdW  Elec       q    Type
                         _______ _______ _______ _____ _____    ______ ____

>  <TORSDO>
F 7

$$$$
=
 OpenBabel10262419403D

 31 34  0  0  1  0  0  0  0  0999 V2000
  186.5240  178.0840  144.2200 C   0  0  0  0  0  0  0  0  0  0  0  0
  187.4460  177.7970  145.2710 C   0  0  0  0  0  0  0  0  0  0  0  0
  189.6610  177.0960  146.0570 C   0  0  0  0  0  3  0  0  0  0  0  0
  186.8440  178.2930  142.8700 C   0  0  0  0  0  0  0  0  0  0  0  0
  188.0050  178.4670  140.8230 C   0  0  2  0  0  3  0  0  0  0  0  0
  188.7260  177.3590  145.0520 C   0  0  0  0  0  3  0  0  0  0  0  0
  184.2410  178.8840  143.5920 C   0  0  0  0  0  0  0  0  0  0  0  0
  185.8070  178.2450  146.9710 C   0  0  0  0  0  3  0  0  0  0  0  0
  189.3140  177.2700  147.3600 C   0  0  0  0  0  3  0  0  0  0  0  0
  184.6000  178.7520  142.2520 C   0  0  0  0  0  3  0  0  0  0  0  0
  185.2310  178.4230  144.5610 C   0  0  0  0  0  0  0  0  0  0  0  0
  188.0370  178.1360  142.1890 O   0  0  0  0  0  0  0  0  0  0  0  0
  187.8170  177.8700  149.0470 O   0  0  0  0  0  1  0  0  0  0  0  0
  185.9180  178.4900  141.9330 C   0  0  0  0  0  0  0  0  0  0  0  0
  186.5680  178.6190  140.7650 O   0  0  0  0  0  0  0  0  0  0  0  0
  184.9050  178.4410  145.9460 C   0  0  0  0  0  3  0  0  0  0  0  0
  187.0920  177.8670  146.6610 C   0  0  0  0  0  0  0  0  0  0  0  0
  188.0350  177.6910  147.6940 C   0  0  0  0  0  0  0  0  0  0  0  0
  188.6590  177.4680  139.8410 C   0  0  0  0  0  3  0  0  0  0  0  0
  189.2740  177.8920  138.7100 C   0  0  0  0  0  2  0  0  0  0  0  0
  182.8730  179.0120  143.9870 O   0  0  0  0  0  0  0  0  0  0  0  0
  180.3890  178.4080  143.8840 C   0  0  0  0  0  1  0  0  0  0  0  0
  181.6280  178.9460  143.2200 C   0  0  1  0  0  3  0  0  0  0  0  0
  180.0470  180.3430  142.1070 O   0  0  0  0  0  1  0  0  0  0  0  0
  181.3240  179.7650  141.9310 C   0  0  2  0  0  3  0  0  0  0  0  0
  180.4700  177.5270  140.7490 C   0  0  0  0  0  1  0  0  0  0  0  0
  181.2490  178.8180  140.7150 C   0  0  2  0  0  3  0  0  0  0  0  0
  182.4210  178.7950  139.8750 O   0  0  0  0  0  0  0  0  0  0  0  0
  182.9010  179.8780  139.0840 C   0  0  0  0  0  0  0  0  0  0  0  0
  184.1270  180.2440  139.0560 O   0  0  0  0  0  0  0  0  0  0  0  0
  181.9240  180.5830  138.3050 N   0  0  0  0  0  1  0  0  0  0  0  0
  1 11  1  0  0  0  0
  1  2  2  0  0  0  0
  2 17  1  0  0  0  0
  3  9  1  0  0  0  0
  4  1  1  0  0  0  0
  5 19  1  6  0  0  0
  5 12  1  0  0  0  0
  6  2  1  0  0  0  0
  6  3  2  0  0  0  0
  7 21  1  0  0  0  0
  7 11  1  0  0  0  0
  9 18  2  0  0  0  0
 10  7  2  0  0  0  0
 11 16  2  0  0  0  0
 12  4  1  0  0  0  0
 14 10  1  0  0  0  0
 14  4  2  0  0  0  0
 15  5  1  0  0  0  0
 15 14  1  0  0  0  0
 16  8  1  0  0  0  0
 17  8  2  0  0  0  0
 17 18  1  0  0  0  0
 18 13  1  0  0  0  0
 20 19  2  0  0  0  0
 23 22  1  1  0  0  0
 23 21  1  0  0  0  0
 25 24  1  1  0  0  0
 25 23  1  0  0  0  0
 27 26  1  1  0  0  0
 27 25  1  0  0  0  0
 28 27  1  0  0  0  0
 29 28  1  0  0  0  0
 30 29  2  0  0  0  0
 31 29  1  0  0  0  0
M  END
>  <MODEL>
4

>  <REMARK>
 VINA RESULT:      -9.4      2.726      5.943
  Name = 
  7 active torsions:
  status: ('A' for Active; 'I' for Inactive)
    1  A    between atoms: C_1  and  O_24
    2  A    between atoms: C_2  and  C_13
    3  A    between atoms: C_9  and  C_22
    4  A    between atoms: C_9  and  O_23
    5  A    between atoms: C_15  and  O_23
    6  A    between atoms: C_19  and  C_22
    7  A    between atoms: C_19  and  O_24
                            x       y       z     vdW  Elec       q    Type
                         _______ _______ _______ _____ _____    ______ ____

>  <TORSDO>
F 7

$$$$
=
 OpenBabel10262419403D

 31 34  0  0  1  0  0  0  0  0999 V2000
  186.4790  178.1630  144.1100 C   0  0  0  0  0  0  0  0  0  0  0  0
  187.4200  177.8540  145.1370 C   0  0  0  0  0  0  0  0  0  0  0  0
  189.6470  177.1280  145.8650 C   0  0  0  0  0  3  0  0  0  0  0  0
  186.7720  178.3910  142.7570 C   0  0  0  0  0  0  0  0  0  0  0  0
  187.8910  178.5900  140.6890 C   0  0  2  0  0  3  0  0  0  0  0  0
  188.6930  177.4120  144.8850 C   0  0  0  0  0  3  0  0  0  0  0  0
  184.1880  178.9860  143.5420 C   0  0  0  0  0  0  0  0  0  0  0  0
  185.8200  178.2860  146.8780 C   0  0  0  0  0  3  0  0  0  0  0  0
  189.3270  177.2830  147.1780 C   0  0  0  0  0  3  0  0  0  0  0  0
  184.5190  178.8720  142.1930 C   0  0  0  0  0  3  0  0  0  0  0  0
  185.1950  178.5040  144.4830 C   0  0  0  0  0  0  0  0  0  0  0  0
  187.9490  178.2370  142.0480 O   0  0  0  0  0  0  0  0  0  0  0  0
  187.8700  177.8670  148.9050 O   0  0  0  0  0  1  0  0  0  0  0  0
  185.8280  178.6080  141.8420 C   0  0  0  0  0  0  0  0  0  0  0  0
  186.4540  178.7510  140.6640 O   0  0  0  0  0  0  0  0  0  0  0  0
  184.8970  178.5030  145.8750 C   0  0  0  0  0  3  0  0  0  0  0  0
  187.0950  177.9050  146.5350 C   0  0  0  0  0  0  0  0  0  0  0  0
  188.0590  177.7070  147.5450 C   0  0  0  0  0  0  0  0  0  0  0  0
  188.5180  177.6020  139.6780 C   0  0  0  0  0  3  0  0  0  0  0  0
  189.8130  177.2150  139.7830 C   0  0  0  0  0  2  0  0  0  0  0  0
  182.8300  179.1160  143.9670 O   0  0  0  0  0  0  0  0  0  0  0  0
  180.3720  178.4030  143.9670 C   0  0  0  0  0  1  0  0  0  0  0  0
  181.5650  178.9710  143.2440 C   0  0  1  0  0  3  0  0  0  0  0  0
  180.0500  180.5170  142.2420 O   0  0  0  0  0  1  0  0  0  0  0  0
  181.1840  179.7310  141.9400 C   0  0  2  0  0  3  0  0  0  0  0  0
  179.3530  178.5620  140.3850 C   0  0  0  0  0  1  0  0  0  0  0  0
  180.7800  178.7210  140.8460 C   0  0  2  0  0  3  0  0  0  0  0  0
  181.5700  177.5160  140.7930 O   0  0  0  0  0  0  0  0  0  0  0  0
  182.4010  177.1090  139.7100 C   0  0  0  0  0  0  0  0  0  0  0  0
  182.6800  175.8870  139.4530 O   0  0  0  0  0  0  0  0  0  0  0  0
  182.9500  178.1570  138.8970 N   0  0  0  0  0  1  0  0  0  0  0  0
  1 11  1  0  0  0  0
  1  2  2  0  0  0  0
  2 17  1  0  0  0  0
  3  9  1  0  0  0  0
  4  1  1  0  0  0  0
  5 19  1  6  0  0  0
  5 12  1  0  0  0  0
  6  2  1  0  0  0  0
  6  3  2  0  0  0  0
  7 21  1  0  0  0  0
  7 11  1  0  0  0  0
  9 18  2  0  0  0  0
 10  7  2  0  0  0  0
 11 16  2  0  0  0  0
 12  4  1  0  0  0  0
 14 10  1  0  0  0  0
 14  4  2  0  0  0  0
 15  5  1  0  0  0  0
 15 14  1  0  0  0  0
 16  8  1  0  0  0  0
 17  8  2  0  0  0  0
 17 18  1  0  0  0  0
 18 13  1  0  0  0  0
 19 20  2  0  0  0  0
 23 21  1  0  0  0  0
 23 22  1  1  0  0  0
 25 24  1  1  0  0  0
 25 23  1  0  0  0  0
 27 26  1  1  0  0  0
 27 25  1  0  0  0  0
 28 27  1  0  0  0  0
 29 28  1  0  0  0  0
 30 29  2  0  0  0  0
 31 29  1  0  0  0  0
M  END
>  <MODEL>
5

>  <REMARK>
 VINA RESULT:      -9.3      2.833      6.024
  Name = 
  7 active torsions:
  status: ('A' for Active; 'I' for Inactive)
    1  A    between atoms: C_1  and  O_24
    2  A    between atoms: C_2  and  C_13
    3  A    between atoms: C_9  and  C_22
    4  A    between atoms: C_9  and  O_23
    5  A    between atoms: C_15  and  O_23
    6  A    between atoms: C_19  and  C_22
    7  A    between atoms: C_19  and  O_24
                            x       y       z     vdW  Elec       q    Type
                         _______ _______ _______ _____ _____    ______ ____

>  <TORSDO>
F 7

$$$$
=
 OpenBabel10262419403D

 31 34  0  0  1  0  0  0  0  0999 V2000
  188.6330  177.7810  143.4180 C   0  0  0  0  0  0  0  0  0  0  0  0
  189.0690  177.5010  144.7470 C   0  0  0  0  0  0  0  0  0  0  0  0
  188.6480  177.3340  147.1580 C   0  0  0  0  0  3  0  0  0  0  0  0
  187.3020  177.8870  142.9870 C   0  0  0  0  0  0  0  0  0  0  0  0
  184.9450  178.0000  142.9320 C   0  0  2  0  0  3  0  0  0  0  0  0
  188.2610  177.6270  145.8480 C   0  0  0  0  0  3  0  0  0  0  0  0
  189.2120  177.8300  140.9870 C   0  0  0  0  0  0  0  0  0  0  0  0
  191.3150  177.0410  144.0250 C   0  0  0  0  0  3  0  0  0  0  0  0
  189.9120  176.8960  147.4030 C   0  0  0  0  0  3  0  0  0  0  0  0
  187.9060  178.2370  140.7190 C   0  0  0  0  0  3  0  0  0  0  0  0
  189.5620  177.7160  142.4000 C   0  0  0  0  0  0  0  0  0  0  0  0
  186.1190  177.9080  143.7010 O   0  0  0  0  0  0  0  0  0  0  0  0
  192.0560  176.2620  146.7330 O   0  0  0  0  0  1  0  0  0  0  0  0
  186.9740  178.2180  141.7390 C   0  0  0  0  0  0  0  0  0  0  0  0
  185.6330  178.2580  141.6860 O   0  0  0  0  0  0  0  0  0  0  0  0
  190.9000  177.3920  142.7570 C   0  0  0  0  0  3  0  0  0  0  0  0
  190.4210  177.1360  145.0660 C   0  0  0  0  0  0  0  0  0  0  0  0
  190.8190  176.7530  146.3630 C   0  0  0  0  0  0  0  0  0  0  0  0
  183.8830  179.0250  143.3890 C   0  0  0  0  0  3  0  0  0  0  0  0
  183.7560  179.3740  144.6930 C   0  0  0  0  0  2  0  0  0  0  0  0
  190.2480  177.9630  140.0110 O   0  0  0  0  0  0  0  0  0  0  0  0
  192.3820  176.8190  139.1870 C   0  0  0  0  0  1  0  0  0  0  0  0
  190.8870  176.9850  139.1300 C   0  0  1  0  0  3  0  0  0  0  0  0
  191.1710  174.8760  138.0520 O   0  0  0  0  0  1  0  0  0  0  0  0
  190.1650  175.7870  138.4440 C   0  0  2  0  0  3  0  0  0  0  0  0
  190.1850  176.5520  135.8850 C   0  0  0  0  0  1  0  0  0  0  0  0
  189.4450  176.2730  137.1690 C   0  0  2  0  0  3  0  0  0  0  0  0
  188.2850  177.0990  137.3900 O   0  0  0  0  0  0  0  0  0  0  0  0
  188.1130  178.4360  136.9310 C   0  0  0  0  0  0  0  0  0  0  0  0
  188.7240  179.4420  137.4340 O   0  0  0  0  0  0  0  0  0  0  0  0
  187.1800  178.6280  135.8560 N   0  0  0  0  0  1  0  0  0  0  0  0
  1  2  2  0  0  0  0
  2 17  1  0  0  0  0
  2  6  1  0  0  0  0
  3  9  1  0  0  0  0
  4  1  1  0  0  0  0
  4 12  1  0  0  0  0
  5 19  1  1  0  0  0
  5 12  1  0  0  0  0
  6  3  2  0  0  0  0
  7 11  1  0  0  0  0
  8 17  2  0  0  0  0
 10  7  2  0  0  0  0
 10 14  1  0  0  0  0
 11 16  2  0  0  0  0
 11  1  1  0  0  0  0
 14  4  2  0  0  0  0
 15 14  1  0  0  0  0
 15  5  1  0  0  0  0
 16  8  1  0  0  0  0
 17 18  1  0  0  0  0
 18 13  1  0  0  0  0
 18  9  2  0  0  0  0
 19 20  2  0  0  0  0
 21  7  1  0  0  0  0
 23 22  1  1  0  0  0
 23 21  1  0  0  0  0
 25 24  1  6  0  0  0
 25 23  1  0  0  0  0
 27 26  1  6  0  0  0
 27 28  1  0  0  0  0
 27 25  1  0  0  0  0
 29 28  1  0  0  0  0
 29 30  2  0  0  0  0
 31 29  1  0  0  0  0
M  END
>  <MODEL>
6

>  <REMARK>
 VINA RESULT:      -9.3      2.027      4.758
  Name = 
  7 active torsions:
  status: ('A' for Active; 'I' for Inactive)
    1  A    between atoms: C_1  and  O_24
    2  A    between atoms: C_2  and  C_13
    3  A    between atoms: C_9  and  C_22
    4  A    between atoms: C_9  and  O_23
    5  A    between atoms: C_15  and  O_23
    6  A    between atoms: C_19  and  C_22
    7  A    between atoms: C_19  and  O_24
                            x       y       z     vdW  Elec       q    Type
                         _______ _______ _______ _____ _____    ______ ____

>  <TORSDO>
F 7

$$$$
=
 OpenBabel10262419403D

 31 34  0  0  1  0  0  0  0  0999 V2000
  188.5960  177.7680  143.6630 C   0  0  0  0  0  0  0  0  0  0  0  0
  189.1730  177.5000  144.9400 C   0  0  0  0  0  0  0  0  0  0  0  0
  189.0330  177.4180  147.3880 C   0  0  0  0  0  3  0  0  0  0  0  0
  187.2310  177.9360  143.3870 C   0  0  0  0  0  0  0  0  0  0  0  0
  184.8940  178.1750  143.6050 C   0  0  2  0  0  3  0  0  0  0  0  0
  188.5090  177.6970  146.1230 C   0  0  0  0  0  3  0  0  0  0  0  0
  188.8840  177.7230  141.1800 C   0  0  0  0  0  0  0  0  0  0  0  0
  191.2910  176.8990  143.9740 C   0  0  0  0  0  3  0  0  0  0  0  0
  190.2930  176.9190  147.4960 C   0  0  0  0  0  3  0  0  0  0  0  0
  187.5790  178.1940  141.0540 C   0  0  0  0  0  3  0  0  0  0  0  0
  189.3930  177.6260  142.5450 C   0  0  0  0  0  0  0  0  0  0  0  0
  186.1440  178.0400  144.2340 O   0  0  0  0  0  0  0  0  0  0  0  0
  192.3070  176.1510  146.6010 O   0  0  0  0  0  1  0  0  0  0  0  0
  186.7750  178.2520  142.1760 C   0  0  0  0  0  0  0  0  0  0  0  0
  185.4410  178.3640  142.2800 O   0  0  0  0  0  0  0  0  0  0  0  0
  190.7470  177.2390  142.7530 C   0  0  0  0  0  3  0  0  0  0  0  0
  190.5330  177.0690  145.1090 C   0  0  0  0  0  0  0  0  0  0  0  0
  191.0610  176.7000  146.3630 C   0  0  0  0  0  0  0  0  0  0  0  0
  183.9460  179.2690  144.1510 C   0  0  0  0  0  3  0  0  0  0  0  0
  182.6050  179.1930  143.9690 C   0  0  0  0  0  2  0  0  0  0  0  0
  189.8030  177.7750  140.0860 O   0  0  0  0  0  0  0  0  0  0  0  0
  189.3670  178.6440  137.7190 C   0  0  0  0  0  1  0  0  0  0  0  0
  189.6330  177.4980  138.6580 C   0  0  1  0  0  3  0  0  0  0  0  0
  190.6940  175.3780  138.9150 O   0  0  0  0  0  1  0  0  0  0  0  0
  190.1200  176.2110  137.9290 C   0  0  2  0  0  3  0  0  0  0  0  0
  191.1930  176.0840  135.4870 C   0  0  0  0  0  1  0  0  0  0  0  0
  191.2240  176.5710  136.9140 C   0  0  2  0  0  3  0  0  0  0  0  0
  192.5440  176.7380  137.4680 O   0  0  0  0  0  0  0  0  0  0  0  0
  193.7010  175.9910  137.1050 C   0  0  0  0  0  0  0  0  0  0  0  0
  194.0080  174.8640  137.6270 O   0  0  0  0  0  0  0  0  0  0  0  0
  194.5540  176.5780  136.1100 N   0  0  0  0  0  1  0  0  0  0  0  0
  1  2  2  0  0  0  0
  2 17  1  0  0  0  0
  2  6  1  0  0  0  0
  3  9  1  0  0  0  0
  4  1  1  0  0  0  0
  4 12  1  0  0  0  0
  5 19  1  1  0  0  0
  5 12  1  0  0  0  0
  6  3  2  0  0  0  0
  7 11  1  0  0  0  0
  8 17  2  0  0  0  0
 10  7  2  0  0  0  0
 10 14  1  0  0  0  0
 11 16  2  0  0  0  0
 11  1  1  0  0  0  0
 14 15  1  0  0  0  0
 14  4  2  0  0  0  0
 15  5  1  0  0  0  0
 16  8  1  0  0  0  0
 17 18  1  0  0  0  0
 18 13  1  0  0  0  0
 18  9  2  0  0  0  0
 20 19  2  0  0  0  0
 21  7  1  0  0  0  0
 23 22  1  6  0  0  0
 23 21  1  0  0  0  0
 25 23  1  0  0  0  0
 25 24  1  1  0  0  0
 27 26  1  6  0  0  0
 27 28  1  0  0  0  0
 27 25  1  0  0  0  0
 29 28  1  0  0  0  0
 29 30  2  0  0  0  0
 31 29  1  0  0  0  0
M  END
>  <MODEL>
7

>  <REMARK>
 VINA RESULT:      -9.1      2.992      5.734
  Name = 
  7 active torsions:
  status: ('A' for Active; 'I' for Inactive)
    1  A    between atoms: C_1  and  O_24
    2  A    between atoms: C_2  and  C_13
    3  A    between atoms: C_9  and  C_22
    4  A    between atoms: C_9  and  O_23
    5  A    between atoms: C_15  and  O_23
    6  A    between atoms: C_19  and  C_22
    7  A    between atoms: C_19  and  O_24
                            x       y       z     vdW  Elec       q    Type
                         _______ _______ _______ _____ _____    ______ ____

>  <TORSDO>
F 7

$$$$
=
 OpenBabel10262419403D

 31 34  0  0  1  0  0  0  0  0999 V2000
  187.7210  177.8000  143.4060 C   0  0  0  0  0  0  0  0  0  0  0  0
  186.6930  178.0050  144.3750 C   0  0  0  0  0  0  0  0  0  0  0  0
  185.8540  177.8840  146.6770 C   0  0  0  0  0  3  0  0  0  0  0  0
  189.0780  177.5660  143.6730 C   0  0  0  0  0  0  0  0  0  0  0  0
  191.1300  177.1570  144.7650 C   0  0  2  0  0  3  0  0  0  0  0  0
  186.8280  177.6710  145.6980 C   0  0  0  0  0  3  0  0  0  0  0  0
  188.4420  178.0600  141.0270 C   0  0  0  0  0  0  0  0  0  0  0  0
  185.1500  178.8170  142.7210 C   0  0  0  0  0  3  0  0  0  0  0  0
  184.6690  178.4550  146.3310 C   0  0  0  0  0  3  0  0  0  0  0  0
  189.6760  177.5160  141.3780 C   0  0  0  0  0  3  0  0  0  0  0  0
  187.4370  178.0820  142.0860 C   0  0  0  0  0  0  0  0  0  0  0  0
  189.7370  177.3250  144.8640 O   0  0  0  0  0  0  0  0  0  0  0  0
  183.1980  179.4210  144.7980 O   0  0  0  0  0  1  0  0  0  0  0  0
  189.9680  177.3170  142.7130 C   0  0  0  0  0  0  0  0  0  0  0  0
  191.1470  177.1100  143.3200 O   0  0  0  0  0  0  0  0  0  0  0  0
  186.1240  178.5390  141.7830 C   0  0  0  0  0  3  0  0  0  0  0  0
  185.3910  178.5090  144.0390 C   0  0  0  0  0  0  0  0  0  0  0  0
  184.4200  178.8120  145.0150 C   0  0  0  0  0  0  0  0  0  0  0  0
  191.7510  175.9640  145.5280 C   0  0  0  0  0  3  0  0  0  0  0  0
  191.9570  176.0150  146.8670 C   0  0  0  0  0  2  0  0  0  0  0  0
  188.0320  178.1550  139.6610 O   0  0  0  0  0  0  0  0  0  0  0  0
  187.4240  176.5480  137.7650 C   0  0  0  0  0  1  0  0  0  0  0  0
  188.4380  177.4100  138.4680 C   0  0  1  0  0  3  0  0  0  0  0  0
  189.2840  177.5550  136.2430 O   0  0  0  0  0  1  0  0  0  0  0  0
  189.6800  177.7360  137.5870 C   0  0  2  0  0  3  0  0  0  0  0  0
  190.5740  175.2410  137.9200 C   0  0  0  0  0  1  0  0  0  0  0  0
  190.8110  176.7310  137.8850 C   0  0  2  0  0  3  0  0  0  0  0  0
  191.8360  177.2010  138.7830 O   0  0  0  0  0  0  0  0  0  0  0  0
  193.2090  176.8200  138.7540 C   0  0  0  0  0  0  0  0  0  0  0  0
  193.9500  176.7670  139.7960 O   0  0  0  0  0  0  0  0  0  0  0  0
  193.7580  176.5060  137.4660 N   0  0  0  0  0  1  0  0  0  0  0  0
  1  4  1  0  0  0  0
  1  2  2  0  0  0  0
  2  6  1  0  0  0  0
  4 12  1  0  0  0  0
  5 12  1  0  0  0  0
  5 19  1  1  0  0  0
  6  3  2  0  0  0  0
  7 10  2  0  0  0  0
  7 11  1  0  0  0  0
  8 17  2  0  0  0  0
  9  3  1  0  0  0  0
 10 14  1  0  0  0  0
 11  1  1  0  0  0  0
 13 18  1  0  0  0  0
 14 15  1  0  0  0  0
 14  4  2  0  0  0  0
 15  5  1  0  0  0  0
 16 11  2  0  0  0  0
 16  8  1  0  0  0  0
 17  2  1  0  0  0  0
 17 18  1  0  0  0  0
 18  9  2  0  0  0  0
 19 20  2  0  0  0  0
 21  7  1  0  0  0  0
 23 22  1  6  0  0  0
 23 21  1  0  0  0  0
 25 24  1  6  0  0  0
 25 27  1  0  0  0  0
 25 23  1  0  0  0  0
 27 26  1  1  0  0  0
 27 28  1  0  0  0  0
 29 28  1  0  0  0  0
 29 30  2  0  0  0  0
 31 29  1  0  0  0  0
M  END
>  <MODEL>
8

>  <REMARK>
 VINA RESULT:      -9.0      2.351      3.426
  Name = 
  7 active torsions:
  status: ('A' for Active; 'I' for Inactive)
    1  A    between atoms: C_1  and  O_24
    2  A    between atoms: C_2  and  C_13
    3  A    between atoms: C_9  and  C_22
    4  A    between atoms: C_9  and  O_23
    5  A    between atoms: C_15  and  O_23
    6  A    between atoms: C_19  and  C_22
    7  A    between atoms: C_19  and  O_24
                            x       y       z     vdW  Elec       q    Type
                         _______ _______ _______ _____ _____    ______ ____

>  <TORSDO>
F 7

$$$$
=
 OpenBabel10262419403D

 31 34  0  0  1  0  0  0  0  0999 V2000
  186.6270  178.2700  143.2330 C   0  0  0  0  0  0  0  0  0  0  0  0
  187.1690  177.9650  144.5170 C   0  0  0  0  0  0  0  0  0  0  0  0
  186.9250  177.6840  146.9420 C   0  0  0  0  0  3  0  0  0  0  0  0
  185.2660  178.3200  142.8970 C   0  0  0  0  0  0  0  0  0  0  0  0
  182.9090  178.3060  143.0050 C   0  0  2  0  0  3  0  0  0  0  0  0
  186.4340  178.0040  145.6740 C   0  0  0  0  0  3  0  0  0  0  0  0
  187.0330  178.4430  140.7720 C   0  0  0  0  0  0  0  0  0  0  0  0
  189.3800  177.6560  143.6270 C   0  0  0  0  0  3  0  0  0  0  0  0
  188.2240  177.3070  147.0830 C   0  0  0  0  0  3  0  0  0  0  0  0
  185.6930  178.7880  140.6100 C   0  0  0  0  0  3  0  0  0  0  0  0
  187.4860  178.2940  142.1530 C   0  0  0  0  0  0  0  0  0  0  0  0
  184.1360  178.2490  143.6890 O   0  0  0  0  0  0  0  0  0  0  0  0
  190.3460  176.8170  146.2450 O   0  0  0  0  0  1  0  0  0  0  0  0
  184.8360  178.6790  141.6880 C   0  0  0  0  0  0  0  0  0  0  0  0
  183.4940  178.6480  141.7280 O   0  0  0  0  0  0  0  0  0  0  0  0
  188.8610  178.0310  142.4050 C   0  0  0  0  0  3  0  0  0  0  0  0
  188.5570  177.6620  144.7280 C   0  0  0  0  0  0  0  0  0  0  0  0
  189.0630  177.2530  145.9800 C   0  0  0  0  0  0  0  0  0  0  0  0
  181.8280  179.2530  143.5750 C   0  0  0  0  0  3  0  0  0  0  0  0
  180.5840  178.8050  143.8720 C   0  0  0  0  0  2  0  0  0  0  0  0
  187.9910  178.6690  139.7360 O   0  0  0  0  0  0  0  0  0  0  0  0
  187.1740  177.4020  137.6680 C   0  0  0  0  0  1  0  0  0  0  0  0
  188.3040  177.9190  138.5190 C   0  0  1  0  0  3  0  0  0  0  0  0
  189.4150  177.5290  136.4450 O   0  0  0  0  0  1  0  0  0  0  0  0
  189.6670  177.9570  137.7670 C   0  0  2  0  0  3  0  0  0  0  0  0
  190.7720  175.5300  137.9250 C   0  0  0  0  0  1  0  0  0  0  0  0
  190.6460  176.9520  138.4100 C   0  0  2  0  0  3  0  0  0  0  0  0
  190.8810  177.1330  139.8200 O   0  0  0  0  0  0  0  0  0  0  0  0
  192.1530  177.3010  140.4400 C   0  0  0  0  0  0  0  0  0  0  0  0
  192.3110  177.4560  141.7000 O   0  0  0  0  0  0  0  0  0  0  0  0
  193.2930  177.3100  139.5670 N   0  0  0  0  0  1  0  0  0  0  0  0
  1  2  2  0  0  0  0
  2 17  1  0  0  0  0
  2  6  1  0  0  0  0
  3  9  1  0  0  0  0
  4  1  1  0  0  0  0
  4 12  1  0  0  0  0
  5 19  1  1  0  0  0
  5 12  1  0  0  0  0
  6  3  2  0  0  0  0
  7 11  1  0  0  0  0
  8 17  2  0  0  0  0
 10  7  2  0  0  0  0
 10 14  1  0  0  0  0
 11 16  2  0  0  0  0
 11  1  1  0  0  0  0
 14 15  1  0  0  0  0
 14  4  2  0  0  0  0
 15  5  1  0  0  0  0
 16  8  1  0  0  0  0
 17 18  1  0  0  0  0
 18 13  1  0  0  0  0
 18  9  2  0  0  0  0
 19 20  2  0  0  0  0
 21  7  1  0  0  0  0
 23 22  1  6  0  0  0
 23 21  1  0  0  0  0
 25 24  1  6  0  0  0
 25 27  1  0  0  0  0
 25 23  1  0  0  0  0
 27 26  1  1  0  0  0
 27 28  1  0  0  0  0
 28 29  1  0  0  0  0
 29 30  2  0  0  0  0
 31 29  1  0  0  0  0
M  END
>  <MODEL>
9

>  <REMARK>
 VINA RESULT:      -8.7      2.482      5.687
  Name = 
  7 active torsions:
  status: ('A' for Active; 'I' for Inactive)
    1  A    between atoms: C_1  and  O_24
    2  A    between atoms: C_2  and  C_13
    3  A    between atoms: C_9  and  C_22
    4  A    between atoms: C_9  and  O_23
    5  A    between atoms: C_15  and  O_23
    6  A    between atoms: C_19  and  C_22
    7  A    between atoms: C_19  and  O_24
                            x       y       z     vdW  Elec       q    Type
                         _______ _______ _______ _____ _____    ______ ____

>  <TORSDO>
F 7

$$$$
