=
 OpenBabel10262422153D

 43 48  0  0  1  0  0  0  0  0999 V2000
  187.2420  178.6580  136.0070 N   0  0  0  0  0  0  0  0  0  0  0  0
  186.8920  178.0200  137.0800 C   0  0  0  0  0  0  0  0  0  0  0  0
  187.9650  177.9730  134.9400 C   0  0  0  0  0  2  0  0  0  0  0  0
  187.2760  176.5750  137.2310 C   0  0  0  0  0  2  0  0  0  0  0  0
  186.1970  178.7180  138.1120 N   0  0  0  0  0  2  0  0  0  0  0  0
  188.7410  176.3630  136.8000 C   0  0  1  0  0  3  0  0  0  0  0  0
  189.1260  177.1680  135.5320 C   0  0  0  0  0  2  0  0  0  0  0  0
  186.1910  178.6480  140.5190 C   0  0  0  0  0  2  0  0  0  0  0  0
  184.8160  179.0920  140.0540 C   0  0  1  0  0  3  0  0  0  0  0  0
  185.6000  178.0590  139.2620 C   0  0  1  0  0  3  0  0  0  0  0  0
  183.7760  178.4700  140.8770 N   0  0  0  0  0  0  0  0  0  0  0  0
  183.7720  178.6260  142.3100 C   0  0  0  0  0  0  0  0  0  0  0  0
  182.5680  179.1140  144.3060 C   0  0  0  0  0  3  0  0  0  0  0  0
  184.9190  178.6190  144.4400 C   0  0  0  0  0  3  0  0  0  0  0  0
  183.7210  178.9420  145.0740 C   0  0  0  0  0  3  0  0  0  0  0  0
  184.9480  178.4600  143.0540 C   0  0  0  0  0  3  0  0  0  0  0  0
  182.6190  178.9580  142.9550 N   0  0  0  0  0  0  0  0  0  0  0  0
  182.8550  177.1330  140.1540 S   0  0  0  0  0  0  0  0  0  0  0  0
  181.7500  178.2320  139.2160 C   0  0  0  0  0  0  0  0  0  0  0  0
  180.8450  177.5940  138.1900 C   0  0  0  0  0  2  0  0  0  0  0  0
  181.2680  179.3960  139.8070 O   0  0  0  0  0  1  0  0  0  0  0  0
  182.0720  178.3860  137.7520 C   0  0  0  0  0  2  0  0  0  0  0  0
  189.6790  176.6920  137.9700 C   0  0  2  0  0  3  0  0  0  0  0  0
  193.5280  174.7940  137.6240 C   0  0  0  0  0  0  0  0  0  0  0  0
  191.1010  174.6480  137.5840 C   0  0  0  0  0  0  0  0  0  0  0  0
  193.4460  176.1600  137.8920 C   0  0  0  0  0  3  0  0  0  0  0  0
  194.7690  174.1830  137.4990 O   0  0  0  0  0  1  0  0  0  0  0  0
  191.0230  176.0280  137.8420 C   0  0  0  0  0  0  0  0  0  0  0  0
  192.3620  174.0400  137.4740 C   0  0  0  0  0  3  0  0  0  0  0  0
  192.1990  176.7770  138.0040 C   0  0  0  0  0  3  0  0  0  0  0  0
  189.6930  173.0290  136.3460 C   0  0  0  0  0  1  0  0  0  0  0  0
  189.9230  173.9030  137.4410 O   0  0  0  0  0  0  0  0  0  0  0  0
  189.0820  176.3340  139.1830 O   0  0  0  0  0  0  0  0  0  0  0  0
  189.4650  177.3340  140.0820 C   0  0  0  0  0  2  0  0  0  0  0  0
  190.3080  176.7300  141.1930 C   0  0  0  0  0  2  0  0  0  0  0  0
  189.7660  178.1440  144.6670 C   0  0  0  0  0  3  0  0  0  0  0  0
  188.5700  177.5120  145.0450 C   0  0  0  0  0  0  0  0  0  0  0  0
  188.5180  176.3680  142.9070 C   0  0  0  0  0  3  0  0  0  0  0  0
  190.3320  177.8900  143.4130 C   0  0  0  0  0  3  0  0  0  0  0  0
  189.7040  177.0040  142.5290 C   0  0  0  0  0  0  0  0  0  0  0  0
  187.9540  176.6240  144.1590 C   0  0  0  0  0  3  0  0  0  0  0  0
  188.5000  177.4100  147.4980 C   0  0  0  0  0  2  0  0  0  0  0  0
  187.9390  177.7610  146.3490 C   0  0  0  0  0  3  0  0  0  0  0  0
  1  2  2  0  0  0  0
  2  4  1  0  0  0  0
  2  5  1  0  0  0  0
  3  7  1  0  0  0  0
  3  1  1  0  0  0  0
  6  4  1  0  0  0  0
  6 23  1  1  0  0  0
  7  6  1  0  0  0  0
  9  8  1  0  0  0  0
  9 11  1  1  0  0  0
 10  5  1  6  0  0  0
 10  9  1  0  0  0  0
 10  8  1  0  0  0  0
 11 12  1  0  0  0  0
 12 17  2  0  0  0  0
 12 16  1  0  0  0  0
 13 15  2  0  0  0  0
 14 15  1  0  0  0  0
 16 14  2  0  0  0  0
 17 13  1  0  0  0  0
 18 11  1  0  0  0  0
 19 21  1  0  0  0  0
 19 18  1  0  0  0  0
 20 19  1  0  0  0  0
 22 20  1  0  0  0  0
 22 19  1  0  0  0  0
 23 33  1  1  0  0  0
 24 26  1  0  0  0  0
 25 28  2  0  0  0  0
 26 30  2  0  0  0  0
 27 24  1  0  0  0  0
 28 23  1  0  0  0  0
 28 30  1  0  0  0  0
 29 25  1  0  0  0  0
 29 24  2  0  0  0  0
 31 32  1  0  0  0  0
 32 25  1  0  0  0  0
 33 34  1  0  0  0  0
 34 35  1  0  0  0  0
 35 40  1  0  0  0  0
 36 37  1  0  0  0  0
 37 43  1  0  0  0  0
 38 41  1  0  0  0  0
 39 36  2  0  0  0  0
 40 38  2  0  0  0  0
 40 39  1  0  0  0  0
 41 37  2  0  0  0  0
 43 42  2  0  0  0  0
M  END
>  <MODEL>
1

>  <REMARK>
 VINA RESULT:      -8.1      0.000      0.000
  Name = 
  13 active torsions:
  status: ('A' for Active; 'I' for Inactive)
    1  A    between atoms: C_1  and  C_8
    2  A    between atoms: C_1  and  C_35
    3  A    between atoms: C_4  and  N_14
    4  A    between atoms: C_8  and  O_34
    5  A    between atoms: C_10  and  S_41
    6  A    between atoms: C_11  and  N_14
    7  A    between atoms: C_12  and  N_17
    8  A    between atoms: N_14  and  S_41
    9  A    between atoms: C_16  and  O_43
   10  A    between atoms: C_19  and  C_37
   11  A    between atoms: C_21  and  C_30
   12  A    between atoms: C_27  and  C_30
   13  A    between atoms: C_30  and  O_34
                            x       y       z     vdW  Elec       q    Type
                         _______ _______ _______ _____ _____    ______ ____

>  <TORSDO>
F 13

$$$$
=
 OpenBabel10262422153D

 43 48  0  0  1  0  0  0  0  0999 V2000
  189.1250  178.9330  137.9090 N   0  0  0  0  0  0  0  0  0  0  0  0
  188.6460  178.1100  138.7880 C   0  0  0  0  0  0  0  0  0  0  0  0
  188.9570  178.6730  136.4820 C   0  0  0  0  0  2  0  0  0  0  0  0
  187.9500  176.8620  138.3220 C   0  0  0  0  0  2  0  0  0  0  0  0
  188.8350  178.3820  140.1760 N   0  0  0  0  0  2  0  0  0  0  0  0
  188.7480  176.1990  137.1820 C   0  0  1  0  0  3  0  0  0  0  0  0
  189.3300  177.2210  136.1700 C   0  0  0  0  0  2  0  0  0  0  0  0
  189.2370  176.8980  142.0290 C   0  0  0  0  0  2  0  0  0  0  0  0
  188.6460  178.1870  142.5720 C   0  0  1  0  0  3  0  0  0  0  0  0
  188.1830  177.6310  141.2360 C   0  0  1  0  0  3  0  0  0  0  0  0
  187.6880  177.8940  143.6420 N   0  0  0  0  0  0  0  0  0  0  0  0
  188.1280  177.7170  145.0030 C   0  0  0  0  0  0  0  0  0  0  0  0
  189.9120  177.3770  146.5430 C   0  0  0  0  0  3  0  0  0  0  0  0
  187.6580  177.5240  147.3690 C   0  0  0  0  0  3  0  0  0  0  0  0
  189.0200  177.3680  147.6150 C   0  0  0  0  0  3  0  0  0  0  0  0
  187.2070  177.7000  146.0600 C   0  0  0  0  0  3  0  0  0  0  0  0
  189.4520  177.5450  145.2740 N   0  0  0  0  0  0  0  0  0  0  0  0
  186.0970  177.2630  143.1620 S   0  0  0  0  0  0  0  0  0  0  0  0
  185.3360  178.9120  143.0480 C   0  0  0  0  0  0  0  0  0  0  0  0
  184.9190  179.5740  144.3370 C   0  0  0  0  0  2  0  0  0  0  0  0
  185.7030  179.7720  142.0160 O   0  0  0  0  0  1  0  0  0  0  0  0
  183.8730  178.9810  143.4010 C   0  0  0  0  0  2  0  0  0  0  0  0
  189.8550  175.3130  137.7700 C   0  0  2  0  0  3  0  0  0  0  0  0
  193.7710  176.4200  136.3640 C   0  0  0  0  0  0  0  0  0  0  0  0
  192.0980  176.4070  138.1280 C   0  0  0  0  0  0  0  0  0  0  0  0
  192.9000  175.7250  135.5250 C   0  0  0  0  0  3  0  0  0  0  0  0
  195.0400  176.7650  135.9160 O   0  0  0  0  0  1  0  0  0  0  0  0
  191.2270  175.6950  137.2830 C   0  0  0  0  0  0  0  0  0  0  0  0
  193.3720  176.7630  137.6570 C   0  0  0  0  0  3  0  0  0  0  0  0
  191.6300  175.3650  135.9800 C   0  0  0  0  0  3  0  0  0  0  0  0
  192.4950  177.4840  140.3230 C   0  0  0  0  0  1  0  0  0  0  0  0
  191.6810  176.7490  139.4210 O   0  0  0  0  0  0  0  0  0  0  0  0
  189.6030  173.9680  137.4810 O   0  0  0  0  0  0  0  0  0  0  0  0
  188.4410  173.9780  136.7030 C   0  0  0  0  0  2  0  0  0  0  0  0
  188.0710  172.5570  136.3140 C   0  0  0  0  0  2  0  0  0  0  0  0
  184.5390  172.7660  137.6730 C   0  0  0  0  0  3  0  0  0  0  0  0
  183.8610  171.8670  136.8340 C   0  0  0  0  0  0  0  0  0  0  0  0
  185.9370  171.4180  135.6640 C   0  0  0  0  0  3  0  0  0  0  0  0
  185.9100  172.9910  137.5030 C   0  0  0  0  0  3  0  0  0  0  0  0
  186.6090  172.3200  136.4930 C   0  0  0  0  0  0  0  0  0  0  0  0
  184.5690  171.1960  135.8330 C   0  0  0  0  0  3  0  0  0  0  0  0
  181.6200  171.4170  135.9340 C   0  0  0  0  0  2  0  0  0  0  0  0
  182.4200  171.6120  136.9740 C   0  0  0  0  0  3  0  0  0  0  0  0
  1  2  2  0  0  0  0
  2  5  1  0  0  0  0
  3  1  1  0  0  0  0
  4  2  1  0  0  0  0
  6 23  1  1  0  0  0
  6  4  1  0  0  0  0
  7  3  1  0  0  0  0
  7  6  1  0  0  0  0
  8  9  1  0  0  0  0
  9 11  1  1  0  0  0
 10  5  1  6  0  0  0
 10  8  1  0  0  0  0
 10  9  1  0  0  0  0
 11 12  1  0  0  0  0
 12 17  2  0  0  0  0
 12 16  1  0  0  0  0
 13 15  2  0  0  0  0
 14 15  1  0  0  0  0
 16 14  2  0  0  0  0
 17 13  1  0  0  0  0
 18 11  1  0  0  0  0
 19 18  1  0  0  0  0
 19 22  1  0  0  0  0
 19 20  1  0  0  0  0
 21 19  1  0  0  0  0
 22 20  1  0  0  0  0
 23 33  1  6  0  0  0
 24 29  1  0  0  0  0
 25 32  1  0  0  0  0
 26 30  1  0  0  0  0
 26 24  2  0  0  0  0
 27 24  1  0  0  0  0
 28 23  1  0  0  0  0
 28 25  1  0  0  0  0
 29 25  2  0  0  0  0
 30 28  2  0  0  0  0
 32 31  1  0  0  0  0
 34 33  1  0  0  0  0
 35 40  1  0  0  0  0
 35 34  1  0  0  0  0
 37 43  1  0  0  0  0
 37 36  2  0  0  0  0
 38 41  2  0  0  0  0
 38 40  1  0  0  0  0
 39 36  1  0  0  0  0
 40 39  2  0  0  0  0
 41 37  1  0  0  0  0
 42 43  2  0  0  0  0
M  END
>  <MODEL>
2

>  <REMARK>
 VINA RESULT:      -7.4      3.104      6.096
  Name = 
  13 active torsions:
  status: ('A' for Active; 'I' for Inactive)
    1  A    between atoms: C_1  and  C_8
    2  A    between atoms: C_1  and  C_35
    3  A    between atoms: C_4  and  N_14
    4  A    between atoms: C_8  and  O_34
    5  A    between atoms: C_10  and  S_41
    6  A    between atoms: C_11  and  N_14
    7  A    between atoms: C_12  and  N_17
    8  A    between atoms: N_14  and  S_41
    9  A    between atoms: C_16  and  O_43
   10  A    between atoms: C_19  and  C_37
   11  A    between atoms: C_21  and  C_30
   12  A    between atoms: C_27  and  C_30
   13  A    between atoms: C_30  and  O_34
                            x       y       z     vdW  Elec       q    Type
                         _______ _______ _______ _____ _____    ______ ____

>  <TORSDO>
F 13

$$$$
=
 OpenBabel10262422153D

 43 48  0  0  1  0  0  0  0  0999 V2000
  191.2360  177.8200  139.5660 N   0  0  0  0  0  0  0  0  0  0  0  0
  190.0020  177.4730  139.3760 C   0  0  0  0  0  0  0  0  0  0  0  0
  192.0290  177.1910  140.6180 C   0  0  0  0  0  2  0  0  0  0  0  0
  189.3820  176.4420  140.2780 C   0  0  0  0  0  2  0  0  0  0  0  0
  189.2460  178.1130  138.3490 N   0  0  0  0  0  2  0  0  0  0  0  0
  189.7580  176.7230  141.7470 C   0  0  1  0  0  3  0  0  0  0  0  0
  191.2330  177.1660  141.9260 C   0  0  0  0  0  2  0  0  0  0  0  0
  187.4120  178.6130  136.8710 C   0  0  0  0  0  2  0  0  0  0  0  0
  187.9930  177.2690  136.4690 C   0  0  1  0  0  3  0  0  0  0  0  0
  187.9250  177.6710  137.9330 C   0  0  1  0  0  3  0  0  0  0  0  0
  186.9200  176.3370  136.1120 N   0  0  0  0  0  0  0  0  0  0  0  0
  187.1370  174.9130  136.1300 C   0  0  0  0  0  0  0  0  0  0  0  0
  188.0320  172.9720  135.0810 C   0  0  0  0  0  3  0  0  0  0  0  0
  186.8750  172.7470  137.1780 C   0  0  0  0  0  3  0  0  0  0  0  0
  187.5750  172.1650  136.1230 C   0  0  0  0  0  3  0  0  0  0  0  0
  186.6550  174.1250  137.1850 C   0  0  0  0  0  3  0  0  0  0  0  0
  187.8020  174.3130  135.1050 N   0  0  0  0  0  0  0  0  0  0  0  0
  185.5530  176.9880  135.1800 S   0  0  0  0  0  0  0  0  0  0  0  0
  184.3160  176.5300  136.4330 C   0  0  0  0  0  0  0  0  0  0  0  0
  183.4150  177.6240  136.9510 C   0  0  0  0  0  2  0  0  0  0  0  0
  183.7720  175.2490  136.4310 O   0  0  0  0  0  1  0  0  0  0  0  0
  184.5490  177.0850  137.8150 C   0  0  0  0  0  2  0  0  0  0  0  0
  188.7940  177.7610  142.3390 C   0  0  2  0  0  3  0  0  0  0  0  0
  188.4510  177.4380  146.6180 C   0  0  0  0  0  0  0  0  0  0  0  0
  189.5810  178.3380  144.6630 C   0  0  0  0  0  0  0  0  0  0  0  0
  187.5590  176.7520  145.7940 C   0  0  0  0  0  3  0  0  0  0  0  0
  188.3320  177.3450  147.9990 O   0  0  0  0  0  1  0  0  0  0  0  0
  188.6720  177.6550  143.8350 C   0  0  0  0  0  0  0  0  0  0  0  0
  189.4590  178.2230  146.0570 C   0  0  0  0  0  3  0  0  0  0  0  0
  187.6690  176.8560  144.4060 C   0  0  0  0  0  3  0  0  0  0  0  0
  191.9690  178.9220  144.3610 C   0  0  0  0  0  1  0  0  0  0  0  0
  190.5900  179.1190  144.0850 O   0  0  0  0  0  0  0  0  0  0  0  0
  187.5320  177.6420  141.7470 O   0  0  0  0  0  0  0  0  0  0  0  0
  187.0270  178.9440  141.7060 C   0  0  0  0  0  2  0  0  0  0  0  0
  185.7500  178.9750  140.8840 C   0  0  0  0  0  2  0  0  0  0  0  0
  183.5580  179.2130  143.9660 C   0  0  0  0  0  3  0  0  0  0  0  0
  182.2880  178.9460  143.4300 C   0  0  0  0  0  0  0  0  0  0  0  0
  183.2860  178.6940  141.2350 C   0  0  0  0  0  3  0  0  0  0  0  0
  184.6850  179.2230  143.1380 C   0  0  0  0  0  3  0  0  0  0  0  0
  184.5480  178.9680  141.7680 C   0  0  0  0  0  0  0  0  0  0  0  0
  182.1610  178.6860  142.0630 C   0  0  0  0  0  3  0  0  0  0  0  0
  180.0310  178.1660  144.0100 C   0  0  0  0  0  2  0  0  0  0  0  0
  181.0790  178.9380  144.2670 C   0  0  0  0  0  3  0  0  0  0  0  0
  1  3  1  0  0  0  0
  2  1  2  0  0  0  0
  2  4  1  0  0  0  0
  3  7  1  0  0  0  0
  4  6  1  0  0  0  0
  5  2  1  0  0  0  0
  6  7  1  0  0  0  0
  6 23  1  6  0  0  0
  8 10  1  0  0  0  0
  9 11  1  1  0  0  0
  9  8  1  0  0  0  0
  9 10  1  0  0  0  0
 10  5  1  6  0  0  0
 11 12  1  0  0  0  0
 12 16  1  0  0  0  0
 13 17  1  0  0  0  0
 13 15  2  0  0  0  0
 14 16  2  0  0  0  0
 15 14  1  0  0  0  0
 17 12  2  0  0  0  0
 18 11  1  0  0  0  0
 18 19  1  0  0  0  0
 19 20  1  0  0  0  0
 19 22  1  0  0  0  0
 20 22  1  0  0  0  0
 21 19  1  0  0  0  0
 23 33  1  6  0  0  0
 23 28  1  0  0  0  0
 24 27  1  0  0  0  0
 25 29  2  0  0  0  0
 26 24  2  0  0  0  0
 28 30  2  0  0  0  0
 28 25  1  0  0  0  0
 29 24  1  0  0  0  0
 30 26  1  0  0  0  0
 32 31  1  0  0  0  0
 32 25  1  0  0  0  0
 34 33  1  0  0  0  0
 35 34  1  0  0  0  0
 35 40  1  0  0  0  0
 37 36  1  0  0  0  0
 37 43  1  0  0  0  0
 38 40  2  0  0  0  0
 38 41  1  0  0  0  0
 39 36  2  0  0  0  0
 40 39  1  0  0  0  0
 41 37  2  0  0  0  0
 42 43  2  0  0  0  0
M  END
>  <MODEL>
3

>  <REMARK>
 VINA RESULT:      -7.3      3.209      7.219
  Name = 
  13 active torsions:
  status: ('A' for Active; 'I' for Inactive)
    1  A    between atoms: C_1  and  C_8
    2  A    between atoms: C_1  and  C_35
    3  A    between atoms: C_4  and  N_14
    4  A    between atoms: C_8  and  O_34
    5  A    between atoms: C_10  and  S_41
    6  A    between atoms: C_11  and  N_14
    7  A    between atoms: C_12  and  N_17
    8  A    between atoms: N_14  and  S_41
    9  A    between atoms: C_16  and  O_43
   10  A    between atoms: C_19  and  C_37
   11  A    between atoms: C_21  and  C_30
   12  A    between atoms: C_27  and  C_30
   13  A    between atoms: C_30  and  O_34
                            x       y       z     vdW  Elec       q    Type
                         _______ _______ _______ _____ _____    ______ ____

>  <TORSDO>
F 13

$$$$
=
 OpenBabel10262422153D

 43 48  0  0  1  0  0  0  0  0999 V2000
  183.5800  180.1630  139.1830 N   0  0  0  0  0  0  0  0  0  0  0  0
  184.2180  179.1350  139.6490 C   0  0  0  0  0  0  0  0  0  0  0  0
  182.2070  180.0280  138.7040 C   0  0  0  0  0  2  0  0  0  0  0  0
  183.5430  177.7920  139.6530 C   0  0  0  0  0  2  0  0  0  0  0  0
  185.5630  179.2930  140.0980 N   0  0  0  0  0  2  0  0  0  0  0  0
  182.8210  177.5530  138.3120 C   0  0  1  0  0  3  0  0  0  0  0  0
  182.0970  178.8150  137.7760 C   0  0  0  0  0  2  0  0  0  0  0  0
  187.7630  178.3810  140.4600 C   0  0  0  0  0  2  0  0  0  0  0  0
  187.2510  178.9270  141.7810 C   0  0  1  0  0  3  0  0  0  0  0  0
  186.2990  178.2580  140.8050 C   0  0  1  0  0  3  0  0  0  0  0  0
  187.6230  178.0300  142.8780 N   0  0  0  0  0  0  0  0  0  0  0  0
  188.9730  177.5450  143.0150 C   0  0  0  0  0  0  0  0  0  0  0  0
  191.2870  178.0110  143.3270 C   0  0  0  0  0  3  0  0  0  0  0  0
  190.5690  175.7280  143.0820 C   0  0  0  0  0  3  0  0  0  0  0  0
  191.5940  176.6510  143.2790 C   0  0  0  0  0  3  0  0  0  0  0  0
  189.2540  176.1730  142.9500 C   0  0  0  0  0  3  0  0  0  0  0  0
  189.9980  178.4240  143.1910 N   0  0  0  0  0  0  0  0  0  0  0  0
  186.3080  177.1630  143.7020 S   0  0  0  0  0  0  0  0  0  0  0  0
  186.4910  178.0970  145.2530 C   0  0  0  0  0  0  0  0  0  0  0  0
  185.3260  178.0860  146.2110 C   0  0  0  0  0  2  0  0  0  0  0  0
  187.7500  178.2350  145.8320 O   0  0  0  0  0  1  0  0  0  0  0  0
  185.6300  179.3270  145.3790 C   0  0  0  0  0  2  0  0  0  0  0  0
  183.8140  177.0050  137.2790 C   0  0  2  0  0  3  0  0  0  0  0  0
  183.0660  172.8780  136.3040 C   0  0  0  0  0  0  0  0  0  0  0  0
  182.6210  175.2390  135.9320 C   0  0  0  0  0  0  0  0  0  0  0  0
  183.9830  173.2030  137.3040 C   0  0  0  0  0  3  0  0  0  0  0  0
  182.8330  171.5470  135.9800 O   0  0  0  0  0  1  0  0  0  0  0  0
  183.5560  175.5630  136.9320 C   0  0  0  0  0  0  0  0  0  0  0  0
  182.3850  173.8900  135.6240 C   0  0  0  0  0  3  0  0  0  0  0  0
  184.2260  174.5410  137.6210 C   0  0  0  0  0  3  0  0  0  0  0  0
  180.5260  176.3600  135.2330 C   0  0  0  0  0  1  0  0  0  0  0  0
  181.9420  176.2650  135.2620 O   0  0  0  0  0  0  0  0  0  0  0  0
  185.1250  177.1570  137.7400 O   0  0  0  0  0  0  0  0  0  0  0  0
  185.7980  177.8160  136.7070 C   0  0  0  0  0  2  0  0  0  0  0  0
  186.6560  176.8240  135.9390 C   0  0  0  0  0  2  0  0  0  0  0  0
  189.9990  177.5900  137.5510 C   0  0  0  0  0  3  0  0  0  0  0  0
  190.4760  176.3010  137.8380 C   0  0  0  0  0  0  0  0  0  0  0  0
  188.4580  175.3600  136.8770 C   0  0  0  0  0  3  0  0  0  0  0  0
  188.7550  177.7610  136.9340 C   0  0  0  0  0  3  0  0  0  0  0  0
  187.9810  176.6430  136.6010 C   0  0  0  0  0  0  0  0  0  0  0  0
  189.7000  175.1910  137.4950 C   0  0  0  0  0  3  0  0  0  0  0  0
  192.9220  176.4870  137.9720 C   0  0  0  0  0  2  0  0  0  0  0  0
  191.7730  176.0820  138.4950 C   0  0  0  0  0  3  0  0  0  0  0  0
  1  2  2  0  0  0  0
  2  4  1  0  0  0  0
  2  5  1  0  0  0  0
  3  1  1  0  0  0  0
  6 23  1  6  0  0  0
  6  4  1  0  0  0  0
  7  6  1  0  0  0  0
  7  3  1  0  0  0  0
  8 10  1  0  0  0  0
  8  9  1  0  0  0  0
  9 11  1  1  0  0  0
 10  5  1  6  0  0  0
 10  9  1  0  0  0  0
 11 12  1  0  0  0  0
 11 18  1  0  0  0  0
 12 17  1  0  0  0  0
 14 15  2  0  0  0  0
 15 13  1  0  0  0  0
 16 12  2  0  0  0  0
 16 14  1  0  0  0  0
 17 13  2  0  0  0  0
 18 19  1  0  0  0  0
 19 22  1  0  0  0  0
 19 21  1  0  0  0  0
 19 20  1  0  0  0  0
 22 20  1  0  0  0  0
 23 33  1  1  0  0  0
 24 26  1  0  0  0  0
 25 28  2  0  0  0  0
 26 30  2  0  0  0  0
 27 24  1  0  0  0  0
 28 23  1  0  0  0  0
 28 30  1  0  0  0  0
 29 25  1  0  0  0  0
 29 24  2  0  0  0  0
 31 32  1  0  0  0  0
 32 25  1  0  0  0  0
 34 33  1  0  0  0  0
 35 40  1  0  0  0  0
 35 34  1  0  0  0  0
 36 37  1  0  0  0  0
 37 43  1  0  0  0  0
 38 41  1  0  0  0  0
 39 36  2  0  0  0  0
 40 38  2  0  0  0  0
 40 39  1  0  0  0  0
 41 37  2  0  0  0  0
 42 43  2  0  0  0  0
M  END
>  <MODEL>
4

>  <REMARK>
 VINA RESULT:      -7.0      3.142      7.300
  Name = 
  13 active torsions:
  status: ('A' for Active; 'I' for Inactive)
    1  A    between atoms: C_1  and  C_8
    2  A    between atoms: C_1  and  C_35
    3  A    between atoms: C_4  and  N_14
    4  A    between atoms: C_8  and  O_34
    5  A    between atoms: C_10  and  S_41
    6  A    between atoms: C_11  and  N_14
    7  A    between atoms: C_12  and  N_17
    8  A    between atoms: N_14  and  S_41
    9  A    between atoms: C_16  and  O_43
   10  A    between atoms: C_19  and  C_37
   11  A    between atoms: C_21  and  C_30
   12  A    between atoms: C_27  and  C_30
   13  A    between atoms: C_30  and  O_34
                            x       y       z     vdW  Elec       q    Type
                         _______ _______ _______ _____ _____    ______ ____

>  <TORSDO>
F 13

$$$$
=
 OpenBabel10262422153D

 43 48  0  0  1  0  0  0  0  0999 V2000
  183.6980  180.4250  139.1200 N   0  0  0  0  0  0  0  0  0  0  0  0
  184.2280  179.3570  139.6290 C   0  0  0  0  0  0  0  0  0  0  0  0
  182.2820  180.4550  138.7690 C   0  0  0  0  0  2  0  0  0  0  0  0
  183.3750  178.1330  139.8160 C   0  0  0  0  0  2  0  0  0  0  0  0
  185.6170  179.3520  139.9510 N   0  0  0  0  0  2  0  0  0  0  0  0
  182.5050  177.8930  138.5660 C   0  0  1  0  0  3  0  0  0  0  0  0
  181.9170  179.1990  137.9720 C   0  0  0  0  0  2  0  0  0  0  0  0
  187.7300  178.2600  140.3340 C   0  0  0  0  0  2  0  0  0  0  0  0
  187.2820  178.8980  141.6370 C   0  0  1  0  0  3  0  0  0  0  0  0
  186.2640  178.2820  140.6930 C   0  0  1  0  0  3  0  0  0  0  0  0
  187.5820  178.0130  142.7650 N   0  0  0  0  0  0  0  0  0  0  0  0
  188.9160  177.5130  142.9810 C   0  0  0  0  0  0  0  0  0  0  0  0
  190.4140  175.6630  143.0630 C   0  0  0  0  0  3  0  0  0  0  0  0
  191.2450  177.8710  143.5310 C   0  0  0  0  0  3  0  0  0  0  0  0
  191.4770  176.5040  143.3940 C   0  0  0  0  0  3  0  0  0  0  0  0
  189.9630  178.3800  143.3250 C   0  0  0  0  0  3  0  0  0  0  0  0
  189.1700  176.1790  142.8700 N   0  0  0  0  0  0  0  0  0  0  0  0
  186.2140  177.1740  143.5290 S   0  0  0  0  0  0  0  0  0  0  0  0
  186.0560  178.3880  144.8750 C   0  0  0  0  0  0  0  0  0  0  0  0
  187.0540  178.3060  146.0040 C   0  0  0  0  0  2  0  0  0  0  0  0
  185.5510  179.6570  144.6050 O   0  0  0  0  0  1  0  0  0  0  0  0
  185.6190  177.8340  146.2060 C   0  0  0  0  0  2  0  0  0  0  0  0
  183.3110  177.1200  137.5130 C   0  0  2  0  0  3  0  0  0  0  0  0
  181.0520  173.9130  135.7380 C   0  0  0  0  0  0  0  0  0  0  0  0
  182.0870  176.1060  135.5570 C   0  0  0  0  0  0  0  0  0  0  0  0
  181.4800  173.8150  137.0620 C   0  0  0  0  0  3  0  0  0  0  0  0
  180.3350  172.8740  135.1600 O   0  0  0  0  0  1  0  0  0  0  0  0
  182.5270  175.9980  136.8890 C   0  0  0  0  0  0  0  0  0  0  0  0
  181.3500  175.0540  134.9900 C   0  0  0  0  0  3  0  0  0  0  0  0
  182.2120  174.8540  137.6390 C   0  0  0  0  0  3  0  0  0  0  0  0
  181.4500  178.2990  134.5980 C   0  0  0  0  0  1  0  0  0  0  0  0
  182.3900  177.2590  134.8200 O   0  0  0  0  0  0  0  0  0  0  0  0
  184.4910  176.6230  138.0770 O   0  0  0  0  0  0  0  0  0  0  0  0
  185.5020  177.0000  137.1890 C   0  0  0  0  0  2  0  0  0  0  0  0
  186.5160  175.8760  137.0580 C   0  0  0  0  0  2  0  0  0  0  0  0
  184.8230  173.2300  134.9370 C   0  0  0  0  0  3  0  0  0  0  0  0
  184.5910  172.2180  135.8820 C   0  0  0  0  0  0  0  0  0  0  0  0
  185.6120  173.6020  137.5920 C   0  0  0  0  0  3  0  0  0  0  0  0
  185.4500  174.4210  135.3200 C   0  0  0  0  0  3  0  0  0  0  0  0
  185.8510  174.6050  136.6490 C   0  0  0  0  0  0  0  0  0  0  0  0
  184.9870  172.4130  137.2080 C   0  0  0  0  0  3  0  0  0  0  0  0
  182.9490  170.8740  134.6450 C   0  0  0  0  0  2  0  0  0  0  0  0
  183.9450  170.9490  135.5160 C   0  0  0  0  0  3  0  0  0  0  0  0
  1  2  2  0  0  0  0
  2  4  1  0  0  0  0
  2  5  1  0  0  0  0
  3  1  1  0  0  0  0
  6 23  1  6  0  0  0
  6  4  1  0  0  0  0
  7  6  1  0  0  0  0
  7  3  1  0  0  0  0
  8 10  1  0  0  0  0
  8  9  1  0  0  0  0
  9 11  1  1  0  0  0
 10  5  1  6  0  0  0
 10  9  1  0  0  0  0
 11 12  1  0  0  0  0
 11 18  1  0  0  0  0
 12 16  1  0  0  0  0
 13 15  2  0  0  0  0
 15 14  1  0  0  0  0
 16 14  2  0  0  0  0
 17 12  2  0  0  0  0
 17 13  1  0  0  0  0
 18 19  1  0  0  0  0
 19 20  1  0  0  0  0
 19 22  1  0  0  0  0
 20 22  1  0  0  0  0
 21 19  1  0  0  0  0
 23 33  1  1  0  0  0
 24 26  1  0  0  0  0
 25 28  2  0  0  0  0
 26 30  2  0  0  0  0
 27 24  1  0  0  0  0
 28 23  1  0  0  0  0
 28 30  1  0  0  0  0
 29 25  1  0  0  0  0
 29 24  2  0  0  0  0
 31 32  1  0  0  0  0
 32 25  1  0  0  0  0
 34 33  1  0  0  0  0
 35 34  1  0  0  0  0
 36 39  2  0  0  0  0
 36 37  1  0  0  0  0
 37 41  2  0  0  0  0
 39 40  1  0  0  0  0
 40 35  1  0  0  0  0
 40 38  2  0  0  0  0
 41 38  1  0  0  0  0
 42 43  2  0  0  0  0
 43 37  1  0  0  0  0
M  END
>  <MODEL>
5

>  <REMARK>
 VINA RESULT:      -6.9      3.644      8.388
  Name = 
  13 active torsions:
  status: ('A' for Active; 'I' for Inactive)
    1  A    between atoms: C_1  and  C_8
    2  A    between atoms: C_1  and  C_35
    3  A    between atoms: C_4  and  N_14
    4  A    between atoms: C_8  and  O_34
    5  A    between atoms: C_10  and  S_41
    6  A    between atoms: C_11  and  N_14
    7  A    between atoms: C_12  and  N_17
    8  A    between atoms: N_14  and  S_41
    9  A    between atoms: C_16  and  O_43
   10  A    between atoms: C_19  and  C_37
   11  A    between atoms: C_21  and  C_30
   12  A    between atoms: C_27  and  C_30
   13  A    between atoms: C_30  and  O_34
                            x       y       z     vdW  Elec       q    Type
                         _______ _______ _______ _____ _____    ______ ____

>  <TORSDO>
F 13

$$$$
=
 OpenBabel10262422153D

 43 48  0  0  1  0  0  0  0  0999 V2000
  191.2820  175.9920  137.2180 N   0  0  0  0  0  0  0  0  0  0  0  0
  190.7780  176.7290  138.1580 C   0  0  0  0  0  0  0  0  0  0  0  0
  191.0300  176.3050  135.8150 C   0  0  0  0  0  2  0  0  0  0  0  0
  189.8960  177.8880  137.7860 C   0  0  0  0  0  2  0  0  0  0  0  0
  191.0300  176.3930  139.5210 N   0  0  0  0  0  2  0  0  0  0  0  0
  188.9000  177.4710  136.6860 C   0  0  1  0  0  3  0  0  0  0  0  0
  189.5360  176.5650  135.6000 C   0  0  0  0  0  2  0  0  0  0  0  0
  189.1930  177.1150  140.9010 C   0  0  0  0  0  2  0  0  0  0  0  0
  190.1870  176.3780  141.7810 C   0  0  1  0  0  3  0  0  0  0  0  0
  190.6730  177.2520  140.6370 C   0  0  1  0  0  3  0  0  0  0  0  0
  190.3180  177.0530  143.0750 N   0  0  0  0  0  0  0  0  0  0  0  0
  191.0340  176.4370  144.1630 C   0  0  0  0  0  0  0  0  0  0  0  0
  192.3400  174.6200  144.9770 C   0  0  0  0  0  3  0  0  0  0  0  0
  191.7880  176.4300  146.4630 C   0  0  0  0  0  3  0  0  0  0  0  0
  192.4240  175.2110  146.2390 C   0  0  0  0  0  3  0  0  0  0  0  0
  191.0910  177.0470  145.4230 C   0  0  0  0  0  3  0  0  0  0  0  0
  191.6520  175.2370  143.9790 N   0  0  0  0  0  0  0  0  0  0  0  0
  189.1710  178.3620  143.4300 S   0  0  0  0  0  0  0  0  0  0  0  0
  187.9660  177.2610  144.2340 C   0  0  0  0  0  0  0  0  0  0  0  0
  186.9160  177.9010  145.1080 C   0  0  0  0  0  2  0  0  0  0  0  0
  187.5920  176.0740  143.6100 O   0  0  0  0  0  1  0  0  0  0  0  0
  188.0840  177.1460  145.7320 C   0  0  0  0  0  2  0  0  0  0  0  0
  187.6770  176.7960  137.3220 C   0  0  2  0  0  3  0  0  0  0  0  0
  186.6970  173.0220  135.4960 C   0  0  0  0  0  0  0  0  0  0  0  0
  186.5600  175.4500  135.5070 C   0  0  0  0  0  0  0  0  0  0  0  0
  187.4590  173.0550  136.6640 C   0  0  0  0  0  3  0  0  0  0  0  0
  186.3920  171.8060  134.8980 O   0  0  0  0  0  1  0  0  0  0  0  0
  187.3390  175.4790  136.6780 C   0  0  0  0  0  0  0  0  0  0  0  0
  186.2470  174.2120  134.9220 C   0  0  0  0  0  3  0  0  0  0  0  0
  187.7770  174.2780  137.2570 C   0  0  0  0  0  3  0  0  0  0  0  0
  184.7450  176.8990  134.6470 C   0  0  0  0  0  1  0  0  0  0  0  0
  186.1110  176.6520  134.9450 O   0  0  0  0  0  0  0  0  0  0  0  0
  186.5710  177.6510  137.2690 O   0  0  0  0  0  0  0  0  0  0  0  0
  186.2830  177.9520  138.6030 C   0  0  0  0  0  2  0  0  0  0  0  0
  184.9790  178.7290  138.6840 C   0  0  0  0  0  2  0  0  0  0  0  0
  184.9220  179.2110  142.4430 C   0  0  0  0  0  3  0  0  0  0  0  0
  183.5770  178.9400  142.7410 C   0  0  0  0  0  0  0  0  0  0  0  0
  183.1560  178.5260  140.3890 C   0  0  0  0  0  3  0  0  0  0  0  0
  185.3790  179.1430  141.1220 C   0  0  0  0  0  3  0  0  0  0  0  0
  184.4920  178.8050  140.0920 C   0  0  0  0  0  0  0  0  0  0  0  0
  182.7010  178.5960  141.7080 C   0  0  0  0  0  3  0  0  0  0  0  0
  183.7630  178.6310  145.1710 C   0  0  0  0  0  2  0  0  0  0  0  0
  183.0580  179.0110  144.1150 C   0  0  0  0  0  3  0  0  0  0  0  0
  1  2  2  0  0  0  0
  2  5  1  0  0  0  0
  3  1  1  0  0  0  0
  4  2  1  0  0  0  0
  6 23  1  1  0  0  0
  6  4  1  0  0  0  0
  7  3  1  0  0  0  0
  7  6  1  0  0  0  0
  8  9  1  0  0  0  0
  9 11  1  1  0  0  0
 10  5  1  6  0  0  0
 10  8  1  0  0  0  0
 10  9  1  0  0  0  0
 11 18  1  0  0  0  0
 11 12  1  0  0  0  0
 12 16  1  0  0  0  0
 13 15  2  0  0  0  0
 15 14  1  0  0  0  0
 16 14  2  0  0  0  0
 17 12  2  0  0  0  0
 17 13  1  0  0  0  0
 18 19  1  0  0  0  0
 19 20  1  0  0  0  0
 19 22  1  0  0  0  0
 20 22  1  0  0  0  0
 21 19  1  0  0  0  0
 23 33  1  6  0  0  0
 24 26  1  0  0  0  0
 25 28  2  0  0  0  0
 26 30  2  0  0  0  0
 27 24  1  0  0  0  0
 28 30  1  0  0  0  0
 28 23  1  0  0  0  0
 29 24  2  0  0  0  0
 29 25  1  0  0  0  0
 31 32  1  0  0  0  0
 32 25  1  0  0  0  0
 33 34  1  0  0  0  0
 34 35  1  0  0  0  0
 35 40  1  0  0  0  0
 36 37  1  0  0  0  0
 37 43  1  0  0  0  0
 38 41  1  0  0  0  0
 39 36  2  0  0  0  0
 40 38  2  0  0  0  0
 40 39  1  0  0  0  0
 41 37  2  0  0  0  0
 43 42  2  0  0  0  0
M  END
>  <MODEL>
6

>  <REMARK>
 VINA RESULT:      -6.8      3.303      6.398
  Name = 
  13 active torsions:
  status: ('A' for Active; 'I' for Inactive)
    1  A    between atoms: C_1  and  C_8
    2  A    between atoms: C_1  and  C_35
    3  A    between atoms: C_4  and  N_14
    4  A    between atoms: C_8  and  O_34
    5  A    between atoms: C_10  and  S_41
    6  A    between atoms: C_11  and  N_14
    7  A    between atoms: C_12  and  N_17
    8  A    between atoms: N_14  and  S_41
    9  A    between atoms: C_16  and  O_43
   10  A    between atoms: C_19  and  C_37
   11  A    between atoms: C_21  and  C_30
   12  A    between atoms: C_27  and  C_30
   13  A    between atoms: C_30  and  O_34
                            x       y       z     vdW  Elec       q    Type
                         _______ _______ _______ _____ _____    ______ ____

>  <TORSDO>
F 13

$$$$
=
 OpenBabel10262422153D

 43 48  0  0  1  0  0  0  0  0999 V2000
  189.3930  179.0350  138.0890 N   0  0  0  0  0  0  0  0  0  0  0  0
  189.2030  178.0830  138.9480 C   0  0  0  0  0  0  0  0  0  0  0  0
  188.6440  179.0640  136.8370 C   0  0  0  0  0  2  0  0  0  0  0  0
  188.2300  176.9840  138.6210 C   0  0  0  0  0  2  0  0  0  0  0  0
  189.9580  178.0730  140.1580 N   0  0  0  0  0  2  0  0  0  0  0  0
  188.4240  176.5150  137.1660 C   0  0  1  0  0  3  0  0  0  0  0  0
  188.6790  177.6820  136.1770 C   0  0  0  0  0  2  0  0  0  0  0  0
  190.9780  176.9210  142.0110 C   0  0  0  0  0  2  0  0  0  0  0  0
  189.9580  177.9000  142.5640 C   0  0  1  0  0  3  0  0  0  0  0  0
  189.6910  177.1650  141.2610 C   0  0  1  0  0  3  0  0  0  0  0  0
  189.2320  177.2980  143.6860 N   0  0  0  0  0  0  0  0  0  0  0  0
  189.8850  177.0590  144.9480 C   0  0  0  0  0  0  0  0  0  0  0  0
  189.7910  177.0660  147.3280 C   0  0  0  0  0  3  0  0  0  0  0  0
  191.8250  176.3940  146.2330 C   0  0  0  0  0  3  0  0  0  0  0  0
  191.1080  176.6140  147.4070 C   0  0  0  0  0  3  0  0  0  0  0  0
  191.2140  176.6160  144.9980 C   0  0  0  0  0  3  0  0  0  0  0  0
  189.2160  177.2810  146.1130 N   0  0  0  0  0  0  0  0  0  0  0  0
  187.7360  176.4160  143.3090 S   0  0  0  0  0  0  0  0  0  0  0  0
  186.6710  177.8770  143.5210 C   0  0  0  0  0  0  0  0  0  0  0  0
  185.3480  177.8810  142.7970 C   0  0  0  0  0  2  0  0  0  0  0  0
  186.7100  178.5940  144.7140 O   0  0  0  0  0  1  0  0  0  0  0  0
  186.5020  178.7440  142.3000 C   0  0  0  0  0  2  0  0  0  0  0  0
  189.5540  175.4780  137.1010 C   0  0  2  0  0  3  0  0  0  0  0  0
  188.1890  171.6410  135.7040 C   0  0  0  0  0  0  0  0  0  0  0  0
  189.7420  173.5050  135.5440 C   0  0  0  0  0  0  0  0  0  0  0  0
  187.5300  172.2740  136.7580 C   0  0  0  0  0  3  0  0  0  0  0  0
  187.7580  170.3970  135.2620 O   0  0  0  0  0  1  0  0  0  0  0  0
  189.0830  174.1350  136.6150 C   0  0  0  0  0  0  0  0  0  0  0  0
  189.2870  172.2540  135.0970 C   0  0  0  0  0  3  0  0  0  0  0  0
  187.9720  173.5180  137.2120 C   0  0  0  0  0  3  0  0  0  0  0  0
  192.0480  173.4540  134.6420 C   0  0  0  0  0  1  0  0  0  0  0  0
  190.8390  174.1350  134.9410 O   0  0  0  0  0  0  0  0  0  0  0  0
  190.1620  175.3480  138.3530 O   0  0  0  0  0  0  0  0  0  0  0  0
  191.4830  174.9830  138.0770 C   0  0  0  0  0  2  0  0  0  0  0  0
  192.2470  176.1840  137.5440 C   0  0  0  0  0  2  0  0  0  0  0  0
  195.2070  175.9530  135.1890 C   0  0  0  0  0  3  0  0  0  0  0  0
  195.9880  174.9680  135.8140 C   0  0  0  0  0  0  0  0  0  0  0  0
  194.3190  174.7780  137.5630 C   0  0  0  0  0  3  0  0  0  0  0  0
  193.9890  176.3490  135.7520 C   0  0  0  0  0  3  0  0  0  0  0  0
  193.5470  175.7650  136.9450 C   0  0  0  0  0  0  0  0  0  0  0  0
  195.5350  174.3840  137.0010 C   0  0  0  0  0  3  0  0  0  0  0  0
  198.3880  175.2490  135.3710 C   0  0  0  0  0  2  0  0  0  0  0  0
  197.2780  174.5330  135.2590 C   0  0  0  0  0  3  0  0  0  0  0  0
  1  2  2  0  0  0  0
  2  5  1  0  0  0  0
  3  1  1  0  0  0  0
  4  2  1  0  0  0  0
  6 23  1  1  0  0  0
  6  4  1  0  0  0  0
  7  3  1  0  0  0  0
  7  6  1  0  0  0  0
  8  9  1  0  0  0  0
  9 11  1  1  0  0  0
 10  5  1  6  0  0  0
 10  8  1  0  0  0  0
 10  9  1  0  0  0  0
 11 12  1  0  0  0  0
 12 16  2  0  0  0  0
 12 17  1  0  0  0  0
 13 15  1  0  0  0  0
 14 15  2  0  0  0  0
 16 14  1  0  0  0  0
 17 13  2  0  0  0  0
 18 19  1  0  0  0  0
 18 11  1  0  0  0  0
 19 21  1  0  0  0  0
 20 19  1  0  0  0  0
 22 20  1  0  0  0  0
 22 19  1  0  0  0  0
 23 33  1  1  0  0  0
 24 26  1  0  0  0  0
 25 28  2  0  0  0  0
 26 30  2  0  0  0  0
 27 24  1  0  0  0  0
 28 23  1  0  0  0  0
 28 30  1  0  0  0  0
 29 25  1  0  0  0  0
 29 24  2  0  0  0  0
 31 32  1  0  0  0  0
 32 25  1  0  0  0  0
 34 33  1  0  0  0  0
 35 34  1  0  0  0  0
 36 39  2  0  0  0  0
 36 37  1  0  0  0  0
 37 41  2  0  0  0  0
 39 40  1  0  0  0  0
 40 35  1  0  0  0  0
 40 38  2  0  0  0  0
 41 38  1  0  0  0  0
 43 42  2  0  0  0  0
 43 37  1  0  0  0  0
M  END
>  <MODEL>
7

>  <REMARK>
 VINA RESULT:      -6.7      3.099      6.884
  Name = 
  13 active torsions:
  status: ('A' for Active; 'I' for Inactive)
    1  A    between atoms: C_1  and  C_8
    2  A    between atoms: C_1  and  C_35
    3  A    between atoms: C_4  and  N_14
    4  A    between atoms: C_8  and  O_34
    5  A    between atoms: C_10  and  S_41
    6  A    between atoms: C_11  and  N_14
    7  A    between atoms: C_12  and  N_17
    8  A    between atoms: N_14  and  S_41
    9  A    between atoms: C_16  and  O_43
   10  A    between atoms: C_19  and  C_37
   11  A    between atoms: C_21  and  C_30
   12  A    between atoms: C_27  and  C_30
   13  A    between atoms: C_30  and  O_34
                            x       y       z     vdW  Elec       q    Type
                         _______ _______ _______ _____ _____    ______ ____

>  <TORSDO>
F 13

$$$$
=
 OpenBabel10262422153D

 43 48  0  0  1  0  0  0  0  0999 V2000
  181.8960  178.2530  136.7450 N   0  0  0  0  0  0  0  0  0  0  0  0
  182.9970  177.6510  137.0700 C   0  0  0  0  0  0  0  0  0  0  0  0
  181.5790  179.5660  137.2970 C   0  0  0  0  0  2  0  0  0  0  0  0
  183.9270  178.3030  138.0550 C   0  0  0  0  0  2  0  0  0  0  0  0
  183.2750  176.3620  136.5260 N   0  0  0  0  0  2  0  0  0  0  0  0
  183.1290  178.8800  139.2410 C   0  0  1  0  0  3  0  0  0  0  0  0
  181.8050  179.5630  138.8120 C   0  0  0  0  0  2  0  0  0  0  0  0
  184.6750  174.6330  135.6030 C   0  0  0  0  0  2  0  0  0  0  0  0
  185.3900  175.9620  135.4360 C   0  0  1  0  0  3  0  0  0  0  0  0
  184.5550  175.6880  136.6750 C   0  0  1  0  0  3  0  0  0  0  0  0
  186.8220  175.8050  135.7010 N   0  0  0  0  0  0  0  0  0  0  0  0
  187.5320  176.7510  136.5250 C   0  0  0  0  0  0  0  0  0  0  0  0
  188.0960  177.5420  138.6990 C   0  0  0  0  0  3  0  0  0  0  0  0
  188.9790  178.6750  136.7700 C   0  0  0  0  0  3  0  0  0  0  0  0
  188.8810  178.5580  138.1550 C   0  0  0  0  0  3  0  0  0  0  0  0
  188.3030  177.7700  135.9500 C   0  0  0  0  0  3  0  0  0  0  0  0
  187.4420  176.6730  137.8820 N   0  0  0  0  0  0  0  0  0  0  0  0
  187.7460  174.7620  134.5970 S   0  0  0  0  0  0  0  0  0  0  0  0
  188.1480  173.5410  135.8840 C   0  0  0  0  0  0  0  0  0  0  0  0
  189.5840  173.0900  135.9870 C   0  0  0  0  0  2  0  0  0  0  0  0
  187.4210  173.5230  137.0710 O   0  0  0  0  0  1  0  0  0  0  0  0
  188.5270  172.1700  135.3860 C   0  0  0  0  0  2  0  0  0  0  0  0
  182.8710  177.7770  140.2780 C   0  0  2  0  0  3  0  0  0  0  0  0
  179.8970  178.9080  143.1790 C   0  0  0  0  0  0  0  0  0  0  0  0
  180.5290  177.6430  141.2010 C   0  0  0  0  0  0  0  0  0  0  0  0
  181.1870  179.4350  143.2600 C   0  0  0  0  0  3  0  0  0  0  0  0
  178.9410  179.2620  144.1220 O   0  0  0  0  0  1  0  0  0  0  0  0
  181.8320  178.1660  141.2940 C   0  0  0  0  0  0  0  0  0  0  0  0
  179.5680  178.0200  142.1530 C   0  0  0  0  0  3  0  0  0  0  0  0
  182.1510  179.0680  142.3210 C   0  0  0  0  0  3  0  0  0  0  0  0
  178.9590  176.0960  140.0700 C   0  0  0  0  0  1  0  0  0  0  0  0
  180.2130  176.7570  140.1630 O   0  0  0  0  0  0  0  0  0  0  0  0
  184.0630  177.4310  140.9210 O   0  0  0  0  0  0  0  0  0  0  0  0
  184.6510  178.6500  141.2740 C   0  0  0  0  0  2  0  0  0  0  0  0
  186.1220  178.4380  141.5890 C   0  0  0  0  0  2  0  0  0  0  0  0
  187.6760  177.3260  144.8620 C   0  0  0  0  0  3  0  0  0  0  0  0
  186.6970  177.7210  145.7870 C   0  0  0  0  0  0  0  0  0  0  0  0
  185.3440  178.5770  143.9650 C   0  0  0  0  0  3  0  0  0  0  0  0
  187.4890  177.5590  143.4950 C   0  0  0  0  0  3  0  0  0  0  0  0
  186.3230  178.1920  143.0460 C   0  0  0  0  0  0  0  0  0  0  0  0
  185.5330  178.3450  145.3300 C   0  0  0  0  0  3  0  0  0  0  0  0
  188.0190  177.6680  147.8570 C   0  0  0  0  0  2  0  0  0  0  0  0
  186.8620  177.5020  147.2320 C   0  0  0  0  0  3  0  0  0  0  0  0
  1  2  2  0  0  0  0
  1  3  1  0  0  0  0
  2  4  1  0  0  0  0
  3  7  1  0  0  0  0
  4  6  1  0  0  0  0
  5  2  1  0  0  0  0
  6 23  1  1  0  0  0
  7  6  1  0  0  0  0
  8 10  1  0  0  0  0
  9  8  1  0  0  0  0
  9 11  1  1  0  0  0
  9 10  1  0  0  0  0
 10  5  1  6  0  0  0
 11 12  1  0  0  0  0
 12 17  1  0  0  0  0
 14 15  2  0  0  0  0
 15 13  1  0  0  0  0
 16 12  2  0  0  0  0
 16 14  1  0  0  0  0
 17 13  2  0  0  0  0
 18 11  1  0  0  0  0
 18 19  1  0  0  0  0
 19 20  1  0  0  0  0
 19 21  1  0  0  0  0
 22 19  1  0  0  0  0
 22 20  1  0  0  0  0
 23 33  1  1  0  0  0
 23 28  1  0  0  0  0
 24 26  1  0  0  0  0
 24 27  1  0  0  0  0
 25 28  2  0  0  0  0
 25 29  1  0  0  0  0
 28 30  1  0  0  0  0
 29 24  2  0  0  0  0
 30 26  2  0  0  0  0
 31 32  1  0  0  0  0
 32 25  1  0  0  0  0
 33 34  1  0  0  0  0
 34 35  1  0  0  0  0
 35 40  1  0  0  0  0
 36 37  1  0  0  0  0
 37 43  1  0  0  0  0
 38 41  1  0  0  0  0
 39 36  2  0  0  0  0
 40 39  1  0  0  0  0
 40 38  2  0  0  0  0
 41 37  2  0  0  0  0
 43 42  2  0  0  0  0
M  END
>  <MODEL>
8

>  <REMARK>
 VINA RESULT:      -6.5      3.007      8.205
  Name = 
  13 active torsions:
  status: ('A' for Active; 'I' for Inactive)
    1  A    between atoms: C_1  and  C_8
    2  A    between atoms: C_1  and  C_35
    3  A    between atoms: C_4  and  N_14
    4  A    between atoms: C_8  and  O_34
    5  A    between atoms: C_10  and  S_41
    6  A    between atoms: C_11  and  N_14
    7  A    between atoms: C_12  and  N_17
    8  A    between atoms: N_14  and  S_41
    9  A    between atoms: C_16  and  O_43
   10  A    between atoms: C_19  and  C_37
   11  A    between atoms: C_21  and  C_30
   12  A    between atoms: C_27  and  C_30
   13  A    between atoms: C_30  and  O_34
                            x       y       z     vdW  Elec       q    Type
                         _______ _______ _______ _____ _____    ______ ____

>  <TORSDO>
F 13

$$$$
=
 OpenBabel10262422153D

 43 48  0  0  1  0  0  0  0  0999 V2000
  180.6830  175.2880  139.9450 N   0  0  0  0  0  0  0  0  0  0  0  0
  181.2710  175.7290  138.8770 C   0  0  0  0  0  0  0  0  0  0  0  0
  179.3240  175.7100  140.2710 C   0  0  0  0  0  2  0  0  0  0  0  0
  180.5510  176.7130  137.9980 C   0  0  0  0  0  2  0  0  0  0  0  0
  182.6040  175.3100  138.5900 N   0  0  0  0  0  2  0  0  0  0  0  0
  179.8680  177.7960  138.8560 C   0  0  1  0  0  3  0  0  0  0  0  0
  179.2050  177.2310  140.1380 C   0  0  0  0  0  2  0  0  0  0  0  0
  184.1710  176.7980  137.5250 C   0  0  0  0  0  2  0  0  0  0  0  0
  184.7740  175.4040  137.5400 C   0  0  1  0  0  3  0  0  0  0  0  0
  183.2800  175.5940  137.3350 C   0  0  1  0  0  3  0  0  0  0  0  0
  185.4650  175.1370  136.2770 N   0  0  0  0  0  0  0  0  0  0  0  0
  185.7580  173.7880  135.8620 C   0  0  0  0  0  0  0  0  0  0  0  0
  187.1200  172.2870  134.6130 C   0  0  0  0  0  3  0  0  0  0  0  0
  185.2650  171.4180  135.8750 C   0  0  0  0  0  3  0  0  0  0  0  0
  186.3550  171.1990  135.0350 C   0  0  0  0  0  3  0  0  0  0  0  0
  184.9640  172.7150  136.2920 C   0  0  0  0  0  3  0  0  0  0  0  0
  186.8060  173.5440  135.0280 N   0  0  0  0  0  0  0  0  0  0  0  0
  186.3730  176.4780  135.5450 S   0  0  0  0  0  0  0  0  0  0  0  0
  187.6600  176.4770  136.8300 C   0  0  0  0  0  0  0  0  0  0  0  0
  187.7170  177.6670  137.7560 C   0  0  0  0  0  2  0  0  0  0  0  0
  188.0980  175.2700  137.3700 O   0  0  0  0  0  1  0  0  0  0  0  0
  188.7580  177.4940  136.6560 C   0  0  0  0  0  2  0  0  0  0  0  0
  180.8780  178.9010  139.1970 C   0  0  2  0  0  3  0  0  0  0  0  0
  180.2780  182.4600  136.8480 C   0  0  0  0  0  0  0  0  0  0  0  0
  180.3250  181.3540  139.0130 C   0  0  0  0  0  0  0  0  0  0  0  0
  180.6110  181.2590  136.2220 C   0  0  0  0  0  3  0  0  0  0  0  0
  180.0980  183.6110  136.0930 O   0  0  0  0  0  1  0  0  0  0  0  0
  180.6740  180.1480  138.3790 C   0  0  0  0  0  0  0  0  0  0  0  0
  180.1320  182.5070  138.2360 C   0  0  0  0  0  3  0  0  0  0  0  0
  180.8060  180.1050  136.9820 C   0  0  0  0  0  3  0  0  0  0  0  0
  178.9310  181.1780  141.0530 C   0  0  0  0  0  1  0  0  0  0  0  0
  180.1770  181.3850  140.4060 O   0  0  0  0  0  0  0  0  0  0  0  0
  182.1840  178.4300  139.0330 O   0  0  0  0  0  0  0  0  0  0  0  0
  182.9050  178.9860  140.0930 C   0  0  0  0  0  2  0  0  0  0  0  0
  182.2930  178.5520  141.4140 C   0  0  0  0  0  2  0  0  0  0  0  0
  185.5780  178.2660  143.2830 C   0  0  0  0  0  3  0  0  0  0  0  0
  185.2050  178.6780  144.5730 C   0  0  0  0  0  0  0  0  0  0  0  0
  182.9310  179.0000  143.7940 C   0  0  0  0  0  3  0  0  0  0  0  0
  184.6300  178.2260  142.2540 C   0  0  0  0  0  3  0  0  0  0  0  0
  183.3050  178.5990  142.5090 C   0  0  0  0  0  0  0  0  0  0  0  0
  183.8790  179.0410  144.8200 C   0  0  0  0  0  3  0  0  0  0  0  0
  185.9800  178.1410  146.8410 C   0  0  0  0  0  2  0  0  0  0  0  0
  186.1740  178.7440  145.6760 C   0  0  0  0  0  3  0  0  0  0  0  0
  1  3  1  0  0  0  0
  2  1  2  0  0  0  0
  4  6  1  0  0  0  0
  4  2  1  0  0  0  0
  5  2  1  0  0  0  0
  6 23  1  1  0  0  0
  6  7  1  0  0  0  0
  7  3  1  0  0  0  0
  8  9  1  0  0  0  0
  9 11  1  6  0  0  0
 10  8  1  0  0  0  0
 10  9  1  0  0  0  0
 10  5  1  1  0  0  0
 12 11  1  0  0  0  0
 12 16  1  0  0  0  0
 13 17  1  0  0  0  0
 13 15  2  0  0  0  0
 14 16  2  0  0  0  0
 15 14  1  0  0  0  0
 17 12  2  0  0  0  0
 18 11  1  0  0  0  0
 18 19  1  0  0  0  0
 19 21  1  0  0  0  0
 19 20  1  0  0  0  0
 22 19  1  0  0  0  0
 22 20  1  0  0  0  0
 23 33  1  6  0  0  0
 24 29  1  0  0  0  0
 25 32  1  0  0  0  0
 26 24  2  0  0  0  0
 26 30  1  0  0  0  0
 27 24  1  0  0  0  0
 28 25  1  0  0  0  0
 28 23  1  0  0  0  0
 29 25  2  0  0  0  0
 30 28  2  0  0  0  0
 32 31  1  0  0  0  0
 33 34  1  0  0  0  0
 34 35  1  0  0  0  0
 35 40  1  0  0  0  0
 36 37  1  0  0  0  0
 37 41  2  0  0  0  0
 37 43  1  0  0  0  0
 38 41  1  0  0  0  0
 39 40  1  0  0  0  0
 39 36  2  0  0  0  0
 40 38  2  0  0  0  0
 43 42  2  0  0  0  0
M  END
>  <MODEL>
9

>  <REMARK>
 VINA RESULT:      -6.5      3.259      9.296
  Name = 
  13 active torsions:
  status: ('A' for Active; 'I' for Inactive)
    1  A    between atoms: C_1  and  C_8
    2  A    between atoms: C_1  and  C_35
    3  A    between atoms: C_4  and  N_14
    4  A    between atoms: C_8  and  O_34
    5  A    between atoms: C_10  and  S_41
    6  A    between atoms: C_11  and  N_14
    7  A    between atoms: C_12  and  N_17
    8  A    between atoms: N_14  and  S_41
    9  A    between atoms: C_16  and  O_43
   10  A    between atoms: C_19  and  C_37
   11  A    between atoms: C_21  and  C_30
   12  A    between atoms: C_27  and  C_30
   13  A    between atoms: C_30  and  O_34
                            x       y       z     vdW  Elec       q    Type
                         _______ _______ _______ _____ _____    ______ ____

>  <TORSDO>
F 13

$$$$
