=
 OpenBabel10262421243D

 32 37  0  0  1  0  0  0  0  0999 V2000
  180.9360  178.1320  140.0980 C   0  0  0  0  0  3  0  0  0  0  0  0
  185.8500  178.3990  142.0600 C   0  0  1  0  0  3  0  0  0  0  0  0
  184.7830  178.3890  146.8330 C   0  0  0  0  0  3  0  0  0  0  0  0
  186.1270  178.1490  147.1130 C   0  0  0  0  0  3  0  0  0  0  0  0
  188.0840  177.8480  141.4750 C   0  0  2  0  0  3  0  0  0  0  0  0
  189.0310  177.2070  142.3630 N   0  0  0  0  0  0  0  0  0  0  0  0
  183.9750  178.7080  140.3600 C   0  0  0  0  0  0  0  0  0  0  0  0
  183.4750  178.5480  142.7970 C   0  0  0  0  0  2  0  0  0  0  0  0
  190.7460  176.3810  144.3750 C   0  0  0  0  0  0  0  0  0  0  0  0
  181.5900  178.6430  141.1440 C   0  0  0  0  0  3  0  0  0  0  0  0
  184.3850  178.6700  145.5250 C   0  0  0  0  0  3  0  0  0  0  0  0
  184.9030  179.0350  143.0760 C   0  0  1  0  0  3  0  0  0  0  0  0
  185.3250  178.6910  144.4770 C   0  0  0  0  0  0  0  0  0  0  0  0
  187.7420  178.6710  143.6970 C   0  0  2  0  0  3  0  0  0  0  0  0
  190.8960  175.8410  143.1540 C   0  0  0  0  0  3  0  0  0  0  0  0
  182.5970  178.2990  138.3040 C   0  0  0  0  0  3  0  0  0  0  0  0
  183.0540  178.6370  141.3540 C   0  0  0  0  0  0  0  0  0  0  0  0
  189.8860  176.0610  142.0490 C   0  0  0  0  0  2  0  0  0  0  0  0
  183.6440  178.8450  138.9260 C   0  0  0  0  0  3  0  0  0  0  0  0
  181.6010  177.3930  138.9720 C   0  0  1  0  0  3  0  0  0  0  0  0
  187.0710  178.2070  146.0860 C   0  0  0  0  0  3  0  0  0  0  0  0
  186.6830  178.4710  144.7630 C   0  0  0  0  0  0  0  0  0  0  0  0
  189.6290  177.3050  144.6610 C   0  0  0  0  0  3  0  0  0  0  0  0
  185.4360  178.8970  140.6720 C   0  0  0  0  0  2  0  0  0  0  0  0
  188.8310  178.6300  140.4070 C   0  0  0  0  0  1  0  0  0  0  0  0
  191.7350  176.0730  145.4420 C   0  0  0  0  0  1  0  0  0  0  0  0
  187.2570  178.7750  142.2870 N   0  0  2  0  0  0  0  0  0  0  0  0
  188.8000  177.6420  143.6730 C   0  0  0  0  0  0  0  0  0  0  0  0
  181.1250  175.2370  139.8440 C   0  0  0  0  0  1  0  0  0  0  0  0
  182.2030  176.1310  139.4390 N   0  0  0  0  0  0  0  0  0  0  0  0
  182.8630  175.4630  138.3220 C   0  0  0  0  0  2  0  0  0  0  0  0
  181.8470  174.6570  137.5360 C   0  0  0  0  0  1  0  0  0  0  0  0
  1 10  2  0  0  0  0
  2 24  1  6  0  0  0
  2 27  1  0  0  0  0
  2 12  1  0  0  0  0
  3  4  1  0  0  0  0
  5 25  1  6  0  0  0
  5 27  1  0  0  0  0
  5  6  1  0  0  0  0
  6 28  1  0  0  0  0
  7 24  1  0  0  0  0
  7 17  2  0  0  0  0
  9 23  1  0  0  0  0
  9 26  1  0  0  0  0
 10 17  1  0  0  0  0
 11  3  2  0  0  0  0
 12  8  1  6  0  0  0
 12 13  1  0  0  0  0
 13 22  2  0  0  0  0
 13 11  1  0  0  0  0
 14 28  1  6  0  0  0
 14 22  1  0  0  0  0
 15  9  2  0  0  0  0
 16 19  2  0  0  0  0
 16 20  1  0  0  0  0
 17  8  1  0  0  0  0
 18  6  1  0  0  0  0
 18 15  1  0  0  0  0
 19  7  1  0  0  0  0
 20 30  1  1  0  0  0
 20  1  1  0  0  0  0
 21  4  2  0  0  0  0
 22 21  1  0  0  0  0
 27 14  1  0  0  0  0
 28 23  2  0  0  0  0
 30 29  1  0  0  0  0
 31 30  1  0  0  0  0
 32 31  1  0  0  0  0
M  END
>  <MODEL>
1

>  <REMARK>
 VINA RESULT:      -9.1      0.000      0.000
  Name = 
  2 active torsions:
  status: ('A' for Active; 'I' for Inactive)
    1  A    between atoms: C_1  and  N_20
    2  A    between atoms: N_20  and  C_24
                            x       y       z     vdW  Elec       q    Type
                         _______ _______ _______ _____ _____    ______ ____

>  <TORSDO>
F 2

$$$$
=
 OpenBabel10262421243D

 32 37  0  0  1  0  0  0  0  0999 V2000
  182.9480  176.5800  135.8810 C   0  0  0  0  0  3  0  0  0  0  0  0
  184.9950  178.2500  140.4750 C   0  0  1  0  0  3  0  0  0  0  0  0
  180.8570  178.7390  143.0360 C   0  0  0  0  0  3  0  0  0  0  0  0
  181.6140  178.8550  144.2000 C   0  0  0  0  0  3  0  0  0  0  0  0
  187.0070  178.1330  141.7290 C   0  0  2  0  0  3  0  0  0  0  0  0
  187.0730  177.8680  143.1510 N   0  0  0  0  0  0  0  0  0  0  0  0
  184.8680  177.8610  137.9580 C   0  0  0  0  0  0  0  0  0  0  0  0
  182.7950  177.9720  139.3380 C   0  0  0  0  0  2  0  0  0  0  0  0
  186.8920  177.7730  145.9130 C   0  0  0  0  0  0  0  0  0  0  0  0
  182.6390  177.3810  136.9040 C   0  0  0  0  0  3  0  0  0  0  0  0
  181.4920  178.7170  141.7930 C   0  0  0  0  0  3  0  0  0  0  0  0
  183.5760  178.8050  140.3620 C   0  0  1  0  0  3  0  0  0  0  0  0
  182.8950  178.7870  141.7020 C   0  0  0  0  0  0  0  0  0  0  0  0
  185.1470  179.1920  142.8030 C   0  0  2  0  0  3  0  0  0  0  0  0
  187.8910  177.0970  145.3210 C   0  0  0  0  0  3  0  0  0  0  0  0
  185.3810  176.8380  135.7250 C   0  0  0  0  0  3  0  0  0  0  0  0
  183.5190  177.7390  138.0390 C   0  0  0  0  0  0  0  0  0  0  0  0
  187.9540  176.9100  143.8200 C   0  0  0  0  0  2  0  0  0  0  0  0
  185.6470  177.6960  136.7120 C   0  0  0  0  0  3  0  0  0  0  0  0
  184.2520  175.8450  135.7560 C   0  0  1  0  0  3  0  0  0  0  0  0
  183.0040  178.9650  144.1160 C   0  0  0  0  0  3  0  0  0  0  0  0
  183.6570  178.9260  142.8740 C   0  0  0  0  0  0  0  0  0  0  0  0
  185.8570  178.4540  145.1070 C   0  0  0  0  0  3  0  0  0  0  0  0
  185.6630  178.4200  139.1070 C   0  0  0  0  0  2  0  0  0  0  0  0
  188.2500  178.8880  141.2890 C   0  0  0  0  0  1  0  0  0  0  0  0
  186.8440  177.8640  147.3960 C   0  0  0  0  0  1  0  0  0  0  0  0
  185.8020  178.9640  141.4800 N   0  0  2  0  0  0  0  0  0  0  0  0
  185.9590  178.4380  143.7780 C   0  0  0  0  0  0  0  0  0  0  0  0
  183.3690  173.8310  136.6490 C   0  0  0  0  0  1  0  0  0  0  0  0
  184.4070  174.8390  136.8220 N   0  0  0  0  0  0  0  0  0  0  0  0
  185.6710  174.1320  136.6460 C   0  0  0  0  0  2  0  0  0  0  0  0
  185.7490  172.9760  137.6240 C   0  0  0  0  0  1  0  0  0  0  0  0
  1 10  2  0  0  0  0
  2 24  1  6  0  0  0
  2 27  1  0  0  0  0
  3  4  1  0  0  0  0
  5 25  1  1  0  0  0
  5  6  1  0  0  0  0
  6 28  1  0  0  0  0
  6 18  1  0  0  0  0
  7 17  2  0  0  0  0
  7 24  1  0  0  0  0
  9 26  1  0  0  0  0
 10 17  1  0  0  0  0
 11  3  2  0  0  0  0
 12  8  1  6  0  0  0
 12  2  1  0  0  0  0
 12 13  1  0  0  0  0
 13 11  1  0  0  0  0
 13 22  2  0  0  0  0
 14 22  1  6  0  0  0
 14 28  1  0  0  0  0
 15  9  2  0  0  0  0
 16 20  1  0  0  0  0
 16 19  2  0  0  0  0
 17  8  1  0  0  0  0
 18 15  1  0  0  0  0
 19  7  1  0  0  0  0
 20  1  1  0  0  0  0
 20 30  1  1  0  0  0
 21  4  2  0  0  0  0
 22 21  1  0  0  0  0
 23  9  1  0  0  0  0
 27  5  1  0  0  0  0
 27 14  1  0  0  0  0
 28 23  2  0  0  0  0
 29 30  1  0  0  0  0
 31 30  1  0  0  0  0
 31 32  1  0  0  0  0
M  END
>  <MODEL>
2

>  <REMARK>
 VINA RESULT:      -9.0      1.968      3.727
  Name = 
  2 active torsions:
  status: ('A' for Active; 'I' for Inactive)
    1  A    between atoms: C_1  and  N_20
    2  A    between atoms: N_20  and  C_24
                            x       y       z     vdW  Elec       q    Type
                         _______ _______ _______ _____ _____    ______ ____

>  <TORSDO>
F 2

$$$$
=
 OpenBabel10262421243D

 32 37  0  0  1  0  0  0  0  0999 V2000
  183.0320  176.6460  135.6450 C   0  0  0  0  0  3  0  0  0  0  0  0
  186.2770  177.9490  139.6260 C   0  0  1  0  0  3  0  0  0  0  0  0
  182.9490  178.6760  143.1350 C   0  0  0  0  0  3  0  0  0  0  0  0
  183.9740  178.6810  144.0790 C   0  0  0  0  0  3  0  0  0  0  0  0
  188.5150  177.6140  140.3440 C   0  0  2  0  0  3  0  0  0  0  0  0
  188.9010  177.2870  141.7000 N   0  0  0  0  0  0  0  0  0  0  0  0
  185.5080  177.6760  137.2100 C   0  0  0  0  0  0  0  0  0  0  0  0
  183.8510  177.9030  139.0600 C   0  0  0  0  0  2  0  0  0  0  0  0
  189.3890  177.0940  144.4200 C   0  0  0  0  0  0  0  0  0  0  0  0
  183.0550  177.4270  136.7280 C   0  0  0  0  0  3  0  0  0  0  0  0
  183.2580  178.6520  141.7740 C   0  0  0  0  0  3  0  0  0  0  0  0
  184.9300  178.6250  139.8770 C   0  0  1  0  0  3  0  0  0  0  0  0
  184.5970  178.6080  141.3420 C   0  0  0  0  0  0  0  0  0  0  0  0
  187.0770  178.7800  141.8630 C   0  0  2  0  0  3  0  0  0  0  0  0
  190.1490  176.3620  143.5880 C   0  0  0  0  0  3  0  0  0  0  0  0
  185.3670  176.7070  134.9010 C   0  0  0  0  0  3  0  0  0  0  0  0
  184.2130  177.6630  137.6180 C   0  0  0  0  0  0  0  0  0  0  0  0
  189.8280  176.2320  142.1140 C   0  0  0  0  0  2  0  0  0  0  0  0
  185.9410  177.4980  135.8090 C   0  0  0  0  0  3  0  0  0  0  0  0
  184.1940  175.8110  135.1890 C   0  0  1  0  0  3  0  0  0  0  0  0
  185.3050  178.6780  143.6580 C   0  0  0  0  0  3  0  0  0  0  0  0
  185.6300  178.6350  142.2930 C   0  0  0  0  0  0  0  0  0  0  0  0
  188.2560  177.8910  143.9070 C   0  0  0  0  0  3  0  0  0  0  0  0
  186.6060  178.1190  138.1400 C   0  0  0  0  0  2  0  0  0  0  0  0
  189.6770  178.2810  139.6270 C   0  0  0  0  0  1  0  0  0  0  0  0
  189.7130  177.1280  145.8710 C   0  0  0  0  0  1  0  0  0  0  0  0
  187.3670  178.5520  140.4150 N   0  0  2  0  0  0  0  0  0  0  0  0
  188.0300  177.9210  142.5940 C   0  0  0  0  0  0  0  0  0  0  0  0
  183.4100  173.7980  136.1740 C   0  0  0  0  0  1  0  0  0  0  0  0
  184.5120  174.7530  136.1650 N   0  0  0  0  0  0  0  0  0  0  0  0
  185.6750  173.9990  135.7070 C   0  0  0  0  0  2  0  0  0  0  0  0
  186.6510  173.8220  136.8530 C   0  0  0  0  0  1  0  0  0  0  0  0
  1 10  2  0  0  0  0
  2 24  1  6  0  0  0
  2 12  1  0  0  0  0
  2 27  1  0  0  0  0
  3  4  1  0  0  0  0
  5 25  1  1  0  0  0
  5 27  1  0  0  0  0
  5  6  1  0  0  0  0
  6 18  1  0  0  0  0
  6 28  1  0  0  0  0
  7 17  2  0  0  0  0
  7 24  1  0  0  0  0
  9 26  1  0  0  0  0
 10 17  1  0  0  0  0
 11  3  2  0  0  0  0
 12  8  1  6  0  0  0
 12 13  1  0  0  0  0
 13 11  1  0  0  0  0
 13 22  2  0  0  0  0
 14 22  1  6  0  0  0
 14 28  1  0  0  0  0
 15  9  2  0  0  0  0
 16 20  1  0  0  0  0
 16 19  2  0  0  0  0
 17  8  1  0  0  0  0
 18 15  1  0  0  0  0
 19  7  1  0  0  0  0
 20  1  1  0  0  0  0
 20 30  1  1  0  0  0
 21  4  2  0  0  0  0
 22 21  1  0  0  0  0
 23  9  1  0  0  0  0
 27 14  1  0  0  0  0
 28 23  2  0  0  0  0
 30 29  1  0  0  0  0
 31 30  1  0  0  0  0
 31 32  1  0  0  0  0
M  END
>  <MODEL>
3

>  <REMARK>
 VINA RESULT:      -8.7      2.240      3.347
  Name = 
  2 active torsions:
  status: ('A' for Active; 'I' for Inactive)
    1  A    between atoms: C_1  and  N_20
    2  A    between atoms: N_20  and  C_24
                            x       y       z     vdW  Elec       q    Type
                         _______ _______ _______ _____ _____    ______ ____

>  <TORSDO>
F 2

$$$$
=
 OpenBabel10262421243D

 32 37  0  0  1  0  0  0  0  0999 V2000
  180.8240  178.3200  141.4590 C   0  0  0  0  0  3  0  0  0  0  0  0
  185.8800  178.2810  139.8740 C   0  0  1  0  0  3  0  0  0  0  0  0
  188.0320  177.3440  144.1650 C   0  0  0  0  0  3  0  0  0  0  0  0
  189.2200  177.0760  143.4880 C   0  0  0  0  0  3  0  0  0  0  0  0
  187.1820  177.8850  137.9300 C   0  0  2  0  0  3  0  0  0  0  0  0
  188.3990  177.1010  137.9020 N   0  0  0  0  0  0  0  0  0  0  0  0
  183.4020  178.8810  139.8230 C   0  0  0  0  0  0  0  0  0  0  0  0
  184.5190  178.2510  141.9610 C   0  0  0  0  0  2  0  0  0  0  0  0
  190.8910  175.9330  138.2100 C   0  0  0  0  0  0  0  0  0  0  0  0
  182.0390  178.6310  141.9180 C   0  0  0  0  0  3  0  0  0  0  0  0
  186.9390  177.8640  143.4700 C   0  0  0  0  0  3  0  0  0  0  0  0
  185.8510  178.6970  141.3440 C   0  0  1  0  0  3  0  0  0  0  0  0
  187.0130  178.0980  142.0840 C   0  0  0  0  0  0  0  0  0  0  0  0
  188.3950  178.2650  139.9590 C   0  0  2  0  0  3  0  0  0  0  0  0
  190.1860  175.6370  137.1050 C   0  0  0  0  0  3  0  0  0  0  0  0
  181.0080  178.8510  139.0740 C   0  0  0  0  0  3  0  0  0  0  0  0
  183.3020  178.6070  141.1490 C   0  0  0  0  0  0  0  0  0  0  0  0
  188.7390  176.0490  136.9430 C   0  0  0  0  0  2  0  0  0  0  0  0
  182.2660  179.2840  138.9680 C   0  0  0  0  0  3  0  0  0  0  0  0
  180.5550  177.8190  140.0690 C   0  0  1  0  0  3  0  0  0  0  0  0
  189.3160  177.3430  142.1210 C   0  0  0  0  0  3  0  0  0  0  0  0
  188.2190  177.8490  141.4060 C   0  0  0  0  0  0  0  0  0  0  0  0
  190.3070  176.7680  139.2800 C   0  0  0  0  0  3  0  0  0  0  0  0
  184.7470  179.0280  139.1640 C   0  0  0  0  0  2  0  0  0  0  0  0
  187.1790  178.8680  136.7700 C   0  0  0  0  0  1  0  0  0  0  0  0
  192.2880  175.4410  138.3430 C   0  0  0  0  0  1  0  0  0  0  0  0
  187.1510  178.6280  139.2150 N   0  0  2  0  0  0  0  0  0  0  0  0
  189.0860  177.2750  139.1090 C   0  0  0  0  0  0  0  0  0  0  0  0
  180.2590  175.4790  140.3380 C   0  0  0  0  0  1  0  0  0  0  0  0
  181.1740  176.5000  139.8440 N   0  0  0  0  0  0  0  0  0  0  0  0
  181.2920  176.2550  138.4100 C   0  0  0  0  0  2  0  0  0  0  0  0
  182.6370  175.6220  138.1090 C   0  0  0  0  0  1  0  0  0  0  0  0
  1 10  2  0  0  0  0
  2 24  1  6  0  0  0
  2 12  1  0  0  0  0
  4  3  1  0  0  0  0
  5 25  1  6  0  0  0
  5 27  1  0  0  0  0
  6  5  1  0  0  0  0
  6 28  1  0  0  0  0
  7 17  2  0  0  0  0
  9 26  1  0  0  0  0
  9 23  1  0  0  0  0
 11  3  2  0  0  0  0
 12  8  1  1  0  0  0
 12 13  1  0  0  0  0
 13 11  1  0  0  0  0
 14 28  1  6  0  0  0
 14 22  1  0  0  0  0
 15  9  2  0  0  0  0
 16 20  1  0  0  0  0
 17 10  1  0  0  0  0
 17  8  1  0  0  0  0
 18 15  1  0  0  0  0
 18  6  1  0  0  0  0
 19 16  2  0  0  0  0
 19  7  1  0  0  0  0
 20 30  1  6  0  0  0
 20  1  1  0  0  0  0
 21  4  2  0  0  0  0
 22 13  2  0  0  0  0
 22 21  1  0  0  0  0
 24  7  1  0  0  0  0
 27  2  1  0  0  0  0
 27 14  1  0  0  0  0
 28 23  2  0  0  0  0
 30 29  1  0  0  0  0
 31 30  1  0  0  0  0
 32 31  1  0  0  0  0
M  END
>  <MODEL>
4

>  <REMARK>
 VINA RESULT:      -8.6      2.259      3.576
  Name = 
  2 active torsions:
  status: ('A' for Active; 'I' for Inactive)
    1  A    between atoms: C_1  and  N_20
    2  A    between atoms: N_20  and  C_24
                            x       y       z     vdW  Elec       q    Type
                         _______ _______ _______ _____ _____    ______ ____

>  <TORSDO>
F 2

$$$$
=
 OpenBabel10262421243D

 32 37  0  0  1  0  0  0  0  0999 V2000
  185.9740  177.1930  136.3670 C   0  0  0  0  0  3  0  0  0  0  0  0
  188.6920  177.8040  140.8740 C   0  0  1  0  0  3  0  0  0  0  0  0
  184.9480  178.3890  143.9660 C   0  0  0  0  0  3  0  0  0  0  0  0
  185.8270  178.2130  145.0330 C   0  0  0  0  0  3  0  0  0  0  0  0
  190.7810  177.2250  141.8410 C   0  0  2  0  0  3  0  0  0  0  0  0
  190.9510  176.7230  143.1880 N   0  0  0  0  0  0  0  0  0  0  0  0
  188.2580  177.8560  138.3620 C   0  0  0  0  0  0  0  0  0  0  0  0
  186.3720  178.0020  139.9860 C   0  0  0  0  0  2  0  0  0  0  0  0
  191.0360  176.1960  145.9060 C   0  0  0  0  0  0  0  0  0  0  0  0
  185.8890  177.8470  137.5290 C   0  0  0  0  0  3  0  0  0  0  0  0
  185.4450  178.4920  142.6660 C   0  0  0  0  0  3  0  0  0  0  0  0
  187.3660  178.5480  141.0210 C   0  0  1  0  0  3  0  0  0  0  0  0
  186.8270  178.3950  142.4150 C   0  0  0  0  0  0  0  0  0  0  0  0
  189.2140  178.3220  143.2820 C   0  0  2  0  0  3  0  0  0  0  0  0
  191.8610  175.5060  145.1020 C   0  0  0  0  0  3  0  0  0  0  0  0
  188.3890  177.1600  135.9550 C   0  0  0  0  0  3  0  0  0  0  0  0
  186.9210  177.8960  138.5880 C   0  0  0  0  0  0  0  0  0  0  0  0
  191.7460  175.5630  143.5940 C   0  0  0  0  0  2  0  0  0  0  0  0
  188.8750  177.8010  137.0200 C   0  0  0  0  0  3  0  0  0  0  0  0
  187.1370  176.3280  135.9750 C   0  0  1  0  0  3  0  0  0  0  0  0
  187.2030  178.1570  144.7970 C   0  0  0  0  0  3  0  0  0  0  0  0
  187.7150  178.2400  143.4930 C   0  0  0  0  0  0  0  0  0  0  0  0
  190.0360  177.1280  145.3440 C   0  0  0  0  0  3  0  0  0  0  0  0
  189.2380  178.1110  139.4760 C   0  0  0  0  0  2  0  0  0  0  0  0
  192.0710  177.8780  141.3710 C   0  0  0  0  0  1  0  0  0  0  0  0
  191.1520  176.0470  147.3810 C   0  0  0  0  0  1  0  0  0  0  0  0
  189.6920  178.2330  141.8680 N   0  0  2  0  0  0  0  0  0  0  0  0
  190.0010  177.3190  144.0250 C   0  0  0  0  0  0  0  0  0  0  0  0
  185.9670  174.4560  136.8490 C   0  0  0  0  0  1  0  0  0  0  0  0
  187.2500  175.1480  136.8520 N   0  0  0  0  0  0  0  0  0  0  0  0
  188.2030  174.2040  136.2780 C   0  0  0  0  0  2  0  0  0  0  0  0
  189.3800  174.0320  137.2190 C   0  0  0  0  0  1  0  0  0  0  0  0
  1 10  2  0  0  0  0
  2 24  1  6  0  0  0
  2 12  1  0  0  0  0
  2 27  1  0  0  0  0
  3  4  1  0  0  0  0
  5 25  1  1  0  0  0
  5 27  1  0  0  0  0
  5  6  1  0  0  0  0
  6 18  1  0  0  0  0
  6 28  1  0  0  0  0
  7 17  2  0  0  0  0
  7 24  1  0  0  0  0
  9 26  1  0  0  0  0
 10 17  1  0  0  0  0
 11  3  2  0  0  0  0
 12  8  1  6  0  0  0
 12 13  1  0  0  0  0
 13 11  1  0  0  0  0
 13 22  2  0  0  0  0
 14 22  1  6  0  0  0
 14 28  1  0  0  0  0
 15  9  2  0  0  0  0
 16 20  1  0  0  0  0
 16 19  2  0  0  0  0
 17  8  1  0  0  0  0
 18 15  1  0  0  0  0
 19  7  1  0  0  0  0
 20  1  1  0  0  0  0
 20 30  1  1  0  0  0
 21  4  2  0  0  0  0
 22 21  1  0  0  0  0
 23  9  1  0  0  0  0
 27 14  1  0  0  0  0
 28 23  2  0  0  0  0
 29 30  1  0  0  0  0
 31 30  1  0  0  0  0
 31 32  1  0  0  0  0
M  END
>  <MODEL>
5

>  <REMARK>
 VINA RESULT:      -8.2      2.718      4.066
  Name = 
  2 active torsions:
  status: ('A' for Active; 'I' for Inactive)
    1  A    between atoms: C_1  and  N_20
    2  A    between atoms: N_20  and  C_24
                            x       y       z     vdW  Elec       q    Type
                         _______ _______ _______ _____ _____    ______ ____

>  <TORSDO>
F 2

$$$$
=
 OpenBabel10262421243D

 32 37  0  0  1  0  0  0  0  0999 V2000
  186.1400  175.6940  134.6220 C   0  0  0  0  0  3  0  0  0  0  0  0
  186.2400  177.8940  139.4410 C   0  0  1  0  0  3  0  0  0  0  0  0
  181.4280  178.3620  140.1820 C   0  0  0  0  0  3  0  0  0  0  0  0
  181.6810  178.6290  141.5260 C   0  0  0  0  0  3  0  0  0  0  0  0
  187.6220  178.0130  141.3670 C   0  0  2  0  0  3  0  0  0  0  0  0
  187.1470  177.8830  142.7280 N   0  0  0  0  0  0  0  0  0  0  0  0
  187.0930  177.2710  137.1200 C   0  0  0  0  0  0  0  0  0  0  0  0
  184.6480  177.3820  137.5940 C   0  0  0  0  0  2  0  0  0  0  0  0
  185.9260  178.0280  145.2100 C   0  0  0  0  0  0  0  0  0  0  0  0
  185.4460  176.5640  135.3600 C   0  0  0  0  0  3  0  0  0  0  0  0
  182.4900  178.2660  139.2810 C   0  0  0  0  0  3  0  0  0  0  0  0
  184.9600  178.3500  138.7430 C   0  0  1  0  0  3  0  0  0  0  0  0
  183.8200  178.4120  139.7190 C   0  0  0  0  0  0  0  0  0  0  0  0
  185.4710  179.0510  141.5400 C   0  0  2  0  0  3  0  0  0  0  0  0
  187.0900  177.3630  145.1160 C   0  0  0  0  0  3  0  0  0  0  0  0
  188.4410  176.0830  135.3700 C   0  0  0  0  0  3  0  0  0  0  0  0
  185.8180  177.0760  136.6980 C   0  0  0  0  0  0  0  0  0  0  0  0
  187.7260  177.0450  143.7790 C   0  0  0  0  0  2  0  0  0  0  0  0
  188.2910  177.0420  136.2860 C   0  0  0  0  0  3  0  0  0  0  0  0
  187.4080  175.0310  135.0780 C   0  0  1  0  0  3  0  0  0  0  0  0
  182.9940  178.8150  141.9620 C   0  0  0  0  0  3  0  0  0  0  0  0
  184.0730  178.7030  141.0700 C   0  0  0  0  0  0  0  0  0  0  0  0
  185.2630  178.5690  144.0060 C   0  0  0  0  0  3  0  0  0  0  0  0
  187.3760  177.9800  138.4180 C   0  0  0  0  0  2  0  0  0  0  0  0
  188.9230  178.8000  141.3510 C   0  0  0  0  0  1  0  0  0  0  0  0
  185.3140  178.2510  146.5470 C   0  0  0  0  0  1  0  0  0  0  0  0
  186.5870  178.7440  140.5940 N   0  0  2  0  0  0  0  0  0  0  0  0
  185.8660  178.4390  142.8240 C   0  0  0  0  0  0  0  0  0  0  0  0
  186.2280  173.1030  135.8040 C   0  0  0  0  0  1  0  0  0  0  0  0
  187.1650  174.1370  136.2250 N   0  0  0  0  0  0  0  0  0  0  0  0
  188.3970  173.4310  136.5620 C   0  0  0  0  0  2  0  0  0  0  0  0
  188.6520  172.3360  135.5450 C   0  0  0  0  0  1  0  0  0  0  0  0
  1 20  1  0  0  0  0
  1 10  2  0  0  0  0
  2 24  1  6  0  0  0
  2 27  1  0  0  0  0
  3  4  1  0  0  0  0
  4 21  2  0  0  0  0
  5 25  1  1  0  0  0
  5  6  1  0  0  0  0
  6 28  1  0  0  0  0
  6 18  1  0  0  0  0
  7 24  1  0  0  0  0
  9 26  1  0  0  0  0
 10 17  1  0  0  0  0
 11 13  1  0  0  0  0
 11  3  2  0  0  0  0
 12  8  1  6  0  0  0
 12  2  1  0  0  0  0
 12 13  1  0  0  0  0
 13 22  2  0  0  0  0
 14 22  1  6  0  0  0
 14 28  1  0  0  0  0
 15  9  2  0  0  0  0
 16 19  2  0  0  0  0
 17  7  2  0  0  0  0
 17  8  1  0  0  0  0
 18 15  1  0  0  0  0
 19  7  1  0  0  0  0
 20 16  1  0  0  0  0
 20 30  1  1  0  0  0
 22 21  1  0  0  0  0
 23  9  1  0  0  0  0
 27  5  1  0  0  0  0
 27 14  1  0  0  0  0
 28 23  2  0  0  0  0
 29 30  1  0  0  0  0
 30 31  1  0  0  0  0
 32 31  1  0  0  0  0
M  END
>  <MODEL>
6

>  <REMARK>
 VINA RESULT:      -8.0      3.234      5.393
  Name = 
  2 active torsions:
  status: ('A' for Active; 'I' for Inactive)
    1  A    between atoms: C_1  and  N_20
    2  A    between atoms: N_20  and  C_24
                            x       y       z     vdW  Elec       q    Type
                         _______ _______ _______ _____ _____    ______ ____

>  <TORSDO>
F 2

$$$$
=
 OpenBabel10262421243D

 32 37  0  0  1  0  0  0  0  0999 V2000
  187.2870  175.8490  134.5940 C   0  0  0  0  0  3  0  0  0  0  0  0
  188.7350  177.4990  139.4160 C   0  0  1  0  0  3  0  0  0  0  0  0
  184.3540  178.8450  141.1240 C   0  0  0  0  0  3  0  0  0  0  0  0
  184.8990  178.9230  142.4050 C   0  0  0  0  0  3  0  0  0  0  0  0
  190.4390  177.1500  141.0320 C   0  0  2  0  0  3  0  0  0  0  0  0
  190.2020  176.9840  142.4500 N   0  0  0  0  0  0  0  0  0  0  0  0
  188.9970  176.9500  136.9390 C   0  0  0  0  0  0  0  0  0  0  0  0
  186.7610  177.5000  137.8960 C   0  0  0  0  0  2  0  0  0  0  0  0
  189.5150  177.1260  145.1300 C   0  0  0  0  0  0  0  0  0  0  0  0
  186.9440  176.7630  135.5040 C   0  0  0  0  0  3  0  0  0  0  0  0
  185.1890  178.6280  140.0260 C   0  0  0  0  0  3  0  0  0  0  0  0
  187.4780  178.2690  139.0130 C   0  0  1  0  0  3  0  0  0  0  0  0
  186.5750  178.4610  140.1990 C   0  0  0  0  0  0  0  0  0  0  0  0
  188.6300  178.5750  141.6890 C   0  0  2  0  0  3  0  0  0  0  0  0
  190.4710  176.2550  144.7670 C   0  0  0  0  0  3  0  0  0  0  0  0
  189.7150  175.6950  134.8900 C   0  0  0  0  0  3  0  0  0  0  0  0
  187.6540  177.0560  136.7690 C   0  0  0  0  0  0  0  0  0  0  0  0
  190.7690  175.9480  143.3150 C   0  0  0  0  0  2  0  0  0  0  0  0
  189.9450  176.5690  135.8720 C   0  0  0  0  0  3  0  0  0  0  0  0
  188.4440  174.9040  134.7490 C   0  0  1  0  0  3  0  0  0  0  0  0
  186.2790  178.7980  142.5800 C   0  0  0  0  0  3  0  0  0  0  0  0
  187.1270  178.5610  141.4870 C   0  0  0  0  0  0  0  0  0  0  0  0
  188.7760  177.9040  144.1140 C   0  0  0  0  0  3  0  0  0  0  0  0
  189.6580  177.4560  138.1940 C   0  0  0  0  0  2  0  0  0  0  0  0
  191.8520  177.6580  140.8030 C   0  0  0  0  0  1  0  0  0  0  0  0
  189.2190  177.3340  146.5720 C   0  0  0  0  0  1  0  0  0  0  0  0
  189.4610  178.1450  140.5240 N   0  0  2  0  0  0  0  0  0  0  0  0
  189.1100  177.7730  142.8310 C   0  0  0  0  0  0  0  0  0  0  0  0
  187.0220  173.1990  135.5890 C   0  0  0  0  0  1  0  0  0  0  0  0
  188.2280  173.9680  135.8680 N   0  0  0  0  0  0  0  0  0  0  0  0
  189.3120  172.9920  135.9040 C   0  0  0  0  0  2  0  0  0  0  0  0
  188.9990  171.8470  134.9600 C   0  0  0  0  0  1  0  0  0  0  0  0
  1 20  1  0  0  0  0
  1 10  2  0  0  0  0
  2 24  1  6  0  0  0
  2 27  1  0  0  0  0
  3  4  1  0  0  0  0
  4 21  2  0  0  0  0
  5 25  1  1  0  0  0
  5  6  1  0  0  0  0
  6 28  1  0  0  0  0
  6 18  1  0  0  0  0
  7 24  1  0  0  0  0
  9 26  1  0  0  0  0
 10 17  1  0  0  0  0
 11 13  1  0  0  0  0
 11  3  2  0  0  0  0
 12  8  1  6  0  0  0
 12  2  1  0  0  0  0
 12 13  1  0  0  0  0
 13 22  2  0  0  0  0
 14 22  1  6  0  0  0
 14 28  1  0  0  0  0
 15  9  2  0  0  0  0
 16 19  2  0  0  0  0
 17  7  2  0  0  0  0
 17  8  1  0  0  0  0
 18 15  1  0  0  0  0
 19  7  1  0  0  0  0
 20 16  1  0  0  0  0
 20 30  1  1  0  0  0
 22 21  1  0  0  0  0
 23  9  1  0  0  0  0
 27  5  1  0  0  0  0
 27 14  1  0  0  0  0
 28 23  2  0  0  0  0
 29 30  1  0  0  0  0
 30 31  1  0  0  0  0
 32 31  1  0  0  0  0
M  END
>  <MODEL>
7

>  <REMARK>
 VINA RESULT:      -8.0      3.740      5.400
  Name = 
  2 active torsions:
  status: ('A' for Active; 'I' for Inactive)
    1  A    between atoms: C_1  and  N_20
    2  A    between atoms: N_20  and  C_24
                            x       y       z     vdW  Elec       q    Type
                         _______ _______ _______ _____ _____    ______ ____

>  <TORSDO>
F 2

$$$$
=
 OpenBabel10262421243D

 32 37  0  0  1  0  0  0  0  0999 V2000
  179.9490  176.6730  138.1500 C   0  0  0  0  0  3  0  0  0  0  0  0
  184.9030  178.0790  139.3990 C   0  0  1  0  0  3  0  0  0  0  0  0
  184.4350  178.3380  144.2600 C   0  0  0  0  0  3  0  0  0  0  0  0
  185.8230  178.3910  144.3710 C   0  0  0  0  0  3  0  0  0  0  0  0
  187.1170  177.9140  138.5570 C   0  0  2  0  0  3  0  0  0  0  0  0
  188.2730  177.5600  139.3530 N   0  0  0  0  0  0  0  0  0  0  0  0
  182.8160  177.8490  137.9520 C   0  0  0  0  0  0  0  0  0  0  0  0
  182.6520  177.8390  140.4400 C   0  0  0  0  0  2  0  0  0  0  0  0
  190.3470  177.2860  141.1670 C   0  0  0  0  0  0  0  0  0  0  0  0
  180.6050  177.4020  139.0560 C   0  0  0  0  0  3  0  0  0  0  0  0
  183.8350  178.4050  143.0010 C   0  0  0  0  0  3  0  0  0  0  0  0
  183.9730  178.6180  140.4850 C   0  0  1  0  0  3  0  0  0  0  0  0
  184.6190  178.5030  141.8360 C   0  0  0  0  0  0  0  0  0  0  0  0
  186.8800  178.8730  140.7390 C   0  0  2  0  0  3  0  0  0  0  0  0
  190.4590  176.6660  139.9810 C   0  0  0  0  0  3  0  0  0  0  0  0
  181.3160  176.9790  136.1390 C   0  0  0  0  0  3  0  0  0  0  0  0
  182.0540  177.7010  139.0650 C   0  0  0  0  0  0  0  0  0  0  0  0
  189.3000  176.5760  139.0110 C   0  0  0  0  0  2  0  0  0  0  0  0
  182.2960  177.7760  136.5710 C   0  0  0  0  0  3  0  0  0  0  0  0
  180.6130  175.9690  137.0020 C   0  0  1  0  0  3  0  0  0  0  0  0
  186.6060  178.5280  143.2240 C   0  0  0  0  0  3  0  0  0  0  0  0
  186.0180  178.5790  141.9500 C   0  0  0  0  0  0  0  0  0  0  0  0
  189.1070  178.0010  141.5350 C   0  0  0  0  0  3  0  0  0  0  0  0
  184.2330  178.3460  138.0470 C   0  0  0  0  0  2  0  0  0  0  0  0
  187.5550  178.7160  137.3430 C   0  0  0  0  0  1  0  0  0  0  0  0
  191.4980  177.2820  142.1100 C   0  0  0  0  0  1  0  0  0  0  0  0
  186.2200  178.7400  139.4040 N   0  0  2  0  0  0  0  0  0  0  0  0
  188.1160  178.0710  140.6470 C   0  0  0  0  0  0  0  0  0  0  0  0
  180.6900  173.7920  137.9460 C   0  0  0  0  0  1  0  0  0  0  0  0
  181.5110  174.8990  137.4740 N   0  0  0  0  0  0  0  0  0  0  0  0
  182.2710  174.3670  136.3470 C   0  0  0  0  0  2  0  0  0  0  0  0
  183.6000  173.8260  136.8380 C   0  0  0  0  0  1  0  0  0  0  0  0
  1 10  2  0  0  0  0
  2 24  1  6  0  0  0
  2 27  1  0  0  0  0
  2 12  1  0  0  0  0
  3  4  1  0  0  0  0
  5 25  1  6  0  0  0
  5  6  1  0  0  0  0
  5 27  1  0  0  0  0
  6 28  1  0  0  0  0
  7 24  1  0  0  0  0
  7 17  2  0  0  0  0
  9 23  1  0  0  0  0
  9 26  1  0  0  0  0
 10 17  1  0  0  0  0
 11  3  2  0  0  0  0
 12  8  1  1  0  0  0
 12 13  1  0  0  0  0
 13 22  2  0  0  0  0
 13 11  1  0  0  0  0
 14 28  1  6  0  0  0
 14 22  1  0  0  0  0
 15  9  2  0  0  0  0
 16 19  2  0  0  0  0
 16 20  1  0  0  0  0
 17  8  1  0  0  0  0
 18  6  1  0  0  0  0
 18 15  1  0  0  0  0
 19  7  1  0  0  0  0
 20 30  1  1  0  0  0
 20  1  1  0  0  0  0
 21  4  2  0  0  0  0
 22 21  1  0  0  0  0
 27 14  1  0  0  0  0
 28 23  2  0  0  0  0
 30 29  1  0  0  0  0
 31 32  1  0  0  0  0
 31 30  1  0  0  0  0
M  END
>  <MODEL>
8

>  <REMARK>
 VINA RESULT:      -7.5      1.890      2.875
  Name = 
  2 active torsions:
  status: ('A' for Active; 'I' for Inactive)
    1  A    between atoms: C_1  and  N_20
    2  A    between atoms: N_20  and  C_24
                            x       y       z     vdW  Elec       q    Type
                         _______ _______ _______ _____ _____    ______ ____

>  <TORSDO>
F 2

$$$$
=
 OpenBabel10262421243D

 32 37  0  0  1  0  0  0  0  0999 V2000
  193.4480  174.4200  134.5940 C   0  0  0  0  0  3  0  0  0  0  0  0
  190.9650  176.7900  138.6290 C   0  0  1  0  0  3  0  0  0  0  0  0
  186.6860  177.7400  136.4590 C   0  0  0  0  0  3  0  0  0  0  0  0
  186.1400  178.0350  137.7070 C   0  0  0  0  0  3  0  0  0  0  0  0
  190.9840  176.8560  141.0020 C   0  0  2  0  0  3  0  0  0  0  0  0
  189.7990  176.8250  141.8330 N   0  0  0  0  0  0  0  0  0  0  0  0
  192.9340  175.9980  137.2170 C   0  0  0  0  0  0  0  0  0  0  0  0
  190.6910  176.3580  136.1910 C   0  0  0  0  0  2  0  0  0  0  0  0
  187.3910  177.1830  143.1540 C   0  0  0  0  0  0  0  0  0  0  0  0
  192.5460  175.3800  134.8140 C   0  0  0  0  0  3  0  0  0  0  0  0
  188.0570  177.5080  136.3370 C   0  0  0  0  0  3  0  0  0  0  0  0
  190.3770  177.3370  137.3290 C   0  0  1  0  0  3  0  0  0  0  0  0
  188.8950  177.5450  137.4670 C   0  0  0  0  0  0  0  0  0  0  0  0
  189.2450  178.0980  139.9210 C   0  0  2  0  0  3  0  0  0  0  0  0
  188.3210  176.4090  143.7350 C   0  0  0  0  0  3  0  0  0  0  0  0
  194.9190  174.6200  136.5430 C   0  0  0  0  0  3  0  0  0  0  0  0
  192.1260  175.9070  136.1300 C   0  0  0  0  0  0  0  0  0  0  0  0
  189.5770  175.9790  143.0070 C   0  0  0  0  0  2  0  0  0  0  0  0
  194.3640  175.6240  137.2250 C   0  0  0  0  0  3  0  0  0  0  0  0
  194.1450  173.6590  135.6840 C   0  0  1  0  0  3  0  0  0  0  0  0
  186.9710  178.1130  138.8260 C   0  0  0  0  0  3  0  0  0  0  0  0
  188.3490  177.8640  138.7210 C   0  0  0  0  0  0  0  0  0  0  0  0
  187.6040  177.7360  141.8000 C   0  0  0  0  0  3  0  0  0  0  0  0
  192.4850  176.7280  138.4550 C   0  0  0  0  0  2  0  0  0  0  0  0
  192.1250  177.5150  141.7590 C   0  0  0  0  0  1  0  0  0  0  0  0
  186.1450  177.5160  143.8940 C   0  0  0  0  0  1  0  0  0  0  0  0
  190.6650  177.6490  139.7890 N   0  0  2  0  0  0  0  0  0  0  0  0
  188.7620  177.5030  141.1820 C   0  0  0  0  0  0  0  0  0  0  0  0
  192.3640  172.0980  135.5190 C   0  0  0  0  0  1  0  0  0  0  0  0
  193.1970  172.8380  136.4590 N   0  0  0  0  0  0  0  0  0  0  0  0
  193.9290  171.8250  137.2110 C   0  0  0  0  0  2  0  0  0  0  0  0
  193.9330  170.5200  136.4400 C   0  0  0  0  0  1  0  0  0  0  0  0
  1 10  2  0  0  0  0
  1 20  1  0  0  0  0
  2 24  1  6  0  0  0
  2 27  1  0  0  0  0
  3  4  1  0  0  0  0
  4 21  2  0  0  0  0
  5 25  1  1  0  0  0
  5  6  1  0  0  0  0
  6 18  1  0  0  0  0
  7 19  1  0  0  0  0
  7 24  1  0  0  0  0
  9 15  2  0  0  0  0
  9 26  1  0  0  0  0
 10 17  1  0  0  0  0
 11  3  2  0  0  0  0
 11 13  1  0  0  0  0
 12  8  1  6  0  0  0
 12 13  1  0  0  0  0
 12  2  1  0  0  0  0
 13 22  2  0  0  0  0
 14 22  1  6  0  0  0
 14 28  1  0  0  0  0
 16 19  2  0  0  0  0
 17  8  1  0  0  0  0
 17  7  2  0  0  0  0
 18 15  1  0  0  0  0
 20 30  1  1  0  0  0
 20 16  1  0  0  0  0
 22 21  1  0  0  0  0
 23  9  1  0  0  0  0
 27 14  1  0  0  0  0
 27  5  1  0  0  0  0
 28 23  2  0  0  0  0
 28  6  1  0  0  0  0
 29 30  1  0  0  0  0
 30 31  1  0  0  0  0
 32 31  1  0  0  0  0
M  END
>  <MODEL>
9

>  <REMARK>
 VINA RESULT:      -7.2      4.989      8.873
  Name = 
  2 active torsions:
  status: ('A' for Active; 'I' for Inactive)
    1  A    between atoms: C_1  and  N_20
    2  A    between atoms: N_20  and  C_24
                            x       y       z     vdW  Elec       q    Type
                         _______ _______ _______ _____ _____    ______ ____

>  <TORSDO>
F 2

$$$$
