=
 OpenBabel10252414493D

 34 39  0  0  1  0  0  0  0  0999 V2000
  189.3460  177.1850  146.1540 C   0  0  0  0  0  0  0  0  0  0  0  0
  191.1330  176.5370  144.5060 C   0  0  2  0  0  3  0  0  0  0  0  0
  188.8360  177.5120  143.7940 C   0  0  0  0  0  0  0  0  0  0  0  0
  188.2970  178.0420  141.4920 C   0  0  0  0  0  0  0  0  0  0  0  0
  191.6800  177.0250  146.8740 N   0  0  0  0  0  2  0  0  0  0  0  0
  191.9080  176.1090  145.7620 C   0  0  0  0  0  2  0  0  0  0  0  0
  190.5080  177.5890  141.8980 N   0  0  0  0  0  2  0  0  0  0  0  0
  189.7470  177.1000  144.8090 C   0  0  0  0  0  0  0  0  0  0  0  0
  188.9410  178.1790  140.1620 C   0  0  0  0  0  2  0  0  0  0  0  0
  190.3120  176.9790  147.1850 N   0  0  0  0  0  2  0  0  0  0  0  0
  187.4790  177.8030  144.1430 C   0  0  0  0  0  0  0  0  0  0  0  0
  188.0340  177.5020  146.4920 C   0  0  0  0  0  3  0  0  0  0  0  0
  191.0160  175.2960  143.6360 C   0  0  0  0  0  1  0  0  0  0  0  0
  186.9660  178.2780  141.8020 C   0  0  0  0  0  3  0  0  0  0  0  0
  186.5310  178.1530  143.1330 C   0  0  0  0  0  0  0  0  0  0  0  0
  190.4220  177.8770  140.4670 C   0  0  2  0  0  3  0  0  0  0  0  0
  189.2040  177.6780  142.4440 C   0  0  0  0  0  0  0  0  0  0  0  0
  187.1090  177.7890  145.4950 C   0  0  0  0  0  3  0  0  0  0  0  0
  182.7910  178.6590  142.6660 C   0  0  0  0  0  0  0  0  0  0  0  0
  182.3930  178.9660  143.9680 C   0  0  0  0  0  3  0  0  0  0  0  0
  185.0930  178.4100  143.4160 C   0  0  0  0  0  0  0  0  0  0  0  0
  183.3380  179.0030  144.9960 C   0  0  0  0  0  3  0  0  0  0  0  0
  184.1350  178.3880  142.3910 C   0  0  0  0  0  3  0  0  0  0  0  0
  184.6810  178.7310  144.7200 C   0  0  0  0  0  3  0  0  0  0  0  0
  181.8540  178.6260  141.6430 O   0  0  0  0  0  1  0  0  0  0  0  0
  190.9400  176.6990  139.6440 C   0  0  0  0  0  2  0  0  0  0  0  0
  190.4920  176.7680  138.1900 C   0  0  0  0  0  2  0  0  0  0  0  0
  190.5570  174.0000  137.5940 O   0  0  0  0  0  0  0  0  0  0  0  0
  191.5580  176.1780  137.2800 C   0  0  2  0  0  3  0  0  0  0  0  0
  191.6070  174.6750  137.4170 C   0  0  0  0  0  0  0  0  0  0  0  0
  194.0880  174.7870  137.0830 C   0  0  0  0  0  2  0  0  0  0  0  0
  193.7530  176.2280  136.6910 C   0  0  0  0  0  2  0  0  0  0  0  0
  192.8110  176.7460  137.5980 O   0  0  0  0  0  0  0  0  0  0  0  0
  192.8570  174.0130  137.2170 N   0  0  0  0  0  2  0  0  0  0  0  0
  1 12  1  0  0  0  0
  1 10  1  0  0  0  0
  2 13  1  6  0  0  0
  2  8  1  0  0  0  0
  2  6  1  0  0  0  0
  3 11  1  0  0  0  0
  3  8  1  0  0  0  0
  4 14  2  0  0  0  0
  4 17  1  0  0  0  0
  5 10  1  0  0  0  0
  6  5  1  0  0  0  0
  7 17  1  0  0  0  0
  8  1  2  0  0  0  0
  9 16  1  0  0  0  0
  9  4  1  0  0  0  0
 11 18  1  0  0  0  0
 14 15  1  0  0  0  0
 15 21  1  0  0  0  0
 15 11  2  0  0  0  0
 16 26  1  6  0  0  0
 16  7  1  0  0  0  0
 17  3  2  0  0  0  0
 18 12  2  0  0  0  0
 19 20  1  0  0  0  0
 20 22  2  0  0  0  0
 21 24  2  0  0  0  0
 23 19  2  0  0  0  0
 23 21  1  0  0  0  0
 24 22  1  0  0  0  0
 25 19  1  0  0  0  0
 27 26  1  0  0  0  0
 29 30  1  0  0  0  0
 29 33  1  0  0  0  0
 29 27  1  1  0  0  0
 30 28  2  0  0  0  0
 31 34  1  0  0  0  0
 32 31  1  0  0  0  0
 32 33  1  0  0  0  0
 34 30  1  0  0  0  0
M  END
>  <MODEL>
1

>  <REMARK>
 VINA RESULT:     -11.7      0.000      0.000
  Name = 
  4 active torsions:
  status: ('A' for Active; 'I' for Inactive)
    1  A    between atoms: C_3  and  C_13
    2  A    between atoms: C_3  and  C_17
    3  A    between atoms: C_12  and  C_28
    4  A    between atoms: C_17  and  C_29
                            x       y       z     vdW  Elec       q    Type
                         _______ _______ _______ _____ _____    ______ ____

>  <TORSDO>
F 4

$$$$
=
 OpenBabel10252414493D

 34 39  0  0  1  0  0  0  0  0999 V2000
  189.4150  177.1710  146.2110 C   0  0  0  0  0  0  0  0  0  0  0  0
  191.2100  176.4520  144.6020 C   0  0  2  0  0  3  0  0  0  0  0  0
  188.9320  177.4330  143.8380 C   0  0  0  0  0  0  0  0  0  0  0  0
  188.4230  177.9000  141.5150 C   0  0  0  0  0  0  0  0  0  0  0  0
  191.7390  177.0050  146.9600 N   0  0  0  0  0  2  0  0  0  0  0  0
  191.9670  176.0530  145.8780 C   0  0  0  0  0  2  0  0  0  0  0  0
  190.6230  177.4320  141.9570 N   0  0  0  0  0  2  0  0  0  0  0  0
  189.8280  177.0400  144.8730 C   0  0  0  0  0  0  0  0  0  0  0  0
  189.0810  177.9890  140.1890 C   0  0  0  0  0  2  0  0  0  0  0  0
  190.3680  176.9850  147.2580 N   0  0  0  0  0  2  0  0  0  0  0  0
  187.5760  177.7510  144.1640 C   0  0  0  0  0  0  0  0  0  0  0  0
  188.1040  177.5140  146.5260 C   0  0  0  0  0  3  0  0  0  0  0  0
  191.0850  175.1860  143.7690 C   0  0  0  0  0  1  0  0  0  0  0  0
  187.0920  178.1610  141.8040 C   0  0  0  0  0  3  0  0  0  0  0  0
  186.6420  178.0820  143.1330 C   0  0  0  0  0  0  0  0  0  0  0  0
  190.5550  177.6780  140.5170 C   0  0  2  0  0  3  0  0  0  0  0  0
  189.3160  177.5530  142.4870 C   0  0  0  0  0  0  0  0  0  0  0  0
  187.1920  177.7830  145.5120 C   0  0  0  0  0  3  0  0  0  0  0  0
  182.9230  178.6720  142.6060 C   0  0  0  0  0  0  0  0  0  0  0  0
  182.5070  178.9690  143.9050 C   0  0  0  0  0  3  0  0  0  0  0  0
  185.2050  178.3640  143.3940 C   0  0  0  0  0  0  0  0  0  0  0  0
  183.4340  178.9720  144.9500 C   0  0  0  0  0  3  0  0  0  0  0  0
  184.2650  178.3770  142.3510 C   0  0  0  0  0  3  0  0  0  0  0  0
  184.7750  178.6760  144.6950 C   0  0  0  0  0  3  0  0  0  0  0  0
  182.0040  178.6730  141.5650 O   0  0  0  0  0  1  0  0  0  0  0  0
  191.0670  176.4690  139.7360 C   0  0  0  0  0  2  0  0  0  0  0  0
  191.4840  176.8320  138.3160 C   0  0  0  0  0  2  0  0  0  0  0  0
  189.3700  177.6300  136.6100 O   0  0  0  0  0  0  0  0  0  0  0  0
  190.8630  175.8660  137.3200 C   0  0  2  0  0  3  0  0  0  0  0  0
  189.5450  176.3980  136.8100 C   0  0  0  0  0  0  0  0  0  0  0  0
  188.6960  174.0410  136.7290 C   0  0  0  0  0  2  0  0  0  0  0  0
  190.1760  173.7290  136.9630 C   0  0  0  0  0  2  0  0  0  0  0  0
  190.6850  174.6080  137.9350 O   0  0  0  0  0  0  0  0  0  0  0  0
  188.5310  175.4630  136.4360 N   0  0  0  0  0  2  0  0  0  0  0  0
  1 12  1  0  0  0  0
  1 10  1  0  0  0  0
  2 13  1  6  0  0  0
  2  8  1  0  0  0  0
  2  6  1  0  0  0  0
  3 11  1  0  0  0  0
  3  8  1  0  0  0  0
  4 14  2  0  0  0  0
  4 17  1  0  0  0  0
  5 10  1  0  0  0  0
  6  5  1  0  0  0  0
  7 17  1  0  0  0  0
  8  1  2  0  0  0  0
  9 16  1  0  0  0  0
  9  4  1  0  0  0  0
 11 18  1  0  0  0  0
 14 15  1  0  0  0  0
 15 21  1  0  0  0  0
 15 11  2  0  0  0  0
 16 26  1  6  0  0  0
 16  7  1  0  0  0  0
 17  3  2  0  0  0  0
 18 12  2  0  0  0  0
 19 20  1  0  0  0  0
 20 22  2  0  0  0  0
 21 24  2  0  0  0  0
 23 19  2  0  0  0  0
 23 21  1  0  0  0  0
 24 22  1  0  0  0  0
 25 19  1  0  0  0  0
 27 26  1  0  0  0  0
 28 30  2  0  0  0  0
 29 33  1  0  0  0  0
 29 27  1  1  0  0  0
 30 29  1  0  0  0  0
 31 32  1  0  0  0  0
 32 33  1  0  0  0  0
 34 31  1  0  0  0  0
 34 30  1  0  0  0  0
M  END
>  <MODEL>
2

>  <REMARK>
 VINA RESULT:     -11.5      1.273      1.756
  Name = 
  4 active torsions:
  status: ('A' for Active; 'I' for Inactive)
    1  A    between atoms: C_3  and  C_13
    2  A    between atoms: C_3  and  C_17
    3  A    between atoms: C_12  and  C_28
    4  A    between atoms: C_17  and  C_29
                            x       y       z     vdW  Elec       q    Type
                         _______ _______ _______ _____ _____    ______ ____

>  <TORSDO>
F 4

$$$$
=
 OpenBabel10252414493D

 34 39  0  0  1  0  0  0  0  0999 V2000
  184.2050  178.7620  144.7700 C   0  0  0  0  0  0  0  0  0  0  0  0
  186.6240  178.1050  144.9850 C   0  0  2  0  0  3  0  0  0  0  0  0
  185.4620  178.5020  142.6990 C   0  0  0  0  0  0  0  0  0  0  0  0
  186.6610  178.4430  140.5940 C   0  0  0  0  0  0  0  0  0  0  0  0
  185.4030  179.1590  146.8670 N   0  0  0  0  0  2  0  0  0  0  0  0
  186.3160  178.0860  146.4900 C   0  0  0  0  0  2  0  0  0  0  0  0
  187.9800  178.4700  142.4700 N   0  0  0  0  0  2  0  0  0  0  0  0
  185.4190  178.4710  144.1230 C   0  0  0  0  0  0  0  0  0  0  0  0
  188.0440  178.4100  140.0600 C   0  0  0  0  0  2  0  0  0  0  0  0
  184.1950  178.9440  146.1860 N   0  0  0  0  0  2  0  0  0  0  0  0
  184.2410  178.6210  141.9610 C   0  0  0  0  0  0  0  0  0  0  0  0
  183.0260  178.9120  144.0480 C   0  0  0  0  0  3  0  0  0  0  0  0
  187.1140  176.7090  144.6340 C   0  0  0  0  0  1  0  0  0  0  0  0
  185.4850  178.5050  139.8610 C   0  0  0  0  0  3  0  0  0  0  0  0
  184.2530  178.5860  140.5320 C   0  0  0  0  0  0  0  0  0  0  0  0
  188.9060  178.4370  141.3380 C   0  0  2  0  0  3  0  0  0  0  0  0
  186.6600  178.4450  141.9590 C   0  0  0  0  0  0  0  0  0  0  0  0
  183.0440  178.8240  142.6610 C   0  0  0  0  0  3  0  0  0  0  0  0
  181.0750  177.5690  138.7090 C   0  0  0  0  0  0  0  0  0  0  0  0
  180.7280  178.7660  138.0780 C   0  0  0  0  0  3  0  0  0  0  0  0
  183.0190  178.6450  139.7040 C   0  0  0  0  0  0  0  0  0  0  0  0
  181.5240  179.9010  138.2500 C   0  0  0  0  0  3  0  0  0  0  0  0
  182.2170  177.5080  139.5130 C   0  0  0  0  0  3  0  0  0  0  0  0
  182.6640  179.8390  139.0550 C   0  0  0  0  0  3  0  0  0  0  0  0
  180.2880  176.4390  138.5350 O   0  0  0  0  0  1  0  0  0  0  0  0
  189.8260  177.2210  141.4260 C   0  0  0  0  0  2  0  0  0  0  0  0
  191.0270  177.4680  142.3300 C   0  0  0  0  0  2  0  0  0  0  0  0
  190.1840  178.6660  144.7540 O   0  0  0  0  0  0  0  0  0  0  0  0
  190.9000  176.6600  143.6110 C   0  0  2  0  0  3  0  0  0  0  0  0
  190.8030  177.5710  144.8120 C   0  0  0  0  0  0  0  0  0  0  0  0
  192.1050  175.8760  146.1230 C   0  0  0  0  0  2  0  0  0  0  0  0
  191.8180  175.0190  144.8890 C   0  0  0  0  0  2  0  0  0  0  0  0
  192.0090  175.7950  143.7320 O   0  0  0  0  0  0  0  0  0  0  0  0
  191.3250  177.1100  146.0600 N   0  0  0  0  0  2  0  0  0  0  0  0
  1 10  1  0  0  0  0
  2 13  1  6  0  0  0
  2  6  1  0  0  0  0
  3  8  2  0  0  0  0
  4 17  2  0  0  0  0
  6  5  1  0  0  0  0
  8  1  1  0  0  0  0
  8  2  1  0  0  0  0
  9  4  1  0  0  0  0
  9 16  1  0  0  0  0
 10  5  1  0  0  0  0
 11 18  2  0  0  0  0
 11  3  1  0  0  0  0
 12  1  2  0  0  0  0
 14 15  2  0  0  0  0
 14  4  1  0  0  0  0
 15 11  1  0  0  0  0
 16 26  1  1  0  0  0
 16  7  1  0  0  0  0
 17  7  1  0  0  0  0
 17  3  1  0  0  0  0
 18 12  1  0  0  0  0
 19 23  1  0  0  0  0
 20 22  1  0  0  0  0
 20 19  2  0  0  0  0
 21 15  1  0  0  0  0
 22 24  2  0  0  0  0
 23 21  2  0  0  0  0
 24 21  1  0  0  0  0
 25 19  1  0  0  0  0
 26 27  1  0  0  0  0
 28 30  2  0  0  0  0
 29 27  1  6  0  0  0
 29 33  1  0  0  0  0
 29 30  1  0  0  0  0
 30 34  1  0  0  0  0
 32 31  1  0  0  0  0
 33 32  1  0  0  0  0
 34 31  1  0  0  0  0
M  END
>  <MODEL>
3

>  <REMARK>
 VINA RESULT:     -10.7      3.220      5.490
  Name = 
  4 active torsions:
  status: ('A' for Active; 'I' for Inactive)
    1  A    between atoms: C_3  and  C_13
    2  A    between atoms: C_3  and  C_17
    3  A    between atoms: C_12  and  C_28
    4  A    between atoms: C_17  and  C_29
                            x       y       z     vdW  Elec       q    Type
                         _______ _______ _______ _____ _____    ______ ____

>  <TORSDO>
F 4

$$$$
=
 OpenBabel10252414493D

 34 39  0  0  1  0  0  0  0  0999 V2000
  186.9780  178.2680  140.3680 C   0  0  0  0  0  0  0  0  0  0  0  0
  184.4730  178.4590  140.2450 C   0  0  2  0  0  3  0  0  0  0  0  0
  185.7750  178.3480  142.4860 C   0  0  0  0  0  0  0  0  0  0  0  0
  184.6950  178.5980  144.6400 C   0  0  0  0  0  0  0  0  0  0  0  0
  185.9120  179.1300  138.3410 N   0  0  0  0  0  2  0  0  0  0  0  0
  184.7060  178.4050  138.7270 C   0  0  0  0  0  2  0  0  0  0  0  0
  183.3990  179.1430  142.8290 N   0  0  0  0  0  2  0  0  0  0  0  0
  185.7580  178.3670  141.0610 C   0  0  0  0  0  0  0  0  0  0  0  0
  183.3980  179.0020  145.2360 C   0  0  0  0  0  2  0  0  0  0  0  0
  187.0010  178.4970  138.9600 N   0  0  0  0  0  2  0  0  0  0  0  0
  186.9890  178.0230  143.1700 C   0  0  0  0  0  0  0  0  0  0  0  0
  188.1630  177.9870  141.0400 C   0  0  0  0  0  3  0  0  0  0  0  0
  183.5580  177.2900  140.5750 C   0  0  0  0  0  1  0  0  0  0  0  0
  185.8480  178.2350  145.3200 C   0  0  0  0  0  3  0  0  0  0  0  0
  187.0140  177.9320  144.5970 C   0  0  0  0  0  0  0  0  0  0  0  0
  182.5530  179.3690  144.0000 C   0  0  2  0  0  3  0  0  0  0  0  0
  184.6520  178.6590  143.2780 C   0  0  0  0  0  0  0  0  0  0  0  0
  188.1630  177.8490  142.4240 C   0  0  0  0  0  3  0  0  0  0  0  0
  190.5230  176.7470  145.4570 C   0  0  0  0  0  0  0  0  0  0  0  0
  190.4740  176.7420  146.8530 C   0  0  0  0  0  3  0  0  0  0  0  0
  188.2240  177.5420  145.3690 C   0  0  0  0  0  0  0  0  0  0  0  0
  189.3050  177.1290  147.5110 C   0  0  0  0  0  3  0  0  0  0  0  0
  189.4020  177.1390  144.7200 C   0  0  0  0  0  3  0  0  0  0  0  0
  188.1850  177.5220  146.7730 C   0  0  0  0  0  3  0  0  0  0  0  0
  191.6830  176.3580  144.8020 O   0  0  0  0  0  1  0  0  0  0  0  0
  181.2780  178.5320  143.9170 C   0  0  0  0  0  2  0  0  0  0  0  0
  180.3280  179.0300  142.8360 C   0  0  0  0  0  2  0  0  0  0  0  0
  180.8300  180.0070  140.2260 O   0  0  0  0  0  0  0  0  0  0  0  0
  180.3610  178.0990  141.6340 C   0  0  2  0  0  3  0  0  0  0  0  0
  180.2720  178.8840  140.3470 C   0  0  0  0  0  0  0  0  0  0  0  0
  178.9350  177.0040  139.3660 C   0  0  0  0  0  2  0  0  0  0  0  0
  179.4050  176.2930  140.6370 C   0  0  0  0  0  2  0  0  0  0  0  0
  179.2970  177.1760  141.7270 O   0  0  0  0  0  0  0  0  0  0  0  0
  179.6450  178.2720  139.2180 N   0  0  0  0  0  2  0  0  0  0  0  0
  1 12  2  0  0  0  0
  1  8  1  0  0  0  0
  2 13  1  1  0  0  0
  2  8  1  0  0  0  0
  3 11  1  0  0  0  0
  3 17  1  0  0  0  0
  4  9  1  0  0  0  0
  4 14  1  0  0  0  0
  5  6  1  0  0  0  0
  5 10  1  0  0  0  0
  6  2  1  0  0  0  0
  7 17  1  0  0  0  0
  7 16  1  0  0  0  0
  8  3  2  0  0  0  0
 10  1  1  0  0  0  0
 11 15  1  0  0  0  0
 12 18  1  0  0  0  0
 15 14  2  0  0  0  0
 15 21  1  0  0  0  0
 16 26  1  6  0  0  0
 16  9  1  0  0  0  0
 17  4  2  0  0  0  0
 18 11  2  0  0  0  0
 19 20  1  0  0  0  0
 20 22  2  0  0  0  0
 21 24  2  0  0  0  0
 23 21  1  0  0  0  0
 23 19  2  0  0  0  0
 24 22  1  0  0  0  0
 25 19  1  0  0  0  0
 27 26  1  0  0  0  0
 28 30  2  0  0  0  0
 29 33  1  0  0  0  0
 29 27  1  1  0  0  0
 30 29  1  0  0  0  0
 31 32  1  0  0  0  0
 32 33  1  0  0  0  0
 34 31  1  0  0  0  0
 34 30  1  0  0  0  0
M  END
>  <MODEL>
4

>  <REMARK>
 VINA RESULT:     -10.5      4.160      8.953
  Name = 
  4 active torsions:
  status: ('A' for Active; 'I' for Inactive)
    1  A    between atoms: C_3  and  C_13
    2  A    between atoms: C_3  and  C_17
    3  A    between atoms: C_12  and  C_28
    4  A    between atoms: C_17  and  C_29
                            x       y       z     vdW  Elec       q    Type
                         _______ _______ _______ _____ _____    ______ ____

>  <TORSDO>
F 4

$$$$
=
 OpenBabel10252414493D

 34 39  0  0  1  0  0  0  0  0999 V2000
  188.1700  177.5400  145.6100 C   0  0  0  0  0  0  0  0  0  0  0  0
  190.0020  176.9120  144.0050 C   0  0  2  0  0  3  0  0  0  0  0  0
  187.6880  177.7980  143.2350 C   0  0  0  0  0  0  0  0  0  0  0  0
  187.1710  178.2580  140.9140 C   0  0  0  0  0  0  0  0  0  0  0  0
  190.4950  177.4700  146.3700 N   0  0  0  0  0  2  0  0  0  0  0  0
  190.7700  176.5370  145.2830 C   0  0  0  0  0  2  0  0  0  0  0  0
  189.3870  177.8840  141.3640 N   0  0  0  0  0  2  0  0  0  0  0  0
  188.5950  177.4370  144.2730 C   0  0  0  0  0  0  0  0  0  0  0  0
  187.8320  178.3860  139.5910 C   0  0  0  0  0  2  0  0  0  0  0  0
  189.1240  177.3880  146.6600 N   0  0  0  0  0  2  0  0  0  0  0  0
  186.3180  178.0530  143.5560 C   0  0  0  0  0  0  0  0  0  0  0  0
  186.8430  177.8230  145.9200 C   0  0  0  0  0  3  0  0  0  0  0  0
  189.9380  175.6480  143.1630 C   0  0  0  0  0  1  0  0  0  0  0  0
  185.8280  178.4590  141.1970 C   0  0  0  0  0  3  0  0  0  0  0  0
  185.3760  178.3510  142.5230 C   0  0  0  0  0  0  0  0  0  0  0  0
  189.3160  178.1380  139.9260 C   0  0  2  0  0  3  0  0  0  0  0  0
  188.0730  177.9440  141.8870 C   0  0  0  0  0  0  0  0  0  0  0  0
  185.9260  178.0580  144.9020 C   0  0  0  0  0  3  0  0  0  0  0  0
  181.6480  178.8610  141.9730 C   0  0  0  0  0  0  0  0  0  0  0  0
  181.2020  179.0480  143.2830 C   0  0  0  0  0  3  0  0  0  0  0  0
  183.9260  178.5680  142.7780 C   0  0  0  0  0  0  0  0  0  0  0  0
  182.1120  179.0030  144.3420 C   0  0  0  0  0  3  0  0  0  0  0  0
  183.0030  178.6280  141.7220 C   0  0  0  0  0  3  0  0  0  0  0  0
  183.4660  178.7690  144.0900 C   0  0  0  0  0  3  0  0  0  0  0  0
  180.7460  178.9100  140.9200 O   0  0  0  0  0  1  0  0  0  0  0  0
  189.8840  176.9580  139.1390 C   0  0  0  0  0  2  0  0  0  0  0  0
  191.3890  176.8100  139.3240 C   0  0  0  0  0  2  0  0  0  0  0  0
  194.1770  176.3500  139.1380 O   0  0  0  0  0  0  0  0  0  0  0  0
  191.9830  175.9940  138.1870 C   0  0  2  0  0  3  0  0  0  0  0  0
  193.4770  176.2040  138.1010 C   0  0  0  0  0  0  0  0  0  0  0  0
  193.2970  176.0110  135.6090 C   0  0  0  0  0  2  0  0  0  0  0  0
  191.8870  175.5320  135.9630 C   0  0  0  0  0  2  0  0  0  0  0  0
  191.3600  176.3570  136.9740 O   0  0  0  0  0  0  0  0  0  0  0  0
  194.1050  176.1090  136.8210 N   0  0  0  0  0  2  0  0  0  0  0  0
  1 12  1  0  0  0  0
  1 10  1  0  0  0  0
  2 13  1  6  0  0  0
  2  8  1  0  0  0  0
  2  6  1  0  0  0  0
  3 11  1  0  0  0  0
  3  8  1  0  0  0  0
  4 14  2  0  0  0  0
  4 17  1  0  0  0  0
  5 10  1  0  0  0  0
  6  5  1  0  0  0  0
  7 17  1  0  0  0  0
  8  1  2  0  0  0  0
  9 16  1  0  0  0  0
  9  4  1  0  0  0  0
 11 18  1  0  0  0  0
 14 15  1  0  0  0  0
 15 21  1  0  0  0  0
 15 11  2  0  0  0  0
 16 26  1  6  0  0  0
 16  7  1  0  0  0  0
 17  3  2  0  0  0  0
 18 12  2  0  0  0  0
 19 20  1  0  0  0  0
 20 22  2  0  0  0  0
 21 24  2  0  0  0  0
 23 19  2  0  0  0  0
 23 21  1  0  0  0  0
 24 22  1  0  0  0  0
 25 19  1  0  0  0  0
 26 27  1  0  0  0  0
 29 27  1  1  0  0  0
 30 29  1  0  0  0  0
 30 28  2  0  0  0  0
 31 32  1  0  0  0  0
 31 34  1  0  0  0  0
 32 33  1  0  0  0  0
 33 29  1  0  0  0  0
 34 30  1  0  0  0  0
M  END
>  <MODEL>
5

>  <REMARK>
 VINA RESULT:     -10.5      1.213      1.656
  Name = 
  4 active torsions:
  status: ('A' for Active; 'I' for Inactive)
    1  A    between atoms: C_3  and  C_13
    2  A    between atoms: C_3  and  C_17
    3  A    between atoms: C_12  and  C_28
    4  A    between atoms: C_17  and  C_29
                            x       y       z     vdW  Elec       q    Type
                         _______ _______ _______ _____ _____    ______ ____

>  <TORSDO>
F 4

$$$$
=
 OpenBabel10252414493D

 34 39  0  0  1  0  0  0  0  0999 V2000
  183.9660  178.7910  144.8260 C   0  0  0  0  0  0  0  0  0  0  0  0
  186.4090  178.2480  144.5720 C   0  0  2  0  0  3  0  0  0  0  0  0
  184.8110  178.5630  142.5530 C   0  0  0  0  0  0  0  0  0  0  0  0
  185.5840  178.5350  140.2570 C   0  0  0  0  0  0  0  0  0  0  0  0
  185.5250  179.2680  146.6520 N   0  0  0  0  0  2  0  0  0  0  0  0
  186.3980  178.2330  146.1090 C   0  0  0  0  0  2  0  0  0  0  0  0
  187.2370  178.6450  141.8420 N   0  0  0  0  0  2  0  0  0  0  0  0
  185.0450  178.5480  143.9580 C   0  0  0  0  0  0  0  0  0  0  0  0
  186.8390  178.5590  139.4650 C   0  0  0  0  0  2  0  0  0  0  0  0
  184.2190  178.9890  146.2170 N   0  0  0  0  0  2  0  0  0  0  0  0
  183.4680  178.6170  142.0640 C   0  0  0  0  0  0  0  0  0  0  0  0
  182.6630  178.8770  144.3440 C   0  0  0  0  0  3  0  0  0  0  0  0
  186.8880  176.8720  144.1380 C   0  0  0  0  0  1  0  0  0  0  0  0
  184.2880  178.5330  139.7640 C   0  0  0  0  0  3  0  0  0  0  0  0
  183.2060  178.5660  140.6590 C   0  0  0  0  0  0  0  0  0  0  0  0
  187.9280  178.6410  140.5540 C   0  0  2  0  0  3  0  0  0  0  0  0
  185.8460  178.5530  141.5960 C   0  0  0  0  0  0  0  0  0  0  0  0
  182.4180  178.7730  142.9800 C   0  0  0  0  0  3  0  0  0  0  0  0
  179.9330  179.7190  139.1060 C   0  0  0  0  0  0  0  0  0  0  0  0
  179.2120  178.5240  139.0680 C   0  0  0  0  0  3  0  0  0  0  0  0
  181.8330  178.5570  140.0850 C   0  0  0  0  0  0  0  0  0  0  0  0
  179.7920  177.3450  139.5420 C   0  0  0  0  0  3  0  0  0  0  0  0
  181.2330  179.7360  139.6170 C   0  0  0  0  0  3  0  0  0  0  0  0
  181.0930  177.3630  140.0510 C   0  0  0  0  0  3  0  0  0  0  0  0
  179.3550  180.8920  138.6390 O   0  0  0  0  0  1  0  0  0  0  0  0
  188.9050  177.4700  140.4660 C   0  0  0  0  0  2  0  0  0  0  0  0
  189.0420  176.7310  141.7910 C   0  0  0  0  0  2  0  0  0  0  0  0
  190.6520  174.8040  143.1000 O   0  0  0  0  0  0  0  0  0  0  0  0
  190.3400  177.1200  142.4810 C   0  0  2  0  0  3  0  0  0  0  0  0
  190.8080  176.0170  143.4010 C   0  0  0  0  0  0  0  0  0  0  0  0
  191.6730  177.7750  144.9650 C   0  0  0  0  0  2  0  0  0  0  0  0
  191.3860  178.6780  143.7640 C   0  0  0  0  0  2  0  0  0  0  0  0
  190.1480  178.3190  143.2000 O   0  0  0  0  0  0  0  0  0  0  0  0
  191.5480  176.3740  144.5700 N   0  0  0  0  0  2  0  0  0  0  0  0
  1 10  1  0  0  0  0
  2 13  1  6  0  0  0
  2  6  1  0  0  0  0
  3  8  1  0  0  0  0
  4 17  1  0  0  0  0
  6  5  1  0  0  0  0
  8  2  1  0  0  0  0
  8  1  2  0  0  0  0
  9  4  1  0  0  0  0
  9 16  1  0  0  0  0
 10  5  1  0  0  0  0
 11  3  1  0  0  0  0
 11 18  1  0  0  0  0
 12  1  1  0  0  0  0
 14  4  2  0  0  0  0
 14 15  1  0  0  0  0
 15 11  2  0  0  0  0
 16 26  1  1  0  0  0
 16  7  1  0  0  0  0
 17  7  1  0  0  0  0
 17  3  2  0  0  0  0
 18 12  2  0  0  0  0
 19 23  1  0  0  0  0
 20 19  2  0  0  0  0
 20 22  1  0  0  0  0
 21 15  1  0  0  0  0
 22 24  2  0  0  0  0
 23 21  2  0  0  0  0
 24 21  1  0  0  0  0
 25 19  1  0  0  0  0
 26 27  1  0  0  0  0
 28 30  2  0  0  0  0
 29 27  1  1  0  0  0
 29 33  1  0  0  0  0
 29 30  1  0  0  0  0
 30 34  1  0  0  0  0
 32 31  1  0  0  0  0
 33 32  1  0  0  0  0
 34 31  1  0  0  0  0
M  END
>  <MODEL>
6

>  <REMARK>
 VINA RESULT:     -10.4      3.234      5.314
  Name = 
  4 active torsions:
  status: ('A' for Active; 'I' for Inactive)
    1  A    between atoms: C_3  and  C_13
    2  A    between atoms: C_3  and  C_17
    3  A    between atoms: C_12  and  C_28
    4  A    between atoms: C_17  and  C_29
                            x       y       z     vdW  Elec       q    Type
                         _______ _______ _______ _____ _____    ______ ____

>  <TORSDO>
F 4

$$$$
=
 OpenBabel10252414493D

 34 39  0  0  1  0  0  0  0  0999 V2000
  185.8380  178.2720  146.0620 C   0  0  0  0  0  0  0  0  0  0  0  0
  187.9820  177.6400  144.9080 C   0  0  2  0  0  3  0  0  0  0  0  0
  185.8310  178.3200  143.6260 C   0  0  0  0  0  0  0  0  0  0  0  0
  185.7690  178.5720  141.2170 C   0  0  0  0  0  0  0  0  0  0  0  0
  187.9640  178.4040  147.2660 N   0  0  0  0  0  2  0  0  0  0  0  0
  188.4940  177.4110  146.3390 C   0  0  0  0  0  2  0  0  0  0  0  0
  187.8650  178.3710  142.1240 N   0  0  0  0  0  2  0  0  0  0  0  0
  186.5270  178.0950  144.8490 C   0  0  0  0  0  0  0  0  0  0  0  0
  186.6750  178.6400  140.0440 C   0  0  0  0  0  2  0  0  0  0  0  0
  186.5680  178.2590  147.2880 N   0  0  0  0  0  2  0  0  0  0  0  0
  184.4130  178.5130  143.6480 C   0  0  0  0  0  0  0  0  0  0  0  0
  184.4640  178.4940  146.0800 C   0  0  0  0  0  3  0  0  0  0  0  0
  188.1460  176.3150  144.1810 C   0  0  0  0  0  1  0  0  0  0  0  0
  184.3890  178.7090  141.2130 C   0  0  0  0  0  3  0  0  0  0  0  0
  183.6850  178.6730  142.4290 C   0  0  0  0  0  0  0  0  0  0  0  0
  188.0720  178.5110  140.6830 C   0  0  2  0  0  3  0  0  0  0  0  0
  186.4710  178.3880  142.3720 C   0  0  0  0  0  0  0  0  0  0  0  0
  183.7600  178.5950  144.8860 C   0  0  0  0  0  3  0  0  0  0  0  0
  180.0420  178.9510  143.4820 C   0  0  0  0  0  0  0  0  0  0  0  0
  179.4040  179.0220  142.2410 C   0  0  0  0  0  3  0  0  0  0  0  0
  182.2060  178.8180  142.3750 C   0  0  0  0  0  0  0  0  0  0  0  0
  180.1590  178.9850  141.0660 C   0  0  0  0  0  3  0  0  0  0  0  0
  181.4340  178.8430  143.5470 C   0  0  0  0  0  3  0  0  0  0  0  0
  181.5500  178.8790  141.1330 C   0  0  0  0  0  3  0  0  0  0  0  0
  179.2930  178.9830  144.6500 O   0  0  0  0  0  1  0  0  0  0  0  0
  188.8400  177.3130  140.1270 C   0  0  0  0  0  2  0  0  0  0  0  0
  189.8860  177.7230  139.0990 C   0  0  0  0  0  2  0  0  0  0  0  0
  188.9940  179.7860  137.3770 O   0  0  0  0  0  0  0  0  0  0  0  0
  189.3910  177.4230  137.6930 C   0  0  2  0  0  3  0  0  0  0  0  0
  188.6380  178.6040  137.1280 C   0  0  0  0  0  0  0  0  0  0  0  0
  187.1170  176.9930  135.9560 C   0  0  0  0  0  2  0  0  0  0  0  0
  188.1890  175.9940  136.3960 C   0  0  0  0  0  2  0  0  0  0  0  0
  188.5680  176.2770  137.7210 O   0  0  0  0  0  0  0  0  0  0  0  0
  187.5820  178.3560  136.1970 N   0  0  0  0  0  2  0  0  0  0  0  0
  1 12  1  0  0  0  0
  1 10  1  0  0  0  0
  2 13  1  6  0  0  0
  2  6  1  0  0  0  0
  3 11  1  0  0  0  0
  3  8  1  0  0  0  0
  4 17  1  0  0  0  0
  5 10  1  0  0  0  0
  6  5  1  0  0  0  0
  7 17  1  0  0  0  0
  8  2  1  0  0  0  0
  8  1  2  0  0  0  0
  9 16  1  0  0  0  0
  9  4  1  0  0  0  0
 11 18  1  0  0  0  0
 14  4  2  0  0  0  0
 14 15  1  0  0  0  0
 15 11  2  0  0  0  0
 16 26  1  6  0  0  0
 16  7  1  0  0  0  0
 17  3  2  0  0  0  0
 18 12  2  0  0  0  0
 19 23  1  0  0  0  0
 19 25  1  0  0  0  0
 20 19  2  0  0  0  0
 21 15  1  0  0  0  0
 21 23  2  0  0  0  0
 22 24  2  0  0  0  0
 22 20  1  0  0  0  0
 24 21  1  0  0  0  0
 27 26  1  0  0  0  0
 29 33  1  0  0  0  0
 29 27  1  1  0  0  0
 30 28  2  0  0  0  0
 30 29  1  0  0  0  0
 31 34  1  0  0  0  0
 31 32  1  0  0  0  0
 32 33  1  0  0  0  0
 34 30  1  0  0  0  0
M  END
>  <MODEL>
7

>  <REMARK>
 VINA RESULT:     -10.3      2.713      3.892
  Name = 
  4 active torsions:
  status: ('A' for Active; 'I' for Inactive)
    1  A    between atoms: C_3  and  C_13
    2  A    between atoms: C_3  and  C_17
    3  A    between atoms: C_12  and  C_28
    4  A    between atoms: C_17  and  C_29
                            x       y       z     vdW  Elec       q    Type
                         _______ _______ _______ _____ _____    ______ ____

>  <TORSDO>
F 4

$$$$
=
 OpenBabel10252414493D

 34 39  0  0  1  0  0  0  0  0999 V2000
  186.7640  178.2880  140.4040 C   0  0  0  0  0  0  0  0  0  0  0  0
  184.2890  178.3440  139.9610 C   0  0  2  0  0  3  0  0  0  0  0  0
  185.3010  178.3770  142.3500 C   0  0  0  0  0  0  0  0  0  0  0  0
  183.9460  178.6420  144.3410 C   0  0  0  0  0  0  0  0  0  0  0  0
  185.9240  179.0250  138.2270 N   0  0  0  0  0  2  0  0  0  0  0  0
  184.7150  178.2510  138.4880 C   0  0  0  0  0  2  0  0  0  0  0  0
  182.8660  179.0570  142.3620 N   0  0  0  0  0  2  0  0  0  0  0  0
  185.4640  178.3470  140.9350 C   0  0  0  0  0  0  0  0  0  0  0  0
  182.5670  178.9980  144.7540 C   0  0  0  0  0  2  0  0  0  0  0  0
  186.9550  178.4710  139.0010 N   0  0  0  0  0  2  0  0  0  0  0  0
  186.4330  178.1390  143.1930 C   0  0  0  0  0  0  0  0  0  0  0  0
  187.8670  178.0920  141.2290 C   0  0  0  0  0  3  0  0  0  0  0  0
  183.3960  177.1410  140.2210 C   0  0  0  0  0  1  0  0  0  0  0  0
  185.0200  178.3630  145.1740 C   0  0  0  0  0  3  0  0  0  0  0  0
  186.2810  178.0980  144.6140 C   0  0  0  0  0  0  0  0  0  0  0  0
  181.8680  179.2780  143.4080 C   0  0  2  0  0  3  0  0  0  0  0  0
  184.0730  178.6550  142.9830 C   0  0  0  0  0  0  0  0  0  0  0  0
  187.6980  178.0010  142.6060 C   0  0  0  0  0  3  0  0  0  0  0  0
  188.3440  177.7500  147.7890 C   0  0  0  0  0  0  0  0  0  0  0  0
  189.5570  177.2870  147.2770 C   0  0  0  0  0  3  0  0  0  0  0  0
  187.4010  177.7970  145.5460 C   0  0  0  0  0  0  0  0  0  0  0  0
  189.7020  177.0840  145.9020 C   0  0  0  0  0  3  0  0  0  0  0  0
  187.2740  178.0090  146.9280 C   0  0  0  0  0  3  0  0  0  0  0  0
  188.6310  177.3420  145.0420 C   0  0  0  0  0  3  0  0  0  0  0  0
  188.2010  177.9570  149.1540 O   0  0  0  0  0  1  0  0  0  0  0  0
  180.6550  178.3730  143.2010 C   0  0  0  0  0  2  0  0  0  0  0  0
  179.9520  178.6430  141.8770 C   0  0  0  0  0  2  0  0  0  0  0  0
  180.3490  179.0360  139.1010 O   0  0  0  0  0  0  0  0  0  0  0  0
  180.1420  177.4690  140.9290 C   0  0  2  0  0  3  0  0  0  0  0  0
  179.9610  177.9050  139.4940 C   0  0  0  0  0  0  0  0  0  0  0  0
  178.9310  175.6710  139.0120 C   0  0  0  0  0  2  0  0  0  0  0  0
  179.4790  175.3580  140.4060 C   0  0  0  0  0  2  0  0  0  0  0  0
  179.2240  176.4480  141.2580 O   0  0  0  0  0  0  0  0  0  0  0  0
  179.4490  176.9580  138.5550 N   0  0  0  0  0  2  0  0  0  0  0  0
  1  8  2  0  0  0  0
  1 12  1  0  0  0  0
  2 13  1  1  0  0  0
  2  8  1  0  0  0  0
  3 17  2  0  0  0  0
  3 11  1  0  0  0  0
  4  9  1  0  0  0  0
  4 14  2  0  0  0  0
  5  6  1  0  0  0  0
  5 10  1  0  0  0  0
  6  2  1  0  0  0  0
  7 17  1  0  0  0  0
  7 16  1  0  0  0  0
  8  3  1  0  0  0  0
 10  1  1  0  0  0  0
 11 15  2  0  0  0  0
 12 18  2  0  0  0  0
 15 14  1  0  0  0  0
 15 21  1  0  0  0  0
 16 26  1  6  0  0  0
 16  9  1  0  0  0  0
 17  4  1  0  0  0  0
 18 11  1  0  0  0  0
 19 25  1  0  0  0  0
 20 19  1  0  0  0  0
 21 23  1  0  0  0  0
 22 20  2  0  0  0  0
 23 19  2  0  0  0  0
 24 21  2  0  0  0  0
 24 22  1  0  0  0  0
 27 26  1  0  0  0  0
 28 30  2  0  0  0  0
 29 33  1  0  0  0  0
 29 27  1  1  0  0  0
 30 29  1  0  0  0  0
 31 32  1  0  0  0  0
 32 33  1  0  0  0  0
 34 31  1  0  0  0  0
 34 30  1  0  0  0  0
M  END
>  <MODEL>
8

>  <REMARK>
 VINA RESULT:     -10.2      4.906      8.905
  Name = 
  4 active torsions:
  status: ('A' for Active; 'I' for Inactive)
    1  A    between atoms: C_3  and  C_13
    2  A    between atoms: C_3  and  C_17
    3  A    between atoms: C_12  and  C_28
    4  A    between atoms: C_17  and  C_29
                            x       y       z     vdW  Elec       q    Type
                         _______ _______ _______ _____ _____    ______ ____

>  <TORSDO>
F 4

$$$$
=
 OpenBabel10252414493D

 34 39  0  0  1  0  0  0  0  0999 V2000
  187.2190  178.4250  139.6780 C   0  0  0  0  0  0  0  0  0  0  0  0
  185.0830  178.2390  138.3630 C   0  0  2  0  0  3  0  0  0  0  0  0
  185.1390  178.5260  140.9410 C   0  0  0  0  0  0  0  0  0  0  0  0
  183.1320  178.8160  142.2690 C   0  0  0  0  0  0  0  0  0  0  0  0
  187.2040  178.9320  137.2840 N   0  0  0  0  0  2  0  0  0  0  0  0
  186.0270  178.0790  137.1610 C   0  0  0  0  0  2  0  0  0  0  0  0
  182.8380  178.9970  140.0020 N   0  0  0  0  0  2  0  0  0  0  0  0
  185.8130  178.4100  139.6920 C   0  0  0  0  0  0  0  0  0  0  0  0
  181.6810  179.0820  142.1160 C   0  0  0  0  0  2  0  0  0  0  0  0
  187.9040  178.5240  138.4300 N   0  0  0  0  0  2  0  0  0  0  0  0
  185.8900  178.4460  142.1560 C   0  0  0  0  0  0  0  0  0  0  0  0
  187.9480  178.3820  140.8620 C   0  0  0  0  0  3  0  0  0  0  0  0
  184.2220  176.9860  138.3970 C   0  0  0  0  0  1  0  0  0  0  0  0
  183.8360  178.6880  143.4570 C   0  0  0  0  0  3  0  0  0  0  0  0
  185.2270  178.4920  143.4220 C   0  0  0  0  0  0  0  0  0  0  0  0
  181.5150  179.2060  140.5880 C   0  0  2  0  0  3  0  0  0  0  0  0
  183.7510  178.7440  141.0550 C   0  0  0  0  0  0  0  0  0  0  0  0
  187.2880  178.3740  142.0850 C   0  0  0  0  0  3  0  0  0  0  0  0
  187.8030  177.5210  146.0450 C   0  0  0  0  0  0  0  0  0  0  0  0
  187.2260  178.0480  147.2020 C   0  0  0  0  0  3  0  0  0  0  0  0
  185.9380  178.3540  144.7210 C   0  0  0  0  0  0  0  0  0  0  0  0
  186.0050  178.7220  147.1270 C   0  0  0  0  0  3  0  0  0  0  0  0
  187.1590  177.6680  144.8130 C   0  0  0  0  0  3  0  0  0  0  0  0
  185.3630  178.8700  145.8950 C   0  0  0  0  0  3  0  0  0  0  0  0
  189.0140  176.8460  146.1190 O   0  0  0  0  0  1  0  0  0  0  0  0
  180.5140  178.1890  140.0430 C   0  0  0  0  0  2  0  0  0  0  0  0
  181.0020  176.7550  140.2020 C   0  0  0  0  0  2  0  0  0  0  0  0
  178.9310  175.1060  141.2080 O   0  0  0  0  0  0  0  0  0  0  0  0
  180.2160  175.8250  139.2910 C   0  0  2  0  0  3  0  0  0  0  0  0
  179.4490  174.8060  140.1000 C   0  0  0  0  0  0  0  0  0  0  0  0
  179.8670  173.1380  138.2760 C   0  0  0  0  0  2  0  0  0  0  0  0
  180.3300  174.3910  137.5310 C   0  0  0  0  0  2  0  0  0  0  0  0
  181.1020  175.1850  138.3980 O   0  0  0  0  0  0  0  0  0  0  0  0
  179.2130  173.5190  139.5250 N   0  0  0  0  0  2  0  0  0  0  0  0
  1  8  2  0  0  0  0
  1 12  1  0  0  0  0
  2 13  1  1  0  0  0
  2  8  1  0  0  0  0
  3 17  2  0  0  0  0
  3 11  1  0  0  0  0
  4 14  2  0  0  0  0
  5 10  1  0  0  0  0
  6  5  1  0  0  0  0
  6  2  1  0  0  0  0
  7 16  1  0  0  0  0
  7 17  1  0  0  0  0
  8  3  1  0  0  0  0
  9  4  1  0  0  0  0
 10  1  1  0  0  0  0
 11 15  2  0  0  0  0
 12 18  2  0  0  0  0
 15 14  1  0  0  0  0
 15 21  1  0  0  0  0
 16 26  1  6  0  0  0
 16  9  1  0  0  0  0
 17  4  1  0  0  0  0
 18 11  1  0  0  0  0
 19 25  1  0  0  0  0
 19 20  1  0  0  0  0
 21 23  1  0  0  0  0
 21 24  2  0  0  0  0
 22 20  2  0  0  0  0
 23 19  2  0  0  0  0
 24 22  1  0  0  0  0
 26 27  1  0  0  0  0
 29 30  1  0  0  0  0
 29 27  1  1  0  0  0
 30 28  2  0  0  0  0
 31 34  1  0  0  0  0
 32 31  1  0  0  0  0
 32 33  1  0  0  0  0
 33 29  1  0  0  0  0
 34 30  1  0  0  0  0
M  END
>  <MODEL>
9

>  <REMARK>
 VINA RESULT:      -9.8      4.660      8.495
  Name = 
  4 active torsions:
  status: ('A' for Active; 'I' for Inactive)
    1  A    between atoms: C_3  and  C_13
    2  A    between atoms: C_3  and  C_17
    3  A    between atoms: C_12  and  C_28
    4  A    between atoms: C_17  and  C_29
                            x       y       z     vdW  Elec       q    Type
                         _______ _______ _______ _____ _____    ______ ____

>  <TORSDO>
F 4

$$$$
