=
 OpenBabel10262422323D

 43 47  0  0  1  0  0  0  0  0999 V2000
  187.3230  178.1460  141.4390 C   0  0  0  0  0  2  0  0  0  0  0  0
  186.0390  179.1810  139.7010 O   0  0  0  0  0  0  0  0  0  0  0  0
  184.8090  178.7350  140.2180 C   0  0  1  0  0  3  0  0  0  0  0  0
  183.6850  178.1020  142.2670 O   0  0  0  0  0  1  0  0  0  0  0  0
  186.9880  178.1750  139.9500 C   0  0  1  0  0  3  0  0  0  0  0  0
  186.0570  177.8250  142.2310 C   0  0  2  0  0  3  0  0  0  0  0  0
  184.8600  178.6660  141.7670 C   0  0  1  0  0  3  0  0  0  0  0  0
  188.1180  178.0370  148.3390 C   0  0  0  0  0  0  0  0  0  0  0  0
  186.3100  178.0190  143.6910 C   0  0  0  0  0  0  0  0  0  0  0  0
  186.7230  178.3670  146.3900 C   0  0  0  0  0  0  0  0  0  0  0  0
  189.0710  177.3830  147.5490 C   0  0  0  0  0  3  0  0  0  0  0  0
  188.3330  178.1940  149.6680 F   0  0  0  0  0  0  0  0  0  0  0  0
  187.6810  177.7030  145.5960 C   0  0  0  0  0  0  0  0  0  0  0  0
  186.9450  178.5330  147.7600 C   0  0  0  0  0  3  0  0  0  0  0  0
  188.8540  177.2140  146.1770 C   0  0  0  0  0  3  0  0  0  0  0  0
  187.4480  177.5420  144.2680 N   0  0  0  0  0  0  0  0  0  0  0  0
  185.3630  178.6800  144.4800 C   0  0  0  0  0  3  0  0  0  0  0  0
  185.5880  178.8380  145.8120 N   0  0  0  0  0  0  0  0  0  0  0  0
  189.4200  177.7520  136.9480 C   0  0  0  0  0  2  0  0  0  0  0  0
  190.0970  176.6360  139.1960 C   0  0  0  0  0  2  0  0  0  0  0  0
  190.3980  176.9540  137.7620 C   0  0  0  0  0  0  0  0  0  0  0  0
  188.0830  177.8710  137.6790 C   0  0  0  0  0  2  0  0  0  0  0  0
  188.2450  178.4080  139.1170 C   0  0  0  0  0  3  0  0  0  0  0  0
  191.4330  176.5580  137.2520 O   0  0  0  0  0  0  0  0  0  0  0  0
  189.4780  177.8630  139.8620 C   0  0  0  0  0  2  0  0  0  0  0  0
  183.7380  179.5960  139.7030 N   0  0  0  0  0  0  0  0  0  0  0  0
  184.2860  180.5900  138.9620 O   0  0  0  0  0  1  0  0  0  0  0  0
  182.5610  178.6350  138.7040 P   0  0  1  0  0  0  0  0  0  0  0  0
  183.2860  176.9400  139.0640 C   0  0  0  0  0  2  0  0  0  0  0  0
  184.0180  176.3600  137.9330 N   0  0  0  0  0  0  0  0  0  0  0  0
  184.9930  176.8190  135.7150 C   0  0  0  0  0  2  0  0  0  0  0  0
  183.7570  174.6620  136.0970 C   0  0  0  0  0  2  0  0  0  0  0  0
  185.0740  175.2910  135.6600 C   0  0  0  0  0  2  0  0  0  0  0  0
  183.3920  175.0890  137.5290 C   0  0  0  0  0  2  0  0  0  0  0  0
  184.0590  177.3160  136.8230 C   0  0  0  0  0  2  0  0  0  0  0  0
  181.1100  178.5290  139.8780 C   0  0  0  0  0  2  0  0  0  0  0  0
  180.6020  179.9220  140.2020 C   0  0  1  0  0  3  0  0  0  0  0  0
  179.7710  180.3640  139.1710 O   0  0  0  0  0  0  0  0  0  0  0  0
  179.9420  181.7490  139.1430 C   0  0  0  0  0  2  0  0  0  0  0  0
  181.0050  182.1080  138.1270 C   0  0  0  0  0  1  0  0  0  0  0  0
  179.8270  179.8870  141.5100 C   0  0  0  0  0  2  0  0  0  0  0  0
  180.3360  178.9930  143.4610 C   0  0  0  0  0  1  0  0  0  0  0  0
  180.7060  180.0130  142.5860 O   0  0  0  0  0  0  0  0  0  0  0  0
  1  6  1  0  0  0  0
  2  5  1  0  0  0  0
  2  3  1  0  0  0  0
  3 26  1  1  0  0  0
  3  7  1  0  0  0  0
  5 23  1  6  0  0  0
  5  1  1  0  0  0  0
  6  9  1  1  0  0  0
  7  6  1  0  0  0  0
  7  4  1  6  0  0  0
  8 12  1  0  0  0  0
  9 16  2  0  0  0  0
  9 17  1  0  0  0  0
 10 14  2  0  0  0  0
 11  8  2  0  0  0  0
 13 15  2  0  0  0  0
 13 10  1  0  0  0  0
 14  8  1  0  0  0  0
 15 11  1  0  0  0  0
 16 13  1  0  0  0  0
 17 18  2  0  0  0  0
 18 10  1  0  0  0  0
 19 22  1  0  0  0  0
 19 21  1  0  0  0  0
 20 25  1  0  0  0  0
 21 20  1  0  0  0  0
 22 23  1  0  0  0  0
 23 25  1  0  0  0  0
 24 21  2  0  0  0  0
 27 26  1  0  0  0  0
 28 29  1  1  0  0  0
 28 26  1  0  0  0  0
 28 36  1  0  0  0  0
 30 29  1  0  0  0  0
 31 35  1  0  0  0  0
 32 34  1  0  0  0  0
 33 31  1  0  0  0  0
 33 32  1  0  0  0  0
 34 30  1  0  0  0  0
 35 30  1  0  0  0  0
 37 36  1  6  0  0  0
 37 41  1  0  0  0  0
 38 37  1  0  0  0  0
 39 38  1  0  0  0  0
 40 39  1  0  0  0  0
 41 43  1  0  0  0  0
 43 42  1  0  0  0  0
M  END
>  <MODEL>
1

>  <REMARK>
 VINA RESULT:      -8.0      0.000      0.000
  Name = 
  12 active torsions:
  status: ('A' for Active; 'I' for Inactive)
    1  A    between atoms: N_2  and  C_13
    2  A    between atoms: N_2  and  P_41
    3  A    between atoms: O_3  and  C_4
    4  A    between atoms: O_3  and  C_12
    5  A    between atoms: C_4  and  C_15
    6  A    between atoms: C_4  and  C_22
    7  A    between atoms: C_8  and  C_34
    8  A    between atoms: N_11  and  C_14
    9  A    between atoms: C_14  and  P_41
   10  A    between atoms: C_15  and  O_42
   11  A    between atoms: C_22  and  P_41
   12  A    between atoms: C_28  and  C_35
                            x       y       z     vdW  Elec       q    Type
                         _______ _______ _______ _____ _____    ______ ____

>  <TORSDO>
F 12

$$$$
=
 OpenBabel10262422323D

 43 47  0  0  1  0  0  0  0  0999 V2000
  185.4440  178.4200  140.5560 C   0  0  0  0  0  2  0  0  0  0  0  0
  185.5490  177.7810  138.2500 O   0  0  0  0  0  0  0  0  0  0  0  0
  186.8500  178.2880  138.0740 C   0  0  1  0  0  3  0  0  0  0  0  0
  188.9190  178.7570  139.2400 O   0  0  0  0  0  1  0  0  0  0  0  0
  184.8870  178.6320  139.1510 C   0  0  1  0  0  3  0  0  0  0  0  0
  186.9310  178.7690  140.5630 C   0  0  2  0  0  3  0  0  0  0  0  0
  187.6750  178.1390  139.3780 C   0  0  1  0  0  3  0  0  0  0  0  0
  190.5910  177.2190  145.6420 C   0  0  0  0  0  0  0  0  0  0  0  0
  187.5430  178.3520  141.8600 C   0  0  0  0  0  0  0  0  0  0  0  0
  188.6360  177.5400  144.2530 C   0  0  0  0  0  0  0  0  0  0  0  0
  191.4030  177.7270  144.6220 C   0  0  0  0  0  3  0  0  0  0  0  0
  191.1450  176.8170  146.8110 F   0  0  0  0  0  0  0  0  0  0  0  0
  189.4560  178.0460  143.2230 C   0  0  0  0  0  0  0  0  0  0  0  0
  189.2070  177.1280  145.4610 C   0  0  0  0  0  3  0  0  0  0  0  0
  190.8380  178.1400  143.4100 C   0  0  0  0  0  3  0  0  0  0  0  0
  188.8890  178.4350  142.0520 N   0  0  0  0  0  0  0  0  0  0  0  0
  186.7320  177.8520  142.8850 C   0  0  0  0  0  3  0  0  0  0  0  0
  187.2950  177.4560  144.0570 N   0  0  0  0  0  0  0  0  0  0  0  0
  181.3920  177.6770  140.5580 C   0  0  0  0  0  2  0  0  0  0  0  0
  182.5710  175.9440  139.0220 C   0  0  0  0  0  2  0  0  0  0  0  0
  181.3890  176.3540  139.8490 C   0  0  0  0  0  0  0  0  0  0  0  0
  182.7900  178.2930  140.5440 C   0  0  0  0  0  2  0  0  0  0  0  0
  183.3820  178.3740  139.1210 C   0  0  0  0  0  3  0  0  0  0  0  0
  180.4280  175.6100  139.9530 O   0  0  0  0  0  0  0  0  0  0  0  0
  183.0760  177.1520  138.2350 C   0  0  0  0  0  2  0  0  0  0  0  0
  187.4620  177.6300  136.9130 N   0  0  0  0  0  0  0  0  0  0  0  0
  188.5730  178.3160  136.5490 O   0  0  0  0  0  1  0  0  0  0  0  0
  187.8810  175.9020  137.2960 P   0  0  1  0  0  0  0  0  0  0  0  0
  187.2200  175.1490  135.7060 C   0  0  0  0  0  2  0  0  0  0  0  0
  186.1250  174.1960  135.9160 N   0  0  0  0  0  0  0  0  0  0  0  0
  183.6820  173.8800  135.8250 C   0  0  0  0  0  2  0  0  0  0  0  0
  184.9810  172.9030  137.7440 C   0  0  0  0  0  2  0  0  0  0  0  0
  184.0230  172.6030  136.5980 C   0  0  0  0  0  2  0  0  0  0  0  0
  186.2840  173.5290  137.2210 C   0  0  0  0  0  2  0  0  0  0  0  0
  184.8370  174.8870  135.8190 C   0  0  0  0  0  2  0  0  0  0  0  0
  189.6930  175.8710  136.8400 C   0  0  0  0  0  2  0  0  0  0  0  0
  190.5340  175.6050  138.0750 C   0  0  1  0  0  3  0  0  0  0  0  0
  191.1320  174.3480  137.9650 O   0  0  0  0  0  0  0  0  0  0  0  0
  191.4300  174.2110  136.6070 C   0  0  0  0  0  2  0  0  0  0  0  0
  192.8070  173.6010  136.4500 C   0  0  0  0  0  1  0  0  0  0  0  0
  191.6070  176.6760  138.1990 C   0  0  0  0  0  2  0  0  0  0  0  0
  193.0880  177.1920  139.7490 C   0  0  0  0  0  1  0  0  0  0  0  0
  191.7160  177.0840  139.5290 O   0  0  0  0  0  0  0  0  0  0  0  0
  1  6  1  0  0  0  0
  2  5  1  0  0  0  0
  3 26  1  6  0  0  0
  3  2  1  0  0  0  0
  3  7  1  0  0  0  0
  5 23  1  1  0  0  0
  5  1  1  0  0  0  0
  6  9  1  1  0  0  0
  7  4  1  6  0  0  0
  7  6  1  0  0  0  0
  8 12  1  0  0  0  0
  9 16  2  0  0  0  0
  9 17  1  0  0  0  0
 10 14  2  0  0  0  0
 11  8  2  0  0  0  0
 13 15  2  0  0  0  0
 13 10  1  0  0  0  0
 14  8  1  0  0  0  0
 15 11  1  0  0  0  0
 16 13  1  0  0  0  0
 17 18  2  0  0  0  0
 18 10  1  0  0  0  0
 20 21  1  0  0  0  0
 21 24  2  0  0  0  0
 21 19  1  0  0  0  0
 22 19  1  0  0  0  0
 23 22  1  0  0  0  0
 25 20  1  0  0  0  0
 25 23  1  0  0  0  0
 26 28  1  0  0  0  0
 27 26  1  0  0  0  0
 28 29  1  6  0  0  0
 29 30  1  0  0  0  0
 30 34  1  0  0  0  0
 31 33  1  0  0  0  0
 33 32  1  0  0  0  0
 34 32  1  0  0  0  0
 35 31  1  0  0  0  0
 35 30  1  0  0  0  0
 36 28  1  0  0  0  0
 37 36  1  6  0  0  0
 37 41  1  0  0  0  0
 38 37  1  0  0  0  0
 39 38  1  0  0  0  0
 40 39  1  0  0  0  0
 41 43  1  0  0  0  0
 43 42  1  0  0  0  0
M  END
>  <MODEL>
2

>  <REMARK>
 VINA RESULT:      -7.4      2.791      6.980
  Name = 
  12 active torsions:
  status: ('A' for Active; 'I' for Inactive)
    1  A    between atoms: N_2  and  C_13
    2  A    between atoms: N_2  and  P_41
    3  A    between atoms: O_3  and  C_4
    4  A    between atoms: O_3  and  C_12
    5  A    between atoms: C_4  and  C_15
    6  A    between atoms: C_4  and  C_22
    7  A    between atoms: C_8  and  C_34
    8  A    between atoms: N_11  and  C_14
    9  A    between atoms: C_14  and  P_41
   10  A    between atoms: C_15  and  O_42
   11  A    between atoms: C_22  and  P_41
   12  A    between atoms: C_28  and  C_35
                            x       y       z     vdW  Elec       q    Type
                         _______ _______ _______ _____ _____    ______ ____

>  <TORSDO>
F 12

$$$$
=
 OpenBabel10262422323D

 43 47  0  0  1  0  0  0  0  0999 V2000
  186.2550  178.0920  142.0700 C   0  0  0  0  0  2  0  0  0  0  0  0
  185.5000  177.9110  139.8030 O   0  0  0  0  0  0  0  0  0  0  0  0
  186.6250  178.5730  139.2800 C   0  0  1  0  0  3  0  0  0  0  0  0
  188.9690  179.0260  139.6860 O   0  0  0  0  0  1  0  0  0  0  0  0
  185.2040  178.5050  141.0430 C   0  0  1  0  0  3  0  0  0  0  0  0
  187.6250  178.5850  141.6110 C   0  0  2  0  0  3  0  0  0  0  0  0
  187.8840  178.2680  140.1310 C   0  0  1  0  0  3  0  0  0  0  0  0
  191.5620  176.4120  146.2350 C   0  0  0  0  0  0  0  0  0  0  0  0
  188.6920  177.9960  142.4770 C   0  0  0  0  0  0  0  0  0  0  0  0
  190.6950  176.9330  144.0370 C   0  0  0  0  0  0  0  0  0  0  0  0
  190.4090  176.9480  146.8200 C   0  0  0  0  0  3  0  0  0  0  0  0
  192.5420  175.8990  147.0180 F   0  0  0  0  0  0  0  0  0  0  0  0
  189.5360  177.4790  144.6280 C   0  0  0  0  0  0  0  0  0  0  0  0
  191.7050  176.4010  144.8430 C   0  0  0  0  0  3  0  0  0  0  0  0
  189.3950  177.4840  146.0180 C   0  0  0  0  0  3  0  0  0  0  0  0
  188.5660  178.0000  143.8320 N   0  0  0  0  0  0  0  0  0  0  0  0
  189.8410  177.4520  141.8930 C   0  0  0  0  0  3  0  0  0  0  0  0
  190.8180  176.9340  142.6850 N   0  0  0  0  0  0  0  0  0  0  0  0
  181.3400  178.7480  141.3800 C   0  0  0  0  0  2  0  0  0  0  0  0
  182.7600  179.4000  143.4560 C   0  0  0  0  0  2  0  0  0  0  0  0
  181.4220  179.2030  142.8080 C   0  0  0  0  0  0  0  0  0  0  0  0
  182.7090  178.8370  140.7070 C   0  0  0  0  0  2  0  0  0  0  0  0
  183.8060  178.1040  141.5070 C   0  0  0  0  0  3  0  0  0  0  0  0
  180.4000  179.4200  143.4370 O   0  0  0  0  0  0  0  0  0  0  0  0
  183.6930  178.2670  143.0350 C   0  0  0  0  0  2  0  0  0  0  0  0
  186.7720  178.2110  137.8640 N   0  0  0  0  0  0  0  0  0  0  0  0
  187.4860  179.1740  137.2320 O   0  0  0  0  0  1  0  0  0  0  0  0
  187.5920  176.5970  137.6910 P   0  0  1  0  0  0  0  0  0  0  0  0
  186.5760  175.9800  136.2370 C   0  0  0  0  0  2  0  0  0  0  0  0
  185.5030  175.0550  136.6180 N   0  0  0  0  0  0  0  0  0  0  0  0
  184.9880  172.9090  137.7170 C   0  0  0  0  0  2  0  0  0  0  0  0
  183.7770  173.5350  135.6030 C   0  0  0  0  0  2  0  0  0  0  0  0
  183.6210  173.1360  137.0660 C   0  0  0  0  0  2  0  0  0  0  0  0
  184.6110  174.8190  135.4700 C   0  0  0  0  0  2  0  0  0  0  0  0
  186.0780  173.8030  137.1180 C   0  0  0  0  0  2  0  0  0  0  0  0
  189.1180  177.0820  136.7280 C   0  0  0  0  0  2  0  0  0  0  0  0
  190.2540  176.1240  137.0390 C   0  0  1  0  0  3  0  0  0  0  0  0
  190.4100  176.0240  138.4230 O   0  0  0  0  0  0  0  0  0  0  0  0
  191.4780  176.8710  138.7250 C   0  0  0  0  0  2  0  0  0  0  0  0
  192.7320  176.3670  138.0400 C   0  0  0  0  0  1  0  0  0  0  0  0
  189.9380  174.7550  136.4560 C   0  0  0  0  0  2  0  0  0  0  0  0
  191.5950  173.3000  136.4180 C   0  0  0  0  0  1  0  0  0  0  0  0
  190.5520  173.7620  137.2190 O   0  0  0  0  0  0  0  0  0  0  0  0
  2  5  1  0  0  0  0
  3 26  1  6  0  0  0
  3  2  1  0  0  0  0
  3  7  1  0  0  0  0
  5 23  1  1  0  0  0
  5  1  1  0  0  0  0
  6  1  1  0  0  0  0
  6  9  1  1  0  0  0
  7  4  1  6  0  0  0
  7  6  1  0  0  0  0
  8 11  1  0  0  0  0
  8 12  1  0  0  0  0
  9 16  1  0  0  0  0
 10 13  1  0  0  0  0
 10 14  1  0  0  0  0
 13 15  1  0  0  0  0
 14  8  2  0  0  0  0
 15 11  2  0  0  0  0
 16 13  2  0  0  0  0
 17  9  2  0  0  0  0
 17 18  1  0  0  0  0
 18 10  2  0  0  0  0
 19 21  1  0  0  0  0
 21 24  2  0  0  0  0
 21 20  1  0  0  0  0
 22 19  1  0  0  0  0
 22 23  1  0  0  0  0
 23 25  1  0  0  0  0
 25 20  1  0  0  0  0
 27 26  1  0  0  0  0
 28 29  1  6  0  0  0
 28 26  1  0  0  0  0
 29 30  1  0  0  0  0
 30 35  1  0  0  0  0
 32 33  1  0  0  0  0
 33 31  1  0  0  0  0
 34 32  1  0  0  0  0
 34 30  1  0  0  0  0
 35 31  1  0  0  0  0
 36 37  1  0  0  0  0
 36 28  1  0  0  0  0
 37 41  1  1  0  0  0
 37 38  1  0  0  0  0
 38 39  1  0  0  0  0
 40 39  1  0  0  0  0
 41 43  1  0  0  0  0
 42 43  1  0  0  0  0
M  END
>  <MODEL>
3

>  <REMARK>
 VINA RESULT:      -7.4      2.476      7.035
  Name = 
  12 active torsions:
  status: ('A' for Active; 'I' for Inactive)
    1  A    between atoms: N_2  and  C_13
    2  A    between atoms: N_2  and  P_41
    3  A    between atoms: O_3  and  C_4
    4  A    between atoms: O_3  and  C_12
    5  A    between atoms: C_4  and  C_15
    6  A    between atoms: C_4  and  C_22
    7  A    between atoms: C_8  and  C_34
    8  A    between atoms: N_11  and  C_14
    9  A    between atoms: C_14  and  P_41
   10  A    between atoms: C_15  and  O_42
   11  A    between atoms: C_22  and  P_41
   12  A    between atoms: C_28  and  C_35
                            x       y       z     vdW  Elec       q    Type
                         _______ _______ _______ _____ _____    ______ ____

>  <TORSDO>
F 12

$$$$
=
 OpenBabel10262422323D

 43 47  0  0  1  0  0  0  0  0999 V2000
  185.2840  178.2940  140.3960 C   0  0  0  0  0  2  0  0  0  0  0  0
  185.4250  177.7390  138.0690 O   0  0  0  0  0  0  0  0  0  0  0  0
  186.6970  178.3200  137.9140 C   0  0  1  0  0  3  0  0  0  0  0  0
  188.7370  178.8590  139.1010 O   0  0  0  0  0  1  0  0  0  0  0  0
  184.7170  178.5230  138.9970 C   0  0  1  0  0  3  0  0  0  0  0  0
  186.7500  178.7210  140.4190 C   0  0  2  0  0  3  0  0  0  0  0  0
  187.5280  178.1710  139.2150 C   0  0  1  0  0  3  0  0  0  0  0  0
  188.4450  177.1320  146.4350 C   0  0  0  0  0  0  0  0  0  0  0  0
  187.3820  178.2920  141.7030 C   0  0  0  0  0  0  0  0  0  0  0  0
  188.5950  177.5300  144.0540 C   0  0  0  0  0  0  0  0  0  0  0  0
  187.0910  177.4870  146.4120 C   0  0  0  0  0  3  0  0  0  0  0  0
  189.0280  176.7650  147.6020 F   0  0  0  0  0  0  0  0  0  0  0  0
  187.2330  177.8950  144.0320 C   0  0  0  0  0  0  0  0  0  0  0  0
  189.1970  177.1480  145.2560 C   0  0  0  0  0  3  0  0  0  0  0  0
  186.4830  177.8710  145.2110 C   0  0  0  0  0  3  0  0  0  0  0  0
  186.6630  178.2710  142.8580 N   0  0  0  0  0  0  0  0  0  0  0  0
  188.7330  177.9280  141.7260 C   0  0  0  0  0  3  0  0  0  0  0  0
  189.3100  177.5560  142.9000 N   0  0  0  0  0  0  0  0  0  0  0  0
  181.2440  177.4800  140.3940 C   0  0  0  0  0  2  0  0  0  0  0  0
  182.5430  175.7170  138.9940 C   0  0  0  0  0  2  0  0  0  0  0  0
  181.3230  176.1160  139.7700 C   0  0  0  0  0  0  0  0  0  0  0  0
  182.6100  178.1640  140.3680 C   0  0  0  0  0  2  0  0  0  0  0  0
  183.2290  178.1870  138.9540 C   0  0  0  0  0  3  0  0  0  0  0  0
  180.3990  175.3320  139.9020 O   0  0  0  0  0  0  0  0  0  0  0  0
  183.0040  176.8970  138.1420 C   0  0  0  0  0  2  0  0  0  0  0  0
  187.3440  177.7350  136.7330 N   0  0  0  0  0  0  0  0  0  0  0  0
  188.4000  178.5080  136.3790 O   0  0  0  0  0  1  0  0  0  0  0  0
  187.8890  176.0330  137.0720 P   0  0  1  0  0  0  0  0  0  0  0  0
  187.0850  175.2350  135.5730 C   0  0  0  0  0  2  0  0  0  0  0  0
  186.0960  174.2060  135.9140 N   0  0  0  0  0  0  0  0  0  0  0  0
  183.6930  173.6550  135.9540 C   0  0  0  0  0  2  0  0  0  0  0  0
  185.1450  172.9880  137.8970 C   0  0  0  0  0  2  0  0  0  0  0  0
  184.1820  172.4940  136.8240 C   0  0  0  0  0  2  0  0  0  0  0  0
  186.3620  173.6820  137.2650 C   0  0  0  0  0  2  0  0  0  0  0  0
  184.7440  174.7610  135.8090 C   0  0  0  0  0  2  0  0  0  0  0  0
  189.6350  176.0860  136.4060 C   0  0  0  0  0  2  0  0  0  0  0  0
  190.5450  175.2290  137.2670 C   0  0  1  0  0  3  0  0  0  0  0  0
  190.4350  175.6320  138.6000 O   0  0  0  0  0  0  0  0  0  0  0  0
  191.4260  176.6020  138.7630 C   0  0  0  0  0  2  0  0  0  0  0  0
  192.7210  176.1100  138.1500 C   0  0  0  0  0  1  0  0  0  0  0  0
  190.1400  173.7690  137.1360 C   0  0  0  0  0  2  0  0  0  0  0  0
  191.8670  173.0540  135.9650 C   0  0  0  0  0  1  0  0  0  0  0  0
  190.4960  173.2900  135.8750 O   0  0  0  0  0  0  0  0  0  0  0  0
  1  6  1  0  0  0  0
  2  5  1  0  0  0  0
  3 26  1  6  0  0  0
  3  2  1  0  0  0  0
  3  7  1  0  0  0  0
  5 23  1  1  0  0  0
  5  1  1  0  0  0  0
  6  9  1  1  0  0  0
  7  4  1  6  0  0  0
  7  6  1  0  0  0  0
  8 12  1  0  0  0  0
  9 17  2  0  0  0  0
  9 16  1  0  0  0  0
 10 14  1  0  0  0  0
 11  8  1  0  0  0  0
 13 10  1  0  0  0  0
 13 15  1  0  0  0  0
 14  8  2  0  0  0  0
 15 11  2  0  0  0  0
 16 13  2  0  0  0  0
 17 18  1  0  0  0  0
 18 10  2  0  0  0  0
 20 21  1  0  0  0  0
 21 24  2  0  0  0  0
 21 19  1  0  0  0  0
 22 19  1  0  0  0  0
 23 22  1  0  0  0  0
 25 23  1  0  0  0  0
 25 20  1  0  0  0  0
 26 28  1  0  0  0  0
 27 26  1  0  0  0  0
 28 29  1  6  0  0  0
 29 30  1  0  0  0  0
 30 34  1  0  0  0  0
 31 33  1  0  0  0  0
 33 32  1  0  0  0  0
 34 32  1  0  0  0  0
 35 30  1  0  0  0  0
 35 31  1  0  0  0  0
 36 28  1  0  0  0  0
 37 36  1  6  0  0  0
 37 38  1  0  0  0  0
 38 39  1  0  0  0  0
 40 39  1  0  0  0  0
 41 37  1  0  0  0  0
 43 42  1  0  0  0  0
 43 41  1  0  0  0  0
M  END
>  <MODEL>
4

>  <REMARK>
 VINA RESULT:      -7.4      2.667      6.968
  Name = 
  12 active torsions:
  status: ('A' for Active; 'I' for Inactive)
    1  A    between atoms: N_2  and  C_13
    2  A    between atoms: N_2  and  P_41
    3  A    between atoms: O_3  and  C_4
    4  A    between atoms: O_3  and  C_12
    5  A    between atoms: C_4  and  C_15
    6  A    between atoms: C_4  and  C_22
    7  A    between atoms: C_8  and  C_34
    8  A    between atoms: N_11  and  C_14
    9  A    between atoms: C_14  and  P_41
   10  A    between atoms: C_15  and  O_42
   11  A    between atoms: C_22  and  P_41
   12  A    between atoms: C_28  and  C_35
                            x       y       z     vdW  Elec       q    Type
                         _______ _______ _______ _____ _____    ______ ____

>  <TORSDO>
F 12

$$$$
=
 OpenBabel10262422323D

 43 47  0  0  1  0  0  0  0  0999 V2000
  182.6310  177.1450  140.6270 C   0  0  0  0  0  2  0  0  0  0  0  0
  183.5900  176.7920  138.4600 O   0  0  0  0  0  0  0  0  0  0  0  0
  184.2100  178.0540  138.4290 C   0  0  1  0  0  3  0  0  0  0  0  0
  185.1410  179.7900  139.8370 O   0  0  0  0  0  1  0  0  0  0  0  0
  182.3680  176.9440  139.1370 C   0  0  1  0  0  3  0  0  0  0  0  0
  183.4550  178.4150  140.8230 C   0  0  2  0  0  3  0  0  0  0  0  0
  184.6430  178.4860  139.8540 C   0  0  1  0  0  3  0  0  0  0  0  0
  186.4050  178.2490  146.5560 C   0  0  0  0  0  0  0  0  0  0  0  0
  183.9180  178.5050  142.2410 C   0  0  0  0  0  0  0  0  0  0  0  0
  184.7190  178.6590  144.8700 C   0  0  0  0  0  0  0  0  0  0  0  0
  187.2540  177.7120  145.5810 C   0  0  0  0  0  3  0  0  0  0  0  0
  186.8120  178.3110  147.8470 F   0  0  0  0  0  0  0  0  0  0  0  0
  185.5720  178.1110  143.8890 C   0  0  0  0  0  0  0  0  0  0  0  0
  185.1390  178.7260  146.2020 C   0  0  0  0  0  3  0  0  0  0  0  0
  186.8380  177.6410  144.2460 C   0  0  0  0  0  3  0  0  0  0  0  0
  185.1470  178.0450  142.6010 N   0  0  0  0  0  0  0  0  0  0  0  0
  183.0740  179.0500  143.2160 C   0  0  0  0  0  3  0  0  0  0  0  0
  183.4920  179.1140  144.5080 N   0  0  0  0  0  0  0  0  0  0  0  0
  181.0220  173.7900  137.3070 C   0  0  0  0  0  2  0  0  0  0  0  0
  179.5620  175.9380  137.2090 C   0  0  0  0  0  2  0  0  0  0  0  0
  179.7710  174.4940  136.8650 C   0  0  0  0  0  0  0  0  0  0  0  0
  182.0520  174.7960  137.8200 C   0  0  0  0  0  2  0  0  0  0  0  0
  181.4740  175.7280  138.9050 C   0  0  0  0  0  3  0  0  0  0  0  0
  178.9310  173.8910  136.2180 O   0  0  0  0  0  0  0  0  0  0  0  0
  180.0250  176.1830  138.6440 C   0  0  0  0  0  2  0  0  0  0  0  0
  185.3180  178.0140  137.4660 N   0  0  0  0  0  0  0  0  0  0  0  0
  186.1510  179.0560  137.7050 O   0  0  0  0  0  1  0  0  0  0  0  0
  186.2210  176.4400  137.5850 P   0  0  1  0  0  0  0  0  0  0  0  0
  185.7930  175.8010  135.8710 C   0  0  0  0  0  2  0  0  0  0  0  0
  185.4140  174.3840  135.8480 N   0  0  0  0  0  0  0  0  0  0  0  0
  184.7760  172.4460  137.2330 C   0  0  0  0  0  2  0  0  0  0  0  0
  186.3490  172.1170  135.2980 C   0  0  0  0  0  2  0  0  0  0  0  0
  185.0290  171.6880  135.9270 C   0  0  0  0  0  2  0  0  0  0  0  0
  186.3540  173.6260  135.0050 C   0  0  0  0  0  2  0  0  0  0  0  0
  185.3720  173.8580  137.2150 C   0  0  0  0  0  2  0  0  0  0  0  0
  187.9610  177.0040  137.2030 C   0  0  0  0  0  2  0  0  0  0  0  0
  188.8500  176.8090  138.4180 C   0  0  1  0  0  3  0  0  0  0  0  0
  189.8750  175.9140  138.1030 O   0  0  0  0  0  0  0  0  0  0  0  0
  191.0530  176.6080  138.3850 C   0  0  0  0  0  2  0  0  0  0  0  0
  192.2290  175.8820  137.7650 C   0  0  0  0  0  1  0  0  0  0  0  0
  189.4420  178.1460  138.8340 C   0  0  0  0  0  2  0  0  0  0  0  0
  188.5750  178.1530  140.8610 C   0  0  0  0  0  1  0  0  0  0  0  0
  188.5390  178.8330  139.6450 O   0  0  0  0  0  0  0  0  0  0  0  0
  1  6  1  0  0  0  0
  2  5  1  0  0  0  0
  3 26  1  6  0  0  0
  3  2  1  0  0  0  0
  3  7  1  0  0  0  0
  5 23  1  1  0  0  0
  5  1  1  0  0  0  0
  6  9  1  1  0  0  0
  7  4  1  6  0  0  0
  7  6  1  0  0  0  0
  8 12  1  0  0  0  0
  9 16  2  0  0  0  0
  9 17  1  0  0  0  0
 10 14  2  0  0  0  0
 11  8  2  0  0  0  0
 13 15  2  0  0  0  0
 13 10  1  0  0  0  0
 14  8  1  0  0  0  0
 15 11  1  0  0  0  0
 16 13  1  0  0  0  0
 17 18  2  0  0  0  0
 18 10  1  0  0  0  0
 19 22  1  0  0  0  0
 20 25  1  0  0  0  0
 21 20  1  0  0  0  0
 21 19  1  0  0  0  0
 22 23  1  0  0  0  0
 24 21  2  0  0  0  0
 25 23  1  0  0  0  0
 26 28  1  0  0  0  0
 26 27  1  0  0  0  0
 28 29  1  6  0  0  0
 30 29  1  0  0  0  0
 30 35  1  0  0  0  0
 32 33  1  0  0  0  0
 33 31  1  0  0  0  0
 34 32  1  0  0  0  0
 34 30  1  0  0  0  0
 35 31  1  0  0  0  0
 36 28  1  0  0  0  0
 37 36  1  6  0  0  0
 37 41  1  0  0  0  0
 38 39  1  0  0  0  0
 38 37  1  0  0  0  0
 40 39  1  0  0  0  0
 41 43  1  0  0  0  0
 43 42  1  0  0  0  0
M  END
>  <MODEL>
5

>  <REMARK>
 VINA RESULT:      -7.3      2.501      6.492
  Name = 
  12 active torsions:
  status: ('A' for Active; 'I' for Inactive)
    1  A    between atoms: N_2  and  C_13
    2  A    between atoms: N_2  and  P_41
    3  A    between atoms: O_3  and  C_4
    4  A    between atoms: O_3  and  C_12
    5  A    between atoms: C_4  and  C_15
    6  A    between atoms: C_4  and  C_22
    7  A    between atoms: C_8  and  C_34
    8  A    between atoms: N_11  and  C_14
    9  A    between atoms: C_14  and  P_41
   10  A    between atoms: C_15  and  O_42
   11  A    between atoms: C_22  and  P_41
   12  A    between atoms: C_28  and  C_35
                            x       y       z     vdW  Elec       q    Type
                         _______ _______ _______ _____ _____    ______ ____

>  <TORSDO>
F 12

$$$$
=
 OpenBabel10262422323D

 43 47  0  0  1  0  0  0  0  0999 V2000
  189.7550  175.5160  136.7920 C   0  0  0  0  0  2  0  0  0  0  0  0
  188.4110  177.0690  138.0260 O   0  0  0  0  0  0  0  0  0  0  0  0
  189.1190  176.8690  139.2250 C   0  0  1  0  0  3  0  0  0  0  0  0
  191.2840  176.2500  140.1160 O   0  0  0  0  0  1  0  0  0  0  0  0
  188.3720  175.8350  137.3530 C   0  0  1  0  0  3  0  0  0  0  0  0
  190.7500  175.4080  137.9450 C   0  0  2  0  0  3  0  0  0  0  0  0
  190.6130  176.5740  138.9350 C   0  0  1  0  0  3  0  0  0  0  0  0
  196.9610  174.3710  136.5490 C   0  0  0  0  0  0  0  0  0  0  0  0
  192.1420  175.3260  137.4080 C   0  0  0  0  0  0  0  0  0  0  0  0
  194.7040  175.2300  136.4050 C   0  0  0  0  0  0  0  0  0  0  0  0
  196.6060  173.6200  137.6760 C   0  0  0  0  0  3  0  0  0  0  0  0
  198.2280  174.3180  136.0730 F   0  0  0  0  0  0  0  0  0  0  0  0
  194.3490  174.4780  137.5450 C   0  0  0  0  0  0  0  0  0  0  0  0
  196.0100  175.1730  135.9110 C   0  0  0  0  0  3  0  0  0  0  0  0
  195.3000  173.6730  138.1770 C   0  0  0  0  0  3  0  0  0  0  0  0
  193.0780  174.5490  138.0190 N   0  0  0  0  0  0  0  0  0  0  0  0
  192.4960  176.0690  136.2760 C   0  0  0  0  0  3  0  0  0  0  0  0
  193.7680  176.0070  135.8010 N   0  0  0  0  0  0  0  0  0  0  0  0
  185.9190  177.4300  134.7950 C   0  0  0  0  0  2  0  0  0  0  0  0
  184.8810  176.2770  136.8800 C   0  0  0  0  0  2  0  0  0  0  0  0
  184.7120  177.0080  135.5820 C   0  0  0  0  0  0  0  0  0  0  0  0
  187.1880  177.2800  135.6330 C   0  0  0  0  0  2  0  0  0  0  0  0
  187.3300  175.8680  136.2380 C   0  0  0  0  0  3  0  0  0  0  0  0
  183.5950  177.2690  135.1680 O   0  0  0  0  0  0  0  0  0  0  0  0
  186.0070  175.2550  136.7370 C   0  0  0  0  0  2  0  0  0  0  0  0
  188.9090  178.0310  140.0980 N   0  0  0  0  0  0  0  0  0  0  0  0
  188.0530  178.8910  139.4930 O   0  0  0  0  0  1  0  0  0  0  0  0
  188.2520  177.5150  141.7140 P   0  0  1  0  0  0  0  0  0  0  0  0
  189.6460  178.2160  142.7610 C   0  0  0  0  0  2  0  0  0  0  0  0
  189.8350  177.5140  144.0350 N   0  0  0  0  0  0  0  0  0  0  0  0
  189.3250  177.5430  146.4470 C   0  0  0  0  0  2  0  0  0  0  0  0
  191.6330  176.8990  145.6810 C   0  0  0  0  0  2  0  0  0  0  0  0
  190.4120  176.4640  146.4820 C   0  0  0  0  0  2  0  0  0  0  0  0
  191.2590  177.1800  144.2170 C   0  0  0  0  0  2  0  0  0  0  0  0
  189.3320  178.3380  145.1370 C   0  0  0  0  0  2  0  0  0  0  0  0
  187.0070  178.8710  142.0350 C   0  0  0  0  0  2  0  0  0  0  0  0
  185.6770  178.2670  142.4490 C   0  0  1  0  0  3  0  0  0  0  0  0
  185.2440  178.8670  143.6330 O   0  0  0  0  0  0  0  0  0  0  0  0
  185.7580  178.0620  144.6510 C   0  0  0  0  0  2  0  0  0  0  0  0
  185.5900  178.7610  145.9830 C   0  0  0  0  0  1  0  0  0  0  0  0
  184.6510  178.4960  141.3500 C   0  0  0  0  0  2  0  0  0  0  0  0
  184.2920  179.3910  139.3670 C   0  0  0  0  0  1  0  0  0  0  0  0
  185.0780  179.5240  140.5100 O   0  0  0  0  0  0  0  0  0  0  0  0
  1  5  1  0  0  0  0
  1  6  1  0  0  0  0
  2  3  1  0  0  0  0
  3 26  1  1  0  0  0
  5 23  1  6  0  0  0
  5  2  1  0  0  0  0
  6  9  1  6  0  0  0
  6  7  1  0  0  0  0
  7  3  1  0  0  0  0
  7  4  1  1  0  0  0
  8 11  1  0  0  0  0
  9 16  1  0  0  0  0
 10 13  1  0  0  0  0
 11 15  2  0  0  0  0
 12  8  1  0  0  0  0
 13 16  2  0  0  0  0
 13 15  1  0  0  0  0
 14 10  1  0  0  0  0
 14  8  2  0  0  0  0
 17  9  2  0  0  0  0
 18 17  1  0  0  0  0
 18 10  2  0  0  0  0
 19 21  1  0  0  0  0
 19 22  1  0  0  0  0
 21 20  1  0  0  0  0
 22 23  1  0  0  0  0
 23 25  1  0  0  0  0
 24 21  2  0  0  0  0
 25 20  1  0  0  0  0
 26 28  1  0  0  0  0
 27 26  1  0  0  0  0
 28 36  1  1  0  0  0
 28 29  1  0  0  0  0
 29 30  1  0  0  0  0
 30 34  1  0  0  0  0
 30 35  1  0  0  0  0
 31 33  1  0  0  0  0
 32 33  1  0  0  0  0
 34 32  1  0  0  0  0
 35 31  1  0  0  0  0
 36 37  1  0  0  0  0
 37 41  1  6  0  0  0
 37 38  1  0  0  0  0
 38 39  1  0  0  0  0
 39 40  1  0  0  0  0
 42 43  1  0  0  0  0
 43 41  1  0  0  0  0
M  END
>  <MODEL>
6

>  <REMARK>
 VINA RESULT:      -7.3      4.568      9.012
  Name = 
  12 active torsions:
  status: ('A' for Active; 'I' for Inactive)
    1  A    between atoms: N_2  and  C_13
    2  A    between atoms: N_2  and  P_41
    3  A    between atoms: O_3  and  C_4
    4  A    between atoms: O_3  and  C_12
    5  A    between atoms: C_4  and  C_15
    6  A    between atoms: C_4  and  C_22
    7  A    between atoms: C_8  and  C_34
    8  A    between atoms: N_11  and  C_14
    9  A    between atoms: C_14  and  P_41
   10  A    between atoms: C_15  and  O_42
   11  A    between atoms: C_22  and  P_41
   12  A    between atoms: C_28  and  C_35
                            x       y       z     vdW  Elec       q    Type
                         _______ _______ _______ _____ _____    ______ ____

>  <TORSDO>
F 12

$$$$
=
 OpenBabel10262422323D

 43 47  0  0  1  0  0  0  0  0999 V2000
  186.7230  176.6910  137.1680 C   0  0  0  0  0  2  0  0  0  0  0  0
  186.5370  178.5080  138.7180 O   0  0  0  0  0  0  0  0  0  0  0  0
  185.1750  178.7260  138.4390 C   0  0  1  0  0  3  0  0  0  0  0  0
  183.1500  177.6280  137.6950 O   0  0  0  0  0  1  0  0  0  0  0  0
  187.1520  178.1130  137.5180 C   0  0  1  0  0  3  0  0  0  0  0  0
  185.2090  176.6580  136.9700 C   0  0  2  0  0  3  0  0  0  0  0  0
  184.4660  177.3910  138.0960 C   0  0  1  0  0  3  0  0  0  0  0  0
  182.3390  170.9970  135.8210 C   0  0  0  0  0  0  0  0  0  0  0  0
  184.7420  175.2430  136.8560 C   0  0  0  0  0  0  0  0  0  0  0  0
  183.8950  172.6290  136.7000 C   0  0  0  0  0  0  0  0  0  0  0  0
  181.6790  172.0060  135.1090 C   0  0  0  0  0  3  0  0  0  0  0  0
  181.9050  169.7170  135.7390 F   0  0  0  0  0  0  0  0  0  0  0  0
  183.2250  173.6460  135.9880 C   0  0  0  0  0  0  0  0  0  0  0  0
  183.4490  171.3070  136.6140 C   0  0  0  0  0  3  0  0  0  0  0  0
  182.1200  173.3320  135.1920 C   0  0  0  0  0  3  0  0  0  0  0  0
  183.6640  174.9270  136.0880 N   0  0  0  0  0  0  0  0  0  0  0  0
  185.4060  174.2330  137.5600 C   0  0  0  0  0  3  0  0  0  0  0  0
  184.9680  172.9490  137.4680 N   0  0  0  0  0  0  0  0  0  0  0  0
  190.8200  176.8320  137.5800 C   0  0  0  0  0  2  0  0  0  0  0  0
  189.7520  177.4950  139.8540 C   0  0  0  0  0  2  0  0  0  0  0  0
  190.9300  177.0050  139.0670 C   0  0  0  0  0  0  0  0  0  0  0  0
  189.3620  176.9220  137.1340 C   0  0  0  0  0  2  0  0  0  0  0  0
  188.6710  178.2050  137.6400 C   0  0  0  0  0  3  0  0  0  0  0  0
  191.9770  176.7380  139.6340 O   0  0  0  0  0  0  0  0  0  0  0  0
  189.0580  178.6100  139.0760 C   0  0  0  0  0  2  0  0  0  0  0  0
  184.5680  179.4410  139.5690 N   0  0  0  0  0  0  0  0  0  0  0  0
  183.6980  180.3650  139.0930 O   0  0  0  0  0  1  0  0  0  0  0  0
  183.7170  178.2820  140.6830 P   0  0  1  0  0  0  0  0  0  0  0  0
  184.3710  178.9940  142.2940 C   0  0  0  0  0  2  0  0  0  0  0  0
  185.3930  178.1580  142.9340 N   0  0  0  0  0  0  0  0  0  0  0  0
  186.4480  177.5510  145.0780 C   0  0  0  0  0  2  0  0  0  0  0  0
  187.8870  177.8540  143.0370 C   0  0  0  0  0  2  0  0  0  0  0  0
  187.4790  176.8990  144.1530 C   0  0  0  0  0  2  0  0  0  0  0  0
  186.6670  178.2750  142.2020 C   0  0  0  0  0  2  0  0  0  0  0  0
  185.5440  178.5430  144.3400 C   0  0  0  0  0  2  0  0  0  0  0  0
  182.0150  179.0530  140.7550 C   0  0  0  0  0  2  0  0  0  0  0  0
  180.9650  177.9750  140.9500 C   0  0  1  0  0  3  0  0  0  0  0  0
  180.0200  178.4120  141.8810 O   0  0  0  0  0  0  0  0  0  0  0  0
  180.7520  178.6550  143.0450 C   0  0  0  0  0  2  0  0  0  0  0  0
  179.8830  178.3840  144.2550 C   0  0  0  0  0  1  0  0  0  0  0  0
  180.2830  177.6850  139.6220 C   0  0  0  0  0  2  0  0  0  0  0  0
  180.8910  175.5720  139.7950 C   0  0  0  0  0  1  0  0  0  0  0  0
  179.7730  176.3870  139.6250 O   0  0  0  0  0  0  0  0  0  0  0  0
  1  5  1  0  0  0  0
  3  2  1  0  0  0  0
  3 26  1  1  0  0  0
  5 23  1  1  0  0  0
  5  2  1  0  0  0  0
  6  9  1  1  0  0  0
  6  1  1  0  0  0  0
  6  7  1  0  0  0  0
  7  4  1  6  0  0  0
  7  3  1  0  0  0  0
  8 14  1  0  0  0  0
  9 17  1  0  0  0  0
 10 18  1  0  0  0  0
 11 15  1  0  0  0  0
 11  8  2  0  0  0  0
 12  8  1  0  0  0  0
 13 16  1  0  0  0  0
 13 10  1  0  0  0  0
 14 10  2  0  0  0  0
 15 13  2  0  0  0  0
 16  9  2  0  0  0  0
 18 17  2  0  0  0  0
 19 21  1  0  0  0  0
 21 24  2  0  0  0  0
 21 20  1  0  0  0  0
 22 19  1  0  0  0  0
 22 23  1  0  0  0  0
 23 25  1  0  0  0  0
 25 20  1  0  0  0  0
 26 28  1  0  0  0  0
 27 26  1  0  0  0  0
 28 36  1  1  0  0  0
 28 29  1  0  0  0  0
 29 30  1  0  0  0  0
 30 35  1  0  0  0  0
 32 33  1  0  0  0  0
 33 31  1  0  0  0  0
 34 30  1  0  0  0  0
 34 32  1  0  0  0  0
 35 31  1  0  0  0  0
 36 37  1  0  0  0  0
 37 41  1  6  0  0  0
 37 38  1  0  0  0  0
 38 39  1  0  0  0  0
 39 40  1  0  0  0  0
 41 43  1  0  0  0  0
 43 42  1  0  0  0  0
M  END
>  <MODEL>
7

>  <REMARK>
 VINA RESULT:      -7.2      3.353      7.482
  Name = 
  12 active torsions:
  status: ('A' for Active; 'I' for Inactive)
    1  A    between atoms: N_2  and  C_13
    2  A    between atoms: N_2  and  P_41
    3  A    between atoms: O_3  and  C_4
    4  A    between atoms: O_3  and  C_12
    5  A    between atoms: C_4  and  C_15
    6  A    between atoms: C_4  and  C_22
    7  A    between atoms: C_8  and  C_34
    8  A    between atoms: N_11  and  C_14
    9  A    between atoms: C_14  and  P_41
   10  A    between atoms: C_15  and  O_42
   11  A    between atoms: C_22  and  P_41
   12  A    between atoms: C_28  and  C_35
                            x       y       z     vdW  Elec       q    Type
                         _______ _______ _______ _____ _____    ______ ____

>  <TORSDO>
F 12

$$$$
=
 OpenBabel10262422323D

 43 47  0  0  1  0  0  0  0  0999 V2000
  184.6020  178.2860  140.8230 C   0  0  0  0  0  2  0  0  0  0  0  0
  184.9760  177.7940  138.5080 O   0  0  0  0  0  0  0  0  0  0  0  0
  186.2350  178.4230  138.4840 C   0  0  1  0  0  3  0  0  0  0  0  0
  188.1370  179.0030  139.8660 O   0  0  0  0  0  1  0  0  0  0  0  0
  184.1580  178.5290  139.3830 C   0  0  1  0  0  3  0  0  0  0  0  0
  186.0430  178.7630  140.9900 C   0  0  2  0  0  3  0  0  0  0  0  0
  186.9480  178.2700  139.8520 C   0  0  1  0  0  3  0  0  0  0  0  0
  187.4380  177.5000  147.1600 C   0  0  0  0  0  0  0  0  0  0  0  0
  186.5710  178.3250  142.3180 C   0  0  0  0  0  0  0  0  0  0  0  0
  187.5950  177.5270  144.7450 C   0  0  0  0  0  0  0  0  0  0  0  0
  186.2590  178.2540  147.0940 C   0  0  0  0  0  3  0  0  0  0  0  0
  187.9320  177.1210  148.3630 F   0  0  0  0  0  0  0  0  0  0  0  0
  186.4110  178.2920  144.6810 C   0  0  0  0  0  0  0  0  0  0  0  0
  188.1040  177.1330  145.9860 C   0  0  0  0  0  3  0  0  0  0  0  0
  185.7450  178.6520  145.8550 C   0  0  0  0  0  3  0  0  0  0  0  0
  185.9320  178.6750  143.4690 N   0  0  0  0  0  0  0  0  0  0  0  0
  187.7430  177.5640  142.3850 C   0  0  0  0  0  3  0  0  0  0  0  0
  188.2300  177.1830  143.5960 N   0  0  0  0  0  0  0  0  0  0  0  0
  180.5500  177.5590  140.4510 C   0  0  0  0  0  2  0  0  0  0  0  0
  182.0470  175.6770  139.4650 C   0  0  0  0  0  2  0  0  0  0  0  0
  180.7310  176.1310  140.0220 C   0  0  0  0  0  0  0  0  0  0  0  0
  181.8960  178.2780  140.5100 C   0  0  0  0  0  2  0  0  0  0  0  0
  182.6930  178.1430  139.1950 C   0  0  0  0  0  3  0  0  0  0  0  0
  179.8090  175.3400  140.1360 O   0  0  0  0  0  0  0  0  0  0  0  0
  182.5960  176.7550  138.5340 C   0  0  0  0  0  2  0  0  0  0  0  0
  187.0090  177.8900  137.3560 N   0  0  0  0  0  0  0  0  0  0  0  0
  187.8030  178.8710  136.8610 O   0  0  0  0  0  1  0  0  0  0  0  0
  188.0110  176.4640  137.8750 P   0  0  1  0  0  0  0  0  0  0  0  0
  187.4120  175.2700  136.5540 C   0  0  0  0  0  2  0  0  0  0  0  0
  186.1010  174.6790  136.8460 N   0  0  0  0  0  0  0  0  0  0  0  0
  184.9310  172.6450  137.6000 C   0  0  0  0  0  2  0  0  0  0  0  0
  183.9680  173.9910  135.7070 C   0  0  0  0  0  2  0  0  0  0  0  0
  183.7050  173.4060  137.0890 C   0  0  0  0  0  2  0  0  0  0  0  0
  185.1710  174.9490  135.7350 C   0  0  0  0  0  2  0  0  0  0  0  0
  186.2460  173.2420  137.0890 C   0  0  0  0  0  2  0  0  0  0  0  0
  189.6540  176.8850  137.0890 C   0  0  0  0  0  2  0  0  0  0  0  0
  190.7890  176.3470  137.9400 C   0  0  1  0  0  3  0  0  0  0  0  0
  191.9790  176.3990  137.2110 O   0  0  0  0  0  0  0  0  0  0  0  0
  192.6850  175.2580  137.5970 C   0  0  0  0  0  2  0  0  0  0  0  0
  191.9050  174.0220  137.2040 C   0  0  0  0  0  1  0  0  0  0  0  0
  190.9210  177.1860  139.2020 C   0  0  0  0  0  2  0  0  0  0  0  0
  191.1740  177.1310  141.3920 C   0  0  0  0  0  1  0  0  0  0  0  0
  190.6570  176.4000  140.3230 O   0  0  0  0  0  0  0  0  0  0  0  0
  1  6  1  0  0  0  0
  2  5  1  0  0  0  0
  3 26  1  6  0  0  0
  3  2  1  0  0  0  0
  3  7  1  0  0  0  0
  5 23  1  1  0  0  0
  5  1  1  0  0  0  0
  6  9  1  1  0  0  0
  7  4  1  6  0  0  0
  7  6  1  0  0  0  0
  8 12  1  0  0  0  0
  9 17  2  0  0  0  0
  9 16  1  0  0  0  0
 10 14  1  0  0  0  0
 11  8  1  0  0  0  0
 13 10  1  0  0  0  0
 13 15  1  0  0  0  0
 14  8  2  0  0  0  0
 15 11  2  0  0  0  0
 16 13  2  0  0  0  0
 17 18  1  0  0  0  0
 18 10  2  0  0  0  0
 19 22  1  0  0  0  0
 20 21  1  0  0  0  0
 21 24  2  0  0  0  0
 21 19  1  0  0  0  0
 23 22  1  0  0  0  0
 25 23  1  0  0  0  0
 25 20  1  0  0  0  0
 26 28  1  0  0  0  0
 27 26  1  0  0  0  0
 28 29  1  6  0  0  0
 29 30  1  0  0  0  0
 30 35  1  0  0  0  0
 32 34  1  0  0  0  0
 32 33  1  0  0  0  0
 33 31  1  0  0  0  0
 34 30  1  0  0  0  0
 35 31  1  0  0  0  0
 36 28  1  0  0  0  0
 37 36  1  6  0  0  0
 37 41  1  0  0  0  0
 38 39  1  0  0  0  0
 38 37  1  0  0  0  0
 40 39  1  0  0  0  0
 41 43  1  0  0  0  0
 43 42  1  0  0  0  0
M  END
>  <MODEL>
8

>  <REMARK>
 VINA RESULT:      -7.2      2.443      6.772
  Name = 
  12 active torsions:
  status: ('A' for Active; 'I' for Inactive)
    1  A    between atoms: N_2  and  C_13
    2  A    between atoms: N_2  and  P_41
    3  A    between atoms: O_3  and  C_4
    4  A    between atoms: O_3  and  C_12
    5  A    between atoms: C_4  and  C_15
    6  A    between atoms: C_4  and  C_22
    7  A    between atoms: C_8  and  C_34
    8  A    between atoms: N_11  and  C_14
    9  A    between atoms: C_14  and  P_41
   10  A    between atoms: C_15  and  O_42
   11  A    between atoms: C_22  and  P_41
   12  A    between atoms: C_28  and  C_35
                            x       y       z     vdW  Elec       q    Type
                         _______ _______ _______ _____ _____    ______ ____

>  <TORSDO>
F 12

$$$$
=
 OpenBabel10262422323D

 43 47  0  0  1  0  0  0  0  0999 V2000
  183.0300  176.5500  139.5420 C   0  0  0  0  0  2  0  0  0  0  0  0
  184.4970  176.3520  137.6580 O   0  0  0  0  0  0  0  0  0  0  0  0
  184.8000  177.7250  137.6340 C   0  0  1  0  0  3  0  0  0  0  0  0
  184.9700  179.6960  139.0310 O   0  0  0  0  0  1  0  0  0  0  0  0
  183.1550  176.2260  138.0560 C   0  0  1  0  0  3  0  0  0  0  0  0
  183.4740  177.9920  139.7800 C   0  0  2  0  0  3  0  0  0  0  0  0
  184.7970  178.3110  139.0700 C   0  0  1  0  0  3  0  0  0  0  0  0
  184.9930  178.6490  146.0130 C   0  0  0  0  0  0  0  0  0  0  0  0
  183.5790  178.2540  141.2470 C   0  0  0  0  0  0  0  0  0  0  0  0
  183.7220  178.7200  143.9560 C   0  0  0  0  0  0  0  0  0  0  0  0
  186.0930  178.1300  145.3190 C   0  0  0  0  0  3  0  0  0  0  0  0
  185.0780  178.8660  147.3480 F   0  0  0  0  0  0  0  0  0  0  0  0
  184.8280  178.1910  143.2580 C   0  0  0  0  0  0  0  0  0  0  0  0
  183.8090  178.9480  145.3330 C   0  0  0  0  0  3  0  0  0  0  0  0
  186.0120  177.8990  143.9410 C   0  0  0  0  0  3  0  0  0  0  0  0
  184.7270  177.9680  141.9230 N   0  0  0  0  0  0  0  0  0  0  0  0
  182.4850  178.7800  141.9410 C   0  0  0  0  0  3  0  0  0  0  0  0
  182.5780  179.0010  143.2800 N   0  0  0  0  0  0  0  0  0  0  0  0
  183.3470  172.5060  136.9500 C   0  0  0  0  0  2  0  0  0  0  0  0
  182.2010  174.1750  135.3200 C   0  0  0  0  0  2  0  0  0  0  0  0
  182.6250  172.7770  135.6610 C   0  0  0  0  0  0  0  0  0  0  0  0
  183.7990  173.8120  137.5990 C   0  0  0  0  0  2  0  0  0  0  0  0
  182.6410  174.8190  137.7630 C   0  0  0  0  0  3  0  0  0  0  0  0
  182.3910  171.8620  134.8900 O   0  0  0  0  0  0  0  0  0  0  0  0
  181.6590  174.8550  136.5760 C   0  0  0  0  0  2  0  0  0  0  0  0
  186.0710  177.9180  136.9240 N   0  0  0  0  0  0  0  0  0  0  0  0
  186.6880  179.0220  137.4110 O   0  0  0  0  0  1  0  0  0  0  0  0
  187.1420  176.4600  137.1100 P   0  0  1  0  0  0  0  0  0  0  0  0
  187.0680  175.8930  135.3200 C   0  0  0  0  0  2  0  0  0  0  0  0
  187.3440  174.4630  135.1430 N   0  0  0  0  0  0  0  0  0  0  0  0
  187.2570  172.2460  136.2180 C   0  0  0  0  0  2  0  0  0  0  0  0
  189.2580  172.8650  134.8260 C   0  0  0  0  0  2  0  0  0  0  0  0
  188.1310  171.8580  135.0230 C   0  0  0  0  0  2  0  0  0  0  0  0
  188.6980  174.2780  134.5940 C   0  0  0  0  0  2  0  0  0  0  0  0
  187.1810  173.7630  136.4200 C   0  0  0  0  0  2  0  0  0  0  0  0
  188.8320  177.2560  137.0390 C   0  0  0  0  0  2  0  0  0  0  0  0
  189.6810  176.7750  138.2020 C   0  0  1  0  0  3  0  0  0  0  0  0
  188.9570  176.9030  139.3880 O   0  0  0  0  0  0  0  0  0  0  0  0
  189.0730  178.2500  139.7340 C   0  0  0  0  0  2  0  0  0  0  0  0
  188.1320  178.5620  140.8800 C   0  0  0  0  0  1  0  0  0  0  0  0
  190.0610  175.3180  137.9840 C   0  0  0  0  0  2  0  0  0  0  0  0
  191.8490  174.2080  137.3270 C   0  0  0  0  0  1  0  0  0  0  0  0
  191.4130  175.1330  138.2740 O   0  0  0  0  0  0  0  0  0  0  0  0
  1  6  1  0  0  0  0
  2  5  1  0  0  0  0
  3 26  1  1  0  0  0
  3  2  1  0  0  0  0
  3  7  1  0  0  0  0
  5 23  1  1  0  0  0
  5  1  1  0  0  0  0
  6  9  1  1  0  0  0
  7  4  1  6  0  0  0
  7  6  1  0  0  0  0
  8 12  1  0  0  0  0
  9 16  2  0  0  0  0
  9 17  1  0  0  0  0
 10 14  2  0  0  0  0
 11  8  2  0  0  0  0
 13 15  2  0  0  0  0
 13 10  1  0  0  0  0
 14  8  1  0  0  0  0
 15 11  1  0  0  0  0
 16 13  1  0  0  0  0
 17 18  2  0  0  0  0
 18 10  1  0  0  0  0
 19 22  1  0  0  0  0
 20 21  1  0  0  0  0
 20 25  1  0  0  0  0
 21 19  1  0  0  0  0
 22 23  1  0  0  0  0
 24 21  2  0  0  0  0
 25 23  1  0  0  0  0
 26 28  1  0  0  0  0
 26 27  1  0  0  0  0
 28 29  1  6  0  0  0
 30 29  1  0  0  0  0
 30 35  1  0  0  0  0
 31 35  1  0  0  0  0
 32 33  1  0  0  0  0
 33 31  1  0  0  0  0
 34 32  1  0  0  0  0
 34 30  1  0  0  0  0
 36 28  1  0  0  0  0
 37 36  1  6  0  0  0
 37 38  1  0  0  0  0
 38 39  1  0  0  0  0
 39 40  1  0  0  0  0
 41 37  1  0  0  0  0
 41 43  1  0  0  0  0
 42 43  1  0  0  0  0
M  END
>  <MODEL>
9

>  <REMARK>
 VINA RESULT:      -7.2      2.944      6.705
  Name = 
  12 active torsions:
  status: ('A' for Active; 'I' for Inactive)
    1  A    between atoms: N_2  and  C_13
    2  A    between atoms: N_2  and  P_41
    3  A    between atoms: O_3  and  C_4
    4  A    between atoms: O_3  and  C_12
    5  A    between atoms: C_4  and  C_15
    6  A    between atoms: C_4  and  C_22
    7  A    between atoms: C_8  and  C_34
    8  A    between atoms: N_11  and  C_14
    9  A    between atoms: C_14  and  P_41
   10  A    between atoms: C_15  and  O_42
   11  A    between atoms: C_22  and  P_41
   12  A    between atoms: C_28  and  C_35
                            x       y       z     vdW  Elec       q    Type
                         _______ _______ _______ _____ _____    ______ ____

>  <TORSDO>
F 12

$$$$
