=
 OpenBabel10262421313D

 32 37  0  0  1  0  0  0  0  0999 V2000
  180.0060  178.8040  138.9250 N   0  0  0  0  0  0  0  0  0  0  0  0
  185.1160  178.9330  139.9440 N   0  0  0  0  0  0  0  0  0  0  0  0
  182.8340  179.3540  139.0170 C   0  0  1  0  0  3  0  0  0  0  0  0
  183.2220  177.3150  140.3730 C   0  0  0  0  0  2  0  0  0  0  0  0
  180.9340  177.8180  139.5080 C   0  0  0  0  0  2  0  0  0  0  0  0
  184.5640  177.8990  140.8400 C   0  0  2  0  0  3  0  0  0  0  0  0
  180.4250  180.2050  139.1060 C   0  0  0  0  0  2  0  0  0  0  0  0
  182.2310  178.4200  140.0550 C   0  0  2  0  0  3  0  0  0  0  0  0
  181.8630  180.4700  138.6300 C   0  0  0  0  0  2  0  0  0  0  0  0
  184.1300  179.9560  139.5590 C   0  0  0  0  0  2  0  0  0  0  0  0
  185.6350  178.2940  138.7430 C   0  0  0  0  0  1  0  0  0  0  0  0
  183.3310  179.2360  144.1900 C   0  0  0  0  0  3  0  0  0  0  0  0
  184.4500  179.0450  144.9990 C   0  0  0  0  0  3  0  0  0  0  0  0
  183.3750  178.8760  142.8410 C   0  0  0  0  0  3  0  0  0  0  0  0
  184.5430  178.3310  142.2850 C   0  0  0  0  0  0  0  0  0  0  0  0
  185.6160  178.4960  144.4600 C   0  0  0  0  0  3  0  0  0  0  0  0
  185.6750  178.1470  143.1040 C   0  0  0  0  0  0  0  0  0  0  0  0
  186.9270  177.5320  142.5600 C   0  0  0  0  0  2  0  0  0  0  0  0
  188.0950  177.9770  143.3280 N   0  0  0  0  0  2  0  0  0  0  0  0
  189.1010  176.7790  146.3840 C   0  0  0  0  0  2  0  0  0  0  0  0
  189.6220  177.3210  145.0700 C   0  0  0  0  0  0  0  0  0  0  0  0
  189.5170  176.0600  143.0070 C   0  0  2  0  0  3  0  0  0  0  0  0
  190.9710  175.8930  143.4640 C   0  0  2  0  0  3  0  0  0  0  0  0
  191.3710  176.9730  144.8750 S   0  0  0  0  0  0  0  0  0  0  0  0
  189.0820  178.2740  146.1180 C   0  0  0  0  0  2  0  0  0  0  0  0
  190.6520  176.7640  142.2730 C   0  0  0  0  0  2  0  0  0  0  0  0
  188.7720  176.9020  143.9620 N   0  0  0  0  0  0  0  0  0  0  0  0
  179.8830  178.5170  137.5000 C   0  0  0  0  0  2  0  0  0  0  0  0
  180.2800  177.0760  137.2080 C   0  0  0  0  0  2  0  0  0  0  0  0
  181.1820  176.9910  136.0190 C   0  0  0  0  0  3  0  0  0  0  0  0
  183.3480  177.2230  134.9110 C   0  0  0  0  0  1  0  0  0  0  0  0
  182.4700  177.3160  136.1100 C   0  0  0  0  0  3  0  0  0  0  0  0
  1  7  1  0  0  0  0
  1  5  1  0  0  0  0
  2  6  1  0  0  0  0
  3  9  1  1  0  0  0
  3 10  1  0  0  0  0
  3  8  1  0  0  0  0
  4  6  1  0  0  0  0
  6 15  1  1  0  0  0
  8  5  1  6  0  0  0
  8  4  1  0  0  0  0
  9  7  1  0  0  0  0
 10  2  1  0  0  0  0
 11  2  1  0  0  0  0
 12 13  1  0  0  0  0
 14 12  2  0  0  0  0
 15 14  1  0  0  0  0
 15 17  2  0  0  0  0
 16 13  2  0  0  0  0
 17 16  1  0  0  0  0
 18 17  1  0  0  0  0
 18 19  1  0  0  0  0
 19 27  1  0  0  0  0
 21 25  1  0  0  0  0
 21 20  1  0  0  0  0
 22 26  1  6  0  0  0
 22 23  1  0  0  0  0
 22 27  1  0  0  0  0
 23 26  1  6  0  0  0
 23 24  1  0  0  0  0
 24 21  1  0  0  0  0
 25 20  1  0  0  0  0
 27 21  1  0  0  0  0
 28  1  1  0  0  0  0
 29 28  1  0  0  0  0
 30 32  2  0  0  0  0
 30 29  1  0  0  0  0
 31 32  1  0  0  0  0
M  END
>  <MODEL>
1

>  <REMARK>
 VINA RESULT:      -6.9      0.000      0.000
  Name = 
  7 active torsions:
  status: ('A' for Active; 'I' for Inactive)
    1  A    between atoms: C_1  and  C_10
    2  A    between atoms: N_2  and  C_24
    3  A    between atoms: C_10  and  C_24
    4  A    between atoms: C_14  and  C_15
    5  A    between atoms: C_16  and  C_26
    6  A    between atoms: C_16  and  N_27
    7  A    between atoms: N_27  and  N_32
                            x       y       z     vdW  Elec       q    Type
                         _______ _______ _______ _____ _____    ______ ____

>  <TORSDO>
F 7

$$$$
=
 OpenBabel10262421313D

 32 37  0  0  1  0  0  0  0  0999 V2000
  179.8170  178.3230  138.8430 N   0  0  0  0  0  0  0  0  0  0  0  0
  184.8930  178.9600  139.8390 N   0  0  0  0  0  0  0  0  0  0  0  0
  182.5770  179.1510  138.9220 C   0  0  1  0  0  3  0  0  0  0  0  0
  183.1710  177.1610  140.2770 C   0  0  0  0  0  2  0  0  0  0  0  0
  180.8410  177.4340  139.4220 C   0  0  0  0  0  2  0  0  0  0  0  0
  184.4510  177.8760  140.7380 C   0  0  2  0  0  3  0  0  0  0  0  0
  180.0950  179.7580  139.0230 C   0  0  0  0  0  2  0  0  0  0  0  0
  182.0740  178.1620  139.9630 C   0  0  2  0  0  3  0  0  0  0  0  0
  181.4980  180.1650  138.5400 C   0  0  0  0  0  2  0  0  0  0  0  0
  183.8090  179.8790  139.4590 C   0  0  0  0  0  2  0  0  0  0  0  0
  185.4680  178.3750  138.6360 C   0  0  0  0  0  1  0  0  0  0  0  0
  183.0920  178.9850  144.1220 C   0  0  0  0  0  3  0  0  0  0  0  0
  184.2510  179.0040  144.8990 C   0  0  0  0  0  3  0  0  0  0  0  0
  183.1630  178.6320  142.7730 C   0  0  0  0  0  3  0  0  0  0  0  0
  184.3930  178.3050  142.1830 C   0  0  0  0  0  0  0  0  0  0  0  0
  185.4810  178.6730  144.3250 C   0  0  0  0  0  3  0  0  0  0  0  0
  185.5630  178.3330  142.9680 C   0  0  0  0  0  0  0  0  0  0  0  0
  186.8900  177.9520  142.3880 C   0  0  0  0  0  2  0  0  0  0  0  0
  187.6710  177.1750  143.3550 N   0  0  0  0  0  2  0  0  0  0  0  0
  190.8690  177.6440  142.1990 C   0  0  0  0  0  2  0  0  0  0  0  0
  190.0700  176.9740  143.2950 C   0  0  0  0  0  0  0  0  0  0  0  0
  188.9980  178.2170  145.0740 C   0  0  2  0  0  3  0  0  0  0  0  0
  190.2720  177.6670  145.7280 C   0  0  2  0  0  3  0  0  0  0  0  0
  191.1280  176.4710  144.6530 S   0  0  0  0  0  0  0  0  0  0  0  0
  190.1390  176.3430  141.9180 C   0  0  0  0  0  2  0  0  0  0  0  0
  188.9260  177.0930  146.1010 C   0  0  0  0  0  2  0  0  0  0  0  0
  188.9150  177.7830  143.6660 N   0  0  0  0  0  0  0  0  0  0  0  0
  179.7170  178.0240  137.4190 C   0  0  0  0  0  2  0  0  0  0  0  0
  180.4760  176.7460  137.0860 C   0  0  0  0  0  2  0  0  0  0  0  0
  181.5140  176.9890  136.0380 C   0  0  0  0  0  3  0  0  0  0  0  0
  183.8140  176.9710  135.2100 C   0  0  0  0  0  1  0  0  0  0  0  0
  182.7980  176.7200  136.2690 C   0  0  0  0  0  3  0  0  0  0  0  0
  1  7  1  0  0  0  0
  1  5  1  0  0  0  0
  2  6  1  0  0  0  0
  3  9  1  1  0  0  0
  3 10  1  0  0  0  0
  3  8  1  0  0  0  0
  4  6  1  0  0  0  0
  6 15  1  1  0  0  0
  8  5  1  6  0  0  0
  8  4  1  0  0  0  0
  9  7  1  0  0  0  0
 10  2  1  0  0  0  0
 11  2  1  0  0  0  0
 12 13  1  0  0  0  0
 14 12  2  0  0  0  0
 15 14  1  0  0  0  0
 15 17  2  0  0  0  0
 16 13  2  0  0  0  0
 17 16  1  0  0  0  0
 18 17  1  0  0  0  0
 18 19  1  0  0  0  0
 19 27  1  0  0  0  0
 20 21  1  0  0  0  0
 21 27  1  0  0  0  0
 21 24  1  0  0  0  0
 22 23  1  0  0  0  0
 22 26  1  1  0  0  0
 23 26  1  1  0  0  0
 24 23  1  0  0  0  0
 25 20  1  0  0  0  0
 25 21  1  0  0  0  0
 27 22  1  0  0  0  0
 28  1  1  0  0  0  0
 29 28  1  0  0  0  0
 30 32  2  0  0  0  0
 30 29  1  0  0  0  0
 31 32  1  0  0  0  0
M  END
>  <MODEL>
2

>  <REMARK>
 VINA RESULT:      -6.9      0.605      1.665
  Name = 
  7 active torsions:
  status: ('A' for Active; 'I' for Inactive)
    1  A    between atoms: C_1  and  C_10
    2  A    between atoms: N_2  and  C_24
    3  A    between atoms: C_10  and  C_24
    4  A    between atoms: C_14  and  C_15
    5  A    between atoms: C_16  and  C_26
    6  A    between atoms: C_16  and  N_27
    7  A    between atoms: N_27  and  N_32
                            x       y       z     vdW  Elec       q    Type
                         _______ _______ _______ _____ _____    ______ ____

>  <TORSDO>
F 7

$$$$
=
 OpenBabel10262421313D

 32 37  0  0  1  0  0  0  0  0999 V2000
  180.7420  174.8420  139.0870 N   0  0  0  0  0  0  0  0  0  0  0  0
  182.2270  179.7580  139.9790 N   0  0  0  0  0  0  0  0  0  0  0  0
  180.9180  177.6960  139.4490 C   0  0  1  0  0  3  0  0  0  0  0  0
  183.3960  177.5770  139.4590 C   0  0  0  0  0  2  0  0  0  0  0  0
  182.0520  175.5170  139.0260 C   0  0  0  0  0  2  0  0  0  0  0  0
  183.4430  178.9430  140.1620 C   0  0  2  0  0  3  0  0  0  0  0  0
  179.7800  175.4750  140.0060 C   0  0  0  0  0  2  0  0  0  0  0  0
  182.1190  176.8320  139.8060 C   0  0  2  0  0  3  0  0  0  0  0  0
  179.6000  176.9800  139.7460 C   0  0  0  0  0  2  0  0  0  0  0  0
  180.9830  179.0110  140.2260 C   0  0  0  0  0  2  0  0  0  0  0  0
  182.2070  180.2840  138.6210 C   0  0  0  0  0  1  0  0  0  0  0  0
  183.2740  178.6700  143.9610 C   0  0  0  0  0  3  0  0  0  0  0  0
  184.6230  178.5480  144.2950 C   0  0  0  0  0  3  0  0  0  0  0  0
  182.8970  178.8110  142.6240 C   0  0  0  0  0  3  0  0  0  0  0  0
  183.8640  178.8420  141.6070 C   0  0  0  0  0  0  0  0  0  0  0  0
  185.5950  178.5690  143.2920 C   0  0  0  0  0  3  0  0  0  0  0  0
  185.2260  178.7260  141.9490 C   0  0  0  0  0  0  0  0  0  0  0  0
  186.2880  178.7130  140.8930 C   0  0  0  0  0  2  0  0  0  0  0  0
  187.6210  178.7130  141.5020 N   0  0  0  0  0  2  0  0  0  0  0  0
  189.3310  176.1930  143.0870 C   0  0  0  0  0  2  0  0  0  0  0  0
  189.5030  177.3430  142.1200 C   0  0  0  0  0  0  0  0  0  0  0  0
  188.6450  177.2830  139.8570 C   0  0  2  0  0  3  0  0  0  0  0  0
  190.1390  176.9770  139.6900 C   0  0  2  0  0  3  0  0  0  0  0  0
  191.0630  177.2220  141.2410 S   0  0  0  0  0  0  0  0  0  0  0  0
  189.4140  177.6170  143.6070 C   0  0  0  0  0  2  0  0  0  0  0  0
  189.5900  178.3130  139.2470 C   0  0  0  0  0  2  0  0  0  0  0  0
  188.3210  177.4980  141.2800 N   0  0  0  0  0  0  0  0  0  0  0  0
  180.1840  174.8240  137.7400 C   0  0  0  0  0  2  0  0  0  0  0  0
  181.2600  175.1410  136.7100 C   0  0  0  0  0  2  0  0  0  0  0  0
  180.8910  176.3330  135.8860 C   0  0  0  0  0  3  0  0  0  0  0  0
  181.2410  178.6150  135.0840 C   0  0  0  0  0  1  0  0  0  0  0  0
  181.6300  177.4410  135.9120 C   0  0  0  0  0  3  0  0  0  0  0  0
  1  7  1  0  0  0  0
  2  6  1  0  0  0  0
  2 10  1  0  0  0  0
  3  9  1  1  0  0  0
  3  8  1  0  0  0  0
  3 10  1  0  0  0  0
  4  8  1  0  0  0  0
  4  6  1  0  0  0  0
  5  1  1  0  0  0  0
  6 15  1  1  0  0  0
  8  5  1  6  0  0  0
  9  7  1  0  0  0  0
 11  2  1  0  0  0  0
 12 13  1  0  0  0  0
 14 12  2  0  0  0  0
 15 17  2  0  0  0  0
 15 14  1  0  0  0  0
 16 13  2  0  0  0  0
 17 16  1  0  0  0  0
 18 19  1  0  0  0  0
 18 17  1  0  0  0  0
 20 25  1  0  0  0  0
 21 20  1  0  0  0  0
 21 25  1  0  0  0  0
 22 26  1  6  0  0  0
 22 27  1  0  0  0  0
 23 26  1  6  0  0  0
 23 22  1  0  0  0  0
 23 24  1  0  0  0  0
 24 21  1  0  0  0  0
 27 19  1  0  0  0  0
 27 21  1  0  0  0  0
 28  1  1  0  0  0  0
 29 28  1  0  0  0  0
 30 32  2  0  0  0  0
 30 29  1  0  0  0  0
 31 32  1  0  0  0  0
M  END
>  <MODEL>
3

>  <REMARK>
 VINA RESULT:      -6.6      1.956      2.761
  Name = 
  7 active torsions:
  status: ('A' for Active; 'I' for Inactive)
    1  A    between atoms: C_1  and  C_10
    2  A    between atoms: N_2  and  C_24
    3  A    between atoms: C_10  and  C_24
    4  A    between atoms: C_14  and  C_15
    5  A    between atoms: C_16  and  C_26
    6  A    between atoms: C_16  and  N_27
    7  A    between atoms: N_27  and  N_32
                            x       y       z     vdW  Elec       q    Type
                         _______ _______ _______ _____ _____    ______ ____

>  <TORSDO>
F 7

$$$$
=
 OpenBabel10262421313D

 32 37  0  0  1  0  0  0  0  0999 V2000
  180.3660  174.8650  139.6000 N   0  0  0  0  0  0  0  0  0  0  0  0
  182.2600  179.7030  140.0180 N   0  0  0  0  0  0  0  0  0  0  0  0
  180.7780  177.7160  139.7020 C   0  0  1  0  0  3  0  0  0  0  0  0
  183.2370  177.3970  139.6720 C   0  0  0  0  0  2  0  0  0  0  0  0
  181.7220  175.4230  139.4520 C   0  0  0  0  0  2  0  0  0  0  0  0
  183.4120  178.8100  140.2490 C   0  0  2  0  0  3  0  0  0  0  0  0
  179.4830  175.6530  140.4780 C   0  0  0  0  0  2  0  0  0  0  0  0
  181.9150  176.7920  140.1100 C   0  0  2  0  0  3  0  0  0  0  0  0
  179.4160  177.1390  140.0880 C   0  0  0  0  0  2  0  0  0  0  0  0
  180.9680  179.0840  140.3560 C   0  0  0  0  0  2  0  0  0  0  0  0
  182.2450  180.1080  138.6200 C   0  0  0  0  0  1  0  0  0  0  0  0
  183.3240  178.7540  144.0590 C   0  0  0  0  0  3  0  0  0  0  0  0
  184.6810  178.6810  144.3720 C   0  0  0  0  0  3  0  0  0  0  0  0
  182.9170  178.8090  142.7240 C   0  0  0  0  0  3  0  0  0  0  0  0
  183.8640  178.8020  141.6880 C   0  0  0  0  0  0  0  0  0  0  0  0
  185.6330  178.6650  143.3500 C   0  0  0  0  0  3  0  0  0  0  0  0
  185.2350  178.7360  142.0080 C   0  0  0  0  0  0  0  0  0  0  0  0
  186.2750  178.6860  140.9320 C   0  0  0  0  0  2  0  0  0  0  0  0
  187.6200  178.7510  141.5120 N   0  0  0  0  0  2  0  0  0  0  0  0
  189.2350  176.3220  143.3230 C   0  0  0  0  0  2  0  0  0  0  0  0
  189.4620  177.4150  142.3020 C   0  0  0  0  0  0  0  0  0  0  0  0
  188.7190  177.2280  140.0050 C   0  0  2  0  0  3  0  0  0  0  0  0
  190.2180  176.9100  139.9320 C   0  0  2  0  0  3  0  0  0  0  0  0
  191.0630  177.2420  141.5120 S   0  0  0  0  0  0  0  0  0  0  0  0
  189.2980  177.7730  143.7650 C   0  0  0  0  0  2  0  0  0  0  0  0
  189.6990  178.2190  139.3870 C   0  0  0  0  0  2  0  0  0  0  0  0
  188.3240  177.5240  141.3950 N   0  0  0  0  0  0  0  0  0  0  0  0
  179.7710  174.7750  138.2710 C   0  0  0  0  0  2  0  0  0  0  0  0
  178.9400  173.5050  138.1410 C   0  0  0  0  0  2  0  0  0  0  0  0
  179.3230  172.7280  136.9220 C   0  0  0  0  0  3  0  0  0  0  0  0
  179.9030  170.6610  135.7540 C   0  0  0  0  0  1  0  0  0  0  0  0
  179.5220  171.4130  136.9820 C   0  0  0  0  0  3  0  0  0  0  0  0
  1  7  1  0  0  0  0
  2  6  1  0  0  0  0
  2 10  1  0  0  0  0
  3  9  1  1  0  0  0
  3  8  1  0  0  0  0
  3 10  1  0  0  0  0
  4  8  1  0  0  0  0
  4  6  1  0  0  0  0
  5  1  1  0  0  0  0
  6 15  1  1  0  0  0
  8  5  1  6  0  0  0
  9  7  1  0  0  0  0
 11  2  1  0  0  0  0
 12 13  1  0  0  0  0
 14 12  2  0  0  0  0
 15 17  2  0  0  0  0
 15 14  1  0  0  0  0
 16 13  2  0  0  0  0
 17 16  1  0  0  0  0
 18 19  1  0  0  0  0
 18 17  1  0  0  0  0
 20 25  1  0  0  0  0
 21 20  1  0  0  0  0
 21 25  1  0  0  0  0
 22 26  1  6  0  0  0
 22 27  1  0  0  0  0
 23 26  1  6  0  0  0
 23 22  1  0  0  0  0
 23 24  1  0  0  0  0
 24 21  1  0  0  0  0
 27 19  1  0  0  0  0
 27 21  1  0  0  0  0
 28  1  1  0  0  0  0
 29 28  1  0  0  0  0
 30 32  2  0  0  0  0
 30 29  1  0  0  0  0
 31 32  1  0  0  0  0
M  END
>  <MODEL>
4

>  <REMARK>
 VINA RESULT:      -6.4      2.622      3.342
  Name = 
  7 active torsions:
  status: ('A' for Active; 'I' for Inactive)
    1  A    between atoms: C_1  and  C_10
    2  A    between atoms: N_2  and  C_24
    3  A    between atoms: C_10  and  C_24
    4  A    between atoms: C_14  and  C_15
    5  A    between atoms: C_16  and  C_26
    6  A    between atoms: C_16  and  N_27
    7  A    between atoms: N_27  and  N_32
                            x       y       z     vdW  Elec       q    Type
                         _______ _______ _______ _____ _____    ______ ____

>  <TORSDO>
F 7

$$$$
=
 OpenBabel10262421313D

 32 37  0  0  1  0  0  0  0  0999 V2000
  191.5030  177.2130  144.9850 N   0  0  0  0  0  0  0  0  0  0  0  0
  188.2290  178.6050  141.1750 N   0  0  0  0  0  0  0  0  0  0  0  0
  189.6830  178.5680  143.2070 C   0  0  1  0  0  3  0  0  0  0  0  0
  189.1120  176.4240  142.1000 C   0  0  0  0  0  2  0  0  0  0  0  0
  190.6380  176.4370  144.0780 C   0  0  0  0  0  2  0  0  0  0  0  0
  188.6000  177.2060  140.8820 C   0  0  2  0  0  3  0  0  0  0  0  0
  191.9170  178.5220  144.4490 C   0  0  0  0  0  2  0  0  0  0  0  0
  190.2060  177.1940  142.8190 C   0  0  2  0  0  3  0  0  0  0  0  0
  190.7330  179.3780  143.9680 C   0  0  0  0  0  2  0  0  0  0  0  0
  189.2490  179.3260  141.9530 C   0  0  0  0  0  2  0  0  0  0  0  0
  186.9710  178.6190  141.9080 C   0  0  0  0  0  1  0  0  0  0  0  0
  191.7010  176.5960  138.7510 C   0  0  0  0  0  3  0  0  0  0  0  0
  191.1920  176.7490  137.4620 C   0  0  0  0  0  3  0  0  0  0  0  0
  190.8620  176.7570  139.8560 C   0  0  0  0  0  3  0  0  0  0  0  0
  189.5080  177.0840  139.6840 C   0  0  0  0  0  0  0  0  0  0  0  0
  189.8440  177.0670  137.2770 C   0  0  0  0  0  3  0  0  0  0  0  0
  188.9990  177.2460  138.3800 C   0  0  0  0  0  0  0  0  0  0  0  0
  187.5520  177.5550  138.1510 C   0  0  0  0  0  2  0  0  0  0  0  0
  187.1260  177.0760  136.8320 N   0  0  0  0  0  2  0  0  0  0  0  0
  186.4300  173.7370  137.2180 C   0  0  0  0  0  2  0  0  0  0  0  0
  186.3460  174.8790  136.2300 C   0  0  0  0  0  0  0  0  0  0  0  0
  184.7730  176.7020  136.4740 C   0  0  2  0  0  3  0  0  0  0  0  0
  184.1250  175.7990  135.4180 C   0  0  2  0  0  3  0  0  0  0  0  0
  185.2510  174.4770  134.8670 S   0  0  0  0  0  0  0  0  0  0  0  0
  187.6690  174.1760  136.4590 C   0  0  0  0  0  2  0  0  0  0  0  0
  184.7170  177.1280  135.0110 C   0  0  0  0  0  2  0  0  0  0  0  0
  186.0640  176.1370  136.9110 N   0  0  0  0  0  0  0  0  0  0  0  0
  190.7780  177.4110  146.2360 C   0  0  0  0  0  2  0  0  0  0  0  0
  189.4260  176.7110  146.1870 C   0  0  0  0  0  2  0  0  0  0  0  0
  188.3180  177.6430  146.5570 C   0  0  0  0  0  3  0  0  0  0  0  0
  186.1020  178.6240  146.2350 C   0  0  0  0  0  1  0  0  0  0  0  0
  187.1920  177.6860  145.8470 C   0  0  0  0  0  3  0  0  0  0  0  0
  1 28  1  0  0  0  0
  2 11  1  0  0  0  0
  2 10  1  0  0  0  0
  3 10  1  6  0  0  0
  3  9  1  0  0  0  0
  5  1  1  0  0  0  0
  6 15  1  6  0  0  0
  6  2  1  0  0  0  0
  6  4  1  0  0  0  0
  7  1  1  0  0  0  0
  8  4  1  1  0  0  0
  8  3  1  0  0  0  0
  8  5  1  0  0  0  0
  9  7  1  0  0  0  0
 12 14  1  0  0  0  0
 13 12  2  0  0  0  0
 15 14  2  0  0  0  0
 16 13  1  0  0  0  0
 16 17  2  0  0  0  0
 17 15  1  0  0  0  0
 18 17  1  0  0  0  0
 19 27  1  0  0  0  0
 19 18  1  0  0  0  0
 21 25  1  0  0  0  0
 21 27  1  0  0  0  0
 21 20  1  0  0  0  0
 22 26  1  6  0  0  0
 22 27  1  0  0  0  0
 23 26  1  6  0  0  0
 23 22  1  0  0  0  0
 24 23  1  0  0  0  0
 24 21  1  0  0  0  0
 25 20  1  0  0  0  0
 29 28  1  0  0  0  0
 29 30  1  0  0  0  0
 32 31  1  0  0  0  0
 32 30  2  0  0  0  0
M  END
>  <MODEL>
5

>  <REMARK>
 VINA RESULT:      -6.3      3.986      9.432
  Name = 
  7 active torsions:
  status: ('A' for Active; 'I' for Inactive)
    1  A    between atoms: C_1  and  C_10
    2  A    between atoms: N_2  and  C_24
    3  A    between atoms: C_10  and  C_24
    4  A    between atoms: C_14  and  C_15
    5  A    between atoms: C_16  and  C_26
    6  A    between atoms: C_16  and  N_27
    7  A    between atoms: N_27  and  N_32
                            x       y       z     vdW  Elec       q    Type
                         _______ _______ _______ _____ _____    ______ ____

>  <TORSDO>
F 7

$$$$
=
 OpenBabel10262421313D

 32 37  0  0  1  0  0  0  0  0999 V2000
  189.3920  177.3200  142.4380 N   0  0  0  0  0  0  0  0  0  0  0  0
  188.6810  178.0150  137.3210 N   0  0  0  0  0  0  0  0  0  0  0  0
  189.6710  177.7100  139.5950 C   0  0  1  0  0  3  0  0  0  0  0  0
  187.2580  178.2500  139.3980 C   0  0  0  0  0  2  0  0  0  0  0  0
  188.2640  177.8460  141.6480 C   0  0  0  0  0  2  0  0  0  0  0  0
  187.3250  177.9290  137.8970 C   0  0  2  0  0  3  0  0  0  0  0  0
  190.2580  176.3830  141.7000 C   0  0  0  0  0  2  0  0  0  0  0  0
  188.2880  177.4450  140.1710 C   0  0  2  0  0  3  0  0  0  0  0  0
  190.7550  176.9500  140.3600 C   0  0  0  0  0  2  0  0  0  0  0  0
  189.6980  177.3120  138.1200 C   0  0  0  0  0  2  0  0  0  0  0  0
  189.0570  179.4170  137.1960 C   0  0  0  0  0  1  0  0  0  0  0  0
  186.7280  174.2900  136.9330 C   0  0  0  0  0  3  0  0  0  0  0  0
  185.3360  174.2100  136.9830 C   0  0  0  0  0  3  0  0  0  0  0  0
  187.3680  175.4980  137.2170 C   0  0  0  0  0  3  0  0  0  0  0  0
  186.6230  176.6420  137.5430 C   0  0  0  0  0  0  0  0  0  0  0  0
  184.5840  175.3390  137.3130 C   0  0  0  0  0  3  0  0  0  0  0  0
  185.2160  176.5590  137.5840 C   0  0  0  0  0  0  0  0  0  0  0  0
  184.3860  177.7460  137.9660 C   0  0  0  0  0  2  0  0  0  0  0  0
  183.6300  177.4720  139.1920 N   0  0  0  0  0  2  0  0  0  0  0  0
  184.4300  179.3810  141.9310 C   0  0  0  0  0  2  0  0  0  0  0  0
  183.3390  178.5130  141.3440 C   0  0  0  0  0  0  0  0  0  0  0  0
  181.9870  179.2120  139.4620 C   0  0  2  0  0  3  0  0  0  0  0  0
  181.0800  179.4550  140.6750 C   0  0  2  0  0  3  0  0  0  0  0  0
  181.7840  178.7580  142.2040 S   0  0  0  0  0  0  0  0  0  0  0  0
  184.5480  177.8690  141.9940 C   0  0  0  0  0  2  0  0  0  0  0  0
  180.7810  178.3180  139.7270 C   0  0  0  0  0  2  0  0  0  0  0  0
  183.2840  178.6560  139.8940 N   0  0  0  0  0  0  0  0  0  0  0  0
  190.1870  178.4550  142.8950 C   0  0  0  0  0  2  0  0  0  0  0  0
  190.5720  178.2830  144.3590 C   0  0  0  0  0  2  0  0  0  0  0  0
  189.3910  177.9000  145.1910 C   0  0  0  0  0  3  0  0  0  0  0  0
  188.3490  177.1240  147.2610 C   0  0  0  0  0  1  0  0  0  0  0  0
  189.5410  177.5020  146.4530 C   0  0  0  0  0  3  0  0  0  0  0  0
  1 28  1  0  0  0  0
  2  6  1  0  0  0  0
  2 10  1  0  0  0  0
  3 10  1  6  0  0  0
  3  8  1  0  0  0  0
  3  9  1  0  0  0  0
  5  1  1  0  0  0  0
  6 15  1  1  0  0  0
  6  4  1  0  0  0  0
  7  1  1  0  0  0  0
  8  4  1  6  0  0  0
  8  5  1  0  0  0  0
  9  7  1  0  0  0  0
 11  2  1  0  0  0  0
 12 13  2  0  0  0  0
 12 14  1  0  0  0  0
 13 16  1  0  0  0  0
 14 15  2  0  0  0  0
 15 17  1  0  0  0  0
 16 17  2  0  0  0  0
 17 18  1  0  0  0  0
 18 19  1  0  0  0  0
 19 27  1  0  0  0  0
 20 25  1  0  0  0  0
 21 20  1  0  0  0  0
 21 25  1  0  0  0  0
 21 24  1  0  0  0  0
 22 26  1  6  0  0  0
 22 27  1  0  0  0  0
 22 23  1  0  0  0  0
 23 26  1  6  0  0  0
 23 24  1  0  0  0  0
 27 21  1  0  0  0  0
 28 29  1  0  0  0  0
 29 30  1  0  0  0  0
 30 32  2  0  0  0  0
 32 31  1  0  0  0  0
M  END
>  <MODEL>
6

>  <REMARK>
 VINA RESULT:      -6.2      2.992      8.614
  Name = 
  7 active torsions:
  status: ('A' for Active; 'I' for Inactive)
    1  A    between atoms: C_1  and  C_10
    2  A    between atoms: N_2  and  C_24
    3  A    between atoms: C_10  and  C_24
    4  A    between atoms: C_14  and  C_15
    5  A    between atoms: C_16  and  C_26
    6  A    between atoms: C_16  and  N_27
    7  A    between atoms: N_27  and  N_32
                            x       y       z     vdW  Elec       q    Type
                         _______ _______ _______ _____ _____    ______ ____

>  <TORSDO>
F 7

$$$$
=
 OpenBabel10262421313D

 32 37  0  0  1  0  0  0  0  0999 V2000
  186.2670  178.6430  147.3220 N   0  0  0  0  0  0  0  0  0  0  0  0
  185.2970  178.3940  142.2060 N   0  0  0  0  0  0  0  0  0  0  0  0
  186.2070  178.0320  144.5050 C   0  0  1  0  0  3  0  0  0  0  0  0
  184.8330  180.0480  144.0610 C   0  0  0  0  0  2  0  0  0  0  0  0
  185.6820  179.6030  146.3670 C   0  0  0  0  0  2  0  0  0  0  0  0
  184.3850  179.4310  142.7270 C   0  0  2  0  0  3  0  0  0  0  0  0
  186.1030  177.2310  146.9310 C   0  0  0  0  0  2  0  0  0  0  0  0
  185.1540  178.9680  145.0790 C   0  0  2  0  0  3  0  0  0  0  0  0
  186.5960  176.9410  145.5030 C   0  0  0  0  0  2  0  0  0  0  0  0
  185.6830  177.3970  143.2170 C   0  0  0  0  0  2  0  0  0  0  0  0
  186.4970  179.0340  141.6840 C   0  0  0  0  0  1  0  0  0  0  0  0
  180.8780  178.6000  143.9690 C   0  0  0  0  0  3  0  0  0  0  0  0
  180.2330  178.2550  142.7810 C   0  0  0  0  0  3  0  0  0  0  0  0
  182.2250  178.9680  143.9490 C   0  0  0  0  0  3  0  0  0  0  0  0
  182.9450  178.9840  142.7440 C   0  0  0  0  0  0  0  0  0  0  0  0
  180.9350  178.2740  141.5740 C   0  0  0  0  0  3  0  0  0  0  0  0
  182.2920  178.6270  141.5480 C   0  0  0  0  0  0  0  0  0  0  0  0
  183.0110  178.6690  140.2350 C   0  0  0  0  0  2  0  0  0  0  0  0
  183.1850  177.3150  139.6990 N   0  0  0  0  0  2  0  0  0  0  0  0
  180.3570  176.0080  138.2580 C   0  0  0  0  0  2  0  0  0  0  0  0
  181.8580  175.8390  138.3360 C   0  0  0  0  0  0  0  0  0  0  0  0
  183.4000  177.3920  137.3020 C   0  0  2  0  0  3  0  0  0  0  0  0
  183.3620  176.2090  136.3260 C   0  0  2  0  0  3  0  0  0  0  0  0
  182.4600  174.7840  137.0160 S   0  0  0  0  0  0  0  0  0  0  0  0
  180.9830  175.3300  139.4640 C   0  0  0  0  0  2  0  0  0  0  0  0
  184.5910  176.4490  137.1710 C   0  0  0  0  0  2  0  0  0  0  0  0
  182.5210  177.1320  138.4580 N   0  0  0  0  0  0  0  0  0  0  0  0
  187.6870  178.9480  147.4510 C   0  0  0  0  0  2  0  0  0  0  0  0
  188.3370  178.0380  148.4850 C   0  0  0  0  0  2  0  0  0  0  0  0
  189.7050  177.6160  148.0540 C   0  0  0  0  0  3  0  0  0  0  0  0
  191.3000  176.7520  146.4160 C   0  0  0  0  0  1  0  0  0  0  0  0
  189.9290  177.1670  146.8200 C   0  0  0  0  0  3  0  0  0  0  0  0
  1 28  1  0  0  0  0
  2  6  1  0  0  0  0
  2 10  1  0  0  0  0
  3 10  1  6  0  0  0
  3  8  1  0  0  0  0
  3  9  1  0  0  0  0
  5  1  1  0  0  0  0
  6 15  1  1  0  0  0
  6  4  1  0  0  0  0
  7  1  1  0  0  0  0
  8  4  1  6  0  0  0
  8  5  1  0  0  0  0
  9  7  1  0  0  0  0
 11  2  1  0  0  0  0
 13 12  2  0  0  0  0
 14 12  1  0  0  0  0
 15 14  2  0  0  0  0
 16 13  1  0  0  0  0
 17 16  2  0  0  0  0
 17 15  1  0  0  0  0
 18 17  1  0  0  0  0
 19 18  1  0  0  0  0
 20 21  1  0  0  0  0
 20 25  1  0  0  0  0
 21 27  1  0  0  0  0
 21 25  1  0  0  0  0
 22 26  1  1  0  0  0
 22 27  1  0  0  0  0
 23 24  1  0  0  0  0
 23 26  1  1  0  0  0
 23 22  1  0  0  0  0
 24 21  1  0  0  0  0
 27 19  1  0  0  0  0
 28 29  1  0  0  0  0
 30 29  1  0  0  0  0
 31 32  1  0  0  0  0
 32 30  2  0  0  0  0
M  END
>  <MODEL>
7

>  <REMARK>
 VINA RESULT:      -6.0      3.077      8.690
  Name = 
  7 active torsions:
  status: ('A' for Active; 'I' for Inactive)
    1  A    between atoms: C_1  and  C_10
    2  A    between atoms: N_2  and  C_24
    3  A    between atoms: C_10  and  C_24
    4  A    between atoms: C_14  and  C_15
    5  A    between atoms: C_16  and  C_26
    6  A    between atoms: C_16  and  N_27
    7  A    between atoms: N_27  and  N_32
                            x       y       z     vdW  Elec       q    Type
                         _______ _______ _______ _____ _____    ______ ____

>  <TORSDO>
F 7

$$$$
=
 OpenBabel10262421313D

 32 37  0  0  1  0  0  0  0  0999 V2000
  180.5240  179.0630  137.4280 N   0  0  0  0  0  0  0  0  0  0  0  0
  184.1150  177.9450  141.0370 N   0  0  0  0  0  0  0  0  0  0  0  0
  182.0480  178.0060  139.6350 C   0  0  1  0  0  3  0  0  0  0  0  0
  183.6950  179.8480  139.4260 C   0  0  0  0  0  2  0  0  0  0  0  0
  181.6620  179.8250  137.9760 C   0  0  0  0  0  2  0  0  0  0  0  0
  184.7170  179.0020  140.2000 C   0  0  2  0  0  3  0  0  0  0  0  0
  180.6840  177.6000  137.5110 C   0  0  0  0  0  2  0  0  0  0  0  0
  182.7230  178.9640  138.6650 C   0  0  2  0  0  3  0  0  0  0  0  0
  181.0290  177.1110  138.9270 C   0  0  0  0  0  2  0  0  0  0  0  0
  183.1050  177.1450  140.3260 C   0  0  0  0  0  2  0  0  0  0  0  0
  183.5030  178.5570  142.2080 C   0  0  0  0  0  1  0  0  0  0  0  0
  186.6390  177.8060  137.1330 C   0  0  0  0  0  3  0  0  0  0  0  0
  187.9200  177.6280  137.6550 C   0  0  0  0  0  3  0  0  0  0  0  0
  185.6020  178.2380  137.9620 C   0  0  0  0  0  3  0  0  0  0  0  0
  185.8320  178.4870  139.3250 C   0  0  0  0  0  0  0  0  0  0  0  0
  188.1640  177.8790  139.0070 C   0  0  0  0  0  3  0  0  0  0  0  0
  187.1260  178.2980  139.8500 C   0  0  0  0  0  0  0  0  0  0  0  0
  187.4230  178.5900  141.2880 C   0  0  0  0  0  2  0  0  0  0  0  0
  188.1780  177.4870  141.8920 N   0  0  0  0  0  2  0  0  0  0  0  0
  191.5460  177.5540  141.2290 C   0  0  0  0  0  2  0  0  0  0  0  0
  190.5120  176.9580  142.1590 C   0  0  0  0  0  0  0  0  0  0  0  0
  189.3620  178.2680  143.8390 C   0  0  2  0  0  3  0  0  0  0  0  0
  190.4420  177.5220  144.6330 C   0  0  2  0  0  3  0  0  0  0  0  0
  191.2830  176.2610  143.6220 S   0  0  0  0  0  0  0  0  0  0  0  0
  190.7000  176.3780  140.7720 C   0  0  0  0  0  2  0  0  0  0  0  0
  188.9920  177.1250  144.7780 C   0  0  0  0  0  2  0  0  0  0  0  0
  189.4320  177.9050  142.4110 N   0  0  0  0  0  0  0  0  0  0  0  0
  179.3260  179.4600  138.1570 C   0  0  0  0  0  2  0  0  0  0  0  0
  179.6190  180.6500  139.0610 C   0  0  0  0  0  2  0  0  0  0  0  0
  179.1700  180.3920  140.4640 C   0  0  0  0  0  3  0  0  0  0  0  0
  179.5780  180.0470  142.8490 C   0  0  0  0  0  1  0  0  0  0  0  0
  180.0490  180.3060  141.4600 C   0  0  0  0  0  3  0  0  0  0  0  0
  1  7  1  0  0  0  0
  1  5  1  0  0  0  0
  1 28  1  0  0  0  0
  2 11  1  0  0  0  0
  3  9  1  6  0  0  0
  3 10  1  0  0  0  0
  4  6  1  0  0  0  0
  6 15  1  6  0  0  0
  6  2  1  0  0  0  0
  7  9  1  0  0  0  0
  8  5  1  1  0  0  0
  8  4  1  0  0  0  0
  8  3  1  0  0  0  0
 10  2  1  0  0  0  0
 12 13  2  0  0  0  0
 12 14  1  0  0  0  0
 13 16  1  0  0  0  0
 14 15  2  0  0  0  0
 15 17  1  0  0  0  0
 16 17  2  0  0  0  0
 17 18  1  0  0  0  0
 18 19  1  0  0  0  0
 19 27  1  0  0  0  0
 20 21  1  0  0  0  0
 21 27  1  0  0  0  0
 21 24  1  0  0  0  0
 22 23  1  0  0  0  0
 22 26  1  1  0  0  0
 23 26  1  1  0  0  0
 24 23  1  0  0  0  0
 25 20  1  0  0  0  0
 25 21  1  0  0  0  0
 27 22  1  0  0  0  0
 28 29  1  0  0  0  0
 29 30  1  0  0  0  0
 30 32  2  0  0  0  0
 32 31  1  0  0  0  0
M  END
>  <MODEL>
8

>  <REMARK>
 VINA RESULT:      -5.9      1.666      4.273
  Name = 
  7 active torsions:
  status: ('A' for Active; 'I' for Inactive)
    1  A    between atoms: C_1  and  C_10
    2  A    between atoms: N_2  and  C_24
    3  A    between atoms: C_10  and  C_24
    4  A    between atoms: C_14  and  C_15
    5  A    between atoms: C_16  and  C_26
    6  A    between atoms: C_16  and  N_27
    7  A    between atoms: N_27  and  N_32
                            x       y       z     vdW  Elec       q    Type
                         _______ _______ _______ _____ _____    ______ ____

>  <TORSDO>
F 7

$$$$
=
 OpenBabel10262421313D

 32 37  0  0  1  0  0  0  0  0999 V2000
  192.2820  174.4920  137.0750 N   0  0  0  0  0  0  0  0  0  0  0  0
  188.6400  177.7960  138.8040 N   0  0  0  0  0  0  0  0  0  0  0  0
  189.9150  176.0790  137.5120 C   0  0  1  0  0  3  0  0  0  0  0  0
  191.1290  177.5040  139.1390 C   0  0  0  0  0  2  0  0  0  0  0  0
  192.3510  175.7140  137.8980 C   0  0  0  0  0  2  0  0  0  0  0  0
  189.7820  177.9560  139.7250 C   0  0  2  0  0  3  0  0  0  0  0  0
  190.9900  173.7880  137.1510 C   0  0  0  0  0  2  0  0  0  0  0  0
  191.0240  176.1070  138.5530 C   0  0  2  0  0  3  0  0  0  0  0  0
  189.7880  174.7010  136.8610 C   0  0  0  0  0  2  0  0  0  0  0  0
  188.5900  176.4730  138.1640 C   0  0  0  0  0  2  0  0  0  0  0  0
  188.7130  178.8230  137.7730 C   0  0  0  0  0  1  0  0  0  0  0  0
  190.1810  175.9230  142.9240 C   0  0  0  0  0  3  0  0  0  0  0  0
  189.0900  176.3610  143.6740 C   0  0  0  0  0  3  0  0  0  0  0  0
  190.3950  176.4310  141.6410 C   0  0  0  0  0  3  0  0  0  0  0  0
  189.5140  177.3760  141.0900 C   0  0  0  0  0  0  0  0  0  0  0  0
  188.2110  177.3060  143.1410 C   0  0  0  0  0  3  0  0  0  0  0  0
  188.4090  177.8100  141.8490 C   0  0  0  0  0  0  0  0  0  0  0  0
  187.4670  178.8460  141.3150 C   0  0  0  0  0  2  0  0  0  0  0  0
  186.1860  178.2360  140.9460 N   0  0  0  0  0  2  0  0  0  0  0  0
  184.2390  179.6570  143.3910 C   0  0  0  0  0  2  0  0  0  0  0  0
  184.2030  178.6760  142.2390 C   0  0  0  0  0  0  0  0  0  0  0  0
  184.3270  179.3780  139.9260 C   0  0  2  0  0  3  0  0  0  0  0  0
  182.8340  179.1060  140.1460 C   0  0  2  0  0  3  0  0  0  0  0  0
  182.5150  178.3100  141.7530 S   0  0  0  0  0  0  0  0  0  0  0  0
  184.7880  178.2520  143.5710 C   0  0  0  0  0  2  0  0  0  0  0  0
  183.6540  178.1600  139.3010 C   0  0  0  0  0  2  0  0  0  0  0  0
  185.0860  179.1070  141.1610 N   0  0  0  0  0  0  0  0  0  0  0  0
  192.5470  174.8680  135.6910 C   0  0  0  0  0  2  0  0  0  0  0  0
  193.5830  175.9820  135.6280 C   0  0  0  0  0  2  0  0  0  0  0  0
  194.9040  175.4710  135.1490 C   0  0  0  0  0  3  0  0  0  0  0  0
  197.3430  175.5380  135.0140 C   0  0  0  0  0  1  0  0  0  0  0  0
  196.0410  176.0660  135.5050 C   0  0  0  0  0  3  0  0  0  0  0  0
  1  7  1  0  0  0  0
  1  5  1  0  0  0  0
  2  6  1  0  0  0  0
  3  9  1  1  0  0  0
  3 10  1  0  0  0  0
  3  8  1  0  0  0  0
  4  6  1  0  0  0  0
  6 15  1  1  0  0  0
  8  5  1  6  0  0  0
  8  4  1  0  0  0  0
  9  7  1  0  0  0  0
 10  2  1  0  0  0  0
 11  2  1  0  0  0  0
 12 13  1  0  0  0  0
 14 12  2  0  0  0  0
 15 14  1  0  0  0  0
 15 17  2  0  0  0  0
 16 13  2  0  0  0  0
 17 16  1  0  0  0  0
 18 17  1  0  0  0  0
 19 27  1  0  0  0  0
 19 18  1  0  0  0  0
 20 25  1  0  0  0  0
 21 20  1  0  0  0  0
 21 25  1  0  0  0  0
 22 26  1  6  0  0  0
 22 23  1  0  0  0  0
 22 27  1  0  0  0  0
 23 26  1  6  0  0  0
 23 24  1  0  0  0  0
 24 21  1  0  0  0  0
 27 21  1  0  0  0  0
 28  1  1  0  0  0  0
 29 28  1  0  0  0  0
 30 32  2  0  0  0  0
 30 29  1  0  0  0  0
 31 32  1  0  0  0  0
M  END
>  <MODEL>
9

>  <REMARK>
 VINA RESULT:      -5.9      4.728      8.699
  Name = 
  7 active torsions:
  status: ('A' for Active; 'I' for Inactive)
    1  A    between atoms: C_1  and  C_10
    2  A    between atoms: N_2  and  C_24
    3  A    between atoms: C_10  and  C_24
    4  A    between atoms: C_14  and  C_15
    5  A    between atoms: C_16  and  C_26
    6  A    between atoms: C_16  and  N_27
    7  A    between atoms: N_27  and  N_32
                            x       y       z     vdW  Elec       q    Type
                         _______ _______ _______ _____ _____    ______ ____

>  <TORSDO>
F 7

$$$$
