=
 OpenBabel10262421363D

 32 35  0  0  1  0  0  0  0  0999 V2000
  185.5470  178.7740  141.7390 C   0  0  0  0  0  0  0  0  0  0  0  0
  188.9200  177.5660  137.4920 O   0  0  0  0  0  0  0  0  0  0  0  0
  188.1490  178.5240  136.8180 C   0  0  0  0  0  2  0  0  0  0  0  0
  186.4580  177.8490  144.2140 C   0  0  0  0  0  0  0  0  0  0  0  0
  186.7880  178.0560  141.8300 N   0  0  0  0  0  0  0  0  0  0  0  0
  189.0280  178.0170  138.8170 C   0  0  0  0  0  2  0  0  0  0  0  0
  187.8790  178.4330  140.9380 C   0  0  0  0  0  2  0  0  0  0  0  0
  187.6840  177.8900  139.5380 C   0  0  1  0  0  3  0  0  0  0  0  0
  185.2110  178.3070  139.3320 C   0  0  1  0  0  3  0  0  0  0  0  0
  187.1410  177.4820  143.1050 C   0  0  0  0  0  0  0  0  0  0  0  0
  185.3790  178.7980  144.1190 N   0  0  0  0  0  0  0  0  0  0  0  0
  186.7010  178.4210  137.2810 C   0  0  0  0  0  2  0  0  0  0  0  0
  186.6030  178.6930  138.7940 C   0  0  2  0  0  3  0  0  0  0  0  0
  184.9310  179.2390  142.9830 C   0  0  0  0  0  3  0  0  0  0  0  0
  184.9010  178.9250  140.6220 N   0  0  0  0  0  0  0  0  0  0  0  0
  181.9370  179.9070  138.0120 C   0  0  0  0  0  0  0  0  0  0  0  0
  181.3380  178.8620  137.4440 C   0  0  0  0  0  3  0  0  0  0  0  0
  183.2750  177.3830  138.0470 N   0  0  0  0  0  0  0  0  0  0  0  0
  181.3010  176.5290  137.1050 O   0  0  0  0  0  0  0  0  0  0  0  0
  181.9450  177.5290  137.5210 C   0  0  0  0  0  0  0  0  0  0  0  0
  183.1640  179.7300  138.8580 C   0  0  0  0  0  2  0  0  0  0  0  0
  181.3680  181.1330  137.9180 F   0  0  0  0  0  0  0  0  0  0  0  0
  183.9360  176.0860  137.9420 C   0  0  0  0  0  1  0  0  0  0  0  0
  184.0620  178.5910  138.3440 C   0  0  1  0  0  3  0  0  0  0  0  0
  189.5540  177.2240  143.6300 C   0  0  0  0  0  1  0  0  0  0  0  0
  188.2870  176.5120  143.1900 C   0  0  0  0  0  2  0  0  0  0  0  0
  186.8190  177.3220  145.5690 C   0  0  0  0  0  2  0  0  0  0  0  0
  185.5740  178.5630  147.3300 C   0  0  0  0  0  1  0  0  0  0  0  0
  186.8950  178.4480  146.5880 C   0  0  1  0  0  3  0  0  0  0  0  0
  188.0190  178.1550  147.5680 C   0  0  0  0  0  2  0  0  0  0  0  0
  188.6540  176.8010  147.2890 C   0  0  0  0  0  2  0  0  0  0  0  0
  190.1670  176.9060  147.2930 C   0  0  0  0  0  1  0  0  0  0  0  0
  1  5  1  0  0  0  0
  1 14  1  0  0  0  0
  2  6  1  0  0  0  0
  3 12  1  0  0  0  0
  3  2  1  0  0  0  0
  4 27  1  0  0  0  0
  5 10  1  0  0  0  0
  7  5  1  0  0  0  0
  8  6  1  6  0  0  0
  8  7  1  0  0  0  0
  9 15  1  1  0  0  0
 10 26  1  0  0  0  0
 10  4  2  0  0  0  0
 11  4  1  0  0  0  0
 13 12  1  6  0  0  0
 13  9  1  0  0  0  0
 13  8  1  0  0  0  0
 14 11  2  0  0  0  0
 15  1  2  0  0  0  0
 16 21  1  0  0  0  0
 17 20  1  0  0  0  0
 17 16  2  0  0  0  0
 18 24  1  0  0  0  0
 19 20  2  0  0  0  0
 20 18  1  0  0  0  0
 22 16  1  0  0  0  0
 23 18  1  0  0  0  0
 24 21  1  1  0  0  0
 24  9  1  0  0  0  0
 26 25  1  0  0  0  0
 27 29  1  0  0  0  0
 29 28  1  1  0  0  0
 29 30  1  0  0  0  0
 31 32  1  0  0  0  0
 31 30  1  0  0  0  0
M  END
>  <MODEL>
1

>  <REMARK>
 VINA RESULT:      -7.7      0.000      0.000
  Name = 
  6 active torsions:
  status: ('A' for Active; 'I' for Inactive)
    1  A    between atoms: C_1  and  C_10
    2  A    between atoms: C_8  and  C_19
    3  A    between atoms: C_10  and  C_24
    4  A    between atoms: C_12  and  C_21
    5  A    between atoms: C_16  and  C_32
    6  A    between atoms: C_19  and  C_24
                            x       y       z     vdW  Elec       q    Type
                         _______ _______ _______ _____ _____    ______ ____

>  <TORSDO>
F 6

$$$$
=
 OpenBabel10262421363D

 32 35  0  0  1  0  0  0  0  0999 V2000
  188.7870  177.4110  140.2220 C   0  0  0  0  0  0  0  0  0  0  0  0
  193.6870  175.9050  138.0800 O   0  0  0  0  0  0  0  0  0  0  0  0
  193.2520  176.6530  136.9760 C   0  0  0  0  0  2  0  0  0  0  0  0
  188.5760  177.0010  142.9790 C   0  0  0  0  0  0  0  0  0  0  0  0
  189.8890  176.8550  140.9570 N   0  0  0  0  0  0  0  0  0  0  0  0
  193.2040  176.5730  139.2160 C   0  0  0  0  0  2  0  0  0  0  0  0
  191.2460  177.1990  140.5440 C   0  0  0  0  0  2  0  0  0  0  0  0
  191.6850  176.4200  139.3230 C   0  0  1  0  0  3  0  0  0  0  0  0
  189.5280  176.5270  138.0320 C   0  0  1  0  0  3  0  0  0  0  0  0
  189.6790  176.5360  142.3480 C   0  0  0  0  0  0  0  0  0  0  0  0
  187.6150  177.8000  142.2640 N   0  0  0  0  0  0  0  0  0  0  0  0
  191.7490  176.4700  136.8060 C   0  0  0  0  0  2  0  0  0  0  0  0
  191.0040  176.9700  138.0580 C   0  0  2  0  0  3  0  0  0  0  0  0
  187.6840  178.0000  140.9830 C   0  0  0  0  0  3  0  0  0  0  0  0
  188.6770  177.3080  138.9320 N   0  0  0  0  0  0  0  0  0  0  0  0
  187.1360  177.5810  135.1710 C   0  0  0  0  0  0  0  0  0  0  0  0
  186.8150  176.4010  134.6410 C   0  0  0  0  0  3  0  0  0  0  0  0
  188.2990  175.2230  136.2880 N   0  0  0  0  0  0  0  0  0  0  0  0
  186.8920  174.0510  134.8180 O   0  0  0  0  0  0  0  0  0  0  0  0
  187.3160  175.1600  135.2420 C   0  0  0  0  0  0  0  0  0  0  0  0
  187.8900  177.6680  136.4660 C   0  0  0  0  0  2  0  0  0  0  0  0
  186.6760  178.7170  134.5940 F   0  0  0  0  0  0  0  0  0  0  0  0
  188.9240  173.9850  136.7430 C   0  0  0  0  0  1  0  0  0  0  0  0
  188.9050  176.5220  136.6220 C   0  0  1  0  0  3  0  0  0  0  0  0
  191.5400  176.6130  143.9890 C   0  0  0  0  0  1  0  0  0  0  0  0
  190.7050  175.7230  143.0850 C   0  0  0  0  0  2  0  0  0  0  0  0
  188.3370  176.7410  144.4350 C   0  0  0  0  0  2  0  0  0  0  0  0
  186.4790  177.9010  145.6150 C   0  0  0  0  0  1  0  0  0  0  0  0
  187.9220  178.0150  145.1540 C   0  0  1  0  0  3  0  0  0  0  0  0
  188.8360  178.2320  146.3490 C   0  0  0  0  0  2  0  0  0  0  0  0
  188.5300  177.2400  147.4610 C   0  0  0  0  0  2  0  0  0  0  0  0
  188.2590  177.9630  148.7660 C   0  0  0  0  0  1  0  0  0  0  0  0
  1  5  1  0  0  0  0
  1 14  1  0  0  0  0
  2  6  1  0  0  0  0
  3  2  1  0  0  0  0
  4 27  1  0  0  0  0
  5 10  1  0  0  0  0
  7  5  1  0  0  0  0
  8  6  1  6  0  0  0
  8  7  1  0  0  0  0
  9 13  1  0  0  0  0
  9 15  1  1  0  0  0
 10  4  2  0  0  0  0
 10 26  1  0  0  0  0
 11  4  1  0  0  0  0
 12  3  1  0  0  0  0
 13 12  1  6  0  0  0
 13  8  1  0  0  0  0
 14 11  2  0  0  0  0
 15  1  2  0  0  0  0
 16 21  1  0  0  0  0
 17 16  2  0  0  0  0
 17 20  1  0  0  0  0
 18 24  1  0  0  0  0
 18 23  1  0  0  0  0
 19 20  2  0  0  0  0
 20 18  1  0  0  0  0
 22 16  1  0  0  0  0
 24 21  1  1  0  0  0
 24  9  1  0  0  0  0
 26 25  1  0  0  0  0
 27 29  1  0  0  0  0
 29 28  1  1  0  0  0
 29 30  1  0  0  0  0
 30 31  1  0  0  0  0
 31 32  1  0  0  0  0
M  END
>  <MODEL>
2

>  <REMARK>
 VINA RESULT:      -7.6      3.532      4.457
  Name = 
  6 active torsions:
  status: ('A' for Active; 'I' for Inactive)
    1  A    between atoms: C_1  and  C_10
    2  A    between atoms: C_8  and  C_19
    3  A    between atoms: C_10  and  C_24
    4  A    between atoms: C_12  and  C_21
    5  A    between atoms: C_16  and  C_32
    6  A    between atoms: C_19  and  C_24
                            x       y       z     vdW  Elec       q    Type
                         _______ _______ _______ _____ _____    ______ ____

>  <TORSDO>
F 6

$$$$
=
 OpenBabel10262421363D

 32 35  0  0  1  0  0  0  0  0999 V2000
  188.8840  177.6240  139.7650 C   0  0  0  0  0  0  0  0  0  0  0  0
  193.4150  175.5060  137.3440 O   0  0  0  0  0  0  0  0  0  0  0  0
  192.7770  175.9140  136.1640 C   0  0  0  0  0  2  0  0  0  0  0  0
  189.1450  178.0200  142.5200 C   0  0  0  0  0  0  0  0  0  0  0  0
  190.1120  177.2870  140.4310 N   0  0  0  0  0  0  0  0  0  0  0  0
  193.1020  176.4760  138.3100 C   0  0  0  0  0  2  0  0  0  0  0  0
  191.3690  177.4800  139.7160 C   0  0  0  0  0  2  0  0  0  0  0  0
  191.6280  176.3800  138.7100 C   0  0  1  0  0  3  0  0  0  0  0  0
  189.2850  176.1440  137.8230 C   0  0  1  0  0  3  0  0  0  0  0  0
  190.1450  177.3790  141.8700 C   0  0  0  0  0  0  0  0  0  0  0  0
  188.0520  178.5940  141.7810 N   0  0  0  0  0  0  0  0  0  0  0  0
  191.2740  175.7100  136.3080 C   0  0  0  0  0  2  0  0  0  0  0  0
  190.7290  176.5560  137.4740 C   0  0  2  0  0  3  0  0  0  0  0  0
  187.9020  178.4210  140.5020 C   0  0  0  0  0  3  0  0  0  0  0  0
  188.5670  177.1600  138.5940 N   0  0  0  0  0  0  0  0  0  0  0  0
  186.2910  176.2150  135.3630 C   0  0  0  0  0  0  0  0  0  0  0  0
  186.0920  174.9160  135.1450 C   0  0  0  0  0  3  0  0  0  0  0  0
  188.0160  174.3360  136.6490 N   0  0  0  0  0  0  0  0  0  0  0  0
  186.6000  172.6940  135.7500 O   0  0  0  0  0  0  0  0  0  0  0  0
  186.8930  173.9150  135.8580 C   0  0  0  0  0  0  0  0  0  0  0  0
  187.2310  176.6840  136.4350 C   0  0  0  0  0  2  0  0  0  0  0  0
  185.5500  177.1250  134.6850 F   0  0  0  0  0  0  0  0  0  0  0  0
  188.9140  173.3230  137.1950 C   0  0  0  0  0  1  0  0  0  0  0  0
  188.4390  175.7460  136.5970 C   0  0  1  0  0  3  0  0  0  0  0  0
  190.9620  175.4130  143.1470 C   0  0  0  0  0  1  0  0  0  0  0  0
  191.3070  176.7960  142.6240 C   0  0  0  0  0  2  0  0  0  0  0  0
  189.1600  178.1890  144.0090 C   0  0  0  0  0  2  0  0  0  0  0  0
  188.7150  176.9990  146.1480 C   0  0  0  0  0  1  0  0  0  0  0  0
  188.3220  177.1150  144.6850 C   0  0  1  0  0  3  0  0  0  0  0  0
  186.8530  177.4840  144.5680 C   0  0  0  0  0  2  0  0  0  0  0  0
  186.2630  177.8310  145.9260 C   0  0  0  0  0  2  0  0  0  0  0  0
  185.3060  179.0020  145.8140 C   0  0  0  0  0  1  0  0  0  0  0  0
  1  5  1  0  0  0  0
  1 14  1  0  0  0  0
  2  6  1  0  0  0  0
  3 12  1  0  0  0  0
  3  2  1  0  0  0  0
  4 27  1  0  0  0  0
  5 10  1  0  0  0  0
  7  5  1  0  0  0  0
  8  6  1  6  0  0  0
  8  7  1  0  0  0  0
  9 15  1  6  0  0  0
 10  4  2  0  0  0  0
 10 26  1  0  0  0  0
 11  4  1  0  0  0  0
 13 12  1  6  0  0  0
 13  9  1  0  0  0  0
 13  8  1  0  0  0  0
 14 11  2  0  0  0  0
 15  1  2  0  0  0  0
 16 21  1  0  0  0  0
 17 16  2  0  0  0  0
 17 20  1  0  0  0  0
 18 23  1  0  0  0  0
 19 20  2  0  0  0  0
 20 18  1  0  0  0  0
 22 16  1  0  0  0  0
 24 21  1  1  0  0  0
 24 18  1  0  0  0  0
 24  9  1  0  0  0  0
 26 25  1  0  0  0  0
 27 29  1  0  0  0  0
 29 28  1  1  0  0  0
 30 29  1  0  0  0  0
 30 31  1  0  0  0  0
 32 31  1  0  0  0  0
M  END
>  <MODEL>
3

>  <REMARK>
 VINA RESULT:      -7.4      3.463      4.731
  Name = 
  6 active torsions:
  status: ('A' for Active; 'I' for Inactive)
    1  A    between atoms: C_1  and  C_10
    2  A    between atoms: C_8  and  C_19
    3  A    between atoms: C_10  and  C_24
    4  A    between atoms: C_12  and  C_21
    5  A    between atoms: C_16  and  C_32
    6  A    between atoms: C_19  and  C_24
                            x       y       z     vdW  Elec       q    Type
                         _______ _______ _______ _____ _____    ______ ____

>  <TORSDO>
F 6

$$$$
=
 OpenBabel10262421363D

 32 35  0  0  1  0  0  0  0  0999 V2000
  187.3220  178.3190  141.6940 C   0  0  0  0  0  0  0  0  0  0  0  0
  184.1620  178.6290  146.2540 O   0  0  0  0  0  0  0  0  0  0  0  0
  185.3920  178.8330  146.8960 C   0  0  0  0  0  2  0  0  0  0  0  0
  185.8900  178.5180  139.3020 C   0  0  0  0  0  0  0  0  0  0  0  0
  185.8950  178.4860  141.7170 N   0  0  0  0  0  0  0  0  0  0  0  0
  184.2650  179.2680  145.0080 C   0  0  0  0  0  2  0  0  0  0  0  0
  185.3030  179.2750  142.7910 C   0  0  0  0  0  2  0  0  0  0  0  0
  185.2190  178.5020  144.0890 C   0  0  1  0  0  3  0  0  0  0  0  0
  187.4570  177.3580  143.9700 C   0  0  1  0  0  3  0  0  0  0  0  0
  185.1910  178.4420  140.4580 C   0  0  0  0  0  0  0  0  0  0  0  0
  187.3250  178.6280  139.3270 N   0  0  0  0  0  0  0  0  0  0  0  0
  186.4600  177.9830  146.2180 C   0  0  0  0  0  2  0  0  0  0  0  0
  186.6080  178.3890  144.7400 C   0  0  2  0  0  3  0  0  0  0  0  0
  188.0160  178.5330  140.4230 C   0  0  0  0  0  3  0  0  0  0  0  0
  187.9970  177.8800  142.7130 N   0  0  0  0  0  0  0  0  0  0  0  0
  190.2430  177.2220  146.6620 C   0  0  0  0  0  0  0  0  0  0  0  0
  191.2210  176.6000  146.0040 C   0  0  0  0  0  3  0  0  0  0  0  0
  189.7660  176.3960  143.9690 N   0  0  0  0  0  0  0  0  0  0  0  0
  192.0320  175.7850  143.9460 O   0  0  0  0  0  0  0  0  0  0  0  0
  191.0520  176.2430  144.5920 C   0  0  0  0  0  0  0  0  0  0  0  0
  189.0120  177.6970  145.9470 C   0  0  0  0  0  2  0  0  0  0  0  0
  190.4120  177.5320  147.9700 F   0  0  0  0  0  0  0  0  0  0  0  0
  189.5650  175.8620  142.6250 C   0  0  0  0  0  1  0  0  0  0  0  0
  188.6060  176.7530  144.8020 C   0  0  1  0  0  3  0  0  0  0  0  0
  183.2450  176.9200  140.2180 C   0  0  0  0  0  1  0  0  0  0  0  0
  183.6910  178.3530  140.4500 C   0  0  0  0  0  2  0  0  0  0  0  0
  185.2030  178.5300  137.9700 C   0  0  0  0  0  2  0  0  0  0  0  0
  184.1640  176.6770  136.6750 C   0  0  0  0  0  1  0  0  0  0  0  0
  185.4700  177.2400  137.2090 C   0  0  1  0  0  3  0  0  0  0  0  0
  186.4220  177.5300  136.0610 C   0  0  0  0  0  2  0  0  0  0  0  0
  187.7440  176.8020  136.2460 C   0  0  0  0  0  2  0  0  0  0  0  0
  187.5920  175.6490  137.2180 C   0  0  0  0  0  1  0  0  0  0  0  0
  1  5  1  0  0  0  0
  1 15  2  0  0  0  0
  2  3  1  0  0  0  0
  4 11  1  0  0  0  0
  4 10  2  0  0  0  0
  5  7  1  0  0  0  0
  6  2  1  0  0  0  0
  8  7  1  6  0  0  0
  8 13  1  0  0  0  0
  8  6  1  0  0  0  0
  9 15  1  6  0  0  0
  9 13  1  0  0  0  0
  9 24  1  0  0  0  0
 10  5  1  0  0  0  0
 11 14  2  0  0  0  0
 12  3  1  0  0  0  0
 13 12  1  1  0  0  0
 14  1  1  0  0  0  0
 16 22  1  0  0  0  0
 17 16  2  0  0  0  0
 18 20  1  0  0  0  0
 18 24  1  0  0  0  0
 19 20  2  0  0  0  0
 20 17  1  0  0  0  0
 21 16  1  0  0  0  0
 23 18  1  0  0  0  0
 24 21  1  1  0  0  0
 25 26  1  0  0  0  0
 26 10  1  0  0  0  0
 27  4  1  0  0  0  0
 29 28  1  6  0  0  0
 29 27  1  0  0  0  0
 30 31  1  0  0  0  0
 30 29  1  0  0  0  0
 31 32  1  0  0  0  0
M  END
>  <MODEL>
4

>  <REMARK>
 VINA RESULT:      -7.0      3.725      8.629
  Name = 
  6 active torsions:
  status: ('A' for Active; 'I' for Inactive)
    1  A    between atoms: C_1  and  C_10
    2  A    between atoms: C_8  and  C_19
    3  A    between atoms: C_10  and  C_24
    4  A    between atoms: C_12  and  C_21
    5  A    between atoms: C_16  and  C_32
    6  A    between atoms: C_19  and  C_24
                            x       y       z     vdW  Elec       q    Type
                         _______ _______ _______ _____ _____    ______ ____

>  <TORSDO>
F 6

$$$$
=
 OpenBabel10262421363D

 32 35  0  0  1  0  0  0  0  0999 V2000
  188.2470  177.7860  139.6580 C   0  0  0  0  0  0  0  0  0  0  0  0
  192.1630  175.4120  136.5110 O   0  0  0  0  0  0  0  0  0  0  0  0
  191.3720  175.8870  135.4540 C   0  0  0  0  0  2  0  0  0  0  0  0
  188.9800  178.1090  142.3360 C   0  0  0  0  0  0  0  0  0  0  0  0
  189.5400  177.3530  140.1110 N   0  0  0  0  0  0  0  0  0  0  0  0
  192.0800  176.3820  137.5220 C   0  0  0  0  0  2  0  0  0  0  0  0
  190.6740  177.4740  139.2020 C   0  0  0  0  0  2  0  0  0  0  0  0
  190.6880  176.3790  138.1580 C   0  0  1  0  0  3  0  0  0  0  0  0
  188.2210  176.3210  137.6640 C   0  0  1  0  0  3  0  0  0  0  0  0
  189.8130  177.4140  141.5260 C   0  0  0  0  0  0  0  0  0  0  0  0
  187.8240  178.7710  141.7910 N   0  0  0  0  0  0  0  0  0  0  0  0
  189.9020  175.7830  135.8400 C   0  0  0  0  0  2  0  0  0  0  0  0
  189.6150  176.6410  137.0870 C   0  0  2  0  0  3  0  0  0  0  0  0
  187.4560  178.6330  140.5520 C   0  0  0  0  0  3  0  0  0  0  0  0
  187.7110  177.3690  138.5510 N   0  0  0  0  0  0  0  0  0  0  0  0
  184.9250  176.7130  135.6620 C   0  0  0  0  0  0  0  0  0  0  0  0
  184.5420  175.4440  135.5260 C   0  0  0  0  0  3  0  0  0  0  0  0
  186.5860  174.6610  136.7560 N   0  0  0  0  0  0  0  0  0  0  0  0
  184.8660  173.1890  136.1350 O   0  0  0  0  0  0  0  0  0  0  0  0
  185.3160  174.3660  136.1520 C   0  0  0  0  0  0  0  0  0  0  0  0
  186.0630  177.0840  136.5680 C   0  0  0  0  0  2  0  0  0  0  0  0
  184.2070  177.6930  135.0650 F   0  0  0  0  0  0  0  0  0  0  0  0
  187.4270  173.5560  137.2050 C   0  0  0  0  0  1  0  0  0  0  0  0
  187.1610  176.0060  136.5900 C   0  0  1  0  0  3  0  0  0  0  0  0
  190.6480  175.6040  143.0050 C   0  0  0  0  0  1  0  0  0  0  0  0
  191.0380  176.7390  142.0750 C   0  0  0  0  0  2  0  0  0  0  0  0
  189.2480  178.2460  143.8040 C   0  0  0  0  0  2  0  0  0  0  0  0
  187.3710  176.6190  143.9470 C   0  0  0  0  0  1  0  0  0  0  0  0
  188.0440  177.8040  144.6200 C   0  0  1  0  0  3  0  0  0  0  0  0
  188.5040  177.4180  146.0160 C   0  0  0  0  0  2  0  0  0  0  0  0
  187.5080  177.8760  147.0700 C   0  0  0  0  0  2  0  0  0  0  0  0
  188.1490  177.8930  148.4440 C   0  0  0  0  0  1  0  0  0  0  0  0
  1  5  1  0  0  0  0
  1 14  1  0  0  0  0
  2  6  1  0  0  0  0
  3 12  1  0  0  0  0
  3  2  1  0  0  0  0
  4 27  1  0  0  0  0
  5 10  1  0  0  0  0
  7  5  1  0  0  0  0
  8  6  1  6  0  0  0
  8  7  1  0  0  0  0
  9 15  1  6  0  0  0
 10 26  1  0  0  0  0
 10  4  2  0  0  0  0
 11  4  1  0  0  0  0
 13 12  1  6  0  0  0
 13  9  1  0  0  0  0
 13  8  1  0  0  0  0
 14 11  2  0  0  0  0
 15  1  2  0  0  0  0
 16 21  1  0  0  0  0
 17 16  2  0  0  0  0
 17 20  1  0  0  0  0
 18 23  1  0  0  0  0
 19 20  2  0  0  0  0
 20 18  1  0  0  0  0
 22 16  1  0  0  0  0
 24 21  1  1  0  0  0
 24 18  1  0  0  0  0
 24  9  1  0  0  0  0
 26 25  1  0  0  0  0
 27 29  1  0  0  0  0
 29 28  1  6  0  0  0
 29 30  1  0  0  0  0
 30 31  1  0  0  0  0
 31 32  1  0  0  0  0
M  END
>  <MODEL>
5

>  <REMARK>
 VINA RESULT:      -6.7      2.888      3.839
  Name = 
  6 active torsions:
  status: ('A' for Active; 'I' for Inactive)
    1  A    between atoms: C_1  and  C_10
    2  A    between atoms: C_8  and  C_19
    3  A    between atoms: C_10  and  C_24
    4  A    between atoms: C_12  and  C_21
    5  A    between atoms: C_16  and  C_32
    6  A    between atoms: C_19  and  C_24
                            x       y       z     vdW  Elec       q    Type
                         _______ _______ _______ _____ _____    ______ ____

>  <TORSDO>
F 6

$$$$
=
 OpenBabel10262421363D

 32 35  0  0  1  0  0  0  0  0999 V2000
  187.6780  178.4080  141.2770 C   0  0  0  0  0  0  0  0  0  0  0  0
  183.3040  178.6050  144.6990 O   0  0  0  0  0  0  0  0  0  0  0  0
  184.2720  178.9520  145.6540 C   0  0  0  0  0  2  0  0  0  0  0  0
  187.0000  178.3690  138.5660 C   0  0  0  0  0  0  0  0  0  0  0  0
  186.2980  178.4380  140.8760 N   0  0  0  0  0  0  0  0  0  0  0  0
  183.7170  179.1980  143.4950 C   0  0  0  0  0  2  0  0  0  0  0  0
  185.3560  179.2120  141.6770 C   0  0  0  0  0  2  0  0  0  0  0  0
  184.9570  178.4890  142.9450 C   0  0  1  0  0  3  0  0  0  0  0  0
  187.2150  177.5600  143.5560 C   0  0  1  0  0  3  0  0  0  0  0  0
  186.0010  178.2750  139.4740 C   0  0  0  0  0  0  0  0  0  0  0  0
  188.3510  178.6170  138.9970 N   0  0  0  0  0  0  0  0  0  0  0  0
  185.5550  178.1800  145.3720 C   0  0  0  0  0  2  0  0  0  0  0  0
  186.0980  178.5370  143.9760 C   0  0  2  0  0  3  0  0  0  0  0  0
  188.6950  178.6340  140.2490 C   0  0  0  0  0  3  0  0  0  0  0  0
  188.0560  178.0780  142.4750 N   0  0  0  0  0  0  0  0  0  0  0  0
  189.2070  177.8520  146.8680 C   0  0  0  0  0  0  0  0  0  0  0  0
  190.3270  177.1970  146.5650 C   0  0  0  0  0  3  0  0  0  0  0  0
  189.4520  176.6980  144.2660 N   0  0  0  0  0  0  0  0  0  0  0  0
  191.6520  176.1780  144.9020 O   0  0  0  0  0  0  0  0  0  0  0  0
  190.5330  176.6700  145.2120 C   0  0  0  0  0  0  0  0  0  0  0  0
  188.1990  178.1910  145.8080 C   0  0  0  0  0  2  0  0  0  0  0  0
  189.0280  178.3190  148.1270 F   0  0  0  0  0  0  0  0  0  0  0  0
  189.6110  176.0030  142.9920 C   0  0  0  0  0  1  0  0  0  0  0  0
  188.1130  177.1030  144.7230 C   0  0  1  0  0  3  0  0  0  0  0  0
  183.8910  179.3630  138.7460 C   0  0  0  0  0  1  0  0  0  0  0  0
  184.5810  178.0420  139.0390 C   0  0  0  0  0  2  0  0  0  0  0  0
  186.7350  178.2590  137.0950 C   0  0  0  0  0  2  0  0  0  0  0  0
  187.2650  175.8350  137.2810 C   0  0  0  0  0  1  0  0  0  0  0  0
  187.5170  177.1060  136.4870 C   0  0  1  0  0  3  0  0  0  0  0  0
  187.0780  176.9140  135.0440 C   0  0  0  0  0  2  0  0  0  0  0  0
  185.7250  177.5610  134.7910 C   0  0  0  0  0  2  0  0  0  0  0  0
  184.6530  176.5060  134.5940 C   0  0  0  0  0  1  0  0  0  0  0  0
  1 15  2  0  0  0  0
  2  3  1  0  0  0  0
  4 11  1  0  0  0  0
  4 10  2  0  0  0  0
  5  1  1  0  0  0  0
  5  7  1  0  0  0  0
  6  2  1  0  0  0  0
  8  7  1  6  0  0  0
  8  6  1  0  0  0  0
  8 13  1  0  0  0  0
  9 15  1  6  0  0  0
  9 13  1  0  0  0  0
  9 24  1  0  0  0  0
 10  5  1  0  0  0  0
 11 14  2  0  0  0  0
 12  3  1  0  0  0  0
 13 12  1  1  0  0  0
 14  1  1  0  0  0  0
 16 22  1  0  0  0  0
 17 16  2  0  0  0  0
 18 24  1  0  0  0  0
 18 20  1  0  0  0  0
 19 20  2  0  0  0  0
 20 17  1  0  0  0  0
 21 16  1  0  0  0  0
 23 18  1  0  0  0  0
 24 21  1  1  0  0  0
 25 26  1  0  0  0  0
 26 10  1  0  0  0  0
 27  4  1  0  0  0  0
 29 27  1  0  0  0  0
 29 28  1  1  0  0  0
 30 29  1  0  0  0  0
 31 30  1  0  0  0  0
 32 31  1  0  0  0  0
M  END
>  <MODEL>
6

>  <REMARK>
 VINA RESULT:      -6.7      3.504      8.734
  Name = 
  6 active torsions:
  status: ('A' for Active; 'I' for Inactive)
    1  A    between atoms: C_1  and  C_10
    2  A    between atoms: C_8  and  C_19
    3  A    between atoms: C_10  and  C_24
    4  A    between atoms: C_12  and  C_21
    5  A    between atoms: C_16  and  C_32
    6  A    between atoms: C_19  and  C_24
                            x       y       z     vdW  Elec       q    Type
                         _______ _______ _______ _____ _____    ______ ____

>  <TORSDO>
F 6

$$$$
=
 OpenBabel10262421363D

 32 35  0  0  1  0  0  0  0  0999 V2000
  190.4620  177.5710  142.0390 C   0  0  0  0  0  0  0  0  0  0  0  0
  185.0240  177.9480  143.1190 O   0  0  0  0  0  0  0  0  0  0  0  0
  185.4680  178.4920  144.3330 C   0  0  0  0  0  2  0  0  0  0  0  0
  191.0580  177.1030  139.3490 C   0  0  0  0  0  0  0  0  0  0  0  0
  189.4040  177.4500  141.0750 N   0  0  0  0  0  0  0  0  0  0  0  0
  185.9290  178.3920  142.1420 C   0  0  0  0  0  2  0  0  0  0  0  0
  188.2040  178.2620  141.2490 C   0  0  0  0  0  2  0  0  0  0  0  0
  187.2840  177.6990  142.3100 C   0  0  1  0  0  3  0  0  0  0  0  0
  189.0350  177.0230  143.9860 C   0  0  1  0  0  3  0  0  0  0  0  0
  189.7600  177.0700  139.7290 C   0  0  0  0  0  0  0  0  0  0  0  0
  192.0770  177.5020  140.2840 N   0  0  0  0  0  0  0  0  0  0  0  0
  186.7420  177.7780  144.7680 C   0  0  0  0  0  2  0  0  0  0  0  0
  187.8490  177.9700  143.7150 C   0  0  2  0  0  3  0  0  0  0  0  0
  191.8300  177.7190  141.5400 C   0  0  0  0  0  3  0  0  0  0  0  0
  190.2690  177.4410  143.3170 N   0  0  0  0  0  0  0  0  0  0  0  0
  189.2350  177.8790  147.7610 C   0  0  0  0  0  0  0  0  0  0  0  0
  190.4140  177.3540  148.0920 C   0  0  0  0  0  3  0  0  0  0  0  0
  190.7460  176.5350  145.7430 N   0  0  0  0  0  0  0  0  0  0  0  0
  192.4320  176.3730  147.3680 O   0  0  0  0  0  0  0  0  0  0  0  0
  191.2640  176.7370  147.0680 C   0  0  0  0  0  0  0  0  0  0  0  0
  188.8110  177.9820  146.3250 C   0  0  0  0  0  2  0  0  0  0  0  0
  188.4580  178.4310  148.7230 F   0  0  0  0  0  0  0  0  0  0  0  0
  191.5300  175.7540  144.7910 C   0  0  0  0  0  1  0  0  0  0  0  0
  189.3210  176.7990  145.4840 C   0  0  1  0  0  3  0  0  0  0  0  0
  188.2340  177.8850  137.9480 C   0  0  0  0  0  1  0  0  0  0  0  0
  188.6800  176.6810  138.7590 C   0  0  0  0  0  2  0  0  0  0  0  0
  191.4730  176.7690  137.9480 C   0  0  0  0  0  2  0  0  0  0  0  0
  191.4830  174.3880  137.2280 C   0  0  0  0  0  1  0  0  0  0  0  0
  192.2820  175.4830  137.9140 C   0  0  1  0  0  3  0  0  0  0  0  0
  193.5790  175.7310  137.1610 C   0  0  0  0  0  2  0  0  0  0  0  0
  194.3980  174.4550  137.0400 C   0  0  0  0  0  2  0  0  0  0  0  0
  195.1270  174.1590  138.3360 C   0  0  0  0  0  1  0  0  0  0  0  0
  1 15  2  0  0  0  0
  2  3  1  0  0  0  0
  3 12  1  0  0  0  0
  4 10  2  0  0  0  0
  4 11  1  0  0  0  0
  5  7  1  0  0  0  0
  5  1  1  0  0  0  0
  6  8  1  0  0  0  0
  6  2  1  0  0  0  0
  8  7  1  6  0  0  0
  8 13  1  0  0  0  0
  9 15  1  6  0  0  0
  9 24  1  0  0  0  0
 10  5  1  0  0  0  0
 11 14  2  0  0  0  0
 13  9  1  0  0  0  0
 13 12  1  1  0  0  0
 14  1  1  0  0  0  0
 16 17  2  0  0  0  0
 16 22  1  0  0  0  0
 18 20  1  0  0  0  0
 20 19  2  0  0  0  0
 20 17  1  0  0  0  0
 21 16  1  0  0  0  0
 23 18  1  0  0  0  0
 24 18  1  0  0  0  0
 24 21  1  1  0  0  0
 25 26  1  0  0  0  0
 26 10  1  0  0  0  0
 27  4  1  0  0  0  0
 29 28  1  6  0  0  0
 29 27  1  0  0  0  0
 30 29  1  0  0  0  0
 31 30  1  0  0  0  0
 31 32  1  0  0  0  0
M  END
>  <MODEL>
7

>  <REMARK>
 VINA RESULT:      -6.6      4.467      9.079
  Name = 
  6 active torsions:
  status: ('A' for Active; 'I' for Inactive)
    1  A    between atoms: C_1  and  C_10
    2  A    between atoms: C_8  and  C_19
    3  A    between atoms: C_10  and  C_24
    4  A    between atoms: C_12  and  C_21
    5  A    between atoms: C_16  and  C_32
    6  A    between atoms: C_19  and  C_24
                            x       y       z     vdW  Elec       q    Type
                         _______ _______ _______ _____ _____    ______ ____

>  <TORSDO>
F 6

$$$$
=
 OpenBabel10262421363D

 32 35  0  0  1  0  0  0  0  0999 V2000
  184.0360  178.6750  139.3170 C   0  0  0  0  0  0  0  0  0  0  0  0
  179.6440  179.2890  142.6650 O   0  0  0  0  0  0  0  0  0  0  0  0
  178.9310  178.8420  141.5440 C   0  0  0  0  0  2  0  0  0  0  0  0
  186.4940  178.6990  140.6480 C   0  0  0  0  0  0  0  0  0  0  0  0
  184.0840  178.8360  140.7440 N   0  0  0  0  0  0  0  0  0  0  0  0
  180.8610  178.5900  142.6550 C   0  0  0  0  0  2  0  0  0  0  0  0
  183.0180  178.2490  141.5480 C   0  0  0  0  0  2  0  0  0  0  0  0
  181.7520  179.0790  141.5110 C   0  0  1  0  0  3  0  0  0  0  0  0
  181.7880  179.6810  139.0680 C   0  0  1  0  0  3  0  0  0  0  0  0
  185.3790  178.9820  141.3620 C   0  0  0  0  0  0  0  0  0  0  0  0
  186.3870  178.2680  139.2790 N   0  0  0  0  0  0  0  0  0  0  0  0
  179.5770  179.3980  140.2810 C   0  0  0  0  0  2  0  0  0  0  0  0
  181.0310  178.9030  140.1640 C   0  0  2  0  0  3  0  0  0  0  0  0
  185.2600  178.2530  138.6340 C   0  0  0  0  0  3  0  0  0  0  0  0
  182.9970  178.9950  138.6060 N   0  0  0  0  0  0  0  0  0  0  0  0
  180.4080  179.4500  135.4540 C   0  0  0  0  0  0  0  0  0  0  0  0
  180.3290  180.7360  135.1140 C   0  0  0  0  0  3  0  0  0  0  0  0
  181.1690  181.4180  137.3790 N   0  0  0  0  0  0  0  0  0  0  0  0
  180.8480  182.9730  135.6500 O   0  0  0  0  0  0  0  0  0  0  0  0
  180.7970  181.7750  136.0380 C   0  0  0  0  0  0  0  0  0  0  0  0
  181.1010  179.0240  136.7150 C   0  0  0  0  0  2  0  0  0  0  0  0
  179.9580  178.5050  134.5940 F   0  0  0  0  0  0  0  0  0  0  0  0
  181.4500  182.4810  138.3400 C   0  0  0  0  0  1  0  0  0  0  0  0
  180.9160  180.0460  137.8500 C   0  0  1  0  0  3  0  0  0  0  0  0
  185.2680  178.2180  143.7220 C   0  0  0  0  0  1  0  0  0  0  0  0
  185.4710  179.4080  142.8000 C   0  0  0  0  0  2  0  0  0  0  0  0
  187.8590  178.7840  141.2600 C   0  0  0  0  0  2  0  0  0  0  0  0
  189.9290  177.5260  140.6910 C   0  0  0  0  0  1  0  0  0  0  0  0
  188.5320  177.4200  141.2780 C   0  0  1  0  0  3  0  0  0  0  0  0
  188.6040  176.9220  142.7120 C   0  0  0  0  0  2  0  0  0  0  0  0
  189.2260  177.9670  143.6260 C   0  0  0  0  0  2  0  0  0  0  0  0
  188.8790  177.6880  145.0750 C   0  0  0  0  0  1  0  0  0  0  0  0
  1  5  1  0  0  0  0
  3  2  1  0  0  0  0
  4 27  1  0  0  0  0
  4 10  2  0  0  0  0
  5 10  1  0  0  0  0
  5  7  1  0  0  0  0
  6  2  1  0  0  0  0
  8  7  1  6  0  0  0
  8  6  1  0  0  0  0
  9 15  1  6  0  0  0
  9 13  1  0  0  0  0
 10 26  1  0  0  0  0
 11  4  1  0  0  0  0
 12  3  1  0  0  0  0
 13 12  1  1  0  0  0
 13  8  1  0  0  0  0
 14 11  2  0  0  0  0
 14  1  1  0  0  0  0
 15  1  2  0  0  0  0
 16 21  1  0  0  0  0
 17 16  2  0  0  0  0
 17 20  1  0  0  0  0
 18 24  1  0  0  0  0
 18 23  1  0  0  0  0
 19 20  2  0  0  0  0
 20 18  1  0  0  0  0
 22 16  1  0  0  0  0
 24 21  1  6  0  0  0
 24  9  1  0  0  0  0
 26 25  1  0  0  0  0
 27 29  1  0  0  0  0
 29 28  1  1  0  0  0
 29 30  1  0  0  0  0
 30 31  1  0  0  0  0
 31 32  1  0  0  0  0
M  END
>  <MODEL>
8

>  <REMARK>
 VINA RESULT:      -6.5      2.930      5.489
  Name = 
  6 active torsions:
  status: ('A' for Active; 'I' for Inactive)
    1  A    between atoms: C_1  and  C_10
    2  A    between atoms: C_8  and  C_19
    3  A    between atoms: C_10  and  C_24
    4  A    between atoms: C_12  and  C_21
    5  A    between atoms: C_16  and  C_32
    6  A    between atoms: C_19  and  C_24
                            x       y       z     vdW  Elec       q    Type
                         _______ _______ _______ _____ _____    ______ ____

>  <TORSDO>
F 6

$$$$
=
 OpenBabel10262421363D

 32 35  0  0  1  0  0  0  0  0999 V2000
  186.7680  178.4470  140.0700 C   0  0  0  0  0  0  0  0  0  0  0  0
  188.7140  176.9730  135.0790 O   0  0  0  0  0  0  0  0  0  0  0  0
  187.6540  177.7640  134.6110 C   0  0  0  0  0  2  0  0  0  0  0  0
  188.5360  177.9420  142.1750 C   0  0  0  0  0  0  0  0  0  0  0  0
  188.0520  177.8560  139.8100 N   0  0  0  0  0  0  0  0  0  0  0  0
  189.1870  177.6050  136.2400 C   0  0  0  0  0  2  0  0  0  0  0  0
  188.7410  178.2010  138.5720 C   0  0  0  0  0  2  0  0  0  0  0  0
  188.1740  177.4620  137.3790 C   0  0  1  0  0  3  0  0  0  0  0  0
  185.7350  177.6360  137.9730 C   0  0  1  0  0  3  0  0  0  0  0  0
  188.8650  177.4890  140.9430 C   0  0  0  0  0  0  0  0  0  0  0  0
  187.3750  178.7750  142.3550 N   0  0  0  0  0  0  0  0  0  0  0  0
  186.4580  177.6010  135.5410 C   0  0  0  0  0  2  0  0  0  0  0  0
  186.8200  178.0640  136.9640 C   0  0  2  0  0  3  0  0  0  0  0  0
  186.5340  179.0200  141.3960 C   0  0  0  0  0  3  0  0  0  0  0  0
  185.7830  178.3920  139.2250 N   0  0  0  0  0  0  0  0  0  0  0  0
  182.0310  178.7430  137.6920 C   0  0  0  0  0  0  0  0  0  0  0  0
  181.4230  177.5830  137.4440 C   0  0  0  0  0  3  0  0  0  0  0  0
  183.6270  176.3820  137.4860 N   0  0  0  0  0  0  0  0  0  0  0  0
  181.5850  175.2340  137.3280 O   0  0  0  0  0  0  0  0  0  0  0  0
  182.1920  176.3340  137.4230 C   0  0  0  0  0  0  0  0  0  0  0  0
  183.4770  178.7870  138.0930 C   0  0  0  0  0  2  0  0  0  0  0  0
  181.3070  179.8870  137.6930 F   0  0  0  0  0  0  0  0  0  0  0  0
  184.3830  175.1520  137.2740 C   0  0  0  0  0  1  0  0  0  0  0  0
  184.3030  177.6870  137.4040 C   0  0  1  0  0  3  0  0  0  0  0  0
  191.3290  177.5110  140.6350 C   0  0  0  0  0  1  0  0  0  0  0  0
  190.0880  176.6410  140.7340 C   0  0  0  0  0  2  0  0  0  0  0  0
  189.3780  177.6330  143.3760 C   0  0  0  0  0  2  0  0  0  0  0  0
  187.3590  176.7800  144.5530 C   0  0  0  0  0  1  0  0  0  0  0  0
  188.5540  177.7120  144.6520 C   0  0  1  0  0  3  0  0  0  0  0  0
  189.4270  177.3160  145.8310 C   0  0  0  0  0  2  0  0  0  0  0  0
  188.9050  177.9160  147.1270 C   0  0  0  0  0  2  0  0  0  0  0  0
  188.4250  176.8280  148.0680 C   0  0  0  0  0  1  0  0  0  0  0  0
  1 14  1  0  0  0  0
  2  6  1  0  0  0  0
  3  2  1  0  0  0  0
  3 12  1  0  0  0  0
  4 11  1  0  0  0  0
  4 27  1  0  0  0  0
  5  1  1  0  0  0  0
  5 10  1  0  0  0  0
  7  5  1  0  0  0  0
  8  6  1  6  0  0  0
  8  7  1  0  0  0  0
  9 15  1  1  0  0  0
 10  4  2  0  0  0  0
 13 12  1  6  0  0  0
 13  8  1  0  0  0  0
 13  9  1  0  0  0  0
 14 11  2  0  0  0  0
 15  1  2  0  0  0  0
 16 22  1  0  0  0  0
 16 21  1  0  0  0  0
 17 16  2  0  0  0  0
 19 20  2  0  0  0  0
 20 17  1  0  0  0  0
 20 18  1  0  0  0  0
 23 18  1  0  0  0  0
 24 18  1  0  0  0  0
 24  9  1  0  0  0  0
 24 21  1  1  0  0  0
 25 26  1  0  0  0  0
 26 10  1  0  0  0  0
 27 29  1  0  0  0  0
 29 28  1  6  0  0  0
 29 30  1  0  0  0  0
 30 31  1  0  0  0  0
 31 32  1  0  0  0  0
M  END
>  <MODEL>
9

>  <REMARK>
 VINA RESULT:      -6.3      1.516      2.242
  Name = 
  6 active torsions:
  status: ('A' for Active; 'I' for Inactive)
    1  A    between atoms: C_1  and  C_10
    2  A    between atoms: C_8  and  C_19
    3  A    between atoms: C_10  and  C_24
    4  A    between atoms: C_12  and  C_21
    5  A    between atoms: C_16  and  C_32
    6  A    between atoms: C_19  and  C_24
                            x       y       z     vdW  Elec       q    Type
                         _______ _______ _______ _____ _____    ______ ____

>  <TORSDO>
F 6

$$$$
