=
 OpenBabel10262420013D

 27 31  0  0  1  0  0  0  0  0999 V2000
  187.4080  178.5360  142.2050 C   0  0  2  0  0  3  0  0  0  0  0  0
  186.9780  177.0540  144.0180 N   0  0  2  0  0  0  0  0  0  0  0  0
  188.7470  177.8310  142.4730 C   0  0  1  0  0  3  0  0  0  0  0  0
  189.9400  177.1330  147.0940 C   0  0  0  0  0  3  0  0  0  0  0  0
  192.2240  176.7770  147.8820 N   0  0  0  0  0  1  0  0  0  0  0  0
  186.8890  178.0180  145.1290 C   0  0  0  0  0  2  0  0  0  0  0  0
  190.7300  176.5170  144.4840 C   0  0  0  0  0  3  0  0  0  0  0  0
  190.8810  176.7150  139.4390 C   0  0  0  0  0  1  0  0  0  0  0  0
  191.6660  176.4940  145.5210 C   0  0  0  0  0  3  0  0  0  0  0  0
  189.4180  178.6850  139.5480 N   0  0  0  0  0  2  0  0  0  0  0  0
  188.3920  176.8670  143.6110 C   0  0  1  0  0  3  0  0  0  0  0  0
  186.3650  177.6220  142.8100 C   0  0  1  0  0  3  0  0  0  0  0  0
  191.2720  176.8050  146.8250 C   0  0  0  0  0  0  0  0  0  0  0  0
  189.0030  177.1680  146.0570 C   0  0  0  0  0  0  0  0  0  0  0  0
  187.1060  179.0220  140.8500 N   0  0  0  0  0  2  0  0  0  0  0  0
  189.3950  176.8560  144.7430 C   0  0  0  0  0  0  0  0  0  0  0  0
  190.1560  177.6960  140.3420 C   0  0  1  0  0  3  0  0  0  0  0  0
  187.5740  177.4660  146.3680 C   0  0  0  0  0  2  0  0  0  0  0  0
  188.2400  178.1040  138.8900 C   0  0  0  0  0  2  0  0  0  0  0  0
  187.0770  177.9440  139.8690 C   0  0  0  0  0  2  0  0  0  0  0  0
  189.2790  176.9460  141.3430 C   0  0  0  0  0  2  0  0  0  0  0  0
  182.4410  179.2710  143.3330 C   0  0  0  0  0  3  0  0  0  0  0  0
  184.9970  178.2280  143.0160 C   0  0  0  0  0  0  0  0  0  0  0  0
  184.0860  178.1570  142.0070 N   0  0  0  0  0  0  0  0  0  0  0  0
  182.8300  178.6640  142.1380 C   0  0  0  0  0  3  0  0  0  0  0  0
  183.3520  179.3490  144.3860 C   0  0  0  0  0  3  0  0  0  0  0  0
  184.6370  178.8240  144.2340 C   0  0  0  0  0  3  0  0  0  0  0  0
  1 15  1  6  0  0  0
  1  3  1  0  0  0  0
  1 12  1  0  0  0  0
  2  6  1  1  0  0  0
  3 21  1  6  0  0  0
  3 11  1  0  0  0  0
  6 18  1  0  0  0  0
  7 16  2  0  0  0  0
  7  9  1  0  0  0  0
  9 13  2  0  0  0  0
 10 17  1  0  0  0  0
 11  2  1  0  0  0  0
 11 16  1  1  0  0  0
 12 23  1  1  0  0  0
 12  2  1  0  0  0  0
 13  4  1  0  0  0  0
 13  5  1  0  0  0  0
 14 18  1  0  0  0  0
 14  4  2  0  0  0  0
 16 14  1  0  0  0  0
 17  8  1  6  0  0  0
 17 21  1  0  0  0  0
 19 10  1  0  0  0  0
 19 20  1  0  0  0  0
 20 15  1  0  0  0  0
 22 26  1  0  0  0  0
 23 27  1  0  0  0  0
 24 25  1  0  0  0  0
 24 23  2  0  0  0  0
 25 22  2  0  0  0  0
 27 26  2  0  0  0  0
M  END
>  <MODEL>
1

>  <REMARK>
 VINA RESULT:     -10.4      0.000      0.000
  Name = 
  1 active torsions:
  status: ('A' for Active; 'I' for Inactive)
    1  A    between atoms: C_9  and  C_15
                            x       y       z     vdW  Elec       q    Type
                         _______ _______ _______ _____ _____    ______ ____

>  <TORSDO>
F 1

$$$$
=
 OpenBabel10262420013D

 27 31  0  0  1  0  0  0  0  0999 V2000
  189.2770  176.7220  142.5720 C   0  0  2  0  0  3  0  0  0  0  0  0
  188.1280  178.3660  143.8550 N   0  0  2  0  0  0  0  0  0  0  0  0
  188.2870  177.3760  141.5940 C   0  0  1  0  0  3  0  0  0  0  0  0
  183.8920  178.3790  143.3070 C   0  0  0  0  0  3  0  0  0  0  0  0
  181.9110  178.6770  141.9120 N   0  0  0  0  0  1  0  0  0  0  0  0
  187.2570  177.5000  144.6710 C   0  0  0  0  0  2  0  0  0  0  0  0
  185.5360  178.7400  141.0760 C   0  0  0  0  0  3  0  0  0  0  0  0
  189.4870  178.1290  137.9890 C   0  0  0  0  0  1  0  0  0  0  0  0
  184.1470  178.7970  140.9370 C   0  0  0  0  0  3  0  0  0  0  0  0
  190.2060  176.2540  139.4040 N   0  0  0  0  0  2  0  0  0  0  0  0
  187.6180  178.4450  142.4650 C   0  0  1  0  0  3  0  0  0  0  0  0
  189.4440  177.7360  143.6830 C   0  0  1  0  0  3  0  0  0  0  0  0
  183.3250  178.6140  142.0530 C   0  0  0  0  0  0  0  0  0  0  0  0
  185.2810  178.3100  143.4490 C   0  0  0  0  0  0  0  0  0  0  0  0
  190.5270  176.1450  142.0570 N   0  0  0  0  0  2  0  0  0  0  0  0
  186.1120  178.4940  142.3290 C   0  0  0  0  0  0  0  0  0  0  0  0
  189.1620  177.2630  139.1930 C   0  0  1  0  0  3  0  0  0  0  0  0
  185.8730  178.1130  144.8040 C   0  0  0  0  0  2  0  0  0  0  0  0
  191.4550  176.8410  139.9060 C   0  0  0  0  0  2  0  0  0  0  0  0
  191.3680  177.1410  141.4030 C   0  0  0  0  0  2  0  0  0  0  0  0
  188.9060  178.1370  140.4200 C   0  0  0  0  0  2  0  0  0  0  0  0
  191.3240  176.2900  147.2560 C   0  0  0  0  0  3  0  0  0  0  0  0
  190.0730  177.2210  144.9560 C   0  0  0  0  0  0  0  0  0  0  0  0
  191.2740  176.5840  144.8860 N   0  0  0  0  0  0  0  0  0  0  0  0
  191.9040  176.1170  145.9980 C   0  0  0  0  0  3  0  0  0  0  0  0
  190.0980  176.9480  147.3560 C   0  0  0  0  0  3  0  0  0  0  0  0
  189.4660  177.4200  146.2050 C   0  0  0  0  0  3  0  0  0  0  0  0
  1 15  1  6  0  0  0
  1 12  1  0  0  0  0
  2  6  1  1  0  0  0
  3 21  1  6  0  0  0
  3 11  1  0  0  0  0
  3  1  1  0  0  0  0
  4 14  1  0  0  0  0
  5 13  1  0  0  0  0
  6 18  1  0  0  0  0
  7 16  1  0  0  0  0
  9  7  2  0  0  0  0
  9 13  1  0  0  0  0
 10 19  1  0  0  0  0
 11 16  1  1  0  0  0
 11  2  1  0  0  0  0
 12  2  1  0  0  0  0
 12 23  1  1  0  0  0
 13  4  2  0  0  0  0
 14 18  1  0  0  0  0
 16 14  2  0  0  0  0
 17  8  1  6  0  0  0
 17 10  1  0  0  0  0
 17 21  1  0  0  0  0
 19 20  1  0  0  0  0
 20 15  1  0  0  0  0
 22 26  1  0  0  0  0
 23 27  1  0  0  0  0
 24 23  2  0  0  0  0
 24 25  1  0  0  0  0
 25 22  2  0  0  0  0
 27 26  2  0  0  0  0
M  END
>  <MODEL>
2

>  <REMARK>
 VINA RESULT:     -10.1      1.570      5.930
  Name = 
  1 active torsions:
  status: ('A' for Active; 'I' for Inactive)
    1  A    between atoms: C_9  and  C_15
                            x       y       z     vdW  Elec       q    Type
                         _______ _______ _______ _____ _____    ______ ____

>  <TORSDO>
F 1

$$$$
=
 OpenBabel10262420013D

 27 31  0  0  1  0  0  0  0  0999 V2000
  190.2260  177.6810  143.3410 C   0  0  2  0  0  3  0  0  0  0  0  0
  188.4290  176.9130  141.9800 N   0  0  2  0  0  0  0  0  0  0  0  0
  188.9940  177.6910  144.2600 C   0  0  1  0  0  3  0  0  0  0  0  0
  184.8570  179.2310  142.3180 C   0  0  0  0  0  3  0  0  0  0  0  0
  182.9700  180.0880  143.6090 N   0  0  0  0  0  1  0  0  0  0  0  0
  188.2150  178.1020  141.1340 C   0  0  0  0  0  2  0  0  0  0  0  0
  185.9240  178.0630  144.6230 C   0  0  0  0  0  3  0  0  0  0  0  0
  189.4080  176.4610  147.9090 C   0  0  0  0  0  1  0  0  0  0  0  0
  184.7250  178.7780  144.6920 C   0  0  0  0  0  3  0  0  0  0  0  0
  191.1040  177.6140  146.5570 N   0  0  0  0  0  2  0  0  0  0  0  0
  187.8920  177.1490  143.3420 C   0  0  1  0  0  3  0  0  0  0  0  0
  189.8650  176.7240  142.2250 C   0  0  1  0  0  3  0  0  0  0  0  0
  184.1930  179.3640  143.5400 C   0  0  0  0  0  0  0  0  0  0  0  0
  186.0620  178.5260  142.2460 C   0  0  0  0  0  0  0  0  0  0  0  0
  191.5620  177.4880  143.9250 N   0  0  0  0  0  2  0  0  0  0  0  0
  186.6010  177.9340  143.4030 C   0  0  0  0  0  0  0  0  0  0  0  0
  189.6690  177.3450  146.7030 C   0  0  1  0  0  3  0  0  0  0  0  0
  186.7300  178.3440  140.9240 C   0  0  0  0  0  2  0  0  0  0  0  0
  191.8510  176.4310  146.1100 C   0  0  0  0  0  2  0  0  0  0  0  0
  191.6870  176.2040  144.6060 C   0  0  0  0  0  2  0  0  0  0  0  0
  189.0370  176.7340  145.4530 C   0  0  0  0  0  2  0  0  0  0  0  0
  192.2490  176.9070  138.6650 C   0  0  0  0  0  3  0  0  0  0  0  0
  190.7340  176.7900  140.9930 C   0  0  0  0  0  0  0  0  0  0  0  0
  190.3110  176.1750  139.8540 N   0  0  0  0  0  0  0  0  0  0  0  0
  191.0360  176.2170  138.7040 C   0  0  0  0  0  3  0  0  0  0  0  0
  192.7020  177.5530  139.8160 C   0  0  0  0  0  3  0  0  0  0  0  0
  191.9440  177.4990  140.9870 C   0  0  0  0  0  3  0  0  0  0  0  0
  1 15  1  1  0  0  0
  1  3  1  0  0  0  0
  2  6  1  6  0  0  0
  2 12  1  0  0  0  0
  2 11  1  0  0  0  0
  3 21  1  1  0  0  0
  4 13  1  0  0  0  0
  7  9  1  0  0  0  0
 10 17  1  0  0  0  0
 11 16  1  6  0  0  0
 11  3  1  0  0  0  0
 12 23  1  6  0  0  0
 12  1  1  0  0  0  0
 13  5  1  0  0  0  0
 13  9  2  0  0  0  0
 14  4  2  0  0  0  0
 14 16  1  0  0  0  0
 15 20  1  0  0  0  0
 16  7  2  0  0  0  0
 17  8  1  1  0  0  0
 18  6  1  0  0  0  0
 18 14  1  0  0  0  0
 19 10  1  0  0  0  0
 20 19  1  0  0  0  0
 21 17  1  0  0  0  0
 22 25  2  0  0  0  0
 22 26  1  0  0  0  0
 24 23  2  0  0  0  0
 25 24  1  0  0  0  0
 26 27  2  0  0  0  0
 27 23  1  0  0  0  0
M  END
>  <MODEL>
3

>  <REMARK>
 VINA RESULT:      -9.6      1.635      6.767
  Name = 
  1 active torsions:
  status: ('A' for Active; 'I' for Inactive)
    1  A    between atoms: C_9  and  C_15
                            x       y       z     vdW  Elec       q    Type
                         _______ _______ _______ _____ _____    ______ ____

>  <TORSDO>
F 1

$$$$
=
 OpenBabel10262420013D

 27 31  0  0  1  0  0  0  0  0999 V2000
  185.7690  179.0060  141.9220 C   0  0  2  0  0  3  0  0  0  0  0  0
  184.9750  177.7270  143.7660 N   0  0  2  0  0  0  0  0  0  0  0  0
  187.0310  178.4290  142.5830 C   0  0  1  0  0  3  0  0  0  0  0  0
  187.1140  178.3740  147.4050 C   0  0  0  0  0  3  0  0  0  0  0  0
  189.1560  178.2690  148.7410 N   0  0  0  0  0  1  0  0  0  0  0  0
  184.5880  178.8100  144.6880 C   0  0  0  0  0  2  0  0  0  0  0  0
  188.5250  177.5030  145.1540 C   0  0  0  0  0  3  0  0  0  0  0  0
  189.8660  177.1030  140.3020 C   0  0  0  0  0  1  0  0  0  0  0  0
  189.1870  177.6680  146.3740 C   0  0  0  0  0  3  0  0  0  0  0  0
  188.3470  178.9690  139.8070 N   0  0  0  0  0  2  0  0  0  0  0  0
  186.4510  177.5880  143.7260 C   0  0  1  0  0  3  0  0  0  0  0  0
  184.6460  178.1030  142.3840 C   0  0  1  0  0  3  0  0  0  0  0  0
  188.4820  178.1060  147.4980 C   0  0  0  0  0  0  0  0  0  0  0  0
  186.4500  178.2220  146.1850 C   0  0  0  0  0  0  0  0  0  0  0  0
  185.7810  179.3050  140.4820 N   0  0  0  0  0  2  0  0  0  0  0  0
  187.1560  177.7810  145.0500 C   0  0  0  0  0  0  0  0  0  0  0  0
  188.9110  178.1350  140.8740 C   0  0  1  0  0  3  0  0  0  0  0  0
  184.9790  178.4580  146.1140 C   0  0  0  0  0  2  0  0  0  0  0  0
  187.3820  178.2360  138.9760 C   0  0  0  0  0  2  0  0  0  0  0  0
  186.0260  178.1170  139.6720 C   0  0  0  0  0  2  0  0  0  0  0  0
  187.8490  177.4530  141.7350 C   0  0  0  0  0  2  0  0  0  0  0  0
  180.6630  179.5560  141.7390 C   0  0  0  0  0  3  0  0  0  0  0  0
  183.2480  178.6360  142.1860 C   0  0  0  0  0  0  0  0  0  0  0  0
  182.7420  178.7070  140.9240 N   0  0  0  0  0  0  0  0  0  0  0  0
  181.4810  179.1570  140.6810 C   0  0  0  0  0  3  0  0  0  0  0  0
  181.1540  179.4850  143.0430 C   0  0  0  0  0  3  0  0  0  0  0  0
  182.4500  179.0220  143.2740 C   0  0  0  0  0  3  0  0  0  0  0  0
  1 15  1  6  0  0  0
  1 12  1  0  0  0  0
  1  3  1  0  0  0  0
  2  6  1  1  0  0  0
  3 21  1  6  0  0  0
  3 11  1  0  0  0  0
  4 13  1  0  0  0  0
  6 18  1  0  0  0  0
  7  9  1  0  0  0  0
  9 13  2  0  0  0  0
 10 17  1  0  0  0  0
 11  2  1  0  0  0  0
 11 16  1  1  0  0  0
 12 23  1  1  0  0  0
 12  2  1  0  0  0  0
 13  5  1  0  0  0  0
 14  4  2  0  0  0  0
 16  7  2  0  0  0  0
 16 14  1  0  0  0  0
 17  8  1  6  0  0  0
 17 21  1  0  0  0  0
 18 14  1  0  0  0  0
 19 20  1  0  0  0  0
 19 10  1  0  0  0  0
 20 15  1  0  0  0  0
 22 26  1  0  0  0  0
 23 27  1  0  0  0  0
 24 23  2  0  0  0  0
 25 24  1  0  0  0  0
 25 22  2  0  0  0  0
 26 27  2  0  0  0  0
M  END
>  <MODEL>
4

>  <REMARK>
 VINA RESULT:      -9.6      1.519      2.225
  Name = 
  1 active torsions:
  status: ('A' for Active; 'I' for Inactive)
    1  A    between atoms: C_9  and  C_15
                            x       y       z     vdW  Elec       q    Type
                         _______ _______ _______ _____ _____    ______ ____

>  <TORSDO>
F 1

$$$$
=
 OpenBabel10262420013D

 27 31  0  0  1  0  0  0  0  0999 V2000
  187.6180  177.4790  142.3270 C   0  0  2  0  0  3  0  0  0  0  0  0
  189.8880  178.1460  142.5940 N   0  0  2  0  0  0  0  0  0  0  0  0
  187.8090  177.6530  143.8420 C   0  0  1  0  0  3  0  0  0  0  0  0
  191.9740  176.0760  145.6940 C   0  0  0  0  0  3  0  0  0  0  0  0
  192.2970  175.4940  148.0430 N   0  0  0  0  0  1  0  0  0  0  0  0
  190.5700  176.8680  142.3240 C   0  0  0  0  0  2  0  0  0  0  0  0
  189.6510  177.4860  146.3480 C   0  0  0  0  0  3  0  0  0  0  0  0
  184.9750  179.3380  145.8760 C   0  0  0  0  0  1  0  0  0  0  0  0
  190.3860  176.8470  147.3500 C   0  0  0  0  0  3  0  0  0  0  0  0
  184.7020  177.9310  143.8800 N   0  0  0  0  0  2  0  0  0  0  0  0
  189.2660  178.1220  143.9400 C   0  0  1  0  0  3  0  0  0  0  0  0
  188.7290  178.2950  141.7030 C   0  0  1  0  0  3  0  0  0  0  0  0
  191.5460  176.1400  147.0220 C   0  0  0  0  0  0  0  0  0  0  0  0
  191.2350  176.7040  144.6870 C   0  0  0  0  0  0  0  0  0  0  0  0
  186.2850  177.6820  141.7390 N   0  0  0  0  0  2  0  0  0  0  0  0
  190.0660  177.4170  145.0120 C   0  0  0  0  0  0  0  0  0  0  0  0
  185.6070  178.2890  144.9780 C   0  0  1  0  0  3  0  0  0  0  0  0
  191.7340  176.6740  143.2810 C   0  0  0  0  0  2  0  0  0  0  0  0
  184.5800  179.0050  142.8850 C   0  0  0  0  0  2  0  0  0  0  0  0
  185.7880  179.0370  141.9490 C   0  0  0  0  0  2  0  0  0  0  0  0
  186.9810  178.7580  144.5020 C   0  0  0  0  0  2  0  0  0  0  0  0
  189.5490  177.6190  137.5490 C   0  0  0  0  0  3  0  0  0  0  0  0
  189.0100  178.0220  140.2450 C   0  0  0  0  0  0  0  0  0  0  0  0
  188.7910  179.0110  139.3350 N   0  0  0  0  0  0  0  0  0  0  0  0
  189.0450  178.8360  138.0100 C   0  0  0  0  0  3  0  0  0  0  0  0
  189.7910  176.5920  138.4610 C   0  0  0  0  0  3  0  0  0  0  0  0
  189.5240  176.7890  139.8170 C   0  0  0  0  0  3  0  0  0  0  0  0
  1 15  1  6  0  0  0
  1  3  1  0  0  0  0
  2  6  1  6  0  0  0
  2 11  1  0  0  0  0
  3 11  1  0  0  0  0
  3 21  1  6  0  0  0
  4 13  1  0  0  0  0
  6 18  1  0  0  0  0
  7  9  1  0  0  0  0
 10 17  1  0  0  0  0
 11 16  1  1  0  0  0
 12 23  1  6  0  0  0
 12  1  1  0  0  0  0
 12  2  1  0  0  0  0
 13  9  2  0  0  0  0
 13  5  1  0  0  0  0
 14 16  1  0  0  0  0
 14  4  2  0  0  0  0
 15 20  1  0  0  0  0
 16  7  2  0  0  0  0
 17  8  1  6  0  0  0
 18 14  1  0  0  0  0
 19 10  1  0  0  0  0
 20 19  1  0  0  0  0
 21 17  1  0  0  0  0
 22 25  2  0  0  0  0
 22 26  1  0  0  0  0
 24 23  2  0  0  0  0
 25 24  1  0  0  0  0
 26 27  2  0  0  0  0
 27 23  1  0  0  0  0
M  END
>  <MODEL>
5

>  <REMARK>
 VINA RESULT:      -9.3      1.427      4.937
  Name = 
  1 active torsions:
  status: ('A' for Active; 'I' for Inactive)
    1  A    between atoms: C_9  and  C_15
                            x       y       z     vdW  Elec       q    Type
                         _______ _______ _______ _____ _____    ______ ____

>  <TORSDO>
F 1

$$$$
=
 OpenBabel10262420013D

 27 31  0  0  1  0  0  0  0  0999 V2000
  186.9290  177.4850  142.8430 C   0  0  2  0  0  3  0  0  0  0  0  0
  186.4020  179.0730  141.1500 N   0  0  2  0  0  0  0  0  0  0  0  0
  188.1870  177.5650  141.9630 C   0  0  1  0  0  3  0  0  0  0  0  0
  187.4810  177.8540  137.2010 C   0  0  0  0  0  3  0  0  0  0  0  0
  189.1490  177.2370  135.5280 N   0  0  0  0  0  1  0  0  0  0  0  0
  185.4750  178.2770  140.3240 C   0  0  0  0  0  2  0  0  0  0  0  0
  189.4730  177.9850  139.1580 C   0  0  0  0  0  3  0  0  0  0  0  0
  191.6510  177.5630  143.6960 C   0  0  0  0  0  1  0  0  0  0  0  0
  189.8050  177.6460  137.8440 C   0  0  0  0  0  3  0  0  0  0  0  0
  189.6290  176.4040  144.4740 N   0  0  0  0  0  2  0  0  0  0  0  0
  187.7990  178.6280  140.9280 C   0  0  1  0  0  3  0  0  0  0  0  0
  186.1870  178.7760  142.5720 C   0  0  1  0  0  3  0  0  0  0  0  0
  188.8090  177.5780  136.8660 C   0  0  0  0  0  0  0  0  0  0  0  0
  187.1420  178.1830  138.5170 C   0  0  0  0  0  0  0  0  0  0  0  0
  187.0620  177.1250  144.2630 N   0  0  0  0  0  2  0  0  0  0  0  0
  188.1420  178.2530  139.5040 C   0  0  0  0  0  0  0  0  0  0  0  0
  190.2880  177.0140  143.3140 C   0  0  1  0  0  3  0  0  0  0  0  0
  185.7290  178.5300  138.8470 C   0  0  0  0  0  2  0  0  0  0  0  0
  189.1800  177.4060  145.4510 C   0  0  0  0  0  2  0  0  0  0  0  0
  187.8820  178.0780  145.0010 C   0  0  0  0  0  2  0  0  0  0  0  0
  189.4490  178.1000  142.6420 C   0  0  0  0  0  2  0  0  0  0  0  0
  182.0690  178.8180  143.7670 C   0  0  0  0  0  3  0  0  0  0  0  0
  184.7450  178.8140  143.0190 C   0  0  0  0  0  0  0  0  0  0  0  0
  183.7630  178.6270  142.0950 N   0  0  0  0  0  0  0  0  0  0  0  0
  182.4470  178.6280  142.4370 C   0  0  0  0  0  3  0  0  0  0  0  0
  183.0550  179.0030  144.7360 C   0  0  0  0  0  3  0  0  0  0  0  0
  184.4010  178.9990  144.3670 C   0  0  0  0  0  3  0  0  0  0  0  0
  1 15  1  1  0  0  0
  2  6  1  6  0  0  0
  2 12  1  0  0  0  0
  3 21  1  1  0  0  0
  3  1  1  0  0  0  0
  4 14  1  0  0  0  0
  5 13  1  0  0  0  0
  7 16  1  0  0  0  0
  9  7  2  0  0  0  0
 10 19  1  0  0  0  0
 11 16  1  6  0  0  0
 11  2  1  0  0  0  0
 11  3  1  0  0  0  0
 12  1  1  0  0  0  0
 12 23  1  6  0  0  0
 13  4  2  0  0  0  0
 13  9  1  0  0  0  0
 14 18  1  0  0  0  0
 14 16  2  0  0  0  0
 15 20  1  0  0  0  0
 17  8  1  1  0  0  0
 17 10  1  0  0  0  0
 18  6  1  0  0  0  0
 20 19  1  0  0  0  0
 21 17  1  0  0  0  0
 22 26  1  0  0  0  0
 23 27  1  0  0  0  0
 24 25  1  0  0  0  0
 24 23  2  0  0  0  0
 25 22  2  0  0  0  0
 27 26  2  0  0  0  0
M  END
>  <MODEL>
6

>  <REMARK>
 VINA RESULT:      -8.6      1.597      5.524
  Name = 
  1 active torsions:
  status: ('A' for Active; 'I' for Inactive)
    1  A    between atoms: C_9  and  C_15
                            x       y       z     vdW  Elec       q    Type
                         _______ _______ _______ _____ _____    ______ ____

>  <TORSDO>
F 1

$$$$
=
 OpenBabel10262420013D

 27 31  0  0  1  0  0  0  0  0999 V2000
  182.8900  177.8250  141.2660 C   0  0  2  0  0  3  0  0  0  0  0  0
  184.9160  179.0130  141.6580 N   0  0  2  0  0  0  0  0  0  0  0  0
  182.8190  178.2650  142.7370 C   0  0  1  0  0  3  0  0  0  0  0  0
  186.9000  177.9500  145.2880 C   0  0  0  0  0  3  0  0  0  0  0  0
  186.9870  177.8160  147.7250 N   0  0  0  0  0  1  0  0  0  0  0  0
  185.8730  177.8920  141.6970 C   0  0  0  0  0  2  0  0  0  0  0  0
  184.2710  178.8910  145.4200 C   0  0  0  0  0  3  0  0  0  0  0  0
  179.4400  179.5660  144.1110 C   0  0  0  0  0  1  0  0  0  0  0  0
  184.9660  178.5910  146.5940 C   0  0  0  0  0  3  0  0  0  0  0  0
  179.7480  177.8490  142.3820 N   0  0  0  0  0  2  0  0  0  0  0  0
  184.1220  179.0550  142.9100 C   0  0  1  0  0  3  0  0  0  0  0  0
  183.8940  178.7640  140.6330 C   0  0  1  0  0  3  0  0  0  0  0  0
  186.2790  178.1180  146.5280 C   0  0  0  0  0  0  0  0  0  0  0  0
  186.2050  178.2380  144.1100 C   0  0  0  0  0  0  0  0  0  0  0  0
  181.6440  177.6360  140.5080 N   0  0  0  0  0  2  0  0  0  0  0  0
  184.8830  178.7150  144.1720 C   0  0  0  0  0  0  0  0  0  0  0  0
  180.3930  178.5600  143.4910 C   0  0  1  0  0  3  0  0  0  0  0  0
  186.9000  178.1080  142.7960 C   0  0  0  0  0  2  0  0  0  0  0  0
  179.5590  178.7060  141.2040 C   0  0  0  0  0  2  0  0  0  0  0  0
  180.8600  178.8630  140.4160 C   0  0  0  0  0  2  0  0  0  0  0  0
  181.6990  179.2450  143.0930 C   0  0  0  0  0  2  0  0  0  0  0  0
  185.5210  177.5820  136.8450 C   0  0  0  0  0  3  0  0  0  0  0  0
  184.4330  178.3430  139.2870 C   0  0  0  0  0  0  0  0  0  0  0  0
  185.6080  178.8770  138.8510 N   0  0  0  0  0  0  0  0  0  0  0  0
  186.1580  178.5220  137.6580 C   0  0  0  0  0  3  0  0  0  0  0  0
  184.3210  177.0130  137.2720 C   0  0  0  0  0  3  0  0  0  0  0  0
  183.7720  177.3900  138.4990 C   0  0  0  0  0  3  0  0  0  0  0  0
  1 15  1  6  0  0  0
  1  3  1  0  0  0  0
  2  6  1  1  0  0  0
  2 11  1  0  0  0  0
  3 11  1  0  0  0  0
  3 21  1  6  0  0  0
  4 13  1  0  0  0  0
  6 18  1  0  0  0  0
  7  9  1  0  0  0  0
 10 17  1  0  0  0  0
 11 16  1  1  0  0  0
 12 23  1  6  0  0  0
 12  1  1  0  0  0  0
 12  2  1  0  0  0  0
 13  9  2  0  0  0  0
 13  5  1  0  0  0  0
 14 16  1  0  0  0  0
 14  4  2  0  0  0  0
 16  7  2  0  0  0  0
 17  8  1  6  0  0  0
 18 14  1  0  0  0  0
 19 10  1  0  0  0  0
 20 15  1  0  0  0  0
 20 19  1  0  0  0  0
 21 17  1  0  0  0  0
 22 26  2  0  0  0  0
 22 25  1  0  0  0  0
 24 23  1  0  0  0  0
 25 24  2  0  0  0  0
 26 27  1  0  0  0  0
 27 23  2  0  0  0  0
M  END
>  <MODEL>
7

>  <REMARK>
 VINA RESULT:      -8.5      2.964      6.469
  Name = 
  1 active torsions:
  status: ('A' for Active; 'I' for Inactive)
    1  A    between atoms: C_9  and  C_15
                            x       y       z     vdW  Elec       q    Type
                         _______ _______ _______ _____ _____    ______ ____

>  <TORSDO>
F 1

$$$$
=
 OpenBabel10262420013D

 27 31  0  0  1  0  0  0  0  0999 V2000
  187.4270  177.4650  142.2180 C   0  0  2  0  0  3  0  0  0  0  0  0
  187.8350  178.7180  140.2340 N   0  0  2  0  0  0  0  0  0  0  0  0
  188.9480  177.3980  142.0060 C   0  0  1  0  0  3  0  0  0  0  0  0
  190.4790  176.8170  137.4700 C   0  0  0  0  0  3  0  0  0  0  0  0
  192.6700  175.9240  136.8650 N   0  0  0  0  0  1  0  0  0  0  0  0
  187.3220  177.7780  139.2210 C   0  0  0  0  0  2  0  0  0  0  0  0
  191.3840  177.3170  140.0670 C   0  0  0  0  0  3  0  0  0  0  0  0
  191.2550  177.7390  145.0990 C   0  0  0  0  0  1  0  0  0  0  0  0
  192.2450  176.7490  139.1240 C   0  0  0  0  0  3  0  0  0  0  0  0
  189.0200  176.7210  145.0510 N   0  0  0  0  0  2  0  0  0  0  0  0
  189.1460  178.2530  140.7490 C   0  0  1  0  0  3  0  0  0  0  0  0
  186.9840  178.6800  141.4300 C   0  0  1  0  0  3  0  0  0  0  0  0
  191.7920  176.4970  137.8260 C   0  0  0  0  0  0  0  0  0  0  0  0
  189.6110  177.3750  138.4130 C   0  0  0  0  0  0  0  0  0  0  0  0
  186.8820  177.3680  143.5800 N   0  0  0  0  0  2  0  0  0  0  0  0
  190.0630  177.6300  139.7210 C   0  0  0  0  0  0  0  0  0  0  0  0
  190.1720  177.1180  144.2340 C   0  0  1  0  0  3  0  0  0  0  0  0
  188.2300  177.7620  138.0020 C   0  0  0  0  0  2  0  0  0  0  0  0
  188.2550  177.8780  145.5360 C   0  0  0  0  0  2  0  0  0  0  0  0
  187.3510  178.4470  144.4420 C   0  0  0  0  0  2  0  0  0  0  0  0
  189.8070  178.0580  143.0870 C   0  0  0  0  0  2  0  0  0  0  0  0
  182.7950  178.9730  140.5600 C   0  0  0  0  0  3  0  0  0  0  0  0
  185.5020  178.7850  141.1590 C   0  0  0  0  0  0  0  0  0  0  0  0
  185.0830  179.3780  140.0070 N   0  0  0  0  0  0  0  0  0  0  0  0
  183.7640  179.4840  139.6940 C   0  0  0  0  0  3  0  0  0  0  0  0
  183.1970  178.3520  141.7420 C   0  0  0  0  0  3  0  0  0  0  0  0
  184.5550  178.2530  142.0480 C   0  0  0  0  0  3  0  0  0  0  0  0
  1 15  1  1  0  0  0
  2  6  1  6  0  0  0
  2 11  1  0  0  0  0
  2 12  1  0  0  0  0
  3  1  1  0  0  0  0
  3 21  1  1  0  0  0
  4 13  2  0  0  0  0
  4 14  1  0  0  0  0
  5 13  1  0  0  0  0
  9  7  2  0  0  0  0
 10 19  1  0  0  0  0
 11 16  1  6  0  0  0
 11  3  1  0  0  0  0
 12 23  1  6  0  0  0
 12  1  1  0  0  0  0
 13  9  1  0  0  0  0
 14 16  2  0  0  0  0
 15 20  1  0  0  0  0
 16  7  1  0  0  0  0
 17 10  1  0  0  0  0
 17  8  1  1  0  0  0
 18 14  1  0  0  0  0
 18  6  1  0  0  0  0
 20 19  1  0  0  0  0
 21 17  1  0  0  0  0
 22 26  1  0  0  0  0
 23 27  1  0  0  0  0
 24 23  2  0  0  0  0
 25 24  1  0  0  0  0
 25 22  2  0  0  0  0
 26 27  2  0  0  0  0
M  END
>  <MODEL>
8

>  <REMARK>
 VINA RESULT:      -8.4      1.698      5.392
  Name = 
  1 active torsions:
  status: ('A' for Active; 'I' for Inactive)
    1  A    between atoms: C_9  and  C_15
                            x       y       z     vdW  Elec       q    Type
                         _______ _______ _______ _____ _____    ______ ____

>  <TORSDO>
F 1

$$$$
=
 OpenBabel10262420013D

 27 31  0  0  1  0  0  0  0  0999 V2000
  186.6150  178.8160  141.9710 C   0  0  2  0  0  3  0  0  0  0  0  0
  188.0630  177.1120  142.7880 N   0  0  2  0  0  0  0  0  0  0  0  0
  187.4040  178.3360  140.7420 C   0  0  1  0  0  3  0  0  0  0  0  0
  192.0920  177.4180  141.4030 C   0  0  0  0  0  3  0  0  0  0  0  0
  193.7520  177.3980  139.6120 N   0  0  0  0  0  1  0  0  0  0  0  0
  189.0520  177.9330  143.5110 C   0  0  0  0  0  2  0  0  0  0  0  0
  190.0370  177.2070  139.5200 C   0  0  0  0  0  3  0  0  0  0  0  0
  185.5140  177.9160  137.3870 C   0  0  0  0  0  1  0  0  0  0  0  0
  191.3690  177.2500  139.0990 C   0  0  0  0  0  3  0  0  0  0  0  0
  185.0350  179.5750  139.1340 N   0  0  0  0  0  2  0  0  0  0  0  0
  188.2780  177.2190  141.3240 C   0  0  1  0  0  3  0  0  0  0  0  0
  186.7190  177.6770  142.9620 C   0  0  1  0  0  3  0  0  0  0  0  0
  192.3960  177.3580  140.0410 C   0  0  0  0  0  0  0  0  0  0  0  0
  190.7610  177.3860  141.8280 C   0  0  0  0  0  0  0  0  0  0  0  0
  185.2650  179.3700  141.7910 N   0  0  0  0  0  2  0  0  0  0  0  0
  189.7230  177.2770  140.8840 C   0  0  0  0  0  0  0  0  0  0  0  0
  186.0490  178.6610  138.5970 C   0  0  1  0  0  3  0  0  0  0  0  0
  190.4550  177.3940  143.2880 C   0  0  0  0  0  2  0  0  0  0  0  0
  183.9380  178.8620  139.8020 C   0  0  0  0  0  2  0  0  0  0  0  0
  184.3440  178.4040  141.2040 C   0  0  0  0  0  2  0  0  0  0  0  0
  186.5840  177.6740  139.6320 C   0  0  0  0  0  2  0  0  0  0  0  0
  185.5650  178.6100  146.9850 C   0  0  0  0  0  3  0  0  0  0  0  0
  186.3470  178.0070  144.3870 C   0  0  0  0  0  0  0  0  0  0  0  0
  185.1940  178.6910  144.6270 N   0  0  0  0  0  0  0  0  0  0  0  0
  184.7930  178.9990  145.8890 C   0  0  0  0  0  3  0  0  0  0  0  0
  186.7460  177.9010  146.7680 C   0  0  0  0  0  3  0  0  0  0  0  0
  187.1430  177.5930  145.4660 C   0  0  0  0  0  3  0  0  0  0  0  0
  1 15  1  6  0  0  0
  1 12  1  0  0  0  0
  2 12  1  0  0  0  0
  2  6  1  1  0  0  0
  3 21  1  6  0  0  0
  3 11  1  0  0  0  0
  3  1  1  0  0  0  0
  4 14  1  0  0  0  0
  5 13  1  0  0  0  0
  7 16  1  0  0  0  0
  9  7  2  0  0  0  0
  9 13  1  0  0  0  0
 10 19  1  0  0  0  0
 11 16  1  1  0  0  0
 11  2  1  0  0  0  0
 12 23  1  1  0  0  0
 13  4  2  0  0  0  0
 14 18  1  0  0  0  0
 16 14  2  0  0  0  0
 17  8  1  6  0  0  0
 17 10  1  0  0  0  0
 17 21  1  0  0  0  0
 18  6  1  0  0  0  0
 19 20  1  0  0  0  0
 20 15  1  0  0  0  0
 23 24  2  0  0  0  0
 23 27  1  0  0  0  0
 24 25  1  0  0  0  0
 25 22  2  0  0  0  0
 26 22  1  0  0  0  0
 27 26  2  0  0  0  0
M  END
>  <MODEL>
9

>  <REMARK>
 VINA RESULT:      -8.4      2.294      4.307
  Name = 
  1 active torsions:
  status: ('A' for Active; 'I' for Inactive)
    1  A    between atoms: C_9  and  C_15
                            x       y       z     vdW  Elec       q    Type
                         _______ _______ _______ _____ _____    ______ ____

>  <TORSDO>
F 1

$$$$
