=
 OpenBabel10262423213D

 34 39  0  0  1  0  0  0  0  0999 V2000
  188.6390  177.3740  141.6900 C   0  0  0  0  0  0  0  0  0  0  0  0
  188.3710  177.2060  145.4760 N   0  0  0  0  0  0  0  0  0  0  0  0
  190.2330  177.1100  144.0780 N   0  0  0  0  0  2  0  0  0  0  0  0
  188.8940  177.8380  139.2670 C   0  0  0  0  0  0  0  0  0  0  0  0
  188.1250  177.8760  140.5450 C   0  0  0  0  0  3  0  0  0  0  0  0
  190.8000  177.1110  140.5320 C   0  0  2  0  0  3  0  0  0  0  0  0
  191.9490  177.5350  140.9480 N   0  0  0  0  0  0  0  0  0  0  0  0
  190.1990  177.5180  139.2590 C   0  0  0  0  0  3  0  0  0  0  0  0
  190.7770  176.9460  142.7740 C   0  0  1  0  0  3  0  0  0  0  0  0
  189.9290  176.6140  141.6250 C   0  0  1  0  0  3  0  0  0  0  0  0
  191.9430  177.4330  142.3730 C   0  0  0  0  0  3  0  0  0  0  0  0
  187.0040  177.2890  145.9610 C   0  0  0  0  0  2  0  0  0  0  0  0
  186.3100  178.4980  145.3850 C   0  0  1  0  0  3  0  0  0  0  0  0
  185.6750  178.0030  144.1090 C   0  0  0  0  0  2  0  0  0  0  0  0
  188.8100  177.2370  144.2490 C   0  0  0  0  0  0  0  0  0  0  0  0
  186.6540  177.8460  142.9920 C   0  0  0  0  0  3  0  0  0  0  0  0
  187.9500  177.4740  143.0130 C   0  0  0  0  0  0  0  0  0  0  0  0
  185.2840  178.9860  146.3070 N   0  0  0  0  0  0  0  0  0  0  0  0
  185.6550  179.7210  147.4100 O   0  0  0  0  0  0  0  0  0  0  0  0
  184.0930  179.0300  145.9360 O   0  0  0  0  0  0  0  0  0  0  0  0
  188.2300  178.2430  137.9950 C   0  0  0  0  0  2  0  0  0  0  0  0
  184.8220  176.8980  137.3550 C   0  0  0  0  0  3  0  0  0  0  0  0
  187.5050  175.9220  137.4280 C   0  0  0  0  0  3  0  0  0  0  0  0
  184.4470  173.1860  136.5970 C   0  0  0  0  0  0  0  0  0  0  0  0
  184.1630  174.6140  136.8470 C   0  0  0  0  0  3  0  0  0  0  0  0
  185.1370  175.4830  137.1100 C   0  0  0  0  0  0  0  0  0  0  0  0
  186.9040  173.5940  136.9260 C   0  0  0  0  0  2  0  0  0  0  0  0
  186.5450  175.0340  137.1620 C   0  0  0  0  0  0  0  0  0  0  0  0
  185.7080  172.7260  136.6340 C   0  0  0  0  0  3  0  0  0  0  0  0
  187.1750  177.3020  137.6590 N   0  0  0  0  0  0  0  0  0  0  0  0
  185.8110  177.7540  137.6170 C   0  0  0  0  0  3  0  0  0  0  0  0
  183.3340  172.2640  136.3050 C   0  0  0  0  0  0  0  0  0  0  0  0
  182.3090  172.6700  135.6950 O   0  0  0  0  0  0  0  0  0  0  0  0
  183.4060  170.9010  136.7120 N   0  0  0  0  0  1  0  0  0  0  0  0
  1 17  1  0  0  0  0
  2 12  1  0  0  0  0
  3 15  1  0  0  0  0
  4  5  1  0  0  0  0
  5  1  2  0  0  0  0
  6  8  1  1  0  0  0
  6  7  1  0  0  0  0
  6 10  1  0  0  0  0
  7 11  2  0  0  0  0
  8  4  2  0  0  0  0
  9 11  1  6  0  0  0
  9  3  1  0  0  0  0
 10  1  1  1  0  0  0
 10  9  1  0  0  0  0
 13 12  1  0  0  0  0
 13 18  1  1  0  0  0
 14 13  1  0  0  0  0
 15  2  2  0  0  0  0
 16 17  2  0  0  0  0
 16 14  1  0  0  0  0
 17 15  1  0  0  0  0
 18 19  2  0  0  0  0
 20 18  2  0  0  0  0
 21  4  1  0  0  0  0
 22 31  2  0  0  0  0
 23 30  1  0  0  0  0
 24 29  2  0  0  0  0
 24 25  1  0  0  0  0
 25 26  2  0  0  0  0
 26 28  1  0  0  0  0
 26 22  1  0  0  0  0
 27 28  1  0  0  0  0
 28 23  2  0  0  0  0
 29 27  1  0  0  0  0
 30 21  1  0  0  0  0
 31 30  1  0  0  0  0
 32 24  1  0  0  0  0
 32 34  1  0  0  0  0
 33 32  2  0  0  0  0
M  END
>  <MODEL>
1

>  <REMARK>
 VINA RESULT:      -9.5      0.000      0.000
  Name = 
  4 active torsions:
  status: ('A' for Active; 'I' for Inactive)
    1  A    between atoms: N_3  and  C_25
    2  A    between atoms: C_7  and  C_11
    3  A    between atoms: C_8  and  C_18
    4  A    between atoms: C_18  and  N_30
                            x       y       z     vdW  Elec       q    Type
                         _______ _______ _______ _____ _____    ______ ____

>  <TORSDO>
F 4

$$$$
=
 OpenBabel10262423213D

 34 39  0  0  1  0  0  0  0  0999 V2000
  188.9840  177.8810  144.6380 C   0  0  0  0  0  0  0  0  0  0  0  0
  191.8660  177.0570  142.3060 N   0  0  0  0  0  0  0  0  0  0  0  0
  191.6640  176.8190  144.6150 N   0  0  0  0  0  2  0  0  0  0  0  0
  187.0160  178.0630  146.1380 C   0  0  0  0  0  0  0  0  0  0  0  0
  187.6430  177.9650  144.7870 C   0  0  0  0  0  3  0  0  0  0  0  0
  189.1760  177.6060  147.0820 C   0  0  2  0  0  3  0  0  0  0  0  0
  189.8230  176.6710  147.6990 N   0  0  0  0  0  0  0  0  0  0  0  0
  187.7390  177.8420  147.2490 C   0  0  0  0  0  3  0  0  0  0  0  0
  190.9720  177.1220  145.8210 C   0  0  1  0  0  3  0  0  0  0  0  0
  189.8520  178.0680  145.8460 C   0  0  1  0  0  3  0  0  0  0  0  0
  190.9680  176.3590  146.9040 C   0  0  0  0  0  3  0  0  0  0  0  0
  191.5920  177.3750  140.9150 C   0  0  0  0  0  2  0  0  0  0  0  0
  190.2930  176.7460  140.4750 C   0  0  1  0  0  3  0  0  0  0  0  0
  189.2430  177.7880  140.7710 C   0  0  0  0  0  2  0  0  0  0  0  0
  191.1010  177.2090  143.3490 C   0  0  0  0  0  0  0  0  0  0  0  0
  188.8890  177.8640  142.2210 C   0  0  0  0  0  3  0  0  0  0  0  0
  189.6530  177.6840  143.3160 C   0  0  0  0  0  0  0  0  0  0  0  0
  190.3270  176.4520  139.0420 N   0  0  0  0  0  0  0  0  0  0  0  0
  190.0990  177.4610  138.1350 O   0  0  0  0  0  0  0  0  0  0  0  0
  190.8770  175.4050  138.6420 O   0  0  0  0  0  0  0  0  0  0  0  0
  185.5530  178.3260  146.2550 C   0  0  0  0  0  2  0  0  0  0  0  0
  185.2250  178.1750  142.5530 C   0  0  0  0  0  3  0  0  0  0  0  0
  183.5530  178.6990  144.8080 C   0  0  0  0  0  3  0  0  0  0  0  0
  181.8330  178.9290  140.9970 C   0  0  0  0  0  0  0  0  0  0  0  0
  183.2580  178.5880  141.1850 C   0  0  0  0  0  3  0  0  0  0  0  0
  183.8030  178.5150  142.3980 C   0  0  2  0  0  3  0  0  0  0  0  0
  181.5320  179.1370  143.4830 C   0  0  0  0  0  3  0  0  0  0  0  0
  182.9850  178.7780  143.6030 C   0  0  0  0  0  0  0  0  0  0  0  0
  181.0470  179.1780  142.0570 C   0  0  0  0  0  3  0  0  0  0  0  0
  184.9430  178.3590  144.9360 N   0  0  0  0  0  0  0  0  0  0  0  0
  185.7540  178.1060  143.7760 C   0  0  0  0  0  3  0  0  0  0  0  0
  181.2750  178.9930  139.6340 C   0  0  0  0  0  0  0  0  0  0  0  0
  180.1120  178.5690  139.3970 O   0  0  0  0  0  0  0  0  0  0  0  0
  182.0480  179.5360  138.5680 N   0  0  0  0  0  1  0  0  0  0  0  0
  1  5  2  0  0  0  0
  2 15  2  0  0  0  0
  3  9  1  0  0  0  0
  4 21  1  0  0  0  0
  4  8  2  0  0  0  0
  5  4  1  0  0  0  0
  6  8  1  6  0  0  0
  6  7  1  0  0  0  0
  9 10  1  0  0  0  0
  9 11  1  6  0  0  0
 10  1  1  6  0  0  0
 10  6  1  0  0  0  0
 11  7  2  0  0  0  0
 12  2  1  0  0  0  0
 13 18  1  6  0  0  0
 13 14  1  0  0  0  0
 13 12  1  0  0  0  0
 14 16  1  0  0  0  0
 15  3  1  0  0  0  0
 16 17  2  0  0  0  0
 17 15  1  0  0  0  0
 17  1  1  0  0  0  0
 19 18  2  0  0  0  0
 20 18  2  0  0  0  0
 22 31  2  0  0  0  0
 23 30  1  0  0  0  0
 24 25  2  0  0  0  0
 24 29  1  0  0  0  0
 26 25  1  6  0  0  0
 26 22  1  0  0  0  0
 26 28  1  0  0  0  0
 27 28  1  0  0  0  0
 28 23  2  0  0  0  0
 29 27  2  0  0  0  0
 30 21  1  0  0  0  0
 31 30  1  0  0  0  0
 32 24  1  0  0  0  0
 33 32  2  0  0  0  0
 34 32  1  0  0  0  0
M  END
>  <MODEL>
2

>  <REMARK>
 VINA RESULT:      -9.3      4.502      6.918
  Name = 
  4 active torsions:
  status: ('A' for Active; 'I' for Inactive)
    1  A    between atoms: N_3  and  C_25
    2  A    between atoms: C_7  and  C_11
    3  A    between atoms: C_8  and  C_18
    4  A    between atoms: C_18  and  N_30
                            x       y       z     vdW  Elec       q    Type
                         _______ _______ _______ _____ _____    ______ ____

>  <TORSDO>
F 4

$$$$
=
 OpenBabel10262423213D

 34 39  0  0  1  0  0  0  0  0999 V2000
  188.1300  178.0430  139.1450 C   0  0  0  0  0  0  0  0  0  0  0  0
  184.4580  178.6650  138.3980 N   0  0  0  0  0  0  0  0  0  0  0  0
  186.1470  177.7600  137.0720 N   0  0  0  0  0  2  0  0  0  0  0  0
  190.4280  177.2920  139.7050 C   0  0  0  0  0  0  0  0  0  0  0  0
  189.0530  177.7330  140.0830 C   0  0  0  0  0  3  0  0  0  0  0  0
  189.6710  177.1690  137.4290 C   0  0  2  0  0  3  0  0  0  0  0  0
  189.3850  176.3020  136.5130 N   0  0  0  0  0  0  0  0  0  0  0  0
  190.7200  176.9700  138.4330 C   0  0  0  0  0  3  0  0  0  0  0  0
  187.5330  177.5310  136.8410 C   0  0  1  0  0  3  0  0  0  0  0  0
  188.5610  178.1110  137.7110 C   0  0  1  0  0  3  0  0  0  0  0  0
  188.0270  176.5260  136.1330 C   0  0  0  0  0  3  0  0  0  0  0  0
  183.7390  179.2690  139.5060 C   0  0  0  0  0  2  0  0  0  0  0  0
  183.9450  178.4710  140.7690 C   0  0  1  0  0  3  0  0  0  0  0  0
  185.1640  179.0830  141.4150 C   0  0  0  0  0  2  0  0  0  0  0  0
  185.7130  178.3210  138.3240 C   0  0  0  0  0  0  0  0  0  0  0  0
  186.4410  178.6650  140.7630 C   0  0  0  0  0  3  0  0  0  0  0  0
  186.7150  178.3960  139.4710 C   0  0  0  0  0  0  0  0  0  0  0  0
  182.7840  178.6000  141.6510 N   0  0  0  0  0  0  0  0  0  0  0  0
  182.9720  178.8510  142.9910 O   0  0  0  0  0  0  0  0  0  0  0  0
  181.6580  178.8140  141.1570 O   0  0  0  0  0  0  0  0  0  0  0  0
  191.4660  177.1250  140.7620 C   0  0  0  0  0  2  0  0  0  0  0  0
  191.2360  178.2460  144.3010 C   0  0  0  0  0  3  0  0  0  0  0  0
  189.5430  177.0240  142.3520 C   0  0  0  0  0  3  0  0  0  0  0  0
  187.9590  177.7180  146.1650 C   0  0  0  0  0  0  0  0  0  0  0  0
  189.3480  178.0880  145.8240 C   0  0  0  0  0  3  0  0  0  0  0  0
  189.8500  177.8670  144.6100 C   0  0  0  0  0  0  0  0  0  0  0  0
  187.6010  176.8280  143.8420 C   0  0  0  0  0  2  0  0  0  0  0  0
  189.0190  177.2370  143.5610 C   0  0  0  0  0  0  0  0  0  0  0  0
  187.1640  177.1410  145.2500 C   0  0  0  0  0  3  0  0  0  0  0  0
  190.8990  177.4080  142.0700 N   0  0  0  0  0  0  0  0  0  0  0  0
  191.7220  178.0180  143.0790 C   0  0  0  0  0  3  0  0  0  0  0  0
  187.4480  177.9860  147.5210 C   0  0  0  0  0  0  0  0  0  0  0  0
  186.3030  178.4850  147.6870 O   0  0  0  0  0  0  0  0  0  0  0  0
  188.2470  177.6850  148.6620 N   0  0  0  0  0  1  0  0  0  0  0  0
  1 17  1  0  0  0  0
  1  5  2  0  0  0  0
  2 12  1  0  0  0  0
  3 15  1  0  0  0  0
  4  5  1  0  0  0  0
  4 21  1  0  0  0  0
  6 10  1  0  0  0  0
  6  8  1  1  0  0  0
  7  6  1  0  0  0  0
  8  4  2  0  0  0  0
  9 11  1  1  0  0  0
  9  3  1  0  0  0  0
  9 10  1  0  0  0  0
 10  1  1  1  0  0  0
 11  7  2  0  0  0  0
 12 13  1  0  0  0  0
 13 14  1  0  0  0  0
 13 18  1  1  0  0  0
 15  2  2  0  0  0  0
 15 17  1  0  0  0  0
 16 14  1  0  0  0  0
 17 16  2  0  0  0  0
 18 19  2  0  0  0  0
 20 18  2  0  0  0  0
 21 30  1  0  0  0  0
 22 26  1  0  0  0  0
 23 28  2  0  0  0  0
 24 32  1  0  0  0  0
 25 24  1  0  0  0  0
 26 25  2  0  0  0  0
 27 29  1  0  0  0  0
 28 27  1  0  0  0  0
 28 26  1  0  0  0  0
 29 24  2  0  0  0  0
 30 23  1  0  0  0  0
 30 31  1  0  0  0  0
 31 22  2  0  0  0  0
 32 33  2  0  0  0  0
 32 34  1  0  0  0  0
M  END
>  <MODEL>
3

>  <REMARK>
 VINA RESULT:      -9.2      3.081      7.480
  Name = 
  4 active torsions:
  status: ('A' for Active; 'I' for Inactive)
    1  A    between atoms: N_3  and  C_25
    2  A    between atoms: C_7  and  C_11
    3  A    between atoms: C_8  and  C_18
    4  A    between atoms: C_18  and  N_30
                            x       y       z     vdW  Elec       q    Type
                         _______ _______ _______ _____ _____    ______ ____

>  <TORSDO>
F 4

$$$$
=
 OpenBabel10262423213D

 34 39  0  0  1  0  0  0  0  0999 V2000
  183.4740  177.2390  138.9890 C   0  0  0  0  0  0  0  0  0  0  0  0
  183.5350  174.9040  135.9940 N   0  0  0  0  0  0  0  0  0  0  0  0
  185.1170  176.4320  136.7620 N   0  0  0  0  0  2  0  0  0  0  0  0
  183.6300  178.5060  141.1160 C   0  0  0  0  0  0  0  0  0  0  0  0
  183.0440  177.4380  140.2550 C   0  0  0  0  0  3  0  0  0  0  0  0
  185.3060  178.8310  139.4280 C   0  0  2  0  0  3  0  0  0  0  0  0
  186.5650  178.6280  139.2120 N   0  0  0  0  0  0  0  0  0  0  0  0
  184.7510  179.1490  140.7460 C   0  0  0  0  0  3  0  0  0  0  0  0
  185.4490  177.5370  137.5960 C   0  0  1  0  0  3  0  0  0  0  0  0
  184.4310  178.2270  138.3940 C   0  0  1  0  0  3  0  0  0  0  0  0
  186.6650  177.8060  138.0480 C   0  0  0  0  0  3  0  0  0  0  0  0
  182.3250  174.1120  135.8560 C   0  0  0  0  0  2  0  0  0  0  0  0
  182.0130  173.3920  137.1450 C   0  0  1  0  0  3  0  0  0  0  0  0
  181.1300  174.3450  137.9110 C   0  0  0  0  0  2  0  0  0  0  0  0
  183.8380  175.7880  136.9020 C   0  0  0  0  0  0  0  0  0  0  0  0
  181.8910  175.4640  138.5450 C   0  0  0  0  0  3  0  0  0  0  0  0
  182.9880  176.1230  138.1220 C   0  0  0  0  0  0  0  0  0  0  0  0
  181.2990  172.1440  136.8730 N   0  0  0  0  0  0  0  0  0  0  0  0
  180.2640  171.7600  137.6940 O   0  0  0  0  0  0  0  0  0  0  0  0
  181.3940  171.6130  135.7470 O   0  0  0  0  0  0  0  0  0  0  0  0
  183.0150  178.8060  142.4410 C   0  0  0  0  0  2  0  0  0  0  0  0
  184.5080  178.7290  145.8470 C   0  0  0  0  0  3  0  0  0  0  0  0
  185.2830  178.0670  143.1790 C   0  0  0  0  0  3  0  0  0  0  0  0
  188.0970  177.5180  146.2300 C   0  0  0  0  0  0  0  0  0  0  0  0
  186.7420  178.0370  146.5090 C   0  0  0  0  0  3  0  0  0  0  0  0
  185.8480  178.2100  145.5370 C   0  0  0  0  0  0  0  0  0  0  0  0
  187.5570  177.3610  143.7810 C   0  0  0  0  0  2  0  0  0  0  0  0
  186.1940  177.8850  144.1360 C   0  0  0  0  0  0  0  0  0  0  0  0
  188.4620  177.2090  144.9760 C   0  0  0  0  0  3  0  0  0  0  0  0
  183.9770  178.5700  143.5050 N   0  0  0  0  0  0  0  0  0  0  0  0
  183.6250  178.8950  144.8600 C   0  0  0  0  0  3  0  0  0  0  0  0
  189.0500  177.3400  147.3410 C   0  0  0  0  0  0  0  0  0  0  0  0
  189.8670  176.3800  147.3360 O   0  0  0  0  0  0  0  0  0  0  0  0
  189.0550  178.2520  148.4350 N   0  0  0  0  0  1  0  0  0  0  0  0
  1  5  2  0  0  0  0
  2 15  2  0  0  0  0
  3 15  1  0  0  0  0
  3  9  1  0  0  0  0
  4 21  1  0  0  0  0
  5  4  1  0  0  0  0
  6  8  1  1  0  0  0
  7  6  1  0  0  0  0
  8  4  2  0  0  0  0
  9 11  1  1  0  0  0
  9 10  1  0  0  0  0
 10  1  1  1  0  0  0
 10  6  1  0  0  0  0
 11  7  2  0  0  0  0
 12  2  1  0  0  0  0
 12 13  1  0  0  0  0
 13 18  1  6  0  0  0
 13 14  1  0  0  0  0
 14 16  1  0  0  0  0
 15 17  1  0  0  0  0
 17 16  2  0  0  0  0
 17  1  1  0  0  0  0
 18 19  2  0  0  0  0
 20 18  2  0  0  0  0
 21 30  1  0  0  0  0
 23 30  1  0  0  0  0
 23 28  2  0  0  0  0
 24 25  1  0  0  0  0
 24 32  1  0  0  0  0
 26 22  1  0  0  0  0
 26 25  2  0  0  0  0
 27 28  1  0  0  0  0
 27 29  1  0  0  0  0
 28 26  1  0  0  0  0
 29 24  2  0  0  0  0
 30 31  1  0  0  0  0
 31 22  2  0  0  0  0
 32 34  1  0  0  0  0
 33 32  2  0  0  0  0
M  END
>  <MODEL>
4

>  <REMARK>
 VINA RESULT:      -9.2      3.043      9.318
  Name = 
  4 active torsions:
  status: ('A' for Active; 'I' for Inactive)
    1  A    between atoms: N_3  and  C_25
    2  A    between atoms: C_7  and  C_11
    3  A    between atoms: C_8  and  C_18
    4  A    between atoms: C_18  and  N_30
                            x       y       z     vdW  Elec       q    Type
                         _______ _______ _______ _____ _____    ______ ____

>  <TORSDO>
F 4

$$$$
=
 OpenBabel10262423213D

 34 39  0  0  1  0  0  0  0  0999 V2000
  189.3220  177.7670  143.5000 C   0  0  0  0  0  0  0  0  0  0  0  0
  190.5390  177.5420  139.9090 N   0  0  0  0  0  0  0  0  0  0  0  0
  191.5240  176.8240  141.8950 N   0  0  0  0  0  2  0  0  0  0  0  0
  188.4140  177.5690  145.8000 C   0  0  0  0  0  0  0  0  0  0  0  0
  188.2560  177.7730  144.3300 C   0  0  0  0  0  3  0  0  0  0  0  0
  190.7100  176.9990  145.3880 C   0  0  2  0  0  3  0  0  0  0  0  0
  191.5060  175.9800  145.3890 N   0  0  0  0  0  0  0  0  0  0  0  0
  189.5830  177.1470  146.3130 C   0  0  0  0  0  3  0  0  0  0  0  0
  191.5690  176.8480  143.3170 C   0  0  1  0  0  3  0  0  0  0  0  0
  190.6960  177.7300  144.0980 C   0  0  1  0  0  3  0  0  0  0  0  0
  192.0580  175.8770  144.0760 C   0  0  0  0  0  3  0  0  0  0  0  0
  189.6200  178.1300  138.9510 C   0  0  0  0  0  2  0  0  0  0  0  0
  188.2340  177.5620  139.1280 C   0  0  1  0  0  3  0  0  0  0  0  0
  187.5660  178.4840  140.1180 C   0  0  0  0  0  2  0  0  0  0  0  0
  190.4270  177.4480  141.2040 C   0  0  0  0  0  0  0  0  0  0  0  0
  188.0080  178.2470  141.5260 C   0  0  0  0  0  3  0  0  0  0  0  0
  189.2060  177.8700  142.0130 C   0  0  0  0  0  0  0  0  0  0  0  0
  187.5100  177.5730  137.8570 N   0  0  0  0  0  0  0  0  0  0  0  0
  186.9830  178.7520  137.3830 O   0  0  0  0  0  0  0  0  0  0  0  0
  187.6530  176.6220  137.0600 O   0  0  0  0  0  0  0  0  0  0  0  0
  187.2400  177.7520  146.7010 C   0  0  0  0  0  2  0  0  0  0  0  0
  183.8110  178.9580  145.9150 C   0  0  0  0  0  3  0  0  0  0  0  0
  186.0530  177.8840  144.5090 C   0  0  0  0  0  3  0  0  0  0  0  0
  182.6180  178.8120  142.3020 C   0  0  0  0  0  0  0  0  0  0  0  0
  182.6830  179.0270  143.7620 C   0  0  0  0  0  3  0  0  0  0  0  0
  183.7770  178.7320  144.4620 C   0  0  0  0  0  0  0  0  0  0  0  0
  184.9680  177.9210  142.3060 C   0  0  0  0  0  2  0  0  0  0  0  0
  184.9690  178.1730  143.7870 C   0  0  0  0  0  0  0  0  0  0  0  0
  183.6710  178.3050  141.6410 C   0  0  0  0  0  3  0  0  0  0  0  0
  186.0670  178.1180  145.9270 N   0  0  0  0  0  0  0  0  0  0  0  0
  184.9160  178.6570  146.6000 C   0  0  0  0  0  3  0  0  0  0  0  0
  181.3860  179.1580  141.5710 C   0  0  0  0  0  0  0  0  0  0  0  0
  181.1560  178.6660  140.4330 O   0  0  0  0  0  0  0  0  0  0  0  0
  180.4390  180.0550  142.1440 N   0  0  0  0  0  1  0  0  0  0  0  0
  1  5  2  0  0  0  0
  2 15  2  0  0  0  0
  3  9  1  0  0  0  0
  4  8  2  0  0  0  0
  4 21  1  0  0  0  0
  5  4  1  0  0  0  0
  6  7  1  0  0  0  0
  6  8  1  6  0  0  0
  9 11  1  1  0  0  0
  9 10  1  0  0  0  0
 10  1  1  6  0  0  0
 10  6  1  0  0  0  0
 11  7  2  0  0  0  0
 12 13  1  0  0  0  0
 12  2  1  0  0  0  0
 13 18  1  6  0  0  0
 13 14  1  0  0  0  0
 14 16  1  0  0  0  0
 15  3  1  0  0  0  0
 15 17  1  0  0  0  0
 16 17  2  0  0  0  0
 17  1  1  0  0  0  0
 19 18  2  0  0  0  0
 20 18  2  0  0  0  0
 22 31  2  0  0  0  0
 23 30  1  0  0  0  0
 24 25  1  0  0  0  0
 25 26  2  0  0  0  0
 26 22  1  0  0  0  0
 27 28  1  0  0  0  0
 28 26  1  0  0  0  0
 28 23  2  0  0  0  0
 29 24  2  0  0  0  0
 29 27  1  0  0  0  0
 30 31  1  0  0  0  0
 30 21  1  0  0  0  0
 32 34  1  0  0  0  0
 32 24  1  0  0  0  0
 33 32  2  0  0  0  0
M  END
>  <MODEL>
5

>  <REMARK>
 VINA RESULT:      -9.2      3.826      6.921
  Name = 
  4 active torsions:
  status: ('A' for Active; 'I' for Inactive)
    1  A    between atoms: N_3  and  C_25
    2  A    between atoms: C_7  and  C_11
    3  A    between atoms: C_8  and  C_18
    4  A    between atoms: C_18  and  N_30
                            x       y       z     vdW  Elec       q    Type
                         _______ _______ _______ _____ _____    ______ ____

>  <TORSDO>
F 4

$$$$
=
 OpenBabel10262423213D

 34 39  0  0  1  0  0  0  0  0999 V2000
  188.7310  177.3930  141.7070 C   0  0  0  0  0  0  0  0  0  0  0  0
  188.3890  177.1630  145.4830 N   0  0  0  0  0  0  0  0  0  0  0  0
  190.2750  177.0550  144.1190 N   0  0  0  0  0  2  0  0  0  0  0  0
  189.0410  177.8950  139.2970 C   0  0  0  0  0  0  0  0  0  0  0  0
  188.2490  177.9250  140.5620 C   0  0  0  0  0  3  0  0  0  0  0  0
  190.9090  177.1090  140.5840 C   0  0  2  0  0  3  0  0  0  0  0  0
  192.0580  177.5030  141.0290 N   0  0  0  0  0  0  0  0  0  0  0  0
  190.3400  177.5500  139.3080 C   0  0  0  0  0  3  0  0  0  0  0  0
  190.8410  176.9050  142.8210 C   0  0  1  0  0  3  0  0  0  0  0  0
  190.0080  176.6090  141.6510 C   0  0  1  0  0  3  0  0  0  0  0  0
  192.0230  177.3760  142.4510 C   0  0  0  0  0  3  0  0  0  0  0  0
  187.0160  177.2630  145.9450 C   0  0  0  0  0  2  0  0  0  0  0  0
  186.3560  178.4960  145.3780 C   0  0  1  0  0  3  0  0  0  0  0  0
  185.7350  178.0360  144.0820 C   0  0  0  0  0  2  0  0  0  0  0  0
  188.8520  177.2070  144.2650 C   0  0  0  0  0  0  0  0  0  0  0  0
  186.7320  177.8800  142.9800 C   0  0  0  0  0  3  0  0  0  0  0  0
  188.0200  177.4830  143.0180 C   0  0  0  0  0  0  0  0  0  0  0  0
  185.3220  178.9870  146.2900 N   0  0  0  0  0  0  0  0  0  0  0  0
  185.6810  179.7530  147.3750 O   0  0  0  0  0  0  0  0  0  0  0  0
  184.1310  179.0020  145.9190 O   0  0  0  0  0  0  0  0  0  0  0  0
  188.4080  178.3350  138.0210 C   0  0  0  0  0  2  0  0  0  0  0  0
  186.1940  175.5450  136.9500 C   0  0  0  0  0  3  0  0  0  0  0  0
  185.9170  178.1770  138.0240 C   0  0  0  0  0  3  0  0  0  0  0  0
  182.4240  176.0280  137.1790 C   0  0  0  0  0  0  0  0  0  0  0  0
  183.7650  175.4560  136.9350 C   0  0  0  0  0  3  0  0  0  0  0  0
  184.8740  176.1410  137.2050 C   0  0  2  0  0  3  0  0  0  0  0  0
  183.4610  178.1540  138.0270 C   0  0  0  0  0  3  0  0  0  0  0  0
  184.7920  177.5090  137.7620 C   0  0  0  0  0  0  0  0  0  0  0  0
  182.2940  177.2660  137.6810 C   0  0  0  0  0  3  0  0  0  0  0  0
  187.1960  177.5730  137.7730 N   0  0  0  0  0  0  0  0  0  0  0  0
  187.2950  176.2460  137.2280 C   0  0  0  0  0  3  0  0  0  0  0  0
  181.2260  175.2280  136.8670 C   0  0  0  0  0  0  0  0  0  0  0  0
  180.1040  175.5410  137.3490 O   0  0  0  0  0  0  0  0  0  0  0  0
  181.3240  174.0900  136.0160 N   0  0  0  0  0  1  0  0  0  0  0  0
  1 17  1  0  0  0  0
  2 12  1  0  0  0  0
  3 15  1  0  0  0  0
  4  8  2  0  0  0  0
  4  5  1  0  0  0  0
  5  1  2  0  0  0  0
  6  8  1  1  0  0  0
  6  7  1  0  0  0  0
  6 10  1  0  0  0  0
  7 11  2  0  0  0  0
  9 11  1  6  0  0  0
  9  3  1  0  0  0  0
 10  1  1  1  0  0  0
 10  9  1  0  0  0  0
 13 12  1  0  0  0  0
 13 18  1  1  0  0  0
 14 13  1  0  0  0  0
 15  2  2  0  0  0  0
 16 17  2  0  0  0  0
 16 14  1  0  0  0  0
 17 15  1  0  0  0  0
 18 19  2  0  0  0  0
 20 18  2  0  0  0  0
 21  4  1  0  0  0  0
 22 26  1  0  0  0  0
 22 31  2  0  0  0  0
 24 29  1  0  0  0  0
 25 24  2  0  0  0  0
 26 25  1  6  0  0  0
 26 28  1  0  0  0  0
 28 23  2  0  0  0  0
 28 27  1  0  0  0  0
 29 27  2  0  0  0  0
 30 21  1  0  0  0  0
 30 23  1  0  0  0  0
 31 30  1  0  0  0  0
 32 24  1  0  0  0  0
 32 33  2  0  0  0  0
 34 32  1  0  0  0  0
M  END
>  <MODEL>
6

>  <REMARK>
 VINA RESULT:      -9.2      1.363      2.113
  Name = 
  4 active torsions:
  status: ('A' for Active; 'I' for Inactive)
    1  A    between atoms: N_3  and  C_25
    2  A    between atoms: C_7  and  C_11
    3  A    between atoms: C_8  and  C_18
    4  A    between atoms: C_18  and  N_30
                            x       y       z     vdW  Elec       q    Type
                         _______ _______ _______ _____ _____    ______ ____

>  <TORSDO>
F 4

$$$$
=
 OpenBabel10262423213D

 34 39  0  0  1  0  0  0  0  0999 V2000
  188.5940  177.3770  141.9900 C   0  0  0  0  0  0  0  0  0  0  0  0
  188.5940  177.0970  145.7780 N   0  0  0  0  0  0  0  0  0  0  0  0
  190.3490  177.0110  144.2480 N   0  0  0  0  0  2  0  0  0  0  0  0
  188.6850  177.9120  139.5690 C   0  0  0  0  0  0  0  0  0  0  0  0
  188.0100  177.9230  140.9000 C   0  0  0  0  0  3  0  0  0  0  0  0
  190.6620  177.1120  140.6720 C   0  0  2  0  0  3  0  0  0  0  0  0
  191.8460  177.5030  141.0170 N   0  0  0  0  0  0  0  0  0  0  0  0
  189.9800  177.5690  139.4580 C   0  0  0  0  0  3  0  0  0  0  0  0
  190.7960  176.8790  142.9030 C   0  0  1  0  0  3  0  0  0  0  0  0
  189.8610  176.5970  141.8090 C   0  0  1  0  0  3  0  0  0  0  0  0
  191.9390  177.3570  142.4350 C   0  0  0  0  0  3  0  0  0  0  0  0
  187.2670  177.1880  146.3630 C   0  0  0  0  0  2  0  0  0  0  0  0
  186.5570  178.4270  145.8740 C   0  0  1  0  0  3  0  0  0  0  0  0
  185.8230  177.9830  144.6330 C   0  0  0  0  0  2  0  0  0  0  0  0
  188.9440  177.1580  144.5250 C   0  0  0  0  0  0  0  0  0  0  0  0
  186.7170  177.8430  143.4450 C   0  0  0  0  0  3  0  0  0  0  0  0
  188.0030  177.4480  143.3610 C   0  0  0  0  0  0  0  0  0  0  0  0
  185.6100  178.9040  146.8820 N   0  0  0  0  0  0  0  0  0  0  0  0
  185.9160  180.0180  147.6300 O   0  0  0  0  0  0  0  0  0  0  0  0
  184.4210  178.5250  146.8370 O   0  0  0  0  0  0  0  0  0  0  0  0
  187.9400  178.3670  138.3600 C   0  0  0  0  0  2  0  0  0  0  0  0
  184.5160  177.1510  137.5630 C   0  0  0  0  0  3  0  0  0  0  0  0
  185.8240  178.5640  139.6720 C   0  0  0  0  0  3  0  0  0  0  0  0
  181.7110  177.8720  140.0340 C   0  0  0  0  0  0  0  0  0  0  0  0
  182.4750  177.4060  138.8590 C   0  0  0  0  0  3  0  0  0  0  0  0
  183.7830  177.6270  138.7460 C   0  0  2  0  0  3  0  0  0  0  0  0
  183.7970  178.8630  141.0250 C   0  0  0  0  0  3  0  0  0  0  0  0
  184.5130  178.3540  139.8070 C   0  0  0  0  0  0  0  0  0  0  0  0
  182.3250  178.5380  141.0250 C   0  0  0  0  0  3  0  0  0  0  0  0
  186.5220  178.0850  138.5100 N   0  0  0  0  0  0  0  0  0  0  0  0
  185.8270  177.3810  137.4670 C   0  0  0  0  0  3  0  0  0  0  0  0
  180.2640  177.6000  140.1150 C   0  0  0  0  0  0  0  0  0  0  0  0
  179.7320  177.2870  141.2140 O   0  0  0  0  0  0  0  0  0  0  0  0
  179.4520  177.6860  138.9480 N   0  0  0  0  0  1  0  0  0  0  0  0
  1 17  1  0  0  0  0
  2 12  1  0  0  0  0
  3 15  1  0  0  0  0
  4  5  1  0  0  0  0
  5  1  2  0  0  0  0
  6  8  1  1  0  0  0
  6  7  1  0  0  0  0
  6 10  1  0  0  0  0
  7 11  2  0  0  0  0
  8  4  2  0  0  0  0
  9 11  1  6  0  0  0
  9  3  1  0  0  0  0
 10  1  1  1  0  0  0
 10  9  1  0  0  0  0
 13 12  1  0  0  0  0
 13 18  1  1  0  0  0
 14 13  1  0  0  0  0
 15  2  2  0  0  0  0
 16 14  1  0  0  0  0
 17 16  2  0  0  0  0
 17 15  1  0  0  0  0
 18 19  2  0  0  0  0
 20 18  2  0  0  0  0
 21 30  1  0  0  0  0
 21  4  1  0  0  0  0
 23 28  2  0  0  0  0
 24 32  1  0  0  0  0
 24 29  1  0  0  0  0
 25 24  2  0  0  0  0
 26 22  1  6  0  0  0
 26 25  1  0  0  0  0
 26 28  1  0  0  0  0
 27 29  2  0  0  0  0
 28 27  1  0  0  0  0
 30 23  1  0  0  0  0
 31 22  2  0  0  0  0
 31 30  1  0  0  0  0
 32 33  2  0  0  0  0
 34 32  1  0  0  0  0
M  END
>  <MODEL>
7

>  <REMARK>
 VINA RESULT:      -9.0      2.612      3.449
  Name = 
  4 active torsions:
  status: ('A' for Active; 'I' for Inactive)
    1  A    between atoms: N_3  and  C_25
    2  A    between atoms: C_7  and  C_11
    3  A    between atoms: C_8  and  C_18
    4  A    between atoms: C_18  and  N_30
                            x       y       z     vdW  Elec       q    Type
                         _______ _______ _______ _____ _____    ______ ____

>  <TORSDO>
F 4

$$$$
=
 OpenBabel10262423213D

 34 39  0  0  1  0  0  0  0  0999 V2000
  184.1780  178.4560  141.6440 C   0  0  0  0  0  0  0  0  0  0  0  0
  185.2670  178.3320  138.0070 N   0  0  0  0  0  0  0  0  0  0  0  0
  183.2070  178.8610  138.9590 N   0  0  0  0  0  2  0  0  0  0  0  0
  183.5270  178.8980  143.9960 C   0  0  0  0  0  0  0  0  0  0  0  0
  184.5430  178.7010  142.9220 C   0  0  0  0  0  3  0  0  0  0  0  0
  181.8470  178.9440  142.2810 C   0  0  2  0  0  3  0  0  0  0  0  0
  181.0450  179.7650  141.6850 N   0  0  0  0  0  0  0  0  0  0  0  0
  182.2280  179.0660  143.6910 C   0  0  0  0  0  3  0  0  0  0  0  0
  182.3460  178.8590  140.0920 C   0  0  1  0  0  3  0  0  0  0  0  0
  182.7300  178.2060  141.3470 C   0  0  1  0  0  3  0  0  0  0  0  0
  181.3550  179.7160  140.2910 C   0  0  0  0  0  3  0  0  0  0  0  0
  186.6540  177.9370  137.8330 C   0  0  0  0  0  2  0  0  0  0  0  0
  187.5590  178.7970  138.6790 C   0  0  1  0  0  3  0  0  0  0  0  0
  187.6650  178.0640  139.9940 C   0  0  0  0  0  2  0  0  0  0  0  0
  184.5860  178.4760  139.1080 C   0  0  0  0  0  0  0  0  0  0  0  0
  186.4540  178.2310  140.8530 C   0  0  0  0  0  3  0  0  0  0  0  0
  185.1540  178.3480  140.5170 C   0  0  0  0  0  0  0  0  0  0  0  0
  188.8780  178.9170  138.0570 N   0  0  0  0  0  0  0  0  0  0  0  0
  189.7930  177.8990  138.2000 O   0  0  0  0  0  0  0  0  0  0  0  0
  189.0550  179.7530  137.1470 O   0  0  0  0  0  0  0  0  0  0  0  0
  183.9650  178.9940  145.4180 C   0  0  0  0  0  2  0  0  0  0  0  0
  187.2150  177.4020  144.5610 C   0  0  0  0  0  3  0  0  0  0  0  0
  186.0240  178.7140  146.8010 C   0  0  0  0  0  3  0  0  0  0  0  0
  189.9340  177.2760  147.2240 C   0  0  0  0  0  0  0  0  0  0  0  0
  189.1820  177.1170  145.9630 C   0  0  0  0  0  3  0  0  0  0  0  0
  187.9380  177.5760  145.8300 C   0  0  2  0  0  3  0  0  0  0  0  0
  187.9750  178.4510  148.2710 C   0  0  0  0  0  3  0  0  0  0  0  0
  187.2710  178.2630  146.9570 C   0  0  0  0  0  0  0  0  0  0  0  0
  189.3730  177.8900  148.2780 C   0  0  0  0  0  3  0  0  0  0  0  0
  185.3380  178.5390  145.5510 N   0  0  0  0  0  0  0  0  0  0  0  0
  185.9710  177.8690  144.4460 C   0  0  0  0  0  3  0  0  0  0  0  0
  191.3090  176.7540  147.3200 C   0  0  0  0  0  0  0  0  0  0  0  0
  192.0020  176.9620  148.3530 O   0  0  0  0  0  0  0  0  0  0  0  0
  191.8700  176.0080  146.2440 N   0  0  0  0  0  1  0  0  0  0  0  0
  1  5  2  0  0  0  0
  2 15  2  0  0  0  0
  3 15  1  0  0  0  0
  3  9  1  0  0  0  0
  4 21  1  0  0  0  0
  5  4  1  0  0  0  0
  6  8  1  1  0  0  0
  7  6  1  0  0  0  0
  8  4  2  0  0  0  0
  9 11  1  1  0  0  0
  9 10  1  0  0  0  0
 10  1  1  1  0  0  0
 10  6  1  0  0  0  0
 11  7  2  0  0  0  0
 12  2  1  0  0  0  0
 12 13  1  0  0  0  0
 13 18  1  6  0  0  0
 13 14  1  0  0  0  0
 14 16  1  0  0  0  0
 15 17  1  0  0  0  0
 17 16  2  0  0  0  0
 17  1  1  0  0  0  0
 18 19  2  0  0  0  0
 20 18  2  0  0  0  0
 21 30  1  0  0  0  0
 23 28  2  0  0  0  0
 24 32  1  0  0  0  0
 24 29  1  0  0  0  0
 25 24  2  0  0  0  0
 26 22  1  1  0  0  0
 26 25  1  0  0  0  0
 26 28  1  0  0  0  0
 27 29  2  0  0  0  0
 28 27  1  0  0  0  0
 30 23  1  0  0  0  0
 31 22  2  0  0  0  0
 31 30  1  0  0  0  0
 32 33  2  0  0  0  0
 34 32  1  0  0  0  0
M  END
>  <MODEL>
8

>  <REMARK>
 VINA RESULT:      -8.9      4.083      9.532
  Name = 
  4 active torsions:
  status: ('A' for Active; 'I' for Inactive)
    1  A    between atoms: N_3  and  C_25
    2  A    between atoms: C_7  and  C_11
    3  A    between atoms: C_8  and  C_18
    4  A    between atoms: C_18  and  N_30
                            x       y       z     vdW  Elec       q    Type
                         _______ _______ _______ _____ _____    ______ ____

>  <TORSDO>
F 4

$$$$
=
 OpenBabel10262423213D

 34 39  0  0  1  0  0  0  0  0999 V2000
  188.9400  177.2640  142.2270 C   0  0  0  0  0  0  0  0  0  0  0  0
  189.9990  176.7530  145.8390 N   0  0  0  0  0  0  0  0  0  0  0  0
  191.2570  176.7970  143.8780 N   0  0  0  0  0  2  0  0  0  0  0  0
  188.3490  177.9470  139.9170 C   0  0  0  0  0  0  0  0  0  0  0  0
  188.0730  177.8630  141.3810 C   0  0  0  0  0  3  0  0  0  0  0  0
  190.5570  177.1220  140.3710 C   0  0  2  0  0  3  0  0  0  0  0  0
  191.7890  177.5150  140.3960 N   0  0  0  0  0  0  0  0  0  0  0  0
  189.5620  177.6380  139.4270 C   0  0  0  0  0  3  0  0  0  0  0  0
  191.3100  176.7560  142.4560 C   0  0  1  0  0  3  0  0  0  0  0  0
  190.1080  176.5220  141.6500 C   0  0  1  0  0  3  0  0  0  0  0  0
  192.2760  177.2850  141.7190 C   0  0  0  0  0  3  0  0  0  0  0  0
  188.8890  176.7810  146.7750 C   0  0  0  0  0  2  0  0  0  0  0  0
  188.0680  178.0320  146.5840 C   0  0  1  0  0  3  0  0  0  0  0  0
  187.0170  177.6500  145.5720 C   0  0  0  0  0  2  0  0  0  0  0  0
  189.9860  176.8980  144.5440 C   0  0  0  0  0  0  0  0  0  0  0  0
  187.5440  177.6020  144.1740 C   0  0  0  0  0  3  0  0  0  0  0  0
  188.7560  177.2390  143.7100 C   0  0  0  0  0  0  0  0  0  0  0  0
  187.4390  178.4280  147.8450 N   0  0  0  0  0  0  0  0  0  0  0  0
  186.1440  178.8940  147.8430 O   0  0  0  0  0  0  0  0  0  0  0  0
  187.9310  178.0420  148.9250 O   0  0  0  0  0  0  0  0  0  0  0  0
  187.2940  178.4600  138.9960 C   0  0  0  0  0  2  0  0  0  0  0  0
  183.6260  178.1120  139.5010 C   0  0  0  0  0  3  0  0  0  0  0  0
  185.9110  178.8830  141.0310 C   0  0  0  0  0  3  0  0  0  0  0  0
  182.1680  179.0020  142.9030 C   0  0  0  0  0  0  0  0  0  0  0  0
  182.3180  178.5770  141.4960 C   0  0  0  0  0  3  0  0  0  0  0  0
  183.5090  178.5390  140.9030 C   0  0  2  0  0  3  0  0  0  0  0  0
  184.6460  179.3780  143.0770 C   0  0  0  0  0  3  0  0  0  0  0  0
  184.7280  178.9280  141.6460 C   0  0  0  0  0  0  0  0  0  0  0  0
  183.2410  179.3670  143.6220 C   0  0  0  0  0  3  0  0  0  0  0  0
  186.0030  178.4560  139.6610 N   0  0  0  0  0  0  0  0  0  0  0  0
  184.8280  178.0790  138.9230 C   0  0  0  0  0  3  0  0  0  0  0  0
  180.8280  179.0240  143.5170 C   0  0  0  0  0  0  0  0  0  0  0  0
  180.4720  178.1110  144.3100 O   0  0  0  0  0  0  0  0  0  0  0  0
  179.9180  180.0790  143.2180 N   0  0  0  0  0  1  0  0  0  0  0  0
  1 17  1  0  0  0  0
  2 12  1  0  0  0  0
  3 15  1  0  0  0  0
  4  5  1  0  0  0  0
  5  1  2  0  0  0  0
  6  8  1  1  0  0  0
  6  7  1  0  0  0  0
  6 10  1  0  0  0  0
  7 11  2  0  0  0  0
  8  4  2  0  0  0  0
  9 11  1  6  0  0  0
  9  3  1  0  0  0  0
 10  1  1  1  0  0  0
 10  9  1  0  0  0  0
 13 12  1  0  0  0  0
 13 18  1  1  0  0  0
 14 13  1  0  0  0  0
 15  2  2  0  0  0  0
 16 14  1  0  0  0  0
 17 16  2  0  0  0  0
 17 15  1  0  0  0  0
 18 20  2  0  0  0  0
 19 18  2  0  0  0  0
 21 30  1  0  0  0  0
 21  4  1  0  0  0  0
 23 28  2  0  0  0  0
 24 32  1  0  0  0  0
 24 29  1  0  0  0  0
 25 24  2  0  0  0  0
 26 22  1  6  0  0  0
 26 25  1  0  0  0  0
 26 28  1  0  0  0  0
 27 29  2  0  0  0  0
 28 27  1  0  0  0  0
 30 23  1  0  0  0  0
 31 22  2  0  0  0  0
 31 30  1  0  0  0  0
 32 33  2  0  0  0  0
 34 32  1  0  0  0  0
M  END
>  <MODEL>
9

>  <REMARK>
 VINA RESULT:      -8.8      3.489      4.888
  Name = 
  4 active torsions:
  status: ('A' for Active; 'I' for Inactive)
    1  A    between atoms: N_3  and  C_25
    2  A    between atoms: C_7  and  C_11
    3  A    between atoms: C_8  and  C_18
    4  A    between atoms: C_18  and  N_30
                            x       y       z     vdW  Elec       q    Type
                         _______ _______ _______ _____ _____    ______ ____

>  <TORSDO>
F 4

$$$$
