=
 OpenBabel10262419543D

 25 27  0  0  1  0  0  0  0  0999 V2000
  189.0960  177.1060  145.1330 C   0  0  0  0  0  0  0  0  0  0  0  0
  187.7580  177.5200  144.9570 C   0  0  0  0  0  0  0  0  0  0  0  0
  188.7830  177.1300  147.4890 C   0  0  0  0  0  3  0  0  0  0  0  0
  189.9830  176.8850  144.0180 N   0  0  0  0  0  0  0  0  0  0  0  0
  187.4900  177.5150  147.3380 N   0  0  0  0  0  0  0  0  0  0  0  0
  185.6290  178.1370  145.9500 C   0  0  0  0  0  0  0  0  0  0  0  0
  184.7490  178.3560  147.1330 C   0  0  0  0  0  1  0  0  0  0  0  0
  187.2110  177.7700  143.6940 C   0  0  0  0  0  3  0  0  0  0  0  0
  189.5680  176.9350  146.3990 N   0  0  0  0  0  0  0  0  0  0  0  0
  185.1300  178.3610  144.7040 N   0  0  0  0  0  0  0  0  0  0  0  0
  185.8840  178.1850  143.5850 C   0  0  0  0  0  0  0  0  0  0  0  0
  186.9610  177.7170  146.1030 C   0  0  0  0  0  0  0  0  0  0  0  0
  190.7140  179.5400  143.8200 C   0  0  0  0  0  1  0  0  0  0  0  0
  191.4240  177.0870  144.2100 C   0  0  2  0  0  3  0  0  0  0  0  0
  191.8350  178.5690  144.1600 C   0  0  1  0  0  3  0  0  0  0  0  0
  192.0750  177.6690  142.9670 C   0  0  0  0  0  2  0  0  0  0  0  0
  189.5530  176.0230  142.9200 C   0  0  0  0  0  2  0  0  0  0  0  0
  190.2490  174.8140  142.9660 O   0  0  0  0  0  1  0  0  0  0  0  0
  185.3020  178.4700  142.2460 C   0  0  0  0  0  2  0  0  0  0  0  0
  186.4110  178.6280  141.2220 C   0  0  0  0  0  2  0  0  0  0  0  0
  185.8250  178.9210  139.8870 C   0  0  0  0  0  0  0  0  0  0  0  0
  184.7830  179.6260  139.8060 O   0  0  0  0  0  0  0  0  0  0  0  0
  186.4540  178.4370  138.7400 O   0  0  0  0  0  0  0  0  0  0  0  0
  187.7860  177.9480  138.7670 C   0  0  0  0  0  2  0  0  0  0  0  0
  188.6960  179.0050  138.3670 N   0  0  0  0  0  1  0  0  0  0  0  0
  1  9  1  0  0  0  0
  2  1  2  0  0  0  0
  2 12  1  0  0  0  0
  4  1  1  0  0  0  0
  5  3  1  0  0  0  0
  6 12  1  0  0  0  0
  6  7  1  0  0  0  0
  8  2  1  0  0  0  0
  9  3  2  0  0  0  0
 10  6  2  0  0  0  0
 11  8  2  0  0  0  0
 11 10  1  0  0  0  0
 12  5  2  0  0  0  0
 14  4  1  6  0  0  0
 15 13  1  6  0  0  0
 15 14  1  0  0  0  0
 16 15  1  0  0  0  0
 16 14  1  0  0  0  0
 17 18  1  0  0  0  0
 17  4  1  0  0  0  0
 19 11  1  0  0  0  0
 20 19  1  0  0  0  0
 21 20  1  0  0  0  0
 22 21  2  0  0  0  0
 23 24  1  0  0  0  0
 23 21  1  0  0  0  0
 25 24  1  0  0  0  0
M  END
>  <MODEL>
1

>  <REMARK>
 VINA RESULT:      -7.6      0.000      0.000
  Name = 
  7 active torsions:
  status: ('A' for Active; 'I' for Inactive)
    1  A    between atoms: O_2  and  C_7
    2  A    between atoms: O_2  and  C_21
    3  A    between atoms: N_5  and  C_10
    4  A    between atoms: N_5  and  C_17
    5  A    between atoms: C_6  and  C_15
    6  A    between atoms: C_6  and  C_23
    7  A    between atoms: C_15  and  C_21
                            x       y       z     vdW  Elec       q    Type
                         _______ _______ _______ _____ _____    ______ ____

>  <TORSDO>
F 7

$$$$
=
 OpenBabel10262419543D

 25 27  0  0  1  0  0  0  0  0999 V2000
  190.2220  176.7850  145.0870 C   0  0  0  0  0  0  0  0  0  0  0  0
  189.0470  177.2390  145.7230 C   0  0  0  0  0  0  0  0  0  0  0  0
  191.3050  176.6590  147.1990 C   0  0  0  0  0  3  0  0  0  0  0  0
  190.3040  176.6190  143.6570 N   0  0  0  0  0  0  0  0  0  0  0  0
  190.1800  177.0800  147.8290 N   0  0  0  0  0  0  0  0  0  0  0  0
  187.8980  177.8350  147.7790 C   0  0  0  0  0  0  0  0  0  0  0  0
  187.8600  177.9940  149.2610 C   0  0  0  0  0  1  0  0  0  0  0  0
  187.8940  177.5850  145.0110 C   0  0  0  0  0  3  0  0  0  0  0  0
  191.3200  176.5190  145.8490 N   0  0  0  0  0  0  0  0  0  0  0  0
  186.7930  178.1530  147.0520 N   0  0  0  0  0  0  0  0  0  0  0  0
  186.7660  178.0350  145.6970 C   0  0  0  0  0  0  0  0  0  0  0  0
  189.0550  177.3760  147.1270 C   0  0  0  0  0  0  0  0  0  0  0  0
  191.0720  179.2630  143.4520 C   0  0  0  0  0  1  0  0  0  0  0  0
  191.6070  176.7770  143.0010 C   0  0  2  0  0  3  0  0  0  0  0  0
  192.0730  178.2410  142.9330 C   0  0  1  0  0  3  0  0  0  0  0  0
  191.4890  177.5690  141.7090 C   0  0  0  0  0  2  0  0  0  0  0  0
  189.2790  175.8420  142.9660 C   0  0  0  0  0  2  0  0  0  0  0  0
  188.5760  176.6630  142.0830 O   0  0  0  0  0  1  0  0  0  0  0  0
  185.5430  178.4220  144.9420 C   0  0  0  0  0  2  0  0  0  0  0  0
  185.7520  178.1800  143.4590 C   0  0  0  0  0  2  0  0  0  0  0  0
  184.7020  178.8910  142.6810 C   0  0  0  0  0  0  0  0  0  0  0  0
  183.5440  179.0110  143.1630 O   0  0  0  0  0  0  0  0  0  0  0  0
  185.0220  179.4430  141.4400 O   0  0  0  0  0  0  0  0  0  0  0  0
  184.4150  178.9890  140.2400 C   0  0  0  0  0  2  0  0  0  0  0  0
  184.6190  179.9720  139.1940 N   0  0  0  0  0  1  0  0  0  0  0  0
  1  2  2  0  0  0  0
  1  9  1  0  0  0  0
  2 12  1  0  0  0  0
  3  5  1  0  0  0  0
  4  1  1  0  0  0  0
  6  7  1  0  0  0  0
  8 11  2  0  0  0  0
  8  2  1  0  0  0  0
  9  3  2  0  0  0  0
 10  6  2  0  0  0  0
 11 10  1  0  0  0  0
 12  6  1  0  0  0  0
 12  5  2  0  0  0  0
 14  4  1  1  0  0  0
 15 14  1  0  0  0  0
 15 13  1  1  0  0  0
 16 15  1  0  0  0  0
 16 14  1  0  0  0  0
 17  4  1  0  0  0  0
 18 17  1  0  0  0  0
 19 11  1  0  0  0  0
 20 19  1  0  0  0  0
 21 22  2  0  0  0  0
 21 20  1  0  0  0  0
 23 21  1  0  0  0  0
 24 23  1  0  0  0  0
 25 24  1  0  0  0  0
M  END
>  <MODEL>
2

>  <REMARK>
 VINA RESULT:      -7.4      1.862      2.508
  Name = 
  7 active torsions:
  status: ('A' for Active; 'I' for Inactive)
    1  A    between atoms: O_2  and  C_7
    2  A    between atoms: O_2  and  C_21
    3  A    between atoms: N_5  and  C_10
    4  A    between atoms: N_5  and  C_17
    5  A    between atoms: C_6  and  C_15
    6  A    between atoms: C_6  and  C_23
    7  A    between atoms: C_15  and  C_21
                            x       y       z     vdW  Elec       q    Type
                         _______ _______ _______ _____ _____    ______ ____

>  <TORSDO>
F 7

$$$$
=
 OpenBabel10262419543D

 25 27  0  0  1  0  0  0  0  0999 V2000
  189.1100  177.0870  145.1340 C   0  0  0  0  0  0  0  0  0  0  0  0
  187.7670  177.4870  144.9640 C   0  0  0  0  0  0  0  0  0  0  0  0
  188.8280  177.1750  147.4920 C   0  0  0  0  0  3  0  0  0  0  0  0
  189.9840  176.8410  144.0130 N   0  0  0  0  0  0  0  0  0  0  0  0
  187.5310  177.5460  147.3490 N   0  0  0  0  0  0  0  0  0  0  0  0
  185.6470  178.1180  145.9690 C   0  0  0  0  0  0  0  0  0  0  0  0
  184.7820  178.3640  147.1570 C   0  0  0  0  0  1  0  0  0  0  0  0
  187.2010  177.6990  143.7030 C   0  0  0  0  0  3  0  0  0  0  0  0
  189.6010  176.9540  146.3980 N   0  0  0  0  0  0  0  0  0  0  0  0
  185.1310  178.3040  144.7240 N   0  0  0  0  0  0  0  0  0  0  0  0
  185.8700  178.1020  143.6010 C   0  0  0  0  0  0  0  0  0  0  0  0
  186.9840  177.7100  146.1150 C   0  0  0  0  0  0  0  0  0  0  0  0
  190.6890  179.4980  143.7640 C   0  0  0  0  0  1  0  0  0  0  0  0
  191.4250  177.0580  144.1800 C   0  0  2  0  0  3  0  0  0  0  0  0
  191.8230  178.5410  144.1010 C   0  0  1  0  0  3  0  0  0  0  0  0
  192.0530  177.6260  142.9180 C   0  0  0  0  0  2  0  0  0  0  0  0
  189.5450  175.9460  142.9460 C   0  0  0  0  0  2  0  0  0  0  0  0
  190.3100  174.7800  142.9600 O   0  0  0  0  0  1  0  0  0  0  0  0
  185.2690  178.3460  142.2620 C   0  0  0  0  0  2  0  0  0  0  0  0
  183.7830  178.6180  142.4040 C   0  0  0  0  0  2  0  0  0  0  0  0
  183.0950  178.3400  141.1140 C   0  0  0  0  0  0  0  0  0  0  0  0
  181.8370  178.3780  141.0580 O   0  0  0  0  0  0  0  0  0  0  0  0
  183.8550  178.0700  139.9760 O   0  0  0  0  0  0  0  0  0  0  0  0
  183.7890  178.8910  138.8190 C   0  0  0  0  0  2  0  0  0  0  0  0
  184.4540  180.1520  139.0840 N   0  0  0  0  0  1  0  0  0  0  0  0
  1  9  1  0  0  0  0
  2  1  2  0  0  0  0
  2 12  1  0  0  0  0
  4  1  1  0  0  0  0
  5  3  1  0  0  0  0
  6 12  1  0  0  0  0
  6  7  1  0  0  0  0
  8  2  1  0  0  0  0
  9  3  2  0  0  0  0
 10  6  2  0  0  0  0
 11  8  2  0  0  0  0
 11 10  1  0  0  0  0
 12  5  2  0  0  0  0
 14  4  1  6  0  0  0
 15 13  1  6  0  0  0
 15 14  1  0  0  0  0
 16 15  1  0  0  0  0
 16 14  1  0  0  0  0
 17 18  1  0  0  0  0
 17  4  1  0  0  0  0
 19 20  1  0  0  0  0
 19 11  1  0  0  0  0
 21 20  1  0  0  0  0
 22 21  2  0  0  0  0
 23 21  1  0  0  0  0
 24 25  1  0  0  0  0
 24 23  1  0  0  0  0
M  END
>  <MODEL>
3

>  <REMARK>
 VINA RESULT:      -7.3      1.500      1.727
  Name = 
  7 active torsions:
  status: ('A' for Active; 'I' for Inactive)
    1  A    between atoms: O_2  and  C_7
    2  A    between atoms: O_2  and  C_21
    3  A    between atoms: N_5  and  C_10
    4  A    between atoms: N_5  and  C_17
    5  A    between atoms: C_6  and  C_15
    6  A    between atoms: C_6  and  C_23
    7  A    between atoms: C_15  and  C_21
                            x       y       z     vdW  Elec       q    Type
                         _______ _______ _______ _____ _____    ______ ____

>  <TORSDO>
F 7

$$$$
=
 OpenBabel10262419543D

 25 27  0  0  1  0  0  0  0  0999 V2000
  189.1260  177.0850  145.1530 C   0  0  0  0  0  0  0  0  0  0  0  0
  187.7800  177.4750  144.9790 C   0  0  0  0  0  0  0  0  0  0  0  0
  188.8470  177.2070  147.5100 C   0  0  0  0  0  3  0  0  0  0  0  0
  189.9990  176.8250  144.0350 N   0  0  0  0  0  0  0  0  0  0  0  0
  187.5470  177.5700  147.3630 N   0  0  0  0  0  0  0  0  0  0  0  0
  185.6580  178.1100  145.9770 C   0  0  0  0  0  0  0  0  0  0  0  0
  184.7930  178.3700  147.1630 C   0  0  0  0  0  1  0  0  0  0  0  0
  187.2120  177.6640  143.7160 C   0  0  0  0  0  3  0  0  0  0  0  0
  189.6190  176.9740  146.4180 N   0  0  0  0  0  0  0  0  0  0  0  0
  185.1390  178.2750  144.7310 N   0  0  0  0  0  0  0  0  0  0  0  0
  185.8780  178.0590  143.6100 C   0  0  0  0  0  0  0  0  0  0  0  0
  186.9980  177.7120  146.1280 C   0  0  0  0  0  0  0  0  0  0  0  0
  190.6910  179.4810  143.7300 C   0  0  0  0  0  1  0  0  0  0  0  0
  191.4390  177.0530  144.1970 C   0  0  2  0  0  3  0  0  0  0  0  0
  191.8300  178.5360  144.0860 C   0  0  1  0  0  3  0  0  0  0  0  0
  192.0630  177.5970  142.9220 C   0  0  0  0  0  2  0  0  0  0  0  0
  189.5630  175.9120  142.9830 C   0  0  0  0  0  2  0  0  0  0  0  0
  190.3280  174.7460  143.0200 O   0  0  0  0  0  1  0  0  0  0  0  0
  185.2730  178.2790  142.2680 C   0  0  0  0  0  2  0  0  0  0  0  0
  186.3180  178.8210  141.3110 C   0  0  0  0  0  2  0  0  0  0  0  0
  185.7220  178.9920  139.9590 C   0  0  0  0  0  0  0  0  0  0  0  0
  186.2180  178.3760  138.9780 O   0  0  0  0  0  0  0  0  0  0  0  0
  184.6020  179.8090  139.8010 O   0  0  0  0  0  0  0  0  0  0  0  0
  183.4710  179.3920  139.0520 C   0  0  0  0  0  2  0  0  0  0  0  0
  183.0140  178.1060  139.5440 N   0  0  0  0  0  1  0  0  0  0  0  0
  1  9  1  0  0  0  0
  2  1  2  0  0  0  0
  2 12  1  0  0  0  0
  4  1  1  0  0  0  0
  5  3  1  0  0  0  0
  6 12  1  0  0  0  0
  6  7  1  0  0  0  0
  8  2  1  0  0  0  0
  9  3  2  0  0  0  0
 10  6  2  0  0  0  0
 11  8  2  0  0  0  0
 11 10  1  0  0  0  0
 12  5  2  0  0  0  0
 14  4  1  6  0  0  0
 15 13  1  6  0  0  0
 15 14  1  0  0  0  0
 16 15  1  0  0  0  0
 16 14  1  0  0  0  0
 17 18  1  0  0  0  0
 17  4  1  0  0  0  0
 19 11  1  0  0  0  0
 20 19  1  0  0  0  0
 21 20  1  0  0  0  0
 22 21  2  0  0  0  0
 23 21  1  0  0  0  0
 24 25  1  0  0  0  0
 24 23  1  0  0  0  0
M  END
>  <MODEL>
4

>  <REMARK>
 VINA RESULT:      -7.2      1.291      1.628
  Name = 
  7 active torsions:
  status: ('A' for Active; 'I' for Inactive)
    1  A    between atoms: O_2  and  C_7
    2  A    between atoms: O_2  and  C_21
    3  A    between atoms: N_5  and  C_10
    4  A    between atoms: N_5  and  C_17
    5  A    between atoms: C_6  and  C_15
    6  A    between atoms: C_6  and  C_23
    7  A    between atoms: C_15  and  C_21
                            x       y       z     vdW  Elec       q    Type
                         _______ _______ _______ _____ _____    ______ ____

>  <TORSDO>
F 7

$$$$
=
 OpenBabel10262419543D

 25 27  0  0  1  0  0  0  0  0999 V2000
  188.6710  177.2120  144.8750 C   0  0  0  0  0  0  0  0  0  0  0  0
  187.4330  177.7190  144.4270 C   0  0  0  0  0  0  0  0  0  0  0  0
  187.9300  177.4150  147.1240 C   0  0  0  0  0  3  0  0  0  0  0  0
  189.7260  176.8470  143.9610 N   0  0  0  0  0  0  0  0  0  0  0  0
  186.7280  177.8910  146.7110 N   0  0  0  0  0  0  0  0  0  0  0  0
  185.2220  178.5700  144.9640 C   0  0  0  0  0  0  0  0  0  0  0  0
  184.1610  178.9360  145.9460 C   0  0  0  0  0  1  0  0  0  0  0  0
  187.1550  177.9300  143.0720 C   0  0  0  0  0  3  0  0  0  0  0  0
  188.8820  177.0860  146.2150 N   0  0  0  0  0  0  0  0  0  0  0  0
  184.9860  178.7520  143.6370 N   0  0  0  0  0  0  0  0  0  0  0  0
  185.9140  178.4430  142.6930 C   0  0  0  0  0  0  0  0  0  0  0  0
  186.4580  178.0550  145.3890 C   0  0  0  0  0  0  0  0  0  0  0  0
  190.7600  179.3890  143.6600 C   0  0  0  0  0  1  0  0  0  0  0  0
  191.1180  176.9450  144.4150 C   0  0  2  0  0  3  0  0  0  0  0  0
  191.6870  178.3700  144.3060 C   0  0  1  0  0  3  0  0  0  0  0  0
  192.0490  177.3230  143.2750 C   0  0  0  0  0  2  0  0  0  0  0  0
  189.4300  175.9530  142.8460 C   0  0  0  0  0  2  0  0  0  0  0  0
  189.7100  176.5920  141.6380 O   0  0  0  0  0  1  0  0  0  0  0  0
  185.6200  178.6860  141.2540 C   0  0  0  0  0  2  0  0  0  0  0  0
  184.1400  178.4800  140.9870 C   0  0  0  0  0  2  0  0  0  0  0  0
  183.7020  179.3710  139.8790 C   0  0  0  0  0  0  0  0  0  0  0  0
  184.5640  179.9770  139.1890 O   0  0  0  0  0  0  0  0  0  0  0  0
  182.3410  179.5000  139.6000 O   0  0  0  0  0  0  0  0  0  0  0  0
  181.3520  178.8360  140.3720 C   0  0  0  0  0  2  0  0  0  0  0  0
  180.3950  179.8060  140.8690 N   0  0  0  0  0  1  0  0  0  0  0  0
  1  9  1  0  0  0  0
  2  1  2  0  0  0  0
  2 12  1  0  0  0  0
  4  1  1  0  0  0  0
  5  3  1  0  0  0  0
  6 12  1  0  0  0  0
  6  7  1  0  0  0  0
  8  2  1  0  0  0  0
  9  3  2  0  0  0  0
 10  6  2  0  0  0  0
 11  8  2  0  0  0  0
 11 10  1  0  0  0  0
 12  5  2  0  0  0  0
 14  4  1  6  0  0  0
 15 13  1  6  0  0  0
 15 14  1  0  0  0  0
 16 15  1  0  0  0  0
 16 14  1  0  0  0  0
 17  4  1  0  0  0  0
 18 17  1  0  0  0  0
 19 11  1  0  0  0  0
 20 19  1  0  0  0  0
 21 20  1  0  0  0  0
 22 21  2  0  0  0  0
 23 21  1  0  0  0  0
 23 24  1  0  0  0  0
 24 25  1  0  0  0  0
M  END
>  <MODEL>
5

>  <REMARK>
 VINA RESULT:      -6.8      1.887      2.584
  Name = 
  7 active torsions:
  status: ('A' for Active; 'I' for Inactive)
    1  A    between atoms: O_2  and  C_7
    2  A    between atoms: O_2  and  C_21
    3  A    between atoms: N_5  and  C_10
    4  A    between atoms: N_5  and  C_17
    5  A    between atoms: C_6  and  C_15
    6  A    between atoms: C_6  and  C_23
    7  A    between atoms: C_15  and  C_21
                            x       y       z     vdW  Elec       q    Type
                         _______ _______ _______ _____ _____    ______ ____

>  <TORSDO>
F 7

$$$$
=
 OpenBabel10262419543D

 25 27  0  0  1  0  0  0  0  0999 V2000
  187.9830  177.3300  144.8300 C   0  0  0  0  0  0  0  0  0  0  0  0
  186.9740  177.8630  143.9990 C   0  0  0  0  0  0  0  0  0  0  0  0
  186.6290  177.7660  146.7350 C   0  0  0  0  0  3  0  0  0  0  0  0
  189.2280  176.8320  144.3010 N   0  0  0  0  0  0  0  0  0  0  0  0
  185.6430  178.2690  145.9500 N   0  0  0  0  0  0  0  0  0  0  0  0
  184.7750  178.8740  143.7910 C   0  0  0  0  0  0  0  0  0  0  0  0
  183.5040  179.3790  144.3840 C   0  0  0  0  0  1  0  0  0  0  0  0
  187.1240  177.9700  142.6130 C   0  0  0  0  0  3  0  0  0  0  0  0
  187.7800  177.3100  146.1770 N   0  0  0  0  0  0  0  0  0  0  0  0
  184.9550  178.9530  142.4460 N   0  0  0  0  0  0  0  0  0  0  0  0
  186.0940  178.5140  141.8460 C   0  0  0  0  0  0  0  0  0  0  0  0
  185.7880  178.3310  144.6000 C   0  0  0  0  0  0  0  0  0  0  0  0
  190.7880  179.0440  143.7570 C   0  0  0  0  0  1  0  0  0  0  0  0
  190.4280  176.8940  145.1430 C   0  0  2  0  0  3  0  0  0  0  0  0
  191.2760  178.1520  144.8900 C   0  0  1  0  0  3  0  0  0  0  0  0
  191.6970  176.8190  144.3100 C   0  0  0  0  0  2  0  0  0  0  0  0
  189.2060  175.8610  143.2100 C   0  0  0  0  0  2  0  0  0  0  0  0
  189.8040  176.4100  142.0760 O   0  0  0  0  0  1  0  0  0  0  0  0
  186.2560  178.6470  140.3720 C   0  0  0  0  0  2  0  0  0  0  0  0
  187.6700  178.2730  139.9700 C   0  0  0  0  0  2  0  0  0  0  0  0
  187.7670  178.1890  138.4880 C   0  0  0  0  0  0  0  0  0  0  0  0
  186.8260  178.6340  137.7780 O   0  0  0  0  0  0  0  0  0  0  0  0
  188.9110  177.6470  137.9040 O   0  0  0  0  0  0  0  0  0  0  0  0
  189.5760  176.5240  138.4630 C   0  0  0  0  0  2  0  0  0  0  0  0
  190.9490  176.8790  138.7680 N   0  0  0  0  0  1  0  0  0  0  0  0
  1  9  1  0  0  0  0
  2 12  1  0  0  0  0
  2  1  2  0  0  0  0
  4  1  1  0  0  0  0
  5  3  1  0  0  0  0
  6  7  1  0  0  0  0
  6 12  1  0  0  0  0
  8  2  1  0  0  0  0
  9  3  2  0  0  0  0
 10  6  2  0  0  0  0
 11 10  1  0  0  0  0
 11  8  2  0  0  0  0
 12  5  2  0  0  0  0
 14  4  1  6  0  0  0
 15 13  1  6  0  0  0
 15 14  1  0  0  0  0
 16 15  1  0  0  0  0
 16 14  1  0  0  0  0
 17  4  1  0  0  0  0
 18 17  1  0  0  0  0
 19 11  1  0  0  0  0
 20 19  1  0  0  0  0
 21 20  1  0  0  0  0
 22 21  2  0  0  0  0
 23 24  1  0  0  0  0
 23 21  1  0  0  0  0
 24 25  1  0  0  0  0
M  END
>  <MODEL>
6

>  <REMARK>
 VINA RESULT:      -6.8      1.486      2.039
  Name = 
  7 active torsions:
  status: ('A' for Active; 'I' for Inactive)
    1  A    between atoms: O_2  and  C_7
    2  A    between atoms: O_2  and  C_21
    3  A    between atoms: N_5  and  C_10
    4  A    between atoms: N_5  and  C_17
    5  A    between atoms: C_6  and  C_15
    6  A    between atoms: C_6  and  C_23
    7  A    between atoms: C_15  and  C_21
                            x       y       z     vdW  Elec       q    Type
                         _______ _______ _______ _____ _____    ______ ____

>  <TORSDO>
F 7

$$$$
=
 OpenBabel10262419543D

 25 27  0  0  1  0  0  0  0  0999 V2000
  182.8550  178.7950  141.4720 C   0  0  0  0  0  0  0  0  0  0  0  0
  183.9280  178.5960  142.3660 C   0  0  0  0  0  0  0  0  0  0  0  0
  181.4050  179.1830  143.3150 C   0  0  0  0  0  3  0  0  0  0  0  0
  183.0180  178.6890  140.0430 N   0  0  0  0  0  0  0  0  0  0  0  0
  182.4280  179.0080  144.1890 N   0  0  0  0  0  0  0  0  0  0  0  0
  184.7330  178.5110  144.6570 C   0  0  0  0  0  0  0  0  0  0  0  0
  184.5170  178.6290  146.1270 C   0  0  0  0  0  1  0  0  0  0  0  0
  185.2130  178.2540  141.9310 C   0  0  0  0  0  3  0  0  0  0  0  0
  181.6210  179.0730  141.9800 N   0  0  0  0  0  0  0  0  0  0  0  0
  185.9710  178.1890  144.1940 N   0  0  0  0  0  0  0  0  0  0  0  0
  186.2310  178.0620  142.8650 C   0  0  0  0  0  0  0  0  0  0  0  0
  183.6800  178.7150  143.7490 C   0  0  0  0  0  0  0  0  0  0  0  0
  183.0530  175.9900  139.4640 C   0  0  0  0  0  1  0  0  0  0  0  0
  181.8690  178.2740  139.2310 C   0  0  2  0  0  3  0  0  0  0  0  0
  181.8460  176.7620  138.9490 C   0  0  1  0  0  3  0  0  0  0  0  0
  182.3090  177.7290  137.8820 C   0  0  0  0  0  2  0  0  0  0  0  0
  184.0870  179.4350  139.3870 C   0  0  0  0  0  2  0  0  0  0  0  0
  183.6440  180.7190  139.0690 O   0  0  0  0  0  1  0  0  0  0  0  0
  187.5950  177.6810  142.4090 C   0  0  0  0  0  2  0  0  0  0  0  0
  188.1090  176.5130  143.2300 C   0  0  0  0  0  2  0  0  0  0  0  0
  189.3710  176.8970  143.9160 C   0  0  0  0  0  0  0  0  0  0  0  0
  190.4590  176.3730  143.5570 O   0  0  0  0  0  0  0  0  0  0  0  0
  189.3380  177.8560  144.9290 O   0  0  0  0  0  0  0  0  0  0  0  0
  189.4390  177.5000  146.2990 C   0  0  0  0  0  2  0  0  0  0  0  0
  188.1170  177.4950  146.8960 N   0  0  0  0  0  1  0  0  0  0  0  0
  1  9  2  0  0  0  0
  1  2  1  0  0  0  0
  2 12  1  0  0  0  0
  3  5  2  0  0  0  0
  4  1  1  0  0  0  0
  6  7  1  0  0  0  0
  8  2  2  0  0  0  0
  8 11  1  0  0  0  0
  9  3  1  0  0  0  0
 10  6  1  0  0  0  0
 11 10  2  0  0  0  0
 12  5  1  0  0  0  0
 12  6  2  0  0  0  0
 14  4  1  1  0  0  0
 15 14  1  0  0  0  0
 15 13  1  1  0  0  0
 16 15  1  0  0  0  0
 16 14  1  0  0  0  0
 17  4  1  0  0  0  0
 18 17  1  0  0  0  0
 19 11  1  0  0  0  0
 19 20  1  0  0  0  0
 20 21  1  0  0  0  0
 21 23  1  0  0  0  0
 22 21  2  0  0  0  0
 23 24  1  0  0  0  0
 24 25  1  0  0  0  0
M  END
>  <MODEL>
7

>  <REMARK>
 VINA RESULT:      -6.6      2.785      7.134
  Name = 
  7 active torsions:
  status: ('A' for Active; 'I' for Inactive)
    1  A    between atoms: O_2  and  C_7
    2  A    between atoms: O_2  and  C_21
    3  A    between atoms: N_5  and  C_10
    4  A    between atoms: N_5  and  C_17
    5  A    between atoms: C_6  and  C_15
    6  A    between atoms: C_6  and  C_23
    7  A    between atoms: C_15  and  C_21
                            x       y       z     vdW  Elec       q    Type
                         _______ _______ _______ _____ _____    ______ ____

>  <TORSDO>
F 7

$$$$
=
 OpenBabel10262419543D

 25 27  0  0  1  0  0  0  0  0999 V2000
  182.8840  178.7490  141.5510 C   0  0  0  0  0  0  0  0  0  0  0  0
  184.0180  178.5250  142.3620 C   0  0  0  0  0  0  0  0  0  0  0  0
  181.5850  179.1600  143.4990 C   0  0  0  0  0  3  0  0  0  0  0  0
  182.9370  178.6450  140.1140 N   0  0  0  0  0  0  0  0  0  0  0  0
  182.6680  178.9620  144.2930 N   0  0  0  0  0  0  0  0  0  0  0  0
  184.9910  178.4170  144.5850 C   0  0  0  0  0  0  0  0  0  0  0  0
  184.8890  178.5350  146.0680 C   0  0  0  0  0  1  0  0  0  0  0  0
  185.2590  178.1600  141.8300 C   0  0  0  0  0  3  0  0  0  0  0  0
  181.6980  179.0500  142.1510 N   0  0  0  0  0  0  0  0  0  0  0  0
  186.1840  178.0730  144.0300 N   0  0  0  0  0  0  0  0  0  0  0  0
  186.3410  177.9440  142.6840 C   0  0  0  0  0  0  0  0  0  0  0  0
  183.8770  178.6450  143.7600 C   0  0  0  0  0  0  0  0  0  0  0  0
  182.9110  175.9620  139.4590 C   0  0  0  0  0  1  0  0  0  0  0  0
  181.7220  178.2550  139.3900 C   0  0  2  0  0  3  0  0  0  0  0  0
  181.6690  176.7510  139.0690 C   0  0  1  0  0  3  0  0  0  0  0  0
  182.0450  177.7470  137.9940 C   0  0  0  0  0  2  0  0  0  0  0  0
  183.9690  179.3720  139.3800 C   0  0  0  0  0  2  0  0  0  0  0  0
  183.4890  180.6260  139.0040 O   0  0  0  0  0  1  0  0  0  0  0  0
  187.6590  177.5380  142.1260 C   0  0  0  0  0  2  0  0  0  0  0  0
  188.3020  178.7110  141.4100 C   0  0  0  0  0  2  0  0  0  0  0  0
  188.4940  178.3780  139.9730 C   0  0  0  0  0  0  0  0  0  0  0  0
  187.5060  178.4030  139.1910 O   0  0  0  0  0  0  0  0  0  0  0  0
  189.7710  178.0720  139.5030 O   0  0  0  0  0  0  0  0  0  0  0  0
  190.5310  177.0030  140.0460 C   0  0  0  0  0  2  0  0  0  0  0  0
  190.6500  175.9450  139.0610 N   0  0  0  0  0  1  0  0  0  0  0  0
  1  9  2  0  0  0  0
  1  2  1  0  0  0  0
  2 12  1  0  0  0  0
  3  5  2  0  0  0  0
  4  1  1  0  0  0  0
  6  7  1  0  0  0  0
  8  2  2  0  0  0  0
  8 11  1  0  0  0  0
  9  3  1  0  0  0  0
 10  6  1  0  0  0  0
 11 10  2  0  0  0  0
 12  5  1  0  0  0  0
 12  6  2  0  0  0  0
 14  4  1  1  0  0  0
 15 14  1  0  0  0  0
 15 13  1  1  0  0  0
 16 15  1  0  0  0  0
 16 14  1  0  0  0  0
 17  4  1  0  0  0  0
 18 17  1  0  0  0  0
 19 11  1  0  0  0  0
 20 19  1  0  0  0  0
 21 20  1  0  0  0  0
 22 21  2  0  0  0  0
 23 21  1  0  0  0  0
 23 24  1  0  0  0  0
 25 24  1  0  0  0  0
M  END
>  <MODEL>
8

>  <REMARK>
 VINA RESULT:      -6.6      2.928      6.468
  Name = 
  7 active torsions:
  status: ('A' for Active; 'I' for Inactive)
    1  A    between atoms: O_2  and  C_7
    2  A    between atoms: O_2  and  C_21
    3  A    between atoms: N_5  and  C_10
    4  A    between atoms: N_5  and  C_17
    5  A    between atoms: C_6  and  C_15
    6  A    between atoms: C_6  and  C_23
    7  A    between atoms: C_15  and  C_21
                            x       y       z     vdW  Elec       q    Type
                         _______ _______ _______ _____ _____    ______ ____

>  <TORSDO>
F 7

$$$$
=
 OpenBabel10262419543D

 25 27  0  0  1  0  0  0  0  0999 V2000
  188.1540  177.4450  143.5790 C   0  0  0  0  0  0  0  0  0  0  0  0
  187.7190  177.8630  142.3030 C   0  0  0  0  0  0  0  0  0  0  0  0
  185.9770  177.8520  144.4430 C   0  0  0  0  0  3  0  0  0  0  0  0
  189.5100  177.0250  143.8270 N   0  0  0  0  0  0  0  0  0  0  0  0
  185.5370  178.2430  143.2200 N   0  0  0  0  0  0  0  0  0  0  0  0
  185.9250  178.6890  140.8890 C   0  0  0  0  0  0  0  0  0  0  0  0
  184.5120  179.1170  140.6800 C   0  0  0  0  0  1  0  0  0  0  0  0
  188.5790  177.9250  141.2010 C   0  0  0  0  0  3  0  0  0  0  0  0
  187.2660  177.4640  144.6130 N   0  0  0  0  0  0  0  0  0  0  0  0
  186.7890  178.7260  139.8400 N   0  0  0  0  0  0  0  0  0  0  0  0
  188.0910  178.3540  139.9670 C   0  0  0  0  0  0  0  0  0  0  0  0
  186.3750  178.2610  142.1490 C   0  0  0  0  0  0  0  0  0  0  0  0
  191.3800  179.0550  143.9100 C   0  0  0  0  0  1  0  0  0  0  0  0
  190.0740  177.2150  145.1680 C   0  0  2  0  0  3  0  0  0  0  0  0
  191.0750  178.3810  145.2400 C   0  0  1  0  0  3  0  0  0  0  0  0
  191.5710  176.9530  145.1850 C   0  0  0  0  0  2  0  0  0  0  0  0
  190.1150  176.0120  142.9670 C   0  0  0  0  0  2  0  0  0  0  0  0
  189.2900  174.8890  142.9040 O   0  0  0  0  0  1  0  0  0  0  0  0
  189.0060  178.4390  138.7960 C   0  0  0  0  0  2  0  0  0  0  0  0
  190.2350  177.5820  139.0360 C   0  0  0  0  0  2  0  0  0  0  0  0
  190.3370  176.5420  137.9770 C   0  0  0  0  0  0  0  0  0  0  0  0
  189.3360  175.8240  137.7120 O   0  0  0  0  0  0  0  0  0  0  0  0
  191.5310  176.3960  137.2700 O   0  0  0  0  0  0  0  0  0  0  0  0
  192.7510  176.0740  137.9210 C   0  0  0  0  0  2  0  0  0  0  0  0
  193.8480  176.7450  137.2510 N   0  0  0  0  0  1  0  0  0  0  0  0
  1  4  1  0  0  0  0
  1  9  1  0  0  0  0
  2  1  2  0  0  0  0
  3  9  2  0  0  0  0
  5  3  1  0  0  0  0
  6 12  1  0  0  0  0
  7  6  1  0  0  0  0
  8  2  1  0  0  0  0
 10 11  1  0  0  0  0
 10  6  2  0  0  0  0
 11  8  2  0  0  0  0
 12  2  1  0  0  0  0
 12  5  2  0  0  0  0
 14  4  1  6  0  0  0
 14 16  1  0  0  0  0
 14 15  1  0  0  0  0
 15 13  1  6  0  0  0
 16 15  1  0  0  0  0
 17  4  1  0  0  0  0
 18 17  1  0  0  0  0
 19 20  1  0  0  0  0
 19 11  1  0  0  0  0
 21 20  1  0  0  0  0
 22 21  2  0  0  0  0
 23 24  1  0  0  0  0
 23 21  1  0  0  0  0
 25 24  1  0  0  0  0
M  END
>  <MODEL>
9

>  <REMARK>
 VINA RESULT:      -6.5      2.536      4.085
  Name = 
  7 active torsions:
  status: ('A' for Active; 'I' for Inactive)
    1  A    between atoms: O_2  and  C_7
    2  A    between atoms: O_2  and  C_21
    3  A    between atoms: N_5  and  C_10
    4  A    between atoms: N_5  and  C_17
    5  A    between atoms: C_6  and  C_15
    6  A    between atoms: C_6  and  C_23
    7  A    between atoms: C_15  and  C_21
                            x       y       z     vdW  Elec       q    Type
                         _______ _______ _______ _____ _____    ______ ____

>  <TORSDO>
F 7

$$$$
