=
 OpenBabel10262422003D

 30 33  0  0  1  0  0  0  0  0999 V2000
  189.8150  176.6660  136.2160 C   0  0  0  0  0  0  0  0  0  0  0  0
  191.4380  174.9010  136.5040 C   0  0  0  0  0  3  0  0  0  0  0  0
  192.8960  177.4070  140.0400 C   0  0  0  0  0  2  0  0  0  0  0  0
  188.8130  176.4570  139.0560 C   0  0  0  0  0  2  0  0  0  0  0  0
  189.2580  177.8690  136.6550 O   0  0  0  0  0  0  0  0  0  0  0  0
  187.0250  177.5730  137.6500 C   0  0  2  0  0  3  0  0  0  0  0  0
  187.6930  179.6730  136.4940 C   0  0  0  0  0  1  0  0  0  0  0  0
  189.3960  177.7550  141.5820 C   0  0  2  0  0  3  0  0  0  0  0  0
  191.8080  177.4080  141.0550 C   0  0  0  0  0  0  0  0  0  0  0  0
  187.8720  178.1680  136.5060 C   0  0  1  0  0  3  0  0  0  0  0  0
  187.7460  177.4420  138.9230 N   0  0  0  0  0  0  0  0  0  0  0  0
  192.4810  174.1020  137.2010 C   0  0  0  0  0  2  0  0  0  0  0  0
  188.4260  178.8050  141.0070 C   0  0  0  0  0  2  0  0  0  0  0  0
  189.3790  176.1230  135.1640 O   0  0  0  0  0  0  0  0  0  0  0  0
  192.5330  176.5970  138.8310 C   0  0  0  0  0  0  0  0  0  0  0  0
  193.7010  174.9340  137.3760 C   0  0  0  0  0  3  0  0  0  0  0  0
  190.8880  176.0110  137.0130 C   0  0  0  0  0  0  0  0  0  0  0  0
  190.1380  177.1890  139.2030 C   0  0  1  0  0  3  0  0  0  0  0  0
  192.1000  177.5020  142.2770 O   0  0  0  0  0  0  0  0  0  0  0  0
  190.4450  177.3700  140.6290 N   0  0  0  0  0  0  0  0  0  0  0  0
  186.2170  178.7180  140.1350 O   0  0  0  0  0  0  0  0  0  0  0  0
  193.7040  176.0390  138.1180 C   0  0  0  0  0  3  0  0  0  0  0  0
  191.2460  176.5320  138.3840 C   0  0  0  0  0  0  0  0  0  0  0  0
  187.3980  178.2950  140.0270 C   0  0  0  0  0  0  0  0  0  0  0  0
  186.2770  176.3010  137.2570 C   0  0  0  0  0  2  0  0  0  0  0  0
  184.3400  177.3410  137.4340 C   0  0  0  0  0  1  0  0  0  0  0  0
  185.1120  176.5930  136.5470 O   0  0  0  0  0  0  0  0  0  0  0  0
  188.7010  176.5330  142.1790 C   0  0  0  0  0  2  0  0  0  0  0  0
  189.0890  177.4790  144.4530 C   0  0  0  0  0  1  0  0  0  0  0  0
  188.0660  176.8590  143.5210 C   0  0  0  0  0  2  0  0  0  0  0  0
  1  5  1  0  0  0  0
  1 17  1  0  0  0  0
  2 17  2  0  0  0  0
  2 12  1  0  0  0  0
  3  9  1  0  0  0  0
  6 25  1  6  0  0  0
  6 11  1  0  0  0  0
  8 28  1  6  0  0  0
  9 19  2  0  0  0  0
 10  7  1  1  0  0  0
 10  5  1  0  0  0  0
 10  6  1  0  0  0  0
 11  4  1  0  0  0  0
 11 24  1  0  0  0  0
 12 16  1  0  0  0  0
 13  8  1  0  0  0  0
 14  1  2  0  0  0  0
 15  3  1  0  0  0  0
 16 22  2  0  0  0  0
 17 23  1  0  0  0  0
 18  4  1  1  0  0  0
 18 20  1  0  0  0  0
 20  9  1  0  0  0  0
 20  8  1  0  0  0  0
 22 15  1  0  0  0  0
 23 15  2  0  0  0  0
 23 18  1  0  0  0  0
 24 21  2  0  0  0  0
 24 13  1  0  0  0  0
 27 25  1  0  0  0  0
 27 26  1  0  0  0  0
 28 30  1  0  0  0  0
 30 29  1  0  0  0  0
M  END
>  <MODEL>
1

>  <REMARK>
 VINA RESULT:      -6.1      0.000      0.000
  Name = 
  4 active torsions:
  status: ('A' for Active; 'I' for Inactive)
    1  A    between atoms: C_6  and  C_8
    2  A    between atoms: C_6  and  O_21
    3  A    between atoms: C_7  and  C_10
    4  A    between atoms: C_7  and  C_26
                            x       y       z     vdW  Elec       q    Type
                         _______ _______ _______ _____ _____    ______ ____

>  <TORSDO>
F 4

$$$$
=
 OpenBabel10262422003D

 30 33  0  0  1  0  0  0  0  0999 V2000
  181.9010  174.0320  137.1680 C   0  0  0  0  0  0  0  0  0  0  0  0
  184.1070  173.0610  137.2950 C   0  0  0  0  0  3  0  0  0  0  0  0
  185.5540  177.3950  137.0990 C   0  0  0  0  0  2  0  0  0  0  0  0
  182.3620  175.8450  139.5370 C   0  0  0  0  0  2  0  0  0  0  0  0
  181.0890  175.1670  137.1120 O   0  0  0  0  0  0  0  0  0  0  0  0
  179.8650  175.5600  139.2130 C   0  0  2  0  0  3  0  0  0  0  0  0
  178.9610  176.2570  137.0030 C   0  0  0  0  0  1  0  0  0  0  0  0
  183.2570  178.5720  139.9430 C   0  0  2  0  0  3  0  0  0  0  0  0
  185.1080  178.0630  138.3500 C   0  0  0  0  0  0  0  0  0  0  0  0
  179.7960  175.2110  137.7120 C   0  0  1  0  0  3  0  0  0  0  0  0
  181.0140  176.3990  139.5800 N   0  0  0  0  0  0  0  0  0  0  0  0
  185.5820  173.0360  137.4920 C   0  0  0  0  0  2  0  0  0  0  0  0
  181.7770  178.8640  139.6360 C   0  0  0  0  0  2  0  0  0  0  0  0
  181.3750  172.8860  137.1180 O   0  0  0  0  0  0  0  0  0  0  0  0
  185.1460  175.9520  137.0570 C   0  0  0  0  0  0  0  0  0  0  0  0
  186.2360  173.8020  136.3990 C   0  0  0  0  0  3  0  0  0  0  0  0
  183.3730  174.1800  137.3270 C   0  0  0  0  0  0  0  0  0  0  0  0
  183.1330  176.5260  138.4180 C   0  0  1  0  0  3  0  0  0  0  0  0
  185.7940  179.0060  138.8290 O   0  0  0  0  0  0  0  0  0  0  0  0
  183.8740  177.6740  138.9570 N   0  0  0  0  0  0  0  0  0  0  0  0
  179.7160  178.0880  140.5280 O   0  0  0  0  0  0  0  0  0  0  0  0
  186.0360  175.1070  136.2310 C   0  0  0  0  0  3  0  0  0  0  0  0
  183.9760  175.5330  137.6210 C   0  0  0  0  0  0  0  0  0  0  0  0
  180.7980  177.7650  139.9720 C   0  0  0  0  0  0  0  0  0  0  0  0
  179.6960  174.3500  140.1300 C   0  0  0  0  0  2  0  0  0  0  0  0
  179.1630  173.5490  142.1150 C   0  0  0  0  0  1  0  0  0  0  0  0
  179.1140  174.7100  141.3460 O   0  0  0  0  0  0  0  0  0  0  0  0
  183.5110  178.0980  141.3720 C   0  0  0  0  0  2  0  0  0  0  0  0
  184.6440  178.6450  143.5250 C   0  0  0  0  0  1  0  0  0  0  0  0
  184.6230  178.9000  142.0300 C   0  0  0  0  0  2  0  0  0  0  0  0
  1 17  1  0  0  0  0
  2 17  2  0  0  0  0
  2 12  1  0  0  0  0
  3  9  1  0  0  0  0
  4 11  1  0  0  0  0
  5  1  1  0  0  0  0
  5 10  1  0  0  0  0
  6 11  1  0  0  0  0
  6 25  1  1  0  0  0
  8 28  1  1  0  0  0
  9 19  2  0  0  0  0
  9 20  1  0  0  0  0
 10  7  1  6  0  0  0
 10  6  1  0  0  0  0
 11 24  1  0  0  0  0
 13  8  1  0  0  0  0
 13 24  1  0  0  0  0
 14  1  2  0  0  0  0
 15  3  1  0  0  0  0
 15 23  2  0  0  0  0
 16 12  1  0  0  0  0
 17 23  1  0  0  0  0
 18 20  1  0  0  0  0
 18  4  1  1  0  0  0
 20  8  1  0  0  0  0
 22 16  2  0  0  0  0
 22 15  1  0  0  0  0
 23 18  1  0  0  0  0
 24 21  2  0  0  0  0
 25 27  1  0  0  0  0
 27 26  1  0  0  0  0
 28 30  1  0  0  0  0
 30 29  1  0  0  0  0
M  END
>  <MODEL>
2

>  <REMARK>
 VINA RESULT:      -5.9      5.106      7.358
  Name = 
  4 active torsions:
  status: ('A' for Active; 'I' for Inactive)
    1  A    between atoms: C_6  and  C_8
    2  A    between atoms: C_6  and  O_21
    3  A    between atoms: C_7  and  C_10
    4  A    between atoms: C_7  and  C_26
                            x       y       z     vdW  Elec       q    Type
                         _______ _______ _______ _____ _____    ______ ____

>  <TORSDO>
F 4

$$$$
=
 OpenBabel10262422003D

 30 33  0  0  1  0  0  0  0  0999 V2000
  183.5560  178.3970  142.3770 C   0  0  0  0  0  0  0  0  0  0  0  0
  184.5790  179.4070  144.3170 C   0  0  0  0  0  3  0  0  0  0  0  0
  188.0520  176.5670  143.4280 C   0  0  0  0  0  2  0  0  0  0  0  0
  185.9140  179.0000  140.5910 C   0  0  0  0  0  2  0  0  0  0  0  0
  183.6330  177.5030  141.3070 O   0  0  0  0  0  0  0  0  0  0  0  0
  183.8710  178.6430  139.1370 C   0  0  2  0  0  3  0  0  0  0  0  0
  182.7430  176.4370  139.3580 C   0  0  0  0  0  1  0  0  0  0  0  0
  188.3060  177.6020  139.7390 C   0  0  2  0  0  3  0  0  0  0  0  0
  188.6460  176.9920  142.1330 C   0  0  0  0  0  0  0  0  0  0  0  0
  183.0020  177.7570  140.0530 C   0  0  1  0  0  3  0  0  0  0  0  0
  185.3160  178.4990  139.3600 N   0  0  0  0  0  0  0  0  0  0  0  0
  185.6750  179.7510  145.2620 C   0  0  0  0  0  2  0  0  0  0  0  0
  187.3180  176.9990  138.7230 C   0  0  0  0  0  2  0  0  0  0  0  0
  182.4970  179.0560  142.5650 O   0  0  0  0  0  0  0  0  0  0  0  0
  186.9030  177.4430  143.8330 C   0  0  0  0  0  0  0  0  0  0  0  0
  186.1320  178.5170  145.9530 C   0  0  0  0  0  3  0  0  0  0  0  0
  184.7360  178.5980  143.2610 C   0  0  0  0  0  0  0  0  0  0  0  0
  186.3930  177.8180  141.4190 C   0  0  1  0  0  3  0  0  0  0  0  0
  189.8740  176.8060  141.9230 O   0  0  0  0  0  0  0  0  0  0  0  0
  187.8050  177.5470  141.1190 N   0  0  0  0  0  0  0  0  0  0  0  0
  185.7900  177.9190  137.1520 O   0  0  0  0  0  0  0  0  0  0  0  0
  186.6890  177.5030  145.2960 C   0  0  0  0  0  3  0  0  0  0  0  0
  186.0710  177.9920  142.9010 C   0  0  0  0  0  0  0  0  0  0  0  0
  186.1290  177.8550  138.3640 C   0  0  0  0  0  0  0  0  0  0  0  0
  183.4200  180.1010  139.0890 C   0  0  0  0  0  2  0  0  0  0  0  0
  181.7320  181.3100  138.3430 C   0  0  0  0  0  1  0  0  0  0  0  0
  182.0290  180.2050  139.1390 O   0  0  0  0  0  0  0  0  0  0  0  0
  188.7930  179.0030  139.3730 C   0  0  0  0  0  2  0  0  0  0  0  0
  190.1800  177.7330  137.7360 C   0  0  0  0  0  1  0  0  0  0  0  0
  189.4260  179.0240  137.9910 C   0  0  0  0  0  2  0  0  0  0  0  0
  1 14  2  0  0  0  0
  1 17  1  0  0  0  0
  2 12  1  0  0  0  0
  3 15  1  0  0  0  0
  5  1  1  0  0  0  0
  6 25  1  1  0  0  0
  6 11  1  0  0  0  0
  6 10  1  0  0  0  0
  8 28  1  6  0  0  0
  8 20  1  0  0  0  0
  9  3  1  0  0  0  0
 10  7  1  6  0  0  0
 10  5  1  0  0  0  0
 11  4  1  0  0  0  0
 12 16  1  0  0  0  0
 13  8  1  0  0  0  0
 15 22  1  0  0  0  0
 17  2  2  0  0  0  0
 18  4  1  6  0  0  0
 18 23  1  0  0  0  0
 19  9  2  0  0  0  0
 20 18  1  0  0  0  0
 20  9  1  0  0  0  0
 21 24  2  0  0  0  0
 22 16  2  0  0  0  0
 23 17  1  0  0  0  0
 23 15  2  0  0  0  0
 24 13  1  0  0  0  0
 24 11  1  0  0  0  0
 25 27  1  0  0  0  0
 26 27  1  0  0  0  0
 29 30  1  0  0  0  0
 30 28  1  0  0  0  0
M  END
>  <MODEL>
3

>  <REMARK>
 VINA RESULT:      -5.7      2.846      6.718
  Name = 
  4 active torsions:
  status: ('A' for Active; 'I' for Inactive)
    1  A    between atoms: C_6  and  C_8
    2  A    between atoms: C_6  and  O_21
    3  A    between atoms: C_7  and  C_10
    4  A    between atoms: C_7  and  C_26
                            x       y       z     vdW  Elec       q    Type
                         _______ _______ _______ _____ _____    ______ ____

>  <TORSDO>
F 4

$$$$
=
 OpenBabel10262422003D

 30 33  0  0  1  0  0  0  0  0999 V2000
  192.5090  176.8670  138.7150 C   0  0  0  0  0  0  0  0  0  0  0  0
  191.0840  177.1070  140.6500 C   0  0  0  0  0  3  0  0  0  0  0  0
  187.6790  177.1610  137.5980 C   0  0  0  0  0  2  0  0  0  0  0  0
  191.0210  174.4480  137.6910 C   0  0  0  0  0  2  0  0  0  0  0  0
  192.6430  176.7270  137.3320 O   0  0  0  0  0  0  0  0  0  0  0  0
  193.3400  174.4600  136.6720 C   0  0  2  0  0  3  0  0  0  0  0  0
  193.9380  176.4710  135.3360 C   0  0  0  0  0  1  0  0  0  0  0  0
  188.8500  173.9580  135.8340 C   0  0  2  0  0  3  0  0  0  0  0  0
  187.6320  175.8150  136.9690 C   0  0  0  0  0  0  0  0  0  0  0  0
  193.6890  175.9610  136.7400 C   0  0  1  0  0  3  0  0  0  0  0  0
  191.9010  174.1850  136.5600 N   0  0  0  0  0  0  0  0  0  0  0  0
  189.8110  177.1080  141.4190 C   0  0  0  0  0  2  0  0  0  0  0  0
  190.0030  174.0430  134.8160 C   0  0  0  0  0  2  0  0  0  0  0  0
  193.5400  176.9340  139.4390 O   0  0  0  0  0  0  0  0  0  0  0  0
  188.7580  177.2580  138.6360 C   0  0  0  0  0  0  0  0  0  0  0  0
  188.9470  178.2170  140.9360 C   0  0  0  0  0  3  0  0  0  0  0  0
  191.1540  176.8930  139.3300 C   0  0  0  0  0  0  0  0  0  0  0  0
  190.1000  175.6040  137.3350 C   0  0  1  0  0  3  0  0  0  0  0  0
  186.5320  175.3600  136.5560 O   0  0  0  0  0  0  0  0  0  0  0  0
  188.8440  175.0810  136.7800 N   0  0  0  0  0  0  0  0  0  0  0  0
  192.1000  172.9470  134.5940 O   0  0  0  0  0  0  0  0  0  0  0  0
  188.4780  178.2570  139.6910 C   0  0  0  0  0  3  0  0  0  0  0  0
  189.9330  176.5790  138.4990 C   0  0  0  0  0  0  0  0  0  0  0  0
  191.3710  173.6650  135.3280 C   0  0  0  0  0  0  0  0  0  0  0  0
  194.0220  173.6240  137.7520 C   0  0  0  0  0  2  0  0  0  0  0  0
  196.1130  173.3690  138.4070 C   0  0  0  0  0  1  0  0  0  0  0  0
  195.0900  174.3120  138.3300 O   0  0  0  0  0  0  0  0  0  0  0  0
  188.7590  172.6140  136.5550 C   0  0  0  0  0  2  0  0  0  0  0  0
  187.9950  170.6130  135.2790 C   0  0  0  0  0  1  0  0  0  0  0  0
  187.5520  171.8170  136.0880 C   0  0  0  0  0  2  0  0  0  0  0  0
  1 17  1  0  0  0  0
  1 14  2  0  0  0  0
  2 12  1  0  0  0  0
  3 15  1  0  0  0  0
  5  1  1  0  0  0  0
  6 10  1  0  0  0  0
  6 25  1  1  0  0  0
  8 28  1  1  0  0  0
  8 20  1  0  0  0  0
  9  3  1  0  0  0  0
 10  7  1  6  0  0  0
 10  5  1  0  0  0  0
 11  6  1  0  0  0  0
 11  4  1  0  0  0  0
 13 24  1  0  0  0  0
 13  8  1  0  0  0  0
 15 22  1  0  0  0  0
 16 12  1  0  0  0  0
 17  2  2  0  0  0  0
 18  4  1  1  0  0  0
 18 23  1  0  0  0  0
 19  9  2  0  0  0  0
 20  9  1  0  0  0  0
 20 18  1  0  0  0  0
 21 24  2  0  0  0  0
 22 16  2  0  0  0  0
 23 15  2  0  0  0  0
 23 17  1  0  0  0  0
 24 11  1  0  0  0  0
 25 27  1  0  0  0  0
 27 26  1  0  0  0  0
 29 30  1  0  0  0  0
 30 28  1  0  0  0  0
M  END
>  <MODEL>
4

>  <REMARK>
 VINA RESULT:      -5.7      2.802      6.913
  Name = 
  4 active torsions:
  status: ('A' for Active; 'I' for Inactive)
    1  A    between atoms: C_6  and  C_8
    2  A    between atoms: C_6  and  O_21
    3  A    between atoms: C_7  and  C_10
    4  A    between atoms: C_7  and  C_26
                            x       y       z     vdW  Elec       q    Type
                         _______ _______ _______ _____ _____    ______ ____

>  <TORSDO>
F 4

$$$$
=
 OpenBabel10262422003D

 30 33  0  0  1  0  0  0  0  0999 V2000
  184.1130  179.5850  139.8100 C   0  0  0  0  0  0  0  0  0  0  0  0
  185.3860  178.6210  141.6210 C   0  0  0  0  0  3  0  0  0  0  0  0
  181.4740  178.9460  143.9690 C   0  0  0  0  0  2  0  0  0  0  0  0
  181.9620  177.4720  139.9520 C   0  0  0  0  0  2  0  0  0  0  0  0
  182.8950  180.0570  139.3150 O   0  0  0  0  0  0  0  0  0  0  0  0
  181.8950  178.5380  137.6550 C   0  0  2  0  0  3  0  0  0  0  0  0
  181.5160  180.9960  137.5990 C   0  0  0  0  0  1  0  0  0  0  0  0
  179.3930  177.1860  141.2640 C   0  0  2  0  0  3  0  0  0  0  0  0
  180.5050  178.0110  143.3370 C   0  0  0  0  0  0  0  0  0  0  0  0
  182.5220  179.9170  137.9470 C   0  0  1  0  0  3  0  0  0  0  0  0
  181.1990  177.9420  138.8030 N   0  0  0  0  0  0  0  0  0  0  0  0
  185.6110  177.9590  142.9340 C   0  0  0  0  0  2  0  0  0  0  0  0
  178.9310  177.9900  140.0340 C   0  0  0  0  0  2  0  0  0  0  0  0
  185.1440  179.6400  139.0850 O   0  0  0  0  0  0  0  0  0  0  0  0
  182.8100  178.9140  143.2860 C   0  0  0  0  0  0  0  0  0  0  0  0
  185.1960  178.8790  144.0250 C   0  0  0  0  0  3  0  0  0  0  0  0
  184.1780  178.9840  141.1700 C   0  0  0  0  0  0  0  0  0  0  0  0
  181.6550  178.3670  141.1420 C   0  0  1  0  0  3  0  0  0  0  0  0
  179.6110  177.4730  144.0440 O   0  0  0  0  0  0  0  0  0  0  0  0
  180.5580  177.7840  141.9270 N   0  0  0  0  0  0  0  0  0  0  0  0
  179.1650  177.7080  137.6860 O   0  0  0  0  0  0  0  0  0  0  0  0
  183.9370  179.2840  144.1700 C   0  0  0  0  0  3  0  0  0  0  0  0
  182.9110  178.7040  141.9420 C   0  0  0  0  0  0  0  0  0  0  0  0
  179.7650  177.8360  138.7860 C   0  0  0  0  0  0  0  0  0  0  0  0
  182.8530  177.5650  136.9710 C   0  0  0  0  0  2  0  0  0  0  0  0
  182.4120  175.4430  136.5600 C   0  0  0  0  0  1  0  0  0  0  0  0
  182.1790  176.7290  136.0790 O   0  0  0  0  0  0  0  0  0  0  0  0
  179.6050  175.6990  140.9860 C   0  0  0  0  0  2  0  0  0  0  0  0
  179.3310  173.3780  141.8560 C   0  0  0  0  0  1  0  0  0  0  0  0
  178.9980  174.8400  142.0840 C   0  0  0  0  0  2  0  0  0  0  0  0
  1 17  1  0  0  0  0
  2 12  1  0  0  0  0
  5  1  1  0  0  0  0
  6 25  1  1  0  0  0
  6 10  1  0  0  0  0
  6 11  1  0  0  0  0
  8 28  1  6  0  0  0
  8 20  1  0  0  0  0
  9  3  1  0  0  0  0
  9 19  2  0  0  0  0
 10  7  1  1  0  0  0
 10  5  1  0  0  0  0
 11  4  1  0  0  0  0
 12 16  1  0  0  0  0
 13  8  1  0  0  0  0
 14  1  2  0  0  0  0
 15  3  1  0  0  0  0
 15 22  1  0  0  0  0
 16 22  2  0  0  0  0
 17  2  2  0  0  0  0
 17 23  1  0  0  0  0
 18  4  1  6  0  0  0
 18 20  1  0  0  0  0
 18 23  1  0  0  0  0
 20  9  1  0  0  0  0
 21 24  2  0  0  0  0
 23 15  2  0  0  0  0
 24 11  1  0  0  0  0
 24 13  1  0  0  0  0
 27 26  1  0  0  0  0
 27 25  1  0  0  0  0
 28 30  1  0  0  0  0
 29 30  1  0  0  0  0
M  END
>  <MODEL>
5

>  <REMARK>
 VINA RESULT:      -5.6      6.221      8.792
  Name = 
  4 active torsions:
  status: ('A' for Active; 'I' for Inactive)
    1  A    between atoms: C_6  and  C_8
    2  A    between atoms: C_6  and  O_21
    3  A    between atoms: C_7  and  C_10
    4  A    between atoms: C_7  and  C_26
                            x       y       z     vdW  Elec       q    Type
                         _______ _______ _______ _____ _____    ______ ____

>  <TORSDO>
F 4

$$$$
=
 OpenBabel10262422003D

 30 33  0  0  1  0  0  0  0  0999 V2000
  182.0240  176.7680  138.9000 C   0  0  0  0  0  0  0  0  0  0  0  0
  183.7470  176.7230  137.2100 C   0  0  0  0  0  3  0  0  0  0  0  0
  180.8660  179.3470  134.8170 C   0  0  0  0  0  2  0  0  0  0  0  0
  181.9150  179.7840  138.9700 C   0  0  0  0  0  2  0  0  0  0  0  0
  180.7790  177.2280  139.3340 O   0  0  0  0  0  0  0  0  0  0  0  0
  180.9610  178.8910  141.1400 C   0  0  2  0  0  3  0  0  0  0  0  0
  179.0030  177.3710  140.9320 C   0  0  0  0  0  1  0  0  0  0  0  0
  180.3450  181.8520  137.6810 C   0  0  2  0  0  3  0  0  0  0  0  0
  180.7510  180.6420  135.5380 C   0  0  0  0  0  0  0  0  0  0  0  0
  180.4970  177.4850  140.7080 C   0  0  1  0  0  3  0  0  0  0  0  0
  180.9500  179.8840  140.0580 N   0  0  0  0  0  0  0  0  0  0  0  0
  184.4650  177.1430  135.9760 C   0  0  0  0  0  2  0  0  0  0  0  0
  179.3650  181.4980  138.8150 C   0  0  0  0  0  2  0  0  0  0  0  0
  182.6790  175.9660  139.6210 O   0  0  0  0  0  0  0  0  0  0  0  0
  181.8050  178.4020  135.5070 C   0  0  0  0  0  0  0  0  0  0  0  0
  183.6200  176.8410  134.7900 C   0  0  0  0  0  3  0  0  0  0  0  0
  182.5870  177.2570  137.6120 C   0  0  0  0  0  0  0  0  0  0  0  0
  181.1730  179.4340  137.6900 C   0  0  1  0  0  3  0  0  0  0  0  0
  180.5230  181.6970  134.8870 O   0  0  0  0  0  0  0  0  0  0  0  0
  180.8350  180.6670  136.9650 N   0  0  0  0  0  0  0  0  0  0  0  0
  179.5470  181.3700  141.1810 O   0  0  0  0  0  0  0  0  0  0  0  0
  182.4400  177.4250  134.5950 C   0  0  0  0  0  3  0  0  0  0  0  0
  181.9180  178.3860  136.8670 C   0  0  0  0  0  0  0  0  0  0  0  0
  179.9800  180.9460  140.0770 C   0  0  0  0  0  0  0  0  0  0  0  0
  182.2680  178.8870  141.9300 C   0  0  0  0  0  2  0  0  0  0  0  0
  183.1770  178.8400  143.9390 C   0  0  0  0  0  1  0  0  0  0  0  0
  182.0720  179.3230  143.2410 O   0  0  0  0  0  0  0  0  0  0  0  0
  181.4940  182.7610  138.1160 C   0  0  0  0  0  2  0  0  0  0  0  0
  180.2790  184.8380  137.4610 C   0  0  0  0  0  1  0  0  0  0  0  0
  181.5470  184.0250  137.2740 C   0  0  0  0  0  2  0  0  0  0  0  0
  1  5  1  0  0  0  0
  1 14  2  0  0  0  0
  2 17  2  0  0  0  0
  3 15  1  0  0  0  0
  3  9  1  0  0  0  0
  4 11  1  0  0  0  0
  5 10  1  0  0  0  0
  6 25  1  6  0  0  0
  8 28  1  1  0  0  0
  8 13  1  0  0  0  0
  9 20  1  0  0  0  0
 10  7  1  6  0  0  0
 10  6  1  0  0  0  0
 11 24  1  0  0  0  0
 11  6  1  0  0  0  0
 12  2  1  0  0  0  0
 13 24  1  0  0  0  0
 15 23  2  0  0  0  0
 16 12  1  0  0  0  0
 17  1  1  0  0  0  0
 18  4  1  1  0  0  0
 19  9  2  0  0  0  0
 20  8  1  0  0  0  0
 20 18  1  0  0  0  0
 22 16  2  0  0  0  0
 22 15  1  0  0  0  0
 23 17  1  0  0  0  0
 23 18  1  0  0  0  0
 24 21  2  0  0  0  0
 25 27  1  0  0  0  0
 27 26  1  0  0  0  0
 30 29  1  0  0  0  0
 30 28  1  0  0  0  0
M  END
>  <MODEL>
6

>  <REMARK>
 VINA RESULT:      -5.4      6.855      9.793
  Name = 
  4 active torsions:
  status: ('A' for Active; 'I' for Inactive)
    1  A    between atoms: C_6  and  C_8
    2  A    between atoms: C_6  and  O_21
    3  A    between atoms: C_7  and  C_10
    4  A    between atoms: C_7  and  C_26
                            x       y       z     vdW  Elec       q    Type
                         _______ _______ _______ _____ _____    ______ ____

>  <TORSDO>
F 4

$$$$
=
 OpenBabel10262422003D

 30 33  0  0  1  0  0  0  0  0999 V2000
  189.0000  177.8490  145.3980 C   0  0  0  0  0  0  0  0  0  0  0  0
  186.7660  177.1430  145.9820 C   0  0  0  0  0  3  0  0  0  0  0  0
  185.4800  179.8030  142.4920 C   0  0  0  0  0  2  0  0  0  0  0  0
  188.7240  176.9720  142.5230 C   0  0  0  0  0  2  0  0  0  0  0  0
  189.8520  178.5680  144.5570 O   0  0  0  0  0  0  0  0  0  0  0  0
  191.1890  177.1110  143.0910 C   0  0  2  0  0  3  0  0  0  0  0  0
  192.0120  179.3280  143.8620 C   0  0  0  0  0  1  0  0  0  0  0  0
  187.9540  178.2170  140.0200 C   0  0  2  0  0  3  0  0  0  0  0  0
  186.0110  179.1830  141.2490 C   0  0  0  0  0  0  0  0  0  0  0  0
  191.1720  178.1280  144.2500 C   0  0  1  0  0  3  0  0  0  0  0  0
  190.0920  177.2820  142.1280 N   0  0  0  0  0  0  0  0  0  0  0  0
  185.3040  176.9440  145.8000 C   0  0  0  0  0  2  0  0  0  0  0  0
  189.4280  178.6610  140.0490 C   0  0  0  0  0  2  0  0  0  0  0  0
  189.4780  177.2300  146.3890 O   0  0  0  0  0  0  0  0  0  0  0  0
  185.8300  179.0030  143.7120 C   0  0  0  0  0  0  0  0  0  0  0  0
  184.6270  178.2680  145.7750 C   0  0  0  0  0  3  0  0  0  0  0  0
  187.5440  177.7810  145.0990 C   0  0  0  0  0  0  0  0  0  0  0  0
  187.9260  178.2660  142.5750 C   0  0  1  0  0  3  0  0  0  0  0  0
  185.3850  179.3320  140.1650 O   0  0  0  0  0  0  0  0  0  0  0  0
  187.2570  178.4840  141.2850 N   0  0  0  0  0  0  0  0  0  0  0  0
  191.4990  177.5170  140.2830 O   0  0  0  0  0  0  0  0  0  0  0  0
  184.8690  179.1680  144.8250 C   0  0  0  0  0  3  0  0  0  0  0  0
  187.0080  178.3210  143.7940 C   0  0  0  0  0  0  0  0  0  0  0  0
  190.3790  177.7640  140.8040 C   0  0  0  0  0  0  0  0  0  0  0  0
  191.3550  175.6640  143.5500 C   0  0  0  0  0  2  0  0  0  0  0  0
  192.3500  174.2640  144.9350 C   0  0  0  0  0  1  0  0  0  0  0  0
  191.9560  175.5950  144.8080 O   0  0  0  0  0  0  0  0  0  0  0  0
  187.7510  176.7750  139.5590 C   0  0  0  0  0  2  0  0  0  0  0  0
  186.9380  177.6820  137.3830 C   0  0  0  0  0  1  0  0  0  0  0  0
  187.8430  176.6610  138.0460 C   0  0  0  0  0  2  0  0  0  0  0  0
  1 14  2  0  0  0  0
  3 15  1  0  0  0  0
  5  1  1  0  0  0  0
  6 25  1  1  0  0  0
  6 10  1  0  0  0  0
  8 28  1  1  0  0  0
  8 13  1  0  0  0  0
  8 20  1  0  0  0  0
  9 20  1  0  0  0  0
  9  3  1  0  0  0  0
 10  7  1  6  0  0  0
 10  5  1  0  0  0  0
 11  4  1  0  0  0  0
 11  6  1  0  0  0  0
 12  2  1  0  0  0  0
 13 24  1  0  0  0  0
 15 23  2  0  0  0  0
 15 22  1  0  0  0  0
 16 12  1  0  0  0  0
 17  1  1  0  0  0  0
 17  2  2  0  0  0  0
 18  4  1  6  0  0  0
 18 23  1  0  0  0  0
 19  9  2  0  0  0  0
 20 18  1  0  0  0  0
 21 24  2  0  0  0  0
 22 16  2  0  0  0  0
 23 17  1  0  0  0  0
 24 11  1  0  0  0  0
 25 27  1  0  0  0  0
 27 26  1  0  0  0  0
 29 30  1  0  0  0  0
 30 28  1  0  0  0  0
M  END
>  <MODEL>
7

>  <REMARK>
 VINA RESULT:      -5.4      2.932      7.924
  Name = 
  4 active torsions:
  status: ('A' for Active; 'I' for Inactive)
    1  A    between atoms: C_6  and  C_8
    2  A    between atoms: C_6  and  O_21
    3  A    between atoms: C_7  and  C_10
    4  A    between atoms: C_7  and  C_26
                            x       y       z     vdW  Elec       q    Type
                         _______ _______ _______ _____ _____    ______ ____

>  <TORSDO>
F 4

$$$$
=
 OpenBabel10262422003D

 30 33  0  0  1  0  0  0  0  0999 V2000
  187.5200  178.2490  137.6930 C   0  0  0  0  0  0  0  0  0  0  0  0
  185.8790  178.5530  139.4380 C   0  0  0  0  0  3  0  0  0  0  0  0
  182.9290  176.9090  136.3530 C   0  0  0  0  0  2  0  0  0  0  0  0
  186.8260  175.3380  137.2940 C   0  0  0  0  0  2  0  0  0  0  0  0
  187.8360  177.8170  136.4040 O   0  0  0  0  0  0  0  0  0  0  0  0
  189.1610  175.7410  136.3980 C   0  0  2  0  0  3  0  0  0  0  0  0
  189.3640  177.4460  134.5980 C   0  0  0  0  0  1  0  0  0  0  0  0
  185.0710  173.8240  135.5530 C   0  0  2  0  0  3  0  0  0  0  0  0
  183.3000  175.4910  136.1040 C   0  0  0  0  0  0  0  0  0  0  0  0
  189.1020  177.2490  136.0780 C   0  0  1  0  0  3  0  0  0  0  0  0
  187.8630  175.0590  136.3080 N   0  0  0  0  0  0  0  0  0  0  0  0
  184.5720  178.3910  140.1300 C   0  0  0  0  0  2  0  0  0  0  0  0
  186.2670  173.9730  134.5940 C   0  0  0  0  0  2  0  0  0  0  0  0
  188.4140  178.7750  138.4120 O   0  0  0  0  0  0  0  0  0  0  0  0
  183.8260  177.5540  137.3690 C   0  0  0  0  0  0  0  0  0  0  0  0
  183.5100  179.0620  139.3350 C   0  0  0  0  0  3  0  0  0  0  0  0
  186.1450  178.0490  138.2260 C   0  0  0  0  0  0  0  0  0  0  0  0
  185.6830  176.0700  136.6080 C   0  0  1  0  0  3  0  0  0  0  0  0
  182.4060  174.6620  135.7860 O   0  0  0  0  0  0  0  0  0  0  0  0
  184.6730  175.0990  136.1650 N   0  0  0  0  0  0  0  0  0  0  0  0
  188.5870  173.4810  134.7520 O   0  0  0  0  0  0  0  0  0  0  0  0
  183.1850  178.6640  138.1080 C   0  0  0  0  0  3  0  0  0  0  0  0
  185.1450  177.2150  137.4620 C   0  0  0  0  0  0  0  0  0  0  0  0
  187.6220  174.1270  135.2410 C   0  0  0  0  0  0  0  0  0  0  0  0
  189.9130  175.4190  137.6880 C   0  0  0  0  0  2  0  0  0  0  0  0
  191.6270  174.1280  137.1760 C   0  0  0  0  0  1  0  0  0  0  0  0
  190.3400  174.0910  137.7100 O   0  0  0  0  0  0  0  0  0  0  0  0
  185.2510  172.7290  136.6020 C   0  0  0  0  0  2  0  0  0  0  0  0
  183.1620  171.4180  136.9720 C   0  0  0  0  0  1  0  0  0  0  0  0
  184.4820  171.4720  136.2260 C   0  0  0  0  0  2  0  0  0  0  0  0
  1 17  1  0  0  0  0
  1 14  2  0  0  0  0
  2 12  1  0  0  0  0
  3 15  1  0  0  0  0
  5  1  1  0  0  0  0
  6 25  1  1  0  0  0
  8 20  1  0  0  0  0
  8 28  1  1  0  0  0
  9 20  1  0  0  0  0
  9  3  1  0  0  0  0
 10  7  1  6  0  0  0
 10  6  1  0  0  0  0
 10  5  1  0  0  0  0
 11  6  1  0  0  0  0
 11  4  1  0  0  0  0
 13 24  1  0  0  0  0
 13  8  1  0  0  0  0
 15 23  2  0  0  0  0
 15 22  1  0  0  0  0
 16 12  1  0  0  0  0
 17  2  2  0  0  0  0
 18  4  1  1  0  0  0
 18 23  1  0  0  0  0
 19  9  2  0  0  0  0
 20 18  1  0  0  0  0
 21 24  2  0  0  0  0
 22 16  2  0  0  0  0
 23 17  1  0  0  0  0
 24 11  1  0  0  0  0
 25 27  1  0  0  0  0
 26 27  1  0  0  0  0
 30 28  1  0  0  0  0
 30 29  1  0  0  0  0
M  END
>  <MODEL>
8

>  <REMARK>
 VINA RESULT:      -5.3      3.130      7.492
  Name = 
  4 active torsions:
  status: ('A' for Active; 'I' for Inactive)
    1  A    between atoms: C_6  and  C_8
    2  A    between atoms: C_6  and  O_21
    3  A    between atoms: C_7  and  C_10
    4  A    between atoms: C_7  and  C_26
                            x       y       z     vdW  Elec       q    Type
                         _______ _______ _______ _____ _____    ______ ____

>  <TORSDO>
F 4

$$$$
=
 OpenBabel10262422003D

 30 33  0  0  1  0  0  0  0  0999 V2000
  190.0010  177.5380  139.9740 C   0  0  0  0  0  0  0  0  0  0  0  0
  189.4300  178.9690  138.1160 C   0  0  0  0  0  3  0  0  0  0  0  0
  185.1470  177.5880  138.9270 C   0  0  0  0  0  2  0  0  0  0  0  0
  188.0420  178.8740  141.8430 C   0  0  0  0  0  2  0  0  0  0  0  0
  189.5960  176.6770  140.9970 O   0  0  0  0  0  0  0  0  0  0  0  0
  189.8030  177.6930  143.2300 C   0  0  2  0  0  3  0  0  0  0  0  0
  190.0220  175.2420  142.8640 C   0  0  0  0  0  1  0  0  0  0  0  0
  185.3010  178.4250  142.6720 C   0  0  2  0  0  3  0  0  0  0  0  0
  184.7570  178.1280  140.2570 C   0  0  0  0  0  0  0  0  0  0  0  0
  190.2760  176.6020  142.2470 C   0  0  1  0  0  3  0  0  0  0  0  0
  188.4100  178.1140  143.0310 N   0  0  0  0  0  0  0  0  0  0  0  0
  188.5430  179.7530  137.2150 C   0  0  0  0  0  2  0  0  0  0  0  0
  185.9920  177.4380  143.6310 C   0  0  0  0  0  2  0  0  0  0  0  0
  191.2300  177.7620  139.7980 O   0  0  0  0  0  0  0  0  0  0  0  0
  186.5400  177.9920  138.5450 C   0  0  0  0  0  0  0  0  0  0  0  0
  187.6560  178.8220  136.4690 C   0  0  0  0  0  3  0  0  0  0  0  0
  188.9820  178.2170  139.1290 C   0  0  0  0  0  0  0  0  0  0  0  0
  187.1550  178.0070  140.9640 C   0  0  1  0  0  3  0  0  0  0  0  0
  183.5480  178.4030  140.4840 O   0  0  0  0  0  0  0  0  0  0  0  0
  185.7440  178.2670  141.2800 N   0  0  0  0  0  0  0  0  0  0  0  0
  187.7540  177.6250  145.2150 O   0  0  0  0  0  0  0  0  0  0  0  0
  186.7600  178.0540  137.0830 C   0  0  0  0  0  3  0  0  0  0  0  0
  187.5180  178.1350  139.4860 C   0  0  0  0  0  0  0  0  0  0  0  0
  187.4160  177.7640  144.0100 C   0  0  0  0  0  0  0  0  0  0  0  0
  190.7690  178.8710  143.3460 C   0  0  0  0  0  2  0  0  0  0  0  0
  191.3060  177.8600  145.2320 C   0  0  0  0  0  1  0  0  0  0  0  0
  191.8580  178.5580  144.1600 O   0  0  0  0  0  0  0  0  0  0  0  0
  185.3760  179.8820  143.1240 C   0  0  0  0  0  2  0  0  0  0  0  0
  183.1960  179.3650  144.2200 C   0  0  0  0  0  1  0  0  0  0  0  0
  184.5020  180.1280  144.3430 C   0  0  0  0  0  2  0  0  0  0  0  0
  1  5  1  0  0  0  0
  2 17  2  0  0  0  0
  3  9  1  0  0  0  0
  4 11  1  0  0  0  0
  5 10  1  0  0  0  0
  6 25  1  6  0  0  0
  8 28  1  1  0  0  0
  8 13  1  0  0  0  0
  9 19  2  0  0  0  0
  9 20  1  0  0  0  0
 10  7  1  1  0  0  0
 10  6  1  0  0  0  0
 11  6  1  0  0  0  0
 11 24  1  0  0  0  0
 12  2  1  0  0  0  0
 13 24  1  0  0  0  0
 14  1  2  0  0  0  0
 15  3  1  0  0  0  0
 15 23  2  0  0  0  0
 16 22  2  0  0  0  0
 16 12  1  0  0  0  0
 17 23  1  0  0  0  0
 17  1  1  0  0  0  0
 18 20  1  0  0  0  0
 18  4  1  1  0  0  0
 20  8  1  0  0  0  0
 22 15  1  0  0  0  0
 23 18  1  0  0  0  0
 24 21  2  0  0  0  0
 25 27  1  0  0  0  0
 27 26  1  0  0  0  0
 28 30  1  0  0  0  0
 29 30  1  0  0  0  0
M  END
>  <MODEL>
9

>  <REMARK>
 VINA RESULT:      -5.0      2.932      6.207
  Name = 
  4 active torsions:
  status: ('A' for Active; 'I' for Inactive)
    1  A    between atoms: C_6  and  C_8
    2  A    between atoms: C_6  and  O_21
    3  A    between atoms: C_7  and  C_10
    4  A    between atoms: C_7  and  C_26
                            x       y       z     vdW  Elec       q    Type
                         _______ _______ _______ _____ _____    ______ ____

>  <TORSDO>
F 4

$$$$
