=
 OpenBabel10262421073D

 32 37  0  0  1  0  0  0  0  0999 V2000
  184.7130  178.4890  142.8410 C   0  0  0  0  0  0  0  0  0  0  0  0
  187.0300  177.9100  143.2840 C   0  0  0  0  0  0  0  0  0  0  0  0
  183.4440  178.8400  143.3310 C   0  0  0  0  0  3  0  0  0  0  0  0
  185.7520  178.2510  143.7470 C   0  0  0  0  0  0  0  0  0  0  0  0
  188.0680  177.7200  144.2040 C   0  0  0  0  0  3  0  0  0  0  0  0
  187.3040  177.5730  141.8450 C   0  0  1  0  0  3  0  0  0  0  0  0
  185.5170  178.3700  145.1390 C   0  0  0  0  0  0  0  0  0  0  0  0
  186.5640  178.1840  146.0430 C   0  0  0  0  0  3  0  0  0  0  0  0
  184.2420  178.6890  145.6090 C   0  0  0  0  0  3  0  0  0  0  0  0
  186.1730  177.8130  140.9060 N   0  0  1  0  0  0  0  0  0  0  0  0
  185.0250  178.6080  141.3670 C   0  0  1  0  0  3  0  0  0  0  0  0
  187.3180  178.7420  140.9770 C   0  0  2  0  0  3  0  0  0  0  0  0
  187.8420  177.8670  145.5770 C   0  0  0  0  0  0  0  0  0  0  0  0
  183.2030  178.9180  144.7040 C   0  0  0  0  0  3  0  0  0  0  0  0
  182.1130  179.5770  139.1400 C   0  0  0  0  0  0  0  0  0  0  0  0
  180.1400  176.7420  138.5930 O   0  0  0  0  0  1  0  0  0  0  0  0
  181.7820  180.5440  138.2480 F   0  0  0  0  0  0  0  0  0  0  0  0
  182.1710  176.6010  139.7600 C   0  0  0  0  0  3  0  0  0  0  0  0
  183.8410  178.3540  140.4720 C   0  0  0  0  0  0  0  0  0  0  0  0
  181.0060  178.7710  139.7310 C   0  0  0  0  0  2  0  0  0  0  0  0
  183.3210  177.1180  140.5270 C   0  0  0  0  0  3  0  0  0  0  0  0
  183.3950  179.4040  139.5040 C   0  0  0  0  0  0  0  0  0  0  0  0
  184.4190  180.3350  138.9350 C   0  0  0  0  0  1  0  0  0  0  0  0
  181.1380  177.3360  139.3520 C   0  0  0  0  0  0  0  0  0  0  0  0
  189.4500  177.7010  140.2370 C   0  0  0  0  0  2  0  0  0  0  0  0
  188.5160  176.5640  138.3300 C   0  0  0  0  0  2  0  0  0  0  0  0
  187.5400  177.6520  138.7460 C   0  0  2  0  0  3  0  0  0  0  0  0
  187.1890  178.5120  137.5480 C   0  0  0  0  0  1  0  0  0  0  0  0
  189.8200  176.8540  139.0430 C   0  0  0  0  0  2  0  0  0  0  0  0
  188.2400  178.4960  139.7960 C   0  0  1  0  0  3  0  0  0  0  0  0
  188.9630  177.6850  146.5390 C   0  0  0  0  0  2  0  0  0  0  0  0
  188.4720  177.8950  147.9580 C   0  0  0  0  0  1  0  0  0  0  0  0
  1  3  2  0  0  0  0
  1  4  1  0  0  0  0
  2  4  2  0  0  0  0
  2  5  1  0  0  0  0
  3 14  1  0  0  0  0
  4  7  1  0  0  0  0
  5 13  2  0  0  0  0
  6  2  1  1  0  0  0
  7  9  1  0  0  0  0
  7  8  2  0  0  0  0
 10 12  1  0  0  0  0
 10 11  1  0  0  0  0
 10  6  1  0  0  0  0
 11  1  1  0  0  0  0
 12  6  1  0  0  0  0
 13  8  1  0  0  0  0
 13 31  1  0  0  0  0
 14  9  2  0  0  0  0
 15 22  2  0  0  0  0
 15 20  1  0  0  0  0
 16 24  1  0  0  0  0
 17 15  1  0  0  0  0
 18 21  1  0  0  0  0
 19 21  2  0  0  0  0
 19 11  1  0  0  0  0
 22 19  1  0  0  0  0
 23 22  1  0  0  0  0
 24 20  1  0  0  0  0
 24 18  2  0  0  0  0
 26 27  1  0  0  0  0
 26 29  1  0  0  0  0
 27 30  1  0  0  0  0
 28 27  1  0  0  0  0
 29 25  1  0  0  0  0
 30 25  1  0  0  0  0
 30 12  1  0  0  0  0
 31 32  1  0  0  0  0
M  END
>  <MODEL>
1

>  <REMARK>
 VINA RESULT:      -8.8      0.000      0.000
  Name = 
  3 active torsions:
  status: ('A' for Active; 'I' for Inactive)
    1  A    between atoms: C_13  and  C_29
    2  A    between atoms: C_16  and  C_27
    3  A    between atoms: C_28  and  C_32
                            x       y       z     vdW  Elec       q    Type
                         _______ _______ _______ _____ _____    ______ ____

>  <TORSDO>
F 3

$$$$
=
 OpenBabel10262421073D

 32 37  0  0  1  0  0  0  0  0999 V2000
  186.8490  178.1770  139.9800 C   0  0  0  0  0  0  0  0  0  0  0  0
  186.6770  178.1480  142.4030 C   0  0  0  0  0  0  0  0  0  0  0  0
  186.2310  178.3550  138.7300 C   0  0  0  0  0  3  0  0  0  0  0  0
  186.0840  178.3100  141.1430 C   0  0  0  0  0  0  0  0  0  0  0  0
  185.9060  178.3290  143.5570 C   0  0  0  0  0  3  0  0  0  0  0  0
  188.0750  177.6220  142.5750 C   0  0  1  0  0  3  0  0  0  0  0  0
  184.7050  178.6250  141.0510 C   0  0  0  0  0  0  0  0  0  0  0  0
  183.9520  178.8090  142.2110 C   0  0  0  0  0  3  0  0  0  0  0  0
  184.1020  178.7670  139.8000 C   0  0  0  0  0  3  0  0  0  0  0  0
  188.8590  177.4680  141.3180 N   0  0  1  0  0  0  0  0  0  0  0  0
  188.3540  178.0920  140.0860 C   0  0  1  0  0  3  0  0  0  0  0  0
  189.0990  178.5990  142.2340 C   0  0  2  0  0  3  0  0  0  0  0  0
  184.5520  178.6700  143.4650 C   0  0  0  0  0  0  0  0  0  0  0  0
  184.8650  178.6250  138.6390 C   0  0  0  0  0  3  0  0  0  0  0  0
  188.9710  177.5130  136.3900 C   0  0  0  0  0  0  0  0  0  0  0  0
  190.9110  174.6270  136.0240 O   0  0  0  0  0  1  0  0  0  0  0  0
  188.9690  178.2150  135.2280 F   0  0  0  0  0  0  0  0  0  0  0  0
  190.4270  175.5040  138.1470 C   0  0  0  0  0  3  0  0  0  0  0  0
  189.0140  177.4580  138.8900 C   0  0  0  0  0  0  0  0  0  0  0  0
  188.8800  176.0270  136.3020 C   0  0  0  0  0  2  0  0  0  0  0  0
  189.6900  176.3230  139.1280 C   0  0  0  0  0  3  0  0  0  0  0  0
  188.9990  178.1590  137.5680 C   0  0  0  0  0  0  0  0  0  0  0  0
  188.9800  179.6550  137.5500 C   0  0  0  0  0  1  0  0  0  0  0  0
  190.1070  175.3900  136.8590 C   0  0  0  0  0  0  0  0  0  0  0  0
  190.0050  178.1580  144.5060 C   0  0  0  0  0  2  0  0  0  0  0  0
  191.3430  176.2590  143.8700 C   0  0  0  0  0  2  0  0  0  0  0  0
  191.0010  177.0310  142.6060 C   0  0  2  0  0  3  0  0  0  0  0  0
  192.2670  177.3250  141.8250 C   0  0  0  0  0  1  0  0  0  0  0  0
  191.0130  177.1660  145.0370 C   0  0  0  0  0  2  0  0  0  0  0  0
  190.3550  178.3330  143.0450 C   0  0  1  0  0  3  0  0  0  0  0  0
  183.7520  178.8830  144.7020 C   0  0  0  0  0  2  0  0  0  0  0  0
  184.6080  178.6260  145.9270 C   0  0  0  0  0  1  0  0  0  0  0  0
  1 11  1  0  0  0  0
  1  4  1  0  0  0  0
  2  5  1  0  0  0  0
  3  1  2  0  0  0  0
  4  2  2  0  0  0  0
  6  2  1  6  0  0  0
  7  4  1  0  0  0  0
  7  8  2  0  0  0  0
  8 13  1  0  0  0  0
  9  7  1  0  0  0  0
 10 12  1  0  0  0  0
 10  6  1  0  0  0  0
 11 10  1  0  0  0  0
 12  6  1  0  0  0  0
 12 30  1  0  0  0  0
 13  5  2  0  0  0  0
 13 31  1  0  0  0  0
 14  3  1  0  0  0  0
 14  9  2  0  0  0  0
 15 22  2  0  0  0  0
 16 24  1  0  0  0  0
 17 15  1  0  0  0  0
 18 21  1  0  0  0  0
 19 21  2  0  0  0  0
 19 11  1  0  0  0  0
 20 15  1  0  0  0  0
 20 24  1  0  0  0  0
 22 19  1  0  0  0  0
 23 22  1  0  0  0  0
 24 18  2  0  0  0  0
 25 29  1  0  0  0  0
 26 29  1  0  0  0  0
 27 30  1  0  0  0  0
 27 26  1  0  0  0  0
 28 27  1  0  0  0  0
 30 25  1  0  0  0  0
 31 32  1  0  0  0  0
M  END
>  <MODEL>
2

>  <REMARK>
 VINA RESULT:      -8.5      3.043      5.792
  Name = 
  3 active torsions:
  status: ('A' for Active; 'I' for Inactive)
    1  A    between atoms: C_13  and  C_29
    2  A    between atoms: C_16  and  C_27
    3  A    between atoms: C_28  and  C_32
                            x       y       z     vdW  Elec       q    Type
                         _______ _______ _______ _____ _____    ______ ____

>  <TORSDO>
F 3

$$$$
=
 OpenBabel10262421073D

 32 37  0  0  1  0  0  0  0  0999 V2000
  183.6510  178.6010  141.9680 C   0  0  0  0  0  0  0  0  0  0  0  0
  185.6090  178.3110  143.3760 C   0  0  0  0  0  0  0  0  0  0  0  0
  182.2720  178.8480  141.8570 C   0  0  0  0  0  3  0  0  0  0  0  0
  184.2340  178.5450  143.2380 C   0  0  0  0  0  0  0  0  0  0  0  0
  186.1830  178.3040  144.6530 C   0  0  0  0  0  3  0  0  0  0  0  0
  186.4780  177.9000  142.2200 C   0  0  1  0  0  3  0  0  0  0  0  0
  183.4360  178.7420  144.3920 C   0  0  0  0  0  0  0  0  0  0  0  0
  184.0230  178.7380  145.6570 C   0  0  0  0  0  3  0  0  0  0  0  0
  182.0620  178.9540  144.2640 C   0  0  0  0  0  3  0  0  0  0  0  0
  185.8250  177.9450  140.8820 N   0  0  1  0  0  0  0  0  0  0  0  0
  184.5380  178.6430  140.7440 C   0  0  1  0  0  3  0  0  0  0  0  0
  186.7710  178.9950  141.3060 C   0  0  2  0  0  3  0  0  0  0  0  0
  185.3990  178.5270  145.7890 C   0  0  0  0  0  0  0  0  0  0  0  0
  181.4790  179.0010  142.9960 C   0  0  0  0  0  3  0  0  0  0  0  0
  181.8780  178.7390  138.0440 C   0  0  0  0  0  0  0  0  0  0  0  0
  182.1180  175.8140  136.1410 O   0  0  0  0  0  1  0  0  0  0  0  0
  181.1130  179.6490  137.3900 F   0  0  0  0  0  0  0  0  0  0  0  0
  183.6840  176.3030  137.8190 C   0  0  0  0  0  3  0  0  0  0  0  0
  183.8520  178.1960  139.4800 C   0  0  0  0  0  0  0  0  0  0  0  0
  181.4440  177.3120  138.0020 C   0  0  0  0  0  2  0  0  0  0  0  0
  184.1950  176.9800  139.0270 C   0  0  0  0  0  3  0  0  0  0  0  0
  182.9540  179.1380  138.7430 C   0  0  0  0  0  0  0  0  0  0  0  0
  183.2430  180.6040  138.8100 C   0  0  0  0  0  1  0  0  0  0  0  0
  182.4630  176.4710  137.3130 C   0  0  0  0  0  0  0  0  0  0  0  0
  189.0590  178.0670  141.5930 C   0  0  0  0  0  2  0  0  0  0  0  0
  189.0630  176.7970  139.5470 C   0  0  0  0  0  2  0  0  0  0  0  0
  187.9580  177.8340  139.4470 C   0  0  2  0  0  3  0  0  0  0  0  0
  188.1080  178.6220  138.1600 C   0  0  0  0  0  1  0  0  0  0  0  0
  189.9330  177.1990  140.7200 C   0  0  0  0  0  2  0  0  0  0  0  0
  188.1140  178.7630  140.6380 C   0  0  1  0  0  3  0  0  0  0  0  0
  186.0290  178.5400  147.1380 C   0  0  0  0  0  2  0  0  0  0  0  0
  187.4020  177.9000  147.0780 C   0  0  0  0  0  1  0  0  0  0  0  0
  1  4  1  0  0  0  0
  2  5  1  0  0  0  0
  3  1  2  0  0  0  0
  3 14  1  0  0  0  0
  4  2  2  0  0  0  0
  4  7  1  0  0  0  0
  5 13  2  0  0  0  0
  6  2  1  1  0  0  0
  7  8  2  0  0  0  0
  8 13  1  0  0  0  0
  9  7  1  0  0  0  0
 10 12  1  0  0  0  0
 10  6  1  0  0  0  0
 11 10  1  0  0  0  0
 11  1  1  0  0  0  0
 12  6  1  0  0  0  0
 13 31  1  0  0  0  0
 14  9  2  0  0  0  0
 15 22  2  0  0  0  0
 16 24  1  0  0  0  0
 17 15  1  0  0  0  0
 18 21  1  0  0  0  0
 19 11  1  0  0  0  0
 20 15  1  0  0  0  0
 21 19  2  0  0  0  0
 22 23  1  0  0  0  0
 22 19  1  0  0  0  0
 24 18  2  0  0  0  0
 24 20  1  0  0  0  0
 26 29  1  0  0  0  0
 27 26  1  0  0  0  0
 27 30  1  0  0  0  0
 28 27  1  0  0  0  0
 29 25  1  0  0  0  0
 30 12  1  0  0  0  0
 30 25  1  0  0  0  0
 32 31  1  0  0  0  0
M  END
>  <MODEL>
3

>  <REMARK>
 VINA RESULT:      -8.1      1.370      1.836
  Name = 
  3 active torsions:
  status: ('A' for Active; 'I' for Inactive)
    1  A    between atoms: C_13  and  C_29
    2  A    between atoms: C_16  and  C_27
    3  A    between atoms: C_28  and  C_32
                            x       y       z     vdW  Elec       q    Type
                         _______ _______ _______ _____ _____    ______ ____

>  <TORSDO>
F 3

$$$$
=
 OpenBabel10262421073D

 32 37  0  0  1  0  0  0  0  0999 V2000
  185.4370  178.1580  138.7740 C   0  0  0  0  0  0  0  0  0  0  0  0
  187.2930  178.3690  140.3270 C   0  0  0  0  0  0  0  0  0  0  0  0
  184.9580  177.7490  137.5180 C   0  0  0  0  0  3  0  0  0  0  0  0
  186.7910  177.9800  139.0780 C   0  0  0  0  0  0  0  0  0  0  0  0
  188.6410  178.1420  140.6300 C   0  0  0  0  0  3  0  0  0  0  0  0
  186.4860  179.1770  141.3050 C   0  0  1  0  0  3  0  0  0  0  0  0
  187.6580  177.3890  138.1250 C   0  0  0  0  0  0  0  0  0  0  0  0
  188.9970  177.1640  138.4450 C   0  0  0  0  0  3  0  0  0  0  0  0
  187.1700  177.0180  136.8710 C   0  0  0  0  0  3  0  0  0  0  0  0
  185.0540  179.3710  140.9450 N   0  0  1  0  0  0  0  0  0  0  0  0
  184.4750  178.5510  139.8710 C   0  0  1  0  0  3  0  0  0  0  0  0
  185.4570  178.3970  141.9780 C   0  0  2  0  0  3  0  0  0  0  0  0
  189.4890  177.5320  139.7000 C   0  0  0  0  0  0  0  0  0  0  0  0
  185.8210  177.2040  136.5650 C   0  0  0  0  0  3  0  0  0  0  0  0
  180.9100  178.6040  138.5810 C   0  0  0  0  0  0  0  0  0  0  0  0
  180.2240  181.8000  137.3380 O   0  0  0  0  0  1  0  0  0  0  0  0
  179.7510  177.9160  138.7420 F   0  0  0  0  0  0  0  0  0  0  0  0
  182.2500  181.3280  138.4230 C   0  0  0  0  0  3  0  0  0  0  0  0
  183.2090  179.1930  139.3690 C   0  0  0  0  0  0  0  0  0  0  0  0
  181.0460  179.4570  137.3660 C   0  0  0  0  0  2  0  0  0  0  0  0
  183.3230  180.4650  138.9550 C   0  0  0  0  0  3  0  0  0  0  0  0
  181.9070  178.4630  139.4700 C   0  0  0  0  0  0  0  0  0  0  0  0
  181.7120  177.5000  140.5980 C   0  0  0  0  0  1  0  0  0  0  0  0
  181.1920  180.8920  137.7430 C   0  0  0  0  0  0  0  0  0  0  0  0
  183.7060  179.2530  143.5210 C   0  0  0  0  0  2  0  0  0  0  0  0
  184.4020  177.9520  145.4240 C   0  0  0  0  0  2  0  0  0  0  0  0
  185.5540  177.9800  144.4340 C   0  0  2  0  0  3  0  0  0  0  0  0
  186.8230  178.4280  145.1340 C   0  0  0  0  0  1  0  0  0  0  0  0
  183.4270  179.0250  144.9870 C   0  0  0  0  0  2  0  0  0  0  0  0
  185.1850  178.9800  143.3530 C   0  0  1  0  0  3  0  0  0  0  0  0
  190.9130  177.2760  140.0470 C   0  0  0  0  0  2  0  0  0  0  0  0
  191.1320  177.4760  141.5340 C   0  0  0  0  0  1  0  0  0  0  0  0
  1  4  1  0  0  0  0
  1 11  1  0  0  0  0
  2  5  1  0  0  0  0
  3  1  2  0  0  0  0
  4  2  2  0  0  0  0
  6  2  1  6  0  0  0
  6 12  1  0  0  0  0
  7  8  2  0  0  0  0
  7  4  1  0  0  0  0
  8 13  1  0  0  0  0
  9  7  1  0  0  0  0
 10  6  1  0  0  0  0
 10 12  1  0  0  0  0
 11 10  1  0  0  0  0
 12 30  1  0  0  0  0
 13 31  1  0  0  0  0
 13  5  2  0  0  0  0
 14  9  2  0  0  0  0
 14  3  1  0  0  0  0
 15 17  1  0  0  0  0
 15 22  2  0  0  0  0
 16 24  1  0  0  0  0
 18 21  1  0  0  0  0
 19 22  1  0  0  0  0
 19 11  1  0  0  0  0
 20 24  1  0  0  0  0
 20 15  1  0  0  0  0
 21 19  2  0  0  0  0
 22 23  1  0  0  0  0
 24 18  2  0  0  0  0
 25 29  1  0  0  0  0
 27 28  1  0  0  0  0
 27 26  1  0  0  0  0
 29 26  1  0  0  0  0
 30 25  1  0  0  0  0
 30 27  1  0  0  0  0
 31 32  1  0  0  0  0
M  END
>  <MODEL>
4

>  <REMARK>
 VINA RESULT:      -7.7      1.711      5.493
  Name = 
  3 active torsions:
  status: ('A' for Active; 'I' for Inactive)
    1  A    between atoms: C_13  and  C_29
    2  A    between atoms: C_16  and  C_27
    3  A    between atoms: C_28  and  C_32
                            x       y       z     vdW  Elec       q    Type
                         _______ _______ _______ _____ _____    ______ ____

>  <TORSDO>
F 3

$$$$
=
 OpenBabel10262421073D

 32 37  0  0  1  0  0  0  0  0999 V2000
  186.7110  177.9820  143.6650 C   0  0  0  0  0  0  0  0  0  0  0  0
  186.2080  178.6480  141.3840 C   0  0  0  0  0  0  0  0  0  0  0  0
  186.2600  177.7120  144.9680 C   0  0  0  0  0  3  0  0  0  0  0  0
  185.7870  178.3820  142.6940 C   0  0  0  0  0  0  0  0  0  0  0  0
  185.2620  179.0030  140.4140 C   0  0  0  0  0  3  0  0  0  0  0  0
  187.6600  178.7310  141.0040 C   0  0  1  0  0  3  0  0  0  0  0  0
  184.4160  178.5050  143.0300 C   0  0  0  0  0  0  0  0  0  0  0  0
  183.4850  178.8530  142.0510 C   0  0  0  0  0  3  0  0  0  0  0  0
  183.9920  178.2620  144.3380 C   0  0  0  0  0  3  0  0  0  0  0  0
  188.6220  178.3230  142.0640 N   0  0  1  0  0  0  0  0  0  0  0  0
  188.1150  177.6120  143.2470 C   0  0  1  0  0  3  0  0  0  0  0  0
  188.3080  177.4300  140.9320 C   0  0  2  0  0  3  0  0  0  0  0  0
  183.9050  179.0950  140.7400 C   0  0  0  0  0  0  0  0  0  0  0  0
  184.9150  177.8720  145.3080 C   0  0  0  0  0  3  0  0  0  0  0  0
  191.5600  178.1040  144.7510 C   0  0  0  0  0  0  0  0  0  0  0  0
  191.4760  177.0620  148.0890 O   0  0  0  0  0  1  0  0  0  0  0  0
  192.6820  178.8350  144.5280 F   0  0  0  0  0  0  0  0  0  0  0  0
  189.5240  177.1280  146.7880 C   0  0  0  0  0  3  0  0  0  0  0  0
  189.1240  177.6970  144.3610 C   0  0  0  0  0  0  0  0  0  0  0  0
  191.6810  176.8980  145.6200 C   0  0  0  0  0  2  0  0  0  0  0  0
  188.7410  177.1750  145.5370 C   0  0  0  0  0  3  0  0  0  0  0  0
  190.4050  178.4440  144.1570 C   0  0  0  0  0  0  0  0  0  0  0  0
  190.4120  179.6090  143.2190 C   0  0  0  0  0  1  0  0  0  0  0  0
  190.8520  177.0480  146.8490 C   0  0  0  0  0  0  0  0  0  0  0  0
  190.5490  176.5300  140.3450 C   0  0  0  0  0  2  0  0  0  0  0  0
  190.0110  176.0100  138.0560 C   0  0  0  0  0  2  0  0  0  0  0  0
  188.9670  176.9880  138.5690 C   0  0  2  0  0  3  0  0  0  0  0  0
  188.8510  178.1620  137.6160 C   0  0  0  0  0  1  0  0  0  0  0  0
  191.1500  176.0270  139.0540 C   0  0  0  0  0  2  0  0  0  0  0  0
  189.4440  177.4740  139.9260 C   0  0  1  0  0  3  0  0  0  0  0  0
  182.9100  179.4490  139.6920 C   0  0  0  0  0  2  0  0  0  0  0  0
  183.1830  178.6610  138.4250 C   0  0  0  0  0  1  0  0  0  0  0  0
  1  3  1  0  0  0  0
  2  4  1  0  0  0  0
  3 14  2  0  0  0  0
  4  7  1  0  0  0  0
  4  1  2  0  0  0  0
  5 13  1  0  0  0  0
  5  2  2  0  0  0  0
  6  2  1  1  0  0  0
  6 10  1  0  0  0  0
  7  9  2  0  0  0  0
  8  7  1  0  0  0  0
  9 14  1  0  0  0  0
 10 11  1  0  0  0  0
 11  1  1  0  0  0  0
 11 19  1  0  0  0  0
 12  6  1  0  0  0  0
 12 10  1  0  0  0  0
 13  8  2  0  0  0  0
 15 20  1  0  0  0  0
 17 15  1  0  0  0  0
 18 24  2  0  0  0  0
 19 21  2  0  0  0  0
 20 24  1  0  0  0  0
 21 18  1  0  0  0  0
 22 19  1  0  0  0  0
 22 15  2  0  0  0  0
 23 22  1  0  0  0  0
 24 16  1  0  0  0  0
 26 27  1  0  0  0  0
 26 29  1  0  0  0  0
 27 30  1  0  0  0  0
 28 27  1  0  0  0  0
 29 25  1  0  0  0  0
 30 25  1  0  0  0  0
 30 12  1  0  0  0  0
 31 13  1  0  0  0  0
 32 31  1  0  0  0  0
M  END
>  <MODEL>
5

>  <REMARK>
 VINA RESULT:      -7.7      3.766      6.862
  Name = 
  3 active torsions:
  status: ('A' for Active; 'I' for Inactive)
    1  A    between atoms: C_13  and  C_29
    2  A    between atoms: C_16  and  C_27
    3  A    between atoms: C_28  and  C_32
                            x       y       z     vdW  Elec       q    Type
                         _______ _______ _______ _____ _____    ______ ____

>  <TORSDO>
F 3

$$$$
=
 OpenBabel10262421073D

 32 37  0  0  1  0  0  0  0  0999 V2000
  186.1660  178.4080  141.0010 C   0  0  0  0  0  0  0  0  0  0  0  0
  186.6860  177.9580  143.3310 C   0  0  0  0  0  0  0  0  0  0  0  0
  185.2280  178.7960  140.0290 C   0  0  0  0  0  3  0  0  0  0  0  0
  185.7680  178.3320  142.3400 C   0  0  0  0  0  0  0  0  0  0  0  0
  186.2810  177.9320  144.6710 C   0  0  0  0  0  3  0  0  0  0  0  0
  188.0510  177.4190  143.0050 C   0  0  1  0  0  3  0  0  0  0  0  0
  184.4350  178.6500  142.7010 C   0  0  0  0  0  0  0  0  0  0  0  0
  184.0490  178.6250  144.0410 C   0  0  0  0  0  3  0  0  0  0  0  0
  183.5100  179.0030  141.7170 C   0  0  0  0  0  3  0  0  0  0  0  0
  188.4390  177.4900  141.5690 N   0  0  1  0  0  0  0  0  0  0  0  0
  187.6350  178.3150  140.6560 C   0  0  1  0  0  3  0  0  0  0  0  0
  188.9790  178.4470  142.5540 C   0  0  2  0  0  3  0  0  0  0  0  0
  184.9730  178.2740  145.0290 C   0  0  0  0  0  0  0  0  0  0  0  0
  183.9050  179.0700  140.3800 C   0  0  0  0  0  3  0  0  0  0  0  0
  189.7800  177.6300  137.6060 C   0  0  0  0  0  0  0  0  0  0  0  0
  187.6820  177.2580  134.8320 O   0  0  0  0  0  1  0  0  0  0  0  0
  191.0200  177.1680  137.3070 F   0  0  0  0  0  0  0  0  0  0  0  0
  186.8040  177.5070  136.9940 C   0  0  0  0  0  3  0  0  0  0  0  0
  187.9000  177.9030  139.2330 C   0  0  0  0  0  0  0  0  0  0  0  0
  189.0570  178.4020  136.5540 C   0  0  0  0  0  2  0  0  0  0  0  0
  186.8300  177.8750  138.4230 C   0  0  0  0  0  3  0  0  0  0  0  0
  189.2630  177.4340  138.8300 C   0  0  0  0  0  0  0  0  0  0  0  0
  190.1120  176.7410  139.8490 C   0  0  0  0  0  1  0  0  0  0  0  0
  187.8110  177.6940  136.1430 C   0  0  0  0  0  0  0  0  0  0  0  0
  191.1010  179.2020  143.6040 C   0  0  0  0  0  2  0  0  0  0  0  0
  191.3830  177.2630  145.0050 C   0  0  0  0  0  2  0  0  0  0  0  0
  190.3940  176.9040  143.9090 C   0  0  2  0  0  3  0  0  0  0  0  0
  190.8320  175.6270  143.2190 C   0  0  0  0  0  1  0  0  0  0  0  0
  192.0520  178.5540  144.5820 C   0  0  0  0  0  2  0  0  0  0  0  0
  190.4000  178.0520  142.9140 C   0  0  1  0  0  3  0  0  0  0  0  0
  184.5670  178.2650  146.4610 C   0  0  0  0  0  2  0  0  0  0  0  0
  185.7470  178.6280  147.3410 C   0  0  0  0  0  1  0  0  0  0  0  0
  1  4  1  0  0  0  0
  2  5  1  0  0  0  0
  3 14  1  0  0  0  0
  3  1  2  0  0  0  0
  4  7  1  0  0  0  0
  4  2  2  0  0  0  0
  5 13  2  0  0  0  0
  6  2  1  6  0  0  0
  7  8  2  0  0  0  0
  8 13  1  0  0  0  0
  9  7  1  0  0  0  0
 10 12  1  0  0  0  0
 10  6  1  0  0  0  0
 11  1  1  0  0  0  0
 11 10  1  0  0  0  0
 12 30  1  0  0  0  0
 12  6  1  0  0  0  0
 13 31  1  0  0  0  0
 14  9  2  0  0  0  0
 15 22  2  0  0  0  0
 16 24  1  0  0  0  0
 17 15  1  0  0  0  0
 18 21  1  0  0  0  0
 19 11  1  0  0  0  0
 20 15  1  0  0  0  0
 21 19  2  0  0  0  0
 22 19  1  0  0  0  0
 22 23  1  0  0  0  0
 24 20  1  0  0  0  0
 24 18  2  0  0  0  0
 25 29  1  0  0  0  0
 27 26  1  0  0  0  0
 28 27  1  0  0  0  0
 29 26  1  0  0  0  0
 30 25  1  0  0  0  0
 30 27  1  0  0  0  0
 31 32  1  0  0  0  0
M  END
>  <MODEL>
6

>  <REMARK>
 VINA RESULT:      -7.5      2.897      5.187
  Name = 
  3 active torsions:
  status: ('A' for Active; 'I' for Inactive)
    1  A    between atoms: C_13  and  C_29
    2  A    between atoms: C_16  and  C_27
    3  A    between atoms: C_28  and  C_32
                            x       y       z     vdW  Elec       q    Type
                         _______ _______ _______ _____ _____    ______ ____

>  <TORSDO>
F 3

$$$$
=
 OpenBabel10262421073D

 32 37  0  0  1  0  0  0  0  0999 V2000
  184.2840  178.8590  142.3130 C   0  0  0  0  0  0  0  0  0  0  0  0
  186.4640  178.0370  143.0000 C   0  0  0  0  0  0  0  0  0  0  0  0
  183.0030  179.3150  142.6660 C   0  0  0  0  0  3  0  0  0  0  0  0
  185.1770  178.4860  143.3240 C   0  0  0  0  0  0  0  0  0  0  0  0
  187.3590  177.7110  144.0260 C   0  0  0  0  0  3  0  0  0  0  0  0
  186.8810  177.7280  141.5890 C   0  0  1  0  0  3  0  0  0  0  0  0
  184.7850  178.5770  144.6830 C   0  0  0  0  0  0  0  0  0  0  0  0
  185.6910  178.2550  145.6940 C   0  0  0  0  0  3  0  0  0  0  0  0
  183.4970  179.0030  145.0120 C   0  0  0  0  0  3  0  0  0  0  0  0
  185.9010  178.1130  140.5350 N   0  0  1  0  0  0  0  0  0  0  0  0
  184.7850  179.0000  140.8940 C   0  0  1  0  0  3  0  0  0  0  0  0
  187.1110  178.9200  140.7860 C   0  0  2  0  0  3  0  0  0  0  0  0
  186.9810  177.8300  145.3680 C   0  0  0  0  0  0  0  0  0  0  0  0
  182.6040  179.3660  144.0030 C   0  0  0  0  0  3  0  0  0  0  0  0
  182.6470  177.2450  138.3010 C   0  0  0  0  0  0  0  0  0  0  0  0
  180.8820  179.6630  136.4930 O   0  0  0  0  0  1  0  0  0  0  0  0
  182.1080  176.0200  138.0750 F   0  0  0  0  0  0  0  0  0  0  0  0
  182.2000  180.2520  138.3430 C   0  0  0  0  0  3  0  0  0  0  0  0
  183.7010  178.8970  139.8540 C   0  0  0  0  0  0  0  0  0  0  0  0
  182.7610  178.1760  137.1410 C   0  0  0  0  0  2  0  0  0  0  0  0
  183.2520  180.0620  139.3610 C   0  0  0  0  0  3  0  0  0  0  0  0
  183.1040  177.5660  139.5220 C   0  0  0  0  0  0  0  0  0  0  0  0
  183.0420  176.5230  140.5930 C   0  0  0  0  0  1  0  0  0  0  0  0
  181.9320  179.3950  137.3600 C   0  0  0  0  0  0  0  0  0  0  0  0
  189.2790  177.8110  140.2910 C   0  0  0  0  0  2  0  0  0  0  0  0
  188.5170  176.6610  138.3160 C   0  0  0  0  0  2  0  0  0  0  0  0
  187.5340  177.7820  138.6090 C   0  0  2  0  0  3  0  0  0  0  0  0
  187.3330  178.6280  137.3670 C   0  0  0  0  0  1  0  0  0  0  0  0
  189.7480  176.9310  139.1570 C   0  0  0  0  0  2  0  0  0  0  0  0
  188.1430  178.6280  139.7130 C   0  0  1  0  0  3  0  0  0  0  0  0
  187.9530  177.5030  146.4470 C   0  0  0  0  0  2  0  0  0  0  0  0
  189.3650  177.4990  145.8940 C   0  0  0  0  0  1  0  0  0  0  0  0
  1  3  2  0  0  0  0
  1  4  1  0  0  0  0
  2  4  2  0  0  0  0
  2  5  1  0  0  0  0
  3 14  1  0  0  0  0
  4  7  1  0  0  0  0
  5 13  2  0  0  0  0
  6  2  1  1  0  0  0
  7  9  1  0  0  0  0
  7  8  2  0  0  0  0
 10 12  1  0  0  0  0
 10 11  1  0  0  0  0
 10  6  1  0  0  0  0
 11  1  1  0  0  0  0
 12  6  1  0  0  0  0
 13  8  1  0  0  0  0
 13 31  1  0  0  0  0
 14  9  2  0  0  0  0
 15 22  2  0  0  0  0
 16 24  1  0  0  0  0
 17 15  1  0  0  0  0
 18 21  1  0  0  0  0
 19 11  1  0  0  0  0
 20 24  1  0  0  0  0
 20 15  1  0  0  0  0
 21 19  2  0  0  0  0
 22 19  1  0  0  0  0
 22 23  1  0  0  0  0
 24 18  2  0  0  0  0
 26 27  1  0  0  0  0
 26 29  1  0  0  0  0
 27 30  1  0  0  0  0
 28 27  1  0  0  0  0
 29 25  1  0  0  0  0
 30 25  1  0  0  0  0
 30 12  1  0  0  0  0
 32 31  1  0  0  0  0
M  END
>  <MODEL>
7

>  <REMARK>
 VINA RESULT:      -7.1      1.362      1.963
  Name = 
  3 active torsions:
  status: ('A' for Active; 'I' for Inactive)
    1  A    between atoms: C_13  and  C_29
    2  A    between atoms: C_16  and  C_27
    3  A    between atoms: C_28  and  C_32
                            x       y       z     vdW  Elec       q    Type
                         _______ _______ _______ _____ _____    ______ ____

>  <TORSDO>
F 3

$$$$
=
 OpenBabel10262421073D

 32 37  0  0  1  0  0  0  0  0999 V2000
  185.3820  178.5530  143.3030 C   0  0  0  0  0  0  0  0  0  0  0  0
  187.1710  177.6000  144.6420 C   0  0  0  0  0  0  0  0  0  0  0  0
  184.1840  179.2850  143.2380 C   0  0  0  0  0  3  0  0  0  0  0  0
  185.9700  178.3180  144.5500 C   0  0  0  0  0  0  0  0  0  0  0  0
  187.7680  177.4140  145.8940 C   0  0  0  0  0  3  0  0  0  0  0  0
  187.7680  176.8730  143.4700 C   0  0  1  0  0  3  0  0  0  0  0  0
  185.3600  178.8200  145.7260 C   0  0  0  0  0  0  0  0  0  0  0  0
  185.9710  178.6310  146.9660 C   0  0  0  0  0  3  0  0  0  0  0  0
  184.1530  179.5180  145.6450 C   0  0  0  0  0  3  0  0  0  0  0  0
  187.1070  177.1220  142.1590 N   0  0  1  0  0  0  0  0  0  0  0  0
  186.1570  178.2390  142.0440 C   0  0  1  0  0  3  0  0  0  0  0  0
  188.3910  177.7630  142.5020 C   0  0  2  0  0  3  0  0  0  0  0  0
  187.1800  177.9350  147.0520 C   0  0  0  0  0  0  0  0  0  0  0  0
  183.5620  179.7450  144.4010 C   0  0  0  0  0  3  0  0  0  0  0  0
  185.0880  178.7820  138.4480 C   0  0  0  0  0  0  0  0  0  0  0  0
  181.8720  177.4710  138.0330 O   0  0  0  0  0  1  0  0  0  0  0  0
  185.6500  179.0080  137.2330 F   0  0  0  0  0  0  0  0  0  0  0  0
  183.0420  177.2020  140.0500 C   0  0  0  0  0  3  0  0  0  0  0  0
  185.2910  178.0440  140.8290 C   0  0  0  0  0  0  0  0  0  0  0  0
  183.6430  179.1120  138.6140 C   0  0  0  0  0  2  0  0  0  0  0  0
  184.0820  177.5040  141.0520 C   0  0  0  0  0  3  0  0  0  0  0  0
  185.8380  178.3280  139.4650 C   0  0  0  0  0  0  0  0  0  0  0  0
  187.3010  178.1300  139.2260 C   0  0  0  0  0  1  0  0  0  0  0  0
  182.8540  177.8850  138.9220 C   0  0  0  0  0  0  0  0  0  0  0  0
  189.8290  177.7220  140.4740 C   0  0  0  0  0  2  0  0  0  0  0  0
  191.9140  177.5030  141.6590 C   0  0  0  0  0  2  0  0  0  0  0  0
  190.7960  177.1120  142.6110 C   0  0  2  0  0  3  0  0  0  0  0  0
  191.0900  175.7550  143.2200 C   0  0  0  0  0  1  0  0  0  0  0  0
  191.3120  177.5320  140.2700 C   0  0  0  0  0  2  0  0  0  0  0  0
  189.5210  177.0400  141.7890 C   0  0  1  0  0  3  0  0  0  0  0  0
  187.8410  177.7490  148.3720 C   0  0  0  0  0  2  0  0  0  0  0  0
  189.3450  177.8810  148.2260 C   0  0  0  0  0  1  0  0  0  0  0  0
  1  4  1  0  0  0  0
  2  5  1  0  0  0  0
  3  1  2  0  0  0  0
  3 14  1  0  0  0  0
  4  2  2  0  0  0  0
  4  7  1  0  0  0  0
  5 13  2  0  0  0  0
  6  2  1  1  0  0  0
  7  8  2  0  0  0  0
  8 13  1  0  0  0  0
  9  7  1  0  0  0  0
 10 12  1  0  0  0  0
 10  6  1  0  0  0  0
 11 10  1  0  0  0  0
 11  1  1  0  0  0  0
 12  6  1  0  0  0  0
 13 31  1  0  0  0  0
 14  9  2  0  0  0  0
 15 20  1  0  0  0  0
 15 22  2  0  0  0  0
 16 24  1  0  0  0  0
 17 15  1  0  0  0  0
 18 21  1  0  0  0  0
 19 21  2  0  0  0  0
 19 11  1  0  0  0  0
 20 24  1  0  0  0  0
 22 19  1  0  0  0  0
 23 22  1  0  0  0  0
 24 18  2  0  0  0  0
 25 30  1  0  0  0  0
 26 27  1  0  0  0  0
 27 28  1  0  0  0  0
 29 25  1  0  0  0  0
 29 26  1  0  0  0  0
 30 12  1  0  0  0  0
 30 27  1  0  0  0  0
 32 31  1  0  0  0  0
M  END
>  <MODEL>
8

>  <REMARK>
 VINA RESULT:      -7.0      1.669      2.602
  Name = 
  3 active torsions:
  status: ('A' for Active; 'I' for Inactive)
    1  A    between atoms: C_13  and  C_29
    2  A    between atoms: C_16  and  C_27
    3  A    between atoms: C_28  and  C_32
                            x       y       z     vdW  Elec       q    Type
                         _______ _______ _______ _____ _____    ______ ____

>  <TORSDO>
F 3

$$$$
=
 OpenBabel10262421073D

 32 37  0  0  1  0  0  0  0  0999 V2000
  190.4410  176.5870  143.3260 C   0  0  0  0  0  0  0  0  0  0  0  0
  188.9460  177.8550  144.7610 C   0  0  0  0  0  0  0  0  0  0  0  0
  191.4950  175.6660  143.1990 C   0  0  0  0  0  3  0  0  0  0  0  0
  190.0010  176.9460  144.6050 C   0  0  0  0  0  0  0  0  0  0  0  0
  188.4900  178.1680  146.0460 C   0  0  0  0  0  3  0  0  0  0  0  0
  188.3830  178.6430  143.6110 C   0  0  1  0  0  3  0  0  0  0  0  0
  190.6150  176.3790  145.7490 C   0  0  0  0  0  0  0  0  0  0  0  0
  190.1440  176.6960  147.0240 C   0  0  0  0  0  3  0  0  0  0  0  0
  191.6810  175.4890  145.6030 C   0  0  0  0  0  3  0  0  0  0  0  0
  188.8860  178.2560  142.2640 N   0  0  1  0  0  0  0  0  0  0  0  0
  189.6280  176.9950  142.1190 C   0  0  1  0  0  3  0  0  0  0  0  0
  187.5460  177.8450  142.7260 C   0  0  2  0  0  3  0  0  0  0  0  0
  189.0760  177.5840  147.1740 C   0  0  0  0  0  0  0  0  0  0  0  0
  192.1250  175.1380  144.3270 C   0  0  0  0  0  3  0  0  0  0  0  0
  190.3290  176.1460  138.4910 C   0  0  0  0  0  0  0  0  0  0  0  0
  193.6470  176.9880  137.7720 O   0  0  0  0  0  1  0  0  0  0  0  0
  189.6480  175.9440  137.3350 F   0  0  0  0  0  0  0  0  0  0  0  0
  192.6850  177.5060  139.8490 C   0  0  0  0  0  3  0  0  0  0  0  0
  190.4140  177.0140  140.8350 C   0  0  0  0  0  0  0  0  0  0  0  0
  191.7270  175.6320  138.5700 C   0  0  0  0  0  2  0  0  0  0  0  0
  191.6970  177.3950  140.9400 C   0  0  0  0  0  3  0  0  0  0  0  0
  189.7280  176.7440  139.5330 C   0  0  0  0  0  0  0  0  0  0  0  0
  188.2890  177.1280  139.3890 C   0  0  0  0  0  1  0  0  0  0  0  0
  192.6930  176.7530  138.7510 C   0  0  0  0  0  0  0  0  0  0  0  0
  186.5060  178.5280  140.5740 C   0  0  0  0  0  2  0  0  0  0  0  0
  184.2280  178.2500  141.3060 C   0  0  0  0  0  2  0  0  0  0  0  0
  185.1070  178.3300  142.5430 C   0  0  2  0  0  3  0  0  0  0  0  0
  184.5670  179.3820  143.4910 C   0  0  0  0  0  1  0  0  0  0  0  0
  185.0730  178.7240  140.1410 C   0  0  0  0  0  2  0  0  0  0  0  0
  186.4960  178.7270  142.0750 C   0  0  1  0  0  3  0  0  0  0  0  0
  188.5630  177.9100  148.5330 C   0  0  0  0  0  2  0  0  0  0  0  0
  187.2300  178.6270  148.4290 C   0  0  0  0  0  1  0  0  0  0  0  0
  1  4  1  0  0  0  0
  2  5  1  0  0  0  0
  3  1  2  0  0  0  0
  3 14  1  0  0  0  0
  4  2  2  0  0  0  0
  4  7  1  0  0  0  0
  5 13  2  0  0  0  0
  6  2  1  1  0  0  0
  7  8  2  0  0  0  0
  8 13  1  0  0  0  0
  9  7  1  0  0  0  0
 10 12  1  0  0  0  0
 10  6  1  0  0  0  0
 11 10  1  0  0  0  0
 11  1  1  0  0  0  0
 12  6  1  0  0  0  0
 13 31  1  0  0  0  0
 14  9  2  0  0  0  0
 15 20  1  0  0  0  0
 15 22  2  0  0  0  0
 16 24  1  0  0  0  0
 17 15  1  0  0  0  0
 18 21  1  0  0  0  0
 19 21  2  0  0  0  0
 19 11  1  0  0  0  0
 20 24  1  0  0  0  0
 22 19  1  0  0  0  0
 23 22  1  0  0  0  0
 24 18  2  0  0  0  0
 25 30  1  0  0  0  0
 26 27  1  0  0  0  0
 27 28  1  0  0  0  0
 29 25  1  0  0  0  0
 29 26  1  0  0  0  0
 30 27  1  0  0  0  0
 30 12  1  0  0  0  0
 32 31  1  0  0  0  0
M  END
>  <MODEL>
9

>  <REMARK>
 VINA RESULT:      -7.0      3.527      6.724
  Name = 
  3 active torsions:
  status: ('A' for Active; 'I' for Inactive)
    1  A    between atoms: C_13  and  C_29
    2  A    between atoms: C_16  and  C_27
    3  A    between atoms: C_28  and  C_32
                            x       y       z     vdW  Elec       q    Type
                         _______ _______ _______ _____ _____    ______ ____

>  <TORSDO>
F 3

$$$$
