=
 OpenBabel10252414523D

 34 38  0  0  1  0  0  0  0  0999 V2000
  188.7730  176.7760  135.8480 C   0  0  2  0  0  3  0  0  0  0  0  0
  189.8970  176.6520  138.0550 N   0  0  2  0  0  0  0  0  0  0  0  0
  189.0980  178.8290  137.3460 C   0  0  0  0  0  2  0  0  0  0  0  0
  189.9300  177.5650  139.1870 C   0  0  0  0  0  2  0  0  0  0  0  0
  189.2450  175.3600  135.4680 C   0  0  0  0  0  2  0  0  0  0  0  0
  191.5940  176.1070  134.8180 C   0  0  0  0  0  1  0  0  0  0  0  0
  191.2340  176.0990  137.9030 C   0  0  0  0  0  2  0  0  0  0  0  0
  191.1970  174.8430  137.0260 C   0  0  1  0  0  3  0  0  0  0  0  0
  189.0280  178.7330  138.8500 C   0  0  2  0  0  3  0  0  0  0  0  0
  189.6560  177.4910  136.8880 C   0  0  2  0  0  3  0  0  0  0  0  0
  190.7500  175.0860  135.5740 C   0  0  1  0  0  3  0  0  0  0  0  0
  186.8760  175.9820  137.1450 N   0  0  0  0  0  0  0  0  0  0  0  0
  186.2800  177.5150  135.5430 C   0  0  0  0  0  0  0  0  0  0  0  0
  185.4330  176.0140  137.3710 C   0  0  1  0  0  3  0  0  0  0  0  0
  184.6610  177.1880  136.1870 S   0  0  0  0  0  0  0  0  0  0  0  0
  187.3160  176.7620  136.2180 C   0  0  0  0  0  0  0  0  0  0  0  0
  184.8550  174.6290  137.1590 C   0  0  0  0  0  1  0  0  0  0  0  0
  186.4910  178.3140  134.5940 O   0  0  0  0  0  0  0  0  0  0  0  0
  194.6250  173.8090  138.0890 C   0  0  0  0  0  0  0  0  0  0  0  0
  194.8730  172.6770  137.3100 C   0  0  0  0  0  3  0  0  0  0  0  0
  192.4810  174.0740  137.0980 C   0  0  0  0  0  0  0  0  0  0  0  0
  193.8970  172.2420  136.4120 C   0  0  0  0  0  3  0  0  0  0  0  0
  193.4450  174.4750  137.9700 N   0  0  0  0  0  0  0  0  0  0  0  0
  192.6940  172.9390  136.3020 C   0  0  0  0  0  3  0  0  0  0  0  0
  195.8340  174.3700  139.2240 Cl  0  0  0  0  0  0  0  0  0  0  0  0
  187.7190  178.4230  139.2250 O   0  0  0  0  0  0  0  0  0  0  0  0
  187.8200  177.9550  140.5390 C   0  0  0  0  0  2  0  0  0  0  0  0
  185.3560  179.4220  139.7500 O   0  0  0  0  0  0  0  0  0  0  0  0
  186.8380  178.6860  141.4480 C   0  0  1  0  0  3  0  0  0  0  0  0
  185.4810  178.8230  140.8050 C   0  0  0  0  0  0  0  0  0  0  0  0
  184.2480  178.5380  142.9680 C   0  0  0  0  0  2  0  0  0  0  0  0
  185.6280  178.5990  143.6470 C   0  0  0  0  0  2  0  0  0  0  0  0
  186.7390  177.9770  142.8010 C   0  0  0  0  0  2  0  0  0  0  0  0
  184.2800  178.2180  141.4680 C   0  0  0  0  0  2  0  0  0  0  0  0
  1 16  1  1  0  0  0
  1 10  1  0  0  0  0
  2  7  1  6  0  0  0
  2  4  1  0  0  0  0
  3  9  1  0  0  0  0
  5 11  1  0  0  0  0
  5  1  1  0  0  0  0
  8 21  1  6  0  0  0
  8  7  1  0  0  0  0
  9  4  1  0  0  0  0
  9 26  1  6  0  0  0
 10  3  1  1  0  0  0
 10  2  1  0  0  0  0
 11  6  1  1  0  0  0
 11  8  1  0  0  0  0
 12 14  1  0  0  0  0
 13 15  1  0  0  0  0
 13 16  1  0  0  0  0
 14 17  1  6  0  0  0
 15 14  1  0  0  0  0
 16 12  2  0  0  0  0
 18 13  2  0  0  0  0
 19 25  1  0  0  0  0
 20 19  2  0  0  0  0
 21 23  2  0  0  0  0
 22 20  1  0  0  0  0
 23 19  1  0  0  0  0
 24 22  2  0  0  0  0
 24 21  1  0  0  0  0
 26 27  1  0  0  0  0
 28 30  2  0  0  0  0
 29 27  1  6  0  0  0
 29 33  1  0  0  0  0
 30 29  1  0  0  0  0
 30 34  1  0  0  0  0
 31 32  1  0  0  0  0
 33 32  1  0  0  0  0
 34 31  1  0  0  0  0
M  END
>  <MODEL>
1

>  <REMARK>
 VINA RESULT:      -7.6      0.000      0.000
  Name = 
  5 active torsions:
  status: ('A' for Active; 'I' for Inactive)
    1  A    between atoms: C_3  and  C_13
    2  A    between atoms: C_3  and  O_17
    3  A    between atoms: C_4  and  C_15
    4  A    between atoms: C_12  and  C_28
    5  A    between atoms: O_17  and  C_29
                            x       y       z     vdW  Elec       q    Type
                         _______ _______ _______ _____ _____    ______ ____

>  <TORSDO>
F 5

$$$$
=
 OpenBabel10252414523D

 34 38  0  0  1  0  0  0  0  0999 V2000
  189.1060  176.7490  136.3920 C   0  0  2  0  0  3  0  0  0  0  0  0
  190.3090  175.8790  138.3790 N   0  0  2  0  0  0  0  0  0  0  0  0
  189.7930  178.2480  138.3530 C   0  0  0  0  0  2  0  0  0  0  0  0
  190.5270  176.4290  139.7080 C   0  0  0  0  0  2  0  0  0  0  0  0
  189.3530  175.4480  135.6050 C   0  0  0  0  0  2  0  0  0  0  0  0
  191.7500  176.0520  134.9800 C   0  0  0  0  0  1  0  0  0  0  0  0
  191.5450  175.2300  137.9680 C   0  0  0  0  0  2  0  0  0  0  0  0
  191.2870  174.2820  136.7920 C   0  0  1  0  0  3  0  0  0  0  0  0
  189.7840  177.7460  139.7760 C   0  0  2  0  0  3  0  0  0  0  0  0
  190.1320  177.0320  137.5060 C   0  0  2  0  0  3  0  0  0  0  0  0
  190.8080  174.9730  135.5040 C   0  0  1  0  0  3  0  0  0  0  0  0
  187.0370  175.7370  137.1710 N   0  0  0  0  0  0  0  0  0  0  0  0
  186.8830  178.0170  136.9460 C   0  0  0  0  0  0  0  0  0  0  0  0
  185.6430  175.9210  137.5630 C   0  0  1  0  0  3  0  0  0  0  0  0
  185.2180  177.7060  137.4670 S   0  0  0  0  0  0  0  0  0  0  0  0
  187.6820  176.8110  136.8690 C   0  0  0  0  0  0  0  0  0  0  0  0
  184.7450  175.1370  136.6270 C   0  0  0  0  0  1  0  0  0  0  0  0
  187.3120  179.1670  136.6690 O   0  0  0  0  0  0  0  0  0  0  0  0
  194.6760  172.7420  137.0910 C   0  0  0  0  0  0  0  0  0  0  0  0
  194.6360  171.7010  136.1600 C   0  0  0  0  0  3  0  0  0  0  0  0
  192.4510  173.3720  136.5440 C   0  0  0  0  0  0  0  0  0  0  0  0
  193.4750  171.4990  135.4150 C   0  0  0  0  0  3  0  0  0  0  0  0
  193.5920  173.5450  137.2630 N   0  0  0  0  0  0  0  0  0  0  0  0
  192.3740  172.3340  135.6040 C   0  0  0  0  0  3  0  0  0  0  0  0
  196.1220  173.0110  138.0390 Cl  0  0  0  0  0  0  0  0  0  0  0  0
  188.4650  177.5080  140.1650 O   0  0  0  0  0  0  0  0  0  0  0  0
  188.2650  178.3200  141.2860 C   0  0  0  0  0  2  0  0  0  0  0  0
  190.3450  177.1620  143.0680 O   0  0  0  0  0  0  0  0  0  0  0  0
  188.0550  177.4730  142.5360 C   0  0  1  0  0  3  0  0  0  0  0  0
  189.2490  177.5330  143.4550 C   0  0  0  0  0  0  0  0  0  0  0  0
  187.8570  177.4440  145.5370 C   0  0  0  0  0  2  0  0  0  0  0  0
  186.6600  177.1820  144.6040 C   0  0  0  0  0  2  0  0  0  0  0  0
  186.7780  177.9030  143.2620 C   0  0  0  0  0  2  0  0  0  0  0  0
  189.0870  178.0530  144.8520 C   0  0  0  0  0  2  0  0  0  0  0  0
  1 16  1  1  0  0  0
  1 10  1  0  0  0  0
  2  7  1  6  0  0  0
  2  4  1  0  0  0  0
  3  9  1  0  0  0  0
  4  9  1  0  0  0  0
  5  1  1  0  0  0  0
  8 21  1  6  0  0  0
  8  7  1  0  0  0  0
  9 26  1  6  0  0  0
 10  3  1  1  0  0  0
 10  2  1  0  0  0  0
 11  6  1  1  0  0  0
 11  5  1  0  0  0  0
 11  8  1  0  0  0  0
 12 14  1  0  0  0  0
 13 15  1  0  0  0  0
 14 17  1  6  0  0  0
 15 14  1  0  0  0  0
 16 13  1  0  0  0  0
 16 12  2  0  0  0  0
 18 13  2  0  0  0  0
 19 23  1  0  0  0  0
 19 25  1  0  0  0  0
 20 19  2  0  0  0  0
 21 23  2  0  0  0  0
 22 24  2  0  0  0  0
 22 20  1  0  0  0  0
 24 21  1  0  0  0  0
 26 27  1  0  0  0  0
 28 30  2  0  0  0  0
 29 27  1  6  0  0  0
 29 33  1  0  0  0  0
 29 30  1  0  0  0  0
 30 34  1  0  0  0  0
 32 31  1  0  0  0  0
 33 32  1  0  0  0  0
 34 31  1  0  0  0  0
M  END
>  <MODEL>
2

>  <REMARK>
 VINA RESULT:      -7.5      1.584      2.202
  Name = 
  5 active torsions:
  status: ('A' for Active; 'I' for Inactive)
    1  A    between atoms: C_3  and  C_13
    2  A    between atoms: C_3  and  O_17
    3  A    between atoms: C_4  and  C_15
    4  A    between atoms: C_12  and  C_28
    5  A    between atoms: O_17  and  C_29
                            x       y       z     vdW  Elec       q    Type
                         _______ _______ _______ _____ _____    ______ ____

>  <TORSDO>
F 5

$$$$
=
 OpenBabel10252414523D

 34 38  0  0  1  0  0  0  0  0999 V2000
  189.8980  175.9240  136.1190 C   0  0  2  0  0  3  0  0  0  0  0  0
  190.9250  175.8550  138.3740 N   0  0  2  0  0  0  0  0  0  0  0  0
  189.8040  177.9080  137.7360 C   0  0  0  0  0  2  0  0  0  0  0  0
  190.7520  176.6910  139.5520 C   0  0  0  0  0  2  0  0  0  0  0  0
  190.6180  174.6310  135.6910 C   0  0  0  0  0  2  0  0  0  0  0  0
  192.8350  175.7960  135.2110 C   0  0  0  0  0  1  0  0  0  0  0  0
  192.3420  175.5420  138.2670 C   0  0  0  0  0  2  0  0  0  0  0  0
  192.5570  174.3520  137.3260 C   0  0  1  0  0  3  0  0  0  0  0  0
  189.6820  177.7120  139.2270 C   0  0  2  0  0  3  0  0  0  0  0  0
  190.6000  176.7110  137.2410 C   0  0  2  0  0  3  0  0  0  0  0  0
  192.1420  174.6050  135.8660 C   0  0  1  0  0  3  0  0  0  0  0  0
  188.0990  174.6360  137.1260 N   0  0  0  0  0  0  0  0  0  0  0  0
  187.3340  176.3890  135.8550 C   0  0  0  0  0  0  0  0  0  0  0  0
  186.6610  174.4350  137.2850 C   0  0  1  0  0  3  0  0  0  0  0  0
  185.7620  175.7280  136.3380 S   0  0  0  0  0  0  0  0  0  0  0  0
  188.4490  175.6460  136.4060 C   0  0  0  0  0  0  0  0  0  0  0  0
  186.2790  173.0660  136.7600 C   0  0  0  0  0  1  0  0  0  0  0  0
  187.4560  177.3930  135.1060 O   0  0  0  0  0  0  0  0  0  0  0  0
  196.0850  173.8970  138.4640 C   0  0  0  0  0  0  0  0  0  0  0  0
  196.5310  172.8190  137.6970 C   0  0  0  0  0  3  0  0  0  0  0  0
  193.9480  173.8050  137.4290 C   0  0  0  0  0  0  0  0  0  0  0  0
  195.6590  172.2280  136.7820 C   0  0  0  0  0  3  0  0  0  0  0  0
  194.8150  174.3600  138.3170 N   0  0  0  0  0  0  0  0  0  0  0  0
  194.3600  172.7180  136.6440 C   0  0  0  0  0  3  0  0  0  0  0  0
  197.1620  174.6510  139.6190 Cl  0  0  0  0  0  0  0  0  0  0  0  0
  188.4290  177.1670  139.5130 O   0  0  0  0  0  0  0  0  0  0  0  0
  187.5990  178.2680  139.7430 C   0  0  0  0  0  2  0  0  0  0  0  0
  185.4800  179.7920  141.1690 O   0  0  0  0  0  0  0  0  0  0  0  0
  187.5170  178.5790  141.2340 C   0  0  1  0  0  3  0  0  0  0  0  0
  186.1000  178.8660  141.6640 C   0  0  0  0  0  0  0  0  0  0  0  0
  186.3860  177.7720  143.9010 C   0  0  0  0  0  2  0  0  0  0  0  0
  187.8790  177.6590  143.5420 C   0  0  0  0  0  2  0  0  0  0  0  0
  188.1200  177.4330  142.0500 C   0  0  0  0  0  2  0  0  0  0  0  0
  185.4510  178.0050  142.7070 C   0  0  0  0  0  2  0  0  0  0  0  0
  1 16  1  1  0  0  0
  1 10  1  0  0  0  0
  2  7  1  6  0  0  0
  2  4  1  0  0  0  0
  3  9  1  0  0  0  0
  5 11  1  0  0  0  0
  5  1  1  0  0  0  0
  8 21  1  6  0  0  0
  8  7  1  0  0  0  0
  9 26  1  6  0  0  0
  9  4  1  0  0  0  0
 10  3  1  1  0  0  0
 10  2  1  0  0  0  0
 11  6  1  1  0  0  0
 11  8  1  0  0  0  0
 12 14  1  0  0  0  0
 13 15  1  0  0  0  0
 13 16  1  0  0  0  0
 14 17  1  6  0  0  0
 15 14  1  0  0  0  0
 16 12  2  0  0  0  0
 18 13  2  0  0  0  0
 19 25  1  0  0  0  0
 20 19  2  0  0  0  0
 21 23  2  0  0  0  0
 22 20  1  0  0  0  0
 23 19  1  0  0  0  0
 24 22  2  0  0  0  0
 24 21  1  0  0  0  0
 26 27  1  0  0  0  0
 28 30  2  0  0  0  0
 29 27  1  6  0  0  0
 29 30  1  0  0  0  0
 29 33  1  0  0  0  0
 30 34  1  0  0  0  0
 32 31  1  0  0  0  0
 33 32  1  0  0  0  0
 34 31  1  0  0  0  0
M  END
>  <MODEL>
3

>  <REMARK>
 VINA RESULT:      -7.5      1.287      1.582
  Name = 
  5 active torsions:
  status: ('A' for Active; 'I' for Inactive)
    1  A    between atoms: C_3  and  C_13
    2  A    between atoms: C_3  and  O_17
    3  A    between atoms: C_4  and  C_15
    4  A    between atoms: C_12  and  C_28
    5  A    between atoms: O_17  and  C_29
                            x       y       z     vdW  Elec       q    Type
                         _______ _______ _______ _____ _____    ______ ____

>  <TORSDO>
F 5

$$$$
=
 OpenBabel10252414523D

 34 38  0  0  1  0  0  0  0  0999 V2000
  180.8040  178.4110  139.2780 C   0  0  2  0  0  3  0  0  0  0  0  0
  183.0220  177.3060  139.3800 N   0  0  2  0  0  0  0  0  0  0  0  0
  183.0010  179.7070  139.0410 C   0  0  0  0  0  2  0  0  0  0  0  0
  184.3650  177.8280  139.5780 C   0  0  0  0  0  2  0  0  0  0  0  0
  180.0760  177.0590  139.1570 C   0  0  0  0  0  2  0  0  0  0  0  0
  180.5630  176.8000  136.6670 C   0  0  0  0  0  1  0  0  0  0  0  0
  183.1060  176.2630  138.3680 C   0  0  0  0  0  2  0  0  0  0  0  0
  181.8480  175.3880  138.3960 C   0  0  1  0  0  3  0  0  0  0  0  0
  184.2390  179.3180  139.8110 C   0  0  2  0  0  3  0  0  0  0  0  0
  182.2640  178.4010  138.7880 C   0  0  2  0  0  3  0  0  0  0  0  0
  180.5460  176.1250  138.0350 C   0  0  1  0  0  3  0  0  0  0  0  0
  181.0610  178.3090  141.6940 N   0  0  0  0  0  0  0  0  0  0  0  0
  179.9650  180.2020  140.9940 C   0  0  0  0  0  0  0  0  0  0  0  0
  180.7990  178.9250  142.9910 C   0  0  1  0  0  3  0  0  0  0  0  0
  179.8940  180.5040  142.7400 S   0  0  0  0  0  0  0  0  0  0  0  0
  180.6480  178.9670  140.6650 C   0  0  0  0  0  0  0  0  0  0  0  0
  179.9570  177.9900  143.8370 C   0  0  0  0  0  1  0  0  0  0  0  0
  179.4640  180.9800  140.1420 O   0  0  0  0  0  0  0  0  0  0  0  0
  181.0920  172.0970  136.8020 C   0  0  0  0  0  0  0  0  0  0  0  0
  182.2690  171.7990  136.1120 C   0  0  0  0  0  3  0  0  0  0  0  0
  182.0240  174.1320  137.5990 C   0  0  0  0  0  0  0  0  0  0  0  0
  183.3370  172.6940  136.1720 C   0  0  0  0  0  3  0  0  0  0  0  0
  180.9950  173.2470  137.5210 N   0  0  0  0  0  0  0  0  0  0  0  0
  183.2200  173.8670  136.9160 C   0  0  0  0  0  3  0  0  0  0  0  0
  179.7380  170.9890  136.7380 Cl  0  0  0  0  0  0  0  0  0  0  0  0
  184.0200  179.5510  141.1710 O   0  0  0  0  0  0  0  0  0  0  0  0
  185.1710  179.0810  141.8090 C   0  0  0  0  0  2  0  0  0  0  0  0
  186.7720  177.1000  143.3440 O   0  0  0  0  0  0  0  0  0  0  0  0
  184.8210  178.4320  143.1440 C   0  0  1  0  0  3  0  0  0  0  0  0
  186.0520  177.9370  143.8610 C   0  0  0  0  0  0  0  0  0  0  0  0
  185.1590  178.5110  146.1310 C   0  0  0  0  0  2  0  0  0  0  0  0
  183.8320  178.8280  145.4180 C   0  0  0  0  0  2  0  0  0  0  0  0
  184.0290  179.4080  144.0180 C   0  0  0  0  0  2  0  0  0  0  0  0
  186.3920  178.4790  145.2170 C   0  0  0  0  0  2  0  0  0  0  0  0
  1 16  1  1  0  0  0
  2  7  1  6  0  0  0
  2  4  1  0  0  0  0
  3  9  1  0  0  0  0
  4  9  1  0  0  0  0
  5  1  1  0  0  0  0
  7  8  1  0  0  0  0
  8 21  1  6  0  0  0
  9 26  1  1  0  0  0
 10  3  1  1  0  0  0
 10  1  1  0  0  0  0
 10  2  1  0  0  0  0
 11  6  1  6  0  0  0
 11  8  1  0  0  0  0
 11  5  1  0  0  0  0
 12 14  1  0  0  0  0
 13 15  1  0  0  0  0
 14 17  1  1  0  0  0
 15 14  1  0  0  0  0
 16 13  1  0  0  0  0
 16 12  2  0  0  0  0
 18 13  2  0  0  0  0
 19 23  1  0  0  0  0
 20 22  1  0  0  0  0
 20 19  2  0  0  0  0
 22 24  2  0  0  0  0
 23 21  2  0  0  0  0
 24 21  1  0  0  0  0
 25 19  1  0  0  0  0
 26 27  1  0  0  0  0
 28 30  2  0  0  0  0
 29 27  1  6  0  0  0
 29 30  1  0  0  0  0
 29 33  1  0  0  0  0
 30 34  1  0  0  0  0
 32 31  1  0  0  0  0
 33 32  1  0  0  0  0
 34 31  1  0  0  0  0
M  END
>  <MODEL>
4

>  <REMARK>
 VINA RESULT:      -7.4      7.018      8.566
  Name = 
  5 active torsions:
  status: ('A' for Active; 'I' for Inactive)
    1  A    between atoms: C_3  and  C_13
    2  A    between atoms: C_3  and  O_17
    3  A    between atoms: C_4  and  C_15
    4  A    between atoms: C_12  and  C_28
    5  A    between atoms: O_17  and  C_29
                            x       y       z     vdW  Elec       q    Type
                         _______ _______ _______ _____ _____    ______ ____

>  <TORSDO>
F 5

$$$$
=
 OpenBabel10252414523D

 34 38  0  0  1  0  0  0  0  0999 V2000
  190.6490  177.3210  139.4820 C   0  0  2  0  0  3  0  0  0  0  0  0
  188.2100  177.6300  139.8000 N   0  0  2  0  0  0  0  0  0  0  0  0
  189.2800  178.9880  138.1000 C   0  0  0  0  0  2  0  0  0  0  0  0
  187.1880  178.2530  138.9730 C   0  0  0  0  0  2  0  0  0  0  0  0
  190.7710  176.5050  140.7830 C   0  0  0  0  0  2  0  0  0  0  0  0
  190.7710  178.5570  142.2970 C   0  0  0  0  0  1  0  0  0  0  0  0
  187.9290  177.9880  141.1820 C   0  0  0  0  0  2  0  0  0  0  0  0
  188.6820  177.0590  142.1390 C   0  0  1  0  0  3  0  0  0  0  0  0
  187.8570  178.6980  137.6900 C   0  0  2  0  0  3  0  0  0  0  0  0
  189.4560  178.2940  139.4410 C   0  0  2  0  0  3  0  0  0  0  0  0
  190.2160  177.1570  142.0550 C   0  0  1  0  0  3  0  0  0  0  0  0
  189.6990  175.6990  137.9410 N   0  0  0  0  0  0  0  0  0  0  0  0
  191.8980  176.1780  137.4840 C   0  0  0  0  0  0  0  0  0  0  0  0
  189.9040  174.8110  136.7990 C   0  0  1  0  0  3  0  0  0  0  0  0
  191.6350  174.9780  136.2060 S   0  0  0  0  0  0  0  0  0  0  0  0
  190.7150  176.4130  138.2860 C   0  0  0  0  0  0  0  0  0  0  0  0
  189.6490  173.3770  137.2190 C   0  0  0  0  0  1  0  0  0  0  0  0
  193.0020  176.7530  137.6680 O   0  0  0  0  0  0  0  0  0  0  0  0
  188.6680  177.1280  145.8740 C   0  0  0  0  0  0  0  0  0  0  0  0
  187.3430  177.4430  146.1810 C   0  0  0  0  0  3  0  0  0  0  0  0
  188.1860  177.1870  143.5470 C   0  0  0  0  0  0  0  0  0  0  0  0
  186.4310  177.6360  145.1440 C   0  0  0  0  0  3  0  0  0  0  0  0
  189.0580  177.0100  144.5760 N   0  0  0  0  0  0  0  0  0  0  0  0
  186.8480  177.5090  143.8190 C   0  0  0  0  0  3  0  0  0  0  0  0
  189.8300  176.8860  147.1600 Cl  0  0  0  0  0  0  0  0  0  0  0  0
  187.8530  177.6390  136.7800 O   0  0  0  0  0  0  0  0  0  0  0  0
  186.9050  177.9950  135.8150 C   0  0  0  0  0  2  0  0  0  0  0  0
  187.2060  175.1850  134.8890 O   0  0  0  0  0  0  0  0  0  0  0  0
  185.8210  176.9290  135.7040 C   0  0  1  0  0  3  0  0  0  0  0  0
  186.4040  175.5380  135.7370 C   0  0  0  0  0  0  0  0  0  0  0  0
  184.4730  174.5840  137.0180 C   0  0  0  0  0  2  0  0  0  0  0  0
  183.7910  175.9490  136.8100 C   0  0  0  0  0  2  0  0  0  0  0  0
  184.7770  177.1160  136.8080 C   0  0  0  0  0  2  0  0  0  0  0  0
  185.9940  174.5860  136.8210 C   0  0  0  0  0  2  0  0  0  0  0  0
  1 16  1  6  0  0  0
  1  5  1  0  0  0  0
  2  4  1  6  0  0  0
  2  7  1  0  0  0  0
  5 11  1  0  0  0  0
  7  8  1  0  0  0  0
  8 21  1  1  0  0  0
  9 26  1  6  0  0  0
  9  3  1  0  0  0  0
  9  4  1  0  0  0  0
 10  3  1  6  0  0  0
 10  1  1  0  0  0  0
 10  2  1  0  0  0  0
 11  8  1  0  0  0  0
 11  6  1  6  0  0  0
 12 16  2  0  0  0  0
 13 18  2  0  0  0  0
 13 16  1  0  0  0  0
 14 17  1  1  0  0  0
 14 12  1  0  0  0  0
 15 14  1  0  0  0  0
 15 13  1  0  0  0  0
 19 20  1  0  0  0  0
 19 25  1  0  0  0  0
 21 24  2  0  0  0  0
 21 23  1  0  0  0  0
 22 20  2  0  0  0  0
 23 19  2  0  0  0  0
 24 22  1  0  0  0  0
 27 26  1  0  0  0  0
 28 30  2  0  0  0  0
 29 30  1  0  0  0  0
 29 27  1  1  0  0  0
 29 33  1  0  0  0  0
 30 34  1  0  0  0  0
 32 31  1  0  0  0  0
 33 32  1  0  0  0  0
 34 31  1  0  0  0  0
M  END
>  <MODEL>
5

>  <REMARK>
 VINA RESULT:      -7.3      3.205      6.817
  Name = 
  5 active torsions:
  status: ('A' for Active; 'I' for Inactive)
    1  A    between atoms: C_3  and  C_13
    2  A    between atoms: C_3  and  O_17
    3  A    between atoms: C_4  and  C_15
    4  A    between atoms: C_12  and  C_28
    5  A    between atoms: O_17  and  C_29
                            x       y       z     vdW  Elec       q    Type
                         _______ _______ _______ _____ _____    ______ ____

>  <TORSDO>
F 5

$$$$
=
 OpenBabel10252414523D

 34 38  0  0  1  0  0  0  0  0999 V2000
  188.5060  176.8260  136.2000 C   0  0  2  0  0  3  0  0  0  0  0  0
  189.7400  176.2000  138.2580 N   0  0  2  0  0  0  0  0  0  0  0  0
  189.0450  178.5130  138.0520 C   0  0  0  0  0  2  0  0  0  0  0  0
  189.8940  176.8610  139.5440 C   0  0  0  0  0  2  0  0  0  0  0  0
  188.8650  175.4950  135.5140 C   0  0  0  0  0  2  0  0  0  0  0  0
  191.2180  176.2360  134.8710 C   0  0  0  0  0  1  0  0  0  0  0  0
  191.0290  175.6210  137.9090 C   0  0  0  0  0  2  0  0  0  0  0  0
  190.8630  174.5720  136.8040 C   0  0  1  0  0  3  0  0  0  0  0  0
  189.0520  178.1180  139.5080 C   0  0  2  0  0  3  0  0  0  0  0  0
  189.4900  177.2690  137.3000 C   0  0  2  0  0  3  0  0  0  0  0  0
  190.3530  175.1280  135.4630 C   0  0  1  0  0  3  0  0  0  0  0  0
  186.3790  177.8970  136.6860 N   0  0  0  0  0  0  0  0  0  0  0  0
  186.3790  175.6550  137.1780 C   0  0  0  0  0  0  0  0  0  0  0  0
  185.0200  177.7680  137.2050 C   0  0  1  0  0  3  0  0  0  0  0  0
  184.7270  176.0240  137.7040 S   0  0  0  0  0  0  0  0  0  0  0  0
  187.0740  176.8130  136.6560 C   0  0  0  0  0  0  0  0  0  0  0  0
  184.8470  178.6740  138.4070 C   0  0  0  0  0  1  0  0  0  0  0  0
  186.8840  174.5050  137.2620 O   0  0  0  0  0  0  0  0  0  0  0  0
  193.1090  171.7810  135.7460 C   0  0  0  0  0  0  0  0  0  0  0  0
  194.3520  172.1620  136.2560 C   0  0  0  0  0  3  0  0  0  0  0  0
  192.0970  173.7400  136.6360 C   0  0  0  0  0  0  0  0  0  0  0  0
  194.4590  173.3590  136.9650 C   0  0  0  0  0  3  0  0  0  0  0  0
  192.0200  172.5720  135.9430 N   0  0  0  0  0  0  0  0  0  0  0  0
  193.3310  174.1560  137.1580 C   0  0  0  0  0  3  0  0  0  0  0  0
  192.9530  170.2860  134.8510 Cl  0  0  0  0  0  0  0  0  0  0  0  0
  187.7480  177.8060  139.9000 O   0  0  0  0  0  0  0  0  0  0  0  0
  187.4680  178.6810  140.9550 C   0  0  0  0  0  2  0  0  0  0  0  0
  188.4480  176.5430  142.7750 O   0  0  0  0  0  0  0  0  0  0  0  0
  186.6930  177.9660  142.0560 C   0  0  1  0  0  3  0  0  0  0  0  0
  187.6160  177.3760  143.0930 C   0  0  0  0  0  0  0  0  0  0  0  0
  186.0500  177.8470  144.9920 C   0  0  0  0  0  2  0  0  0  0  0  0
  185.0310  178.2630  143.9150 C   0  0  0  0  0  2  0  0  0  0  0  0
  185.6810  178.9190  142.6980 C   0  0  0  0  0  2  0  0  0  0  0  0
  187.5110  177.8190  144.5220 C   0  0  0  0  0  2  0  0  0  0  0  0
  1 16  1  1  0  0  0
  1 10  1  0  0  0  0
  2  7  1  6  0  0  0
  2  4  1  0  0  0  0
  3  9  1  0  0  0  0
  5  1  1  0  0  0  0
  8 21  1  6  0  0  0
  8  7  1  0  0  0  0
  9  4  1  0  0  0  0
  9 26  1  6  0  0  0
 10  3  1  1  0  0  0
 10  2  1  0  0  0  0
 11  6  1  1  0  0  0
 11  5  1  0  0  0  0
 11  8  1  0  0  0  0
 12 14  1  0  0  0  0
 13 18  2  0  0  0  0
 13 15  1  0  0  0  0
 14 15  1  0  0  0  0
 14 17  1  1  0  0  0
 16 12  2  0  0  0  0
 16 13  1  0  0  0  0
 19 23  2  0  0  0  0
 19 20  1  0  0  0  0
 20 22  2  0  0  0  0
 21 24  2  0  0  0  0
 22 24  1  0  0  0  0
 23 21  1  0  0  0  0
 25 19  1  0  0  0  0
 26 27  1  0  0  0  0
 28 30  2  0  0  0  0
 29 27  1  6  0  0  0
 29 33  1  0  0  0  0
 29 30  1  0  0  0  0
 30 34  1  0  0  0  0
 32 31  1  0  0  0  0
 33 32  1  0  0  0  0
 34 31  1  0  0  0  0
M  END
>  <MODEL>
6

>  <REMARK>
 VINA RESULT:      -6.8      1.934      2.456
  Name = 
  5 active torsions:
  status: ('A' for Active; 'I' for Inactive)
    1  A    between atoms: C_3  and  C_13
    2  A    between atoms: C_3  and  O_17
    3  A    between atoms: C_4  and  C_15
    4  A    between atoms: C_12  and  C_28
    5  A    between atoms: O_17  and  C_29
                            x       y       z     vdW  Elec       q    Type
                         _______ _______ _______ _____ _____    ______ ____

>  <TORSDO>
F 5

$$$$
=
 OpenBabel10252414523D

 34 38  0  0  1  0  0  0  0  0999 V2000
  190.4220  176.8190  138.3270 C   0  0  2  0  0  3  0  0  0  0  0  0
  188.2010  177.5280  139.1720 N   0  0  2  0  0  0  0  0  0  0  0  0
  189.0560  178.6810  137.2170 C   0  0  0  0  0  2  0  0  0  0  0  0
  187.1300  178.3060  138.5700 C   0  0  0  0  0  2  0  0  0  0  0  0
  190.7070  176.0030  139.6020 C   0  0  0  0  0  2  0  0  0  0  0  0
  191.3810  178.0350  140.9860 C   0  0  0  0  0  1  0  0  0  0  0  0
  188.3050  177.9360  140.5650 C   0  0  0  0  0  2  0  0  0  0  0  0
  189.1010  176.9010  141.3680 C   0  0  1  0  0  3  0  0  0  0  0  0
  187.5490  178.6280  137.1520 C   0  0  2  0  0  3  0  0  0  0  0  0
  189.4220  177.9760  138.5140 C   0  0  2  0  0  3  0  0  0  0  0  0
  190.5690  176.7450  140.9370 C   0  0  1  0  0  3  0  0  0  0  0  0
  188.9910  175.1970  137.2190 N   0  0  0  0  0  0  0  0  0  0  0  0
  190.8990  175.6600  136.0280 C   0  0  0  0  0  0  0  0  0  0  0  0
  188.7840  174.3040  136.0820 C   0  0  1  0  0  3  0  0  0  0  0  0
  190.2050  174.4560  134.9270 S   0  0  0  0  0  0  0  0  0  0  0  0
  190.0660  175.9060  137.1880 C   0  0  0  0  0  0  0  0  0  0  0  0
  188.6830  172.8730  136.5730 C   0  0  0  0  0  1  0  0  0  0  0  0
  192.0020  176.2280  135.8170 O   0  0  0  0  0  0  0  0  0  0  0  0
  187.5740  177.6790  144.6870 C   0  0  0  0  0  0  0  0  0  0  0  0
  188.6380  177.5050  145.5750 C   0  0  0  0  0  3  0  0  0  0  0  0
  188.9670  177.1180  142.8440 C   0  0  0  0  0  0  0  0  0  0  0  0
  189.8860  177.1280  145.0780 C   0  0  0  0  0  3  0  0  0  0  0  0
  187.7600  177.4810  143.3540 N   0  0  0  0  0  0  0  0  0  0  0  0
  190.0570  176.9310  143.7070 C   0  0  0  0  0  3  0  0  0  0  0  0
  186.0000  178.1480  145.2900 Cl  0  0  0  0  0  0  0  0  0  0  0  0
  187.1680  177.5790  136.3130 O   0  0  0  0  0  0  0  0  0  0  0  0
  185.7810  177.4820  136.4610 C   0  0  0  0  0  2  0  0  0  0  0  0
  183.7760  176.3480  138.3420 O   0  0  0  0  0  0  0  0  0  0  0  0
  185.3530  176.0260  136.6000 C   0  0  1  0  0  3  0  0  0  0  0  0
  183.9850  175.9060  137.2250 C   0  0  0  0  0  0  0  0  0  0  0  0
  183.3450  173.9220  135.8340 C   0  0  0  0  0  2  0  0  0  0  0  0
  184.8040  173.9220  135.3440 C   0  0  0  0  0  2  0  0  0  0  0  0
  185.4010  175.3250  135.2400 C   0  0  0  0  0  2  0  0  0  0  0  0
  182.8760  175.2390  136.4660 C   0  0  0  0  0  2  0  0  0  0  0  0
  1 16  1  6  0  0  0
  1 10  1  0  0  0  0
  1  5  1  0  0  0  0
  2  4  1  6  0  0  0
  2  7  1  0  0  0  0
  5 11  1  0  0  0  0
  7  8  1  0  0  0  0
  8 21  1  1  0  0  0
  9 26  1  6  0  0  0
  9  3  1  0  0  0  0
  9  4  1  0  0  0  0
 10  3  1  6  0  0  0
 10  2  1  0  0  0  0
 11  6  1  6  0  0  0
 11  8  1  0  0  0  0
 13 16  1  0  0  0  0
 14 17  1  1  0  0  0
 14 12  1  0  0  0  0
 15 13  1  0  0  0  0
 15 14  1  0  0  0  0
 16 12  2  0  0  0  0
 18 13  2  0  0  0  0
 19 25  1  0  0  0  0
 19 20  1  0  0  0  0
 21 23  1  0  0  0  0
 21 24  2  0  0  0  0
 22 20  2  0  0  0  0
 23 19  2  0  0  0  0
 24 22  1  0  0  0  0
 26 27  1  0  0  0  0
 29 27  1  6  0  0  0
 29 30  1  0  0  0  0
 30 28  2  0  0  0  0
 31 34  1  0  0  0  0
 32 31  1  0  0  0  0
 33 32  1  0  0  0  0
 33 29  1  0  0  0  0
 34 30  1  0  0  0  0
M  END
>  <MODEL>
7

>  <REMARK>
 VINA RESULT:      -6.7      3.454      6.396
  Name = 
  5 active torsions:
  status: ('A' for Active; 'I' for Inactive)
    1  A    between atoms: C_3  and  C_13
    2  A    between atoms: C_3  and  O_17
    3  A    between atoms: C_4  and  C_15
    4  A    between atoms: C_12  and  C_28
    5  A    between atoms: O_17  and  C_29
                            x       y       z     vdW  Elec       q    Type
                         _______ _______ _______ _____ _____    ______ ____

>  <TORSDO>
F 5

$$$$
=
 OpenBabel10252414523D

 34 38  0  0  1  0  0  0  0  0999 V2000
  190.2190  176.7420  137.8360 C   0  0  2  0  0  3  0  0  0  0  0  0
  188.5150  177.4480  139.4930 N   0  0  2  0  0  0  0  0  0  0  0  0
  188.5660  178.6480  137.3870 C   0  0  0  0  0  2  0  0  0  0  0  0
  187.3090  178.2530  139.3730 C   0  0  0  0  0  2  0  0  0  0  0  0
  190.9600  175.8870  138.8810 C   0  0  0  0  0  2  0  0  0  0  0  0
  192.1590  177.8720  139.9410 C   0  0  0  0  0  1  0  0  0  0  0  0
  189.1590  177.8150  140.7460 C   0  0  0  0  0  2  0  0  0  0  0  0
  190.1830  176.7490  141.1530 C   0  0  1  0  0  3  0  0  0  0  0  0
  187.1520  178.6110  137.9100 C   0  0  2  0  0  3  0  0  0  0  0  0
  189.3930  177.9020  138.4230 C   0  0  2  0  0  3  0  0  0  0  0  0
  191.3660  176.5920  140.1820 C   0  0  1  0  0  3  0  0  0  0  0  0
  188.6230  174.9710  137.3610 N   0  0  0  0  0  0  0  0  0  0  0  0
  189.5570  175.8610  135.4610 C   0  0  0  0  0  0  0  0  0  0  0  0
  187.9610  174.1410  136.3590 C   0  0  1  0  0  3  0  0  0  0  0  0
  188.5380  174.6350  134.6860 S   0  0  0  0  0  0  0  0  0  0  0  0
  189.4310  175.8660  136.9040 C   0  0  0  0  0  0  0  0  0  0  0  0
  188.3010  172.6840  136.6010 C   0  0  0  0  0  1  0  0  0  0  0  0
  190.3100  176.6350  134.8150 O   0  0  0  0  0  0  0  0  0  0  0  0
  191.6760  175.9870  144.4900 C   0  0  0  0  0  0  0  0  0  0  0  0
  191.5330  177.1900  145.1850 C   0  0  0  0  0  3  0  0  0  0  0  0
  190.6370  176.9250  142.5690 C   0  0  0  0  0  0  0  0  0  0  0  0
  190.9320  178.2760  144.5490 C   0  0  0  0  0  3  0  0  0  0  0  0
  191.2310  175.8830  143.2090 N   0  0  0  0  0  0  0  0  0  0  0  0
  190.4800  178.1500  143.2360 C   0  0  0  0  0  3  0  0  0  0  0  0
  192.4300  174.6130  145.2680 Cl  0  0  0  0  0  0  0  0  0  0  0  0
  186.4540  177.5900  137.2620 O   0  0  0  0  0  0  0  0  0  0  0  0
  185.1420  178.0600  137.1530 C   0  0  0  0  0  2  0  0  0  0  0  0
  184.2500  180.1290  139.0940 O   0  0  0  0  0  0  0  0  0  0  0  0
  184.3830  177.8480  138.4590 C   0  0  1  0  0  3  0  0  0  0  0  0
  183.6430  179.0930  138.8800 C   0  0  0  0  0  0  0  0  0  0  0  0
  181.7020  177.8170  139.8200 C   0  0  0  0  0  2  0  0  0  0  0  0
  182.5430  176.5520  139.5730 C   0  0  0  0  0  2  0  0  0  0  0  0
  183.4310  176.6560  138.3340 C   0  0  0  0  0  2  0  0  0  0  0  0
  182.1520  179.0560  139.0330 C   0  0  0  0  0  2  0  0  0  0  0  0
  1 16  1  1  0  0  0
  1 10  1  0  0  0  0
  1  5  1  0  0  0  0
  2  4  1  6  0  0  0
  2  7  1  0  0  0  0
  3  9  1  0  0  0  0
  5 11  1  0  0  0  0
  7  8  1  0  0  0  0
  8 21  1  1  0  0  0
  9 26  1  6  0  0  0
  9  4  1  0  0  0  0
 10  3  1  6  0  0  0
 10  2  1  0  0  0  0
 11  6  1  6  0  0  0
 11  8  1  0  0  0  0
 13 16  1  0  0  0  0
 14 17  1  1  0  0  0
 14 12  1  0  0  0  0
 15 13  1  0  0  0  0
 15 14  1  0  0  0  0
 16 12  2  0  0  0  0
 18 13  2  0  0  0  0
 19 20  1  0  0  0  0
 19 25  1  0  0  0  0
 21 23  1  0  0  0  0
 21 24  2  0  0  0  0
 22 20  2  0  0  0  0
 23 19  2  0  0  0  0
 24 22  1  0  0  0  0
 27 26  1  0  0  0  0
 29 27  1  6  0  0  0
 29 30  1  0  0  0  0
 30 34  1  0  0  0  0
 30 28  2  0  0  0  0
 32 31  1  0  0  0  0
 33 29  1  0  0  0  0
 33 32  1  0  0  0  0
 34 31  1  0  0  0  0
M  END
>  <MODEL>
8

>  <REMARK>
 VINA RESULT:      -6.7      3.150      4.931
  Name = 
  5 active torsions:
  status: ('A' for Active; 'I' for Inactive)
    1  A    between atoms: C_3  and  C_13
    2  A    between atoms: C_3  and  O_17
    3  A    between atoms: C_4  and  C_15
    4  A    between atoms: C_12  and  C_28
    5  A    between atoms: O_17  and  C_29
                            x       y       z     vdW  Elec       q    Type
                         _______ _______ _______ _____ _____    ______ ____

>  <TORSDO>
F 5

$$$$
=
 OpenBabel10252414523D

 34 38  0  0  1  0  0  0  0  0999 V2000
  187.8910  177.4140  136.5960 C   0  0  2  0  0  3  0  0  0  0  0  0
  189.2500  176.3220  138.3600 N   0  0  2  0  0  0  0  0  0  0  0  0
  188.8970  178.7130  138.5620 C   0  0  0  0  0  2  0  0  0  0  0  0
  189.6550  176.7540  139.6890 C   0  0  0  0  0  2  0  0  0  0  0  0
  187.9580  176.1660  135.6960 C   0  0  0  0  0  2  0  0  0  0  0  0
  190.3030  176.6730  134.8350 C   0  0  0  0  0  1  0  0  0  0  0  0
  190.3850  175.6350  137.7610 C   0  0  0  0  0  2  0  0  0  0  0  0
  189.9300  174.7980  136.5600 C   0  0  1  0  0  3  0  0  0  0  0  0
  189.0170  178.1030  139.9370 C   0  0  2  0  0  3  0  0  0  0  0  0
  189.0540  177.5480  137.5970 C   0  0  2  0  0  3  0  0  0  0  0  0
  189.3560  175.6150  135.3890 C   0  0  1  0  0  3  0  0  0  0  0  0
  186.0990  178.6570  137.6690 N   0  0  0  0  0  0  0  0  0  0  0  0
  185.6600  176.4080  137.5270 C   0  0  0  0  0  0  0  0  0  0  0  0
  184.7980  178.6270  138.3320 C   0  0  1  0  0  3  0  0  0  0  0  0
  184.1830  176.8960  138.3760 S   0  0  0  0  0  0  0  0  0  0  0  0
  186.5380  177.5240  137.2410 C   0  0  0  0  0  0  0  0  0  0  0  0
  184.9370  179.1500  139.7470 C   0  0  0  0  0  1  0  0  0  0  0  0
  185.9110  175.2140  137.2180 O   0  0  0  0  0  0  0  0  0  0  0  0
  193.2390  173.0860  136.2970 C   0  0  0  0  0  0  0  0  0  0  0  0
  193.0050  172.0830  135.3540 C   0  0  0  0  0  3  0  0  0  0  0  0
  190.9940  173.8430  136.1120 C   0  0  0  0  0  0  0  0  0  0  0  0
  191.7360  171.9650  134.7870 C   0  0  0  0  0  3  0  0  0  0  0  0
  192.2380  173.9340  136.6540 N   0  0  0  0  0  0  0  0  0  0  0  0
  190.7220  172.8450  135.1650 C   0  0  0  0  0  3  0  0  0  0  0  0
  194.8230  173.2500  137.0230 Cl  0  0  0  0  0  0  0  0  0  0  0  0
  187.7360  177.9140  140.4620 O   0  0  0  0  0  0  0  0  0  0  0  0
  187.7340  178.6140  141.6730 C   0  0  0  0  0  2  0  0  0  0  0  0
  189.8770  177.0830  143.0540 O   0  0  0  0  0  0  0  0  0  0  0  0
  187.5850  177.6560  142.8500 C   0  0  1  0  0  3  0  0  0  0  0  0
  188.8780  177.5060  143.6120 C   0  0  0  0  0  0  0  0  0  0  0  0
  187.7350  177.3150  145.8340 C   0  0  0  0  0  2  0  0  0  0  0  0
  186.4180  177.2670  145.0390 C   0  0  0  0  0  2  0  0  0  0  0  0
  186.4530  178.1180  143.7710 C   0  0  0  0  0  2  0  0  0  0  0  0
  188.9340  177.8820  145.0630 C   0  0  0  0  0  2  0  0  0  0  0  0
  1 16  1  1  0  0  0
  1 10  1  0  0  0  0
  2  7  1  6  0  0  0
  2  4  1  0  0  0  0
  3  9  1  0  0  0  0
  4  9  1  0  0  0  0
  5  1  1  0  0  0  0
  8 21  1  6  0  0  0
  8  7  1  0  0  0  0
  9 26  1  6  0  0  0
 10  2  1  0  0  0  0
 10  3  1  1  0  0  0
 11  6  1  1  0  0  0
 11  5  1  0  0  0  0
 11  8  1  0  0  0  0
 12 14  1  0  0  0  0
 13 15  1  0  0  0  0
 14 15  1  0  0  0  0
 14 17  1  1  0  0  0
 16 13  1  0  0  0  0
 16 12  2  0  0  0  0
 18 13  2  0  0  0  0
 19 23  1  0  0  0  0
 19 25  1  0  0  0  0
 20 19  2  0  0  0  0
 21 23  2  0  0  0  0
 22 24  2  0  0  0  0
 22 20  1  0  0  0  0
 24 21  1  0  0  0  0
 26 27  1  0  0  0  0
 28 30  2  0  0  0  0
 29 27  1  6  0  0  0
 29 30  1  0  0  0  0
 29 33  1  0  0  0  0
 30 34  1  0  0  0  0
 32 31  1  0  0  0  0
 33 32  1  0  0  0  0
 34 31  1  0  0  0  0
M  END
>  <MODEL>
9

>  <REMARK>
 VINA RESULT:      -6.5      1.964      2.747
  Name = 
  5 active torsions:
  status: ('A' for Active; 'I' for Inactive)
    1  A    between atoms: C_3  and  C_13
    2  A    between atoms: C_3  and  O_17
    3  A    between atoms: C_4  and  C_15
    4  A    between atoms: C_12  and  C_28
    5  A    between atoms: O_17  and  C_29
                            x       y       z     vdW  Elec       q    Type
                         _______ _______ _______ _____ _____    ______ ____

>  <TORSDO>
F 5

$$$$
