=
 OpenBabel10262419483D

 25 28  0  0  1  0  0  0  0  0999 V2000
  187.0690  177.8900  145.2290 C   0  0  0  0  0  0  0  0  0  0  0  0
  188.3190  177.4860  144.7490 C   0  0  0  0  0  0  0  0  0  0  0  0
  187.8830  177.7580  147.4770 N   0  0  0  0  0  0  0  0  0  0  0  0
  185.9060  178.2070  144.5120 C   0  0  0  0  0  0  0  0  0  0  0  0
  183.4230  178.9100  143.4460 C   0  0  0  0  0  3  0  0  0  0  0  0
  189.0830  177.3720  147.0290 N   0  0  0  0  0  0  0  0  0  0  0  0
  184.8480  178.5710  145.3450 C   0  0  0  0  0  0  0  0  0  0  0  0
  183.6000  178.9250  144.8380 C   0  0  0  0  0  3  0  0  0  0  0  0
  190.6030  176.8240  145.2340 C   0  0  0  0  0  0  0  0  0  0  0  0
  191.7190  176.5420  146.1800 C   0  0  0  0  0  1  0  0  0  0  0  0
  188.5680  177.3440  143.4190 N   0  0  0  0  0  0  0  0  0  0  0  0
  184.4830  178.5450  142.5950 C   0  0  0  0  0  3  0  0  0  0  0  0
  186.8860  178.0150  146.5970 C   0  0  0  0  0  0  0  0  0  0  0  0
  185.3170  178.5100  146.9670 S   0  0  0  0  0  0  0  0  0  0  0  0
  190.8250  176.6900  143.8620 C   0  0  0  0  0  3  0  0  0  0  0  0
  185.7340  178.1910  143.1250 C   0  0  0  0  0  3  0  0  0  0  0  0
  189.7870  176.9490  142.9620 C   0  0  0  0  0  0  0  0  0  0  0  0
  189.3390  177.2260  145.6930 C   0  0  0  0  0  0  0  0  0  0  0  0
  190.0250  176.8290  141.4990 C   0  0  0  0  0  2  0  0  0  0  0  0
  188.7610  177.7670  140.5920 S   0  0  0  0  0  0  0  0  0  0  0  0
  189.7920  177.8710  139.0970 C   0  0  1  0  0  3  0  0  0  0  0  0
  190.4330  176.5250  138.8090 C   0  0  0  0  0  1  0  0  0  0  0  0
  188.9730  178.3170  137.9310 C   0  0  0  0  0  0  0  0  0  0  0  0
  188.9800  179.6540  137.5600 O   0  0  0  0  0  1  0  0  0  0  0  0
  188.2740  177.4920  137.2830 O   0  0  0  0  0  0  0  0  0  0  0  0
  1 13  1  0  0  0  0
  2  1  2  0  0  0  0
  2 18  1  0  0  0  0
  4  1  1  0  0  0  0
  4  7  1  0  0  0  0
  5  8  1  0  0  0  0
  6  3  1  0  0  0  0
  7 14  1  0  0  0  0
  8  7  2  0  0  0  0
  9 18  1  0  0  0  0
  9 10  1  0  0  0  0
 11  2  1  0  0  0  0
 12 16  1  0  0  0  0
 12  5  2  0  0  0  0
 13 14  1  0  0  0  0
 13  3  2  0  0  0  0
 15  9  2  0  0  0  0
 16  4  2  0  0  0  0
 17 11  2  0  0  0  0
 17 15  1  0  0  0  0
 18  6  2  0  0  0  0
 19 17  1  0  0  0  0
 20 19  1  0  0  0  0
 21 22  1  6  0  0  0
 21 20  1  0  0  0  0
 23 21  1  0  0  0  0
 24 23  1  0  0  0  0
 25 23  2  0  0  0  0
M  END
>  <MODEL>
1

>  <REMARK>
 VINA RESULT:      -9.7      0.000      0.000
  Name = 
  4 active torsions:
  status: ('A' for Active; 'I' for Inactive)
    1  A    between atoms: C_2  and  C_21
    2  A    between atoms: C_6  and  S_15
    3  A    between atoms: C_6  and  C_23
    4  A    between atoms: S_15  and  C_21
                            x       y       z     vdW  Elec       q    Type
                         _______ _______ _______ _____ _____    ______ ____

>  <TORSDO>
F 4

$$$$
=
 OpenBabel10262419483D

 25 28  0  0  1  0  0  0  0  0999 V2000
  187.2700  177.8180  145.4730 C   0  0  0  0  0  0  0  0  0  0  0  0
  188.5670  177.3740  145.1960 C   0  0  0  0  0  0  0  0  0  0  0  0
  187.7700  177.8420  147.8140 N   0  0  0  0  0  0  0  0  0  0  0  0
  186.2190  178.0910  144.5850 C   0  0  0  0  0  0  0  0  0  0  0  0
  183.9140  178.7310  143.1450 C   0  0  0  0  0  3  0  0  0  0  0  0
  189.0140  177.4180  147.5610 N   0  0  0  0  0  0  0  0  0  0  0  0
  185.0640  178.5190  145.2380 C   0  0  0  0  0  0  0  0  0  0  0  0
  183.9010  178.8440  144.5430 C   0  0  0  0  0  3  0  0  0  0  0  0
  190.7530  176.7350  146.0320 C   0  0  0  0  0  0  0  0  0  0  0  0
  191.7270  176.5140  147.1380 C   0  0  0  0  0  1  0  0  0  0  0  0
  188.9900  177.1360  143.9250 N   0  0  0  0  0  0  0  0  0  0  0  0
  185.0730  178.3000  142.4730 C   0  0  0  0  0  3  0  0  0  0  0  0
  186.9050  178.0420  146.7910 C   0  0  0  0  0  0  0  0  0  0  0  0
  185.3090  178.5710  146.9090 S   0  0  0  0  0  0  0  0  0  0  0  0
  191.1560  176.5010  144.7150 C   0  0  0  0  0  3  0  0  0  0  0  0
  186.2350  177.9770  143.1910 C   0  0  0  0  0  3  0  0  0  0  0  0
  190.2530  176.7020  143.6660 C   0  0  0  0  0  0  0  0  0  0  0  0
  189.4460  177.1760  146.2850 C   0  0  0  0  0  0  0  0  0  0  0  0
  190.6850  176.4770  142.2610 C   0  0  0  0  0  2  0  0  0  0  0  0
  189.4380  177.1450  141.1210 S   0  0  0  0  0  0  0  0  0  0  0  0
  190.6890  177.5690  139.8700 C   0  0  1  0  0  3  0  0  0  0  0  0
  192.0820  177.4500  140.4630 C   0  0  0  0  0  1  0  0  0  0  0  0
  190.5530  176.6810  138.6790 C   0  0  0  0  0  0  0  0  0  0  0  0
  190.2110  177.2290  137.4500 O   0  0  0  0  0  0  0  0  0  0  0  0
  190.7440  175.4390  138.7770 O   0  0  0  0  0  1  0  0  0  0  0  0
  1 13  1  0  0  0  0
  2  1  2  0  0  0  0
  2 18  1  0  0  0  0
  4  7  1  0  0  0  0
  4  1  1  0  0  0  0
  5  8  1  0  0  0  0
  6  3  1  0  0  0  0
  7 14  1  0  0  0  0
  8  7  2  0  0  0  0
  9 18  1  0  0  0  0
  9 10  1  0  0  0  0
 11  2  1  0  0  0  0
 12  5  2  0  0  0  0
 12 16  1  0  0  0  0
 13 14  1  0  0  0  0
 13  3  2  0  0  0  0
 15  9  2  0  0  0  0
 16  4  2  0  0  0  0
 17 11  2  0  0  0  0
 17 15  1  0  0  0  0
 18  6  2  0  0  0  0
 19 17  1  0  0  0  0
 20 19  1  0  0  0  0
 21 22  1  1  0  0  0
 21 20  1  0  0  0  0
 23 25  1  0  0  0  0
 23 21  1  0  0  0  0
 24 23  2  0  0  0  0
M  END
>  <MODEL>
2

>  <REMARK>
 VINA RESULT:      -9.6      1.125      1.298
  Name = 
  4 active torsions:
  status: ('A' for Active; 'I' for Inactive)
    1  A    between atoms: C_2  and  C_21
    2  A    between atoms: C_6  and  S_15
    3  A    between atoms: C_6  and  C_23
    4  A    between atoms: S_15  and  C_21
                            x       y       z     vdW  Elec       q    Type
                         _______ _______ _______ _____ _____    ______ ____

>  <TORSDO>
F 4

$$$$
=
 OpenBabel10262419483D

 25 28  0  0  1  0  0  0  0  0999 V2000
  187.2950  177.9730  145.8290 C   0  0  0  0  0  0  0  0  0  0  0  0
  186.4990  178.2290  144.7080 C   0  0  0  0  0  0  0  0  0  0  0  0
  185.4480  178.4790  147.2660 N   0  0  0  0  0  0  0  0  0  0  0  0
  188.6410  177.5810  145.8880 C   0  0  0  0  0  0  0  0  0  0  0  0
  191.2720  176.8030  146.4050 C   0  0  0  0  0  3  0  0  0  0  0  0
  184.6760  178.7240  146.2010 N   0  0  0  0  0  0  0  0  0  0  0  0
  189.0940  177.4210  147.1970 C   0  0  0  0  0  0  0  0  0  0  0  0
  190.4020  177.0340  147.4810 C   0  0  0  0  0  3  0  0  0  0  0  0
  184.3360  178.8690  143.8150 C   0  0  0  0  0  0  0  0  0  0  0  0
  182.9100  179.2710  143.9780 C   0  0  0  0  0  1  0  0  0  0  0  0
  186.9810  178.1150  143.4410 N   0  0  0  0  0  0  0  0  0  0  0  0
  190.8270  176.9600  145.0800 C   0  0  0  0  0  3  0  0  0  0  0  0
  186.7390  178.1080  147.0910 C   0  0  0  0  0  0  0  0  0  0  0  0
  187.8600  177.7570  148.3010 S   0  0  0  0  0  0  0  0  0  0  0  0
  184.8620  178.7420  142.5270 C   0  0  0  0  0  3  0  0  0  0  0  0
  189.5050  177.3510  144.8130 C   0  0  0  0  0  3  0  0  0  0  0  0
  186.1980  178.3670  142.3570 C   0  0  0  0  0  0  0  0  0  0  0  0
  185.1550  178.6120  144.9240 C   0  0  0  0  0  0  0  0  0  0  0  0
  186.7560  178.2080  140.9880 C   0  0  0  0  0  2  0  0  0  0  0  0
  188.5250  178.6230  140.9940 S   0  0  0  0  0  0  0  0  0  0  0  0
  188.8900  177.4500  139.6530 C   0  0  1  0  0  3  0  0  0  0  0  0
  189.0890  178.1960  138.3450 C   0  0  0  0  0  1  0  0  0  0  0  0
  190.1030  176.6450  139.9820 C   0  0  0  0  0  0  0  0  0  0  0  0
  190.6350  176.7010  141.2630 O   0  0  0  0  0  1  0  0  0  0  0  0
  190.6490  175.9170  139.1100 O   0  0  0  0  0  0  0  0  0  0  0  0
  1  4  1  0  0  0  0
  1 13  2  0  0  0  0
  2 18  1  0  0  0  0
  2  1  1  0  0  0  0
  4  7  1  0  0  0  0
  5  8  1  0  0  0  0
  6  3  2  0  0  0  0
  7  8  2  0  0  0  0
  7 14  1  0  0  0  0
  9 10  1  0  0  0  0
  9 18  2  0  0  0  0
 11  2  2  0  0  0  0
 12  5  2  0  0  0  0
 13  3  1  0  0  0  0
 13 14  1  0  0  0  0
 15  9  1  0  0  0  0
 16 12  1  0  0  0  0
 16  4  2  0  0  0  0
 17 15  2  0  0  0  0
 17 11  1  0  0  0  0
 18  6  1  0  0  0  0
 19 20  1  0  0  0  0
 19 17  1  0  0  0  0
 21 22  1  6  0  0  0
 21 23  1  0  0  0  0
 21 20  1  0  0  0  0
 23 24  1  0  0  0  0
 25 23  2  0  0  0  0
M  END
>  <MODEL>
3

>  <REMARK>
 VINA RESULT:      -9.5      1.857      4.702
  Name = 
  4 active torsions:
  status: ('A' for Active; 'I' for Inactive)
    1  A    between atoms: C_2  and  C_21
    2  A    between atoms: C_6  and  S_15
    3  A    between atoms: C_6  and  C_23
    4  A    between atoms: S_15  and  C_21
                            x       y       z     vdW  Elec       q    Type
                         _______ _______ _______ _____ _____    ______ ____

>  <TORSDO>
F 4

$$$$
=
 OpenBabel10262419483D

 25 28  0  0  1  0  0  0  0  0999 V2000
  186.3380  178.4090  142.2640 C   0  0  0  0  0  0  0  0  0  0  0  0
  187.4920  178.1610  141.5140 C   0  0  0  0  0  0  0  0  0  0  0  0
  185.1610  179.0130  140.2680 N   0  0  0  0  0  0  0  0  0  0  0  0
  186.1400  178.2930  143.6470 C   0  0  0  0  0  0  0  0  0  0  0  0
  185.3670  178.1790  146.3280 C   0  0  0  0  0  3  0  0  0  0  0  0
  186.2590  178.7770  139.5400 N   0  0  0  0  0  0  0  0  0  0  0  0
  184.8430  178.6290  144.0320 C   0  0  0  0  0  0  0  0  0  0  0  0
  184.4330  178.5820  145.3620 C   0  0  0  0  0  3  0  0  0  0  0  0
  188.5710  178.1090  139.3410 C   0  0  0  0  0  0  0  0  0  0  0  0
  188.5620  178.2910  137.8620 C   0  0  0  0  0  1  0  0  0  0  0  0
  188.6500  177.7420  142.0910 N   0  0  0  0  0  0  0  0  0  0  0  0
  186.6800  177.8360  145.9530 C   0  0  0  0  0  3  0  0  0  0  0  0
  185.1930  178.8330  141.6100 C   0  0  0  0  0  0  0  0  0  0  0  0
  183.9200  179.0760  142.6890 S   0  0  0  0  0  0  0  0  0  0  0  0
  189.7430  177.6790  139.9650 C   0  0  0  0  0  3  0  0  0  0  0  0
  187.0740  177.8910  144.6070 C   0  0  0  0  0  3  0  0  0  0  0  0
  189.7680  177.5060  141.3530 C   0  0  0  0  0  0  0  0  0  0  0  0
  187.4270  178.3560  140.1150 C   0  0  0  0  0  0  0  0  0  0  0  0
  191.0070  177.0260  142.0190 C   0  0  0  0  0  2  0  0  0  0  0  0
  190.5760  176.0610  143.4970 S   0  0  0  0  0  0  0  0  0  0  0  0
  191.6310  177.0800  144.5730 C   0  0  1  0  0  3  0  0  0  0  0  0
  191.4430  178.5510  144.2470 C   0  0  0  0  0  1  0  0  0  0  0  0
  191.3140  176.8200  146.0080 C   0  0  0  0  0  0  0  0  0  0  0  0
  190.0120  176.9810  146.4620 O   0  0  0  0  0  0  0  0  0  0  0  0
  192.2150  176.4590  146.8110 O   0  0  0  0  0  1  0  0  0  0  0  0
  1  4  1  0  0  0  0
  2 11  1  0  0  0  0
  2  1  1  0  0  0  0
  3 13  1  0  0  0  0
  4  7  2  0  0  0  0
  4 16  1  0  0  0  0
  6 18  1  0  0  0  0
  6  3  2  0  0  0  0
  7  8  1  0  0  0  0
  8  5  2  0  0  0  0
  9 15  2  0  0  0  0
  9 18  1  0  0  0  0
 10  9  1  0  0  0  0
 12  5  1  0  0  0  0
 13  1  2  0  0  0  0
 13 14  1  0  0  0  0
 14  7  1  0  0  0  0
 15 17  1  0  0  0  0
 16 12  2  0  0  0  0
 17 19  1  0  0  0  0
 17 11  2  0  0  0  0
 18  2  2  0  0  0  0
 19 20  1  0  0  0  0
 20 21  1  0  0  0  0
 21 22  1  6  0  0  0
 21 23  1  0  0  0  0
 23 24  2  0  0  0  0
 23 25  1  0  0  0  0
M  END
>  <MODEL>
4

>  <REMARK>
 VINA RESULT:      -9.2      3.506      5.541
  Name = 
  4 active torsions:
  status: ('A' for Active; 'I' for Inactive)
    1  A    between atoms: C_2  and  C_21
    2  A    between atoms: C_6  and  S_15
    3  A    between atoms: C_6  and  C_23
    4  A    between atoms: S_15  and  C_21
                            x       y       z     vdW  Elec       q    Type
                         _______ _______ _______ _____ _____    ______ ____

>  <TORSDO>
F 4

$$$$
=
 OpenBabel10262419483D

 25 28  0  0  1  0  0  0  0  0999 V2000
  187.0030  177.9000  145.1110 C   0  0  0  0  0  0  0  0  0  0  0  0
  188.2090  177.4790  144.5430 C   0  0  0  0  0  0  0  0  0  0  0  0
  187.9650  177.7290  147.2970 N   0  0  0  0  0  0  0  0  0  0  0  0
  185.8000  178.2450  144.4780 C   0  0  0  0  0  0  0  0  0  0  0  0
  183.2640  179.0040  143.5900 C   0  0  0  0  0  3  0  0  0  0  0  0
  189.1240  177.3270  146.7640 N   0  0  0  0  0  0  0  0  0  0  0  0
  184.8080  178.6200  145.3840 C   0  0  0  0  0  0  0  0  0  0  0  0
  183.5350  179.0020  144.9670 C   0  0  0  0  0  3  0  0  0  0  0  0
  190.5080  176.7710  144.8650 C   0  0  0  0  0  0  0  0  0  0  0  0
  191.6800  176.4580  145.7300 C   0  0  0  0  0  1  0  0  0  0  0  0
  188.3640  177.3460  143.1970 N   0  0  0  0  0  0  0  0  0  0  0  0
  184.2560  178.6290  142.6650 C   0  0  0  0  0  3  0  0  0  0  0  0
  186.9150  178.0140  146.4890 C   0  0  0  0  0  0  0  0  0  0  0  0
  185.3850  178.5330  146.9700 S   0  0  0  0  0  0  0  0  0  0  0  0
  190.6340  176.6470  143.4800 C   0  0  0  0  0  3  0  0  0  0  0  0
  185.5330  178.2470  143.1060 C   0  0  0  0  0  3  0  0  0  0  0  0
  189.5420  176.9340  142.6550 C   0  0  0  0  0  0  0  0  0  0  0  0
  189.2860  177.1910  145.4120 C   0  0  0  0  0  0  0  0  0  0  0  0
  189.6780  176.8250  141.1780 C   0  0  0  0  0  2  0  0  0  0  0  0
  191.3580  177.3040  140.6780 S   0  0  0  0  0  0  0  0  0  0  0  0
  191.1960  176.4970  139.0570 C   0  0  1  0  0  3  0  0  0  0  0  0
  190.0940  177.1610  138.2500 C   0  0  0  0  0  1  0  0  0  0  0  0
  192.4900  176.5550  138.3160 C   0  0  0  0  0  0  0  0  0  0  0  0
  192.5050  176.3460  136.9440 O   0  0  0  0  0  0  0  0  0  0  0  0
  193.5690  176.7890  138.9240 O   0  0  0  0  0  1  0  0  0  0  0  0
  1 13  1  0  0  0  0
  2  1  2  0  0  0  0
  2 18  1  0  0  0  0
  4  1  1  0  0  0  0
  4  7  1  0  0  0  0
  5  8  1  0  0  0  0
  6  3  1  0  0  0  0
  7 14  1  0  0  0  0
  8  7  2  0  0  0  0
  9 18  1  0  0  0  0
  9 10  1  0  0  0  0
 11  2  1  0  0  0  0
 12 16  1  0  0  0  0
 12  5  2  0  0  0  0
 13 14  1  0  0  0  0
 13  3  2  0  0  0  0
 15  9  2  0  0  0  0
 16  4  2  0  0  0  0
 17 11  2  0  0  0  0
 17 15  1  0  0  0  0
 18  6  2  0  0  0  0
 19 17  1  0  0  0  0
 20 19  1  0  0  0  0
 21 22  1  6  0  0  0
 21 20  1  0  0  0  0
 23 25  1  0  0  0  0
 23 21  1  0  0  0  0
 24 23  2  0  0  0  0
M  END
>  <MODEL>
5

>  <REMARK>
 VINA RESULT:      -9.2      1.611      1.830
  Name = 
  4 active torsions:
  status: ('A' for Active; 'I' for Inactive)
    1  A    between atoms: C_2  and  C_21
    2  A    between atoms: C_6  and  S_15
    3  A    between atoms: C_6  and  C_23
    4  A    between atoms: S_15  and  C_21
                            x       y       z     vdW  Elec       q    Type
                         _______ _______ _______ _____ _____    ______ ____

>  <TORSDO>
F 4

$$$$
=
 OpenBabel10262419483D

 25 28  0  0  1  0  0  0  0  0999 V2000
  189.2890  177.5350  144.0980 C   0  0  0  0  0  0  0  0  0  0  0  0
  188.3220  177.7930  145.0750 C   0  0  0  0  0  0  0  0  0  0  0  0
  190.8780  176.9920  145.8050 N   0  0  0  0  0  0  0  0  0  0  0  0
  189.1820  177.6190  142.7030 C   0  0  0  0  0  0  0  0  0  0  0  0
  189.3530  177.6640  139.9160 C   0  0  0  0  0  3  0  0  0  0  0  0
  189.9610  177.2340  146.7480 N   0  0  0  0  0  0  0  0  0  0  0  0
  190.3690  177.2820  142.0540 C   0  0  0  0  0  0  0  0  0  0  0  0
  190.4800  177.2970  140.6650 C   0  0  0  0  0  3  0  0  0  0  0  0
  187.7350  177.8790  147.4280 C   0  0  0  0  0  0  0  0  0  0  0  0
  188.0610  177.7200  148.8730 C   0  0  0  0  0  1  0  0  0  0  0  0
  187.0610  178.1860  144.7530 N   0  0  0  0  0  0  0  0  0  0  0  0
  188.1480  178.0060  140.5580 C   0  0  0  0  0  3  0  0  0  0  0  0
  190.5550  177.1380  144.4980 C   0  0  0  0  0  0  0  0  0  0  0  0
  191.5680  176.8790  143.1750 S   0  0  0  0  0  0  0  0  0  0  0  0
  186.4480  178.2800  147.0620 C   0  0  0  0  0  3  0  0  0  0  0  0
  188.0560  177.9850  141.9590 C   0  0  0  0  0  3  0  0  0  0  0  0
  186.1270  178.4370  145.7100 C   0  0  0  0  0  0  0  0  0  0  0  0
  188.6900  177.6310  146.4310 C   0  0  0  0  0  0  0  0  0  0  0  0
  184.7520  178.8410  145.3150 C   0  0  0  0  0  2  0  0  0  0  0  0
  184.8090  179.7750  143.7580 S   0  0  0  0  0  0  0  0  0  0  0  0
  183.6820  178.6170  142.9250 C   0  0  1  0  0  3  0  0  0  0  0  0
  182.2460  178.9060  143.3240 C   0  0  0  0  0  1  0  0  0  0  0  0
  183.8390  178.7130  141.4440 C   0  0  0  0  0  0  0  0  0  0  0  0
  184.9130  179.4130  140.9130 O   0  0  0  0  0  1  0  0  0  0  0  0
  183.0060  178.1670  140.6720 O   0  0  0  0  0  0  0  0  0  0  0  0
  1 13  1  0  0  0  0
  1  2  2  0  0  0  0
  2 18  1  0  0  0  0
  3  6  1  0  0  0  0
  4  1  1  0  0  0  0
  5 12  2  0  0  0  0
  5  8  1  0  0  0  0
  7  4  1  0  0  0  0
  7 14  1  0  0  0  0
  8  7  2  0  0  0  0
  9 10  1  0  0  0  0
 11  2  1  0  0  0  0
 11 17  2  0  0  0  0
 12 16  1  0  0  0  0
 13  3  2  0  0  0  0
 14 13  1  0  0  0  0
 15  9  2  0  0  0  0
 16  4  2  0  0  0  0
 17 15  1  0  0  0  0
 18  6  2  0  0  0  0
 18  9  1  0  0  0  0
 19 17  1  0  0  0  0
 20 19  1  0  0  0  0
 21 22  1  6  0  0  0
 21 20  1  0  0  0  0
 23 21  1  0  0  0  0
 24 23  1  0  0  0  0
 25 23  2  0  0  0  0
M  END
>  <MODEL>
6

>  <REMARK>
 VINA RESULT:      -8.9      2.332      5.360
  Name = 
  4 active torsions:
  status: ('A' for Active; 'I' for Inactive)
    1  A    between atoms: C_2  and  C_21
    2  A    between atoms: C_6  and  S_15
    3  A    between atoms: C_6  and  C_23
    4  A    between atoms: S_15  and  C_21
                            x       y       z     vdW  Elec       q    Type
                         _______ _______ _______ _____ _____    ______ ____

>  <TORSDO>
F 4

$$$$
=
 OpenBabel10262419483D

 25 28  0  0  1  0  0  0  0  0999 V2000
  189.7260  177.4090  144.0800 C   0  0  0  0  0  0  0  0  0  0  0  0
  189.1530  177.6770  142.8330 C   0  0  0  0  0  0  0  0  0  0  0  0
  191.8030  176.8710  143.0180 N   0  0  0  0  0  0  0  0  0  0  0  0
  189.1460  177.4850  145.3550 C   0  0  0  0  0  0  0  0  0  0  0  0
  188.3530  177.5190  148.0320 C   0  0  0  0  0  3  0  0  0  0  0  0
  191.2660  177.1250  141.8190 N   0  0  0  0  0  0  0  0  0  0  0  0
  190.0390  177.1400  146.3690 C   0  0  0  0  0  0  0  0  0  0  0  0
  189.6680  177.1490  147.7120 C   0  0  0  0  0  3  0  0  0  0  0  0
  189.4120  177.7920  140.4230 C   0  0  0  0  0  0  0  0  0  0  0  0
  190.2180  177.6550  139.1770 C   0  0  0  0  0  1  0  0  0  0  0  0
  187.8580  178.0740  142.7060 N   0  0  0  0  0  0  0  0  0  0  0  0
  187.4420  177.8690  147.0180 C   0  0  0  0  0  3  0  0  0  0  0  0
  191.0510  177.0090  144.1360 C   0  0  0  0  0  0  0  0  0  0  0  0
  191.5480  176.7380  145.7240 S   0  0  0  0  0  0  0  0  0  0  0  0
  188.0790  178.1990  140.3280 C   0  0  0  0  0  3  0  0  0  0  0  0
  187.8350  177.8540  145.6700 C   0  0  0  0  0  3  0  0  0  0  0  0
  187.3090  178.3300  141.4870 C   0  0  0  0  0  0  0  0  0  0  0  0
  189.9640  177.5250  141.6850 C   0  0  0  0  0  0  0  0  0  0  0  0
  185.8970  178.7860  141.3940 C   0  0  0  0  0  2  0  0  0  0  0  0
  185.0160  178.3800  142.9300 S   0  0  0  0  0  0  0  0  0  0  0  0
  183.4290  178.9830  142.2780 C   0  0  1  0  0  3  0  0  0  0  0  0
  183.0210  178.1700  141.0620 C   0  0  0  0  0  1  0  0  0  0  0  0
  182.3730  178.9090  143.3300 C   0  0  0  0  0  0  0  0  0  0  0  0
  181.0360  178.8980  142.9600 O   0  0  0  0  0  0  0  0  0  0  0  0
  182.6840  178.8580  144.5510 O   0  0  0  0  0  1  0  0  0  0  0  0
  1 13  2  0  0  0  0
  1  4  1  0  0  0  0
  2  1  1  0  0  0  0
  3 13  1  0  0  0  0
  4 16  2  0  0  0  0
  4  7  1  0  0  0  0
  6  3  2  0  0  0  0
  7  8  2  0  0  0  0
  8  5  1  0  0  0  0
  9 18  1  0  0  0  0
 10  9  1  0  0  0  0
 11  2  1  0  0  0  0
 12  5  2  0  0  0  0
 13 14  1  0  0  0  0
 14  7  1  0  0  0  0
 15  9  2  0  0  0  0
 15 17  1  0  0  0  0
 16 12  1  0  0  0  0
 17 11  2  0  0  0  0
 18  6  1  0  0  0  0
 18  2  2  0  0  0  0
 19 17  1  0  0  0  0
 19 20  1  0  0  0  0
 21 22  1  6  0  0  0
 21 20  1  0  0  0  0
 21 23  1  0  0  0  0
 23 25  1  0  0  0  0
 24 23  2  0  0  0  0
M  END
>  <MODEL>
7

>  <REMARK>
 VINA RESULT:      -8.8      3.435      5.871
  Name = 
  4 active torsions:
  status: ('A' for Active; 'I' for Inactive)
    1  A    between atoms: C_2  and  C_21
    2  A    between atoms: C_6  and  S_15
    3  A    between atoms: C_6  and  C_23
    4  A    between atoms: S_15  and  C_21
                            x       y       z     vdW  Elec       q    Type
                         _______ _______ _______ _____ _____    ______ ____

>  <TORSDO>
F 4

$$$$
=
 OpenBabel10262419483D

 25 28  0  0  1  0  0  0  0  0999 V2000
  189.5050  177.4340  144.4050 C   0  0  0  0  0  0  0  0  0  0  0  0
  189.4270  177.5450  143.0130 C   0  0  0  0  0  0  0  0  0  0  0  0
  191.8010  176.7770  144.2300 N   0  0  0  0  0  0  0  0  0  0  0  0
  188.5120  177.6630  145.3680 C   0  0  0  0  0  0  0  0  0  0  0  0
  186.8170  178.0220  147.5580 C   0  0  0  0  0  3  0  0  0  0  0  0
  191.7380  176.8800  142.8980 N   0  0  0  0  0  0  0  0  0  0  0  0
  188.9680  177.4480  146.6680 C   0  0  0  0  0  0  0  0  0  0  0  0
  188.1430  177.6200  147.7770 C   0  0  0  0  0  3  0  0  0  0  0  0
  190.5340  177.3650  140.8610 C   0  0  0  0  0  0  0  0  0  0  0  0
  191.7250  177.0790  140.0140 C   0  0  0  0  0  1  0  0  0  0  0  0
  188.2800  177.9200  142.3840 N   0  0  0  0  0  0  0  0  0  0  0  0
  186.3440  178.2420  146.2510 C   0  0  0  0  0  3  0  0  0  0  0  0
  190.7050  177.0480  144.9790 C   0  0  0  0  0  0  0  0  0  0  0  0
  190.5910  176.9750  146.6600 S   0  0  0  0  0  0  0  0  0  0  0  0
  189.3410  177.7530  140.2480 C   0  0  0  0  0  3  0  0  0  0  0  0
  187.1910  178.0640  145.1460 C   0  0  0  0  0  3  0  0  0  0  0  0
  188.2130  178.0220  141.0290 C   0  0  0  0  0  0  0  0  0  0  0  0
  190.5870  177.2560  142.2590 C   0  0  0  0  0  0  0  0  0  0  0  0
  186.9480  178.4590  140.3820 C   0  0  0  0  0  2  0  0  0  0  0  0
  185.7670  179.0070  141.6490 S   0  0  0  0  0  0  0  0  0  0  0  0
  184.3400  178.3840  140.7080 C   0  0  1  0  0  3  0  0  0  0  0  0
  183.0550  178.6480  141.4720 C   0  0  0  0  0  1  0  0  0  0  0  0
  184.2860  179.0260  139.3610 C   0  0  0  0  0  0  0  0  0  0  0  0
  184.1880  178.2310  138.2270 O   0  0  0  0  0  0  0  0  0  0  0  0
  184.3300  180.2790  139.2440 O   0  0  0  0  0  1  0  0  0  0  0  0
  1 13  2  0  0  0  0
  1  4  1  0  0  0  0
  2  1  1  0  0  0  0
  3 13  1  0  0  0  0
  4  7  1  0  0  0  0
  5  8  1  0  0  0  0
  6  3  2  0  0  0  0
  7  8  2  0  0  0  0
  9 18  1  0  0  0  0
 10  9  1  0  0  0  0
 11  2  1  0  0  0  0
 12  5  2  0  0  0  0
 13 14  1  0  0  0  0
 14  7  1  0  0  0  0
 15  9  2  0  0  0  0
 15 17  1  0  0  0  0
 16  4  2  0  0  0  0
 16 12  1  0  0  0  0
 17 11  2  0  0  0  0
 18  6  1  0  0  0  0
 18  2  2  0  0  0  0
 19 17  1  0  0  0  0
 19 20  1  0  0  0  0
 21 22  1  1  0  0  0
 21 20  1  0  0  0  0
 23 21  1  0  0  0  0
 24 23  2  0  0  0  0
 25 23  1  0  0  0  0
M  END
>  <MODEL>
8

>  <REMARK>
 VINA RESULT:      -8.8      2.637      4.556
  Name = 
  4 active torsions:
  status: ('A' for Active; 'I' for Inactive)
    1  A    between atoms: C_2  and  C_21
    2  A    between atoms: C_6  and  S_15
    3  A    between atoms: C_6  and  C_23
    4  A    between atoms: S_15  and  C_21
                            x       y       z     vdW  Elec       q    Type
                         _______ _______ _______ _____ _____    ______ ____

>  <TORSDO>
F 4

$$$$
=
 OpenBabel10262419483D

 25 28  0  0  1  0  0  0  0  0999 V2000
  186.8480  178.0620  145.4730 C   0  0  0  0  0  0  0  0  0  0  0  0
  186.0210  178.3300  144.3780 C   0  0  0  0  0  0  0  0  0  0  0  0
  185.0280  178.5020  146.9660 N   0  0  0  0  0  0  0  0  0  0  0  0
  188.2010  177.6910  145.4910 C   0  0  0  0  0  0  0  0  0  0  0  0
  190.8560  176.9450  145.9270 C   0  0  0  0  0  3  0  0  0  0  0  0
  184.2270  178.7600  145.9260 N   0  0  0  0  0  0  0  0  0  0  0  0
  188.6880  177.5080  146.7850 C   0  0  0  0  0  0  0  0  0  0  0  0
  190.0080  177.1360  147.0290 C   0  0  0  0  0  3  0  0  0  0  0  0
  183.8270  178.9550  143.5520 C   0  0  0  0  0  0  0  0  0  0  0  0
  182.3990  179.3290  143.7590 C   0  0  0  0  0  1  0  0  0  0  0  0
  186.4740  178.2540  143.0980 N   0  0  0  0  0  0  0  0  0  0  0  0
  190.3760  177.1260  144.6170 C   0  0  0  0  0  3  0  0  0  0  0  0
  186.3210  178.1580  146.7510 C   0  0  0  0  0  0  0  0  0  0  0  0
  187.4760  177.7970  147.9250 S   0  0  0  0  0  0  0  0  0  0  0  0
  184.3240  178.8670  142.2500 C   0  0  0  0  0  3  0  0  0  0  0  0
  189.0420  177.5010  144.3910 C   0  0  0  0  0  3  0  0  0  0  0  0
  185.6610  178.5190  142.0390 C   0  0  0  0  0  0  0  0  0  0  0  0
  184.6770  178.6860  144.6350 C   0  0  0  0  0  0  0  0  0  0  0  0
  186.1890  178.4010  140.6540 C   0  0  0  0  0  2  0  0  0  0  0  0
  184.8440  178.6570  139.4600 S   0  0  0  0  0  0  0  0  0  0  0  0
  185.9110  178.2530  138.0440 C   0  0  1  0  0  3  0  0  0  0  0  0
  187.3080  177.9040  138.5260 C   0  0  0  0  0  1  0  0  0  0  0  0
  185.3320  177.1210  137.2640 C   0  0  0  0  0  0  0  0  0  0  0  0
  186.0870  175.9750  137.0550 O   0  0  0  0  0  1  0  0  0  0  0  0
  184.1660  177.1950  136.7910 O   0  0  0  0  0  0  0  0  0  0  0  0
  1  4  1  0  0  0  0
  1 13  2  0  0  0  0
  2 18  1  0  0  0  0
  2  1  1  0  0  0  0
  4  7  1  0  0  0  0
  5  8  1  0  0  0  0
  6  3  2  0  0  0  0
  7  8  2  0  0  0  0
  7 14  1  0  0  0  0
  9 10  1  0  0  0  0
  9 18  2  0  0  0  0
 11  2  2  0  0  0  0
 12  5  2  0  0  0  0
 13  3  1  0  0  0  0
 13 14  1  0  0  0  0
 15  9  1  0  0  0  0
 16 12  1  0  0  0  0
 16  4  2  0  0  0  0
 17 15  2  0  0  0  0
 17 11  1  0  0  0  0
 18  6  1  0  0  0  0
 19 17  1  0  0  0  0
 20 19  1  0  0  0  0
 21 22  1  1  0  0  0
 21 20  1  0  0  0  0
 23 21  1  0  0  0  0
 24 23  1  0  0  0  0
 25 23  2  0  0  0  0
M  END
>  <MODEL>
9

>  <REMARK>
 VINA RESULT:      -8.7      2.260      4.951
  Name = 
  4 active torsions:
  status: ('A' for Active; 'I' for Inactive)
    1  A    between atoms: C_2  and  C_21
    2  A    between atoms: C_6  and  S_15
    3  A    between atoms: C_6  and  C_23
    4  A    between atoms: S_15  and  C_21
                            x       y       z     vdW  Elec       q    Type
                         _______ _______ _______ _____ _____    ______ ____

>  <TORSDO>
F 4

$$$$
