=
 OpenBabel10262422043D

 30 30  0  0  1  0  0  0  0  0999 V2000
  185.9880  178.8200  142.2450 C   0  0  2  0  0  3  0  0  0  0  0  0
  186.0660  178.7560  146.6630 O   0  0  0  0  0  1  0  0  0  0  0  0
  186.9580  176.0560  143.7710 O   0  0  0  0  0  1  0  0  0  0  0  0
  187.4630  178.2160  144.7750 C   0  0  2  0  0  3  0  0  0  0  0  0
  184.8810  178.2890  143.1380 C   0  0  0  0  0  2  0  0  0  0  0  0
  185.4350  178.9960  140.8440 C   0  0  0  0  0  1  0  0  0  0  0  0
  186.0500  178.1710  145.3910 C   0  0  2  0  0  3  0  0  0  0  0  0
  185.0050  178.8910  144.5280 C   0  0  2  0  0  3  0  0  0  0  0  0
  187.6090  177.2760  143.5670 C   0  0  2  0  0  3  0  0  0  0  0  0
  183.6410  178.8200  145.1930 C   0  0  0  0  0  1  0  0  0  0  0  0
  187.2070  177.8890  142.2130 C   0  0  2  0  0  3  0  0  0  0  0  0
  188.3910  178.5660  141.5020 C   0  0  1  0  0  3  0  0  0  0  0  0
  189.4440  178.8330  142.3800 O   0  0  0  0  0  1  0  0  0  0  0  0
  188.8830  177.8410  140.2400 C   0  0  2  0  0  3  0  0  0  0  0  0
  190.4970  175.8410  139.4220 O   0  0  0  0  0  0  0  0  0  0  0  0
  189.8860  175.8910  141.7940 O   0  0  0  0  0  0  0  0  0  0  0  0
  190.2420  176.7360  140.6030 S   0  0  0  0  0  0  0  0  0  0  0  0
  191.7150  177.6790  140.9600 C   0  0  0  0  0  3  0  0  0  0  0  0
  192.2270  177.3440  142.3470 C   0  0  0  0  0  1  0  0  0  0  0  0
  192.7900  177.3740  139.9360 C   0  0  0  0  0  1  0  0  0  0  0  0
  189.2510  178.7770  139.0960 C   0  0  0  0  0  2  0  0  0  0  0  0
  188.5240  178.3740  137.8290 C   0  0  0  0  0  2  0  0  0  0  0  0
  186.1880  177.6910  137.3970 C   0  0  0  0  0  1  0  0  0  0  0  0
  187.4500  177.3620  138.1660 C   0  0  0  0  0  2  0  0  0  0  0  0
  188.5180  177.8390  145.8100 C   0  0  0  0  0  2  0  0  0  0  0  0
  189.8970  177.8430  145.1820 C   0  0  0  0  0  2  0  0  0  0  0  0
  191.5690  176.4020  146.6800 C   0  0  0  0  0  0  0  0  0  0  0  0
  190.8110  177.0510  146.0030 C   0  0  0  0  0  0  0  0  0  0  0  0
  192.4900  175.6160  147.5000 C   0  0  0  0  0  2  0  0  0  0  0  0
  192.8490  176.3450  148.6170 F   0  0  0  0  0  0  0  0  0  0  0  0
  1  6  1  6  0  0  0
  1  5  1  0  0  0  0
  4  7  1  0  0  0  0
  4 25  1  1  0  0  0
  5  8  1  0  0  0  0
  7  2  1  1  0  0  0
  8 10  1  1  0  0  0
  8  7  1  0  0  0  0
  9  3  1  1  0  0  0
  9  4  1  0  0  0  0
 11 12  1  1  0  0  0
 11  1  1  0  0  0  0
 11  9  1  0  0  0  0
 12 13  1  1  0  0  0
 14 21  1  6  0  0  0
 14 17  1  0  0  0  0
 14 12  1  0  0  0  0
 15 17  2  0  0  0  0
 17 18  1  0  0  0  0
 17 16  2  0  0  0  0
 18 19  1  0  0  0  0
 20 18  1  0  0  0  0
 22 24  1  0  0  0  0
 22 21  1  0  0  0  0
 23 24  1  0  0  0  0
 26 25  1  0  0  0  0
 26 28  1  0  0  0  0
 27 29  1  0  0  0  0
 28 27  3  0  0  0  0
 29 30  1  0  0  0  0
M  END
>  <MODEL>
1

>  <REMARK>
 VINA RESULT:      -7.4      0.000      0.000
  Name = 
  11 active torsions:
  status: ('A' for Active; 'I' for Inactive)
    1  A    between atoms: C_1  and  C_4
    2  A    between atoms: C_1  and  C_29
    3  A    between atoms: C_4  and  C_5
    4  A    between atoms: C_4  and  S_12
    5  A    between atoms: C_5  and  C_21
    6  A    between atoms: C_10  and  C_16
    7  A    between atoms: C_11  and  C_24
    8  A    between atoms: S_12  and  C_13
    9  A    between atoms: C_15  and  C_24
   10  A    between atoms: C_15  and  C_25
   11  A    between atoms: C_17  and  C_21
                            x       y       z     vdW  Elec       q    Type
                         _______ _______ _______ _____ _____    ______ ____

>  <TORSDO>
F 11

$$$$
=
 OpenBabel10262422043D

 30 30  0  0  1  0  0  0  0  0999 V2000
  186.6680  178.2440  144.8230 C   0  0  2  0  0  3  0  0  0  0  0  0
  191.0680  177.8700  144.6680 O   0  0  0  0  0  1  0  0  0  0  0  0
  187.9820  175.6670  143.2300 O   0  0  0  0  0  1  0  0  0  0  0  0
  189.1480  177.8040  143.2120 C   0  0  2  0  0  3  0  0  0  0  0  0
  187.5140  177.4100  145.7680 C   0  0  0  0  0  2  0  0  0  0  0  0
  185.2820  178.3930  145.4220 C   0  0  0  0  0  1  0  0  0  0  0  0
  189.7550  177.3930  144.5700 C   0  0  2  0  0  3  0  0  0  0  0  0
  188.9460  177.9190  145.7630 C   0  0  2  0  0  3  0  0  0  0  0  0
  187.8730  177.0140  142.8750 C   0  0  2  0  0  3  0  0  0  0  0  0
  189.6000  177.4920  147.0650 C   0  0  0  0  0  1  0  0  0  0  0  0
  186.5690  177.6190  143.4250 C   0  0  2  0  0  3  0  0  0  0  0  0
  185.9140  178.5980  142.4360 C   0  0  1  0  0  3  0  0  0  0  0  0
  186.8630  179.3560  141.7470 O   0  0  0  0  0  1  0  0  0  0  0  0
  184.9010  177.9580  141.4730 C   0  0  2  0  0  3  0  0  0  0  0  0
  186.5180  178.5640  139.4020 O   0  0  0  0  0  0  0  0  0  0  0  0
  184.5910  180.0270  139.7860 O   0  0  0  0  0  0  0  0  0  0  0  0
  185.0720  178.6040  139.8140 S   0  0  0  0  0  0  0  0  0  0  0  0
  184.1050  177.6250  138.6760 C   0  0  0  0  0  3  0  0  0  0  0  0
  182.8960  178.4100  138.2100 C   0  0  0  0  0  1  0  0  0  0  0  0
  184.9480  177.2330  137.4790 C   0  0  0  0  0  1  0  0  0  0  0  0
  183.4550  178.0680  141.9390 C   0  0  0  0  0  2  0  0  0  0  0  0
  183.3060  179.1960  142.9400 C   0  0  0  0  0  2  0  0  0  0  0  0
  180.8550  178.8890  143.0090 C   0  0  0  0  0  1  0  0  0  0  0  0
  182.1210  178.9170  143.8390 C   0  0  0  0  0  2  0  0  0  0  0  0
  190.1540  177.6000  142.0850 C   0  0  0  0  0  2  0  0  0  0  0  0
  189.4410  177.5290  140.7490 C   0  0  0  0  0  2  0  0  0  0  0  0
  191.0590  176.4280  138.9360 C   0  0  0  0  0  0  0  0  0  0  0  0
  190.3270  176.9270  139.7530 C   0  0  0  0  0  0  0  0  0  0  0  0
  191.9480  175.8210  137.9460 C   0  0  0  0  0  2  0  0  0  0  0  0
  192.7420  176.8000  137.3800 F   0  0  0  0  0  0  0  0  0  0  0  0
  1  6  1  1  0  0  0
  1  5  1  0  0  0  0
  4 25  1  6  0  0  0
  4  7  1  0  0  0  0
  7  2  1  1  0  0  0
  7  8  1  0  0  0  0
  8  5  1  0  0  0  0
  8 10  1  1  0  0  0
  9  4  1  0  0  0  0
  9  3  1  1  0  0  0
  9 11  1  0  0  0  0
 11 12  1  6  0  0  0
 11  1  1  0  0  0  0
 12 13  1  6  0  0  0
 14 21  1  1  0  0  0
 14 12  1  0  0  0  0
 15 17  2  0  0  0  0
 16 17  2  0  0  0  0
 17 14  1  0  0  0  0
 18 17  1  0  0  0  0
 19 18  1  0  0  0  0
 20 18  1  0  0  0  0
 21 22  1  0  0  0  0
 22 24  1  0  0  0  0
 23 24  1  0  0  0  0
 26 25  1  0  0  0  0
 27 28  3  0  0  0  0
 28 26  1  0  0  0  0
 29 27  1  0  0  0  0
 30 29  1  0  0  0  0
M  END
>  <MODEL>
2

>  <REMARK>
 VINA RESULT:      -6.9      3.159      6.061
  Name = 
  11 active torsions:
  status: ('A' for Active; 'I' for Inactive)
    1  A    between atoms: C_1  and  C_4
    2  A    between atoms: C_1  and  C_29
    3  A    between atoms: C_4  and  C_5
    4  A    between atoms: C_4  and  S_12
    5  A    between atoms: C_5  and  C_21
    6  A    between atoms: C_10  and  C_16
    7  A    between atoms: C_11  and  C_24
    8  A    between atoms: S_12  and  C_13
    9  A    between atoms: C_15  and  C_24
   10  A    between atoms: C_15  and  C_25
   11  A    between atoms: C_17  and  C_21
                            x       y       z     vdW  Elec       q    Type
                         _______ _______ _______ _____ _____    ______ ____

>  <TORSDO>
F 11

$$$$
=
 OpenBabel10262422043D

 30 30  0  0  1  0  0  0  0  0999 V2000
  187.0950  178.1720  141.6820 C   0  0  2  0  0  3  0  0  0  0  0  0
  190.7300  176.0980  140.2630 O   0  0  0  0  0  1  0  0  0  0  0  0
  189.9450  178.7130  143.2610 O   0  0  0  0  0  1  0  0  0  0  0  0
  189.5110  176.5200  142.2980 C   0  0  2  0  0  3  0  0  0  0  0  0
  188.1270  178.7540  140.7320 C   0  0  0  0  0  2  0  0  0  0  0  0
  185.8510  179.0380  141.6300 C   0  0  0  0  0  1  0  0  0  0  0  0
  190.0340  177.0900  140.9640 C   0  0  2  0  0  3  0  0  0  0  0  0
  188.9100  177.6320  140.0700 C   0  0  2  0  0  3  0  0  0  0  0  0
  189.0740  177.6220  143.2770 C   0  0  2  0  0  3  0  0  0  0  0  0
  189.4880  178.1670  138.7720 C   0  0  0  0  0  1  0  0  0  0  0  0
  187.6140  178.0870  143.1240 C   0  0  2  0  0  3  0  0  0  0  0  0
  186.6450  177.2790  144.0040 C   0  0  1  0  0  3  0  0  0  0  0  0
  186.7760  175.9040  143.7960 O   0  0  0  0  0  1  0  0  0  0  0  0
  186.6930  177.6280  145.4990 C   0  0  2  0  0  3  0  0  0  0  0  0
  185.8880  180.0020  146.4930 O   0  0  0  0  0  0  0  0  0  0  0  0
  184.5320  178.0380  147.0450 O   0  0  0  0  0  0  0  0  0  0  0  0
  185.3420  178.7030  145.9680 S   0  0  0  0  0  0  0  0  0  0  0  0
  184.3020  179.0260  144.5540 C   0  0  0  0  0  3  0  0  0  0  0  0
  182.8680  178.6440  144.8620 C   0  0  0  0  0  1  0  0  0  0  0  0
  184.3670  180.4940  144.1830 C   0  0  0  0  0  1  0  0  0  0  0  0
  188.0220  178.2170  145.9530 C   0  0  0  0  0  2  0  0  0  0  0  0
  188.8210  177.1870  146.7260 C   0  0  0  0  0  2  0  0  0  0  0  0
  188.3590  178.2730  148.8980 C   0  0  0  0  0  1  0  0  0  0  0  0
  188.2040  176.9990  148.0960 C   0  0  0  0  0  2  0  0  0  0  0  0
  190.5750  175.6650  142.9770 C   0  0  0  0  0  2  0  0  0  0  0  0
  191.6690  176.5440  143.5500 C   0  0  0  0  0  2  0  0  0  0  0  0
  191.9570  176.0370  146.1530 C   0  0  0  0  0  0  0  0  0  0  0  0
  191.8270  176.2630  144.9760 C   0  0  0  0  0  0  0  0  0  0  0  0
  192.1150  175.7640  147.5810 C   0  0  0  0  0  2  0  0  0  0  0  0
  191.9310  176.9330  148.2960 F   0  0  0  0  0  0  0  0  0  0  0  0
  1  6  1  1  0  0  0
  1 11  1  0  0  0  0
  4 25  1  1  0  0  0
  4  9  1  0  0  0  0
  5  1  1  0  0  0  0
  7  2  1  6  0  0  0
  7  4  1  0  0  0  0
  8 10  1  6  0  0  0
  8  5  1  0  0  0  0
  8  7  1  0  0  0  0
  9  3  1  6  0  0  0
 11  9  1  0  0  0  0
 11 12  1  1  0  0  0
 12 13  1  1  0  0  0
 12 14  1  0  0  0  0
 14 21  1  6  0  0  0
 14 17  1  0  0  0  0
 17 15  2  0  0  0  0
 17 16  2  0  0  0  0
 18 19  1  0  0  0  0
 18 17  1  0  0  0  0
 20 18  1  0  0  0  0
 21 22  1  0  0  0  0
 22 24  1  0  0  0  0
 24 23  1  0  0  0  0
 25 26  1  0  0  0  0
 26 28  1  0  0  0  0
 27 29  1  0  0  0  0
 28 27  3  0  0  0  0
 29 30  1  0  0  0  0
M  END
>  <MODEL>
3

>  <REMARK>
 VINA RESULT:      -6.7      1.971      6.318
  Name = 
  11 active torsions:
  status: ('A' for Active; 'I' for Inactive)
    1  A    between atoms: C_1  and  C_4
    2  A    between atoms: C_1  and  C_29
    3  A    between atoms: C_4  and  C_5
    4  A    between atoms: C_4  and  S_12
    5  A    between atoms: C_5  and  C_21
    6  A    between atoms: C_10  and  C_16
    7  A    between atoms: C_11  and  C_24
    8  A    between atoms: S_12  and  C_13
    9  A    between atoms: C_15  and  C_24
   10  A    between atoms: C_15  and  C_25
   11  A    between atoms: C_17  and  C_21
                            x       y       z     vdW  Elec       q    Type
                         _______ _______ _______ _____ _____    ______ ____

>  <TORSDO>
F 11

$$$$
=
 OpenBabel10262422043D

 30 30  0  0  1  0  0  0  0  0999 V2000
  186.5000  178.1280  142.9960 C   0  0  2  0  0  3  0  0  0  0  0  0
  189.3250  178.2260  146.3920 O   0  0  0  0  0  1  0  0  0  0  0  0
  188.8570  175.8200  143.1610 O   0  0  0  0  0  1  0  0  0  0  0  0
  189.3200  178.0630  143.9880 C   0  0  2  0  0  3  0  0  0  0  0  0
  186.3660  177.3220  144.2760 C   0  0  0  0  0  2  0  0  0  0  0  0
  185.1720  178.0890  142.2620 C   0  0  0  0  0  1  0  0  0  0  0  0
  188.6660  177.6230  145.3140 C   0  0  2  0  0  3  0  0  0  0  0  0
  187.1740  177.9760  145.3840 C   0  0  2  0  0  3  0  0  0  0  0  0
  188.9100  177.1700  142.8050 C   0  0  2  0  0  3  0  0  0  0  0  0
  186.5950  177.5280  146.7150 C   0  0  0  0  0  1  0  0  0  0  0  0
  187.6160  177.5960  142.0870 C   0  0  2  0  0  3  0  0  0  0  0  0
  187.8820  178.5690  140.9270 C   0  0  1  0  0  3  0  0  0  0  0  0
  188.2450  179.8390  141.3830 O   0  0  0  0  0  1  0  0  0  0  0  0
  188.8680  178.0520  139.8670 C   0  0  2  0  0  3  0  0  0  0  0  0
  188.9720  179.4680  137.5750 O   0  0  0  0  0  0  0  0  0  0  0  0
  186.7800  178.6260  138.2740 O   0  0  0  0  0  0  0  0  0  0  0  0
  188.2490  178.3130  138.2100 S   0  0  0  0  0  0  0  0  0  0  0  0
  188.5020  176.8440  137.2260 C   0  0  0  0  0  3  0  0  0  0  0  0
  187.2570  176.5360  136.4190 C   0  0  0  0  0  1  0  0  0  0  0  0
  189.6780  177.0400  136.2890 C   0  0  0  0  0  1  0  0  0  0  0  0
  189.2700  176.5950  140.0600 C   0  0  0  0  0  2  0  0  0  0  0  0
  190.7370  176.4040  139.7300 C   0  0  0  0  0  2  0  0  0  0  0  0
  193.0030  177.3510  140.0080 C   0  0  0  0  0  1  0  0  0  0  0  0
  191.5490  177.4910  140.4030 C   0  0  0  0  0  2  0  0  0  0  0  0
  190.8400  178.0460  144.1010 C   0  0  0  0  0  2  0  0  0  0  0  0
  191.3520  176.6190  144.0940 C   0  0  0  0  0  2  0  0  0  0  0  0
  192.1300  175.9410  146.5530 C   0  0  0  0  0  0  0  0  0  0  0  0
  191.7770  176.2440  145.4420 C   0  0  0  0  0  0  0  0  0  0  0  0
  192.5590  175.5730  147.9020 C   0  0  0  0  0  2  0  0  0  0  0  0
  192.6080  176.7050  148.6940 F   0  0  0  0  0  0  0  0  0  0  0  0
  1  6  1  6  0  0  0
  1  5  1  0  0  0  0
  4 25  1  1  0  0  0
  4  7  1  0  0  0  0
  5  8  1  0  0  0  0
  7  8  1  0  0  0  0
  7  2  1  1  0  0  0
  8 10  1  1  0  0  0
  9  3  1  1  0  0  0
  9  4  1  0  0  0  0
 11 12  1  6  0  0  0
 11  9  1  0  0  0  0
 11  1  1  0  0  0  0
 12 13  1  1  0  0  0
 14 21  1  1  0  0  0
 14 12  1  0  0  0  0
 15 17  2  0  0  0  0
 17 16  2  0  0  0  0
 17 14  1  0  0  0  0
 18 17  1  0  0  0  0
 19 18  1  0  0  0  0
 20 18  1  0  0  0  0
 22 21  1  0  0  0  0
 22 24  1  0  0  0  0
 23 24  1  0  0  0  0
 26 25  1  0  0  0  0
 26 28  1  0  0  0  0
 27 29  1  0  0  0  0
 28 27  3  0  0  0  0
 29 30  1  0  0  0  0
M  END
>  <MODEL>
4

>  <REMARK>
 VINA RESULT:      -6.6      1.915      3.362
  Name = 
  11 active torsions:
  status: ('A' for Active; 'I' for Inactive)
    1  A    between atoms: C_1  and  C_4
    2  A    between atoms: C_1  and  C_29
    3  A    between atoms: C_4  and  C_5
    4  A    between atoms: C_4  and  S_12
    5  A    between atoms: C_5  and  C_21
    6  A    between atoms: C_10  and  C_16
    7  A    between atoms: C_11  and  C_24
    8  A    between atoms: S_12  and  C_13
    9  A    between atoms: C_15  and  C_24
   10  A    between atoms: C_15  and  C_25
   11  A    between atoms: C_17  and  C_21
                            x       y       z     vdW  Elec       q    Type
                         _______ _______ _______ _____ _____    ______ ____

>  <TORSDO>
F 11

$$$$
=
 OpenBabel10262422043D

 30 30  0  0  1  0  0  0  0  0999 V2000
  186.0610  178.7900  142.2570 C   0  0  2  0  0  3  0  0  0  0  0  0
  185.2170  178.7470  146.5950 O   0  0  0  0  0  1  0  0  0  0  0  0
  186.7010  176.0380  143.9670 O   0  0  0  0  0  1  0  0  0  0  0  0
  186.9790  178.2050  145.0420 C   0  0  2  0  0  3  0  0  0  0  0  0
  184.7930  178.2570  142.9030 C   0  0  0  0  0  2  0  0  0  0  0  0
  185.8100  178.9560  140.7700 C   0  0  0  0  0  1  0  0  0  0  0  0
  185.4680  178.1560  145.3500 C   0  0  2  0  0  3  0  0  0  0  0  0
  184.6230  178.8660  144.2850 C   0  0  2  0  0  3  0  0  0  0  0  0
  187.3760  177.2590  143.8970 C   0  0  2  0  0  3  0  0  0  0  0  0
  183.1510  178.7930  144.6520 C   0  0  0  0  0  1  0  0  0  0  0  0
  187.2630  177.8640  142.4850 C   0  0  2  0  0  3  0  0  0  0  0  0
  188.5660  178.5430  142.0320 C   0  0  1  0  0  3  0  0  0  0  0  0
  189.1990  179.2110  143.0830 O   0  0  0  0  0  1  0  0  0  0  0  0
  189.5430  177.6240  141.2830 C   0  0  2  0  0  3  0  0  0  0  0  0
  188.9720  179.0980  139.0990 O   0  0  0  0  0  0  0  0  0  0  0  0
  188.1220  176.8020  139.1550 O   0  0  0  0  0  0  0  0  0  0  0  0
  189.2820  177.6870  139.5150 S   0  0  0  0  0  0  0  0  0  0  0  0
  190.7460  177.1270  138.6610 C   0  0  0  0  0  3  0  0  0  0  0  0
  191.9590  177.2650  139.5580 C   0  0  0  0  0  1  0  0  0  0  0  0
  190.5860  175.6780  138.2450 C   0  0  0  0  0  1  0  0  0  0  0  0
  189.5280  176.1810  141.7700 C   0  0  0  0  0  2  0  0  0  0  0  0
  190.3730  176.0360  143.0200 C   0  0  0  0  0  2  0  0  0  0  0  0
  191.9030  177.8140  143.7990 C   0  0  0  0  0  1  0  0  0  0  0  0
  191.7170  176.6950  142.7970 C   0  0  0  0  0  2  0  0  0  0  0  0
  187.7960  177.8370  146.2760 C   0  0  0  0  0  2  0  0  0  0  0  0
  189.2400  178.2620  146.0970 C   0  0  0  0  0  2  0  0  0  0  0  0
  190.8540  176.4080  147.1340 C   0  0  0  0  0  0  0  0  0  0  0  0
  190.1230  177.2440  146.6630 C   0  0  0  0  0  0  0  0  0  0  0  0
  191.7410  175.3960  147.7050 C   0  0  0  0  0  2  0  0  0  0  0  0
  193.0540  175.7340  147.4430 F   0  0  0  0  0  0  0  0  0  0  0  0
  1  6  1  6  0  0  0
  1 11  1  0  0  0  0
  1  5  1  0  0  0  0
  4  7  1  0  0  0  0
  4 25  1  1  0  0  0
  5  8  1  0  0  0  0
  7  2  1  1  0  0  0
  8 10  1  1  0  0  0
  8  7  1  0  0  0  0
  9  3  1  6  0  0  0
  9  4  1  0  0  0  0
 11 12  1  1  0  0  0
 11  9  1  0  0  0  0
 12 13  1  1  0  0  0
 14 21  1  1  0  0  0
 14 12  1  0  0  0  0
 15 17  2  0  0  0  0
 16 17  2  0  0  0  0
 17 14  1  0  0  0  0
 18 17  1  0  0  0  0
 18 19  1  0  0  0  0
 20 18  1  0  0  0  0
 21 22  1  0  0  0  0
 24 22  1  0  0  0  0
 24 23  1  0  0  0  0
 26 25  1  0  0  0  0
 26 28  1  0  0  0  0
 27 29  1  0  0  0  0
 28 27  3  0  0  0  0
 30 29  1  0  0  0  0
M  END
>  <MODEL>
5

>  <REMARK>
 VINA RESULT:      -6.6      1.556      2.751
  Name = 
  11 active torsions:
  status: ('A' for Active; 'I' for Inactive)
    1  A    between atoms: C_1  and  C_4
    2  A    between atoms: C_1  and  C_29
    3  A    between atoms: C_4  and  C_5
    4  A    between atoms: C_4  and  S_12
    5  A    between atoms: C_5  and  C_21
    6  A    between atoms: C_10  and  C_16
    7  A    between atoms: C_11  and  C_24
    8  A    between atoms: S_12  and  C_13
    9  A    between atoms: C_15  and  C_24
   10  A    between atoms: C_15  and  C_25
   11  A    between atoms: C_17  and  C_21
                            x       y       z     vdW  Elec       q    Type
                         _______ _______ _______ _____ _____    ______ ____

>  <TORSDO>
F 11

$$$$
=
 OpenBabel10262422043D

 30 30  0  0  1  0  0  0  0  0999 V2000
  186.5900  178.4610  143.8380 C   0  0  2  0  0  3  0  0  0  0  0  0
  190.2390  177.2940  146.0390 O   0  0  0  0  0  1  0  0  0  0  0  0
  187.9310  175.5060  143.2250 O   0  0  0  0  0  1  0  0  0  0  0  0
  189.3780  177.3810  143.7910 C   0  0  2  0  0  3  0  0  0  0  0  0
  186.6240  177.6200  145.1020 C   0  0  0  0  0  2  0  0  0  0  0  0
  185.1650  178.9310  143.6110 C   0  0  0  0  0  1  0  0  0  0  0  0
  189.0950  177.0500  145.2700 C   0  0  2  0  0  3  0  0  0  0  0  0
  187.9280  177.8620  145.8460 C   0  0  2  0  0  3  0  0  0  0  0  0
  188.3180  176.7930  142.8440 C   0  0  2  0  0  3  0  0  0  0  0  0
  187.7090  177.4980  147.3040 C   0  0  0  0  0  1  0  0  0  0  0  0
  187.0870  177.6860  142.6100 C   0  0  2  0  0  3  0  0  0  0  0  0
  187.2660  178.6290  141.4080 C   0  0  1  0  0  3  0  0  0  0  0  0
  188.6000  179.0000  141.2300 O   0  0  0  0  0  1  0  0  0  0  0  0
  186.6450  178.1230  140.0960 C   0  0  2  0  0  3  0  0  0  0  0  0
  188.8100  176.7580  139.2470 O   0  0  0  0  0  0  0  0  0  0  0  0
  188.6850  179.1340  138.6680 O   0  0  0  0  0  0  0  0  0  0  0  0
  187.8870  177.8710  138.8350 S   0  0  0  0  0  0  0  0  0  0  0  0
  187.1060  177.4500  137.2850 C   0  0  0  0  0  3  0  0  0  0  0  0
  187.9750  177.8930  136.1250 C   0  0  0  0  0  1  0  0  0  0  0  0
  186.8790  175.9540  137.2060 C   0  0  0  0  0  1  0  0  0  0  0  0
  185.5210  179.0040  139.5670 C   0  0  0  0  0  2  0  0  0  0  0  0
  184.2920  178.1700  139.2660 C   0  0  0  0  0  2  0  0  0  0  0  0
  182.5910  178.6270  141.0000 C   0  0  0  0  0  1  0  0  0  0  0  0
  183.0500  178.9690  139.5980 C   0  0  0  0  0  2  0  0  0  0  0  0
  190.7460  176.8560  143.3690 C   0  0  0  0  0  2  0  0  0  0  0  0
  191.5410  177.9490  142.6830 C   0  0  0  0  0  2  0  0  0  0  0  0
  192.1630  177.1790  140.2060 C   0  0  0  0  0  0  0  0  0  0  0  0
  191.8800  177.5290  141.3240 C   0  0  0  0  0  0  0  0  0  0  0  0
  192.5080  176.7550  138.8500 C   0  0  0  0  0  2  0  0  0  0  0  0
  191.4550  177.0290  137.9990 F   0  0  0  0  0  0  0  0  0  0  0  0
  1  6  1  6  0  0  0
  1  5  1  0  0  0  0
  4 25  1  6  0  0  0
  4  7  1  0  0  0  0
  5  8  1  0  0  0  0
  7  8  1  0  0  0  0
  7  2  1  1  0  0  0
  8 10  1  1  0  0  0
  9  3  1  1  0  0  0
  9  4  1  0  0  0  0
 11 12  1  6  0  0  0
 11  9  1  0  0  0  0
 11  1  1  0  0  0  0
 12 13  1  6  0  0  0
 14 21  1  6  0  0  0
 14 12  1  0  0  0  0
 16 17  2  0  0  0  0
 17 15  2  0  0  0  0
 17 14  1  0  0  0  0
 18 17  1  0  0  0  0
 19 18  1  0  0  0  0
 20 18  1  0  0  0  0
 22 21  1  0  0  0  0
 22 24  1  0  0  0  0
 24 23  1  0  0  0  0
 26 25  1  0  0  0  0
 27 28  3  0  0  0  0
 28 26  1  0  0  0  0
 29 27  1  0  0  0  0
 30 29  1  0  0  0  0
M  END
>  <MODEL>
6

>  <REMARK>
 VINA RESULT:      -6.3      2.739      4.599
  Name = 
  11 active torsions:
  status: ('A' for Active; 'I' for Inactive)
    1  A    between atoms: C_1  and  C_4
    2  A    between atoms: C_1  and  C_29
    3  A    between atoms: C_4  and  C_5
    4  A    between atoms: C_4  and  S_12
    5  A    between atoms: C_5  and  C_21
    6  A    between atoms: C_10  and  C_16
    7  A    between atoms: C_11  and  C_24
    8  A    between atoms: S_12  and  C_13
    9  A    between atoms: C_15  and  C_24
   10  A    between atoms: C_15  and  C_25
   11  A    between atoms: C_17  and  C_21
                            x       y       z     vdW  Elec       q    Type
                         _______ _______ _______ _____ _____    ______ ____

>  <TORSDO>
F 11

$$$$
=
 OpenBabel10262422043D

 30 30  0  0  1  0  0  0  0  0999 V2000
  184.7460  178.2320  145.1690 C   0  0  2  0  0  3  0  0  0  0  0  0
  182.2640  178.3340  141.5140 O   0  0  0  0  0  1  0  0  0  0  0  0
  185.4520  180.4620  142.8370 O   0  0  0  0  0  1  0  0  0  0  0  0
  184.5780  178.2850  142.1840 C   0  0  2  0  0  3  0  0  0  0  0  0
  183.5600  179.1510  144.9350 C   0  0  0  0  0  2  0  0  0  0  0  0
  185.0860  178.2530  146.6480 C   0  0  0  0  0  1  0  0  0  0  0  0
  183.1710  178.8620  142.4410 C   0  0  2  0  0  3  0  0  0  0  0  0
  182.6600  178.5690  143.8580 C   0  0  2  0  0  3  0  0  0  0  0  0
  185.6810  179.0850  142.8980 C   0  0  2  0  0  3  0  0  0  0  0  0
  181.2700  179.1510  144.0420 C   0  0  0  0  0  1  0  0  0  0  0  0
  185.9720  178.6440  144.3440 C   0  0  2  0  0  3  0  0  0  0  0  0
  187.0650  177.5640  144.4190 C   0  0  1  0  0  3  0  0  0  0  0  0
  186.7880  176.4820  143.5790 O   0  0  0  0  0  1  0  0  0  0  0  0
  188.4960  178.0830  144.2110 C   0  0  2  0  0  3  0  0  0  0  0  0
  189.1190  177.5070  141.6510 O   0  0  0  0  0  0  0  0  0  0  0  0
  188.9740  175.6310  143.2180 O   0  0  0  0  0  0  0  0  0  0  0  0
  189.4060  177.0620  143.0580 S   0  0  0  0  0  0  0  0  0  0  0  0
  191.1580  177.1950  143.3760 C   0  0  0  0  0  3  0  0  0  0  0  0
  191.6810  175.9020  143.9670 C   0  0  0  0  0  1  0  0  0  0  0  0
  191.8990  177.5000  142.0890 C   0  0  0  0  0  1  0  0  0  0  0  0
  189.2830  178.2530  145.5040 C   0  0  0  0  0  2  0  0  0  0  0  0
  189.0170  177.0920  146.4410 C   0  0  0  0  0  2  0  0  0  0  0  0
  188.3100  178.2520  148.5050 C   0  0  0  0  0  1  0  0  0  0  0  0
  189.4290  177.4760  147.8460 C   0  0  0  0  0  2  0  0  0  0  0  0
  184.8900  178.2600  140.6920 C   0  0  0  0  0  2  0  0  0  0  0  0
  186.3420  178.6230  140.4510 C   0  0  0  0  0  2  0  0  0  0  0  0
  187.0340  177.9450  137.9660 C   0  0  0  0  0  0  0  0  0  0  0  0
  186.7190  178.2540  139.0880 C   0  0  0  0  0  0  0  0  0  0  0  0
  187.4160  177.5690  136.6050 C   0  0  0  0  0  2  0  0  0  0  0  0
  186.8330  178.4410  135.7050 F   0  0  0  0  0  0  0  0  0  0  0  0
  1  6  1  1  0  0  0
  4 25  1  6  0  0  0
  4  7  1  0  0  0  0
  4  9  1  0  0  0  0
  5  1  1  0  0  0  0
  7  2  1  6  0  0  0
  7  8  1  0  0  0  0
  8 10  1  6  0  0  0
  8  5  1  0  0  0  0
  9  3  1  1  0  0  0
  9 11  1  0  0  0  0
 11 12  1  6  0  0  0
 11  1  1  0  0  0  0
 12 13  1  6  0  0  0
 14 12  1  0  0  0  0
 14 21  1  1  0  0  0
 15 17  2  0  0  0  0
 17 16  2  0  0  0  0
 17 18  1  0  0  0  0
 17 14  1  0  0  0  0
 18 19  1  0  0  0  0
 20 18  1  0  0  0  0
 21 22  1  0  0  0  0
 22 24  1  0  0  0  0
 24 23  1  0  0  0  0
 26 25  1  0  0  0  0
 27 28  3  0  0  0  0
 28 26  1  0  0  0  0
 29 27  1  0  0  0  0
 30 29  1  0  0  0  0
M  END
>  <MODEL>
7

>  <REMARK>
 VINA RESULT:      -6.2      3.269      6.299
  Name = 
  11 active torsions:
  status: ('A' for Active; 'I' for Inactive)
    1  A    between atoms: C_1  and  C_4
    2  A    between atoms: C_1  and  C_29
    3  A    between atoms: C_4  and  C_5
    4  A    between atoms: C_4  and  S_12
    5  A    between atoms: C_5  and  C_21
    6  A    between atoms: C_10  and  C_16
    7  A    between atoms: C_11  and  C_24
    8  A    between atoms: S_12  and  C_13
    9  A    between atoms: C_15  and  C_24
   10  A    between atoms: C_15  and  C_25
   11  A    between atoms: C_17  and  C_21
                            x       y       z     vdW  Elec       q    Type
                         _______ _______ _______ _____ _____    ______ ____

>  <TORSDO>
F 11

$$$$
=
 OpenBabel10262422043D

 30 30  0  0  1  0  0  0  0  0999 V2000
  184.8310  178.3930  145.0490 C   0  0  2  0  0  3  0  0  0  0  0  0
  182.0430  178.0850  141.6350 O   0  0  0  0  0  1  0  0  0  0  0  0
  185.4380  180.1860  142.3430 O   0  0  0  0  0  1  0  0  0  0  0  0
  184.4020  177.9940  142.1170 C   0  0  2  0  0  3  0  0  0  0  0  0
  183.6770  179.3380  144.7670 C   0  0  0  0  0  2  0  0  0  0  0  0
  185.3020  178.6200  146.4730 C   0  0  0  0  0  1  0  0  0  0  0  0
  183.0540  178.6920  142.3900 C   0  0  2  0  0  3  0  0  0  0  0  0
  182.6570  178.6540  143.8720 C   0  0  2  0  0  3  0  0  0  0  0  0
  185.6020  178.8230  142.6040 C   0  0  2  0  0  3  0  0  0  0  0  0
  181.3190  179.3450  144.0710 C   0  0  0  0  0  1  0  0  0  0  0  0
  185.9980  178.5930  144.0730 C   0  0  2  0  0  3  0  0  0  0  0  0
  187.0380  177.4700  144.2320 C   0  0  1  0  0  3  0  0  0  0  0  0
  187.2120  176.7500  143.0480 O   0  0  0  0  0  1  0  0  0  0  0  0
  188.3850  177.9200  144.8180 C   0  0  2  0  0  3  0  0  0  0  0  0
  190.7490  178.9610  144.0430 O   0  0  0  0  0  0  0  0  0  0  0  0
  189.0210  178.7010  142.3260 O   0  0  0  0  0  0  0  0  0  0  0  0
  189.6350  178.0790  143.5490 S   0  0  0  0  0  0  0  0  0  0  0  0
  190.2920  176.4720  143.1340 C   0  0  0  0  0  3  0  0  0  0  0  0
  190.5490  176.3820  141.6440 C   0  0  0  0  0  1  0  0  0  0  0  0
  191.5840  176.2260  143.8880 C   0  0  0  0  0  1  0  0  0  0  0  0
  188.8890  177.0360  145.9510 C   0  0  0  0  0  2  0  0  0  0  0  0
  189.6910  177.8540  146.9440 C   0  0  0  0  0  2  0  0  0  0  0  0
  187.9090  177.0890  148.4760 C   0  0  0  0  0  1  0  0  0  0  0  0
  188.8010  178.2530  148.1010 C   0  0  0  0  0  2  0  0  0  0  0  0
  184.5780  177.7190  140.6280 C   0  0  0  0  0  2  0  0  0  0  0  0
  184.9790  178.9870  139.9010 C   0  0  0  0  0  2  0  0  0  0  0  0
  182.8270  180.0770  138.7620 C   0  0  0  0  0  0  0  0  0  0  0  0
  183.8010  179.5870  139.2770 C   0  0  0  0  0  0  0  0  0  0  0  0
  181.6460  180.6690  138.1360 C   0  0  0  0  0  2  0  0  0  0  0  0
  181.6350  182.0310  138.3690 F   0  0  0  0  0  0  0  0  0  0  0  0
  1  6  1  1  0  0  0
  4 25  1  6  0  0  0
  4  7  1  0  0  0  0
  4  9  1  0  0  0  0
  5  1  1  0  0  0  0
  7  2  1  6  0  0  0
  7  8  1  0  0  0  0
  8 10  1  6  0  0  0
  8  5  1  0  0  0  0
  9  3  1  1  0  0  0
  9 11  1  0  0  0  0
 11 12  1  6  0  0  0
 11  1  1  0  0  0  0
 12 13  1  6  0  0  0
 12 14  1  0  0  0  0
 14 21  1  1  0  0  0
 16 17  2  0  0  0  0
 17 15  2  0  0  0  0
 17 14  1  0  0  0  0
 18 17  1  0  0  0  0
 18 20  1  0  0  0  0
 19 18  1  0  0  0  0
 21 22  1  0  0  0  0
 22 24  1  0  0  0  0
 24 23  1  0  0  0  0
 26 25  1  0  0  0  0
 27 28  3  0  0  0  0
 28 26  1  0  0  0  0
 29 30  1  0  0  0  0
 29 27  1  0  0  0  0
M  END
>  <MODEL>
8

>  <REMARK>
 VINA RESULT:      -6.2      3.835      7.068
  Name = 
  11 active torsions:
  status: ('A' for Active; 'I' for Inactive)
    1  A    between atoms: C_1  and  C_4
    2  A    between atoms: C_1  and  C_29
    3  A    between atoms: C_4  and  C_5
    4  A    between atoms: C_4  and  S_12
    5  A    between atoms: C_5  and  C_21
    6  A    between atoms: C_10  and  C_16
    7  A    between atoms: C_11  and  C_24
    8  A    between atoms: S_12  and  C_13
    9  A    between atoms: C_15  and  C_24
   10  A    between atoms: C_15  and  C_25
   11  A    between atoms: C_17  and  C_21
                            x       y       z     vdW  Elec       q    Type
                         _______ _______ _______ _____ _____    ______ ____

>  <TORSDO>
F 11

$$$$
=
 OpenBabel10262422043D

 30 30  0  0  1  0  0  0  0  0999 V2000
  186.0300  178.2890  143.0810 C   0  0  2  0  0  3  0  0  0  0  0  0
  189.3750  178.4490  145.9640 O   0  0  0  0  0  1  0  0  0  0  0  0
  188.3520  175.9440  142.9440 O   0  0  0  0  0  1  0  0  0  0  0  0
  188.9740  178.2040  143.6010 C   0  0  2  0  0  3  0  0  0  0  0  0
  186.0980  177.5300  144.3950 C   0  0  0  0  0  2  0  0  0  0  0  0
  184.6000  178.2500  142.5760 C   0  0  0  0  0  1  0  0  0  0  0  0
  188.5400  177.8230  145.0310 C   0  0  2  0  0  3  0  0  0  0  0  0
  187.0850  178.2060  145.3310 C   0  0  2  0  0  3  0  0  0  0  0  0
  188.3630  177.2790  142.5350 C   0  0  2  0  0  3  0  0  0  0  0  0
  186.7260  177.8150  146.7540 C   0  0  0  0  0  1  0  0  0  0  0  0
  186.9750  177.7050  142.0230 C   0  0  2  0  0  3  0  0  0  0  0  0
  187.0610  178.6320  140.7990 C   0  0  1  0  0  3  0  0  0  0  0  0
  188.2790  179.3130  140.7440 O   0  0  0  0  0  1  0  0  0  0  0  0
  186.7340  177.9580  139.4570 C   0  0  2  0  0  3  0  0  0  0  0  0
  189.2110  176.9240  139.1950 O   0  0  0  0  0  0  0  0  0  0  0  0
  188.7890  179.1000  138.1540 O   0  0  0  0  0  0  0  0  0  0  0  0
  188.1990  177.7500  138.4520 S   0  0  0  0  0  0  0  0  0  0  0  0
  187.7770  176.9340  136.9210 C   0  0  0  0  0  3  0  0  0  0  0  0
  189.0250  176.6940  136.0960 C   0  0  0  0  0  1  0  0  0  0  0  0
  187.0960  175.6100  137.2070 C   0  0  0  0  0  1  0  0  0  0  0  0
  185.6410  178.6620  138.6640 C   0  0  0  0  0  2  0  0  0  0  0  0
  184.2760  178.3130  139.2200 C   0  0  0  0  0  2  0  0  0  0  0  0
  182.6920  176.4270  139.4290 C   0  0  0  0  0  1  0  0  0  0  0  0
  183.7810  177.0370  138.5730 C   0  0  0  0  0  2  0  0  0  0  0  0
  190.4920  178.1610  143.4640 C   0  0  0  0  0  2  0  0  0  0  0  0
  190.9750  176.7260  143.4100 C   0  0  0  0  0  2  0  0  0  0  0  0
  191.9110  176.0130  145.8040 C   0  0  0  0  0  0  0  0  0  0  0  0
  191.4870  176.3320  144.7220 C   0  0  0  0  0  0  0  0  0  0  0  0
  192.4280  175.6270  147.1170 C   0  0  0  0  0  2  0  0  0  0  0  0
  191.7590  176.3310  148.1000 F   0  0  0  0  0  0  0  0  0  0  0  0
  1  6  1  6  0  0  0
  1  5  1  0  0  0  0
  4 25  1  1  0  0  0
  4  7  1  0  0  0  0
  5  8  1  0  0  0  0
  7  8  1  0  0  0  0
  7  2  1  1  0  0  0
  8 10  1  1  0  0  0
  9  3  1  1  0  0  0
  9  4  1  0  0  0  0
 11 12  1  6  0  0  0
 11  9  1  0  0  0  0
 11  1  1  0  0  0  0
 12 13  1  6  0  0  0
 14 21  1  6  0  0  0
 14 12  1  0  0  0  0
 16 17  2  0  0  0  0
 17 15  2  0  0  0  0
 17 14  1  0  0  0  0
 18 20  1  0  0  0  0
 18 17  1  0  0  0  0
 19 18  1  0  0  0  0
 21 22  1  0  0  0  0
 24 22  1  0  0  0  0
 24 23  1  0  0  0  0
 26 25  1  0  0  0  0
 26 28  1  0  0  0  0
 27 29  1  0  0  0  0
 28 27  3  0  0  0  0
 29 30  1  0  0  0  0
M  END
>  <MODEL>
9

>  <REMARK>
 VINA RESULT:      -6.0      1.972      3.229
  Name = 
  11 active torsions:
  status: ('A' for Active; 'I' for Inactive)
    1  A    between atoms: C_1  and  C_4
    2  A    between atoms: C_1  and  C_29
    3  A    between atoms: C_4  and  C_5
    4  A    between atoms: C_4  and  S_12
    5  A    between atoms: C_5  and  C_21
    6  A    between atoms: C_10  and  C_16
    7  A    between atoms: C_11  and  C_24
    8  A    between atoms: S_12  and  C_13
    9  A    between atoms: C_15  and  C_24
   10  A    between atoms: C_15  and  C_25
   11  A    between atoms: C_17  and  C_21
                            x       y       z     vdW  Elec       q    Type
                         _______ _______ _______ _____ _____    ______ ____

>  <TORSDO>
F 11

$$$$
