=
 OpenBabel10262419353D

 31 35  0  0  1  0  0  0  0  0999 V2000
  186.8940  177.9940  147.4370 C   0  0  0  0  0  0  0  0  0  0  0  0
  187.5040  178.2960  143.6690 C   0  0  2  0  0  3  0  0  0  0  0  0
  188.9360  177.7190  143.6030 C   0  0  2  0  0  3  0  0  0  0  0  0
  182.4670  179.3370  142.5110 O   0  0  0  0  0  0  0  0  0  0  0  0
  183.0400  178.9300  141.4640 C   0  0  0  0  0  0  0  0  0  0  0  0
  191.3440  178.7030  143.6520 C   0  0  0  0  0  2  0  0  0  0  0  0
  186.8310  178.1630  145.0150 C   0  0  0  0  0  0  0  0  0  0  0  0
  185.5050  178.1450  147.4860 C   0  0  0  0  0  3  0  0  0  0  0  0
  189.9140  178.7520  144.1960 C   0  0  0  0  0  2  0  0  0  0  0  0
  185.1930  178.2970  142.6810 C   0  0  0  0  0  0  0  0  0  0  0  0
  187.6350  177.8340  148.6400 N   0  0  0  0  0  1  0  0  0  0  0  0
  188.5610  177.3590  141.1420 C   0  0  0  0  0  3  0  0  0  0  0  0
  192.0550  177.3740  143.9220 C   0  0  0  0  0  2  0  0  0  0  0  0
  184.6770  178.4900  143.8630 N   0  0  0  0  0  0  0  0  0  0  0  0
  186.5960  177.7500  142.5580 C   0  0  1  0  0  3  0  0  0  0  0  0
  184.3840  178.4390  141.5050 N   0  0  0  0  0  2  0  0  0  0  0  0
  187.5560  178.0160  146.2060 C   0  0  0  0  0  3  0  0  0  0  0  0
  191.3280  176.1460  143.3670 C   0  0  0  0  0  2  0  0  0  0  0  0
  185.4330  178.3200  145.0720 C   0  0  0  0  0  0  0  0  0  0  0  0
  184.7750  178.3110  146.3070 C   0  0  0  0  0  3  0  0  0  0  0  0
  187.2430  178.0690  141.2200 C   0  0  0  0  0  2  0  0  0  0  0  0
  189.3520  177.2100  142.2170 C   0  0  0  0  0  0  0  0  0  0  0  0
  190.6210  176.4150  142.0380 C   0  0  0  0  0  2  0  0  0  0  0  0
  182.8160  176.7150  138.4830 C   0  0  1  0  0  3  0  0  0  0  0  0
  181.3710  177.9540  139.9830 O   0  0  0  0  0  0  0  0  0  0  0  0
  184.2200  180.1010  139.1120 O   0  0  0  0  0  1  0  0  0  0  0  0
  183.4750  175.3660  138.2900 C   0  0  0  0  0  1  0  0  0  0  0  0
  182.0320  176.7190  139.7930 C   0  0  0  0  0  2  0  0  0  0  0  0
  183.2390  179.1310  138.9040 C   0  0  2  0  0  3  0  0  0  0  0  0
  182.3280  178.9880  140.1380 C   0  0  2  0  0  3  0  0  0  0  0  0
  183.8850  177.7970  138.5470 C   0  0  0  0  0  2  0  0  0  0  0  0
  1  8  1  0  0  0  0
  1 11  1  0  0  0  0
  2  7  1  1  0  0  0
  3  2  1  0  0  0  0
  3  9  1  6  0  0  0
  5 16  1  0  0  0  0
  5  4  2  0  0  0  0
  6 13  1  0  0  0  0
  6  9  1  0  0  0  0
  7 19  2  0  0  0  0
  7 17  1  0  0  0  0
 10 14  2  0  0  0  0
 12 21  1  0  0  0  0
 12 22  2  0  0  0  0
 14 19  1  0  0  0  0
 15 21  1  6  0  0  0
 15 10  1  0  0  0  0
 15  2  1  0  0  0  0
 16 10  1  0  0  0  0
 17  1  2  0  0  0  0
 18 13  1  0  0  0  0
 19 20  1  0  0  0  0
 20  8  2  0  0  0  0
 22  3  1  0  0  0  0
 23 22  1  0  0  0  0
 23 18  1  0  0  0  0
 24 27  1  1  0  0  0
 24 31  1  0  0  0  0
 24 28  1  0  0  0  0
 25 30  1  0  0  0  0
 28 25  1  0  0  0  0
 29 26  1  1  0  0  0
 29 30  1  0  0  0  0
 30  5  1  1  0  0  0
 31 29  1  0  0  0  0
M  END
>  <MODEL>
1

>  <REMARK>
 VINA RESULT:      -9.5      0.000      0.000
  Name = 
  1 active torsions:
  status: ('A' for Active; 'I' for Inactive)
    1  A    between atoms: C_9  and  C_22
                            x       y       z     vdW  Elec       q    Type
                         _______ _______ _______ _____ _____    ______ ____

>  <TORSDO>
F 1

$$$$
=
 OpenBabel10262419353D

 31 35  0  0  1  0  0  0  0  0999 V2000
  185.6560  178.2660  145.5280 C   0  0  0  0  0  0  0  0  0  0  0  0
  188.5150  177.9510  143.0010 C   0  0  2  0  0  3  0  0  0  0  0  0
  189.5790  177.2940  143.9100 C   0  0  2  0  0  3  0  0  0  0  0  0
  185.5060  179.0680  138.8190 O   0  0  0  0  0  0  0  0  0  0  0  0
  186.5430  178.4740  138.4150 C   0  0  0  0  0  0  0  0  0  0  0  0
  191.5380  178.1430  145.3960 C   0  0  0  0  0  2  0  0  0  0  0  0
  187.1400  178.0620  143.6160 C   0  0  0  0  0  0  0  0  0  0  0  0
  184.5780  178.4970  144.6690 C   0  0  0  0  0  3  0  0  0  0  0  0
  190.1050  178.3520  144.8990 C   0  0  0  0  0  2  0  0  0  0  0  0
  187.3530  177.9230  140.7730 C   0  0  0  0  0  0  0  0  0  0  0  0
  185.4550  178.2540  146.9350 N   0  0  0  0  0  1  0  0  0  0  0  0
  190.7740  176.5790  141.8160 C   0  0  0  0  0  3  0  0  0  0  0  0
  191.7320  176.8370  146.1690 C   0  0  0  0  0  2  0  0  0  0  0  0
  186.2460  178.3220  141.3340 N   0  0  0  0  0  0  0  0  0  0  0  0
  188.4330  177.2880  141.6180 C   0  0  1  0  0  3  0  0  0  0  0  0
  187.4840  177.9250  139.3440 N   0  0  0  0  0  2  0  0  0  0  0  0
  186.9360  178.0620  145.0030 C   0  0  0  0  0  3  0  0  0  0  0  0
  191.3470  175.5780  145.3860 C   0  0  0  0  0  2  0  0  0  0  0  0
  186.0510  178.3020  142.7570 C   0  0  0  0  0  0  0  0  0  0  0  0
  184.7740  178.5180  143.2850 C   0  0  0  0  0  3  0  0  0  0  0  0
  189.8100  177.3630  140.9760 C   0  0  0  0  0  2  0  0  0  0  0  0
  190.6920  176.5560  143.1560 C   0  0  0  0  0  0  0  0  0  0  0  0
  191.6690  175.6760  143.8940 C   0  0  0  0  0  2  0  0  0  0  0  0
  188.4780  176.1380  136.2630 C   0  0  1  0  0  3  0  0  0  0  0  0
  186.2960  177.1850  136.3640 O   0  0  0  0  0  0  0  0  0  0  0  0
  188.8190  179.7280  137.1740 O   0  0  0  0  0  1  0  0  0  0  0  0
  189.2420  174.9060  136.7000 C   0  0  0  0  0  1  0  0  0  0  0  0
  187.0480  176.0660  136.7900 C   0  0  0  0  0  2  0  0  0  0  0  0
  188.2950  178.6040  136.5330 C   0  0  2  0  0  3  0  0  0  0  0  0
  186.8290  178.3650  136.9410 C   0  0  2  0  0  3  0  0  0  0  0  0
  189.1510  177.3790  136.8320 C   0  0  0  0  0  2  0  0  0  0  0  0
  1 11  1  0  0  0  0
  2  7  1  1  0  0  0
  2  3  1  0  0  0  0
  3  9  1  6  0  0  0
  5  4  2  0  0  0  0
  5 16  1  0  0  0  0
  6 13  1  0  0  0  0
  7 17  2  0  0  0  0
  8  1  2  0  0  0  0
  9  6  1  0  0  0  0
 10 14  2  0  0  0  0
 10 15  1  0  0  0  0
 12 22  2  0  0  0  0
 14 19  1  0  0  0  0
 15 21  1  6  0  0  0
 15  2  1  0  0  0  0
 16 10  1  0  0  0  0
 17  1  1  0  0  0  0
 18 13  1  0  0  0  0
 19 20  2  0  0  0  0
 19  7  1  0  0  0  0
 20  8  1  0  0  0  0
 21 12  1  0  0  0  0
 22 23  1  0  0  0  0
 22  3  1  0  0  0  0
 23 18  1  0  0  0  0
 24 27  1  1  0  0  0
 24 28  1  0  0  0  0
 24 31  1  0  0  0  0
 25 28  1  0  0  0  0
 25 30  1  0  0  0  0
 29 31  1  0  0  0  0
 29 30  1  0  0  0  0
 29 26  1  1  0  0  0
 30  5  1  1  0  0  0
M  END
>  <MODEL>
2

>  <REMARK>
 VINA RESULT:      -9.5      2.682      3.696
  Name = 
  1 active torsions:
  status: ('A' for Active; 'I' for Inactive)
    1  A    between atoms: C_9  and  C_22
                            x       y       z     vdW  Elec       q    Type
                         _______ _______ _______ _____ _____    ______ ____

>  <TORSDO>
F 1

$$$$
=
 OpenBabel10262419353D

 31 35  0  0  1  0  0  0  0  0999 V2000
  189.2810  177.9160  141.7910 C   0  0  0  0  0  0  0  0  0  0  0  0
  186.4300  177.8790  144.3470 C   0  0  2  0  0  3  0  0  0  0  0  0
  187.2560  178.0510  145.6420 C   0  0  2  0  0  3  0  0  0  0  0  0
  182.6210  178.3720  140.7360 O   0  0  0  0  0  0  0  0  0  0  0  0
  182.1560  178.7230  141.8540 C   0  0  0  0  0  0  0  0  0  0  0  0
  188.3060  176.4550  147.4070 C   0  0  0  0  0  2  0  0  0  0  0  0
  187.2190  178.0390  143.0680 C   0  0  0  0  0  0  0  0  0  0  0  0
  188.5660  178.1410  140.6110 C   0  0  0  0  0  3  0  0  0  0  0  0
  188.0000  176.7340  145.9330 C   0  0  0  0  0  2  0  0  0  0  0  0
  184.4230  178.6120  143.0240 C   0  0  0  0  0  0  0  0  0  0  0  0
  190.6910  177.7350  141.7450 N   0  0  0  0  0  1  0  0  0  0  0  0
  185.1300  178.7700  146.7750 C   0  0  0  0  0  3  0  0  0  0  0  0
  189.2170  177.5030  148.0510 C   0  0  0  0  0  2  0  0  0  0  0  0
  185.0800  178.4360  141.9120 N   0  0  0  0  0  0  0  0  0  0  0  0
  185.1800  178.7700  144.3220 C   0  0  1  0  0  3  0  0  0  0  0  0
  183.0040  178.8240  143.0040 N   0  0  0  0  0  2  0  0  0  0  0  0
  188.6080  177.8520  143.0140 C   0  0  0  0  0  3  0  0  0  0  0  0
  188.6800  178.9360  147.9740 C   0  0  0  0  0  2  0  0  0  0  0  0
  186.5040  178.2600  141.8750 C   0  0  0  0  0  0  0  0  0  0  0  0
  187.1790  178.3100  140.6520 C   0  0  0  0  0  3  0  0  0  0  0  0
  184.3400  178.4370  145.5450 C   0  0  0  0  0  2  0  0  0  0  0  0
  186.4570  178.5790  146.8400 C   0  0  0  0  0  0  0  0  0  0  0  0
  187.1590  179.0170  148.1010 C   0  0  0  0  0  2  0  0  0  0  0  0
  179.0460  177.5640  140.1740 C   0  0  1  0  0  3  0  0  0  0  0  0
  179.9440  177.8660  142.4040 O   0  0  0  0  0  0  0  0  0  0  0  0
  180.8170  180.8260  140.4140 O   0  0  0  0  0  1  0  0  0  0  0  0
  178.9310  176.5560  139.0510 C   0  0  0  0  0  1  0  0  0  0  0  0
  179.8520  176.9620  141.3220 C   0  0  0  0  0  2  0  0  0  0  0  0
  180.0290  179.7530  140.8320 C   0  0  2  0  0  3  0  0  0  0  0  0
  180.6860  179.0070  142.0100 C   0  0  2  0  0  3  0  0  0  0  0  0
  179.7650  178.8060  139.6670 C   0  0  0  0  0  2  0  0  0  0  0  0
  1 17  1  0  0  0  0
  2  7  1  6  0  0  0
  2  3  1  0  0  0  0
  3  9  1  1  0  0  0
  3 22  1  0  0  0  0
  4  5  2  0  0  0  0
  5 16  1  0  0  0  0
  6 13  1  0  0  0  0
  8 20  1  0  0  0  0
  8  1  2  0  0  0  0
  9  6  1  0  0  0  0
 10 15  1  0  0  0  0
 11  1  1  0  0  0  0
 12 22  2  0  0  0  0
 14 10  2  0  0  0  0
 15  2  1  0  0  0  0
 15 21  1  1  0  0  0
 16 10  1  0  0  0  0
 17  7  2  0  0  0  0
 18 13  1  0  0  0  0
 18 23  1  0  0  0  0
 19 14  1  0  0  0  0
 19  7  1  0  0  0  0
 20 19  2  0  0  0  0
 21 12  1  0  0  0  0
 22 23  1  0  0  0  0
 24 27  1  6  0  0  0
 24 28  1  0  0  0  0
 28 25  1  0  0  0  0
 29 26  1  6  0  0  0
 29 30  1  0  0  0  0
 30  5  1  6  0  0  0
 30 25  1  0  0  0  0
 31 24  1  0  0  0  0
 31 29  1  0  0  0  0
M  END
>  <MODEL>
3

>  <REMARK>
 VINA RESULT:      -9.4      2.490      4.451
  Name = 
  1 active torsions:
  status: ('A' for Active; 'I' for Inactive)
    1  A    between atoms: C_9  and  C_22
                            x       y       z     vdW  Elec       q    Type
                         _______ _______ _______ _____ _____    ______ ____

>  <TORSDO>
F 1

$$$$
=
 OpenBabel10262419353D

 31 35  0  0  1  0  0  0  0  0999 V2000
  191.1040  177.4280  144.3080 C   0  0  0  0  0  0  0  0  0  0  0  0
  187.5900  177.7670  142.8270 C   0  0  2  0  0  3  0  0  0  0  0  0
  186.8340  178.2410  144.0890 C   0  0  2  0  0  3  0  0  0  0  0  0
  189.1980  177.3250  137.8250 O   0  0  0  0  0  0  0  0  0  0  0  0
  188.0610  177.8720  137.8310 C   0  0  0  0  0  0  0  0  0  0  0  0
  185.4740  177.0900  145.9850 C   0  0  0  0  0  2  0  0  0  0  0  0
  189.0920  177.7050  142.9770 C   0  0  0  0  0  0  0  0  0  0  0  0
  191.8710  177.3720  143.1410 C   0  0  0  0  0  3  0  0  0  0  0  0
  186.6890  177.0490  145.0540 C   0  0  0  0  0  2  0  0  0  0  0  0
  188.0000  178.1150  140.3710 C   0  0  0  0  0  0  0  0  0  0  0  0
  191.7320  177.3130  145.5780 N   0  0  0  0  0  1  0  0  0  0  0  0
  185.0160  179.0660  142.5590 C   0  0  0  0  0  3  0  0  0  0  0  0
  185.4710  178.2920  146.9330 C   0  0  0  0  0  2  0  0  0  0  0  0
  189.2430  177.7500  140.5180 N   0  0  0  0  0  0  0  0  0  0  0  0
  187.2080  178.5710  141.5750 C   0  0  1  0  0  3  0  0  0  0  0  0
  187.4320  178.2470  139.0610 N   0  0  0  0  0  2  0  0  0  0  0  0
  189.7170  177.5800  144.2260 C   0  0  0  0  0  3  0  0  0  0  0  0
  185.5360  179.6500  146.2280 C   0  0  0  0  0  2  0  0  0  0  0  0
  189.8700  177.6420  141.8050 C   0  0  0  0  0  0  0  0  0  0  0  0
  191.2560  177.4760  141.8910 C   0  0  0  0  0  3  0  0  0  0  0  0
  185.7050  178.4520  141.3780 C   0  0  0  0  0  2  0  0  0  0  0  0
  185.5090  178.9600  143.8030 C   0  0  0  0  0  0  0  0  0  0  0  0
  184.7710  179.6790  144.9050 C   0  0  0  0  0  2  0  0  0  0  0  0
  186.2780  175.7240  135.3720 C   0  0  1  0  0  3  0  0  0  0  0  0
  185.9510  177.7750  136.6190 O   0  0  0  0  0  0  0  0  0  0  0  0
  189.3640  177.7970  135.2640 O   0  0  0  0  0  1  0  0  0  0  0  0
  186.0670  174.2260  135.4440 C   0  0  0  0  0  1  0  0  0  0  0  0
  185.8040  176.3700  136.6700 C   0  0  0  0  0  2  0  0  0  0  0  0
  187.9960  177.5210  135.2800 C   0  0  2  0  0  3  0  0  0  0  0  0
  187.3260  178.1070  136.5380 C   0  0  2  0  0  3  0  0  0  0  0  0
  187.7600  176.0180  135.1890 C   0  0  0  0  0  2  0  0  0  0  0  0
  1 11  1  0  0  0  0
  2  7  1  1  0  0  0
  2  3  1  0  0  0  0
  3  9  1  1  0  0  0
  4  5  2  0  0  0  0
  5 16  1  0  0  0  0
  6 13  1  0  0  0  0
  7 17  2  0  0  0  0
  8  1  2  0  0  0  0
  9  6  1  0  0  0  0
 10 14  2  0  0  0  0
 10 15  1  0  0  0  0
 12 22  2  0  0  0  0
 14 19  1  0  0  0  0
 15 21  1  6  0  0  0
 15  2  1  0  0  0  0
 16 10  1  0  0  0  0
 17  1  1  0  0  0  0
 18 13  1  0  0  0  0
 19 20  2  0  0  0  0
 19  7  1  0  0  0  0
 20  8  1  0  0  0  0
 21 12  1  0  0  0  0
 22  3  1  0  0  0  0
 22 23  1  0  0  0  0
 23 18  1  0  0  0  0
 24 27  1  1  0  0  0
 24 28  1  0  0  0  0
 25 28  1  0  0  0  0
 29 26  1  1  0  0  0
 29 30  1  0  0  0  0
 30 25  1  0  0  0  0
 30  5  1  1  0  0  0
 31 29  1  0  0  0  0
 31 24  1  0  0  0  0
M  END
>  <MODEL>
4

>  <REMARK>
 VINA RESULT:      -9.3      3.156      5.421
  Name = 
  1 active torsions:
  status: ('A' for Active; 'I' for Inactive)
    1  A    between atoms: C_9  and  C_22
                            x       y       z     vdW  Elec       q    Type
                         _______ _______ _______ _____ _____    ______ ____

>  <TORSDO>
F 1

$$$$
=
 OpenBabel10262419353D

 31 35  0  0  1  0  0  0  0  0999 V2000
  189.4680  177.9770  141.8770 C   0  0  0  0  0  0  0  0  0  0  0  0
  186.1560  177.9620  143.7970 C   0  0  2  0  0  3  0  0  0  0  0  0
  186.7000  178.1560  145.2310 C   0  0  2  0  0  3  0  0  0  0  0  0
  183.1640  178.3880  139.4780 O   0  0  0  0  0  0  0  0  0  0  0  0
  182.4800  178.7520  140.4730 C   0  0  0  0  0  0  0  0  0  0  0  0
  187.3700  176.5870  147.1960 C   0  0  0  0  0  2  0  0  0  0  0  0
  187.1890  178.1090  142.7050 C   0  0  0  0  0  0  0  0  0  0  0  0
  189.0090  178.1830  140.5730 C   0  0  0  0  0  3  0  0  0  0  0  0
  187.3710  176.8450  145.6870 C   0  0  0  0  0  2  0  0  0  0  0  0
  184.4600  178.6670  142.0830 C   0  0  0  0  0  0  0  0  0  0  0  0
  190.8580  177.8030  142.1230 N   0  0  0  0  0  1  0  0  0  0  0  0
  184.3850  178.8790  145.8960 C   0  0  0  0  0  3  0  0  0  0  0  0
  188.1280  177.6490  147.9980 C   0  0  0  0  0  2  0  0  0  0  0  0
  185.3300  178.4800  141.1300 N   0  0  0  0  0  0  0  0  0  0  0  0
  184.9360  178.8460  143.5050 C   0  0  1  0  0  3  0  0  0  0  0  0
  183.0750  178.8730  141.7700 N   0  0  0  0  0  2  0  0  0  0  0  0
  188.5600  177.9270  142.9380 C   0  0  0  0  0  3  0  0  0  0  0  0
  187.6160  179.0780  147.7920 C   0  0  0  0  0  2  0  0  0  0  0  0
  186.7320  178.3100  141.3880 C   0  0  0  0  0  0  0  0  0  0  0  0
  187.6430  178.3460  140.3270 C   0  0  0  0  0  3  0  0  0  0  0  0
  183.8640  178.5260  144.5350 C   0  0  0  0  0  2  0  0  0  0  0  0
  185.6720  178.6950  146.2330 C   0  0  0  0  0  0  0  0  0  0  0  0
  186.1010  179.1530  147.6050 C   0  0  0  0  0  2  0  0  0  0  0  0
  179.5580  178.8710  142.7730 C   0  0  1  0  0  3  0  0  0  0  0  0
  180.5930  180.1900  141.0240 O   0  0  0  0  0  0  0  0  0  0  0  0
  180.5500  176.6830  139.9330 O   0  0  0  0  0  1  0  0  0  0  0  0
  179.5580  178.6490  144.2700 C   0  0  0  0  0  1  0  0  0  0  0  0
  180.5970  179.9300  142.4130 C   0  0  0  0  0  2  0  0  0  0  0  0
  180.0770  177.8300  140.5740 C   0  0  2  0  0  3  0  0  0  0  0  0
  181.0080  179.0310  140.3210 C   0  0  2  0  0  3  0  0  0  0  0  0
  179.9160  177.5710  142.0670 C   0  0  0  0  0  2  0  0  0  0  0  0
  1 11  1  0  0  0  0
  1 17  1  0  0  0  0
  2  7  1  6  0  0  0
  2  3  1  0  0  0  0
  3  9  1  1  0  0  0
  3 22  1  0  0  0  0
  4  5  2  0  0  0  0
  5 16  1  0  0  0  0
  6 13  1  0  0  0  0
  7 17  2  0  0  0  0
  8  1  2  0  0  0  0
  9  6  1  0  0  0  0
 10 15  1  0  0  0  0
 12 22  2  0  0  0  0
 14 19  1  0  0  0  0
 14 10  2  0  0  0  0
 15  2  1  0  0  0  0
 15 21  1  1  0  0  0
 16 10  1  0  0  0  0
 18 13  1  0  0  0  0
 19  7  1  0  0  0  0
 20  8  1  0  0  0  0
 20 19  2  0  0  0  0
 21 12  1  0  0  0  0
 22 23  1  0  0  0  0
 23 18  1  0  0  0  0
 24 27  1  1  0  0  0
 25 28  1  0  0  0  0
 28 24  1  0  0  0  0
 29 26  1  6  0  0  0
 29 31  1  0  0  0  0
 30  5  1  1  0  0  0
 30 29  1  0  0  0  0
 30 25  1  0  0  0  0
 31 24  1  0  0  0  0
M  END
>  <MODEL>
5

>  <REMARK>
 VINA RESULT:      -9.0      2.296      4.856
  Name = 
  1 active torsions:
  status: ('A' for Active; 'I' for Inactive)
    1  A    between atoms: C_9  and  C_22
                            x       y       z     vdW  Elec       q    Type
                         _______ _______ _______ _____ _____    ______ ____

>  <TORSDO>
F 1

$$$$
=
 OpenBabel10262419353D

 31 35  0  0  1  0  0  0  0  0999 V2000
  190.8140  176.8190  145.9830 C   0  0  0  0  0  0  0  0  0  0  0  0
  187.9830  177.3110  143.4540 C   0  0  2  0  0  3  0  0  0  0  0  0
  186.9620  178.0340  144.3620 C   0  0  2  0  0  3  0  0  0  0  0  0
  190.9190  176.0030  139.2760 O   0  0  0  0  0  0  0  0  0  0  0  0
  189.9210  176.6610  138.8700 C   0  0  0  0  0  0  0  0  0  0  0  0
  184.9520  177.3100  145.8470 C   0  0  0  0  0  2  0  0  0  0  0  0
  189.3480  177.1140  144.0700 C   0  0  0  0  0  0  0  0  0  0  0  0
  191.8770  176.5200  145.1250 C   0  0  0  0  0  3  0  0  0  0  0  0
  186.3690  177.0110  145.3510 C   0  0  0  0  0  2  0  0  0  0  0  0
  189.1460  177.2640  141.2270 C   0  0  0  0  0  0  0  0  0  0  0  0
  191.0150  176.8190  147.3910 N   0  0  0  0  0  1  0  0  0  0  0  0
  185.8160  178.8210  142.2670 C   0  0  0  0  0  3  0  0  0  0  0  0
  184.8400  178.6270  146.6190 C   0  0  0  0  0  2  0  0  0  0  0  0
  190.2250  176.7960  141.7900 N   0  0  0  0  0  0  0  0  0  0  0  0
  188.1070  177.9660  142.0700 C   0  0  1  0  0  3  0  0  0  0  0  0
  189.0160  177.2690  139.7980 N   0  0  0  0  0  2  0  0  0  0  0  0
  189.5500  177.1020  145.4580 C   0  0  0  0  0  3  0  0  0  0  0  0
  185.3040  179.8590  145.8350 C   0  0  0  0  0  2  0  0  0  0  0  0
  190.4210  176.8060  143.2120 C   0  0  0  0  0  0  0  0  0  0  0  0
  191.6810  176.5100  143.7420 C   0  0  0  0  0  3  0  0  0  0  0  0
  186.7290  177.9770  141.4280 C   0  0  0  0  0  2  0  0  0  0  0  0
  185.8980  178.8400  143.6070 C   0  0  0  0  0  0  0  0  0  0  0  0
  184.9770  179.7800  144.3440 C   0  0  0  0  0  2  0  0  0  0  0  0
  186.8990  177.2750  136.7910 C   0  0  1  0  0  3  0  0  0  0  0  0
  189.1730  178.0740  137.0340 O   0  0  0  0  0  0  0  0  0  0  0  0
  189.2270  174.4070  137.2180 O   0  0  0  0  0  1  0  0  0  0  0  0
  185.4840  177.5110  137.2750 C   0  0  0  0  0  1  0  0  0  0  0  0
  187.8480  178.2420  137.4940 C   0  0  0  0  0  2  0  0  0  0  0  0
  188.7900  175.6590  136.7850 C   0  0  2  0  0  3  0  0  0  0  0  0
  189.6440  176.7870  137.3960 C   0  0  2  0  0  3  0  0  0  0  0  0
  187.3160  175.8490  137.1210 C   0  0  0  0  0  2  0  0  0  0  0  0
  1 11  1  0  0  0  0
  2  7  1  1  0  0  0
  2  3  1  0  0  0  0
  3  9  1  6  0  0  0
  5  4  2  0  0  0  0
  5 16  1  0  0  0  0
  6 13  1  0  0  0  0
  7 17  2  0  0  0  0
  8  1  2  0  0  0  0
  9  6  1  0  0  0  0
 10 14  2  0  0  0  0
 10 15  1  0  0  0  0
 12 22  2  0  0  0  0
 14 19  1  0  0  0  0
 15 21  1  6  0  0  0
 15  2  1  0  0  0  0
 16 10  1  0  0  0  0
 17  1  1  0  0  0  0
 18 13  1  0  0  0  0
 19 20  2  0  0  0  0
 19  7  1  0  0  0  0
 20  8  1  0  0  0  0
 21 12  1  0  0  0  0
 22 23  1  0  0  0  0
 22  3  1  0  0  0  0
 23 18  1  0  0  0  0
 24 31  1  0  0  0  0
 24 27  1  1  0  0  0
 24 28  1  0  0  0  0
 25 30  1  0  0  0  0
 25 28  1  0  0  0  0
 29 31  1  0  0  0  0
 29 26  1  1  0  0  0
 29 30  1  0  0  0  0
 30  5  1  1  0  0  0
M  END
>  <MODEL>
6

>  <REMARK>
 VINA RESULT:      -8.9      3.415      5.728
  Name = 
  1 active torsions:
  status: ('A' for Active; 'I' for Inactive)
    1  A    between atoms: C_9  and  C_22
                            x       y       z     vdW  Elec       q    Type
                         _______ _______ _______ _____ _____    ______ ____

>  <TORSDO>
F 1

$$$$
=
 OpenBabel10262419353D

 31 35  0  0  1  0  0  0  0  0999 V2000
  183.8010  178.5510  144.2070 C   0  0  0  0  0  0  0  0  0  0  0  0
  187.6200  178.2920  144.1350 C   0  0  2  0  0  3  0  0  0  0  0  0
  187.8640  177.8180  145.5860 C   0  0  2  0  0  3  0  0  0  0  0  0
  187.9750  178.7640  138.8960 O   0  0  0  0  0  0  0  0  0  0  0  0
  189.0390  178.2380  139.3210 C   0  0  0  0  0  0  0  0  0  0  0  0
  188.3980  178.9700  147.8560 C   0  0  0  0  0  2  0  0  0  0  0  0
  186.1690  178.3260  143.7170 C   0  0  0  0  0  0  0  0  0  0  0  0
  183.5200  178.6070  142.8390 C   0  0  0  0  0  3  0  0  0  0  0  0
  187.6150  179.0010  146.5410 C   0  0  0  0  0  2  0  0  0  0  0  0
  188.1580  177.9660  141.7020 C   0  0  0  0  0  0  0  0  0  0  0  0
  182.7430  178.6400  145.1540 N   0  0  0  0  0  1  0  0  0  0  0  0
  190.1360  177.0430  144.8370 C   0  0  0  0  0  3  0  0  0  0  0  0
  188.0740  177.7580  148.7320 C   0  0  0  0  0  2  0  0  0  0  0  0
  186.9420  178.3070  141.3780 N   0  0  0  0  0  0  0  0  0  0  0  0
  188.4560  177.5100  143.1110 C   0  0  1  0  0  3  0  0  0  0  0  0
  189.1750  177.8590  140.6950 N   0  0  0  0  0  2  0  0  0  0  0  0
  185.1220  178.4250  144.6450 C   0  0  0  0  0  3  0  0  0  0  0  0
  188.3040  176.4070  148.0480 C   0  0  0  0  0  2  0  0  0  0  0  0
  185.8800  178.3880  142.3400 C   0  0  0  0  0  0  0  0  0  0  0  0
  184.5580  178.5280  141.9060 C   0  0  0  0  0  3  0  0  0  0  0  0
  189.9220  177.6590  143.4870 C   0  0  0  0  0  2  0  0  0  0  0  0
  189.2140  177.1260  145.8100 C   0  0  0  0  0  0  0  0  0  0  0  0
  189.5060  176.4070  147.1030 C   0  0  0  0  0  2  0  0  0  0  0  0
  190.3350  175.4010  137.2930 C   0  0  1  0  0  3  0  0  0  0  0  0
  189.8070  177.7540  137.0610 O   0  0  0  0  0  0  0  0  0  0  0  0
  191.6040  177.2960  140.2310 O   0  0  0  0  0  1  0  0  0  0  0  0
  189.7370  174.0160  137.1630 C   0  0  0  0  0  1  0  0  0  0  0  0
  189.2690  176.4490  136.9880 C   0  0  0  0  0  2  0  0  0  0  0  0
  191.2850  177.0510  138.8940 C   0  0  2  0  0  3  0  0  0  0  0  0
  190.2060  178.0310  138.3930 C   0  0  2  0  0  3  0  0  0  0  0  0
  190.8330  175.6060  138.7160 C   0  0  0  0  0  2  0  0  0  0  0  0
  1 17  1  0  0  0  0
  1 11  1  0  0  0  0
  2  7  1  6  0  0  0
  2  3  1  0  0  0  0
  3 22  1  0  0  0  0
  3  9  1  1  0  0  0
  4  5  2  0  0  0  0
  5 16  1  0  0  0  0
  6 13  1  0  0  0  0
  7 17  2  0  0  0  0
  8  1  2  0  0  0  0
  9  6  1  0  0  0  0
 10 15  1  0  0  0  0
 12 22  2  0  0  0  0
 14 10  2  0  0  0  0
 14 19  1  0  0  0  0
 15 21  1  1  0  0  0
 15  2  1  0  0  0  0
 16 10  1  0  0  0  0
 18 13  1  0  0  0  0
 19  7  1  0  0  0  0
 20 19  2  0  0  0  0
 20  8  1  0  0  0  0
 21 12  1  0  0  0  0
 22 23  1  0  0  0  0
 23 18  1  0  0  0  0
 24 27  1  1  0  0  0
 24 31  1  0  0  0  0
 25 30  1  0  0  0  0
 28 25  1  0  0  0  0
 28 24  1  0  0  0  0
 29 26  1  1  0  0  0
 30 29  1  0  0  0  0
 30  5  1  1  0  0  0
 31 29  1  0  0  0  0
M  END
>  <MODEL>
7

>  <REMARK>
 VINA RESULT:      -8.8      3.121      5.476
  Name = 
  1 active torsions:
  status: ('A' for Active; 'I' for Inactive)
    1  A    between atoms: C_9  and  C_22
                            x       y       z     vdW  Elec       q    Type
                         _______ _______ _______ _____ _____    ______ ____

>  <TORSDO>
F 1

$$$$
=
 OpenBabel10262419353D

 31 35  0  0  1  0  0  0  0  0999 V2000
  184.9190  178.5780  145.5680 C   0  0  0  0  0  0  0  0  0  0  0  0
  183.2480  178.4980  142.1240 C   0  0  2  0  0  3  0  0  0  0  0  0
  181.8460  179.0190  142.5160 C   0  0  2  0  0  3  0  0  0  0  0  0
  187.7520  177.7460  139.4890 O   0  0  0  0  0  0  0  0  0  0  0  0
  186.8910  178.1970  138.6850 C   0  0  0  0  0  0  0  0  0  0  0  0
  179.5770  177.9350  143.1830 C   0  0  0  0  0  2  0  0  0  0  0  0
  184.2800  178.5710  143.2250 C   0  0  0  0  0  0  0  0  0  0  0  0
  186.2650  178.4820  145.2040 C   0  0  0  0  0  3  0  0  0  0  0  0
  181.1050  177.9090  143.2870 C   0  0  0  0  0  2  0  0  0  0  0  0
  185.1720  178.6590  140.5150 C   0  0  0  0  0  0  0  0  0  0  0  0
  184.5560  178.6280  146.9420 N   0  0  0  0  0  1  0  0  0  0  0  0
  181.4830  179.5550  140.0860 C   0  0  0  0  0  3  0  0  0  0  0  0
  178.9480  179.2120  143.7460 C   0  0  0  0  0  2  0  0  0  0  0  0
  186.0120  178.4110  141.4800 N   0  0  0  0  0  0  0  0  0  0  0  0
  183.7830  179.1540  140.8420 C   0  0  1  0  0  3  0  0  0  0  0  0
  185.6070  178.6280  139.1480 N   0  0  0  0  0  2  0  0  0  0  0  0
  183.9280  178.6090  144.5820 C   0  0  0  0  0  3  0  0  0  0  0  0
  179.4570  180.5030  143.0980 C   0  0  0  0  0  2  0  0  0  0  0  0
  185.6370  178.4680  142.8650 C   0  0  0  0  0  0  0  0  0  0  0  0
  186.6240  178.4240  143.8540 C   0  0  0  0  0  3  0  0  0  0  0  0
  182.7810  178.8960  139.7270 C   0  0  0  0  0  2  0  0  0  0  0  0
  181.0350  179.6000  141.3510 C   0  0  0  0  0  0  0  0  0  0  0  0
  179.7530  180.3520  141.6060 C   0  0  0  0  0  2  0  0  0  0  0  0
  189.0220  176.2530  136.3350 C   0  0  1  0  0  3  0  0  0  0  0  0
  186.7590  177.0990  136.5150 O   0  0  0  0  0  0  0  0  0  0  0  0
  189.0560  179.7530  137.5950 O   0  0  0  0  0  1  0  0  0  0  0  0
  189.8860  175.0530  136.6580 C   0  0  0  0  0  1  0  0  0  0  0  0
  187.6010  176.0110  136.8380 C   0  0  0  0  0  2  0  0  0  0  0  0
  188.6300  178.6580  136.8420 C   0  0  2  0  0  3  0  0  0  0  0  0
  187.1880  178.2570  137.2100 C   0  0  2  0  0  3  0  0  0  0  0  0
  189.5860  177.4850  137.0290 C   0  0  0  0  0  2  0  0  0  0  0  0
  1 11  1  0  0  0  0
  2  3  1  0  0  0  0
  2  7  1  1  0  0  0
  3  9  1  6  0  0  0
  5 16  1  0  0  0  0
  5  4  2  0  0  0  0
  6  9  1  0  0  0  0
  6 13  1  0  0  0  0
  7 17  1  0  0  0  0
  8  1  1  0  0  0  0
 10 15  1  0  0  0  0
 10 14  2  0  0  0  0
 12 22  2  0  0  0  0
 14 19  1  0  0  0  0
 15 21  1  6  0  0  0
 15  2  1  0  0  0  0
 16 10  1  0  0  0  0
 17  1  2  0  0  0  0
 18 13  1  0  0  0  0
 19  7  2  0  0  0  0
 19 20  1  0  0  0  0
 20  8  2  0  0  0  0
 21 12  1  0  0  0  0
 22 23  1  0  0  0  0
 22  3  1  0  0  0  0
 23 18  1  0  0  0  0
 24 27  1  1  0  0  0
 24 28  1  0  0  0  0
 24 31  1  0  0  0  0
 25 28  1  0  0  0  0
 25 30  1  0  0  0  0
 29 31  1  0  0  0  0
 29 30  1  0  0  0  0
 29 26  1  1  0  0  0
 30  5  1  1  0  0  0
M  END
>  <MODEL>
8

>  <REMARK>
 VINA RESULT:      -8.7      3.205      6.657
  Name = 
  1 active torsions:
  status: ('A' for Active; 'I' for Inactive)
    1  A    between atoms: C_9  and  C_22
                            x       y       z     vdW  Elec       q    Type
                         _______ _______ _______ _____ _____    ______ ____

>  <TORSDO>
F 1

$$$$
=
 OpenBabel10262419353D

 31 35  0  0  1  0  0  0  0  0999 V2000
  185.7590  178.0430  145.6600 C   0  0  0  0  0  0  0  0  0  0  0  0
  189.2020  177.6280  144.0390 C   0  0  2  0  0  3  0  0  0  0  0  0
  189.9610  176.9940  145.2270 C   0  0  2  0  0  3  0  0  0  0  0  0
  187.4910  178.6280  139.1540 O   0  0  0  0  0  0  0  0  0  0  0  0
  188.5910  178.0150  139.0720 C   0  0  0  0  0  0  0  0  0  0  0  0
  191.4430  177.8790  147.1740 C   0  0  0  0  0  2  0  0  0  0  0  0
  187.7120  177.7680  144.2430 C   0  0  0  0  0  0  0  0  0  0  0  0
  184.9650  178.2530  144.5280 C   0  0  0  0  0  3  0  0  0  0  0  0
  190.2080  178.0810  146.2920 C   0  0  0  0  0  2  0  0  0  0  0  0
  188.7050  177.5350  141.5770 C   0  0  0  0  0  0  0  0  0  0  0  0
  185.1740  178.0780  146.9550 N   0  0  0  0  0  1  0  0  0  0  0  0
  191.6800  176.2040  143.5710 C   0  0  0  0  0  3  0  0  0  0  0  0
  191.3940  176.5970  148.0090 C   0  0  0  0  0  2  0  0  0  0  0  0
  187.4920  177.9590  141.7970 N   0  0  0  0  0  0  0  0  0  0  0  0
  189.4980  176.9210  142.7080 C   0  0  1  0  0  3  0  0  0  0  0  0
  189.2280  177.4890  140.2420 N   0  0  0  0  0  2  0  0  0  0  0  0
  187.1310  177.8150  145.5180 C   0  0  0  0  0  3  0  0  0  0  0  0
  191.2240  175.3160  147.1870 C   0  0  0  0  0  2  0  0  0  0  0  0
  186.9080  177.9860  143.1080 C   0  0  0  0  0  0  0  0  0  0  0  0
  185.5390  178.2280  143.2540 C   0  0  0  0  0  3  0  0  0  0  0  0
  191.0000  176.9660  142.4730 C   0  0  0  0  0  2  0  0  0  0  0  0
  191.2290  176.2250  144.8350 C   0  0  0  0  0  0  0  0  0  0  0  0
  191.9490  175.3630  145.8420 C   0  0  0  0  0  2  0  0  0  0  0  0
  187.4590  177.5570  135.5580 C   0  0  1  0  0  3  0  0  0  0  0  0
  188.9930  178.9190  136.8470 O   0  0  0  0  0  0  0  0  0  0  0  0
  189.3160  175.4450  137.9930 O   0  0  0  0  0  1  0  0  0  0  0  0
  186.0340  177.5030  135.0520 C   0  0  0  0  0  1  0  0  0  0  0  0
  187.6580  178.8190  136.3930 C   0  0  0  0  0  2  0  0  0  0  0  0
  189.1090  176.4750  137.0740 C   0  0  2  0  0  3  0  0  0  0  0  0
  189.2730  177.8550  137.7400 C   0  0  2  0  0  3  0  0  0  0  0  0
  187.7340  176.3410  136.4310 C   0  0  0  0  0  2  0  0  0  0  0  0
  1 11  1  0  0  0  0
  2  7  1  1  0  0  0
  2  3  1  0  0  0  0
  3  9  1  1  0  0  0
  5  4  2  0  0  0  0
  5 16  1  0  0  0  0
  6 13  1  0  0  0  0
  7 17  2  0  0  0  0
  8  1  2  0  0  0  0
  9  6  1  0  0  0  0
 10 14  2  0  0  0  0
 10 15  1  0  0  0  0
 12 22  2  0  0  0  0
 14 19  1  0  0  0  0
 15 21  1  6  0  0  0
 15  2  1  0  0  0  0
 16 10  1  0  0  0  0
 17  1  1  0  0  0  0
 18 13  1  0  0  0  0
 19 20  2  0  0  0  0
 19  7  1  0  0  0  0
 20  8  1  0  0  0  0
 21 12  1  0  0  0  0
 22  3  1  0  0  0  0
 22 23  1  0  0  0  0
 23 18  1  0  0  0  0
 24 27  1  1  0  0  0
 24 28  1  0  0  0  0
 24 31  1  0  0  0  0
 25 30  1  0  0  0  0
 28 25  1  0  0  0  0
 29 30  1  0  0  0  0
 29 26  1  1  0  0  0
 30  5  1  1  0  0  0
 31 29  1  0  0  0  0
M  END
>  <MODEL>
9

>  <REMARK>
 VINA RESULT:      -8.5      3.203      4.535
  Name = 
  1 active torsions:
  status: ('A' for Active; 'I' for Inactive)
    1  A    between atoms: C_9  and  C_22
                            x       y       z     vdW  Elec       q    Type
                         _______ _______ _______ _____ _____    ______ ____

>  <TORSDO>
F 1

$$$$
