=
 OpenBabel10262422123D

 43 49  0  0  1  0  0  0  0  0999 V2000
  191.0890  177.8460  141.1990 C   0  0  0  0  0  2  0  0  0  0  0  0
  190.1990  176.7300  140.8670 N   0  0  0  0  0  0  0  0  0  0  0  0
  191.3440  177.8780  142.7050 C   0  0  0  0  0  2  0  0  0  0  0  0
  188.8880  176.9350  141.4880 C   0  0  0  0  0  2  0  0  0  0  0  0
  189.0300  176.9600  143.0110 C   0  0  1  0  0  3  0  0  0  0  0  0
  190.0210  178.0440  143.4460 C   0  0  0  0  0  2  0  0  0  0  0  0
  187.9510  177.8280  147.9260 C   0  0  0  0  0  0  0  0  0  0  0  0
  186.6970  178.0500  143.0300 C   0  0  0  0  0  0  0  0  0  0  0  0
  186.7240  177.9960  145.8600 C   0  0  0  0  0  0  0  0  0  0  0  0
  188.9670  177.2110  147.2650 N   0  0  0  0  0  0  0  0  0  0  0  0
  188.0520  178.0620  149.3900 C   0  0  0  0  0  1  0  0  0  0  0  0
  187.7860  177.3760  145.1860 C   0  0  0  0  0  0  0  0  0  0  0  0
  186.8030  178.2190  147.2360 C   0  0  0  0  0  3  0  0  0  0  0  0
  188.9070  176.9730  145.9270 C   0  0  0  0  0  3  0  0  0  0  0  0
  187.6610  177.0840  143.7050 C   0  0  2  0  0  3  0  0  0  0  0  0
  185.7320  178.6020  143.7100 N   0  0  0  0  0  0  0  0  0  0  0  0
  186.8230  178.3240  141.6310 N   0  0  0  0  0  2  0  0  0  0  0  0
  185.4640  178.3240  145.1220 C   0  0  0  0  0  2  0  0  0  0  0  0
  185.8460  179.1150  140.8920 C   0  0  0  0  0  2  0  0  0  0  0  0
  183.7350  177.8750  137.9020 C   0  0  0  0  0  2  0  0  0  0  0  0
  182.4470  177.7170  138.5940 N   0  0  0  0  0  0  0  0  0  0  0  0
  183.5810  178.0480  140.7920 C   0  0  0  0  0  2  0  0  0  0  0  0
  184.7150  178.7600  138.6780 C   0  0  0  0  0  2  0  0  0  0  0  0
  184.9210  178.2110  140.0860 C   0  0  0  0  0  3  0  0  0  0  0  0
  182.6460  177.1800  139.9460 C   0  0  0  0  0  2  0  0  0  0  0  0
  181.3350  179.4410  137.2730 C   0  0  0  0  0  1  0  0  0  0  0  0
  181.7470  178.9980  138.6650 C   0  0  0  0  0  2  0  0  0  0  0  0
  190.0440  176.6320  139.4120 C   0  0  0  0  0  2  0  0  0  0  0  0
  188.6900  177.1310  138.9090 C   0  0  0  0  0  2  0  0  0  0  0  0
  188.7700  177.3600  137.4130 C   0  0  0  0  0  2  0  0  0  0  0  0
  187.5730  176.7170  136.7150 C   0  0  1  0  0  0  0  0  0  0  0  0
  187.9290  175.4840  135.9050 C   0  0  1  0  0  0  0  0  0  0  0  0
  187.3040  175.3670  137.2330 N   0  0  0  0  0  0  0  0  0  0  0  0
  187.6470  176.8010  135.2120 C   0  0  0  0  0  2  0  0  0  0  0  0
  189.3990  175.0950  135.9210 C   0  0  0  0  0  0  0  0  0  0  0  0
  191.6550  175.3240  135.0360 C   0  0  0  0  0  3  0  0  0  0  0  0
  191.1890  173.6560  136.7290 C   0  0  0  0  0  3  0  0  0  0  0  0
  192.0940  174.2970  135.8780 C   0  0  0  0  0  3  0  0  0  0  0  0
  189.8480  174.0480  136.7450 C   0  0  0  0  0  3  0  0  0  0  0  0
  190.3140  175.7150  135.0530 C   0  0  0  0  0  3  0  0  0  0  0  0
  185.8920  175.0900  137.0230 C   0  0  0  0  0  2  0  0  0  0  0  0
  186.1470  172.9180  137.9760 O   0  0  0  0  0  1  0  0  0  0  0  0
  185.6780  173.5970  136.8510 C   0  0  0  0  0  2  0  0  0  0  0  0
  1  3  1  0  0  0  0
  2  1  1  0  0  0  0
  2  4  1  0  0  0  0
  3  6  1  0  0  0  0
  5  4  1  6  0  0  0
  5  6  1  0  0  0  0
  5 15  1  0  0  0  0
  7 11  1  0  0  0  0
  8 16  2  0  0  0  0
  9 13  1  0  0  0  0
 10  7  1  0  0  0  0
 12  9  2  0  0  0  0
 12 14  1  0  0  0  0
 13  7  2  0  0  0  0
 14 10  2  0  0  0  0
 15  8  1  6  0  0  0
 15 12  1  0  0  0  0
 16 18  1  0  0  0  0
 17  8  1  0  0  0  0
 18  9  1  0  0  0  0
 19 17  1  0  0  0  0
 20 21  1  0  0  0  0
 20 23  1  0  0  0  0
 21 27  1  0  0  0  0
 21 25  1  0  0  0  0
 23 24  1  0  0  0  0
 24 22  1  0  0  0  0
 24 19  1  0  0  0  0
 25 22  1  0  0  0  0
 26 27  1  0  0  0  0
 28  2  1  0  0  0  0
 29 28  1  0  0  0  0
 30 29  1  0  0  0  0
 31 33  1  0  0  0  0
 31 30  1  1  0  0  0
 32 35  1  1  0  0  0
 32 31  1  0  0  0  0
 32 33  1  0  0  0  0
 34 32  1  0  0  0  0
 34 31  1  0  0  0  0
 35 39  1  0  0  0  0
 36 40  1  0  0  0  0
 36 38  2  0  0  0  0
 37 39  2  0  0  0  0
 38 37  1  0  0  0  0
 40 35  2  0  0  0  0
 41 33  1  0  0  0  0
 43 41  1  0  0  0  0
 43 42  1  0  0  0  0
M  END
>  <MODEL>
1

>  <REMARK>
 VINA RESULT:      -7.8      0.000      0.000
  Name = 
  11 active torsions:
  status: ('A' for Active; 'I' for Inactive)
    1  A    between atoms: C_1  and  N_34
    2  A    between atoms: C_1  and  C_35
    3  A    between atoms: C_3  and  C_4
    4  A    between atoms: C_3  and  C_12
    5  A    between atoms: N_6  and  C_17
    6  A    between atoms: C_10  and  N_22
    7  A    between atoms: C_10  and  C_42
    8  A    between atoms: C_11  and  C_14
    9  A    between atoms: C_12  and  C_17
   10  A    between atoms: N_19  and  C_37
   11  A    between atoms: C_27  and  C_30
                            x       y       z     vdW  Elec       q    Type
                         _______ _______ _______ _____ _____    ______ ____

>  <TORSDO>
F 11

$$$$
=
 OpenBabel10262422123D

 43 49  0  0  1  0  0  0  0  0999 V2000
  189.6900  178.4220  139.7310 C   0  0  0  0  0  2  0  0  0  0  0  0
  189.6890  177.0350  140.2030 N   0  0  0  0  0  0  0  0  0  0  0  0
  188.9250  178.5250  138.4130 C   0  0  0  0  0  2  0  0  0  0  0  0
  190.4130  176.1850  139.2560 C   0  0  0  0  0  2  0  0  0  0  0  0
  189.7100  176.1990  137.8980 C   0  0  1  0  0  3  0  0  0  0  0  0
  189.5830  177.6310  137.3670 C   0  0  0  0  0  2  0  0  0  0  0  0
  194.5880  174.7110  137.6380 C   0  0  0  0  0  0  0  0  0  0  0  0
  189.6790  173.9120  136.7130 C   0  0  0  0  0  0  0  0  0  0  0  0
  192.5090  173.8890  136.7400 C   0  0  0  0  0  0  0  0  0  0  0  0
  193.9540  175.8390  138.0580 N   0  0  0  0  0  0  0  0  0  0  0  0
  196.0450  174.5450  137.8810 C   0  0  0  0  0  1  0  0  0  0  0  0
  191.8620  175.0480  137.1950 C   0  0  0  0  0  0  0  0  0  0  0  0
  193.8780  173.7210  136.9570 C   0  0  0  0  0  3  0  0  0  0  0  0
  192.6230  176.0300  137.8470 C   0  0  0  0  0  3  0  0  0  0  0  0
  190.3900  175.2460  136.8970 C   0  0  2  0  0  3  0  0  0  0  0  0
  190.3340  172.8670  136.2940 N   0  0  0  0  0  0  0  0  0  0  0  0
  188.2730  173.8130  136.9620 N   0  0  0  0  0  2  0  0  0  0  0  0
  191.7530  172.8830  135.9310 C   0  0  0  0  0  2  0  0  0  0  0  0
  187.5030  172.6120  136.6600 C   0  0  0  0  0  2  0  0  0  0  0  0
  184.5800  174.7570  135.3210 C   0  0  0  0  0  2  0  0  0  0  0  0
  183.6680  174.6240  136.4670 N   0  0  0  0  0  0  0  0  0  0  0  0
  185.1300  172.8460  137.4310 C   0  0  0  0  0  2  0  0  0  0  0  0
  186.0240  174.3860  135.6720 C   0  0  0  0  0  2  0  0  0  0  0  0
  186.0800  172.9740  136.2480 C   0  0  0  0  0  3  0  0  0  0  0  0
  183.7170  173.2620  137.0150 C   0  0  0  0  0  2  0  0  0  0  0  0
  182.9660  175.5680  138.6050 C   0  0  0  0  0  1  0  0  0  0  0  0
  184.0120  175.5920  137.5060 C   0  0  0  0  0  2  0  0  0  0  0  0
  190.3260  176.9570  141.5220 C   0  0  0  0  0  2  0  0  0  0  0  0
  190.2270  178.2540  142.3230 C   0  0  0  0  0  2  0  0  0  0  0  0
  189.3750  178.0120  143.5540 C   0  0  0  0  0  2  0  0  0  0  0  0
  187.9830  177.5320  143.1470 C   0  0  1  0  0  0  0  0  0  0  0  0
  187.0660  177.2530  144.3240 C   0  0  1  0  0  0  0  0  0  0  0  0
  186.9420  178.4930  143.5390 N   0  0  0  0  0  0  0  0  0  0  0  0
  187.7020  176.1100  143.5610 C   0  0  0  0  0  2  0  0  0  0  0  0
  187.6740  177.4970  145.6970 C   0  0  0  0  0  0  0  0  0  0  0  0
  189.4780  177.1670  147.2970 C   0  0  0  0  0  3  0  0  0  0  0  0
  187.4770  178.3530  147.9670 C   0  0  0  0  0  3  0  0  0  0  0  0
  188.7480  177.8560  148.2690 C   0  0  0  0  0  3  0  0  0  0  0  0
  186.9400  178.1680  146.6900 C   0  0  0  0  0  3  0  0  0  0  0  0
  188.9410  176.9820  146.0200 C   0  0  0  0  0  3  0  0  0  0  0  0
  185.8200  178.3180  142.6310 C   0  0  0  0  0  2  0  0  0  0  0  0
  185.1690  179.5300  140.6810 O   0  0  0  0  0  1  0  0  0  0  0  0
  186.2060  178.7770  141.2370 C   0  0  0  0  0  2  0  0  0  0  0  0
  1  2  1  0  0  0  0
  2 28  1  0  0  0  0
  3  1  1  0  0  0  0
  4  2  1  0  0  0  0
  5  6  1  6  0  0  0
  5  4  1  0  0  0  0
  6  3  1  0  0  0  0
  7 11  1  0  0  0  0
  7 10  1  0  0  0  0
  8 17  1  0  0  0  0
  9 13  1  0  0  0  0
  9 12  2  0  0  0  0
 12 14  1  0  0  0  0
 13  7  2  0  0  0  0
 14 10  2  0  0  0  0
 15  8  1  1  0  0  0
 15 12  1  0  0  0  0
 15  5  1  0  0  0  0
 16  8  2  0  0  0  0
 18 16  1  0  0  0  0
 18  9  1  0  0  0  0
 19 17  1  0  0  0  0
 20 23  1  0  0  0  0
 20 21  1  0  0  0  0
 21 25  1  0  0  0  0
 21 27  1  0  0  0  0
 23 24  1  0  0  0  0
 24 19  1  0  0  0  0
 24 22  1  0  0  0  0
 25 22  1  0  0  0  0
 27 26  1  0  0  0  0
 28 29  1  0  0  0  0
 29 30  1  0  0  0  0
 31 33  1  0  0  0  0
 31 30  1  1  0  0  0
 31 34  1  0  0  0  0
 31 32  1  0  0  0  0
 32 35  1  1  0  0  0
 33 32  1  0  0  0  0
 34 32  1  0  0  0  0
 35 40  2  0  0  0  0
 35 39  1  0  0  0  0
 36 38  2  0  0  0  0
 37 38  1  0  0  0  0
 39 37  2  0  0  0  0
 40 36  1  0  0  0  0
 41 33  1  0  0  0  0
 42 43  1  0  0  0  0
 43 41  1  0  0  0  0
M  END
>  <MODEL>
2

>  <REMARK>
 VINA RESULT:      -7.7      2.233      8.416
  Name = 
  11 active torsions:
  status: ('A' for Active; 'I' for Inactive)
    1  A    between atoms: C_1  and  N_34
    2  A    between atoms: C_1  and  C_35
    3  A    between atoms: C_3  and  C_4
    4  A    between atoms: C_3  and  C_12
    5  A    between atoms: N_6  and  C_17
    6  A    between atoms: C_10  and  N_22
    7  A    between atoms: C_10  and  C_42
    8  A    between atoms: C_11  and  C_14
    9  A    between atoms: C_12  and  C_17
   10  A    between atoms: N_19  and  C_37
   11  A    between atoms: C_27  and  C_30
                            x       y       z     vdW  Elec       q    Type
                         _______ _______ _______ _____ _____    ______ ____

>  <TORSDO>
F 11

$$$$
=
 OpenBabel10262422123D

 43 49  0  0  1  0  0  0  0  0999 V2000
  182.8000  179.1850  143.0860 C   0  0  0  0  0  2  0  0  0  0  0  0
  183.7610  178.6250  142.1310 N   0  0  0  0  0  0  0  0  0  0  0  0
  181.4850  178.4110  143.0160 C   0  0  0  0  0  2  0  0  0  0  0  0
  183.2670  178.8030  140.7640 C   0  0  0  0  0  2  0  0  0  0  0  0
  181.9530  178.0420  140.5800 C   0  0  1  0  0  3  0  0  0  0  0  0
  180.9110  178.5000  141.6060 C   0  0  0  0  0  2  0  0  0  0  0  0
  180.2630  182.0950  137.9740 C   0  0  0  0  0  0  0  0  0  0  0  0
  182.3720  177.4980  138.0970 C   0  0  0  0  0  0  0  0  0  0  0  0
  181.0630  179.9030  137.3770 C   0  0  0  0  0  0  0  0  0  0  0  0
  180.2500  181.7270  139.2830 N   0  0  0  0  0  0  0  0  0  0  0  0
  179.8330  183.4630  137.5830 C   0  0  0  0  0  1  0  0  0  0  0  0
  181.0640  179.5410  138.7330 C   0  0  0  0  0  0  0  0  0  0  0  0
  180.6570  181.1820  136.9940 C   0  0  0  0  0  3  0  0  0  0  0  0
  180.6300  180.4820  139.6780 C   0  0  0  0  0  3  0  0  0  0  0  0
  181.4460  178.1300  139.1280 C   0  0  2  0  0  3  0  0  0  0  0  0
  182.3320  177.8810  136.8520 N   0  0  0  0  0  0  0  0  0  0  0  0
  183.2640  176.4490  138.4870 N   0  0  0  0  0  2  0  0  0  0  0  0
  181.3990  178.8830  136.3350 C   0  0  0  0  0  2  0  0  0  0  0  0
  184.0640  175.6990  137.5260 C   0  0  0  0  0  2  0  0  0  0  0  0
  187.7140  176.4840  136.5270 C   0  0  0  0  0  2  0  0  0  0  0  0
  187.9650  177.5870  137.4660 N   0  0  0  0  0  0  0  0  0  0  0  0
  185.5380  177.6590  138.0400 C   0  0  0  0  0  2  0  0  0  0  0  0
  186.5020  175.6360  136.9270 C   0  0  0  0  0  2  0  0  0  0  0  0
  185.2660  176.5180  137.0690 C   0  0  0  0  0  3  0  0  0  0  0  0
  186.7770  178.4410  137.5950 C   0  0  0  0  0  2  0  0  0  0  0  0
  189.4070  177.9550  139.4000 C   0  0  0  0  0  1  0  0  0  0  0  0
  188.3490  177.0650  138.7760 C   0  0  0  0  0  2  0  0  0  0  0  0
  185.0570  179.2950  142.2780 C   0  0  0  0  0  2  0  0  0  0  0  0
  186.1890  178.6040  141.5190 C   0  0  0  0  0  2  0  0  0  0  0  0
  187.3740  178.4280  142.4480 C   0  0  0  0  0  2  0  0  0  0  0  0
  186.9690  177.6060  143.6700 C   0  0  1  0  0  0  0  0  0  0  0  0
  188.1470  177.0960  144.4800 C   0  0  1  0  0  0  0  0  0  0  0  0
  187.3680  178.2650  144.9220 N   0  0  0  0  0  0  0  0  0  0  0  0
  187.3770  176.1580  143.5740 C   0  0  0  0  0  2  0  0  0  0  0  0
  189.5190  177.4840  143.9500 C   0  0  0  0  0  0  0  0  0  0  0  0
  191.4750  176.9890  142.5880 C   0  0  0  0  0  3  0  0  0  0  0  0
  191.4480  178.9690  143.9820 C   0  0  0  0  0  3  0  0  0  0  0  0
  192.1000  178.1480  143.0570 C   0  0  0  0  0  3  0  0  0  0  0  0
  190.1680  178.6350  144.4320 C   0  0  0  0  0  3  0  0  0  0  0  0
  190.1940  176.6550  143.0380 C   0  0  0  0  0  3  0  0  0  0  0  0
  186.4620  177.8100  145.9660 C   0  0  0  0  0  2  0  0  0  0  0  0
  184.2640  178.6550  146.3460 O   0  0  0  0  0  1  0  0  0  0  0  0
  185.6190  178.9700  146.4620 C   0  0  0  0  0  2  0  0  0  0  0  0
  2 28  1  0  0  0  0
  2  1  1  0  0  0  0
  3  1  1  0  0  0  0
  4  2  1  0  0  0  0
  5  4  1  6  0  0  0
  5  6  1  0  0  0  0
  6  3  1  0  0  0  0
  7 10  1  0  0  0  0
  8 17  1  0  0  0  0
  9 12  2  0  0  0  0
 10 14  2  0  0  0  0
 11  7  1  0  0  0  0
 12 15  1  0  0  0  0
 12 14  1  0  0  0  0
 13  9  1  0  0  0  0
 13  7  2  0  0  0  0
 15  8  1  6  0  0  0
 15  5  1  0  0  0  0
 16  8  2  0  0  0  0
 18 16  1  0  0  0  0
 18  9  1  0  0  0  0
 19 17  1  0  0  0  0
 20 23  1  0  0  0  0
 20 21  1  0  0  0  0
 21 25  1  0  0  0  0
 21 27  1  0  0  0  0
 23 24  1  0  0  0  0
 24 19  1  0  0  0  0
 24 22  1  0  0  0  0
 25 22  1  0  0  0  0
 27 26  1  0  0  0  0
 29 28  1  0  0  0  0
 29 30  1  0  0  0  0
 31 30  1  6  0  0  0
 31 32  1  0  0  0  0
 31 33  1  0  0  0  0
 32 35  1  6  0  0  0
 32 33  1  0  0  0  0
 33 41  1  0  0  0  0
 34 31  1  0  0  0  0
 34 32  1  0  0  0  0
 35 39  1  0  0  0  0
 36 40  1  0  0  0  0
 36 38  2  0  0  0  0
 37 39  2  0  0  0  0
 38 37  1  0  0  0  0
 40 35  2  0  0  0  0
 41 43  1  0  0  0  0
 42 43  1  0  0  0  0
M  END
>  <MODEL>
3

>  <REMARK>
 VINA RESULT:      -7.7      2.676      8.449
  Name = 
  11 active torsions:
  status: ('A' for Active; 'I' for Inactive)
    1  A    between atoms: C_1  and  N_34
    2  A    between atoms: C_1  and  C_35
    3  A    between atoms: C_3  and  C_4
    4  A    between atoms: C_3  and  C_12
    5  A    between atoms: N_6  and  C_17
    6  A    between atoms: C_10  and  N_22
    7  A    between atoms: C_10  and  C_42
    8  A    between atoms: C_11  and  C_14
    9  A    between atoms: C_12  and  C_17
   10  A    between atoms: N_19  and  C_37
   11  A    between atoms: C_27  and  C_30
                            x       y       z     vdW  Elec       q    Type
                         _______ _______ _______ _____ _____    ______ ____

>  <TORSDO>
F 11

$$$$
=
 OpenBabel10262422123D

 43 49  0  0  1  0  0  0  0  0999 V2000
  189.0360  177.2800  142.2200 C   0  0  0  0  0  2  0  0  0  0  0  0
  188.1360  177.7560  141.1660 N   0  0  0  0  0  0  0  0  0  0  0  0
  188.2570  176.4410  143.2300 C   0  0  0  0  0  2  0  0  0  0  0  0
  187.1300  178.6540  141.7370 C   0  0  0  0  0  2  0  0  0  0  0  0
  186.2730  177.8990  142.7540 C   0  0  1  0  0  3  0  0  0  0  0  0
  187.1480  177.2840  143.8510 C   0  0  0  0  0  2  0  0  0  0  0  0
  181.3830  178.2150  141.3160 C   0  0  0  0  0  0  0  0  0  0  0  0
  184.9890  178.7310  144.8260 C   0  0  0  0  0  0  0  0  0  0  0  0
  182.6240  178.8620  143.2760 C   0  0  0  0  0  0  0  0  0  0  0  0
  182.5500  177.9290  140.6780 N   0  0  0  0  0  0  0  0  0  0  0  0
  180.0880  178.0330  140.6100 C   0  0  0  0  0  1  0  0  0  0  0  0
  183.8210  178.5460  142.6150 C   0  0  0  0  0  0  0  0  0  0  0  0
  181.4000  178.7010  142.6240 C   0  0  0  0  0  3  0  0  0  0  0  0
  183.7550  178.0900  141.2910 C   0  0  0  0  0  3  0  0  0  0  0  0
  185.1440  178.7850  143.3130 C   0  0  2  0  0  3  0  0  0  0  0  0
  183.8500  179.0280  145.3850 N   0  0  0  0  0  0  0  0  0  0  0  0
  186.1110  178.3900  145.6470 N   0  0  0  0  0  2  0  0  0  0  0  0
  182.6670  179.4690  144.6430 C   0  0  0  0  0  2  0  0  0  0  0  0
  186.0760  178.4680  147.1020 C   0  0  0  0  0  2  0  0  0  0  0  0
  189.6850  178.2980  148.4720 C   0  0  0  0  0  2  0  0  0  0  0  0
  190.1960  177.2220  147.6090 N   0  0  0  0  0  0  0  0  0  0  0  0
  187.8780  176.7510  146.8140 C   0  0  0  0  0  2  0  0  0  0  0  0
  188.4030  178.9320  147.9240 C   0  0  0  0  0  2  0  0  0  0  0  0
  187.3380  177.8620  147.7050 C   0  0  0  0  0  3  0  0  0  0  0  0
  189.1730  176.1880  147.4060 C   0  0  0  0  0  2  0  0  0  0  0  0
  191.4180  176.7190  145.5580 C   0  0  0  0  0  1  0  0  0  0  0  0
  190.6220  177.7620  146.3200 C   0  0  0  0  0  2  0  0  0  0  0  0
  188.9040  178.4680  140.1380 C   0  0  0  0  0  2  0  0  0  0  0  0
  190.0380  177.6360  139.5420 C   0  0  0  0  0  2  0  0  0  0  0  0
  189.4680  176.6940  138.4990 C   0  0  0  0  0  2  0  0  0  0  0  0
  188.5400  177.4550  137.5530 C   0  0  1  0  0  0  0  0  0  0  0  0
  188.5120  176.8910  136.1440 C   0  0  1  0  0  0  0  0  0  0  0  0
  187.4240  176.6140  137.0960 N   0  0  0  0  0  0  0  0  0  0  0  0
  189.2760  178.1640  136.4440 C   0  0  0  0  0  2  0  0  0  0  0  0
  189.3970  175.6770  135.9090 C   0  0  0  0  0  0  0  0  0  0  0  0
  189.7250  173.2650  135.9350 C   0  0  0  0  0  3  0  0  0  0  0  0
  191.5810  174.7260  135.4060 C   0  0  0  0  0  3  0  0  0  0  0  0
  191.0660  173.4390  135.5810 C   0  0  0  0  0  3  0  0  0  0  0  0
  190.7530  175.8390  135.5760 C   0  0  0  0  0  3  0  0  0  0  0  0
  188.8970  174.3780  136.1060 C   0  0  0  0  0  3  0  0  0  0  0  0
  186.3190  177.4980  136.7590 C   0  0  0  0  0  2  0  0  0  0  0  0
  185.6770  179.0050  138.4930 O   0  0  0  0  0  1  0  0  0  0  0  0
  185.4470  177.7270  137.9800 C   0  0  0  0  0  2  0  0  0  0  0  0
  1  3  1  0  0  0  0
  2  4  1  0  0  0  0
  2  1  1  0  0  0  0
  3  6  1  0  0  0  0
  5  4  1  6  0  0  0
  5 15  1  0  0  0  0
  5  6  1  0  0  0  0
  7 13  1  0  0  0  0
  8 16  2  0  0  0  0
  8 17  1  0  0  0  0
  9 18  1  0  0  0  0
 10 14  1  0  0  0  0
 10  7  2  0  0  0  0
 11  7  1  0  0  0  0
 12  9  1  0  0  0  0
 13  9  2  0  0  0  0
 14 12  2  0  0  0  0
 15 12  1  6  0  0  0
 15  8  1  0  0  0  0
 17 19  1  0  0  0  0
 18 16  1  0  0  0  0
 19 24  1  0  0  0  0
 21 20  1  0  0  0  0
 22 25  1  0  0  0  0
 22 24  1  0  0  0  0
 23 20  1  0  0  0  0
 24 23  1  0  0  0  0
 25 21  1  0  0  0  0
 26 27  1  0  0  0  0
 27 21  1  0  0  0  0
 28  2  1  0  0  0  0
 29 28  1  0  0  0  0
 30 29  1  0  0  0  0
 31 30  1  1  0  0  0
 32 35  1  6  0  0  0
 32 34  1  0  0  0  0
 32 33  1  0  0  0  0
 32 31  1  0  0  0  0
 33 31  1  0  0  0  0
 34 31  1  0  0  0  0
 35 40  1  0  0  0  0
 36 40  2  0  0  0  0
 37 39  1  0  0  0  0
 37 38  2  0  0  0  0
 38 36  1  0  0  0  0
 39 35  2  0  0  0  0
 41 33  1  0  0  0  0
 41 43  1  0  0  0  0
 43 42  1  0  0  0  0
M  END
>  <MODEL>
4

>  <REMARK>
 VINA RESULT:      -7.7      1.859      6.151
  Name = 
  11 active torsions:
  status: ('A' for Active; 'I' for Inactive)
    1  A    between atoms: C_1  and  N_34
    2  A    between atoms: C_1  and  C_35
    3  A    between atoms: C_3  and  C_4
    4  A    between atoms: C_3  and  C_12
    5  A    between atoms: N_6  and  C_17
    6  A    between atoms: C_10  and  N_22
    7  A    between atoms: C_10  and  C_42
    8  A    between atoms: C_11  and  C_14
    9  A    between atoms: C_12  and  C_17
   10  A    between atoms: N_19  and  C_37
   11  A    between atoms: C_27  and  C_30
                            x       y       z     vdW  Elec       q    Type
                         _______ _______ _______ _____ _____    ______ ____

>  <TORSDO>
F 11

$$$$
=
 OpenBabel10262422123D

 43 49  0  0  1  0  0  0  0  0999 V2000
  189.7140  177.7950  139.3180 C   0  0  0  0  0  2  0  0  0  0  0  0
  190.6090  177.7870  140.4780 N   0  0  0  0  0  0  0  0  0  0  0  0
  188.4740  178.6330  139.6220 C   0  0  0  0  0  2  0  0  0  0  0  0
  189.9530  177.1300  141.6100 C   0  0  0  0  0  2  0  0  0  0  0  0
  188.7000  177.9100  142.0130 C   0  0  1  0  0  3  0  0  0  0  0  0
  187.7420  178.0480  140.8250 C   0  0  0  0  0  2  0  0  0  0  0  0
  190.6980  176.8890  146.6010 C   0  0  0  0  0  0  0  0  0  0  0  0
  186.7240  177.9700  143.6630 C   0  0  0  0  0  0  0  0  0  0  0  0
  188.4640  177.1440  145.7370 C   0  0  0  0  0  0  0  0  0  0  0  0
  191.1850  176.9190  145.3310 N   0  0  0  0  0  0  0  0  0  0  0  0
  191.6270  176.7250  147.7490 C   0  0  0  0  0  1  0  0  0  0  0  0
  188.9790  177.1930  144.4330 C   0  0  0  0  0  0  0  0  0  0  0  0
  189.3240  176.9860  146.8250 C   0  0  0  0  0  3  0  0  0  0  0  0
  190.3640  177.0600  144.2550 C   0  0  0  0  0  3  0  0  0  0  0  0
  188.0300  177.3010  143.2590 C   0  0  2  0  0  3  0  0  0  0  0  0
  186.2970  177.8980  144.8920 N   0  0  0  0  0  0  0  0  0  0  0  0
  185.9360  178.6510  142.6810 N   0  0  0  0  0  2  0  0  0  0  0  0
  186.9830  177.1560  145.9520 C   0  0  0  0  0  2  0  0  0  0  0  0
  184.6070  179.1790  142.9640 C   0  0  0  0  0  2  0  0  0  0  0  0
  182.7980  177.5720  139.9510 C   0  0  0  0  0  2  0  0  0  0  0  0
  181.4820  178.2040  140.1240 N   0  0  0  0  0  0  0  0  0  0  0  0
  182.1770  179.0540  142.3650 C   0  0  0  0  0  2  0  0  0  0  0  0
  183.9050  178.3000  140.7190 C   0  0  0  0  0  2  0  0  0  0  0  0
  183.5440  178.4020  142.1970 C   0  0  0  0  0  3  0  0  0  0  0  0
  181.1300  178.2930  141.5480 C   0  0  0  0  0  2  0  0  0  0  0  0
  181.6690  179.4310  138.0240 C   0  0  0  0  0  1  0  0  0  0  0  0
  181.4730  179.5360  139.5240 C   0  0  0  0  0  2  0  0  0  0  0  0
  191.8480  177.0770  140.1470 C   0  0  0  0  0  2  0  0  0  0  0  0
  191.9900  176.7620  138.6580 C   0  0  0  0  0  2  0  0  0  0  0  0
  191.2330  175.4860  138.3470 C   0  0  0  0  0  2  0  0  0  0  0  0
  191.7680  174.8540  137.0630 C   0  0  1  0  0  0  0  0  0  0  0  0
  190.8200  174.9720  135.8840 C   0  0  1  0  0  0  0  0  0  0  0  0
  191.9870  175.8600  136.0140 N   0  0  0  0  0  0  0  0  0  0  0  0
  190.9720  173.6550  136.6160 C   0  0  0  0  0  2  0  0  0  0  0  0
  189.5110  175.6920  136.1690 C   0  0  0  0  0  0  0  0  0  0  0  0
  187.2310  175.6720  137.0220 C   0  0  0  0  0  3  0  0  0  0  0  0
  188.0960  177.6600  135.9440 C   0  0  0  0  0  3  0  0  0  0  0  0
  187.0560  176.9920  136.5970 C   0  0  0  0  0  3  0  0  0  0  0  0
  189.3140  177.0110  135.7250 C   0  0  0  0  0  3  0  0  0  0  0  0
  188.4500  175.0240  136.8030 C   0  0  0  0  0  3  0  0  0  0  0  0
  193.0190  175.3500  135.1250 C   0  0  0  0  0  2  0  0  0  0  0  0
  194.5500  176.8650  136.1510 O   0  0  0  0  0  1  0  0  0  0  0  0
  194.3860  175.5360  135.7580 C   0  0  0  0  0  2  0  0  0  0  0  0
  1  3  1  0  0  0  0
  1  2  1  0  0  0  0
  2  4  1  0  0  0  0
  3  6  1  0  0  0  0
  4  5  1  0  0  0  0
  5  6  1  6  0  0  0
  5 15  1  0  0  0  0
  7 13  1  0  0  0  0
  7 11  1  0  0  0  0
  8 16  2  0  0  0  0
  9 18  1  0  0  0  0
  9 13  2  0  0  0  0
 10  7  2  0  0  0  0
 12  9  1  0  0  0  0
 14 12  2  0  0  0  0
 14 10  1  0  0  0  0
 15  8  1  1  0  0  0
 15 12  1  0  0  0  0
 16 18  1  0  0  0  0
 17 19  1  0  0  0  0
 17  8  1  0  0  0  0
 20 21  1  0  0  0  0
 20 23  1  0  0  0  0
 21 25  1  0  0  0  0
 23 24  1  0  0  0  0
 24 22  1  0  0  0  0
 24 19  1  0  0  0  0
 25 22  1  0  0  0  0
 26 27  1  0  0  0  0
 27 21  1  0  0  0  0
 28  2  1  0  0  0  0
 29 28  1  0  0  0  0
 30 29  1  0  0  0  0
 31 30  1  1  0  0  0
 32 33  1  0  0  0  0
 32 35  1  1  0  0  0
 32 34  1  0  0  0  0
 32 31  1  0  0  0  0
 33 31  1  0  0  0  0
 34 31  1  0  0  0  0
 35 40  1  0  0  0  0
 37 38  2  0  0  0  0
 38 36  1  0  0  0  0
 39 37  1  0  0  0  0
 39 35  2  0  0  0  0
 40 36  2  0  0  0  0
 41 43  1  0  0  0  0
 41 33  1  0  0  0  0
 43 42  1  0  0  0  0
M  END
>  <MODEL>
5

>  <REMARK>
 VINA RESULT:      -7.6      2.225      3.645
  Name = 
  11 active torsions:
  status: ('A' for Active; 'I' for Inactive)
    1  A    between atoms: C_1  and  N_34
    2  A    between atoms: C_1  and  C_35
    3  A    between atoms: C_3  and  C_4
    4  A    between atoms: C_3  and  C_12
    5  A    between atoms: N_6  and  C_17
    6  A    between atoms: C_10  and  N_22
    7  A    between atoms: C_10  and  C_42
    8  A    between atoms: C_11  and  C_14
    9  A    between atoms: C_12  and  C_17
   10  A    between atoms: N_19  and  C_37
   11  A    between atoms: C_27  and  C_30
                            x       y       z     vdW  Elec       q    Type
                         _______ _______ _______ _____ _____    ______ ____

>  <TORSDO>
F 11

$$$$
=
 OpenBabel10262422123D

 43 49  0  0  1  0  0  0  0  0999 V2000
  190.2830  177.2970  141.5840 C   0  0  0  0  0  2  0  0  0  0  0  0
  188.9330  177.5670  141.0830 N   0  0  0  0  0  0  0  0  0  0  0  0
  190.2690  176.0590  142.4790 C   0  0  0  0  0  2  0  0  0  0  0  0
  188.0430  177.8950  142.1990 C   0  0  0  0  0  2  0  0  0  0  0  0
  187.9400  176.7020  143.1520 C   0  0  1  0  0  3  0  0  0  0  0  0
  189.3270  176.2880  143.6560 C   0  0  0  0  0  2  0  0  0  0  0  0
  188.8290  178.2250  147.9450 C   0  0  0  0  0  0  0  0  0  0  0  0
  185.7870  177.8910  143.9160 C   0  0  0  0  0  0  0  0  0  0  0  0
  186.9010  178.1900  146.5010 C   0  0  0  0  0  0  0  0  0  0  0  0
  189.5160  177.4850  147.0340 N   0  0  0  0  0  0  0  0  0  0  0  0
  189.4840  178.6360  149.2140 C   0  0  0  0  0  1  0  0  0  0  0  0
  187.6250  177.4430  145.5610 C   0  0  0  0  0  0  0  0  0  0  0  0
  187.5010  178.5790  147.7010 C   0  0  0  0  0  3  0  0  0  0  0  0
  188.9470  177.0840  145.8650 C   0  0  0  0  0  3  0  0  0  0  0  0
  186.9420  176.9740  144.2940 C   0  0  2  0  0  3  0  0  0  0  0  0
  185.1540  178.5680  144.8330 N   0  0  0  0  0  0  0  0  0  0  0  0
  185.3640  177.9830  142.5520 N   0  0  0  0  0  2  0  0  0  0  0  0
  185.4520  178.4800  146.2640 C   0  0  0  0  0  2  0  0  0  0  0  0
  184.1730  178.7190  142.1440 C   0  0  0  0  0  2  0  0  0  0  0  0
  182.9030  179.2610  138.5350 C   0  0  0  0  0  2  0  0  0  0  0  0
  183.8100  178.3320  137.8420 N   0  0  0  0  0  0  0  0  0  0  0  0
  185.1550  178.0800  139.9290 C   0  0  0  0  0  2  0  0  0  0  0  0
  182.8280  178.9950  140.0410 C   0  0  0  0  0  2  0  0  0  0  0  0
  184.2240  179.0420  140.6550 C   0  0  0  0  0  3  0  0  0  0  0  0
  185.1550  178.3840  138.4280 C   0  0  0  0  0  2  0  0  0  0  0  0
  182.3050  176.7330  136.7790 C   0  0  0  0  0  1  0  0  0  0  0  0
  183.2890  176.9680  137.9090 C   0  0  0  0  0  2  0  0  0  0  0  0
  188.9680  178.6870  140.1370 C   0  0  0  0  0  2  0  0  0  0  0  0
  189.2380  178.2570  138.6950 C   0  0  0  0  0  2  0  0  0  0  0  0
  188.7090  176.8510  138.4900 C   0  0  0  0  0  2  0  0  0  0  0  0
  189.7580  175.9900  137.7900 C   0  0  1  0  0  0  0  0  0  0  0  0
  189.4420  175.7070  136.3330 C   0  0  1  0  0  0  0  0  0  0  0  0
  190.4340  176.7260  136.7120 N   0  0  0  0  0  0  0  0  0  0  0  0
  189.2370  174.6350  137.3820 C   0  0  0  0  0  2  0  0  0  0  0  0
  188.1510  176.3230  135.8140 C   0  0  0  0  0  0  0  0  0  0  0  0
  185.7520  176.1850  135.4260 C   0  0  0  0  0  3  0  0  0  0  0  0
  186.9970  178.0910  134.6020 C   0  0  0  0  0  3  0  0  0  0  0  0
  185.7850  177.4130  134.7590 C   0  0  0  0  0  3  0  0  0  0  0  0
  188.1750  177.5450  135.1200 C   0  0  0  0  0  3  0  0  0  0  0  0
  186.9300  175.6400  135.9450 C   0  0  0  0  0  3  0  0  0  0  0  0
  191.7510  176.1340  136.5350 C   0  0  0  0  0  2  0  0  0  0  0  0
  193.6350  177.0100  137.7060 O   0  0  0  0  0  1  0  0  0  0  0  0
  192.5200  176.1810  137.8420 C   0  0  0  0  0  2  0  0  0  0  0  0
  1  3  1  0  0  0  0
  2  1  1  0  0  0  0
  2  4  1  0  0  0  0
  3  6  1  0  0  0  0
  5  4  1  1  0  0  0
  5  6  1  0  0  0  0
  5 15  1  0  0  0  0
  7 11  1  0  0  0  0
  8 16  2  0  0  0  0
  9 13  2  0  0  0  0
 10  7  2  0  0  0  0
 12 14  2  0  0  0  0
 12  9  1  0  0  0  0
 13  7  1  0  0  0  0
 14 10  1  0  0  0  0
 15  8  1  6  0  0  0
 15 12  1  0  0  0  0
 16 18  1  0  0  0  0
 17  8  1  0  0  0  0
 18  9  1  0  0  0  0
 19 17  1  0  0  0  0
 20 23  1  0  0  0  0
 21 27  1  0  0  0  0
 21 25  1  0  0  0  0
 21 20  1  0  0  0  0
 22 24  1  0  0  0  0
 23 24  1  0  0  0  0
 24 19  1  0  0  0  0
 25 22  1  0  0  0  0
 26 27  1  0  0  0  0
 28  2  1  0  0  0  0
 29 28  1  0  0  0  0
 30 29  1  0  0  0  0
 31 30  1  1  0  0  0
 32 35  1  6  0  0  0
 32 33  1  0  0  0  0
 32 34  1  0  0  0  0
 32 31  1  0  0  0  0
 33 31  1  0  0  0  0
 34 31  1  0  0  0  0
 35 40  1  0  0  0  0
 36 40  2  0  0  0  0
 37 38  2  0  0  0  0
 37 39  1  0  0  0  0
 38 36  1  0  0  0  0
 39 35  2  0  0  0  0
 41 33  1  0  0  0  0
 41 43  1  0  0  0  0
 42 43  1  0  0  0  0
M  END
>  <MODEL>
6

>  <REMARK>
 VINA RESULT:      -7.6      1.930      3.203
  Name = 
  11 active torsions:
  status: ('A' for Active; 'I' for Inactive)
    1  A    between atoms: C_1  and  N_34
    2  A    between atoms: C_1  and  C_35
    3  A    between atoms: C_3  and  C_4
    4  A    between atoms: C_3  and  C_12
    5  A    between atoms: N_6  and  C_17
    6  A    between atoms: C_10  and  N_22
    7  A    between atoms: C_10  and  C_42
    8  A    between atoms: C_11  and  C_14
    9  A    between atoms: C_12  and  C_17
   10  A    between atoms: N_19  and  C_37
   11  A    between atoms: C_27  and  C_30
                            x       y       z     vdW  Elec       q    Type
                         _______ _______ _______ _____ _____    ______ ____

>  <TORSDO>
F 11

$$$$
=
 OpenBabel10262422123D

 43 49  0  0  1  0  0  0  0  0999 V2000
  189.4610  178.5230  139.9540 C   0  0  0  0  0  2  0  0  0  0  0  0
  189.6780  177.1590  140.4430 N   0  0  0  0  0  0  0  0  0  0  0  0
  188.5550  178.4980  138.7250 C   0  0  0  0  0  2  0  0  0  0  0  0
  190.3970  176.3760  139.4350 C   0  0  0  0  0  2  0  0  0  0  0  0
  189.5580  176.2700  138.1600 C   0  0  1  0  0  3  0  0  0  0  0  0
  189.2030  177.6610  137.6260 C   0  0  0  0  0  2  0  0  0  0  0  0
  194.4400  174.8120  137.8120 C   0  0  0  0  0  0  0  0  0  0  0  0
  189.5330  174.0560  136.8440 C   0  0  0  0  0  0  0  0  0  0  0  0
  192.3630  174.0390  136.8690 C   0  0  0  0  0  0  0  0  0  0  0  0
  193.8030  175.9120  138.2970 N   0  0  0  0  0  0  0  0  0  0  0  0
  195.8980  174.6360  138.0440 C   0  0  0  0  0  1  0  0  0  0  0  0
  191.7130  175.1670  137.3900 C   0  0  0  0  0  0  0  0  0  0  0  0
  193.7330  173.8620  137.0750 C   0  0  0  0  0  3  0  0  0  0  0  0
  192.4720  176.1110  138.0980 C   0  0  0  0  0  3  0  0  0  0  0  0
  190.2410  175.3780  137.1060 C   0  0  2  0  0  3  0  0  0  0  0  0
  190.1910  173.0380  136.3650 N   0  0  0  0  0  0  0  0  0  0  0  0
  188.1270  173.9380  137.0870 N   0  0  0  0  0  2  0  0  0  0  0  0
  191.6090  173.0790  136.0030 C   0  0  0  0  0  2  0  0  0  0  0  0
  187.3600  172.7550  136.7160 C   0  0  0  0  0  2  0  0  0  0  0  0
  184.3790  174.9840  135.6790 C   0  0  0  0  0  2  0  0  0  0  0  0
  183.4760  174.6780  136.8000 N   0  0  0  0  0  0  0  0  0  0  0  0
  184.9870  172.8250  137.5170 C   0  0  0  0  0  2  0  0  0  0  0  0
  185.8330  174.6060  135.9750 C   0  0  0  0  0  2  0  0  0  0  0  0
  185.9270  173.1330  136.3590 C   0  0  0  0  0  3  0  0  0  0  0  0
  183.5610  173.2570  137.1620 C   0  0  0  0  0  2  0  0  0  0  0  0
  182.5680  175.7060  138.8170 C   0  0  0  0  0  1  0  0  0  0  0  0
  183.8020  175.5080  137.9570 C   0  0  0  0  0  2  0  0  0  0  0  0
  190.4560  177.1920  141.6860 C   0  0  0  0  0  2  0  0  0  0  0  0
  190.1840  176.0020  142.6050 C   0  0  0  0  0  2  0  0  0  0  0  0
  189.2810  176.4470  143.7380 C   0  0  0  0  0  2  0  0  0  0  0  0
  190.1030  177.1180  144.8370 C   0  0  1  0  0  0  0  0  0  0  0  0
  189.2780  177.9750  145.7800 C   0  0  1  0  0  0  0  0  0  0  0  0
  189.7280  176.6290  146.1710 N   0  0  0  0  0  0  0  0  0  0  0  0
  190.1410  178.6210  144.7160 C   0  0  0  0  0  2  0  0  0  0  0  0
  187.7870  178.0210  145.4820 C   0  0  0  0  0  0  0  0  0  0  0  0
  185.9540  178.1010  143.8820 C   0  0  0  0  0  3  0  0  0  0  0  0
  185.4900  178.2540  146.2540 C   0  0  0  0  0  3  0  0  0  0  0  0
  185.0380  178.2180  144.9320 C   0  0  0  0  0  3  0  0  0  0  0  0
  186.8580  178.1640  146.5270 C   0  0  0  0  0  3  0  0  0  0  0  0
  187.3220  178.0100  144.1560 C   0  0  0  0  0  3  0  0  0  0  0  0
  190.8820  176.7950  147.0400 C   0  0  0  0  0  2  0  0  0  0  0  0
  192.8490  175.5630  147.5930 O   0  0  0  0  0  1  0  0  0  0  0  0
  192.0420  175.9620  146.5260 C   0  0  0  0  0  2  0  0  0  0  0  0
  1  2  1  0  0  0  0
  2 28  1  0  0  0  0
  3  1  1  0  0  0  0
  4  2  1  0  0  0  0
  5  6  1  6  0  0  0
  5  4  1  0  0  0  0
  6  3  1  0  0  0  0
  7 11  1  0  0  0  0
  7 10  1  0  0  0  0
  8 17  1  0  0  0  0
  9 13  1  0  0  0  0
  9 12  2  0  0  0  0
 12 14  1  0  0  0  0
 13  7  2  0  0  0  0
 14 10  2  0  0  0  0
 15  8  1  1  0  0  0
 15 12  1  0  0  0  0
 15  5  1  0  0  0  0
 16  8  2  0  0  0  0
 18 16  1  0  0  0  0
 18  9  1  0  0  0  0
 19 17  1  0  0  0  0
 20 23  1  0  0  0  0
 20 21  1  0  0  0  0
 21 25  1  0  0  0  0
 21 27  1  0  0  0  0
 23 24  1  0  0  0  0
 24 19  1  0  0  0  0
 24 22  1  0  0  0  0
 25 22  1  0  0  0  0
 27 26  1  0  0  0  0
 28 29  1  0  0  0  0
 29 30  1  0  0  0  0
 31 30  1  6  0  0  0
 31 32  1  0  0  0  0
 31 33  1  0  0  0  0
 32 35  1  6  0  0  0
 32 33  1  0  0  0  0
 33 41  1  0  0  0  0
 34 31  1  0  0  0  0
 34 32  1  0  0  0  0
 35 39  1  0  0  0  0
 36 40  1  0  0  0  0
 36 38  2  0  0  0  0
 37 39  2  0  0  0  0
 38 37  1  0  0  0  0
 40 35  2  0  0  0  0
 43 41  1  0  0  0  0
 43 42  1  0  0  0  0
M  END
>  <MODEL>
7

>  <REMARK>
 VINA RESULT:      -7.6      2.844      8.688
  Name = 
  11 active torsions:
  status: ('A' for Active; 'I' for Inactive)
    1  A    between atoms: C_1  and  N_34
    2  A    between atoms: C_1  and  C_35
    3  A    between atoms: C_3  and  C_4
    4  A    between atoms: C_3  and  C_12
    5  A    between atoms: N_6  and  C_17
    6  A    between atoms: C_10  and  N_22
    7  A    between atoms: C_10  and  C_42
    8  A    between atoms: C_11  and  C_14
    9  A    between atoms: C_12  and  C_17
   10  A    between atoms: N_19  and  C_37
   11  A    between atoms: C_27  and  C_30
                            x       y       z     vdW  Elec       q    Type
                         _______ _______ _______ _____ _____    ______ ____

>  <TORSDO>
F 11

$$$$
=
 OpenBabel10262422123D

 43 49  0  0  1  0  0  0  0  0999 V2000
  184.3050  179.0680  141.3040 C   0  0  0  0  0  2  0  0  0  0  0  0
  184.9080  179.3910  140.0080 N   0  0  0  0  0  0  0  0  0  0  0  0
  185.3490  179.1980  142.4110 C   0  0  0  0  0  2  0  0  0  0  0  0
  185.9520  178.4160  139.6860 C   0  0  0  0  0  2  0  0  0  0  0  0
  187.0680  178.4820  140.7310 C   0  0  1  0  0  3  0  0  0  0  0  0
  186.5080  178.2460  142.1380 C   0  0  0  0  0  2  0  0  0  0  0  0
  189.2140  177.5210  136.1980 C   0  0  0  0  0  0  0  0  0  0  0  0
  189.4690  177.7050  141.2470 C   0  0  0  0  0  0  0  0  0  0  0  0
  189.8650  177.1860  138.4920 C   0  0  0  0  0  0  0  0  0  0  0  0
  187.9650  177.8710  136.6090 N   0  0  0  0  0  0  0  0  0  0  0  0
  189.5380  177.5000  134.7470 C   0  0  0  0  0  1  0  0  0  0  0  0
  188.5800  177.5670  138.9060 C   0  0  0  0  0  0  0  0  0  0  0  0
  190.1830  177.1570  137.1330 C   0  0  0  0  0  3  0  0  0  0  0  0
  187.6300  177.8940  137.9280 C   0  0  0  0  0  3  0  0  0  0  0  0
  188.2300  177.5330  140.3790 C   0  0  2  0  0  3  0  0  0  0  0  0
  190.6390  177.3400  140.8060 N   0  0  0  0  0  0  0  0  0  0  0  0
  189.3460  178.2350  142.5710 N   0  0  0  0  0  2  0  0  0  0  0  0
  190.8610  176.7110  139.5030 C   0  0  0  0  0  2  0  0  0  0  0  0
  190.4620  178.2830  143.5070 C   0  0  0  0  0  2  0  0  0  0  0  0
  188.6560  176.5970  146.4790 C   0  0  0  0  0  2  0  0  0  0  0  0
  189.7020  176.7720  147.4980 N   0  0  0  0  0  0  0  0  0  0  0  0
  191.3080  177.5030  145.7330 C   0  0  0  0  0  2  0  0  0  0  0  0
  188.8480  177.5250  145.2750 C   0  0  0  0  0  2  0  0  0  0  0  0
  190.2330  177.3230  144.6690 C   0  0  0  0  0  3  0  0  0  0  0  0
  191.0350  176.5690  146.9150 C   0  0  0  0  0  2  0  0  0  0  0  0
  188.3050  178.2530  148.8430 C   0  0  0  0  0  1  0  0  0  0  0  0
  189.6150  178.1040  148.0930 C   0  0  0  0  0  2  0  0  0  0  0  0
  183.8800  179.3740  138.9620 C   0  0  0  0  0  2  0  0  0  0  0  0
  182.5310  179.9220  139.4260 C   0  0  0  0  0  2  0  0  0  0  0  0
  181.4210  179.1010  138.8010 C   0  0  0  0  0  2  0  0  0  0  0  0
  180.3640  178.7560  139.8490 C   0  0  1  0  0  0  0  0  0  0  0  0
  180.1170  177.2670  140.0000 C   0  0  1  0  0  0  0  0  0  0  0  0
  180.9400  178.0040  140.9720 N   0  0  0  0  0  0  0  0  0  0  0  0
  179.1230  178.1370  139.2580 C   0  0  0  0  0  2  0  0  0  0  0  0
  180.9530  176.3730  139.0960 C   0  0  0  0  0  0  0  0  0  0  0  0
  181.1300  174.8710  137.1880 C   0  0  0  0  0  3  0  0  0  0  0  0
  183.0560  175.2490  138.6050 C   0  0  0  0  0  3  0  0  0  0  0  0
  182.4730  174.6350  137.4930 C   0  0  0  0  0  3  0  0  0  0  0  0
  182.2980  176.1080  139.4060 C   0  0  0  0  0  3  0  0  0  0  0  0
  180.3720  175.7300  137.9900 C   0  0  0  0  0  3  0  0  0  0  0  0
  180.1080  178.2540  142.1400 C   0  0  0  0  0  2  0  0  0  0  0  0
  180.0550  180.5780  142.6750 O   0  0  0  0  0  1  0  0  0  0  0  0
  180.7040  179.3770  142.9690 C   0  0  0  0  0  2  0  0  0  0  0  0
  1  3  1  0  0  0  0
  2  1  1  0  0  0  0
  4  2  1  0  0  0  0
  5  4  1  6  0  0  0
  5  6  1  0  0  0  0
  6  3  1  0  0  0  0
  7 10  2  0  0  0  0
  7 13  1  0  0  0  0
  8 17  1  0  0  0  0
  9 12  1  0  0  0  0
  9 18  1  0  0  0  0
 10 14  1  0  0  0  0
 11  7  1  0  0  0  0
 13  9  2  0  0  0  0
 14 12  2  0  0  0  0
 15 12  1  6  0  0  0
 15  5  1  0  0  0  0
 15  8  1  0  0  0  0
 16  8  2  0  0  0  0
 17 19  1  0  0  0  0
 18 16  1  0  0  0  0
 19 24  1  0  0  0  0
 20 21  1  0  0  0  0
 21 27  1  0  0  0  0
 22 25  1  0  0  0  0
 23 20  1  0  0  0  0
 24 23  1  0  0  0  0
 24 22  1  0  0  0  0
 25 21  1  0  0  0  0
 27 26  1  0  0  0  0
 28 29  1  0  0  0  0
 28  2  1  0  0  0  0
 30 29  1  0  0  0  0
 31 30  1  6  0  0  0
 31 32  1  0  0  0  0
 31 33  1  0  0  0  0
 32 35  1  6  0  0  0
 32 33  1  0  0  0  0
 33 41  1  0  0  0  0
 34 31  1  0  0  0  0
 34 32  1  0  0  0  0
 35 39  1  0  0  0  0
 36 38  2  0  0  0  0
 36 40  1  0  0  0  0
 37 39  2  0  0  0  0
 38 37  1  0  0  0  0
 40 35  2  0  0  0  0
 41 43  1  0  0  0  0
 42 43  1  0  0  0  0
M  END
>  <MODEL>
8

>  <REMARK>
 VINA RESULT:      -7.5      2.636      8.670
  Name = 
  11 active torsions:
  status: ('A' for Active; 'I' for Inactive)
    1  A    between atoms: C_1  and  N_34
    2  A    between atoms: C_1  and  C_35
    3  A    between atoms: C_3  and  C_4
    4  A    between atoms: C_3  and  C_12
    5  A    between atoms: N_6  and  C_17
    6  A    between atoms: C_10  and  N_22
    7  A    between atoms: C_10  and  C_42
    8  A    between atoms: C_11  and  C_14
    9  A    between atoms: C_12  and  C_17
   10  A    between atoms: N_19  and  C_37
   11  A    between atoms: C_27  and  C_30
                            x       y       z     vdW  Elec       q    Type
                         _______ _______ _______ _____ _____    ______ ____

>  <TORSDO>
F 11

$$$$
=
 OpenBabel10262422123D

 43 49  0  0  1  0  0  0  0  0999 V2000
  189.9740  177.7220  138.6510 C   0  0  0  0  0  2  0  0  0  0  0  0
  190.8510  177.5260  139.8080 N   0  0  0  0  0  0  0  0  0  0  0  0
  188.8630  178.7100  139.0010 C   0  0  0  0  0  2  0  0  0  0  0  0
  190.1000  176.9080  140.9040 C   0  0  0  0  0  2  0  0  0  0  0  0
  188.9680  177.8350  141.3490 C   0  0  1  0  0  3  0  0  0  0  0  0
  188.0470  178.1710  140.1710 C   0  0  0  0  0  2  0  0  0  0  0  0
  190.6320  176.9430  146.0940 C   0  0  0  0  0  0  0  0  0  0  0  0
  186.8790  177.9420  142.8520 C   0  0  0  0  0  0  0  0  0  0  0  0
  188.4650  177.1740  145.0670 C   0  0  0  0  0  0  0  0  0  0  0  0
  191.2090  176.9380  144.8620 N   0  0  0  0  0  0  0  0  0  0  0  0
  191.4770  176.8120  147.3090 C   0  0  0  0  0  1  0  0  0  0  0  0
  189.0730  177.1860  143.8020 C   0  0  0  0  0  0  0  0  0  0  0  0
  189.2460  177.0460  146.2170 C   0  0  0  0  0  3  0  0  0  0  0  0
  190.4670  177.0480  143.7270 C   0  0  0  0  0  3  0  0  0  0  0  0
  188.2090  177.2610  142.5600 C   0  0  2  0  0  3  0  0  0  0  0  0
  186.3660  177.9040  144.0490 N   0  0  0  0  0  0  0  0  0  0  0  0
  186.1650  178.5950  141.7970 N   0  0  0  0  0  2  0  0  0  0  0  0
  186.9730  177.1920  145.1750 C   0  0  0  0  0  2  0  0  0  0  0  0
  184.8200  179.1310  141.9710 C   0  0  0  0  0  2  0  0  0  0  0  0
  183.0030  178.7670  138.5800 C   0  0  0  0  0  2  0  0  0  0  0  0
  181.6160  178.8080  139.0690 N   0  0  0  0  0  0  0  0  0  0  0  0
  182.4330  178.6040  141.4180 C   0  0  0  0  0  2  0  0  0  0  0  0
  184.0040  179.3130  139.6030 C   0  0  0  0  0  2  0  0  0  0  0  0
  183.8730  178.5590  140.9220 C   0  0  0  0  0  3  0  0  0  0  0  0
  181.4900  178.0740  140.3350 C   0  0  0  0  0  2  0  0  0  0  0  0
  181.2490  180.9330  137.9270 C   0  0  0  0  0  1  0  0  0  0  0  0
  181.1800  180.1910  139.2490 C   0  0  0  0  0  2  0  0  0  0  0  0
  191.9790  176.6650  139.4380 C   0  0  0  0  0  2  0  0  0  0  0  0
  191.7820  175.9420  138.1060 C   0  0  0  0  0  2  0  0  0  0  0  0
  192.9840  176.2000  137.2200 C   0  0  0  0  0  2  0  0  0  0  0  0
  192.7670  175.5770  135.8420 C   0  0  1  0  0  0  0  0  0  0  0  0
  193.8430  174.5840  135.4440 C   0  0  1  0  0  0  0  0  0  0  0  0
  192.5310  174.1290  135.9320 N   0  0  0  0  0  0  0  0  0  0  0  0
  193.8210  175.9720  134.8390 C   0  0  0  0  0  2  0  0  0  0  0  0
  194.9460  174.3730  136.4700 C   0  0  0  0  0  0  0  0  0  0  0  0
  197.2490  174.6930  137.1940 C   0  0  0  0  0  3  0  0  0  0  0  0
  195.7540  173.3140  138.5080 C   0  0  0  0  0  3  0  0  0  0  0  0
  197.0130  173.8900  138.3140 C   0  0  0  0  0  3  0  0  0  0  0  0
  194.7290  173.5480  137.5880 C   0  0  0  0  0  3  0  0  0  0  0  0
  196.2230  174.9270  136.2730 C   0  0  0  0  0  3  0  0  0  0  0  0
  191.7510  173.7370  134.7690 C   0  0  0  0  0  2  0  0  0  0  0  0
  190.1430  173.3190  136.4810 O   0  0  0  0  0  1  0  0  0  0  0  0
  190.2800  173.6610  135.1350 C   0  0  0  0  0  2  0  0  0  0  0  0
  1  3  1  0  0  0  0
  1  2  1  0  0  0  0
  2  4  1  0  0  0  0
  3  6  1  0  0  0  0
  4  5  1  0  0  0  0
  5  6  1  6  0  0  0
  5 15  1  0  0  0  0
  7 13  1  0  0  0  0
  7 11  1  0  0  0  0
  8 16  2  0  0  0  0
  9 18  1  0  0  0  0
  9 13  2  0  0  0  0
 10  7  2  0  0  0  0
 12  9  1  0  0  0  0
 14 12  2  0  0  0  0
 14 10  1  0  0  0  0
 15  8  1  1  0  0  0
 15 12  1  0  0  0  0
 16 18  1  0  0  0  0
 17 19  1  0  0  0  0
 17  8  1  0  0  0  0
 20 21  1  0  0  0  0
 20 23  1  0  0  0  0
 21 27  1  0  0  0  0
 21 25  1  0  0  0  0
 23 24  1  0  0  0  0
 24 22  1  0  0  0  0
 24 19  1  0  0  0  0
 25 22  1  0  0  0  0
 26 27  1  0  0  0  0
 28  2  1  0  0  0  0
 29 28  1  0  0  0  0
 30 29  1  0  0  0  0
 31 33  1  0  0  0  0
 31 30  1  1  0  0  0
 32 31  1  0  0  0  0
 32 33  1  0  0  0  0
 32 35  1  1  0  0  0
 34 32  1  0  0  0  0
 34 31  1  0  0  0  0
 35 39  1  0  0  0  0
 36 38  2  0  0  0  0
 38 37  1  0  0  0  0
 39 37  2  0  0  0  0
 40 35  2  0  0  0  0
 40 36  1  0  0  0  0
 41 43  1  0  0  0  0
 41 33  1  0  0  0  0
 43 42  1  0  0  0  0
M  END
>  <MODEL>
9

>  <REMARK>
 VINA RESULT:      -7.5      2.427      3.661
  Name = 
  11 active torsions:
  status: ('A' for Active; 'I' for Inactive)
    1  A    between atoms: C_1  and  N_34
    2  A    between atoms: C_1  and  C_35
    3  A    between atoms: C_3  and  C_4
    4  A    between atoms: C_3  and  C_12
    5  A    between atoms: N_6  and  C_17
    6  A    between atoms: C_10  and  N_22
    7  A    between atoms: C_10  and  C_42
    8  A    between atoms: C_11  and  C_14
    9  A    between atoms: C_12  and  C_17
   10  A    between atoms: N_19  and  C_37
   11  A    between atoms: C_27  and  C_30
                            x       y       z     vdW  Elec       q    Type
                         _______ _______ _______ _____ _____    ______ ____

>  <TORSDO>
F 11

$$$$
