=
 OpenBabel10262420583D

 28 30  0  0  1  0  0  0  0  0999 V2000
  190.1080  177.3750  139.5570 O   0  0  0  0  0  0  0  0  0  0  0  0
  190.9700  178.1010  142.0530 C   0  0  0  0  0  1  0  0  0  0  0  0
  189.7040  177.2550  141.9620 C   0  0  1  0  0  0  0  0  0  0  0  0
  189.8490  177.8740  136.7090 C   0  0  0  0  0  2  0  0  0  0  0  0
  187.9640  178.9420  141.9150 C   0  0  0  0  0  2  0  0  0  0  0  0
  186.8100  178.0160  139.8740 C   0  0  2  0  0  3  0  0  0  0  0  0
  188.6390  177.9360  142.8320 C   0  0  1  0  0  3  0  0  0  0  0  0
  187.5720  178.4910  137.4810 C   0  0  0  0  0  2  0  0  0  0  0  0
  188.1530  178.4580  140.4780 C   0  0  2  0  0  3  0  0  0  0  0  0
  190.4110  176.5890  137.3090 C   0  0  0  0  0  2  0  0  0  0  0  0
  186.9330  177.4870  138.4310 C   0  0  0  0  0  2  0  0  0  0  0  0
  188.3620  177.7650  136.4090 C   0  0  0  0  0  2  0  0  0  0  0  0
  189.8570  176.3020  138.6970 C   0  0  0  0  0  2  0  0  0  0  0  0
  189.1200  177.2790  140.5460 C   0  0  1  0  0  3  0  0  0  0  0  0
  183.9150  179.7690  139.0970 C   0  0  0  0  0  2  0  0  0  0  0  0
  184.6900  178.4750  140.8750 C   0  0  1  0  0  3  0  0  0  0  0  0
  183.4120  178.9420  140.2480 C   0  0  2  0  0  3  0  0  0  0  0  0
  185.7610  179.0320  140.0570 N   0  0  2  0  0  0  0  0  0  0  0  0
  185.2380  179.3800  138.8450 O   0  0  0  0  0  0  0  0  0  0  0  0
  182.6570  177.7600  139.7360 C   0  0  0  0  0  3  0  0  0  0  0  0
  183.0520  176.6280  139.9670 O   0  0  0  0  0  0  0  0  0  0  0  0
  184.8080  179.0040  142.2960 C   0  0  0  0  0  2  0  0  0  0  0  0
  183.5520  178.6850  143.0830 C   0  0  0  0  0  2  0  0  0  0  0  0
  183.7720  179.0260  144.5420 C   0  0  0  0  0  1  0  0  0  0  0  0
  187.1430  177.4590  144.6990 N   0  0  0  0  0  1  0  0  0  0  0  0
  187.5660  177.0020  143.3870 C   0  0  0  0  0  2  0  0  0  0  0  0
  190.0820  175.8310  142.3920 C   0  0  0  0  0  2  0  0  0  0  0  0
  191.0010  175.8330  143.4460 O   0  0  0  0  0  1  0  0  0  0  0  0
  3  2  1  1  0  0  0
  3 27  1  0  0  0  0
  3  7  1  0  0  0  0
  4 10  1  0  0  0  0
  5  7  1  0  0  0  0
  6 11  1  6  0  0  0
  6 18  1  0  0  0  0
  6  9  1  0  0  0  0
  7 26  1  6  0  0  0
  8 11  1  0  0  0  0
  9 14  1  0  0  0  0
  9  5  1  1  0  0  0
 10 13  1  0  0  0  0
 12  4  1  0  0  0  0
 12  8  1  0  0  0  0
 13  1  1  0  0  0  0
 14  1  1  6  0  0  0
 14  3  1  0  0  0  0
 15 17  1  0  0  0  0
 16 22  1  1  0  0  0
 17 20  1  6  0  0  0
 17 16  1  0  0  0  0
 18 19  1  6  0  0  0
 18 16  1  0  0  0  0
 19 15  1  0  0  0  0
 20 21  2  0  0  0  0
 22 23  1  0  0  0  0
 23 24  1  0  0  0  0
 26 25  1  0  0  0  0
 27 28  1  0  0  0  0
M  END
>  <MODEL>
1

>  <REMARK>
 VINA RESULT:      -6.2      0.000      0.000
  Name = 
  6 active torsions:
  status: ('A' for Active; 'I' for Inactive)
    1  A    between atoms: C_3  and  C_7
    2  A    between atoms: C_9  and  C_14
    3  A    between atoms: C_10  and  N_13
    4  A    between atoms: C_11  and  C_22
    5  A    between atoms: C_12  and  C_15
    6  A    between atoms: C_14  and  C_18
                            x       y       z     vdW  Elec       q    Type
                         _______ _______ _______ _____ _____    ______ ____

>  <TORSDO>
F 6

$$$$
=
 OpenBabel10262420583D

 28 30  0  0  1  0  0  0  0  0999 V2000
  185.9250  178.0630  144.7630 O   0  0  0  0  0  0  0  0  0  0  0  0
  187.4770  176.4670  146.3590 C   0  0  0  0  0  1  0  0  0  0  0  0
  188.1770  177.5660  145.5660 C   0  0  1  0  0  0  0  0  0  0  0  0
  183.5950  178.4860  143.0840 C   0  0  0  0  0  2  0  0  0  0  0  0
  188.8150  176.4030  143.5370 C   0  0  0  0  0  2  0  0  0  0  0  0
  187.8270  178.1180  141.9760 C   0  0  2  0  0  3  0  0  0  0  0  0
  189.3730  176.9200  144.8530 C   0  0  1  0  0  3  0  0  0  0  0  0
  185.3500  178.2010  141.3520 C   0  0  0  0  0  2  0  0  0  0  0  0
  187.5740  177.2290  143.2040 C   0  0  2  0  0  3  0  0  0  0  0  0
  183.9830  179.3800  144.2590 C   0  0  0  0  0  2  0  0  0  0  0  0
  186.6200  179.0020  141.6020 C   0  0  0  0  0  2  0  0  0  0  0  0
  184.1350  179.0110  141.7630 C   0  0  0  0  0  2  0  0  0  0  0  0
  185.4800  179.3680  144.5320 C   0  0  0  0  0  2  0  0  0  0  0  0
  187.2870  178.0870  144.4330 C   0  0  1  0  0  3  0  0  0  0  0  0
  188.1680  177.1300  138.6650 C   0  0  0  0  0  2  0  0  0  0  0  0
  189.5300  178.0820  140.3010 C   0  0  1  0  0  3  0  0  0  0  0  0
  189.4110  177.9640  138.8120 C   0  0  2  0  0  3  0  0  0  0  0  0
  188.3900  177.3560  140.8490 N   0  0  2  0  0  0  0  0  0  0  0  0
  187.4520  177.2250  139.8660 O   0  0  0  0  0  0  0  0  0  0  0  0
  189.1870  179.3210  138.2290 C   0  0  0  0  0  3  0  0  0  0  0  0
  188.4260  179.4690  137.2870 O   0  0  0  0  0  0  0  0  0  0  0  0
  190.8210  177.4380  140.7830 C   0  0  0  0  0  2  0  0  0  0  0  0
  191.6790  177.0280  139.6010 C   0  0  0  0  0  2  0  0  0  0  0  0
  193.1390  177.2310  139.9460 C   0  0  0  0  0  1  0  0  0  0  0  0
  191.6940  177.5010  145.3250 N   0  0  0  0  0  1  0  0  0  0  0  0
  190.5280  177.8680  144.5420 C   0  0  0  0  0  2  0  0  0  0  0  0
  188.5370  178.6800  146.5590 C   0  0  0  0  0  2  0  0  0  0  0  0
  189.0490  178.1650  147.7540 O   0  0  0  0  0  1  0  0  0  0  0  0
  3  2  1  1  0  0  0
  3 27  1  0  0  0  0
  4 10  1  0  0  0  0
  5  7  1  0  0  0  0
  6 11  1  6  0  0  0
  6  9  1  0  0  0  0
  7 26  1  6  0  0  0
  7  3  1  0  0  0  0
  8 11  1  0  0  0  0
  8 12  1  0  0  0  0
  9  5  1  1  0  0  0
  9 14  1  0  0  0  0
 10 13  1  0  0  0  0
 12  4  1  0  0  0  0
 13  1  1  0  0  0  0
 14  1  1  1  0  0  0
 14  3  1  0  0  0  0
 15 17  1  0  0  0  0
 15 19  1  0  0  0  0
 16 22  1  1  0  0  0
 16 18  1  0  0  0  0
 17 20  1  6  0  0  0
 17 16  1  0  0  0  0
 18 19  1  6  0  0  0
 18  6  1  0  0  0  0
 21 20  2  0  0  0  0
 23 24  1  0  0  0  0
 23 22  1  0  0  0  0
 26 25  1  0  0  0  0
 27 28  1  0  0  0  0
M  END
>  <MODEL>
2

>  <REMARK>
 VINA RESULT:      -5.7      2.601      5.934
  Name = 
  6 active torsions:
  status: ('A' for Active; 'I' for Inactive)
    1  A    between atoms: C_3  and  C_7
    2  A    between atoms: C_9  and  C_14
    3  A    between atoms: C_10  and  N_13
    4  A    between atoms: C_11  and  C_22
    5  A    between atoms: C_12  and  C_15
    6  A    between atoms: C_14  and  C_18
                            x       y       z     vdW  Elec       q    Type
                         _______ _______ _______ _____ _____    ______ ____

>  <TORSDO>
F 6

$$$$
=
 OpenBabel10262420583D

 28 30  0  0  1  0  0  0  0  0999 V2000
  184.0530  175.5950  136.5890 O   0  0  0  0  0  0  0  0  0  0  0  0
  185.9850  177.1920  135.4870 C   0  0  0  0  0  1  0  0  0  0  0  0
  186.1040  176.8640  136.9720 C   0  0  1  0  0  0  0  0  0  0  0  0
  181.3250  174.6080  136.6990 C   0  0  0  0  0  2  0  0  0  0  0  0
  184.9470  178.7290  138.0000 C   0  0  0  0  0  2  0  0  0  0  0  0
  183.4520  177.2990  139.4400 C   0  0  2  0  0  3  0  0  0  0  0  0
  186.3370  178.1880  137.7120 C   0  0  1  0  0  3  0  0  0  0  0  0
  181.2990  176.2080  138.5960 C   0  0  0  0  0  2  0  0  0  0  0  0
  183.9830  177.5450  138.0180 C   0  0  2  0  0  3  0  0  0  0  0  0
  182.5600  173.7160  136.6200 C   0  0  0  0  0  2  0  0  0  0  0  0
  182.4920  176.0950  139.5350 C   0  0  0  0  0  2  0  0  0  0  0  0
  180.8690  174.8300  138.1330 C   0  0  0  0  0  2  0  0  0  0  0  0
  183.7950  174.3740  137.2180 C   0  0  0  0  0  2  0  0  0  0  0  0
  184.7790  176.3360  137.5310 C   0  0  1  0  0  3  0  0  0  0  0  0
  181.0820  179.7210  140.1960 C   0  0  0  0  0  2  0  0  0  0  0  0
  182.4160  178.2240  141.3840 C   0  0  1  0  0  3  0  0  0  0  0  0
  181.1440  179.0040  141.5170 C   0  0  2  0  0  3  0  0  0  0  0  0
  182.9350  178.5320  140.0570 N   0  0  2  0  0  0  0  0  0  0  0  0
  181.9140  179.0340  139.3020 O   0  0  0  0  0  0  0  0  0  0  0  0
  179.9980  178.0550  141.6380 C   0  0  0  0  0  3  0  0  0  0  0  0
  179.4380  177.8980  142.7110 O   0  0  0  0  0  0  0  0  0  0  0  0
  183.4220  178.6630  142.4370 C   0  0  0  0  0  2  0  0  0  0  0  0
  182.7100  179.0200  143.7280 C   0  0  0  0  0  2  0  0  0  0  0  0
  183.6990  178.9830  144.8740 C   0  0  0  0  0  1  0  0  0  0  0  0
  188.3740  178.7220  138.9430 N   0  0  0  0  0  1  0  0  0  0  0  0
  187.0840  178.0630  139.0380 C   0  0  0  0  0  2  0  0  0  0  0  0
  187.2290  175.8310  137.1170 C   0  0  0  0  0  2  0  0  0  0  0  0
  188.1510  175.9140  136.0680 O   0  0  0  0  0  1  0  0  0  0  0  0
  1 13  1  0  0  0  0
  3  2  1  6  0  0  0
  3 27  1  0  0  0  0
  3 14  1  0  0  0  0
  3  7  1  0  0  0  0
  4 12  1  0  0  0  0
  6 11  1  6  0  0  0
  6 18  1  0  0  0  0
  7  5  1  0  0  0  0
  7 26  1  1  0  0  0
  8 11  1  0  0  0  0
  9  5  1  1  0  0  0
  9  6  1  0  0  0  0
 10  4  1  0  0  0  0
 10 13  1  0  0  0  0
 12  8  1  0  0  0  0
 14  1  1  6  0  0  0
 14  9  1  0  0  0  0
 15 17  1  0  0  0  0
 16 17  1  0  0  0  0
 16 22  1  1  0  0  0
 17 20  1  6  0  0  0
 18 19  1  6  0  0  0
 18 16  1  0  0  0  0
 19 15  1  0  0  0  0
 20 21  2  0  0  0  0
 22 23  1  0  0  0  0
 23 24  1  0  0  0  0
 25 26  1  0  0  0  0
 28 27  1  0  0  0  0
M  END
>  <MODEL>
3

>  <REMARK>
 VINA RESULT:      -5.6      3.385      5.483
  Name = 
  6 active torsions:
  status: ('A' for Active; 'I' for Inactive)
    1  A    between atoms: C_3  and  C_7
    2  A    between atoms: C_9  and  C_14
    3  A    between atoms: C_10  and  N_13
    4  A    between atoms: C_11  and  C_22
    5  A    between atoms: C_12  and  C_15
    6  A    between atoms: C_14  and  C_18
                            x       y       z     vdW  Elec       q    Type
                         _______ _______ _______ _____ _____    ______ ____

>  <TORSDO>
F 6

$$$$
=
 OpenBabel10262420583D

 28 30  0  0  1  0  0  0  0  0999 V2000
  187.2810  178.5600  144.0760 O   0  0  0  0  0  0  0  0  0  0  0  0
  185.0670  180.1640  143.9150 C   0  0  0  0  0  1  0  0  0  0  0  0
  185.0250  178.8270  143.1810 C   0  0  1  0  0  0  0  0  0  0  0  0
  190.1490  178.2010  144.3410 C   0  0  0  0  0  2  0  0  0  0  0  0
  185.8030  179.4360  140.9680 C   0  0  0  0  0  2  0  0  0  0  0  0
  187.5580  177.6310  140.8430 C   0  0  2  0  0  3  0  0  0  0  0  0
  184.5430  179.1100  141.7510 C   0  0  1  0  0  3  0  0  0  0  0  0
  189.8760  177.8360  141.9020 C   0  0  0  0  0  2  0  0  0  0  0  0
  186.9800  178.7790  141.6870 C   0  0  2  0  0  3  0  0  0  0  0  0
  189.1110  177.5100  145.2210 C   0  0  0  0  0  2  0  0  0  0  0  0
  188.7340  176.9030  141.5260 C   0  0  0  0  0  2  0  0  0  0  0  0
  190.5630  177.3390  143.1590 C   0  0  0  0  0  2  0  0  0  0  0  0
  187.7750  177.3290  144.5130 C   0  0  0  0  0  2  0  0  0  0  0  0
  186.4310  178.2450  143.0080 C   0  0  1  0  0  3  0  0  0  0  0  0
  189.4530  178.8700  138.2110 C   0  0  0  0  0  2  0  0  0  0  0  0
  188.3080  176.8980  138.6970 C   0  0  1  0  0  3  0  0  0  0  0  0
  189.4260  177.4120  137.8420 C   0  0  2  0  0  3  0  0  0  0  0  0
  187.8290  178.0460  139.4570 N   0  0  2  0  0  0  0  0  0  0  0  0
  188.7990  179.0060  139.4440 O   0  0  0  0  0  0  0  0  0  0  0  0
  190.7020  176.7570  138.2580 C   0  0  0  0  0  3  0  0  0  0  0  0
  190.6830  175.6910  138.8530 O   0  0  0  0  0  0  0  0  0  0  0  0
  187.1820  176.3570  137.8290 C   0  0  0  0  0  2  0  0  0  0  0  0
  186.2620  177.4830  137.3980 C   0  0  0  0  0  2  0  0  0  0  0  0
  184.8220  177.0350  137.5340 C   0  0  0  0  0  1  0  0  0  0  0  0
  182.4750  178.3010  140.7430 N   0  0  0  0  0  1  0  0  0  0  0  0
  183.8440  177.9400  141.0640 C   0  0  0  0  0  2  0  0  0  0  0  0
  184.1230  177.8930  143.9980 C   0  0  0  0  0  2  0  0  0  0  0  0
  183.0610  178.5830  144.5920 O   0  0  0  0  0  1  0  0  0  0  0  0
  1 13  1  0  0  0  0
  3  2  1  1  0  0  0
  3 27  1  0  0  0  0
  4 10  1  0  0  0  0
  5  7  1  0  0  0  0
  6 11  1  1  0  0  0
  6  9  1  0  0  0  0
  7 26  1  6  0  0  0
  7  3  1  0  0  0  0
  8 12  1  0  0  0  0
  9  5  1  6  0  0  0
  9 14  1  0  0  0  0
 11  8  1  0  0  0  0
 12  4  1  0  0  0  0
 13 10  1  0  0  0  0
 14  3  1  0  0  0  0
 14  1  1  1  0  0  0
 15 19  1  0  0  0  0
 16 22  1  6  0  0  0
 16 18  1  0  0  0  0
 17 15  1  0  0  0  0
 17 20  1  1  0  0  0
 17 16  1  0  0  0  0
 18 19  1  1  0  0  0
 18  6  1  0  0  0  0
 20 21  2  0  0  0  0
 23 24  1  0  0  0  0
 23 22  1  0  0  0  0
 25 26  1  0  0  0  0
 27 28  1  0  0  0  0
M  END
>  <MODEL>
4

>  <REMARK>
 VINA RESULT:      -5.6      2.231      5.789
  Name = 
  6 active torsions:
  status: ('A' for Active; 'I' for Inactive)
    1  A    between atoms: C_3  and  C_7
    2  A    between atoms: C_9  and  C_14
    3  A    between atoms: C_10  and  N_13
    4  A    between atoms: C_11  and  C_22
    5  A    between atoms: C_12  and  C_15
    6  A    between atoms: C_14  and  C_18
                            x       y       z     vdW  Elec       q    Type
                         _______ _______ _______ _____ _____    ______ ____

>  <TORSDO>
F 6

$$$$
=
 OpenBabel10262420583D

 28 30  0  0  1  0  0  0  0  0999 V2000
  184.8480  178.4110  141.4440 O   0  0  0  0  0  0  0  0  0  0  0  0
  183.3410  177.7440  143.6310 C   0  0  0  0  0  1  0  0  0  0  0  0
  184.4770  178.7410  143.8350 C   0  0  1  0  0  0  0  0  0  0  0  0
  186.0230  177.7640  138.8700 C   0  0  0  0  0  2  0  0  0  0  0  0
  186.3130  177.2970  144.4810 C   0  0  0  0  0  2  0  0  0  0  0  0
  187.9360  178.2290  142.7940 C   0  0  2  0  0  3  0  0  0  0  0  0
  185.2870  178.2640  145.0480 C   0  0  1  0  0  3  0  0  0  0  0  0
  188.0020  177.5030  140.3440 C   0  0  0  0  0  2  0  0  0  0  0  0
  186.5270  177.6560  143.0120 C   0  0  2  0  0  3  0  0  0  0  0  0
  185.1720  179.0010  139.1400 C   0  0  0  0  0  2  0  0  0  0  0  0
  188.2090  178.6410  141.3320 C   0  0  0  0  0  2  0  0  0  0  0  0
  187.5100  178.0470  139.0170 C   0  0  0  0  0  2  0  0  0  0  0  0
  185.2380  179.4490  140.5930 C   0  0  0  0  0  2  0  0  0  0  0  0
  185.4680  178.7010  142.6670 C   0  0  1  0  0  3  0  0  0  0  0  0
  190.4600  175.8450  142.8020 C   0  0  0  0  0  2  0  0  0  0  0  0
  190.2470  178.0920  143.3850 C   0  0  1  0  0  3  0  0  0  0  0  0
  191.2850  177.0900  142.9810 C   0  0  2  0  0  3  0  0  0  0  0  0
  188.9780  177.3730  143.3840 N   0  0  2  0  0  0  0  0  0  0  0  0
  189.1260  176.2420  142.6340 O   0  0  0  0  0  0  0  0  0  0  0  0
  191.8800  177.5010  141.6740 C   0  0  0  0  0  3  0  0  0  0  0  0
  191.3810  177.1260  140.6250 O   0  0  0  0  0  0  0  0  0  0  0  0
  190.5320  178.6170  144.7840 C   0  0  0  0  0  2  0  0  0  0  0  0
  189.6950  177.8720  145.8060 C   0  0  0  0  0  2  0  0  0  0  0  0
  190.6010  177.0260  146.6760 C   0  0  0  0  0  1  0  0  0  0  0  0
  185.6800  179.3300  147.2060 N   0  0  0  0  0  1  0  0  0  0  0  0
  186.0330  179.3650  145.7980 C   0  0  0  0  0  2  0  0  0  0  0  0
  183.8380  180.1290  143.9850 C   0  0  0  0  0  2  0  0  0  0  0  0
  182.4950  180.1280  143.5950 O   0  0  0  0  0  1  0  0  0  0  0  0
  3  2  1  6  0  0  0
  3 27  1  0  0  0  0
  3  7  1  0  0  0  0
  4 12  1  0  0  0  0
  4 10  1  0  0  0  0
  5  7  1  0  0  0  0
  6 11  1  6  0  0  0
  6  9  1  0  0  0  0
  6 18  1  0  0  0  0
  7 26  1  6  0  0  0
  8 11  1  0  0  0  0
  9  5  1  1  0  0  0
 10 13  1  0  0  0  0
 12  8  1  0  0  0  0
 13  1  1  0  0  0  0
 14  1  1  6  0  0  0
 14  9  1  0  0  0  0
 14  3  1  0  0  0  0
 15 17  1  0  0  0  0
 16 22  1  1  0  0  0
 17 20  1  6  0  0  0
 17 16  1  0  0  0  0
 18 19  1  6  0  0  0
 18 16  1  0  0  0  0
 19 15  1  0  0  0  0
 21 20  2  0  0  0  0
 22 23  1  0  0  0  0
 23 24  1  0  0  0  0
 26 25  1  0  0  0  0
 28 27  1  0  0  0  0
M  END
>  <MODEL>
5

>  <REMARK>
 VINA RESULT:      -5.5      2.134      6.077
  Name = 
  6 active torsions:
  status: ('A' for Active; 'I' for Inactive)
    1  A    between atoms: C_3  and  C_7
    2  A    between atoms: C_9  and  C_14
    3  A    between atoms: C_10  and  N_13
    4  A    between atoms: C_11  and  C_22
    5  A    between atoms: C_12  and  C_15
    6  A    between atoms: C_14  and  C_18
                            x       y       z     vdW  Elec       q    Type
                         _______ _______ _______ _____ _____    ______ ____

>  <TORSDO>
F 6

$$$$
=
 OpenBabel10262420583D

 28 30  0  0  1  0  0  0  0  0999 V2000
  185.8720  178.4550  138.3250 O   0  0  0  0  0  0  0  0  0  0  0  0
  188.5350  178.9820  137.9650 C   0  0  0  0  0  1  0  0  0  0  0  0
  188.1620  177.8490  138.9170 C   0  0  1  0  0  0  0  0  0  0  0  0
  183.1000  179.3110  138.4290 C   0  0  0  0  0  2  0  0  0  0  0  0
  188.0790  178.9860  141.0550 C   0  0  0  0  0  2  0  0  0  0  0  0
  185.7970  178.1180  141.6820 C   0  0  2  0  0  3  0  0  0  0  0  0
  188.9500  178.0680  140.2150 C   0  0  1  0  0  3  0  0  0  0  0  0
  183.6130  179.1560  140.8530 C   0  0  0  0  0  2  0  0  0  0  0  0
  186.6350  178.8060  140.5920 C   0  0  2  0  0  3  0  0  0  0  0  0
  183.6100  178.1480  137.5830 C   0  0  0  0  0  2  0  0  0  0  0  0
  184.3310  177.8790  141.2660 C   0  0  0  0  0  2  0  0  0  0  0  0
  182.5820  178.8510  139.7830 C   0  0  0  0  0  2  0  0  0  0  0  0
  184.8590  177.5050  138.1670 C   0  0  0  0  0  2  0  0  0  0  0  0
  186.6920  177.9380  139.3370 C   0  0  1  0  0  3  0  0  0  0  0  0
  184.9320  180.2130  144.3120 C   0  0  0  0  0  2  0  0  0  0  0  0
  185.3390  177.9360  144.0200 C   0  0  1  0  0  3  0  0  0  0  0  0
  184.6200  178.8790  144.9350 C   0  0  2  0  0  3  0  0  0  0  0  0
  185.9540  178.7690  142.9930 N   0  0  2  0  0  0  0  0  0  0  0  0
  185.3220  179.9790  142.9860 O   0  0  0  0  0  0  0  0  0  0  0  0
  183.1520  178.6120  144.8600 C   0  0  0  0  0  3  0  0  0  0  0  0
  182.4670  179.1670  144.0160 O   0  0  0  0  0  0  0  0  0  0  0  0
  186.4210  177.1820  144.7770 C   0  0  0  0  0  2  0  0  0  0  0  0
  187.7690  177.8460  144.5700 C   0  0  0  0  0  2  0  0  0  0  0  0
  188.6800  177.5070  145.7310 C   0  0  0  0  0  1  0  0  0  0  0  0
  190.6580  176.5560  141.0800 N   0  0  0  0  0  1  0  0  0  0  0  0
  189.2280  176.8020  141.0220 C   0  0  0  0  0  2  0  0  0  0  0  0
  188.4610  176.5310  138.1880 C   0  0  0  0  0  2  0  0  0  0  0  0
  188.2720  176.6460  136.8080 O   0  0  0  0  0  1  0  0  0  0  0  0
  3  2  1  6  0  0  0
  3 14  1  0  0  0  0
  3  7  1  0  0  0  0
  4 12  1  0  0  0  0
  6 11  1  6  0  0  0
  6 18  1  0  0  0  0
  7 26  1  1  0  0  0
  7  5  1  0  0  0  0
  8 11  1  0  0  0  0
  9  5  1  1  0  0  0
  9  6  1  0  0  0  0
 10 13  1  0  0  0  0
 10  4  1  0  0  0  0
 12  8  1  0  0  0  0
 13  1  1  0  0  0  0
 14  1  1  6  0  0  0
 14  9  1  0  0  0  0
 15 17  1  0  0  0  0
 16 22  1  1  0  0  0
 16 17  1  0  0  0  0
 17 20  1  6  0  0  0
 18 19  1  6  0  0  0
 18 16  1  0  0  0  0
 19 15  1  0  0  0  0
 21 20  2  0  0  0  0
 23 22  1  0  0  0  0
 23 24  1  0  0  0  0
 26 25  1  0  0  0  0
 27  3  1  0  0  0  0
 28 27  1  0  0  0  0
M  END
>  <MODEL>
6

>  <REMARK>
 VINA RESULT:      -5.5      2.217      4.629
  Name = 
  6 active torsions:
  status: ('A' for Active; 'I' for Inactive)
    1  A    between atoms: C_3  and  C_7
    2  A    between atoms: C_9  and  C_14
    3  A    between atoms: C_10  and  N_13
    4  A    between atoms: C_11  and  C_22
    5  A    between atoms: C_12  and  C_15
    6  A    between atoms: C_14  and  C_18
                            x       y       z     vdW  Elec       q    Type
                         _______ _______ _______ _____ _____    ______ ____

>  <TORSDO>
F 6

$$$$
=
 OpenBabel10262420583D

 28 30  0  0  1  0  0  0  0  0999 V2000
  190.9680  176.8630  139.7190 O   0  0  0  0  0  0  0  0  0  0  0  0
  191.5670  177.9270  142.1700 C   0  0  0  0  0  1  0  0  0  0  0  0
  190.2860  177.1070  142.0510 C   0  0  1  0  0  0  0  0  0  0  0  0
  191.0570  176.9450  136.8180 C   0  0  0  0  0  2  0  0  0  0  0  0
  188.6340  178.8100  141.5560 C   0  0  0  0  0  2  0  0  0  0  0  0
  187.6840  177.6220  139.5460 C   0  0  2  0  0  3  0  0  0  0  0  0
  189.1570  177.9330  142.6810 C   0  0  1  0  0  3  0  0  0  0  0  0
  188.7340  177.7220  137.2180 C   0  0  0  0  0  2  0  0  0  0  0  0
  188.9660  178.1160  140.2360 C   0  0  2  0  0  3  0  0  0  0  0  0
  191.4940  175.7490  137.6590 C   0  0  0  0  0  2  0  0  0  0  0  0
  187.9500  176.8840  138.2180 C   0  0  0  0  0  2  0  0  0  0  0  0
  189.6110  176.8280  136.3630 C   0  0  0  0  0  2  0  0  0  0  0  0
  190.7730  175.6820  138.9980 C   0  0  0  0  0  2  0  0  0  0  0  0
  189.8700  176.9370  140.5860 C   0  0  1  0  0  3  0  0  0  0  0  0
  185.0360  179.3680  138.1330 C   0  0  0  0  0  2  0  0  0  0  0  0
  185.4480  178.2320  140.1270 C   0  0  1  0  0  3  0  0  0  0  0  0
  184.3130  178.6700  139.2530 C   0  0  2  0  0  3  0  0  0  0  0  0
  186.6630  178.6790  139.4550 N   0  0  2  0  0  0  0  0  0  0  0  0
  186.3650  178.9220  138.1450 O   0  0  0  0  0  0  0  0  0  0  0  0
  183.6050  177.4640  138.7290 C   0  0  0  0  0  3  0  0  0  0  0  0
  182.5850  177.5870  138.0680 O   0  0  0  0  0  0  0  0  0  0  0  0
  185.3520  178.8930  141.4930 C   0  0  0  0  0  2  0  0  0  0  0  0
  184.7850  177.9200  142.5090 C   0  0  0  0  0  2  0  0  0  0  0  0
  184.3390  178.6810  143.7400 C   0  0  0  0  0  1  0  0  0  0  0  0
  188.0180  177.1330  144.6840 N   0  0  0  0  0  1  0  0  0  0  0  0
  187.9910  177.1170  143.2320 C   0  0  0  0  0  2  0  0  0  0  0  0
  190.5540  175.7530  142.7220 C   0  0  0  0  0  2  0  0  0  0  0  0
  191.4570  175.8690  143.7840 O   0  0  0  0  0  1  0  0  0  0  0  0
  3  2  1  1  0  0  0
  3  7  1  0  0  0  0
  3 27  1  0  0  0  0
  4 10  1  0  0  0  0
  5  7  1  0  0  0  0
  6 11  1  6  0  0  0
  6  9  1  0  0  0  0
  7 26  1  6  0  0  0
  8 11  1  0  0  0  0
  9 14  1  0  0  0  0
  9  5  1  1  0  0  0
 10 13  1  0  0  0  0
 12  4  1  0  0  0  0
 12  8  1  0  0  0  0
 13  1  1  0  0  0  0
 14  1  1  6  0  0  0
 14  3  1  0  0  0  0
 15 19  1  0  0  0  0
 15 17  1  0  0  0  0
 16 22  1  1  0  0  0
 17 20  1  6  0  0  0
 17 16  1  0  0  0  0
 18 19  1  6  0  0  0
 18  6  1  0  0  0  0
 18 16  1  0  0  0  0
 21 20  2  0  0  0  0
 22 23  1  0  0  0  0
 23 24  1  0  0  0  0
 26 25  1  0  0  0  0
 27 28  1  0  0  0  0
M  END
>  <MODEL>
7

>  <REMARK>
 VINA RESULT:      -5.2      1.081      1.171
  Name = 
  6 active torsions:
  status: ('A' for Active; 'I' for Inactive)
    1  A    between atoms: C_3  and  C_7
    2  A    between atoms: C_9  and  C_14
    3  A    between atoms: C_10  and  N_13
    4  A    between atoms: C_11  and  C_22
    5  A    between atoms: C_12  and  C_15
    6  A    between atoms: C_14  and  C_18
                            x       y       z     vdW  Elec       q    Type
                         _______ _______ _______ _____ _____    ______ ____

>  <TORSDO>
F 6

$$$$
=
 OpenBabel10262420583D

 28 30  0  0  1  0  0  0  0  0999 V2000
  187.0190  178.2240  144.4150 O   0  0  0  0  0  0  0  0  0  0  0  0
  185.3310  180.0950  143.3420 C   0  0  0  0  0  1  0  0  0  0  0  0
  185.5360  178.8000  142.5620 C   0  0  1  0  0  0  0  0  0  0  0  0
  189.3340  177.5030  146.0120 C   0  0  0  0  0  2  0  0  0  0  0  0
  187.3600  179.3840  141.0760 C   0  0  0  0  0  2  0  0  0  0  0  0
  188.7740  177.3810  141.6590 C   0  0  2  0  0  3  0  0  0  0  0  0
  185.8540  179.1890  141.1110 C   0  0  1  0  0  3  0  0  0  0  0  0
  190.2720  177.2610  143.7270 C   0  0  0  0  0  2  0  0  0  0  0  0
  187.9610  178.5610  142.2140 C   0  0  2  0  0  3  0  0  0  0  0  0
  187.9380  176.9160  146.2060 C   0  0  0  0  0  2  0  0  0  0  0  0
  189.3860  176.4890  142.7590 C   0  0  0  0  0  2  0  0  0  0  0  0
  190.1990  176.6390  145.1080 C   0  0  0  0  0  2  0  0  0  0  0  0
  187.1180  176.9260  144.9230 C   0  0  0  0  0  2  0  0  0  0  0  0
  186.7840  178.0530  143.0440 C   0  0  1  0  0  3  0  0  0  0  0  0
  191.5420  177.0970  139.5810 C   0  0  0  0  0  2  0  0  0  0  0  0
  189.2440  177.3900  139.3160 C   0  0  1  0  0  3  0  0  0  0  0  0
  190.4440  176.8860  138.5750 C   0  0  2  0  0  3  0  0  0  0  0  0
  189.7320  177.8080  140.6250 N   0  0  2  0  0  0  0  0  0  0  0  0
  190.9420  177.2130  140.8430 O   0  0  0  0  0  0  0  0  0  0  0  0
  190.2750  175.4270  138.3030 C   0  0  0  0  0  3  0  0  0  0  0  0
  191.2500  174.7210  138.0970 O   0  0  0  0  0  0  0  0  0  0  0  0
  188.6370  178.5830  138.5960 C   0  0  0  0  0  2  0  0  0  0  0  0
  188.9760  178.5350  137.1180 C   0  0  0  0  0  2  0  0  0  0  0  0
  187.7250  178.2230  136.3250 C   0  0  0  0  0  1  0  0  0  0  0  0
  185.0970  178.7900  138.8270 N   0  0  0  0  0  1  0  0  0  0  0  0
  185.4840  178.1400  140.0670 C   0  0  0  0  0  2  0  0  0  0  0  0
  184.2680  177.9560  142.7460 C   0  0  0  0  0  2  0  0  0  0  0  0
  183.4640  178.4440  143.7810 O   0  0  0  0  0  1  0  0  0  0  0  0
  1 13  1  0  0  0  0
  3 27  1  0  0  0  0
  3 14  1  0  0  0  0
  3  2  1  1  0  0  0
  4 10  1  0  0  0  0
  5  7  1  0  0  0  0
  6  9  1  0  0  0  0
  6 11  1  1  0  0  0
  7 26  1  6  0  0  0
  7  3  1  0  0  0  0
  8 12  1  0  0  0  0
  9  5  1  6  0  0  0
  9 14  1  0  0  0  0
 11  8  1  0  0  0  0
 12  4  1  0  0  0  0
 13 10  1  0  0  0  0
 14  1  1  1  0  0  0
 15 19  1  0  0  0  0
 16 22  1  6  0  0  0
 16 18  1  0  0  0  0
 17 20  1  1  0  0  0
 17 16  1  0  0  0  0
 17 15  1  0  0  0  0
 18 19  1  1  0  0  0
 18  6  1  0  0  0  0
 21 20  2  0  0  0  0
 23 22  1  0  0  0  0
 24 23  1  0  0  0  0
 25 26  1  0  0  0  0
 27 28  1  0  0  0  0
M  END
>  <MODEL>
8

>  <REMARK>
 VINA RESULT:      -5.2      2.190      6.498
  Name = 
  6 active torsions:
  status: ('A' for Active; 'I' for Inactive)
    1  A    between atoms: C_3  and  C_7
    2  A    between atoms: C_9  and  C_14
    3  A    between atoms: C_10  and  N_13
    4  A    between atoms: C_11  and  C_22
    5  A    between atoms: C_12  and  C_15
    6  A    between atoms: C_14  and  C_18
                            x       y       z     vdW  Elec       q    Type
                         _______ _______ _______ _____ _____    ______ ____

>  <TORSDO>
F 6

$$$$
=
 OpenBabel10262420583D

 28 30  0  0  1  0  0  0  0  0999 V2000
  187.2680  177.9330  145.7010 O   0  0  0  0  0  0  0  0  0  0  0  0
  189.4650  176.3780  145.1980 C   0  0  0  0  0  1  0  0  0  0  0  0
  189.2510  177.6030  144.3140 C   0  0  1  0  0  0  0  0  0  0  0  0
  184.5340  178.2530  146.6230 C   0  0  0  0  0  2  0  0  0  0  0  0
  187.9950  176.6800  142.4590 C   0  0  0  0  0  2  0  0  0  0  0  0
  186.1610  178.4070  142.5480 C   0  0  2  0  0  3  0  0  0  0  0  0
  189.3860  177.1410  142.8570 C   0  0  1  0  0  3  0  0  0  0  0  0
  184.1860  178.2900  144.1660 C   0  0  0  0  0  2  0  0  0  0  0  0
  186.9920  177.4000  143.3590 C   0  0  2  0  0  3  0  0  0  0  0  0
  185.7140  179.0830  147.1230 C   0  0  0  0  0  2  0  0  0  0  0  0
  185.1460  179.1920  143.4050 C   0  0  0  0  0  2  0  0  0  0  0  0
  183.7960  178.9360  145.4820 C   0  0  0  0  0  2  0  0  0  0  0  0
  186.8240  179.2000  146.0890 C   0  0  0  0  0  2  0  0  0  0  0  0
  187.8140  178.1220  144.4240 C   0  0  1  0  0  3  0  0  0  0  0  0
  183.6750  177.6610  140.2420 C   0  0  0  0  0  2  0  0  0  0  0  0
  185.7530  178.7180  140.2150 C   0  0  1  0  0  3  0  0  0  0  0  0
  184.4670  178.6640  139.4480 C   0  0  2  0  0  3  0  0  0  0  0  0
  185.5870  177.8010  141.3360 N   0  0  2  0  0  0  0  0  0  0  0  0
  184.2510  177.5820  141.5180 O   0  0  0  0  0  0  0  0  0  0  0  0
  183.8030  180.0010  139.5090 C   0  0  0  0  0  3  0  0  0  0  0  0
  184.1110  180.8780  138.7180 O   0  0  0  0  0  0  0  0  0  0  0  0
  186.9100  178.2520  139.3440 C   0  0  0  0  0  2  0  0  0  0  0  0
  186.4340  178.0010  137.9270 C   0  0  0  0  0  2  0  0  0  0  0  0
  187.5330  177.3160  137.1410 C   0  0  0  0  0  1  0  0  0  0  0  0
  190.2420  177.6170  140.6230 N   0  0  0  0  0  1  0  0  0  0  0  0
  189.8290  178.2240  141.8760 C   0  0  0  0  0  2  0  0  0  0  0  0
  190.2690  178.6620  144.7580 C   0  0  0  0  0  2  0  0  0  0  0  0
  191.5680  178.1480  144.8040 O   0  0  0  0  0  1  0  0  0  0  0  0
  1 13  1  0  0  0  0
  3 14  1  0  0  0  0
  3 27  1  0  0  0  0
  3  2  1  1  0  0  0
  4 10  1  0  0  0  0
  5  7  1  0  0  0  0
  6  9  1  0  0  0  0
  6 11  1  1  0  0  0
  7 26  1  6  0  0  0
  7  3  1  0  0  0  0
  8 12  1  0  0  0  0
  9  5  1  6  0  0  0
  9 14  1  0  0  0  0
 11  8  1  0  0  0  0
 12  4  1  0  0  0  0
 13 10  1  0  0  0  0
 14  1  1  1  0  0  0
 15 19  1  0  0  0  0
 16 22  1  6  0  0  0
 16 18  1  0  0  0  0
 17 20  1  1  0  0  0
 17 16  1  0  0  0  0
 17 15  1  0  0  0  0
 18 19  1  1  0  0  0
 18  6  1  0  0  0  0
 21 20  2  0  0  0  0
 23 22  1  0  0  0  0
 24 23  1  0  0  0  0
 25 26  1  0  0  0  0
 27 28  1  0  0  0  0
M  END
>  <MODEL>
9

>  <REMARK>
 VINA RESULT:      -5.1      2.138      5.519
  Name = 
  6 active torsions:
  status: ('A' for Active; 'I' for Inactive)
    1  A    between atoms: C_3  and  C_7
    2  A    between atoms: C_9  and  C_14
    3  A    between atoms: C_10  and  N_13
    4  A    between atoms: C_11  and  C_22
    5  A    between atoms: C_12  and  C_15
    6  A    between atoms: C_14  and  C_18
                            x       y       z     vdW  Elec       q    Type
                         _______ _______ _______ _____ _____    ______ ____

>  <TORSDO>
F 6

$$$$
