=
 OpenBabel10262421433D

 30 34  0  0  1  0  0  0  0  0999 V2000
  190.5020  177.0890  139.2690 C   0  0  0  0  0  0  0  0  0  0  0  0
  192.9280  176.5050  138.6980 C   0  0  0  0  0  0  0  0  0  0  0  0
  190.3790  175.7240  135.2150 C   0  0  0  0  0  2  0  0  0  0  0  0
  189.2890  177.7650  138.9160 C   0  0  0  0  0  0  0  0  0  0  0  0
  190.7050  176.6560  140.5980 C   0  0  0  0  0  3  0  0  0  0  0  0
  187.8070  177.7400  142.3030 N   0  0  0  0  0  0  0  0  0  0  0  0
  188.5790  177.5950  141.2130 C   0  0  0  0  0  0  0  0  0  0  0  0
  189.7370  176.6390  142.8430 N   0  0  0  0  0  2  0  0  0  0  0  0
  189.5150  176.9280  135.4140 C   0  0  0  0  0  0  0  0  0  0  0  0
  189.7240  176.9400  141.5370 C   0  0  0  0  0  0  0  0  0  0  0  0
  188.3120  178.0230  139.9120 C   0  0  0  0  0  0  0  0  0  0  0  0
  193.7050  175.3000  138.2290 C   0  0  0  0  0  2  0  0  0  0  0  0
  188.1080  177.0630  144.6860 C   0  0  0  0  0  1  0  0  0  0  0  0
  193.5570  177.4650  139.2710 N   0  0  0  0  0  2  0  0  0  0  0  0
  191.5280  175.8330  136.2000 C   0  0  2  0  0  3  0  0  0  0  0  0
  193.9200  175.3150  136.7090 C   0  0  0  0  0  2  0  0  0  0  0  0
  188.5510  177.1420  143.2690 C   0  0  0  0  0  0  0  0  0  0  0  0
  191.5120  176.7330  138.2080 C   0  0  1  0  0  3  0  0  0  0  0  0
  189.0140  178.2020  137.4930 C   0  0  0  0  0  2  0  0  0  0  0  0
  189.5840  177.8810  134.5940 O   0  0  0  0  0  0  0  0  0  0  0  0
  188.7360  177.0680  136.6090 N   0  0  0  0  0  0  0  0  0  0  0  0
  192.6760  174.8780  135.9210 C   0  0  0  0  0  2  0  0  0  0  0  0
  191.0570  175.6220  137.4960 O   0  0  0  0  0  0  0  0  0  0  0  0
  187.3170  175.3280  135.8690 O   0  0  0  0  0  0  0  0  0  0  0  0
  187.7930  176.0190  137.0060 C   0  0  2  0  0  3  0  0  0  0  0  0
  186.4300  176.2510  136.4480 C   0  0  0  0  0  0  0  0  0  0  0  0
  186.1350  177.3830  135.4780 C   0  0  0  0  0  1  0  0  0  0  0  0
  185.2740  175.5430  137.1200 C   0  0  0  0  0  1  0  0  0  0  0  0
  185.9890  177.8400  139.5020 O   0  0  0  0  0  1  0  0  0  0  0  0
  187.0410  178.7500  139.6050 C   0  0  0  0  0  2  0  0  0  0  0  0
  1  5  1  0  0  0  0
  2 14  2  0  0  0  0
  3  9  1  0  0  0  0
  4  1  2  0  0  0  0
  4 11  1  0  0  0  0
  5 10  2  0  0  0  0
  6 17  2  0  0  0  0
  7 10  1  0  0  0  0
  7  6  1  0  0  0  0
  8 17  1  0  0  0  0
  9 21  1  0  0  0  0
 10  8  1  0  0  0  0
 11  7  2  0  0  0  0
 12  2  1  0  0  0  0
 15  3  1  6  0  0  0
 15 23  1  0  0  0  0
 16 12  1  0  0  0  0
 17 13  1  0  0  0  0
 18 23  1  1  0  0  0
 18  2  1  0  0  0  0
 18  1  1  0  0  0  0
 19  4  1  0  0  0  0
 20  9  2  0  0  0  0
 21 19  1  0  0  0  0
 22 15  1  0  0  0  0
 22 16  1  0  0  0  0
 24 26  1  0  0  0  0
 24 25  1  0  0  0  0
 25 21  1  6  0  0  0
 26 25  1  0  0  0  0
 26 28  1  0  0  0  0
 27 26  1  0  0  0  0
 29 30  1  0  0  0  0
 30 11  1  0  0  0  0
M  END
>  <MODEL>
1

>  <REMARK>
 VINA RESULT:      -6.2      0.000      0.000
  Name = 
  2 active torsions:
  status: ('A' for Active; 'I' for Inactive)
    1  A    between atoms: C_10  and  N_25
    2  A    between atoms: C_13  and  C_30
                            x       y       z     vdW  Elec       q    Type
                         _______ _______ _______ _____ _____    ______ ____

>  <TORSDO>
F 2

$$$$
=
 OpenBabel10262421433D

 30 34  0  0  1  0  0  0  0  0999 V2000
  186.7090  177.4230  137.4970 C   0  0  0  0  0  0  0  0  0  0  0  0
  189.0430  178.2680  138.1200 C   0  0  0  0  0  0  0  0  0  0  0  0
  189.2910  174.0640  136.8940 C   0  0  0  0  0  2  0  0  0  0  0  0
  185.8610  176.7430  136.5630 C   0  0  0  0  0  0  0  0  0  0  0  0
  186.1390  178.2420  138.4970 C   0  0  0  0  0  3  0  0  0  0  0  0
  182.6680  178.0790  137.8620 N   0  0  0  0  0  0  0  0  0  0  0  0
  183.9510  177.7630  137.6240 C   0  0  0  0  0  0  0  0  0  0  0  0
  184.0340  179.1360  139.3610 N   0  0  0  0  0  2  0  0  0  0  0  0
  188.2930  174.1920  135.7890 C   0  0  0  0  0  0  0  0  0  0  0  0
  184.7600  178.3910  138.5160 C   0  0  0  0  0  0  0  0  0  0  0  0
  184.4550  176.9210  136.6300 C   0  0  0  0  0  0  0  0  0  0  0  0
  190.1370  177.9070  139.0940 C   0  0  0  0  0  2  0  0  0  0  0  0
  181.5810  179.5520  139.5590 C   0  0  0  0  0  1  0  0  0  0  0  0
  189.0240  179.4480  137.6170 N   0  0  0  0  0  2  0  0  0  0  0  0
  189.5730  175.4640  137.4030 C   0  0  2  0  0  3  0  0  0  0  0  0
  191.2180  177.0350  138.4410 C   0  0  0  0  0  2  0  0  0  0  0  0
  182.7680  178.9140  138.9280 C   0  0  0  0  0  0  0  0  0  0  0  0
  188.1960  177.1790  137.4930 C   0  0  1  0  0  3  0  0  0  0  0  0
  186.4300  175.8200  135.5070 C   0  0  0  0  0  2  0  0  0  0  0  0
  188.6780  174.1030  134.5940 O   0  0  0  0  0  0  0  0  0  0  0  0
  186.9400  174.5720  136.0780 N   0  0  0  0  0  0  0  0  0  0  0  0
  190.7990  175.5650  138.2950 C   0  0  0  0  0  2  0  0  0  0  0  0
  188.4610  175.9470  138.0930 O   0  0  0  0  0  0  0  0  0  0  0  0
  186.4290  172.4270  136.9290 O   0  0  0  0  0  0  0  0  0  0  0  0
  186.1450  173.8060  137.0420 C   0  0  2  0  0  3  0  0  0  0  0  0
  185.2140  172.8560  136.3700 C   0  0  0  0  0  0  0  0  0  0  0  0
  185.2200  172.6450  134.8650 C   0  0  0  0  0  1  0  0  0  0  0  0
  184.0370  172.3490  137.1740 C   0  0  0  0  0  1  0  0  0  0  0  0
  183.2080  177.1430  134.6320 O   0  0  0  0  0  1  0  0  0  0  0  0
  183.5250  176.2590  135.6630 C   0  0  0  0  0  2  0  0  0  0  0  0
  1  5  1  0  0  0  0
  2 12  1  0  0  0  0
  4 11  1  0  0  0  0
  4  1  2  0  0  0  0
  5 10  2  0  0  0  0
  6 17  2  0  0  0  0
  7  6  1  0  0  0  0
  7 10  1  0  0  0  0
  9 21  1  0  0  0  0
  9  3  1  0  0  0  0
 10  8  1  0  0  0  0
 11  7  2  0  0  0  0
 14  2  2  0  0  0  0
 15  3  1  1  0  0  0
 15 23  1  0  0  0  0
 15 22  1  0  0  0  0
 16 12  1  0  0  0  0
 17  8  1  0  0  0  0
 17 13  1  0  0  0  0
 18  1  1  1  0  0  0
 18 23  1  0  0  0  0
 18  2  1  0  0  0  0
 19 21  1  0  0  0  0
 19  4  1  0  0  0  0
 20  9  2  0  0  0  0
 22 16  1  0  0  0  0
 24 25  1  0  0  0  0
 25 21  1  6  0  0  0
 26 24  1  0  0  0  0
 26 25  1  0  0  0  0
 26 28  1  0  0  0  0
 27 26  1  0  0  0  0
 29 30  1  0  0  0  0
 30 11  1  0  0  0  0
M  END
>  <MODEL>
2

>  <REMARK>
 VINA RESULT:      -6.1      3.017      4.800
  Name = 
  2 active torsions:
  status: ('A' for Active; 'I' for Inactive)
    1  A    between atoms: C_10  and  N_25
    2  A    between atoms: C_13  and  C_30
                            x       y       z     vdW  Elec       q    Type
                         _______ _______ _______ _____ _____    ______ ____

>  <TORSDO>
F 2

$$$$
=
 OpenBabel10262421433D

 30 34  0  0  1  0  0  0  0  0999 V2000
  187.3940  178.0120  139.0740 C   0  0  0  0  0  0  0  0  0  0  0  0
  186.7600  178.5820  141.4870 C   0  0  0  0  0  0  0  0  0  0  0  0
  190.6330  176.5230  141.4410 C   0  0  0  0  0  2  0  0  0  0  0  0
  188.3720  178.0330  138.0270 C   0  0  0  0  0  0  0  0  0  0  0  0
  186.0340  177.7960  138.7620 C   0  0  0  0  0  3  0  0  0  0  0  0
  185.9980  177.5140  135.2410 N   0  0  0  0  0  0  0  0  0  0  0  0
  186.6020  177.6810  136.4280 C   0  0  0  0  0  0  0  0  0  0  0  0
  184.4540  177.4580  136.9260 N   0  0  0  0  0  2  0  0  0  0  0  0
  191.1260  177.2030  140.2050 C   0  0  0  0  0  0  0  0  0  0  0  0
  185.6830  177.6470  137.4280 C   0  0  0  0  0  0  0  0  0  0  0  0
  187.9630  177.8660  136.6780 C   0  0  0  0  0  0  0  0  0  0  0  0
  186.5380  177.8460  142.7860 C   0  0  0  0  0  2  0  0  0  0  0  0
  183.6100  177.1850  134.5940 C   0  0  0  0  0  1  0  0  0  0  0  0
  186.2580  179.7530  141.3440 N   0  0  0  0  0  2  0  0  0  0  0  0
  189.3360  177.2030  141.8350 C   0  0  2  0  0  3  0  0  0  0  0  0
  187.7870  177.8750  143.6780 C   0  0  0  0  0  2  0  0  0  0  0  0
  184.6940  177.3810  135.5930 C   0  0  0  0  0  0  0  0  0  0  0  0
  187.8210  178.1040  140.5160 C   0  0  1  0  0  3  0  0  0  0  0  0
  189.8450  178.2150  138.3250 C   0  0  0  0  0  2  0  0  0  0  0  0
  192.0690  178.0340  140.2890 O   0  0  0  0  0  0  0  0  0  0  0  0
  190.4310  177.0330  138.9620 N   0  0  0  0  0  0  0  0  0  0  0  0
  188.8630  176.8710  143.2410 C   0  0  0  0  0  2  0  0  0  0  0  0
  188.3350  176.8710  140.9220 O   0  0  0  0  0  0  0  0  0  0  0  0
  191.3290  174.8780  138.5970 O   0  0  0  0  0  0  0  0  0  0  0  0
  190.1870  175.6920  138.4260 C   0  0  2  0  0  3  0  0  0  0  0  0
  191.1050  175.3640  137.2980 C   0  0  0  0  0  0  0  0  0  0  0  0
  192.2340  176.2910  136.8770 C   0  0  0  0  0  1  0  0  0  0  0  0
  190.6900  174.2470  136.3650 C   0  0  0  0  0  1  0  0  0  0  0  0
  188.9680  176.6700  134.9020 O   0  0  0  0  0  1  0  0  0  0  0  0
  188.9370  177.9070  135.5440 C   0  0  0  0  0  2  0  0  0  0  0  0
  2 12  1  0  0  0  0
  4 19  1  0  0  0  0
  4  1  2  0  0  0  0
  5  1  1  0  0  0  0
  6 17  2  0  0  0  0
  6  7  1  0  0  0  0
  7 11  2  0  0  0  0
  7 10  1  0  0  0  0
  8 10  1  0  0  0  0
  9 20  2  0  0  0  0
  9  3  1  0  0  0  0
 10  5  2  0  0  0  0
 11  4  1  0  0  0  0
 12 16  1  0  0  0  0
 13 17  1  0  0  0  0
 14  2  2  0  0  0  0
 15  3  1  6  0  0  0
 15 22  1  0  0  0  0
 17  8  1  0  0  0  0
 18  1  1  6  0  0  0
 18 23  1  0  0  0  0
 18  2  1  0  0  0  0
 19 21  1  0  0  0  0
 21  9  1  0  0  0  0
 22 16  1  0  0  0  0
 23 15  1  0  0  0  0
 25 24  1  0  0  0  0
 25 21  1  1  0  0  0
 26 25  1  0  0  0  0
 26 24  1  0  0  0  0
 27 26  1  0  0  0  0
 28 26  1  0  0  0  0
 29 30  1  0  0  0  0
 30 11  1  0  0  0  0
M  END
>  <MODEL>
3

>  <REMARK>
 VINA RESULT:      -6.0      1.950      6.196
  Name = 
  2 active torsions:
  status: ('A' for Active; 'I' for Inactive)
    1  A    between atoms: C_10  and  N_25
    2  A    between atoms: C_13  and  C_30
                            x       y       z     vdW  Elec       q    Type
                         _______ _______ _______ _____ _____    ______ ____

>  <TORSDO>
F 2

$$$$
=
 OpenBabel10262421433D

 30 34  0  0  1  0  0  0  0  0999 V2000
  186.1790  178.2810  139.0730 C   0  0  0  0  0  0  0  0  0  0  0  0
  188.5060  178.2170  138.0090 C   0  0  0  0  0  0  0  0  0  0  0  0
  185.7220  175.8600  135.5730 C   0  0  0  0  0  2  0  0  0  0  0  0
  184.7690  178.4910  138.9240 C   0  0  0  0  0  0  0  0  0  0  0  0
  186.7620  178.3030  140.3590 C   0  0  0  0  0  3  0  0  0  0  0  0
  184.0550  179.0220  142.5120 N   0  0  0  0  0  0  0  0  0  0  0  0
  184.6070  178.7870  141.3110 C   0  0  0  0  0  0  0  0  0  0  0  0
  186.3010  178.6590  142.7340 N   0  0  0  0  0  2  0  0  0  0  0  0
  184.5740  176.8020  135.7410 C   0  0  0  0  0  0  0  0  0  0  0  0
  185.9410  178.5700  141.4460 C   0  0  0  0  0  0  0  0  0  0  0  0
  183.9720  178.7500  140.0690 C   0  0  0  0  0  0  0  0  0  0  0  0
  189.5230  177.1750  137.6110 C   0  0  0  0  0  2  0  0  0  0  0  0
  185.0090  179.1370  144.8150 C   0  0  0  0  0  1  0  0  0  0  0  0
  188.8930  179.4270  138.1810 N   0  0  0  0  0  2  0  0  0  0  0  0
  186.9420  176.5340  136.1710 C   0  0  2  0  0  3  0  0  0  0  0  0
  189.4240  176.8230  136.1200 C   0  0  0  0  0  2  0  0  0  0  0  0
  185.1220  178.9320  143.3460 C   0  0  0  0  0  0  0  0  0  0  0  0
  187.0260  177.9210  137.8790 C   0  0  1  0  0  3  0  0  0  0  0  0
  184.1010  178.4270  137.5680 C   0  0  0  0  0  2  0  0  0  0  0  0
  184.1750  177.4740  134.7530 O   0  0  0  0  0  0  0  0  0  0  0  0
  184.0360  177.0600  137.0450 N   0  0  0  0  0  0  0  0  0  0  0  0
  188.2590  175.8750  135.8010 C   0  0  0  0  0  2  0  0  0  0  0  0
  186.8220  176.5770  137.5610 O   0  0  0  0  0  0  0  0  0  0  0  0
  182.9210  174.9770  137.1040 O   0  0  0  0  0  0  0  0  0  0  0  0
  183.5730  175.9550  137.8880 C   0  0  2  0  0  3  0  0  0  0  0  0
  182.0890  175.8160  137.8640 C   0  0  0  0  0  0  0  0  0  0  0  0
  181.2120  176.6580  136.9530 C   0  0  0  0  0  1  0  0  0  0  0  0
  181.4430  175.0540  139.0010 C   0  0  0  0  0  1  0  0  0  0  0  0
  181.7990  177.9740  140.5910 O   0  0  0  0  0  1  0  0  0  0  0  0
  182.5010  179.0050  139.9680 C   0  0  0  0  0  2  0  0  0  0  0  0
  1  5  1  0  0  0  0
  2 14  2  0  0  0  0
  3  9  1  0  0  0  0
  4  1  2  0  0  0  0
  4 11  1  0  0  0  0
  5 10  2  0  0  0  0
  6 17  2  0  0  0  0
  7 10  1  0  0  0  0
  7  6  1  0  0  0  0
  8 17  1  0  0  0  0
  9 21  1  0  0  0  0
 10  8  1  0  0  0  0
 11  7  2  0  0  0  0
 12  2  1  0  0  0  0
 15  3  1  6  0  0  0
 15 23  1  0  0  0  0
 16 12  1  0  0  0  0
 17 13  1  0  0  0  0
 18 23  1  1  0  0  0
 18  2  1  0  0  0  0
 18  1  1  0  0  0  0
 19  4  1  0  0  0  0
 20  9  2  0  0  0  0
 21 19  1  0  0  0  0
 22 16  1  0  0  0  0
 22 15  1  0  0  0  0
 24 26  1  0  0  0  0
 24 25  1  0  0  0  0
 25 21  1  6  0  0  0
 26 25  1  0  0  0  0
 26 28  1  0  0  0  0
 27 26  1  0  0  0  0
 30 11  1  0  0  0  0
 30 29  1  0  0  0  0
M  END
>  <MODEL>
4

>  <REMARK>
 VINA RESULT:      -5.9      2.955      4.538
  Name = 
  2 active torsions:
  status: ('A' for Active; 'I' for Inactive)
    1  A    between atoms: C_10  and  N_25
    2  A    between atoms: C_13  and  C_30
                            x       y       z     vdW  Elec       q    Type
                         _______ _______ _______ _____ _____    ______ ____

>  <TORSDO>
F 2

$$$$
=
 OpenBabel10262421433D

 30 34  0  0  1  0  0  0  0  0999 V2000
  184.9050  178.6280  139.8000 C   0  0  0  0  0  0  0  0  0  0  0  0
  182.4360  179.2930  139.6850 C   0  0  0  0  0  0  0  0  0  0  0  0
  183.5780  178.6280  143.8690 C   0  0  0  0  0  2  0  0  0  0  0  0
  186.2000  178.8200  140.3840 C   0  0  0  0  0  0  0  0  0  0  0  0
  184.7820  177.9380  138.5740 C   0  0  0  0  0  3  0  0  0  0  0  0
  188.1130  177.1670  137.6860 N   0  0  0  0  0  0  0  0  0  0  0  0
  187.1720  177.6880  138.4900 C   0  0  0  0  0  0  0  0  0  0  0  0
  186.0380  176.8480  136.7820 N   0  0  0  0  0  2  0  0  0  0  0  0
  184.9300  179.2500  143.7340 C   0  0  0  0  0  0  0  0  0  0  0  0
  185.9400  177.4960  137.9500 C   0  0  0  0  0  0  0  0  0  0  0  0
  187.3540  178.3400  139.7110 C   0  0  0  0  0  0  0  0  0  0  0  0
  181.1050  178.7150  140.0990 C   0  0  0  0  0  2  0  0  0  0  0  0
  187.9930  175.9880  135.4900 C   0  0  0  0  0  1  0  0  0  0  0  0
  182.4650  180.2030  138.7830 N   0  0  0  0  0  2  0  0  0  0  0  0
  182.8350  178.8950  142.5730 C   0  0  2  0  0  3  0  0  0  0  0  0
  180.6350  179.2760  141.4490 C   0  0  0  0  0  2  0  0  0  0  0  0
  187.3760  176.6660  136.6620 C   0  0  0  0  0  0  0  0  0  0  0  0
  183.6650  179.0560  140.5410 C   0  0  1  0  0  3  0  0  0  0  0  0
  186.3690  179.5120  141.7190 C   0  0  0  0  0  2  0  0  0  0  0  0
  185.1670  180.3460  144.3060 O   0  0  0  0  0  0  0  0  0  0  0  0
  185.8970  178.6900  142.8340 N   0  0  0  0  0  0  0  0  0  0  0  0
  181.3410  178.6280  142.6490 C   0  0  0  0  0  2  0  0  0  0  0  0
  183.3880  178.1290  141.5470 O   0  0  0  0  0  0  0  0  0  0  0  0
  186.4890  176.9310  144.2980 O   0  0  0  0  0  0  0  0  0  0  0  0
  186.2830  177.2800  142.9450 C   0  0  2  0  0  3  0  0  0  0  0  0
  187.6470  177.1180  143.5250 C   0  0  0  0  0  0  0  0  0  0  0  0
  188.4500  178.2970  144.0480 C   0  0  0  0  0  1  0  0  0  0  0  0
  188.3540  175.8020  143.2800 C   0  0  0  0  0  1  0  0  0  0  0  0
  189.3330  177.2990  140.4810 O   0  0  0  0  0  1  0  0  0  0  0  0
  188.7310  178.5370  140.2600 C   0  0  0  0  0  2  0  0  0  0  0  0
  1  4  1  0  0  0  0
  1 18  1  0  0  0  0
  2 12  1  0  0  0  0
  4 19  1  0  0  0  0
  5  1  2  0  0  0  0
  6  7  1  0  0  0  0
  7 11  1  0  0  0  0
  8 10  1  0  0  0  0
  9  3  1  0  0  0  0
  9 20  2  0  0  0  0
 10  7  2  0  0  0  0
 10  5  1  0  0  0  0
 11 30  1  0  0  0  0
 11  4  2  0  0  0  0
 12 16  1  0  0  0  0
 13 17  1  0  0  0  0
 14  2  2  0  0  0  0
 15 22  1  1  0  0  0
 15  3  1  0  0  0  0
 16 22  1  0  0  0  0
 17  8  1  0  0  0  0
 17  6  2  0  0  0  0
 18  2  1  6  0  0  0
 18 23  1  0  0  0  0
 19 21  1  0  0  0  0
 21  9  1  0  0  0  0
 23 15  1  0  0  0  0
 25 21  1  1  0  0  0
 25 26  1  0  0  0  0
 25 24  1  0  0  0  0
 26 27  1  0  0  0  0
 26 24  1  0  0  0  0
 28 26  1  0  0  0  0
 30 29  1  0  0  0  0
M  END
>  <MODEL>
5

>  <REMARK>
 VINA RESULT:      -5.7      3.645      8.493
  Name = 
  2 active torsions:
  status: ('A' for Active; 'I' for Inactive)
    1  A    between atoms: C_10  and  N_25
    2  A    between atoms: C_13  and  C_30
                            x       y       z     vdW  Elec       q    Type
                         _______ _______ _______ _____ _____    ______ ____

>  <TORSDO>
F 2

$$$$
=
 OpenBabel10262421433D

 30 34  0  0  1  0  0  0  0  0999 V2000
  184.1810  177.9270  139.1580 C   0  0  0  0  0  0  0  0  0  0  0  0
  186.2210  177.7790  137.6190 C   0  0  0  0  0  0  0  0  0  0  0  0
  183.0370  175.1880  136.0740 C   0  0  0  0  0  2  0  0  0  0  0  0
  182.7670  178.1120  139.3030 C   0  0  0  0  0  0  0  0  0  0  0  0
  185.0280  178.0730  140.2770 C   0  0  0  0  0  3  0  0  0  0  0  0
  182.8370  178.9700  142.8990 N   0  0  0  0  0  0  0  0  0  0  0  0
  183.1210  178.6280  141.6320 C   0  0  0  0  0  0  0  0  0  0  0  0
  185.0870  178.6440  142.6540 N   0  0  0  0  0  2  0  0  0  0  0  0
  181.9280  176.1340  136.4050 C   0  0  0  0  0  0  0  0  0  0  0  0
  184.4580  178.4340  141.4900 C   0  0  0  0  0  0  0  0  0  0  0  0
  182.2320  178.4720  140.5670 C   0  0  0  0  0  0  0  0  0  0  0  0
  187.1540  176.7120  137.1020 C   0  0  0  0  0  2  0  0  0  0  0  0
  184.2670  179.3060  144.9170 C   0  0  0  0  0  1  0  0  0  0  0  0
  186.6030  179.0030  137.5940 N   0  0  0  0  0  2  0  0  0  0  0  0
  184.3390  175.9230  136.3270 C   0  0  2  0  0  3  0  0  0  0  0  0
  186.7420  176.2220  135.7070 C   0  0  0  0  0  2  0  0  0  0  0  0
  184.0630  178.9650  143.4830 C   0  0  0  0  0  0  0  0  0  0  0  0
  184.7560  177.4630  137.8440 C   0  0  1  0  0  3  0  0  0  0  0  0
  181.8210  177.9190  138.1380 C   0  0  0  0  0  2  0  0  0  0  0  0
  181.3060  176.7080  135.4730 O   0  0  0  0  0  0  0  0  0  0  0  0
  181.6810  176.5090  137.7670 N   0  0  0  0  0  0  0  0  0  0  0  0
  185.5620  175.2410  135.7370 C   0  0  0  0  0  2  0  0  0  0  0  0
  184.5240  176.0940  137.6990 O   0  0  0  0  0  0  0  0  0  0  0  0
  180.5750  174.4860  138.2880 O   0  0  0  0  0  0  0  0  0  0  0  0
  181.4420  175.4840  138.7860 C   0  0  2  0  0  3  0  0  0  0  0  0
  180.0070  175.4100  139.1810 C   0  0  0  0  0  0  0  0  0  0  0  0
  178.9320  176.2290  138.4850 C   0  0  0  0  0  1  0  0  0  0  0  0
  179.6830  174.7550  140.5060 C   0  0  0  0  0  1  0  0  0  0  0  0
  180.4800  180.0620  140.6070 O   0  0  0  0  0  1  0  0  0  0  0  0
  180.7680  178.7070  140.7700 C   0  0  0  0  0  2  0  0  0  0  0  0
  1  4  2  0  0  0  0
  1  5  1  0  0  0  0
  3 15  1  0  0  0  0
  3  9  1  0  0  0  0
  4 11  1  0  0  0  0
  5 10  2  0  0  0  0
  6 17  2  0  0  0  0
  7  6  1  0  0  0  0
  8 17  1  0  0  0  0
  9 21  1  0  0  0  0
 10  7  1  0  0  0  0
 10  8  1  0  0  0  0
 11 30  1  0  0  0  0
 11  7  2  0  0  0  0
 12  2  1  0  0  0  0
 14  2  2  0  0  0  0
 15 22  1  1  0  0  0
 15 23  1  0  0  0  0
 16 22  1  0  0  0  0
 16 12  1  0  0  0  0
 17 13  1  0  0  0  0
 18  2  1  1  0  0  0
 18  1  1  0  0  0  0
 19  4  1  0  0  0  0
 20  9  2  0  0  0  0
 21 19  1  0  0  0  0
 23 18  1  0  0  0  0
 24 25  1  0  0  0  0
 24 26  1  0  0  0  0
 25 21  1  6  0  0  0
 25 26  1  0  0  0  0
 26 28  1  0  0  0  0
 27 26  1  0  0  0  0
 29 30  1  0  0  0  0
M  END
>  <MODEL>
6

>  <REMARK>
 VINA RESULT:      -5.6      4.404      6.636
  Name = 
  2 active torsions:
  status: ('A' for Active; 'I' for Inactive)
    1  A    between atoms: C_10  and  N_25
    2  A    between atoms: C_13  and  C_30
                            x       y       z     vdW  Elec       q    Type
                         _______ _______ _______ _____ _____    ______ ____

>  <TORSDO>
F 2

$$$$
=
 OpenBabel10262421433D

 30 34  0  0  1  0  0  0  0  0999 V2000
  183.9070  177.8190  140.3190 C   0  0  0  0  0  0  0  0  0  0  0  0
  184.5090  178.3850  142.7420 C   0  0  0  0  0  0  0  0  0  0  0  0
  180.1720  178.7480  142.1930 C   0  0  0  0  0  2  0  0  0  0  0  0
  183.0860  177.0870  139.4000 C   0  0  0  0  0  0  0  0  0  0  0  0
  185.1190  178.3930  139.8780 C   0  0  0  0  0  3  0  0  0  0  0  0
  185.3300  177.4400  136.4830 N   0  0  0  0  0  0  0  0  0  0  0  0
  184.7340  177.4840  137.6850 C   0  0  0  0  0  0  0  0  0  0  0  0
  186.6130  178.6280  137.9570 N   0  0  0  0  0  2  0  0  0  0  0  0
  180.0550  177.5560  141.2990 C   0  0  0  0  0  0  0  0  0  0  0  0
  185.4980  178.1910  138.5580 C   0  0  0  0  0  0  0  0  0  0  0  0
  183.5140  176.9170  138.0570 C   0  0  0  0  0  0  0  0  0  0  0  0
  184.3500  179.5490  143.6890 C   0  0  0  0  0  2  0  0  0  0  0  0
  187.4850  178.3690  135.6330 C   0  0  0  0  0  1  0  0  0  0  0  0
  185.4070  177.5030  142.9880 N   0  0  0  0  0  2  0  0  0  0  0  0
  181.5920  178.7650  142.7280 C   0  0  2  0  0  3  0  0  0  0  0  0
  183.1270  179.3780  144.6020 C   0  0  0  0  0  2  0  0  0  0  0  0
  186.4680  178.1500  136.6960 C   0  0  0  0  0  0  0  0  0  0  0  0
  183.4280  178.0810  141.7240 C   0  0  1  0  0  3  0  0  0  0  0  0
  181.7580  176.4980  139.8230 C   0  0  0  0  0  2  0  0  0  0  0  0
  179.4690  176.5230  141.7190 O   0  0  0  0  0  0  0  0  0  0  0  0
  180.7390  177.5280  140.0390 N   0  0  0  0  0  0  0  0  0  0  0  0
  181.8020  179.7060  143.9010 C   0  0  0  0  0  2  0  0  0  0  0  0
  182.4760  179.1010  141.7030 O   0  0  0  0  0  0  0  0  0  0  0  0
  179.1560  178.9170  138.9670 O   0  0  0  0  0  0  0  0  0  0  0  0
  180.5280  178.5940  139.0570 C   0  0  2  0  0  3  0  0  0  0  0  0
  179.6790  178.1460  137.9170 C   0  0  0  0  0  0  0  0  0  0  0  0
  179.0220  176.7760  137.8860 C   0  0  0  0  0  1  0  0  0  0  0  0
  179.7520  178.9500  136.6370 C   0  0  0  0  0  1  0  0  0  0  0  0
  183.1470  174.8130  137.0410 O   0  0  0  0  0  1  0  0  0  0  0  0
  182.7120  176.1380  137.0630 C   0  0  0  0  0  2  0  0  0  0  0  0
  2 14  2  0  0  0  0
  2 12  1  0  0  0  0
  4 19  1  0  0  0  0
  4  1  2  0  0  0  0
  5  1  1  0  0  0  0
  6 17  2  0  0  0  0
  6  7  1  0  0  0  0
  7 11  2  0  0  0  0
  7 10  1  0  0  0  0
  8 10  1  0  0  0  0
  9 20  2  0  0  0  0
  9  3  1  0  0  0  0
 10  5  2  0  0  0  0
 11  4  1  0  0  0  0
 12 16  1  0  0  0  0
 13 17  1  0  0  0  0
 15  3  1  6  0  0  0
 15 22  1  0  0  0  0
 17  8  1  0  0  0  0
 18  1  1  6  0  0  0
 18  2  1  0  0  0  0
 19 21  1  0  0  0  0
 21  9  1  0  0  0  0
 22 16  1  0  0  0  0
 23 18  1  0  0  0  0
 23 15  1  0  0  0  0
 24 25  1  0  0  0  0
 25 21  1  1  0  0  0
 26 24  1  0  0  0  0
 26 25  1  0  0  0  0
 27 26  1  0  0  0  0
 28 26  1  0  0  0  0
 29 30  1  0  0  0  0
 30 11  1  0  0  0  0
M  END
>  <MODEL>
7

>  <REMARK>
 VINA RESULT:      -5.6      4.911      8.924
  Name = 
  2 active torsions:
  status: ('A' for Active; 'I' for Inactive)
    1  A    between atoms: C_10  and  N_25
    2  A    between atoms: C_13  and  C_30
                            x       y       z     vdW  Elec       q    Type
                         _______ _______ _______ _____ _____    ______ ____

>  <TORSDO>
F 2

$$$$
=
 OpenBabel10262421433D

 30 34  0  0  1  0  0  0  0  0999 V2000
  189.6360  177.1300  139.2110 C   0  0  0  0  0  0  0  0  0  0  0  0
  191.9590  176.3810  138.4430 C   0  0  0  0  0  0  0  0  0  0  0  0
  189.0410  175.5760  135.2680 C   0  0  0  0  0  2  0  0  0  0  0  0
  188.4310  177.8570  138.9390 C   0  0  0  0  0  0  0  0  0  0  0  0
  189.9460  176.7530  140.5360 C   0  0  0  0  0  3  0  0  0  0  0  0
  187.2910  178.0840  142.4490 N   0  0  0  0  0  0  0  0  0  0  0  0
  187.9430  177.8410  141.3000 C   0  0  0  0  0  0  0  0  0  0  0  0
  189.2040  176.9020  142.8610 N   0  0  0  0  0  2  0  0  0  0  0  0
  188.2660  176.8360  135.4820 C   0  0  0  0  0  0  0  0  0  0  0  0
  189.0780  177.1390  141.5480 C   0  0  0  0  0  0  0  0  0  0  0  0
  187.5710  178.2190  140.0090 C   0  0  0  0  0  0  0  0  0  0  0  0
  192.6220  175.1110  137.9680 C   0  0  0  0  0  2  0  0  0  0  0  0
  187.7900  177.5100  144.8260 C   0  0  0  0  0  1  0  0  0  0  0  0
  192.6910  177.3290  138.9000 N   0  0  0  0  0  2  0  0  0  0  0  0
  190.2860  175.6670  136.1310 C   0  0  2  0  0  3  0  0  0  0  0  0
  192.6860  175.0390  136.4360 C   0  0  0  0  0  2  0  0  0  0  0  0
  188.0950  177.4930  143.3700 C   0  0  0  0  0  0  0  0  0  0  0  0
  190.5160  176.6650  138.0800 C   0  0  1  0  0  3  0  0  0  0  0  0
  188.0400  178.2380  137.5280 C   0  0  0  0  0  2  0  0  0  0  0  0
  188.3040  177.7420  134.6090 O   0  0  0  0  0  0  0  0  0  0  0  0
  187.6170  177.0800  136.7380 N   0  0  0  0  0  0  0  0  0  0  0  0
  191.3500  174.6360  135.7960 C   0  0  0  0  0  2  0  0  0  0  0  0
  189.9350  175.5480  137.4760 O   0  0  0  0  0  0  0  0  0  0  0  0
  186.0870  175.3490  136.2370 O   0  0  0  0  0  0  0  0  0  0  0  0
  186.6640  176.1080  137.2800 C   0  0  2  0  0  3  0  0  0  0  0  0
  185.2760  176.3530  136.7930 C   0  0  0  0  0  0  0  0  0  0  0  0
  184.9590  177.4140  135.7530 C   0  0  0  0  0  1  0  0  0  0  0  0
  184.1420  175.7520  137.5940 C   0  0  0  0  0  1  0  0  0  0  0  0
  185.2120  178.1520  139.8450 O   0  0  0  0  0  1  0  0  0  0  0  0
  186.3160  179.0030  139.7860 C   0  0  0  0  0  2  0  0  0  0  0  0
  1  5  1  0  0  0  0
  2 14  2  0  0  0  0
  3  9  1  0  0  0  0
  4  1  2  0  0  0  0
  4 11  1  0  0  0  0
  5 10  2  0  0  0  0
  6 17  2  0  0  0  0
  7 10  1  0  0  0  0
  7  6  1  0  0  0  0
  8 17  1  0  0  0  0
  9 21  1  0  0  0  0
 10  8  1  0  0  0  0
 11  7  2  0  0  0  0
 12  2  1  0  0  0  0
 15  3  1  6  0  0  0
 15 23  1  0  0  0  0
 16 12  1  0  0  0  0
 17 13  1  0  0  0  0
 18 23  1  1  0  0  0
 18  2  1  0  0  0  0
 18  1  1  0  0  0  0
 19  4  1  0  0  0  0
 20  9  2  0  0  0  0
 21 19  1  0  0  0  0
 22 15  1  0  0  0  0
 22 16  1  0  0  0  0
 24 26  1  0  0  0  0
 24 25  1  0  0  0  0
 25 21  1  6  0  0  0
 26 25  1  0  0  0  0
 26 28  1  0  0  0  0
 27 26  1  0  0  0  0
 30 29  1  0  0  0  0
 30 11  1  0  0  0  0
M  END
>  <MODEL>
8

>  <REMARK>
 VINA RESULT:      -5.5      0.956      1.029
  Name = 
  2 active torsions:
  status: ('A' for Active; 'I' for Inactive)
    1  A    between atoms: C_10  and  N_25
    2  A    between atoms: C_13  and  C_30
                            x       y       z     vdW  Elec       q    Type
                         _______ _______ _______ _____ _____    ______ ____

>  <TORSDO>
F 2

$$$$
=
 OpenBabel10262421433D

 30 34  0  0  1  0  0  0  0  0999 V2000
  187.6280  177.7280  139.3000 C   0  0  0  0  0  0  0  0  0  0  0  0
  190.0820  177.1430  138.8660 C   0  0  0  0  0  0  0  0  0  0  0  0
  187.5770  175.3380  135.7500 C   0  0  0  0  0  2  0  0  0  0  0  0
  186.3800  178.2230  138.7990 C   0  0  0  0  0  0  0  0  0  0  0  0
  187.8550  177.6730  140.6920 C   0  0  0  0  0  3  0  0  0  0  0  0
  184.9040  179.0140  142.0950 N   0  0  0  0  0  0  0  0  0  0  0  0
  185.6820  178.6270  141.0710 C   0  0  0  0  0  0  0  0  0  0  0  0
  186.8920  178.1970  142.8770 N   0  0  0  0  0  2  0  0  0  0  0  0
  186.6490  176.5040  135.6380 C   0  0  0  0  0  0  0  0  0  0  0  0
  186.8610  178.1420  141.5380 C   0  0  0  0  0  0  0  0  0  0  0  0
  185.3900  178.6820  139.7070 C   0  0  0  0  0  0  0  0  0  0  0  0
  190.9230  175.8990  138.7190 C   0  0  0  0  0  2  0  0  0  0  0  0
  185.2440  179.0070  144.5680 C   0  0  0  0  0  1  0  0  0  0  0  0
  190.6580  178.2510  139.1560 N   0  0  0  0  0  2  0  0  0  0  0  0
  188.7180  175.7630  136.6540 C   0  0  2  0  0  3  0  0  0  0  0  0
  191.1350  175.5240  137.2460 C   0  0  0  0  0  2  0  0  0  0  0  0
  185.6810  178.7320  143.1730 C   0  0  0  0  0  0  0  0  0  0  0  0
  188.6550  177.1580  138.3550 C   0  0  1  0  0  3  0  0  0  0  0  0
  186.0800  178.2540  137.3160 C   0  0  0  0  0  2  0  0  0  0  0  0
  186.6650  177.2100  134.5950 O   0  0  0  0  0  0  0  0  0  0  0  0
  185.8640  176.9130  136.7660 N   0  0  0  0  0  0  0  0  0  0  0  0
  189.9170  174.8300  136.6200 C   0  0  0  0  0  2  0  0  0  0  0  0
  188.2610  175.8770  137.9670 O   0  0  0  0  0  0  0  0  0  0  0  0
  184.2870  175.1750  136.4900 O   0  0  0  0  0  0  0  0  0  0  0  0
  184.9800  175.9590  137.4400 C   0  0  2  0  0  3  0  0  0  0  0  0
  183.5450  176.1950  137.1100 C   0  0  0  0  0  0  0  0  0  0  0  0
  183.1100  177.2300  136.0860 C   0  0  0  0  0  1  0  0  0  0  0  0
  182.5110  175.6180  138.0510 C   0  0  0  0  0  1  0  0  0  0  0  0
  184.1800  180.6180  139.0860 O   0  0  0  0  0  1  0  0  0  0  0  0
  184.0810  179.2350  139.2390 C   0  0  0  0  0  2  0  0  0  0  0  0
  1  5  1  0  0  0  0
  2 14  2  0  0  0  0
  4  1  2  0  0  0  0
  4 11  1  0  0  0  0
  5 10  2  0  0  0  0
  6 17  2  0  0  0  0
  7 10  1  0  0  0  0
  7  6  1  0  0  0  0
  8 17  1  0  0  0  0
  9  3  1  0  0  0  0
  9 21  1  0  0  0  0
 10  8  1  0  0  0  0
 11  7  2  0  0  0  0
 12  2  1  0  0  0  0
 15  3  1  6  0  0  0
 15 23  1  0  0  0  0
 16 12  1  0  0  0  0
 17 13  1  0  0  0  0
 18 23  1  1  0  0  0
 18  2  1  0  0  0  0
 18  1  1  0  0  0  0
 19  4  1  0  0  0  0
 20  9  2  0  0  0  0
 21 19  1  0  0  0  0
 22 15  1  0  0  0  0
 22 16  1  0  0  0  0
 24 26  1  0  0  0  0
 24 25  1  0  0  0  0
 25 21  1  6  0  0  0
 26 25  1  0  0  0  0
 26 28  1  0  0  0  0
 27 26  1  0  0  0  0
 29 30  1  0  0  0  0
 30 11  1  0  0  0  0
M  END
>  <MODEL>
9

>  <REMARK>
 VINA RESULT:      -5.4      2.174      3.012
  Name = 
  2 active torsions:
  status: ('A' for Active; 'I' for Inactive)
    1  A    between atoms: C_10  and  N_25
    2  A    between atoms: C_13  and  C_30
                            x       y       z     vdW  Elec       q    Type
                         _______ _______ _______ _____ _____    ______ ____

>  <TORSDO>
F 2

$$$$
