=
 OpenBabel10262422323D

 43 47  0  0  1  0  0  0  0  0999 V2000
  190.4340  177.3220  141.3910 C   0  0  0  0  0  2  0  0  0  0  0  0
  188.1030  177.6980  142.1040 C   0  0  0  0  0  2  0  0  0  0  0  0
  187.7430  178.2110  140.7880 N   0  0  0  0  0  0  0  0  0  0  0  0
  188.3490  178.5670  138.5650 O   0  0  0  0  0  0  0  0  0  0  0  0
  189.5500  178.0480  142.4000 C   0  0  1  0  0  3  0  0  0  0  0  0
  190.1280  177.7570  139.9450 C   0  0  2  0  0  3  0  0  0  0  0  0
  188.6910  178.1660  139.7070 C   0  0  0  0  0  0  0  0  0  0  0  0
  193.0000  173.4860  135.9870 C   0  0  0  0  0  0  0  0  0  0  0  0
  190.5640  176.7020  138.9760 C   0  0  0  0  0  0  0  0  0  0  0  0
  191.2950  174.6840  137.2160 C   0  0  0  0  0  0  0  0  0  0  0  0
  193.9830  174.3270  136.5220 C   0  0  0  0  0  3  0  0  0  0  0  0
  193.3470  172.4950  135.1360 F   0  0  0  0  0  0  0  0  0  0  0  0
  192.2890  175.5290  137.7560 C   0  0  0  0  0  0  0  0  0  0  0  0
  191.6560  173.6630  136.3330 C   0  0  0  0  0  3  0  0  0  0  0  0
  193.6280  175.3490  137.4070 C   0  0  0  0  0  3  0  0  0  0  0  0
  191.9150  176.5360  138.6420 C   0  0  0  0  0  3  0  0  0  0  0  0
  189.6120  175.8450  138.4160 C   0  0  0  0  0  3  0  0  0  0  0  0
  189.9920  174.8650  137.5530 N   0  0  0  0  0  0  0  0  0  0  0  0
  191.4980  176.9310  145.4800 C   0  0  0  0  0  3  0  0  0  0  0  0
  189.2330  177.4820  146.1270 C   0  0  0  0  0  3  0  0  0  0  0  0
  190.5180  177.0510  146.4680 C   0  0  0  0  0  0  0  0  0  0  0  0
  191.1970  177.2520  144.1520 C   0  0  0  0  0  3  0  0  0  0  0  0
  189.9120  177.7020  143.8090 C   0  0  0  0  0  0  0  0  0  0  0  0
  190.8160  176.7350  147.7870 O   0  0  0  0  0  1  0  0  0  0  0  0
  188.9320  177.8070  144.8010 C   0  0  0  0  0  3  0  0  0  0  0  0
  186.5880  178.9100  140.6580 O   0  0  0  0  0  0  0  0  0  0  0  0
  186.0560  179.0190  141.9490 C   0  0  0  0  0  2  0  0  0  0  0  0
  184.5280  179.1020  141.9290 C   0  0  1  0  0  3  0  0  0  0  0  0
  183.9180  177.8580  141.2880 C   0  0  0  0  0  2  0  0  0  0  0  0
  182.9320  178.2340  140.1850 C   0  0  0  0  0  3  0  0  0  0  0  0
  182.7710  175.9400  139.1260 C   0  0  0  0  0  2  0  0  0  0  0  0
  184.3960  177.6080  138.2190 C   0  0  0  0  0  2  0  0  0  0  0  0
  183.4310  176.4800  137.8650 C   0  0  0  0  0  2  0  0  0  0  0  0
  183.6480  178.7390  138.9260 C   0  0  0  0  0  2  0  0  0  0  0  0
  182.0140  177.0540  139.8500 C   0  0  0  0  0  2  0  0  0  0  0  0
  183.9390  179.3620  143.3230 C   0  0  1  0  0  3  0  0  0  0  0  0
  182.7550  178.4530  143.6910 C   0  0  0  0  0  2  0  0  0  0  0  0
  181.4550  179.1910  143.7420 C   0  0  0  0  0  3  0  0  0  0  0  0
  180.9740  179.7150  142.6800 N   0  0  0  0  0  0  0  0  0  0  0  0
  179.7330  180.4350  142.7370 C   0  0  0  0  0  1  0  0  0  0  0  0
  185.0220  179.4160  144.3990 C   0  0  0  0  0  2  0  0  0  0  0  0
  185.6820  178.6900  146.6970 C   0  0  0  0  0  1  0  0  0  0  0  0
  184.5720  178.6960  145.6620 C   0  0  0  0  0  2  0  0  0  0  0  0
  1  5  1  0  0  0  0
  2  5  1  0  0  0  0
  3  2  1  0  0  0  0
  4  7  2  0  0  0  0
  5 23  1  1  0  0  0
  6  9  1  6  0  0  0
  6  1  1  0  0  0  0
  7  6  1  0  0  0  0
  7  3  1  0  0  0  0
  8 14  2  0  0  0  0
  8 11  1  0  0  0  0
 10 18  2  0  0  0  0
 10 13  1  0  0  0  0
 11 15  2  0  0  0  0
 12  8  1  0  0  0  0
 13 16  2  0  0  0  0
 14 10  1  0  0  0  0
 15 13  1  0  0  0  0
 16  9  1  0  0  0  0
 17  9  2  0  0  0  0
 18 17  1  0  0  0  0
 19 21  1  0  0  0  0
 20 21  2  0  0  0  0
 21 24  1  0  0  0  0
 22 19  2  0  0  0  0
 23 22  1  0  0  0  0
 23 25  2  0  0  0  0
 25 20  1  0  0  0  0
 26  3  1  0  0  0  0
 26 27  1  0  0  0  0
 28 29  1  1  0  0  0
 28 27  1  0  0  0  0
 28 36  1  0  0  0  0
 30 29  1  0  0  0  0
 31 35  1  0  0  0  0
 32 34  1  0  0  0  0
 33 32  1  0  0  0  0
 33 31  1  0  0  0  0
 34 30  1  0  0  0  0
 35 30  1  0  0  0  0
 36 37  1  1  0  0  0
 36 41  1  0  0  0  0
 37 38  1  0  0  0  0
 39 40  1  0  0  0  0
 39 38  2  0  0  0  0
 41 43  1  0  0  0  0
 43 42  1  0  0  0  0
M  END
>  <MODEL>
1

>  <REMARK>
 VINA RESULT:      -9.1      0.000      0.000
  Name = 
  12 active torsions:
  status: ('A' for Active; 'I' for Inactive)
    1  A    between atoms: O_2  and  C_6
    2  A    between atoms: O_2  and  N_13
    3  A    between atoms: C_3  and  C_4
    4  A    between atoms: C_4  and  C_22
    5  A    between atoms: C_6  and  C_41
    6  A    between atoms: C_8  and  C_34
    7  A    between atoms: C_11  and  C_14
    8  A    between atoms: C_14  and  C_41
    9  A    between atoms: C_15  and  C_22
   10  A    between atoms: C_15  and  C_42
   11  A    between atoms: C_22  and  C_41
   12  A    between atoms: C_28  and  C_35
                            x       y       z     vdW  Elec       q    Type
                         _______ _______ _______ _____ _____    ______ ____

>  <TORSDO>
F 12

$$$$
=
 OpenBabel10262422323D

 43 47  0  0  1  0  0  0  0  0999 V2000
  190.4910  177.2750  141.3150 C   0  0  0  0  0  2  0  0  0  0  0  0
  188.1410  177.6900  141.9380 C   0  0  0  0  0  2  0  0  0  0  0  0
  187.8410  178.2100  140.6100 N   0  0  0  0  0  0  0  0  0  0  0  0
  188.5380  178.5570  138.4120 O   0  0  0  0  0  0  0  0  0  0  0  0
  189.5810  178.0150  142.2900 C   0  0  1  0  0  3  0  0  0  0  0  0
  190.2480  177.7160  139.8590 C   0  0  2  0  0  3  0  0  0  0  0  0
  188.8280  178.1490  139.5660 C   0  0  0  0  0  0  0  0  0  0  0  0
  193.1990  173.4420  135.9630 C   0  0  0  0  0  0  0  0  0  0  0  0
  190.7030  176.6550  138.9070 C   0  0  0  0  0  0  0  0  0  0  0  0
  191.4730  174.6230  137.1780 C   0  0  0  0  0  0  0  0  0  0  0  0
  194.1650  174.3120  136.4800 C   0  0  0  0  0  3  0  0  0  0  0  0
  193.5650  172.4440  135.1280 F   0  0  0  0  0  0  0  0  0  0  0  0
  192.4490  175.4990  137.7000 C   0  0  0  0  0  0  0  0  0  0  0  0
  191.8530  173.5950  136.3120 C   0  0  0  0  0  3  0  0  0  0  0  0
  193.7910  175.3410  137.3490 C   0  0  0  0  0  3  0  0  0  0  0  0
  192.0570  176.5120  138.5700 C   0  0  0  0  0  3  0  0  0  0  0  0
  189.7690  175.7670  138.3650 C   0  0  0  0  0  3  0  0  0  0  0  0
  190.1670  174.7810  137.5180 N   0  0  0  0  0  0  0  0  0  0  0  0
  189.1830  177.2090  145.9940 C   0  0  0  0  0  3  0  0  0  0  0  0
  191.5320  177.1650  145.4180 C   0  0  0  0  0  3  0  0  0  0  0  0
  190.5150  177.0200  146.3660 C   0  0  0  0  0  0  0  0  0  0  0  0
  188.8640  177.5330  144.6700 C   0  0  0  0  0  3  0  0  0  0  0  0
  189.8820  177.6630  143.7120 C   0  0  0  0  0  0  0  0  0  0  0  0
  190.8330  176.6950  147.6790 O   0  0  0  0  0  1  0  0  0  0  0  0
  191.2140  177.4850  144.0940 C   0  0  0  0  0  3  0  0  0  0  0  0
  186.7030  178.9280  140.4350 O   0  0  0  0  0  0  0  0  0  0  0  0
  186.0410  178.9060  141.6690 C   0  0  0  0  0  2  0  0  0  0  0  0
  184.5230  179.0060  141.5020 C   0  0  1  0  0  3  0  0  0  0  0  0
  184.0220  178.0340  140.4380 C   0  0  0  0  0  2  0  0  0  0  0  0
  184.0800  178.6610  139.0480 C   0  0  0  0  0  3  0  0  0  0  0  0
  181.7560  179.6660  139.0690 C   0  0  0  0  0  2  0  0  0  0  0  0
  182.1190  177.4120  138.0500 C   0  0  0  0  0  2  0  0  0  0  0  0
  181.3420  178.7220  137.9480 C   0  0  0  0  0  2  0  0  0  0  0  0
  183.6210  177.6820  137.9600 C   0  0  0  0  0  2  0  0  0  0  0  0
  183.2560  179.9520  138.9970 C   0  0  0  0  0  2  0  0  0  0  0  0
  183.7750  178.8190  142.8310 C   0  0  1  0  0  3  0  0  0  0  0  0
  184.3280  179.6580  143.9930 C   0  0  0  0  0  2  0  0  0  0  0  0
  185.0100  178.8260  145.0330 C   0  0  0  0  0  3  0  0  0  0  0  0
  185.2620  179.3210  146.1850 N   0  0  0  0  0  0  0  0  0  0  0  0
  185.9310  178.5230  147.1740 C   0  0  0  0  0  1  0  0  0  0  0  0
  182.2630  178.9420  142.6550 C   0  0  0  0  0  2  0  0  0  0  0  0
  180.0820  178.3290  143.7110 C   0  0  0  0  0  1  0  0  0  0  0  0
  181.5390  178.6730  143.9670 C   0  0  0  0  0  2  0  0  0  0  0  0
  1  5  1  0  0  0  0
  2  5  1  0  0  0  0
  3  2  1  0  0  0  0
  4  7  2  0  0  0  0
  5 23  1  1  0  0  0
  6  9  1  6  0  0  0
  6  1  1  0  0  0  0
  7  6  1  0  0  0  0
  7  3  1  0  0  0  0
  8 14  2  0  0  0  0
  8 11  1  0  0  0  0
 10 18  2  0  0  0  0
 10 13  1  0  0  0  0
 11 15  2  0  0  0  0
 12  8  1  0  0  0  0
 13 16  2  0  0  0  0
 14 10  1  0  0  0  0
 15 13  1  0  0  0  0
 16  9  1  0  0  0  0
 17  9  2  0  0  0  0
 18 17  1  0  0  0  0
 19 21  1  0  0  0  0
 20 21  2  0  0  0  0
 21 24  1  0  0  0  0
 22 19  2  0  0  0  0
 23 25  2  0  0  0  0
 23 22  1  0  0  0  0
 25 20  1  0  0  0  0
 26  3  1  0  0  0  0
 26 27  1  0  0  0  0
 28 29  1  6  0  0  0
 28 27  1  0  0  0  0
 28 36  1  0  0  0  0
 30 29  1  0  0  0  0
 33 32  1  0  0  0  0
 33 31  1  0  0  0  0
 34 32  1  0  0  0  0
 34 30  1  0  0  0  0
 35 30  1  0  0  0  0
 35 31  1  0  0  0  0
 36 41  1  6  0  0  0
 36 37  1  0  0  0  0
 37 38  1  0  0  0  0
 38 39  2  0  0  0  0
 39 40  1  0  0  0  0
 41 43  1  0  0  0  0
 42 43  1  0  0  0  0
M  END
>  <MODEL>
2

>  <REMARK>
 VINA RESULT:      -8.9      1.136      2.387
  Name = 
  12 active torsions:
  status: ('A' for Active; 'I' for Inactive)
    1  A    between atoms: O_2  and  C_6
    2  A    between atoms: O_2  and  N_13
    3  A    between atoms: C_3  and  C_4
    4  A    between atoms: C_4  and  C_22
    5  A    between atoms: C_6  and  C_41
    6  A    between atoms: C_8  and  C_34
    7  A    between atoms: C_11  and  C_14
    8  A    between atoms: C_14  and  C_41
    9  A    between atoms: C_15  and  C_22
   10  A    between atoms: C_15  and  C_42
   11  A    between atoms: C_22  and  C_41
   12  A    between atoms: C_28  and  C_35
                            x       y       z     vdW  Elec       q    Type
                         _______ _______ _______ _____ _____    ______ ____

>  <TORSDO>
F 12

$$$$
=
 OpenBabel10262422323D

 43 47  0  0  1  0  0  0  0  0999 V2000
  184.2500  178.2580  141.1500 C   0  0  0  0  0  2  0  0  0  0  0  0
  186.6070  178.9840  141.1500 C   0  0  0  0  0  2  0  0  0  0  0  0
  186.7410  178.6800  139.7310 N   0  0  0  0  0  0  0  0  0  0  0  0
  185.7150  178.0720  137.7280 O   0  0  0  0  0  0  0  0  0  0  0  0
  185.6180  178.0190  141.7790 C   0  0  1  0  0  3  0  0  0  0  0  0
  184.2660  177.9980  139.6310 C   0  0  2  0  0  3  0  0  0  0  0  0
  185.5920  178.2830  138.9620 C   0  0  0  0  0  0  0  0  0  0  0  0
  179.9400  182.0640  137.0000 C   0  0  0  0  0  0  0  0  0  0  0  0
  183.1470  178.7340  138.9610 C   0  0  0  0  0  0  0  0  0  0  0  0
  181.0710  180.0250  137.6450 C   0  0  0  0  0  0  0  0  0  0  0  0
  180.8960  182.8180  137.6900 C   0  0  0  0  0  3  0  0  0  0  0  0
  178.9310  182.6840  136.3480 F   0  0  0  0  0  0  0  0  0  0  0  0
  182.0360  180.7880  138.3390 C   0  0  0  0  0  0  0  0  0  0  0  0
  180.0270  180.6680  136.9760 C   0  0  0  0  0  3  0  0  0  0  0  0
  181.9440  182.1810  138.3600 C   0  0  0  0  0  3  0  0  0  0  0  0
  183.0760  180.1340  138.9920 C   0  0  0  0  0  3  0  0  0  0  0  0
  182.1700  178.0170  138.2640 C   0  0  0  0  0  3  0  0  0  0  0  0
  181.1590  178.6700  137.6300 N   0  0  0  0  0  0  0  0  0  0  0  0
  186.5330  177.8140  145.4730 C   0  0  0  0  0  3  0  0  0  0  0  0
  184.4270  178.9820  145.2370 C   0  0  0  0  0  3  0  0  0  0  0  0
  185.4490  178.4810  146.0490 C   0  0  0  0  0  0  0  0  0  0  0  0
  186.6010  177.6560  144.0840 C   0  0  0  0  0  3  0  0  0  0  0  0
  185.5840  178.1740  143.2660 C   0  0  0  0  0  0  0  0  0  0  0  0
  185.3820  178.6410  147.4270 O   0  0  0  0  0  1  0  0  0  0  0  0
  184.4960  178.8290  143.8500 C   0  0  0  0  0  3  0  0  0  0  0  0
  187.9870  178.5790  139.2030 O   0  0  0  0  0  0  0  0  0  0  0  0
  188.6360  177.5770  139.9360 C   0  0  0  0  0  2  0  0  0  0  0  0
  190.1580  177.7180  139.8670 C   0  0  1  0  0  3  0  0  0  0  0  0
  190.8160  177.2090  141.1460 C   0  0  0  0  0  2  0  0  0  0  0  0
  189.8230  177.1870  142.3060 C   0  0  0  0  0  3  0  0  0  0  0  0
  191.3580  178.2090  144.0410 C   0  0  0  0  0  2  0  0  0  0  0  0
  191.1790  175.7230  143.8610 C   0  0  0  0  0  2  0  0  0  0  0  0
  191.3450  176.9000  144.8180 C   0  0  0  0  0  2  0  0  0  0  0  0
  189.8740  175.8610  143.0760 C   0  0  0  0  0  2  0  0  0  0  0  0
  190.0600  178.3710  143.2490 C   0  0  0  0  0  2  0  0  0  0  0  0
  190.7510  177.0400  138.6230 C   0  0  1  0  0  3  0  0  0  0  0  0
  192.2670  176.8010  138.6930 C   0  0  0  0  0  2  0  0  0  0  0  0
  192.8080  176.1580  137.4550 C   0  0  0  0  0  3  0  0  0  0  0  0
  193.9200  176.5530  136.9620 N   0  0  0  0  0  0  0  0  0  0  0  0
  194.4280  175.9430  135.7650 C   0  0  0  0  0  1  0  0  0  0  0  0
  189.9570  175.8000  138.2150 C   0  0  0  0  0  2  0  0  0  0  0  0
  189.8060  176.6310  135.8640 C   0  0  0  0  0  1  0  0  0  0  0  0
  189.0220  176.1090  137.0550 C   0  0  0  0  0  2  0  0  0  0  0  0
  1  5  1  0  0  0  0
  2  5  1  0  0  0  0
  3  2  1  0  0  0  0
  4  7  2  0  0  0  0
  5 23  1  1  0  0  0
  6  9  1  6  0  0  0
  6  1  1  0  0  0  0
  7  6  1  0  0  0  0
  7  3  1  0  0  0  0
  8 11  1  0  0  0  0
  9 16  1  0  0  0  0
 10 13  1  0  0  0  0
 11 15  2  0  0  0  0
 12  8  1  0  0  0  0
 13 15  1  0  0  0  0
 13 16  2  0  0  0  0
 14  8  2  0  0  0  0
 14 10  1  0  0  0  0
 17  9  2  0  0  0  0
 18 10  2  0  0  0  0
 18 17  1  0  0  0  0
 19 21  1  0  0  0  0
 20 21  2  0  0  0  0
 21 24  1  0  0  0  0
 22 19  2  0  0  0  0
 23 25  2  0  0  0  0
 23 22  1  0  0  0  0
 25 20  1  0  0  0  0
 26  3  1  0  0  0  0
 26 27  1  0  0  0  0
 28 27  1  1  0  0  0
 28 29  1  0  0  0  0
 29 30  1  0  0  0  0
 30 34  1  0  0  0  0
 30 35  1  0  0  0  0
 31 33  1  0  0  0  0
 32 33  1  0  0  0  0
 34 32  1  0  0  0  0
 35 31  1  0  0  0  0
 36 41  1  1  0  0  0
 36 37  1  0  0  0  0
 36 28  1  0  0  0  0
 38 37  1  0  0  0  0
 39 38  2  0  0  0  0
 40 39  1  0  0  0  0
 42 43  1  0  0  0  0
 43 41  1  0  0  0  0
M  END
>  <MODEL>
3

>  <REMARK>
 VINA RESULT:      -8.7      3.605      9.406
  Name = 
  12 active torsions:
  status: ('A' for Active; 'I' for Inactive)
    1  A    between atoms: O_2  and  C_6
    2  A    between atoms: O_2  and  N_13
    3  A    between atoms: C_3  and  C_4
    4  A    between atoms: C_4  and  C_22
    5  A    between atoms: C_6  and  C_41
    6  A    between atoms: C_8  and  C_34
    7  A    between atoms: C_11  and  C_14
    8  A    between atoms: C_14  and  C_41
    9  A    between atoms: C_15  and  C_22
   10  A    between atoms: C_15  and  C_42
   11  A    between atoms: C_22  and  C_41
   12  A    between atoms: C_28  and  C_35
                            x       y       z     vdW  Elec       q    Type
                         _______ _______ _______ _____ _____    ______ ____

>  <TORSDO>
F 12

$$$$
=
 OpenBabel10262422323D

 43 47  0  0  1  0  0  0  0  0999 V2000
  191.0650  177.0880  141.0290 C   0  0  0  0  0  2  0  0  0  0  0  0
  188.7110  177.5480  141.6060 C   0  0  0  0  0  2  0  0  0  0  0  0
  188.4380  178.0420  140.2630 N   0  0  0  0  0  0  0  0  0  0  0  0
  189.1720  178.3300  138.0690 O   0  0  0  0  0  0  0  0  0  0  0  0
  190.1510  177.8620  141.9730 C   0  0  1  0  0  3  0  0  0  0  0  0
  190.8500  177.5000  139.5600 C   0  0  2  0  0  3  0  0  0  0  0  0
  189.4400  177.9450  139.2360 C   0  0  0  0  0  0  0  0  0  0  0  0
  193.7770  173.2260  135.6450 C   0  0  0  0  0  0  0  0  0  0  0  0
  191.3050  176.4110  138.6380 C   0  0  0  0  0  0  0  0  0  0  0  0
  192.0860  174.3260  136.9800 C   0  0  0  0  0  0  0  0  0  0  0  0
  194.6940  174.2330  135.9680 C   0  0  0  0  0  3  0  0  0  0  0  0
  194.1500  172.2020  134.8460 F   0  0  0  0  0  0  0  0  0  0  0  0
  193.0130  175.3400  137.3070 C   0  0  0  0  0  0  0  0  0  0  0  0
  192.4730  173.2710  136.1510 C   0  0  0  0  0  3  0  0  0  0  0  0
  194.3120  175.2910  136.7990 C   0  0  0  0  0  3  0  0  0  0  0  0
  192.6150  176.3790  138.1420 C   0  0  0  0  0  3  0  0  0  0  0  0
  190.4180  175.3890  138.2880 C   0  0  0  0  0  3  0  0  0  0  0  0
  190.8210  174.3790  137.4720 N   0  0  0  0  0  0  0  0  0  0  0  0
  190.0550  177.8790  145.7830 C   0  0  0  0  0  3  0  0  0  0  0  0
  191.6700  176.2410  145.0350 C   0  0  0  0  0  3  0  0  0  0  0  0
  191.0010  176.8950  146.0740 C   0  0  0  0  0  0  0  0  0  0  0  0
  189.7680  178.2040  144.4530 C   0  0  0  0  0  3  0  0  0  0  0  0
  190.4250  177.5370  143.4070 C   0  0  0  0  0  0  0  0  0  0  0  0
  191.2850  176.5690  147.3940 O   0  0  0  0  0  1  0  0  0  0  0  0
  191.3810  176.5620  143.7060 C   0  0  0  0  0  3  0  0  0  0  0  0
  187.3130  178.7710  140.0550 O   0  0  0  0  0  0  0  0  0  0  0  0
  186.7290  178.9450  141.3170 C   0  0  0  0  0  2  0  0  0  0  0  0
  185.4020  178.1940  141.4370 C   0  0  1  0  0  3  0  0  0  0  0  0
  185.0790  177.8780  142.8950 C   0  0  0  0  0  2  0  0  0  0  0  0
  185.5690  178.9880  143.8210 C   0  0  0  0  0  3  0  0  0  0  0  0
  186.0120  177.5270  145.8410 C   0  0  0  0  0  2  0  0  0  0  0  0
  183.8160  178.7010  145.6220 C   0  0  0  0  0  2  0  0  0  0  0  0
  184.8970  178.2390  146.5950 C   0  0  0  0  0  2  0  0  0  0  0  0
  184.4130  179.6490  144.5820 C   0  0  0  0  0  2  0  0  0  0  0  0
  186.6260  178.4580  144.7950 C   0  0  0  0  0  2  0  0  0  0  0  0
  184.2450  178.9380  140.7540 C   0  0  1  0  0  3  0  0  0  0  0  0
  184.3860  179.0660  139.2290 C   0  0  0  0  0  2  0  0  0  0  0  0
  184.2280  177.7570  138.5230 C   0  0  0  0  0  3  0  0  0  0  0  0
  185.1300  177.3550  137.7110 N   0  0  0  0  0  0  0  0  0  0  0  0
  184.9660  176.1050  137.0240 C   0  0  0  0  0  1  0  0  0  0  0  0
  182.8830  178.4050  141.1980 C   0  0  0  0  0  2  0  0  0  0  0  0
  180.4370  178.5090  140.6990 C   0  0  0  0  0  1  0  0  0  0  0  0
  181.7560  179.2590  140.6360 C   0  0  0  0  0  2  0  0  0  0  0  0
  1  5  1  0  0  0  0
  2  5  1  0  0  0  0
  3  2  1  0  0  0  0
  4  7  2  0  0  0  0
  5 23  1  1  0  0  0
  6  9  1  6  0  0  0
  6  1  1  0  0  0  0
  7  6  1  0  0  0  0
  7  3  1  0  0  0  0
  8 11  2  0  0  0  0
  8 14  1  0  0  0  0
 10 13  1  0  0  0  0
 10 18  1  0  0  0  0
 11 15  1  0  0  0  0
 12  8  1  0  0  0  0
 13 16  1  0  0  0  0
 14 10  2  0  0  0  0
 15 13  2  0  0  0  0
 16  9  2  0  0  0  0
 17  9  1  0  0  0  0
 18 17  2  0  0  0  0
 19 21  1  0  0  0  0
 20 21  2  0  0  0  0
 21 24  1  0  0  0  0
 22 19  2  0  0  0  0
 23 25  2  0  0  0  0
 23 22  1  0  0  0  0
 25 20  1  0  0  0  0
 26  3  1  0  0  0  0
 26 27  1  0  0  0  0
 28 27  1  1  0  0  0
 28 29  1  0  0  0  0
 29 30  1  0  0  0  0
 30 34  1  0  0  0  0
 30 35  1  0  0  0  0
 31 33  1  0  0  0  0
 32 33  1  0  0  0  0
 34 32  1  0  0  0  0
 35 31  1  0  0  0  0
 36 37  1  6  0  0  0
 36 41  1  0  0  0  0
 36 28  1  0  0  0  0
 38 37  1  0  0  0  0
 39 38  2  0  0  0  0
 40 39  1  0  0  0  0
 43 42  1  0  0  0  0
 43 41  1  0  0  0  0
M  END
>  <MODEL>
4

>  <REMARK>
 VINA RESULT:      -8.3      1.603      3.889
  Name = 
  12 active torsions:
  status: ('A' for Active; 'I' for Inactive)
    1  A    between atoms: O_2  and  C_6
    2  A    between atoms: O_2  and  N_13
    3  A    between atoms: C_3  and  C_4
    4  A    between atoms: C_4  and  C_22
    5  A    between atoms: C_6  and  C_41
    6  A    between atoms: C_8  and  C_34
    7  A    between atoms: C_11  and  C_14
    8  A    between atoms: C_14  and  C_41
    9  A    between atoms: C_15  and  C_22
   10  A    between atoms: C_15  and  C_42
   11  A    between atoms: C_22  and  C_41
   12  A    between atoms: C_28  and  C_35
                            x       y       z     vdW  Elec       q    Type
                         _______ _______ _______ _____ _____    ______ ____

>  <TORSDO>
F 12

$$$$
=
 OpenBabel10262422323D

 43 47  0  0  1  0  0  0  0  0999 V2000
  182.4270  179.2100  140.9180 C   0  0  0  0  0  2  0  0  0  0  0  0
  184.7660  178.6290  140.3940 C   0  0  0  0  0  2  0  0  0  0  0  0
  184.4130  178.2820  139.0230 N   0  0  0  0  0  0  0  0  0  0  0  0
  182.8060  178.2620  137.3340 O   0  0  0  0  0  0  0  0  0  0  0  0
  183.5960  178.3120  141.3080 C   0  0  1  0  0  3  0  0  0  0  0  0
  181.9740  178.9610  139.4660 C   0  0  2  0  0  3  0  0  0  0  0  0
  183.0810  178.5200  138.5340 C   0  0  0  0  0  0  0  0  0  0  0  0
  179.8070  184.5440  136.9570 C   0  0  0  0  0  0  0  0  0  0  0  0
  181.2520  180.1580  138.9290 C   0  0  0  0  0  0  0  0  0  0  0  0
  179.8430  182.3130  137.8900 C   0  0  0  0  0  0  0  0  0  0  0  0
  181.2000  184.6200  137.0740 C   0  0  0  0  0  3  0  0  0  0  0  0
  179.1130  185.5840  136.4440 F   0  0  0  0  0  0  0  0  0  0  0  0
  181.2480  182.3910  138.0050 C   0  0  0  0  0  0  0  0  0  0  0  0
  179.1270  183.3910  137.3640 C   0  0  0  0  0  3  0  0  0  0  0  0
  181.9210  183.5440  137.5980 C   0  0  0  0  0  3  0  0  0  0  0  0
  181.9480  181.3050  138.5230 C   0  0  0  0  0  3  0  0  0  0  0  0
  179.8610  180.1230  138.8000 C   0  0  0  0  0  3  0  0  0  0  0  0
  179.1900  181.1910  138.2920 N   0  0  0  0  0  0  0  0  0  0  0  0
  183.4240  179.0210  145.0490 C   0  0  0  0  0  3  0  0  0  0  0  0
  185.6920  178.4260  144.4550 C   0  0  0  0  0  3  0  0  0  0  0  0
  184.7510  178.7950  145.4200 C   0  0  0  0  0  0  0  0  0  0  0  0
  183.0330  178.8670  143.7140 C   0  0  0  0  0  3  0  0  0  0  0  0
  183.9730  178.4800  142.7450 C   0  0  0  0  0  0  0  0  0  0  0  0
  185.1390  178.9450  146.7450 O   0  0  0  0  0  1  0  0  0  0  0  0
  185.3030  178.2680  143.1210 C   0  0  0  0  0  3  0  0  0  0  0  0
  185.2910  177.5530  138.2900 O   0  0  0  0  0  0  0  0  0  0  0  0
  186.0910  178.4820  137.6130 C   0  0  0  0  0  2  0  0  0  0  0  0
  187.5710  178.0950  137.6530 C   0  0  1  0  0  3  0  0  0  0  0  0
  187.9350  177.4550  138.9890 C   0  0  0  0  0  2  0  0  0  0  0  0
  188.8490  178.3640  139.8060 C   0  0  0  0  0  3  0  0  0  0  0  0
  190.5330  176.5920  140.4660 C   0  0  0  0  0  2  0  0  0  0  0  0
  188.6420  177.1350  142.0070 C   0  0  0  0  0  2  0  0  0  0  0  0
  190.1140  176.7420  141.9220 C   0  0  0  0  0  2  0  0  0  0  0  0
  188.4040  178.4540  141.2710 C   0  0  0  0  0  2  0  0  0  0  0  0
  190.3060  177.9020  139.7090 C   0  0  0  0  0  2  0  0  0  0  0  0
  187.9730  177.1980  136.4720 C   0  0  1  0  0  3  0  0  0  0  0  0
  186.9920  177.2290  135.2900 C   0  0  0  0  0  2  0  0  0  0  0  0
  186.3850  175.8920  135.0080 C   0  0  0  0  0  3  0  0  0  0  0  0
  186.0190  175.1380  135.9740 N   0  0  0  0  0  0  0  0  0  0  0  0
  185.4510  173.8480  135.6980 C   0  0  0  0  0  1  0  0  0  0  0  0
  189.4280  177.4140  136.0620 C   0  0  0  0  0  2  0  0  0  0  0  0
  189.5190  175.0220  136.7760 C   0  0  0  0  0  1  0  0  0  0  0  0
  190.3160  176.3020  136.6000 C   0  0  0  0  0  2  0  0  0  0  0  0
  1  5  1  0  0  0  0
  2  5  1  0  0  0  0
  3  2  1  0  0  0  0
  4  7  2  0  0  0  0
  5 23  1  1  0  0  0
  6  9  1  6  0  0  0
  6  1  1  0  0  0  0
  7  3  1  0  0  0  0
  7  6  1  0  0  0  0
  8 11  2  0  0  0  0
  8 14  1  0  0  0  0
 10 13  1  0  0  0  0
 10 18  1  0  0  0  0
 11 15  1  0  0  0  0
 12  8  1  0  0  0  0
 13 16  1  0  0  0  0
 14 10  2  0  0  0  0
 15 13  2  0  0  0  0
 16  9  2  0  0  0  0
 17  9  1  0  0  0  0
 18 17  2  0  0  0  0
 19 21  1  0  0  0  0
 20 21  2  0  0  0  0
 21 24  1  0  0  0  0
 22 19  2  0  0  0  0
 23 25  2  0  0  0  0
 23 22  1  0  0  0  0
 25 20  1  0  0  0  0
 26  3  1  0  0  0  0
 27 26  1  0  0  0  0
 28 27  1  1  0  0  0
 28 29  1  0  0  0  0
 29 30  1  0  0  0  0
 30 34  1  0  0  0  0
 31 33  1  0  0  0  0
 33 32  1  0  0  0  0
 34 32  1  0  0  0  0
 35 30  1  0  0  0  0
 35 31  1  0  0  0  0
 36 37  1  6  0  0  0
 36 28  1  0  0  0  0
 38 37  1  0  0  0  0
 38 39  2  0  0  0  0
 40 39  1  0  0  0  0
 41 36  1  0  0  0  0
 41 43  1  0  0  0  0
 43 42  1  0  0  0  0
M  END
>  <MODEL>
5

>  <REMARK>
 VINA RESULT:      -8.1      4.437      9.640
  Name = 
  12 active torsions:
  status: ('A' for Active; 'I' for Inactive)
    1  A    between atoms: O_2  and  C_6
    2  A    between atoms: O_2  and  N_13
    3  A    between atoms: C_3  and  C_4
    4  A    between atoms: C_4  and  C_22
    5  A    between atoms: C_6  and  C_41
    6  A    between atoms: C_8  and  C_34
    7  A    between atoms: C_11  and  C_14
    8  A    between atoms: C_14  and  C_41
    9  A    between atoms: C_15  and  C_22
   10  A    between atoms: C_15  and  C_42
   11  A    between atoms: C_22  and  C_41
   12  A    between atoms: C_28  and  C_35
                            x       y       z     vdW  Elec       q    Type
                         _______ _______ _______ _____ _____    ______ ____

>  <TORSDO>
F 12

$$$$
=
 OpenBabel10262422323D

 43 47  0  0  1  0  0  0  0  0999 V2000
  183.5010  178.2380  142.0790 C   0  0  0  0  0  2  0  0  0  0  0  0
  184.6670  177.4530  140.0520 C   0  0  0  0  0  2  0  0  0  0  0  0
  185.7740  178.3720  140.2870 N   0  0  0  0  0  0  0  0  0  0  0  0
  186.8160  179.8990  141.7070 O   0  0  0  0  0  0  0  0  0  0  0  0
  183.3820  178.0750  140.5670 C   0  0  1  0  0  3  0  0  0  0  0  0
  184.6660  179.1700  142.4630 C   0  0  2  0  0  3  0  0  0  0  0  0
  185.8290  179.1480  141.4960 C   0  0  0  0  0  0  0  0  0  0  0  0
  187.5420  177.7340  148.1050 C   0  0  0  0  0  0  0  0  0  0  0  0
  185.1150  178.8970  143.8650 C   0  0  0  0  0  0  0  0  0  0  0  0
  185.8950  178.4750  146.4970 C   0  0  0  0  0  0  0  0  0  0  0  0
  188.4180  177.4040  147.0630 C   0  0  0  0  0  3  0  0  0  0  0  0
  187.9160  177.5410  149.3890 F   0  0  0  0  0  0  0  0  0  0  0  0
  186.7790  178.1430  145.4470 C   0  0  0  0  0  0  0  0  0  0  0  0
  186.2810  178.2710  147.8230 C   0  0  0  0  0  3  0  0  0  0  0  0
  188.0360  177.6080  145.7340 C   0  0  0  0  0  3  0  0  0  0  0  0
  186.3830  178.3620  144.1310 C   0  0  0  0  0  3  0  0  0  0  0  0
  184.2700  179.2090  144.9340 C   0  0  0  0  0  3  0  0  0  0  0  0
  184.6700  178.9910  146.2150 N   0  0  0  0  0  0  0  0  0  0  0  0
  179.8040  176.8150  140.2000 C   0  0  0  0  0  3  0  0  0  0  0  0
  181.3070  175.2790  139.0890 C   0  0  0  0  0  3  0  0  0  0  0  0
  180.0100  175.6520  139.4560 C   0  0  0  0  0  0  0  0  0  0  0  0
  180.8920  177.6140  140.5690 C   0  0  0  0  0  3  0  0  0  0  0  0
  182.1930  177.2510  140.1860 C   0  0  0  0  0  0  0  0  0  0  0  0
  178.9310  174.8600  139.0870 O   0  0  0  0  0  1  0  0  0  0  0  0
  182.3940  176.0790  139.4530 C   0  0  0  0  0  3  0  0  0  0  0  0
  186.6310  178.6300  139.2680 O   0  0  0  0  0  0  0  0  0  0  0  0
  187.5380  177.5620  139.2480 C   0  0  0  0  0  2  0  0  0  0  0  0
  188.9880  178.0490  139.2310 C   0  0  1  0  0  3  0  0  0  0  0  0
  189.7910  177.4220  140.3670 C   0  0  0  0  0  2  0  0  0  0  0  0
  189.1070  177.6420  141.7130 C   0  0  0  0  0  3  0  0  0  0  0  0
  191.2160  177.9050  143.0890 C   0  0  0  0  0  2  0  0  0  0  0  0
  190.1230  175.6640  142.9180 C   0  0  0  0  0  2  0  0  0  0  0  0
  190.8860  176.6180  143.8330 C   0  0  0  0  0  2  0  0  0  0  0  0
  188.8280  176.3180  142.4360 C   0  0  0  0  0  2  0  0  0  0  0  0
  189.9340  178.5790  142.5990 C   0  0  0  0  0  2  0  0  0  0  0  0
  189.6660  177.8190  137.8720 C   0  0  1  0  0  3  0  0  0  0  0  0
  190.9880  177.0390  137.9450 C   0  0  0  0  0  2  0  0  0  0  0  0
  190.9750  175.8010  137.1050 C   0  0  0  0  0  3  0  0  0  0  0  0
  190.6590  174.6770  137.6260 N   0  0  0  0  0  0  0  0  0  0  0  0
  190.6630  173.4890  136.8190 C   0  0  0  0  0  1  0  0  0  0  0  0
  188.6900  177.2680  136.8340 C   0  0  0  0  0  2  0  0  0  0  0  0
  186.7890  177.9000  135.3410 C   0  0  0  0  0  1  0  0  0  0  0  0
  188.0400  178.3950  136.0450 C   0  0  0  0  0  2  0  0  0  0  0  0
  1  6  1  0  0  0  0
  2  3  1  0  0  0  0
  2  5  1  0  0  0  0
  3  7  1  0  0  0  0
  5 23  1  1  0  0  0
  5  1  1  0  0  0  0
  6  9  1  1  0  0  0
  7  4  2  0  0  0  0
  7  6  1  0  0  0  0
  8 12  1  0  0  0  0
  9 16  2  0  0  0  0
  9 17  1  0  0  0  0
 10 14  2  0  0  0  0
 11  8  2  0  0  0  0
 13 15  2  0  0  0  0
 13 10  1  0  0  0  0
 14  8  1  0  0  0  0
 15 11  1  0  0  0  0
 16 13  1  0  0  0  0
 17 18  2  0  0  0  0
 18 10  1  0  0  0  0
 19 22  1  0  0  0  0
 20 25  2  0  0  0  0
 20 21  1  0  0  0  0
 21 19  2  0  0  0  0
 23 22  2  0  0  0  0
 24 21  1  0  0  0  0
 25 23  1  0  0  0  0
 26  3  1  0  0  0  0
 27 26  1  0  0  0  0
 28 27  1  6  0  0  0
 28 29  1  0  0  0  0
 29 30  1  0  0  0  0
 30 34  1  0  0  0  0
 30 35  1  0  0  0  0
 31 33  1  0  0  0  0
 32 33  1  0  0  0  0
 34 32  1  0  0  0  0
 35 31  1  0  0  0  0
 36 41  1  6  0  0  0
 36 37  1  0  0  0  0
 36 28  1  0  0  0  0
 38 39  2  0  0  0  0
 38 37  1  0  0  0  0
 40 39  1  0  0  0  0
 42 43  1  0  0  0  0
 43 41  1  0  0  0  0
M  END
>  <MODEL>
6

>  <REMARK>
 VINA RESULT:      -7.9      3.288      9.642
  Name = 
  12 active torsions:
  status: ('A' for Active; 'I' for Inactive)
    1  A    between atoms: O_2  and  C_6
    2  A    between atoms: O_2  and  N_13
    3  A    between atoms: C_3  and  C_4
    4  A    between atoms: C_4  and  C_22
    5  A    between atoms: C_6  and  C_41
    6  A    between atoms: C_8  and  C_34
    7  A    between atoms: C_11  and  C_14
    8  A    between atoms: C_14  and  C_41
    9  A    between atoms: C_15  and  C_22
   10  A    between atoms: C_15  and  C_42
   11  A    between atoms: C_22  and  C_41
   12  A    between atoms: C_28  and  C_35
                            x       y       z     vdW  Elec       q    Type
                         _______ _______ _______ _____ _____    ______ ____

>  <TORSDO>
F 12

$$$$
=
 OpenBabel10262422323D

 43 47  0  0  1  0  0  0  0  0999 V2000
  190.3280  176.2650  140.4210 C   0  0  0  0  0  2  0  0  0  0  0  0
  190.3750  177.9620  138.6310 C   0  0  0  0  0  2  0  0  0  0  0  0
  189.1240  178.5450  139.0990 N   0  0  0  0  0  0  0  0  0  0  0  0
  187.4660  178.6300  140.7350 O   0  0  0  0  0  0  0  0  0  0  0  0
  190.3670  176.4700  138.9100 C   0  0  1  0  0  3  0  0  0  0  0  0
  189.0570  176.8710  141.0470 C   0  0  2  0  0  3  0  0  0  0  0  0
  188.5190  178.0830  140.3190 C   0  0  0  0  0  0  0  0  0  0  0  0
  188.9660  177.9220  147.4540 C   0  0  0  0  0  0  0  0  0  0  0  0
  189.2740  177.1580  142.5000 C   0  0  0  0  0  0  0  0  0  0  0  0
  189.7690  177.6400  145.1900 C   0  0  0  0  0  0  0  0  0  0  0  0
  187.6500  177.7280  147.0170 C   0  0  0  0  0  3  0  0  0  0  0  0
  189.2170  178.1480  148.7620 F   0  0  0  0  0  0  0  0  0  0  0  0
  188.4410  177.4420  144.7510 C   0  0  0  0  0  0  0  0  0  0  0  0
  190.0250  177.8780  146.5420 C   0  0  0  0  0  3  0  0  0  0  0  0
  187.3870  177.4870  145.6650 C   0  0  0  0  0  3  0  0  0  0  0  0
  188.2020  177.1960  143.4020 C   0  0  0  0  0  3  0  0  0  0  0  0
  190.5730  177.3620  142.9770 C   0  0  0  0  0  3  0  0  0  0  0  0
  190.7920  177.6000  144.2970 N   0  0  0  0  0  0  0  0  0  0  0  0
  193.9170  175.7010  137.7550 C   0  0  0  0  0  3  0  0  0  0  0  0
  192.4340  173.9490  136.9910 C   0  0  0  0  0  3  0  0  0  0  0  0
  193.7170  174.4970  137.0770 C   0  0  0  0  0  0  0  0  0  0  0  0
  192.8360  176.3550  138.3560 C   0  0  0  0  0  3  0  0  0  0  0  0
  191.5480  175.7980  138.2860 C   0  0  0  0  0  0  0  0  0  0  0  0
  194.7900  173.8460  136.4820 O   0  0  0  0  0  1  0  0  0  0  0  0
  191.3540  174.5980  137.5950 C   0  0  0  0  0  3  0  0  0  0  0  0
  188.4450  179.3770  138.2700 O   0  0  0  0  0  0  0  0  0  0  0  0
  188.1990  178.6400  137.1030 C   0  0  0  0  0  2  0  0  0  0  0  0
  186.9770  177.7320  137.2510 C   0  0  1  0  0  3  0  0  0  0  0  0
  185.7020  178.5510  137.4330 C   0  0  0  0  0  2  0  0  0  0  0  0
  184.9220  178.0920  138.6610 C   0  0  0  0  0  3  0  0  0  0  0  0
  182.6670  177.8820  137.5300 C   0  0  0  0  0  2  0  0  0  0  0  0
  183.2610  179.9990  138.7180 C   0  0  0  0  0  2  0  0  0  0  0  0
  182.1350  179.0230  138.3860 C   0  0  0  0  0  2  0  0  0  0  0  0
  184.3800  179.2770  139.4700 C   0  0  0  0  0  2  0  0  0  0  0  0
  183.7870  177.1430  138.2630 C   0  0  0  0  0  2  0  0  0  0  0  0
  186.8440  176.7370  136.0890 C   0  0  1  0  0  3  0  0  0  0  0  0
  185.8920  177.1900  134.9710 C   0  0  0  0  0  2  0  0  0  0  0  0
  184.7180  176.2770  134.8070 C   0  0  0  0  0  3  0  0  0  0  0  0
  184.6800  175.1650  135.4360 N   0  0  0  0  0  0  0  0  0  0  0  0
  183.5570  174.2850  135.2640 C   0  0  0  0  0  1  0  0  0  0  0  0
  188.2070  176.2730  135.5770 C   0  0  0  0  0  2  0  0  0  0  0  0
  187.7510  174.1680  136.8450 C   0  0  0  0  0  1  0  0  0  0  0  0
  188.2910  174.7540  135.5520 C   0  0  0  0  0  2  0  0  0  0  0  0
  1  6  1  0  0  0  0
  2  5  1  0  0  0  0
  2  3  1  0  0  0  0
  3  7  1  0  0  0  0
  5 23  1  1  0  0  0
  5  1  1  0  0  0  0
  6  9  1  1  0  0  0
  7  4  2  0  0  0  0
  7  6  1  0  0  0  0
  8 12  1  0  0  0  0
  9 17  2  0  0  0  0
  9 16  1  0  0  0  0
 10 14  1  0  0  0  0
 11  8  1  0  0  0  0
 13 10  1  0  0  0  0
 13 15  1  0  0  0  0
 14  8  2  0  0  0  0
 15 11  2  0  0  0  0
 16 13  2  0  0  0  0
 17 18  1  0  0  0  0
 18 10  2  0  0  0  0
 19 22  1  0  0  0  0
 20 21  1  0  0  0  0
 20 25  2  0  0  0  0
 21 19  2  0  0  0  0
 23 22  2  0  0  0  0
 24 21  1  0  0  0  0
 25 23  1  0  0  0  0
 26  3  1  0  0  0  0
 27 26  1  0  0  0  0
 28 27  1  6  0  0  0
 28 29  1  0  0  0  0
 29 30  1  0  0  0  0
 30 34  1  0  0  0  0
 31 35  1  0  0  0  0
 31 33  1  0  0  0  0
 32 34  1  0  0  0  0
 33 32  1  0  0  0  0
 35 30  1  0  0  0  0
 36 37  1  6  0  0  0
 36 28  1  0  0  0  0
 38 37  1  0  0  0  0
 38 39  2  0  0  0  0
 40 39  1  0  0  0  0
 41 36  1  0  0  0  0
 43 41  1  0  0  0  0
 43 42  1  0  0  0  0
M  END
>  <MODEL>
7

>  <REMARK>
 VINA RESULT:      -7.8      3.660      7.796
  Name = 
  12 active torsions:
  status: ('A' for Active; 'I' for Inactive)
    1  A    between atoms: O_2  and  C_6
    2  A    between atoms: O_2  and  N_13
    3  A    between atoms: C_3  and  C_4
    4  A    between atoms: C_4  and  C_22
    5  A    between atoms: C_6  and  C_41
    6  A    between atoms: C_8  and  C_34
    7  A    between atoms: C_11  and  C_14
    8  A    between atoms: C_14  and  C_41
    9  A    between atoms: C_15  and  C_22
   10  A    between atoms: C_15  and  C_42
   11  A    between atoms: C_22  and  C_41
   12  A    between atoms: C_28  and  C_35
                            x       y       z     vdW  Elec       q    Type
                         _______ _______ _______ _____ _____    ______ ____

>  <TORSDO>
F 12

$$$$
=
 OpenBabel10262422323D

 43 47  0  0  1  0  0  0  0  0999 V2000
  189.6170  176.7550  141.5240 C   0  0  0  0  0  2  0  0  0  0  0  0
  188.8050  178.3970  139.8720 C   0  0  0  0  0  2  0  0  0  0  0  0
  187.5010  178.4620  140.5210 N   0  0  0  0  0  0  0  0  0  0  0  0
  186.1590  177.8810  142.3360 O   0  0  0  0  0  0  0  0  0  0  0  0
  189.3780  177.0010  140.0380 C   0  0  1  0  0  3  0  0  0  0  0  0
  188.3080  176.8290  142.3330 C   0  0  2  0  0  3  0  0  0  0  0  0
  187.2740  177.7740  141.7640 C   0  0  0  0  0  0  0  0  0  0  0  0
  188.5110  178.2070  148.6750 C   0  0  0  0  0  0  0  0  0  0  0  0
  188.5970  177.1350  143.7700 C   0  0  0  0  0  0  0  0  0  0  0  0
  189.2100  177.6340  146.4320 C   0  0  0  0  0  0  0  0  0  0  0  0
  187.1810  178.2910  148.2450 C   0  0  0  0  0  3  0  0  0  0  0  0
  188.8180  178.4390  149.9710 F   0  0  0  0  0  0  0  0  0  0  0  0
  187.8680  177.7170  146.0000 C   0  0  0  0  0  0  0  0  0  0  0  0
  189.5250  177.8780  147.7700 C   0  0  0  0  0  3  0  0  0  0  0  0
  186.8600  178.0460  146.9060 C   0  0  0  0  0  3  0  0  0  0  0  0
  187.5680  177.4610  144.6650 C   0  0  0  0  0  3  0  0  0  0  0  0
  189.9120  177.0660  144.2390 C   0  0  0  0  0  3  0  0  0  0  0  0
  190.1900  177.3180  145.5460 N   0  0  0  0  0  0  0  0  0  0  0  0
  191.7890  176.2170  137.1920 C   0  0  0  0  0  3  0  0  0  0  0  0
  193.0470  176.9650  139.1180 C   0  0  0  0  0  3  0  0  0  0  0  0
  193.0120  176.5200  137.7930 C   0  0  0  0  0  0  0  0  0  0  0  0
  190.5980  176.3690  137.9100 C   0  0  0  0  0  3  0  0  0  0  0  0
  190.6290  176.8330  139.2350 C   0  0  0  0  0  0  0  0  0  0  0  0
  194.1950  176.3720  137.0800 O   0  0  0  0  0  1  0  0  0  0  0  0
  191.8580  177.1220  139.8350 C   0  0  0  0  0  3  0  0  0  0  0  0
  186.4620  179.0050  139.8390 O   0  0  0  0  0  0  0  0  0  0  0  0
  186.4820  178.4100  138.5710 C   0  0  0  0  0  2  0  0  0  0  0  0
  185.2240  177.5770  138.3140 C   0  0  1  0  0  3  0  0  0  0  0  0
  183.9780  178.4570  138.2920 C   0  0  0  0  0  2  0  0  0  0  0  0
  183.3310  178.5310  139.6720 C   0  0  0  0  0  3  0  0  0  0  0  0
  181.9210  176.4380  139.4610 C   0  0  0  0  0  2  0  0  0  0  0  0
  180.9270  178.6600  138.8950 C   0  0  0  0  0  2  0  0  0  0  0  0
  180.6590  177.2880  139.5070 C   0  0  0  0  0  2  0  0  0  0  0  0
  182.0460  179.3690  139.6580 C   0  0  0  0  0  2  0  0  0  0  0  0
  183.0550  177.1270  140.2210 C   0  0  0  0  0  2  0  0  0  0  0  0
  185.3350  176.7290  137.0380 C   0  0  1  0  0  3  0  0  0  0  0  0
  184.0590  176.6990  136.1830 C   0  0  0  0  0  2  0  0  0  0  0  0
  183.4810  175.3250  136.0550 C   0  0  0  0  0  3  0  0  0  0  0  0
  183.6750  174.4610  136.9770 N   0  0  0  0  0  0  0  0  0  0  0  0
  183.1320  173.1390  136.8430 C   0  0  0  0  0  1  0  0  0  0  0  0
  186.5950  177.0620  136.2400 C   0  0  0  0  0  2  0  0  0  0  0  0
  187.3180  174.7970  137.0070 C   0  0  0  0  0  1  0  0  0  0  0  0
  187.3520  175.7970  135.8650 C   0  0  0  0  0  2  0  0  0  0  0  0
  1  6  1  0  0  0  0
  2  5  1  0  0  0  0
  2  3  1  0  0  0  0
  3  7  1  0  0  0  0
  5 23  1  6  0  0  0
  5  1  1  0  0  0  0
  6  9  1  1  0  0  0
  7  6  1  0  0  0  0
  7  4  2  0  0  0  0
  8 12  1  0  0  0  0
  9 17  2  0  0  0  0
  9 16  1  0  0  0  0
 10 14  1  0  0  0  0
 11  8  1  0  0  0  0
 13 10  1  0  0  0  0
 13 15  1  0  0  0  0
 14  8  2  0  0  0  0
 15 11  2  0  0  0  0
 16 13  2  0  0  0  0
 17 18  1  0  0  0  0
 18 10  2  0  0  0  0
 19 21  2  0  0  0  0
 19 22  1  0  0  0  0
 20 25  2  0  0  0  0
 21 20  1  0  0  0  0
 22 23  2  0  0  0  0
 23 25  1  0  0  0  0
 24 21  1  0  0  0  0
 26  3  1  0  0  0  0
 27 26  1  0  0  0  0
 28 29  1  6  0  0  0
 28 27  1  0  0  0  0
 29 30  1  0  0  0  0
 30 35  1  0  0  0  0
 31 33  1  0  0  0  0
 31 35  1  0  0  0  0
 32 33  1  0  0  0  0
 32 34  1  0  0  0  0
 34 30  1  0  0  0  0
 36 37  1  6  0  0  0
 36 28  1  0  0  0  0
 38 37  1  0  0  0  0
 38 39  2  0  0  0  0
 40 39  1  0  0  0  0
 41 36  1  0  0  0  0
 43 41  1  0  0  0  0
 43 42  1  0  0  0  0
M  END
>  <MODEL>
8

>  <REMARK>
 VINA RESULT:      -7.8      3.612      7.720
  Name = 
  12 active torsions:
  status: ('A' for Active; 'I' for Inactive)
    1  A    between atoms: O_2  and  C_6
    2  A    between atoms: O_2  and  N_13
    3  A    between atoms: C_3  and  C_4
    4  A    between atoms: C_4  and  C_22
    5  A    between atoms: C_6  and  C_41
    6  A    between atoms: C_8  and  C_34
    7  A    between atoms: C_11  and  C_14
    8  A    between atoms: C_14  and  C_41
    9  A    between atoms: C_15  and  C_22
   10  A    between atoms: C_15  and  C_42
   11  A    between atoms: C_22  and  C_41
   12  A    between atoms: C_28  and  C_35
                            x       y       z     vdW  Elec       q    Type
                         _______ _______ _______ _____ _____    ______ ____

>  <TORSDO>
F 12

$$$$
=
 OpenBabel10262422323D

 43 47  0  0  1  0  0  0  0  0999 V2000
  189.9380  177.4790  141.3470 C   0  0  0  0  0  2  0  0  0  0  0  0
  187.5360  177.8430  141.7730 C   0  0  0  0  0  2  0  0  0  0  0  0
  187.3290  178.3220  140.4120 N   0  0  0  0  0  0  0  0  0  0  0  0
  188.1870  178.6340  138.2670 O   0  0  0  0  0  0  0  0  0  0  0  0
  188.9360  178.2160  142.2280 C   0  0  1  0  0  3  0  0  0  0  0  0
  189.8000  177.8770  139.8650 C   0  0  2  0  0  3  0  0  0  0  0  0
  188.3970  178.2630  139.4510 C   0  0  0  0  0  0  0  0  0  0  0  0
  193.1580  173.5770  136.3460 C   0  0  0  0  0  0  0  0  0  0  0  0
  190.3560  176.8060  138.9790 C   0  0  0  0  0  0  0  0  0  0  0  0
  191.3100  174.7560  137.3680 C   0  0  0  0  0  0  0  0  0  0  0  0
  194.0610  174.4670  136.9380 C   0  0  0  0  0  3  0  0  0  0  0  0
  193.6130  172.5700  135.5670 F   0  0  0  0  0  0  0  0  0  0  0  0
  192.2220  175.6520  137.9670 C   0  0  0  0  0  0  0  0  0  0  0  0
  191.7830  173.7190  136.5610 C   0  0  0  0  0  3  0  0  0  0  0  0
  193.5930  175.5060  137.7490 C   0  0  0  0  0  3  0  0  0  0  0  0
  191.7370  176.6750  138.7770 C   0  0  0  0  0  3  0  0  0  0  0  0
  189.4880  175.8980  138.3660 C   0  0  0  0  0  3  0  0  0  0  0  0
  189.9760  174.9040  137.5780 N   0  0  0  0  0  0  0  0  0  0  0  0
  190.5570  177.4160  145.5830 C   0  0  0  0  0  3  0  0  0  0  0  0
  188.1550  177.4890  145.8570 C   0  0  0  0  0  3  0  0  0  0  0  0
  189.4300  177.3100  146.4000 C   0  0  0  0  0  0  0  0  0  0  0  0
  190.4120  177.7100  144.2230 C   0  0  0  0  0  3  0  0  0  0  0  0
  189.1320  177.9070  143.6780 C   0  0  0  0  0  0  0  0  0  0  0  0
  189.5740  177.0210  147.7510 O   0  0  0  0  0  1  0  0  0  0  0  0
  188.0080  177.7870  144.4990 C   0  0  0  0  0  3  0  0  0  0  0  0
  186.1900  179.0030  140.1300 O   0  0  0  0  0  0  0  0  0  0  0  0
  185.2590  178.6170  141.1030 C   0  0  0  0  0  2  0  0  0  0  0  0
  183.8590  178.4440  140.5130 C   0  0  1  0  0  3  0  0  0  0  0  0
  182.8110  179.1530  141.3660 C   0  0  0  0  0  2  0  0  0  0  0  0
  181.8310  178.1560  141.9770 C   0  0  0  0  0  3  0  0  0  0  0  0
  179.7380  179.0780  140.8900 C   0  0  0  0  0  2  0  0  0  0  0  0
  180.3750  179.8350  143.1850 C   0  0  0  0  0  2  0  0  0  0  0  0
  179.2130  179.4890  142.2590 C   0  0  0  0  0  2  0  0  0  0  0  0
  181.3050  178.6320  143.3380 C   0  0  0  0  0  2  0  0  0  0  0  0
  180.6710  177.8730  141.0170 C   0  0  0  0  0  2  0  0  0  0  0  0
  183.7840  178.8920  139.0450 C   0  0  1  0  0  3  0  0  0  0  0  0
  183.6380  177.7400  138.0380 C   0  0  0  0  0  2  0  0  0  0  0  0
  184.9050  177.4610  137.2930 C   0  0  0  0  0  3  0  0  0  0  0  0
  185.2040  176.2610  136.9650 N   0  0  0  0  0  0  0  0  0  0  0  0
  186.4280  175.9970  136.2630 C   0  0  0  0  0  1  0  0  0  0  0  0
  182.7660  180.0120  138.8420 C   0  0  0  0  0  2  0  0  0  0  0  0
  181.0460  180.7990  137.2090 C   0  0  0  0  0  1  0  0  0  0  0  0
  181.6750  179.5860  137.8700 C   0  0  0  0  0  2  0  0  0  0  0  0
  1  5  1  0  0  0  0
  2  5  1  0  0  0  0
  3  2  1  0  0  0  0
  4  7  2  0  0  0  0
  5 23  1  1  0  0  0
  6  9  1  6  0  0  0
  6  1  1  0  0  0  0
  7  6  1  0  0  0  0
  7  3  1  0  0  0  0
  8 14  2  0  0  0  0
  8 11  1  0  0  0  0
 10 18  2  0  0  0  0
 10 13  1  0  0  0  0
 11 15  2  0  0  0  0
 12  8  1  0  0  0  0
 13 16  2  0  0  0  0
 14 10  1  0  0  0  0
 15 13  1  0  0  0  0
 16  9  1  0  0  0  0
 17  9  2  0  0  0  0
 18 17  1  0  0  0  0
 19 21  1  0  0  0  0
 20 21  2  0  0  0  0
 21 24  1  0  0  0  0
 22 19  2  0  0  0  0
 23 22  1  0  0  0  0
 23 25  2  0  0  0  0
 25 20  1  0  0  0  0
 26  3  1  0  0  0  0
 26 27  1  0  0  0  0
 28 27  1  1  0  0  0
 28 29  1  0  0  0  0
 29 30  1  0  0  0  0
 30 34  1  0  0  0  0
 31 35  1  0  0  0  0
 31 33  1  0  0  0  0
 32 34  1  0  0  0  0
 33 32  1  0  0  0  0
 35 30  1  0  0  0  0
 36 37  1  6  0  0  0
 36 28  1  0  0  0  0
 38 37  1  0  0  0  0
 39 38  2  0  0  0  0
 40 39  1  0  0  0  0
 41 36  1  0  0  0  0
 42 43  1  0  0  0  0
 43 41  1  0  0  0  0
M  END
>  <MODEL>
9

>  <REMARK>
 VINA RESULT:      -7.7      1.641      3.933
  Name = 
  12 active torsions:
  status: ('A' for Active; 'I' for Inactive)
    1  A    between atoms: O_2  and  C_6
    2  A    between atoms: O_2  and  N_13
    3  A    between atoms: C_3  and  C_4
    4  A    between atoms: C_4  and  C_22
    5  A    between atoms: C_6  and  C_41
    6  A    between atoms: C_8  and  C_34
    7  A    between atoms: C_11  and  C_14
    8  A    between atoms: C_14  and  C_41
    9  A    between atoms: C_15  and  C_22
   10  A    between atoms: C_15  and  C_42
   11  A    between atoms: C_22  and  C_41
   12  A    between atoms: C_28  and  C_35
                            x       y       z     vdW  Elec       q    Type
                         _______ _______ _______ _____ _____    ______ ____

>  <TORSDO>
F 12

$$$$
