=
 OpenBabel10262420523D

 28 32  0  0  1  0  0  0  0  0999 V2000
  187.9310  178.1890  140.5310 N   0  0  0  0  0  0  0  0  0  0  0  0
  188.0410  177.2230  145.6060 C   0  0  0  0  0  3  0  0  0  0  0  0
  183.7970  177.6760  142.1420 O   0  0  0  0  0  1  0  0  0  0  0  0
  186.1400  178.5620  146.3150 C   0  0  0  0  0  0  0  0  0  0  0  0
  186.3080  177.8340  143.8870 C   0  0  2  0  0  3  0  0  0  0  0  0
  187.8230  177.8830  147.9240 C   0  0  0  0  0  0  0  0  0  0  0  0
  186.8660  177.9160  145.2860 C   0  0  0  0  0  0  0  0  0  0  0  0
  184.2100  178.9420  144.7260 C   0  0  0  0  0  2  0  0  0  0  0  0
  186.6370  178.5550  147.6220 C   0  0  0  0  0  3  0  0  0  0  0  0
  185.7590  178.6270  141.2370 C   0  0  0  0  0  0  0  0  0  0  0  0
  187.3680  177.8500  142.8650 N   0  0  0  0  0  2  0  0  0  0  0  0
  184.8850  179.3480  146.0340 C   0  0  0  0  0  2  0  0  0  0  0  0
  185.8360  178.8700  139.9310 C   0  0  0  0  0  0  0  0  0  0  0  0
  184.6290  178.7970  142.2060 C   0  0  2  0  0  3  0  0  0  0  0  0
  184.7230  179.3790  139.0840 C   0  0  0  0  0  1  0  0  0  0  0  0
  188.3060  177.8780  149.2250 O   0  0  0  0  0  1  0  0  0  0  0  0
  188.5230  177.2130  146.9180 C   0  0  0  0  0  3  0  0  0  0  0  0
  185.2480  178.9320  143.6140 C   0  0  2  0  0  3  0  0  0  0  0  0
  187.1540  178.5940  139.4340 N   0  0  0  0  0  0  0  0  0  0  0  0
  187.0590  178.1610  141.6450 C   0  0  0  0  0  0  0  0  0  0  0  0
  189.2090  177.5030  140.4150 C   0  0  0  0  0  2  0  0  0  0  0  0
  189.8890  177.4530  141.7400 C   0  0  0  0  0  0  0  0  0  0  0  0
  191.2230  177.3560  144.1970 C   0  0  0  0  0  0  0  0  0  0  0  0
  190.2750  178.6400  142.3750 C   0  0  0  0  0  3  0  0  0  0  0  0
  190.1800  176.2190  142.3310 C   0  0  0  0  0  3  0  0  0  0  0  0
  190.8450  176.1710  143.5590 C   0  0  0  0  0  3  0  0  0  0  0  0
  191.8670  177.3100  145.3880 F   0  0  0  0  0  0  0  0  0  0  0  0
  190.9390  178.5900  143.6040 C   0  0  0  0  0  3  0  0  0  0  0  0
  1 20  1  0  0  0  0
  2 17  1  0  0  0  0
  4  9  2  0  0  0  0
  5 11  1  6  0  0  0
  5  7  1  0  0  0  0
  6 16  1  0  0  0  0
  7  2  2  0  0  0  0
  7  4  1  0  0  0  0
  8 12  1  0  0  0  0
  9  6  1  0  0  0  0
 10 20  2  0  0  0  0
 10 14  1  0  0  0  0
 12  4  1  0  0  0  0
 13 10  1  0  0  0  0
 14  3  1  1  0  0  0
 14 18  1  0  0  0  0
 15 13  1  0  0  0  0
 17  6  2  0  0  0  0
 18  5  1  0  0  0  0
 18  8  1  1  0  0  0
 19 13  2  0  0  0  0
 19  1  1  0  0  0  0
 20 11  1  0  0  0  0
 21  1  1  0  0  0  0
 21 22  1  0  0  0  0
 22 25  2  0  0  0  0
 22 24  1  0  0  0  0
 23 27  1  0  0  0  0
 24 28  2  0  0  0  0
 25 26  1  0  0  0  0
 26 23  2  0  0  0  0
 28 23  1  0  0  0  0
M  END
>  <MODEL>
1

>  <REMARK>
 VINA RESULT:     -10.2      0.000      0.000
  Name = 
  2 active torsions:
  status: ('A' for Active; 'I' for Inactive)
    1  A    between atoms: N_1  and  C_2
    2  A    between atoms: C_2  and  C_3
                            x       y       z     vdW  Elec       q    Type
                         _______ _______ _______ _____ _____    ______ ____

>  <TORSDO>
F 2

$$$$
=
 OpenBabel10262420523D

 28 32  0  0  1  0  0  0  0  0999 V2000
  187.6470  178.2900  140.1880 N   0  0  0  0  0  0  0  0  0  0  0  0
  188.1290  177.2360  145.2240 C   0  0  0  0  0  3  0  0  0  0  0  0
  183.6540  177.5560  142.0490 O   0  0  0  0  0  1  0  0  0  0  0  0
  186.2190  178.4730  146.0810 C   0  0  0  0  0  0  0  0  0  0  0  0
  186.2620  177.7980  143.6320 C   0  0  2  0  0  3  0  0  0  0  0  0
  188.0310  177.8420  147.5650 C   0  0  0  0  0  0  0  0  0  0  0  0
  186.9050  177.8800  144.9950 C   0  0  0  0  0  0  0  0  0  0  0  0
  184.1750  178.7920  144.6270 C   0  0  0  0  0  2  0  0  0  0  0  0
  186.7990  178.4650  147.3530 C   0  0  0  0  0  3  0  0  0  0  0  0
  185.5080  178.6140  141.0400 C   0  0  0  0  0  0  0  0  0  0  0  0
  187.2520  177.8820  142.5460 N   0  0  0  0  0  2  0  0  0  0  0  0
  184.9150  179.2050  145.8970 C   0  0  0  0  0  2  0  0  0  0  0  0
  185.4890  178.8840  139.7380 C   0  0  0  0  0  0  0  0  0  0  0  0
  184.4360  178.7130  142.0830 C   0  0  2  0  0  3  0  0  0  0  0  0
  184.3020  179.3560  138.9740 C   0  0  0  0  0  1  0  0  0  0  0  0
  188.5970  177.8360  148.8320 O   0  0  0  0  0  1  0  0  0  0  0  0
  188.6940  177.2240  146.5020 C   0  0  0  0  0  3  0  0  0  0  0  0
  185.1380  178.8500  143.4510 C   0  0  2  0  0  3  0  0  0  0  0  0
  186.7830  178.6780  139.1520 N   0  0  0  0  0  0  0  0  0  0  0  0
  186.8510  178.2000  141.3540 C   0  0  0  0  0  0  0  0  0  0  0  0
  188.9440  177.6650  139.9760 C   0  0  0  0  0  2  0  0  0  0  0  0
  189.0800  177.2260  138.5590 C   0  0  0  0  0  0  0  0  0  0  0  0
  189.2720  176.4150  135.8890 C   0  0  0  0  0  0  0  0  0  0  0  0
  189.4320  178.1520  137.5690 C   0  0  0  0  0  3  0  0  0  0  0  0
  188.8140  175.8980  138.2090 C   0  0  0  0  0  3  0  0  0  0  0  0
  188.9120  175.4920  136.8750 C   0  0  0  0  0  3  0  0  0  0  0  0
  189.3680  176.0220  134.5950 F   0  0  0  0  0  0  0  0  0  0  0  0
  189.5310  177.7450  136.2350 C   0  0  0  0  0  3  0  0  0  0  0  0
  1 20  1  0  0  0  0
  2 17  1  0  0  0  0
  4  9  2  0  0  0  0
  5 11  1  6  0  0  0
  5  7  1  0  0  0  0
  6 16  1  0  0  0  0
  7  2  2  0  0  0  0
  7  4  1  0  0  0  0
  8 12  1  0  0  0  0
  9  6  1  0  0  0  0
 10 20  2  0  0  0  0
 10 14  1  0  0  0  0
 12  4  1  0  0  0  0
 13 10  1  0  0  0  0
 14  3  1  1  0  0  0
 14 18  1  0  0  0  0
 15 13  1  0  0  0  0
 17  6  2  0  0  0  0
 18  5  1  0  0  0  0
 18  8  1  1  0  0  0
 19 13  2  0  0  0  0
 19  1  1  0  0  0  0
 20 11  1  0  0  0  0
 21  1  1  0  0  0  0
 22 21  1  0  0  0  0
 23 28  2  0  0  0  0
 23 26  1  0  0  0  0
 24 22  2  0  0  0  0
 25 22  1  0  0  0  0
 26 25  2  0  0  0  0
 27 23  1  0  0  0  0
 28 24  1  0  0  0  0
M  END
>  <MODEL>
2

>  <REMARK>
 VINA RESULT:      -9.5      2.691      3.589
  Name = 
  2 active torsions:
  status: ('A' for Active; 'I' for Inactive)
    1  A    between atoms: N_1  and  C_2
    2  A    between atoms: C_2  and  C_3
                            x       y       z     vdW  Elec       q    Type
                         _______ _______ _______ _____ _____    ______ ____

>  <TORSDO>
F 2

$$$$
=
 OpenBabel10262420523D

 28 32  0  0  1  0  0  0  0  0999 V2000
  188.2970  177.5270  138.0560 N   0  0  0  0  0  0  0  0  0  0  0  0
  185.8960  179.1420  142.3390 C   0  0  0  0  0  3  0  0  0  0  0  0
  191.1620  177.8260  141.4690 O   0  0  0  0  0  1  0  0  0  0  0  0
  186.9930  177.7200  143.9780 C   0  0  0  0  0  0  0  0  0  0  0  0
  188.1300  178.1450  141.7460 C   0  0  2  0  0  3  0  0  0  0  0  0
  184.8660  178.7660  144.4950 C   0  0  0  0  0  0  0  0  0  0  0  0
  186.9610  178.2990  142.6870 C   0  0  0  0  0  0  0  0  0  0  0  0
  189.3690  176.9490  143.5820 C   0  0  0  0  0  2  0  0  0  0  0  0
  185.9340  177.9440  144.8630 C   0  0  0  0  0  3  0  0  0  0  0  0
  189.7640  176.9680  139.7710 C   0  0  0  0  0  0  0  0  0  0  0  0
  187.7060  178.1040  140.3370 N   0  0  0  0  0  2  0  0  0  0  0  0
  188.0930  176.7830  144.4050 C   0  0  0  0  0  2  0  0  0  0  0  0
  190.2910  176.5690  138.6170 C   0  0  0  0  0  0  0  0  0  0  0  0
  190.2460  176.8120  141.1810 C   0  0  2  0  0  3  0  0  0  0  0  0
  191.5840  175.8470  138.4670 C   0  0  0  0  0  1  0  0  0  0  0  0
  183.8220  178.9850  145.3830 O   0  0  0  0  0  1  0  0  0  0  0  0
  184.8490  179.3670  143.2350 C   0  0  0  0  0  3  0  0  0  0  0  0
  189.0110  176.9210  142.1040 C   0  0  2  0  0  3  0  0  0  0  0  0
  189.4360  176.9100  137.5160 N   0  0  0  0  0  0  0  0  0  0  0  0
  188.5150  177.6110  139.4510 C   0  0  0  0  0  0  0  0  0  0  0  0
  187.3530  178.3180  137.2800 C   0  0  0  0  0  2  0  0  0  0  0  0
  185.9770  177.7640  137.4230 C   0  0  0  0  0  0  0  0  0  0  0  0
  183.4140  176.6900  137.7410 C   0  0  0  0  0  0  0  0  0  0  0  0
  185.0350  178.4240  138.2200 C   0  0  0  0  0  3  0  0  0  0  0  0
  185.6390  176.5610  136.7940 C   0  0  0  0  0  3  0  0  0  0  0  0
  184.3570  176.0250  136.9520 C   0  0  0  0  0  3  0  0  0  0  0  0
  182.1720  176.1710  137.8940 F   0  0  0  0  0  0  0  0  0  0  0  0
  183.7540  177.8880  138.3770 C   0  0  0  0  0  3  0  0  0  0  0  0
  1 20  1  0  0  0  0
  2  7  2  0  0  0  0
  2 17  1  0  0  0  0
  4 12  1  0  0  0  0
  4  9  2  0  0  0  0
  5 11  1  6  0  0  0
  5 18  1  0  0  0  0
  5  7  1  0  0  0  0
  6  9  1  0  0  0  0
  6 16  1  0  0  0  0
  7  4  1  0  0  0  0
  8 12  1  0  0  0  0
 10 14  1  0  0  0  0
 13 10  1  0  0  0  0
 14  3  1  1  0  0  0
 14 18  1  0  0  0  0
 15 13  1  0  0  0  0
 17  6  2  0  0  0  0
 18  8  1  1  0  0  0
 19  1  1  0  0  0  0
 19 13  2  0  0  0  0
 20 10  2  0  0  0  0
 20 11  1  0  0  0  0
 21 22  1  0  0  0  0
 21  1  1  0  0  0  0
 22 24  1  0  0  0  0
 23 27  1  0  0  0  0
 23 28  1  0  0  0  0
 24 28  2  0  0  0  0
 25 26  1  0  0  0  0
 25 22  2  0  0  0  0
 26 23  2  0  0  0  0
M  END
>  <MODEL>
3

>  <REMARK>
 VINA RESULT:      -9.3      3.432      5.992
  Name = 
  2 active torsions:
  status: ('A' for Active; 'I' for Inactive)
    1  A    between atoms: N_1  and  C_2
    2  A    between atoms: C_2  and  C_3
                            x       y       z     vdW  Elec       q    Type
                         _______ _______ _______ _____ _____    ______ ____

>  <TORSDO>
F 2

$$$$
=
 OpenBabel10262420523D

 28 32  0  0  1  0  0  0  0  0999 V2000
  189.4670  176.5140  141.5550 N   0  0  0  0  0  0  0  0  0  0  0  0
  184.9910  178.9180  142.5010 C   0  0  0  0  0  3  0  0  0  0  0  0
  189.5540  178.5250  145.5410 O   0  0  0  0  0  1  0  0  0  0  0  0
  184.7370  178.3870  144.8600 C   0  0  0  0  0  0  0  0  0  0  0  0
  187.0450  178.2730  143.8040 C   0  0  2  0  0  3  0  0  0  0  0  0
  182.8150  179.0730  143.5480 C   0  0  0  0  0  0  0  0  0  0  0  0
  185.5540  178.4830  143.7080 C   0  0  0  0  0  0  0  0  0  0  0  0
  186.7890  178.0450  146.2980 C   0  0  0  0  0  2  0  0  0  0  0  0
  183.3700  178.6650  144.7630 C   0  0  0  0  0  3  0  0  0  0  0  0
  189.4950  176.8780  143.8510 C   0  0  0  0  0  0  0  0  0  0  0  0
  187.6020  177.6790  142.5790 N   0  0  0  0  0  2  0  0  0  0  0  0
  185.2740  177.8980  146.1810 C   0  0  0  0  0  2  0  0  0  0  0  0
  190.6110  176.2380  143.5100 C   0  0  0  0  0  0  0  0  0  0  0  0
  188.9730  177.3050  145.1890 C   0  0  2  0  0  3  0  0  0  0  0  0
  191.6720  175.7960  144.4560 C   0  0  0  0  0  1  0  0  0  0  0  0
  181.4580  179.3510  143.4640 O   0  0  0  0  0  1  0  0  0  0  0  0
  183.6260  179.2040  142.4190 C   0  0  0  0  0  3  0  0  0  0  0  0
  187.4410  177.4520  145.0580 C   0  0  2  0  0  3  0  0  0  0  0  0
  190.6580  176.0060  142.0950 N   0  0  0  0  0  0  0  0  0  0  0  0
  188.7620  177.1000  142.6320 C   0  0  0  0  0  0  0  0  0  0  0  0
  189.2640  176.7840  140.1390 C   0  0  0  0  0  2  0  0  0  0  0  0
  190.5280  176.5530  139.3840 C   0  0  0  0  0  0  0  0  0  0  0  0
  192.8830  176.1660  137.9250 C   0  0  0  0  0  0  0  0  0  0  0  0
  191.6920  177.2460  139.7360 C   0  0  0  0  0  3  0  0  0  0  0  0
  190.5410  175.6740  138.2950 C   0  0  0  0  0  3  0  0  0  0  0  0
  191.7190  175.4800  137.5670 C   0  0  0  0  0  3  0  0  0  0  0  0
  194.0240  175.9770  137.2200 F   0  0  0  0  0  0  0  0  0  0  0  0
  192.8690  177.0500  139.0080 C   0  0  0  0  0  3  0  0  0  0  0  0
  1 19  1  0  0  0  0
  1 20  1  0  0  0  0
  2  7  1  0  0  0  0
  4 12  1  0  0  0  0
  5 11  1  6  0  0  0
  5 18  1  0  0  0  0
  6  9  2  0  0  0  0
  7  5  1  0  0  0  0
  7  4  2  0  0  0  0
  9  4  1  0  0  0  0
 10 14  1  0  0  0  0
 11 20  1  0  0  0  0
 12  8  1  0  0  0  0
 13 10  1  0  0  0  0
 13 15  1  0  0  0  0
 14  3  1  6  0  0  0
 16  6  1  0  0  0  0
 17  2  2  0  0  0  0
 17  6  1  0  0  0  0
 18 14  1  0  0  0  0
 18  8  1  1  0  0  0
 19 13  2  0  0  0  0
 20 10  2  0  0  0  0
 21  1  1  0  0  0  0
 22 24  1  0  0  0  0
 22 21  1  0  0  0  0
 23 28  1  0  0  0  0
 25 22  2  0  0  0  0
 26 23  2  0  0  0  0
 26 25  1  0  0  0  0
 27 23  1  0  0  0  0
 28 24  2  0  0  0  0
M  END
>  <MODEL>
4

>  <REMARK>
 VINA RESULT:      -9.2      2.758      5.115
  Name = 
  2 active torsions:
  status: ('A' for Active; 'I' for Inactive)
    1  A    between atoms: N_1  and  C_2
    2  A    between atoms: C_2  and  C_3
                            x       y       z     vdW  Elec       q    Type
                         _______ _______ _______ _____ _____    ______ ____

>  <TORSDO>
F 2

$$$$
=
 OpenBabel10262420523D

 28 32  0  0  1  0  0  0  0  0999 V2000
  188.6760  178.1100  140.8620 N   0  0  0  0  0  0  0  0  0  0  0  0
  191.0410  176.2110  145.0470 C   0  0  0  0  0  3  0  0  0  0  0  0
  185.6960  176.8740  143.9500 O   0  0  0  0  0  1  0  0  0  0  0  0
  189.6420  177.1870  146.7800 C   0  0  0  0  0  0  0  0  0  0  0  0
  188.7190  176.9560  144.4240 C   0  0  2  0  0  3  0  0  0  0  0  0
  191.8710  176.3910  147.3130 C   0  0  0  0  0  0  0  0  0  0  0  0
  189.8400  176.8270  145.4250 C   0  0  0  0  0  0  0  0  0  0  0  0
  187.2030  177.6600  146.3070 C   0  0  0  0  0  2  0  0  0  0  0  0
  190.6690  176.9830  147.7070 C   0  0  0  0  0  3  0  0  0  0  0  0
  187.0420  178.1780  142.5140 C   0  0  0  0  0  0  0  0  0  0  0  0
  189.2140  177.2760  143.0750 N   0  0  0  0  0  2  0  0  0  0  0  0
  188.3870  177.8770  147.2470 C   0  0  0  0  0  2  0  0  0  0  0  0
  186.5280  178.6720  141.3910 C   0  0  0  0  0  0  0  0  0  0  0  0
  186.4590  178.0420  143.8880 C   0  0  2  0  0  3  0  0  0  0  0  0
  185.1500  179.2140  141.2410 C   0  0  0  0  0  1  0  0  0  0  0  0
  192.8820  176.1890  148.2420 O   0  0  0  0  0  1  0  0  0  0  0  0
  192.0550  176.0020  145.9840 C   0  0  0  0  0  3  0  0  0  0  0  0
  187.6390  177.9690  144.8820 C   0  0  2  0  0  3  0  0  0  0  0  0
  187.4900  178.6340  140.3260 N   0  0  0  0  0  0  0  0  0  0  0  0
  188.3910  177.7800  142.2080 C   0  0  0  0  0  0  0  0  0  0  0  0
  189.7750  177.5950  140.0600 C   0  0  0  0  0  2  0  0  0  0  0  0
  189.3330  177.3900  138.6510 C   0  0  0  0  0  0  0  0  0  0  0  0
  188.4440  177.0260  136.0240 C   0  0  0  0  0  0  0  0  0  0  0  0
  189.4400  178.4340  137.7240 C   0  0  0  0  0  3  0  0  0  0  0  0
  188.7710  176.1690  138.2650 C   0  0  0  0  0  3  0  0  0  0  0  0
  188.3290  175.9860  136.9520 C   0  0  0  0  0  3  0  0  0  0  0  0
  188.0150  176.8490  134.7510 F   0  0  0  0  0  0  0  0  0  0  0  0
  188.9980  178.2500  136.4110 C   0  0  0  0  0  3  0  0  0  0  0  0
  1 20  1  0  0  0  0
  2  7  2  0  0  0  0
  2 17  1  0  0  0  0
  4 12  1  0  0  0  0
  4  9  2  0  0  0  0
  5 11  1  6  0  0  0
  5 18  1  0  0  0  0
  5  7  1  0  0  0  0
  6  9  1  0  0  0  0
  6 16  1  0  0  0  0
  7  4  1  0  0  0  0
  8 12  1  0  0  0  0
 10 14  1  0  0  0  0
 13 10  1  0  0  0  0
 14  3  1  6  0  0  0
 14 18  1  0  0  0  0
 15 13  1  0  0  0  0
 17  6  2  0  0  0  0
 18  8  1  1  0  0  0
 19  1  1  0  0  0  0
 19 13  2  0  0  0  0
 20 10  2  0  0  0  0
 20 11  1  0  0  0  0
 21  1  1  0  0  0  0
 22 21  1  0  0  0  0
 23 28  2  0  0  0  0
 23 26  1  0  0  0  0
 24 22  2  0  0  0  0
 25 22  1  0  0  0  0
 26 25  2  0  0  0  0
 27 23  1  0  0  0  0
 28 24  1  0  0  0  0
M  END
>  <MODEL>
5

>  <REMARK>
 VINA RESULT:      -9.2      3.124      4.427
  Name = 
  2 active torsions:
  status: ('A' for Active; 'I' for Inactive)
    1  A    between atoms: N_1  and  C_2
    2  A    between atoms: C_2  and  C_3
                            x       y       z     vdW  Elec       q    Type
                         _______ _______ _______ _____ _____    ______ ____

>  <TORSDO>
F 2

$$$$
=
 OpenBabel10262420523D

 28 32  0  0  1  0  0  0  0  0999 V2000
  189.9530  177.5800  140.1810 N   0  0  0  0  0  0  0  0  0  0  0  0
  187.2730  177.2150  144.5850 C   0  0  0  0  0  3  0  0  0  0  0  0
  185.5600  177.6000  139.3760 O   0  0  0  0  0  1  0  0  0  0  0  0
  185.4770  178.7790  144.0970 C   0  0  0  0  0  0  0  0  0  0  0  0
  186.7890  177.7580  142.1750 C   0  0  2  0  0  3  0  0  0  0  0  0
  185.9690  178.1600  146.3900 C   0  0  0  0  0  0  0  0  0  0  0  0
  186.5410  177.9590  143.6500 C   0  0  0  0  0  0  0  0  0  0  0  0
  184.7280  179.1240  141.7060 C   0  0  0  0  0  2  0  0  0  0  0  0
  185.2150  178.8870  145.4660 C   0  0  0  0  0  3  0  0  0  0  0  0
  187.8110  178.2740  139.5980 C   0  0  0  0  0  0  0  0  0  0  0  0
  188.2170  177.5670  141.8740 N   0  0  0  0  0  2  0  0  0  0  0  0
  184.6700  179.6260  143.1470 C   0  0  0  0  0  2  0  0  0  0  0  0
  188.5890  178.3540  138.5220 C   0  0  0  0  0  0  0  0  0  0  0  0
  186.3760  178.6490  139.8070 C   0  0  2  0  0  3  0  0  0  0  0  0
  188.1590  178.8470  137.1850 C   0  0  0  0  0  1  0  0  0  0  0  0
  185.6970  178.2700  147.7470 O   0  0  0  0  0  1  0  0  0  0  0  0
  186.9950  177.3210  145.9490 C   0  0  0  0  0  3  0  0  0  0  0  0
  186.1810  178.8980  141.3190 C   0  0  2  0  0  3  0  0  0  0  0  0
  189.9230  177.9140  138.8180 N   0  0  0  0  0  0  0  0  0  0  0  0
  188.6340  177.7550  140.6610 C   0  0  0  0  0  0  0  0  0  0  0  0
  191.0000  176.7830  140.8010 C   0  0  0  0  0  2  0  0  0  0  0  0
  191.0340  177.0300  142.2710 C   0  0  0  0  0  0  0  0  0  0  0  0
  191.1590  177.4750  145.0290 C   0  0  0  0  0  0  0  0  0  0  0  0
  191.3900  178.2920  142.7610 C   0  0  0  0  0  3  0  0  0  0  0  0
  190.7520  175.9890  143.1610 C   0  0  0  0  0  3  0  0  0  0  0  0
  190.8130  176.2120  144.5400 C   0  0  0  0  0  3  0  0  0  0  0  0
  191.2180  177.6910  146.3660 F   0  0  0  0  0  0  0  0  0  0  0  0
  191.4490  178.5140  144.1400 C   0  0  0  0  0  3  0  0  0  0  0  0
  1 20  1  0  0  0  0
  1 21  1  0  0  0  0
  2 17  1  0  0  0  0
  4  9  2  0  0  0  0
  5 11  1  1  0  0  0
  5  7  1  0  0  0  0
  6 16  1  0  0  0  0
  7  4  1  0  0  0  0
  7  2  2  0  0  0  0
  8 12  1  0  0  0  0
  9  6  1  0  0  0  0
 10 14  1  0  0  0  0
 10 20  2  0  0  0  0
 12  4  1  0  0  0  0
 13 19  2  0  0  0  0
 13 10  1  0  0  0  0
 14  3  1  1  0  0  0
 14 18  1  0  0  0  0
 15 13  1  0  0  0  0
 17  6  2  0  0  0  0
 18  8  1  6  0  0  0
 18  5  1  0  0  0  0
 19  1  1  0  0  0  0
 20 11  1  0  0  0  0
 21 22  1  0  0  0  0
 22 24  2  0  0  0  0
 22 25  1  0  0  0  0
 23 27  1  0  0  0  0
 24 28  1  0  0  0  0
 25 26  2  0  0  0  0
 26 23  1  0  0  0  0
 28 23  2  0  0  0  0
M  END
>  <MODEL>
6

>  <REMARK>
 VINA RESULT:      -9.0      1.572      2.273
  Name = 
  2 active torsions:
  status: ('A' for Active; 'I' for Inactive)
    1  A    between atoms: N_1  and  C_2
    2  A    between atoms: C_2  and  C_3
                            x       y       z     vdW  Elec       q    Type
                         _______ _______ _______ _____ _____    ______ ____

>  <TORSDO>
F 2

$$$$
=
 OpenBabel10262420523D

 28 32  0  0  1  0  0  0  0  0999 V2000
  187.9460  177.7860  144.5100 N   0  0  0  0  0  0  0  0  0  0  0  0
  186.8640  178.3950  139.4930 C   0  0  0  0  0  3  0  0  0  0  0  0
  184.1470  180.0700  143.9680 O   0  0  0  0  0  1  0  0  0  0  0  0
  184.4580  178.0470  139.5530 C   0  0  0  0  0  0  0  0  0  0  0  0
  185.6690  178.7120  141.6850 C   0  0  2  0  0  3  0  0  0  0  0  0
  185.6750  177.8180  137.4660 C   0  0  0  0  0  0  0  0  0  0  0  0
  185.6710  178.3300  140.2260 C   0  0  0  0  0  0  0  0  0  0  0  0
  183.1530  178.6560  141.6320 C   0  0  0  0  0  2  0  0  0  0  0  0
  184.4760  177.7750  138.1810 C   0  0  0  0  0  3  0  0  0  0  0  0
  185.6940  178.3630  144.4830 C   0  0  0  0  0  0  0  0  0  0  0  0
  186.8820  178.2530  142.3810 N   0  0  0  0  0  2  0  0  0  0  0  0
  183.1470  177.9340  140.2860 C   0  0  0  0  0  2  0  0  0  0  0  0
  186.0650  178.1630  145.7450 C   0  0  0  0  0  0  0  0  0  0  0  0
  184.3590  178.6910  143.8890 C   0  0  2  0  0  3  0  0  0  0  0  0
  185.1680  178.2540  146.9300 C   0  0  0  0  0  1  0  0  0  0  0  0
  185.6800  177.5510  136.1050 O   0  0  0  0  0  1  0  0  0  0  0  0
  186.8680  178.1320  138.1210 C   0  0  0  0  0  3  0  0  0  0  0  0
  184.3870  178.2330  142.4140 C   0  0  2  0  0  3  0  0  0  0  0  0
  187.4580  177.8250  145.8240 N   0  0  0  0  0  0  0  0  0  0  0  0
  186.8700  178.1660  143.6750 C   0  0  0  0  0  0  0  0  0  0  0  0
  189.3600  177.8150  144.1650 C   0  0  0  0  0  2  0  0  0  0  0  0
  190.1710  177.2180  145.2630 C   0  0  0  0  0  0  0  0  0  0  0  0
  191.7330  176.1490  147.3230 C   0  0  0  0  0  0  0  0  0  0  0  0
  189.8550  177.4950  146.5980 C   0  0  0  0  0  3  0  0  0  0  0  0
  191.2760  176.4150  144.9600 C   0  0  0  0  0  3  0  0  0  0  0  0
  192.0550  175.8790  145.9890 C   0  0  0  0  0  3  0  0  0  0  0  0
  192.4880  175.6300  148.3200 F   0  0  0  0  0  0  0  0  0  0  0  0
  190.6340  176.9580  147.6270 C   0  0  0  0  0  3  0  0  0  0  0  0
  1 19  1  0  0  0  0
  2  7  1  0  0  0  0
  4  7  2  0  0  0  0
  4 12  1  0  0  0  0
  5  7  1  6  0  0  0
  5 11  1  0  0  0  0
  5 18  1  0  0  0  0
  6 17  1  0  0  0  0
  6  9  2  0  0  0  0
  9  4  1  0  0  0  0
 10 13  1  0  0  0  0
 11 20  1  0  0  0  0
 12  8  1  0  0  0  0
 13 19  2  0  0  0  0
 13 15  1  0  0  0  0
 14  3  1  6  0  0  0
 14 10  1  0  0  0  0
 16  6  1  0  0  0  0
 17  2  2  0  0  0  0
 18  8  1  6  0  0  0
 18 14  1  0  0  0  0
 20 10  2  0  0  0  0
 20  1  1  0  0  0  0
 21  1  1  0  0  0  0
 21 22  1  0  0  0  0
 22 24  1  0  0  0  0
 23 28  1  0  0  0  0
 23 27  1  0  0  0  0
 24 28  2  0  0  0  0
 25 22  2  0  0  0  0
 25 26  1  0  0  0  0
 26 23  2  0  0  0  0
M  END
>  <MODEL>
7

>  <REMARK>
 VINA RESULT:      -8.9      2.256      5.758
  Name = 
  2 active torsions:
  status: ('A' for Active; 'I' for Inactive)
    1  A    between atoms: N_1  and  C_2
    2  A    between atoms: C_2  and  C_3
                            x       y       z     vdW  Elec       q    Type
                         _______ _______ _______ _____ _____    ______ ____

>  <TORSDO>
F 2

$$$$
=
 OpenBabel10262420523D

 28 32  0  0  1  0  0  0  0  0999 V2000
  184.9950  178.9960  141.8560 N   0  0  0  0  0  0  0  0  0  0  0  0
  189.6800  177.3300  140.4460 C   0  0  0  0  0  3  0  0  0  0  0  0
  186.7690  176.3780  145.0100 O   0  0  0  0  0  1  0  0  0  0  0  0
  190.8320  177.5060  142.5800 C   0  0  0  0  0  0  0  0  0  0  0  0
  188.2950  177.3660  142.5470 C   0  0  2  0  0  3  0  0  0  0  0  0
  192.0970  177.4070  140.5130 C   0  0  0  0  0  0  0  0  0  0  0  0
  189.6250  177.4520  141.8410 C   0  0  0  0  0  0  0  0  0  0  0  0
  189.5350  177.2260  144.7330 C   0  0  0  0  0  2  0  0  0  0  0  0
  192.0570  177.5030  141.9060 C   0  0  0  0  0  3  0  0  0  0  0  0
  185.9560  178.2620  143.8420 C   0  0  0  0  0  0  0  0  0  0  0  0
  187.2240  178.0410  141.7960 N   0  0  0  0  0  2  0  0  0  0  0  0
  190.8430  177.6650  144.0790 C   0  0  0  0  0  2  0  0  0  0  0  0
  184.7410  178.7330  144.1090 C   0  0  0  0  0  0  0  0  0  0  0  0
  187.0250  177.7250  144.7440 C   0  0  2  0  0  3  0  0  0  0  0  0
  184.1270  178.8130  145.4630 C   0  0  0  0  0  1  0  0  0  0  0  0
  193.3190  177.4000  139.8540 O   0  0  0  0  0  1  0  0  0  0  0  0
  190.9100  177.3170  139.7840 C   0  0  0  0  0  3  0  0  0  0  0  0
  188.3720  177.8840  144.0060 C   0  0  2  0  0  3  0  0  0  0  0  0
  184.0890  179.1820  142.9120 N   0  0  0  0  0  0  0  0  0  0  0  0
  186.1380  178.3800  142.4190 C   0  0  0  0  0  0  0  0  0  0  0  0
  184.6210  179.0030  140.4500 C   0  0  0  0  0  2  0  0  0  0  0  0
  183.2460  178.4540  140.2800 C   0  0  0  0  0  0  0  0  0  0  0  0
  180.6710  177.4310  139.8960 C   0  0  0  0  0  0  0  0  0  0  0  0
  183.0550  177.0760  140.1250 C   0  0  0  0  0  3  0  0  0  0  0  0
  182.1480  179.3190  140.2320 C   0  0  0  0  0  3  0  0  0  0  0  0
  180.8610  178.8080  140.0420 C   0  0  0  0  0  3  0  0  0  0  0  0
  179.4230  176.9350  139.7130 F   0  0  0  0  0  0  0  0  0  0  0  0
  181.7680  176.5650  139.9360 C   0  0  0  0  0  3  0  0  0  0  0  0
  1 20  1  0  0  0  0
  1 19  1  0  0  0  0
  2  7  1  0  0  0  0
  4 12  1  0  0  0  0
  5 11  1  6  0  0  0
  5 18  1  0  0  0  0
  6  9  2  0  0  0  0
  7  5  1  0  0  0  0
  7  4  2  0  0  0  0
  9  4  1  0  0  0  0
 10 13  1  0  0  0  0
 10 14  1  0  0  0  0
 11 20  1  0  0  0  0
 12  8  1  0  0  0  0
 13 15  1  0  0  0  0
 14  3  1  6  0  0  0
 16  6  1  0  0  0  0
 17  2  2  0  0  0  0
 17  6  1  0  0  0  0
 18  8  1  1  0  0  0
 18 14  1  0  0  0  0
 19 13  2  0  0  0  0
 20 10  2  0  0  0  0
 21  1  1  0  0  0  0
 22 21  1  0  0  0  0
 23 28  2  0  0  0  0
 23 26  1  0  0  0  0
 24 22  2  0  0  0  0
 25 22  1  0  0  0  0
 26 25  2  0  0  0  0
 27 23  1  0  0  0  0
 28 24  1  0  0  0  0
M  END
>  <MODEL>
8

>  <REMARK>
 VINA RESULT:      -8.8      3.920      6.980
  Name = 
  2 active torsions:
  status: ('A' for Active; 'I' for Inactive)
    1  A    between atoms: N_1  and  C_2
    2  A    between atoms: C_2  and  C_3
                            x       y       z     vdW  Elec       q    Type
                         _______ _______ _______ _____ _____    ______ ____

>  <TORSDO>
F 2

$$$$
=
 OpenBabel10262420523D

 28 32  0  0  1  0  0  0  0  0999 V2000
  189.2130  177.2740  146.2570 N   0  0  0  0  0  0  0  0  0  0  0  0
  186.5320  178.7710  142.1000 C   0  0  0  0  0  3  0  0  0  0  0  0
  185.8200  179.9330  147.4250 O   0  0  0  0  0  1  0  0  0  0  0  0
  184.2770  178.6260  142.9980 C   0  0  0  0  0  0  0  0  0  0  0  0
  186.2400  178.8340  144.5990 C   0  0  2  0  0  3  0  0  0  0  0  0
  184.6380  178.6310  140.6000 C   0  0  0  0  0  0  0  0  0  0  0  0
  185.6760  178.6920  143.2070 C   0  0  0  0  0  0  0  0  0  0  0  0
  183.8840  179.0030  145.4680 C   0  0  0  0  0  2  0  0  0  0  0  0
  183.7730  178.5770  141.6950 C   0  0  0  0  0  3  0  0  0  0  0  0
  187.1980  178.0390  147.1290 C   0  0  0  0  0  0  0  0  0  0  0  0
  187.5440  178.1660  144.7400 N   0  0  0  0  0  2  0  0  0  0  0  0
  183.3040  178.5100  144.1440 C   0  0  0  0  0  2  0  0  0  0  0  0
  187.9570  177.6080  148.1330 C   0  0  0  0  0  0  0  0  0  0  0  0
  185.7980  178.5720  147.1100 C   0  0  2  0  0  3  0  0  0  0  0  0
  187.5560  177.5840  149.5660 C   0  0  0  0  0  1  0  0  0  0  0  0
  184.1280  178.5860  139.3100 O   0  0  0  0  0  1  0  0  0  0  0  0
  186.0160  178.7320  140.8020 C   0  0  0  0  0  3  0  0  0  0  0  0
  185.2430  178.3560  145.6860 C   0  0  2  0  0  3  0  0  0  0  0  0
  189.2280  177.1430  147.6540 N   0  0  0  0  0  0  0  0  0  0  0  0
  187.9750  177.8750  145.9280 C   0  0  0  0  0  0  0  0  0  0  0  0
  190.4040  177.2370  145.4220 C   0  0  0  0  0  2  0  0  0  0  0  0
  190.0240  177.2010  143.9810 C   0  0  0  0  0  0  0  0  0  0  0  0
  189.3690  177.1100  141.2640 C   0  0  0  0  0  0  0  0  0  0  0  0
  189.4010  176.0660  143.4490 C   0  0  0  0  0  3  0  0  0  0  0  0
  190.3280  178.2850  143.1510 C   0  0  0  0  0  3  0  0  0  0  0  0
  189.9990  178.2400  141.7930 C   0  0  0  0  0  3  0  0  0  0  0  0
  189.0500  177.0670  139.9480 F   0  0  0  0  0  0  0  0  0  0  0  0
  189.0720  176.0230  142.0910 C   0  0  0  0  0  3  0  0  0  0  0  0
  1 19  1  0  0  0  0
  2  7  1  0  0  0  0
  4  7  2  0  0  0  0
  4 12  1  0  0  0  0
  5  7  1  6  0  0  0
  5 11  1  0  0  0  0
  5 18  1  0  0  0  0
  6 17  1  0  0  0  0
  6  9  2  0  0  0  0
  9  4  1  0  0  0  0
 10 13  1  0  0  0  0
 11 20  1  0  0  0  0
 12  8  1  0  0  0  0
 13 15  1  0  0  0  0
 14 10  1  0  0  0  0
 14  3  1  6  0  0  0
 16  6  1  0  0  0  0
 17  2  2  0  0  0  0
 18  8  1  1  0  0  0
 18 14  1  0  0  0  0
 19 13  2  0  0  0  0
 20  1  1  0  0  0  0
 20 10  2  0  0  0  0
 21  1  1  0  0  0  0
 22 21  1  0  0  0  0
 23 26  2  0  0  0  0
 23 28  1  0  0  0  0
 24 22  1  0  0  0  0
 25 22  2  0  0  0  0
 26 25  1  0  0  0  0
 27 23  1  0  0  0  0
 28 24  2  0  0  0  0
M  END
>  <MODEL>
9

>  <REMARK>
 VINA RESULT:      -8.6      2.177      5.552
  Name = 
  2 active torsions:
  status: ('A' for Active; 'I' for Inactive)
    1  A    between atoms: N_1  and  C_2
    2  A    between atoms: C_2  and  C_3
                            x       y       z     vdW  Elec       q    Type
                         _______ _______ _______ _____ _____    ______ ____

>  <TORSDO>
F 2

$$$$
