=
 OpenBabel10262419523D

 25 29  0  0  1  0  0  0  0  0999 V2000
  187.1790  177.8230  144.4020 N   0  0  0  0  0  0  0  0  0  0  0  0
  188.0620  176.8960  143.6870 C   0  0  1  0  0  3  0  0  0  0  0  0
  188.4370  177.7030  146.4430 C   0  0  0  0  0  3  0  0  0  0  0  0
  185.8530  178.1600  144.0150 C   0  0  0  0  0  0  0  0  0  0  0  0
  183.2020  178.8660  143.5430 C   0  0  0  0  0  3  0  0  0  0  0  0
  189.5270  177.0480  145.6950 C   0  0  0  0  0  3  0  0  0  0  0  0
  185.0900  178.7100  145.0340 C   0  0  0  0  0  0  0  0  0  0  0  0
  183.7580  179.0670  144.8140 C   0  0  0  0  0  3  0  0  0  0  0  0
  190.4690  176.1870  143.6340 N   0  0  0  0  0  0  0  0  0  0  0  0
  191.6550  175.6200  144.2570 C   0  0  0  0  0  1  0  0  0  0  0  0
  188.2700  177.3210  142.3000 N   0  0  0  0  0  0  0  0  0  0  0  0
  183.9750  178.3070  142.5120 C   0  0  0  0  0  3  0  0  0  0  0  0
  187.3370  178.0830  145.7970 C   0  0  0  0  0  0  0  0  0  0  0  0
  185.9400  178.8700  146.6060 S   0  0  0  0  0  0  0  0  0  0  0  0
  190.4130  176.3020  142.2360 N   0  0  0  0  0  2  0  0  0  0  0  0
  185.3090  177.9460  142.7450 C   0  0  0  0  0  3  0  0  0  0  0  0
  189.3200  176.9870  141.6040 C   0  0  0  0  0  0  0  0  0  0  0  0
  189.3820  176.7160  144.4030 C   0  0  0  0  0  0  0  0  0  0  0  0
  190.3690  177.0590  137.9820 C   0  0  0  0  0  0  0  0  0  0  0  0
  189.4160  177.3700  140.1830 C   0  0  0  0  0  0  0  0  0  0  0  0
  190.2890  176.6880  139.3260 C   0  0  0  0  0  3  0  0  0  0  0  0
  191.2940  176.3400  137.0670 C   0  0  0  0  0  1  0  0  0  0  0  0
  188.6370  178.4150  139.6680 C   0  0  0  0  0  3  0  0  0  0  0  0
  189.6030  178.0790  137.5100 N   0  0  0  0  0  0  0  0  0  0  0  0
  188.7460  178.7580  138.3190 C   0  0  0  0  0  3  0  0  0  0  0  0
  1 13  1  0  0  0  0
  2 11  1  6  0  0  0
  2  1  1  0  0  0  0
  2 18  1  0  0  0  0
  4  1  1  0  0  0  0
  4  7  1  0  0  0  0
  5  8  1  0  0  0  0
  6  3  1  0  0  0  0
  7 14  1  0  0  0  0
  8  7  2  0  0  0  0
  9 10  1  0  0  0  0
  9 18  1  0  0  0  0
 12 16  1  0  0  0  0
 12  5  2  0  0  0  0
 13  3  2  0  0  0  0
 13 14  1  0  0  0  0
 15  9  1  0  0  0  0
 16  4  2  0  0  0  0
 17 15  1  0  0  0  0
 17 11  2  0  0  0  0
 18  6  2  0  0  0  0
 19 21  1  0  0  0  0
 20 17  1  0  0  0  0
 21 20  2  0  0  0  0
 22 19  1  0  0  0  0
 23 20  1  0  0  0  0
 24 19  2  0  0  0  0
 24 25  1  0  0  0  0
 25 23  2  0  0  0  0
M  END
>  <MODEL>
1

>  <REMARK>
 VINA RESULT:     -10.1      0.000      0.000
  Name = 
  1 active torsions:
  status: ('A' for Active; 'I' for Inactive)
    1  A    between atoms: C_6  and  C_23
                            x       y       z     vdW  Elec       q    Type
                         _______ _______ _______ _____ _____    ______ ____

>  <TORSDO>
F 1

$$$$
=
 OpenBabel10262419523D

 25 29  0  0  1  0  0  0  0  0999 V2000
  187.5430  177.9410  145.6500 N   0  0  0  0  0  0  0  0  0  0  0  0
  188.5960  176.9890  145.2780 C   0  0  1  0  0  3  0  0  0  0  0  0
  188.3030  178.1420  147.9180 C   0  0  0  0  0  3  0  0  0  0  0  0
  186.3310  178.1480  144.9360 C   0  0  0  0  0  0  0  0  0  0  0  0
  183.8390  178.6320  143.7940 C   0  0  0  0  0  3  0  0  0  0  0  0
  189.5550  177.4700  147.5250 C   0  0  0  0  0  3  0  0  0  0  0  0
  185.3380  178.7700  145.6770 C   0  0  0  0  0  0  0  0  0  0  0  0
  184.0820  179.0170  145.1200 C   0  0  0  0  0  3  0  0  0  0  0  0
  190.9710  176.4250  145.8570 N   0  0  0  0  0  0  0  0  0  0  0  0
  192.0000  176.0100  146.7980 C   0  0  0  0  0  1  0  0  0  0  0  0
  189.1020  177.2570  143.9290 N   0  0  0  0  0  0  0  0  0  0  0  0
  184.8450  178.0010  143.0440 C   0  0  0  0  0  3  0  0  0  0  0  0
  187.3690  178.3750  146.9980 C   0  0  0  0  0  0  0  0  0  0  0  0
  185.7990  179.1680  147.3650 S   0  0  0  0  0  0  0  0  0  0  0  0
  191.2340  176.3680  144.4790 N   0  0  0  0  0  2  0  0  0  0  0  0
  186.1000  177.7510  143.6150 C   0  0  0  0  0  3  0  0  0  0  0  0
  190.2940  176.9060  143.5340 C   0  0  0  0  0  0  0  0  0  0  0  0
  189.7210  176.9760  146.2870 C   0  0  0  0  0  0  0  0  0  0  0  0
  190.1450  177.3300  139.7900 C   0  0  0  0  0  0  0  0  0  0  0  0
  190.7020  177.1200  142.1330 C   0  0  0  0  0  0  0  0  0  0  0  0
  189.7450  177.1230  141.1120 C   0  0  0  0  0  3  0  0  0  0  0  0
  189.1340  177.3330  138.7000 C   0  0  0  0  0  1  0  0  0  0  0  0
  192.0490  177.3270  141.8040 C   0  0  0  0  0  3  0  0  0  0  0  0
  191.4590  177.5250  139.4980 N   0  0  0  0  0  0  0  0  0  0  0  0
  192.4100  177.5280  140.4710 C   0  0  0  0  0  3  0  0  0  0  0  0
  1 13  1  0  0  0  0
  2 11  1  6  0  0  0
  2  1  1  0  0  0  0
  2 18  1  0  0  0  0
  4  1  1  0  0  0  0
  4  7  1  0  0  0  0
  5  8  1  0  0  0  0
  6  3  1  0  0  0  0
  7 14  1  0  0  0  0
  8  7  2  0  0  0  0
  9 18  1  0  0  0  0
  9 10  1  0  0  0  0
 12 16  1  0  0  0  0
 12  5  2  0  0  0  0
 13 14  1  0  0  0  0
 13  3  2  0  0  0  0
 15  9  1  0  0  0  0
 16  4  2  0  0  0  0
 17 11  2  0  0  0  0
 17 15  1  0  0  0  0
 18  6  2  0  0  0  0
 19 21  1  0  0  0  0
 20 17  1  0  0  0  0
 21 20  2  0  0  0  0
 22 19  1  0  0  0  0
 23 20  1  0  0  0  0
 24 19  2  0  0  0  0
 24 25  1  0  0  0  0
 25 23  2  0  0  0  0
M  END
>  <MODEL>
2

>  <REMARK>
 VINA RESULT:      -9.7      1.529      2.121
  Name = 
  1 active torsions:
  status: ('A' for Active; 'I' for Inactive)
    1  A    between atoms: C_6  and  C_23
                            x       y       z     vdW  Elec       q    Type
                         _______ _______ _______ _____ _____    ______ ____

>  <TORSDO>
F 1

$$$$
=
 OpenBabel10262419523D

 25 29  0  0  1  0  0  0  0  0999 V2000
  188.3640  177.4920  143.1270 N   0  0  0  0  0  0  0  0  0  0  0  0
  187.3740  178.3780  143.7500 C   0  0  1  0  0  3  0  0  0  0  0  0
  189.3010  176.7980  145.2260 C   0  0  0  0  0  3  0  0  0  0  0  0
  188.7810  177.5500  141.7690 C   0  0  0  0  0  0  0  0  0  0  0  0
  189.8540  177.5520  139.2010 C   0  0  0  0  0  3  0  0  0  0  0  0
  188.1370  177.3940  145.9070 C   0  0  0  0  0  3  0  0  0  0  0  0
  189.9870  176.9120  141.5210 C   0  0  0  0  0  0  0  0  0  0  0  0
  190.5400  176.9060  140.2390 C   0  0  0  0  0  3  0  0  0  0  0  0
  186.0180  178.5690  145.8520 N   0  0  0  0  0  0  0  0  0  0  0  0
  185.8970  178.6930  147.2970 C   0  0  0  0  0  1  0  0  0  0  0  0
  186.0870  178.3090  143.0540 N   0  0  0  0  0  0  0  0  0  0  0  0
  188.6330  178.1990  139.4530 C   0  0  0  0  0  3  0  0  0  0  0  0
  189.3740  176.8390  143.8960 C   0  0  0  0  0  0  0  0  0  0  0  0
  190.7510  176.1640  142.9620 S   0  0  0  0  0  0  0  0  0  0  0  0
  184.9060  178.8490  145.0420 N   0  0  0  0  0  2  0  0  0  0  0  0
  188.0900  178.2040  140.7450 C   0  0  0  0  0  3  0  0  0  0  0  0
  184.9520  178.5980  143.6280 C   0  0  0  0  0  0  0  0  0  0  0  0
  187.2110  178.0850  145.2240 C   0  0  0  0  0  0  0  0  0  0  0  0
  181.3210  178.9680  142.6800 C   0  0  0  0  0  0  0  0  0  0  0  0
  183.7050  178.6020  142.8400 C   0  0  0  0  0  0  0  0  0  0  0  0
  182.4940  178.9670  143.4380 C   0  0  0  0  0  3  0  0  0  0  0  0
  180.0310  179.3540  143.3100 C   0  0  0  0  0  1  0  0  0  0  0  0
  183.7140  178.2450  141.4840 C   0  0  0  0  0  3  0  0  0  0  0  0
  181.3580  178.6160  141.3670 N   0  0  0  0  0  0  0  0  0  0  0  0
  182.5210  178.2570  140.7600 C   0  0  0  0  0  3  0  0  0  0  0  0
  1  2  1  0  0  0  0
  1 13  1  0  0  0  0
  2 11  1  6  0  0  0
  2 18  1  0  0  0  0
  3  6  1  0  0  0  0
  4  1  1  0  0  0  0
  5 12  2  0  0  0  0
  5  8  1  0  0  0  0
  7  4  1  0  0  0  0
  7 14  1  0  0  0  0
  8  7  2  0  0  0  0
  9 10  1  0  0  0  0
 11 17  2  0  0  0  0
 12 16  1  0  0  0  0
 13  3  2  0  0  0  0
 14 13  1  0  0  0  0
 15  9  1  0  0  0  0
 16  4  2  0  0  0  0
 17 15  1  0  0  0  0
 18  9  1  0  0  0  0
 18  6  2  0  0  0  0
 19 22  1  0  0  0  0
 19 21  1  0  0  0  0
 20 21  2  0  0  0  0
 20 17  1  0  0  0  0
 23 20  1  0  0  0  0
 24 19  2  0  0  0  0
 25 24  1  0  0  0  0
 25 23  2  0  0  0  0
M  END
>  <MODEL>
3

>  <REMARK>
 VINA RESULT:      -9.0      2.350      6.404
  Name = 
  1 active torsions:
  status: ('A' for Active; 'I' for Inactive)
    1  A    between atoms: C_6  and  C_23
                            x       y       z     vdW  Elec       q    Type
                         _______ _______ _______ _____ _____    ______ ____

>  <TORSDO>
F 1

$$$$
=
 OpenBabel10262419523D

 25 29  0  0  1  0  0  0  0  0999 V2000
  187.2780  178.0030  143.1190 N   0  0  0  0  0  0  0  0  0  0  0  0
  187.1460  178.6530  141.8100 C   0  0  1  0  0  3  0  0  0  0  0  0
  184.9490  178.2390  143.6510 C   0  0  0  0  0  3  0  0  0  0  0  0
  188.4960  177.8270  143.8310 C   0  0  0  0  0  0  0  0  0  0  0  0
  190.7190  177.4880  145.4720 C   0  0  0  0  0  3  0  0  0  0  0  0
  184.6940  178.5850  142.2400 C   0  0  0  0  0  3  0  0  0  0  0  0
  188.3270  177.5720  145.1840 C   0  0  0  0  0  0  0  0  0  0  0  0
  189.4320  177.4030  146.0210 C   0  0  0  0  0  3  0  0  0  0  0  0
  185.4660  178.9500  139.9710 N   0  0  0  0  0  0  0  0  0  0  0  0
  184.1810  179.4110  139.4670 C   0  0  0  0  0  1  0  0  0  0  0  0
  187.9730  177.9870  140.8000 N   0  0  0  0  0  0  0  0  0  0  0  0
  190.8890  177.7470  144.1020 C   0  0  0  0  0  3  0  0  0  0  0  0
  186.1880  177.9440  144.0390 C   0  0  0  0  0  0  0  0  0  0  0  0
  186.6190  177.5270  145.7320 S   0  0  0  0  0  0  0  0  0  0  0  0
  186.4860  178.6270  139.0630 N   0  0  0  0  0  2  0  0  0  0  0  0
  189.7730  177.9220  143.2720 C   0  0  0  0  0  3  0  0  0  0  0  0
  187.7120  178.0350  139.5240 C   0  0  0  0  0  0  0  0  0  0  0  0
  185.7030  178.7300  141.3660 C   0  0  0  0  0  0  0  0  0  0  0  0
  190.8470  176.6180  137.9790 C   0  0  0  0  0  0  0  0  0  0  0  0
  188.6420  177.4240  138.5560 C   0  0  0  0  0  0  0  0  0  0  0  0
  189.9780  177.1990  138.9060 C   0  0  0  0  0  3  0  0  0  0  0  0
  192.2680  176.3780  138.3440 C   0  0  0  0  0  1  0  0  0  0  0  0
  188.2030  177.0560  137.2760 C   0  0  0  0  0  3  0  0  0  0  0  0
  190.3950  176.2720  136.7440 N   0  0  0  0  0  0  0  0  0  0  0  0
  189.1010  176.4780  136.3780 C   0  0  0  0  0  3  0  0  0  0  0  0
  1  4  1  0  0  0  0
  1 13  1  0  0  0  0
  2 11  1  6  0  0  0
  2  1  1  0  0  0  0
  3 13  2  0  0  0  0
  4  7  1  0  0  0  0
  5  8  1  0  0  0  0
  6  3  1  0  0  0  0
  7 14  1  0  0  0  0
  7  8  2  0  0  0  0
  9 18  1  0  0  0  0
 10  9  1  0  0  0  0
 12  5  2  0  0  0  0
 13 14  1  0  0  0  0
 15 17  1  0  0  0  0
 15  9  1  0  0  0  0
 16  4  2  0  0  0  0
 16 12  1  0  0  0  0
 17 11  2  0  0  0  0
 18  2  1  0  0  0  0
 18  6  2  0  0  0  0
 19 22  1  0  0  0  0
 19 21  1  0  0  0  0
 20 21  2  0  0  0  0
 20 17  1  0  0  0  0
 23 20  1  0  0  0  0
 24 19  2  0  0  0  0
 25 24  1  0  0  0  0
 25 23  2  0  0  0  0
M  END
>  <MODEL>
4

>  <REMARK>
 VINA RESULT:      -9.0      1.857      4.466
  Name = 
  1 active torsions:
  status: ('A' for Active; 'I' for Inactive)
    1  A    between atoms: C_6  and  C_23
                            x       y       z     vdW  Elec       q    Type
                         _______ _______ _______ _____ _____    ______ ____

>  <TORSDO>
F 1

$$$$
=
 OpenBabel10262419523D

 25 29  0  0  1  0  0  0  0  0999 V2000
  187.2540  177.9950  143.2930 N   0  0  0  0  0  0  0  0  0  0  0  0
  187.2020  178.6490  141.9800 C   0  0  1  0  0  3  0  0  0  0  0  0
  184.8930  178.2070  143.6710 C   0  0  0  0  0  3  0  0  0  0  0  0
  188.4240  177.8270  144.0820 C   0  0  0  0  0  0  0  0  0  0  0  0
  190.5390  177.5030  145.8640 C   0  0  0  0  0  3  0  0  0  0  0  0
  184.7280  178.5560  142.2480 C   0  0  0  0  0  3  0  0  0  0  0  0
  188.1700  177.5660  145.4200 C   0  0  0  0  0  0  0  0  0  0  0  0
  189.2190  177.4030  146.3270 C   0  0  0  0  0  3  0  0  0  0  0  0
  185.6430  178.9380  140.0360 N   0  0  0  0  0  0  0  0  0  0  0  0
  184.3900  179.3880  139.4500 C   0  0  0  0  0  1  0  0  0  0  0  0
  188.1000  177.9940  141.0240 N   0  0  0  0  0  0  0  0  0  0  0  0
  190.7960  177.7690  144.5090 C   0  0  0  0  0  3  0  0  0  0  0  0
  186.1070  177.9220  144.1390 C   0  0  0  0  0  0  0  0  0  0  0  0
  186.4310  177.5030  145.8550 S   0  0  0  0  0  0  0  0  0  0  0  0
  186.7240  178.6280  139.1950 N   0  0  0  0  0  2  0  0  0  0  0  0
  189.7350  177.9370  143.6090 C   0  0  0  0  0  3  0  0  0  0  0  0
  187.9230  178.0450  139.7340 C   0  0  0  0  0  0  0  0  0  0  0  0
  185.7910  178.7140  141.4430 C   0  0  0  0  0  0  0  0  0  0  0  0
  189.7110  176.9710  136.5920 C   0  0  0  0  0  0  0  0  0  0  0  0
  188.9190  177.4460  138.8260 C   0  0  0  0  0  0  0  0  0  0  0  0
  188.7580  177.5410  137.4390 C   0  0  0  0  0  3  0  0  0  0  0  0
  189.5450  177.0670  135.1180 C   0  0  0  0  0  1  0  0  0  0  0  0
  190.0420  176.7780  139.3360 C   0  0  0  0  0  3  0  0  0  0  0  0
  190.7890  176.3270  137.1140 N   0  0  0  0  0  0  0  0  0  0  0  0
  190.9710  176.2200  138.4570 C   0  0  0  0  0  3  0  0  0  0  0  0
  1  4  1  0  0  0  0
  1 13  1  0  0  0  0
  2 11  1  6  0  0  0
  2  1  1  0  0  0  0
  3 13  2  0  0  0  0
  4  7  1  0  0  0  0
  5  8  1  0  0  0  0
  6  3  1  0  0  0  0
  7 14  1  0  0  0  0
  7  8  2  0  0  0  0
  9 18  1  0  0  0  0
 10  9  1  0  0  0  0
 12  5  2  0  0  0  0
 13 14  1  0  0  0  0
 15 17  1  0  0  0  0
 15  9  1  0  0  0  0
 16  4  2  0  0  0  0
 16 12  1  0  0  0  0
 17 11  2  0  0  0  0
 18  2  1  0  0  0  0
 18  6  2  0  0  0  0
 19 24  2  0  0  0  0
 19 21  1  0  0  0  0
 20 23  1  0  0  0  0
 20 17  1  0  0  0  0
 21 20  2  0  0  0  0
 22 19  1  0  0  0  0
 24 25  1  0  0  0  0
 25 23  2  0  0  0  0
M  END
>  <MODEL>
5

>  <REMARK>
 VINA RESULT:      -8.9      1.809      4.442
  Name = 
  1 active torsions:
  status: ('A' for Active; 'I' for Inactive)
    1  A    between atoms: C_6  and  C_23
                            x       y       z     vdW  Elec       q    Type
                         _______ _______ _______ _____ _____    ______ ____

>  <TORSDO>
F 1

$$$$
=
 OpenBabel10262419523D

 25 29  0  0  1  0  0  0  0  0999 V2000
  188.4140  177.4880  143.1300 N   0  0  0  0  0  0  0  0  0  0  0  0
  187.4230  178.3770  143.7460 C   0  0  1  0  0  3  0  0  0  0  0  0
  189.3400  176.7970  145.2340 C   0  0  0  0  0  3  0  0  0  0  0  0
  188.8370  177.5420  141.7740 C   0  0  0  0  0  0  0  0  0  0  0  0
  189.9230  177.5370  139.2100 C   0  0  0  0  0  3  0  0  0  0  0  0
  188.1740  177.3970  145.9080 C   0  0  0  0  0  3  0  0  0  0  0  0
  190.0440  176.9020  141.5330 C   0  0  0  0  0  0  0  0  0  0  0  0
  190.6030  176.8920  140.2530 C   0  0  0  0  0  3  0  0  0  0  0  0
  186.0560  178.5760  145.8400 N   0  0  0  0  0  0  0  0  0  0  0  0
  185.9290  178.7030  147.2840 C   0  0  0  0  0  1  0  0  0  0  0  0
  186.1380  178.3090  143.0440 N   0  0  0  0  0  0  0  0  0  0  0  0
  188.7020  178.1860  139.4550 C   0  0  0  0  0  3  0  0  0  0  0  0
  189.4190  176.8350  143.9050 C   0  0  0  0  0  0  0  0  0  0  0  0
  190.7990  176.1560  142.9790 S   0  0  0  0  0  0  0  0  0  0  0  0
  184.9490  178.8560  145.0240 N   0  0  0  0  0  2  0  0  0  0  0  0
  188.1530  178.1950  140.7440 C   0  0  0  0  0  3  0  0  0  0  0  0
  185.0020  178.6010  143.6110 C   0  0  0  0  0  0  0  0  0  0  0  0
  187.2510  178.0890  145.2200 C   0  0  0  0  0  0  0  0  0  0  0  0
  182.5930  178.2260  140.7330 C   0  0  0  0  0  0  0  0  0  0  0  0
  183.7590  178.6060  142.8170 C   0  0  0  0  0  0  0  0  0  0  0  0
  183.7780  178.2190  141.4720 C   0  0  0  0  0  3  0  0  0  0  0  0
  182.6080  177.8170  139.3040 C   0  0  0  0  0  1  0  0  0  0  0  0
  182.5410  178.9920  143.3960 C   0  0  0  0  0  3  0  0  0  0  0  0
  181.4270  178.6070  141.3190 N   0  0  0  0  0  0  0  0  0  0  0  0
  181.3780  178.9870  142.6250 C   0  0  0  0  0  3  0  0  0  0  0  0
  1  2  1  0  0  0  0
  1 13  1  0  0  0  0
  2 11  1  6  0  0  0
  2 18  1  0  0  0  0
  3  6  1  0  0  0  0
  4  1  1  0  0  0  0
  5 12  2  0  0  0  0
  5  8  1  0  0  0  0
  7  4  1  0  0  0  0
  7 14  1  0  0  0  0
  8  7  2  0  0  0  0
  9 10  1  0  0  0  0
 11 17  2  0  0  0  0
 12 16  1  0  0  0  0
 13  3  2  0  0  0  0
 14 13  1  0  0  0  0
 15  9  1  0  0  0  0
 16  4  2  0  0  0  0
 17 15  1  0  0  0  0
 18  9  1  0  0  0  0
 18  6  2  0  0  0  0
 19 24  2  0  0  0  0
 19 21  1  0  0  0  0
 20 23  1  0  0  0  0
 20 17  1  0  0  0  0
 21 20  2  0  0  0  0
 22 19  1  0  0  0  0
 24 25  1  0  0  0  0
 25 23  2  0  0  0  0
M  END
>  <MODEL>
6

>  <REMARK>
 VINA RESULT:      -8.9      2.359      6.042
  Name = 
  1 active torsions:
  status: ('A' for Active; 'I' for Inactive)
    1  A    between atoms: C_6  and  C_23
                            x       y       z     vdW  Elec       q    Type
                         _______ _______ _______ _____ _____    ______ ____

>  <TORSDO>
F 1

$$$$
=
 OpenBabel10262419523D

 25 29  0  0  1  0  0  0  0  0999 V2000
  185.5030  178.3900  141.5240 N   0  0  0  0  0  0  0  0  0  0  0  0
  186.9200  178.7250  141.3390 C   0  0  1  0  0  3  0  0  0  0  0  0
  185.0610  178.2540  139.1690 C   0  0  0  0  0  3  0  0  0  0  0  0
  184.7550  178.6080  142.7130 C   0  0  0  0  0  0  0  0  0  0  0  0
  183.0520  179.0580  144.8690 C   0  0  0  0  0  3  0  0  0  0  0  0
  186.5160  178.2530  138.9270 C   0  0  0  0  0  3  0  0  0  0  0  0
  183.3810  178.6000  142.5250 C   0  0  0  0  0  0  0  0  0  0  0  0
  182.5140  178.8270  143.5950 C   0  0  0  0  0  3  0  0  0  0  0  0
  188.8010  178.3040  139.7340 N   0  0  0  0  0  0  0  0  0  0  0  0
  189.4060  178.3860  138.4130 C   0  0  0  0  0  1  0  0  0  0  0  0
  187.7600  178.0500  142.3320 N   0  0  0  0  0  0  0  0  0  0  0  0
  184.4440  179.0670  145.0580 C   0  0  0  0  0  3  0  0  0  0  0  0
  184.6050  178.2970  140.4190 C   0  0  0  0  0  0  0  0  0  0  0  0
  182.8570  178.3240  140.8320 S   0  0  0  0  0  0  0  0  0  0  0  0
  189.6100  178.0180  140.8450 N   0  0  0  0  0  2  0  0  0  0  0  0
  185.3060  178.8440  143.9760 C   0  0  0  0  0  3  0  0  0  0  0  0
  189.0220  177.7890  142.1360 C   0  0  0  0  0  0  0  0  0  0  0  0
  187.3880  178.4190  139.9340 C   0  0  0  0  0  0  0  0  0  0  0  0
  190.2820  176.8710  145.5700 C   0  0  0  0  0  0  0  0  0  0  0  0
  189.8310  177.1960  143.2170 C   0  0  0  0  0  0  0  0  0  0  0  0
  189.5080  177.4400  144.5560 C   0  0  0  0  0  3  0  0  0  0  0  0
  189.9440  177.1280  146.9940 C   0  0  0  0  0  1  0  0  0  0  0  0
  190.9300  176.3770  142.9210 C   0  0  0  0  0  3  0  0  0  0  0  0
  191.3440  176.0830  145.2550 N   0  0  0  0  0  0  0  0  0  0  0  0
  191.6800  175.8270  143.9620 C   0  0  0  0  0  3  0  0  0  0  0  0
  1  4  1  0  0  0  0
  2 18  1  6  0  0  0
  2  1  1  0  0  0  0
  2 11  1  0  0  0  0
  3 13  2  0  0  0  0
  4 16  1  0  0  0  0
  5 12  1  0  0  0  0
  6  3  1  0  0  0  0
  6 18  2  0  0  0  0
  7  4  2  0  0  0  0
  7  8  1  0  0  0  0
  8  5  2  0  0  0  0
  9 18  1  0  0  0  0
  9 15  1  0  0  0  0
 10  9  1  0  0  0  0
 13 14  1  0  0  0  0
 13  1  1  0  0  0  0
 14  7  1  0  0  0  0
 15 17  1  0  0  0  0
 16 12  2  0  0  0  0
 17 11  2  0  0  0  0
 17 20  1  0  0  0  0
 19 22  1  0  0  0  0
 20 21  1  0  0  0  0
 21 19  2  0  0  0  0
 23 20  2  0  0  0  0
 23 25  1  0  0  0  0
 24 19  1  0  0  0  0
 25 24  2  0  0  0  0
M  END
>  <MODEL>
7

>  <REMARK>
 VINA RESULT:      -8.8      2.086      5.235
  Name = 
  1 active torsions:
  status: ('A' for Active; 'I' for Inactive)
    1  A    between atoms: C_6  and  C_23
                            x       y       z     vdW  Elec       q    Type
                         _______ _______ _______ _____ _____    ______ ____

>  <TORSDO>
F 1

$$$$
=
 OpenBabel10262419523D

 25 29  0  0  1  0  0  0  0  0999 V2000
  184.4720  178.3340  140.9180 N   0  0  0  0  0  0  0  0  0  0  0  0
  185.8520  178.8020  141.0810 C   0  0  1  0  0  3  0  0  0  0  0  0
  184.6930  178.0030  138.5500 C   0  0  0  0  0  3  0  0  0  0  0  0
  183.4150  178.5480  141.8450 C   0  0  0  0  0  0  0  0  0  0  0  0
  181.1630  178.9550  143.4300 C   0  0  0  0  0  3  0  0  0  0  0  0
  186.1540  178.1380  138.7000 C   0  0  0  0  0  3  0  0  0  0  0  0
  182.1480  178.3860  141.3040 C   0  0  0  0  0  0  0  0  0  0  0  0
  181.0090  178.5890  142.0850 C   0  0  0  0  0  3  0  0  0  0  0  0
  188.1250  178.4780  140.0690 N   0  0  0  0  0  0  0  0  0  0  0  0
  189.0540  178.5390  138.9510 C   0  0  0  0  0  1  0  0  0  0  0  0
  186.4470  178.2840  142.3160 N   0  0  0  0  0  0  0  0  0  0  0  0
  182.4470  179.1210  143.9760 C   0  0  0  0  0  3  0  0  0  0  0  0
  183.9150  178.0780  139.6290 C   0  0  0  0  0  0  0  0  0  0  0  0
  182.1250  177.9480  139.5650 S   0  0  0  0  0  0  0  0  0  0  0  0
  188.6260  178.3500  141.3740 N   0  0  0  0  0  2  0  0  0  0  0  0
  183.5840  178.9210  143.1810 C   0  0  0  0  0  3  0  0  0  0  0  0
  187.7330  178.1430  142.4810 C   0  0  0  0  0  0  0  0  0  0  0  0
  186.7060  178.4580  139.8810 C   0  0  0  0  0  0  0  0  0  0  0  0
  190.1140  176.9670  145.1580 C   0  0  0  0  0  0  0  0  0  0  0  0
  188.2670  177.7080  143.7850 C   0  0  0  0  0  0  0  0  0  0  0  0
  189.6210  177.3760  143.9170 C   0  0  0  0  0  3  0  0  0  0  0  0
  191.5500  176.6120  145.3050 C   0  0  0  0  0  1  0  0  0  0  0  0
  187.4330  177.6230  144.9090 C   0  0  0  0  0  3  0  0  0  0  0  0
  189.2820  176.8920  146.2310 N   0  0  0  0  0  0  0  0  0  0  0  0
  187.9630  177.2100  146.1320 C   0  0  0  0  0  3  0  0  0  0  0  0
  1  2  1  0  0  0  0
  1  4  1  0  0  0  0
  2 18  1  6  0  0  0
  2 11  1  0  0  0  0
  3  6  1  0  0  0  0
  3 13  2  0  0  0  0
  4 16  1  0  0  0  0
  5 12  1  0  0  0  0
  6 18  2  0  0  0  0
  7  4  2  0  0  0  0
  7  8  1  0  0  0  0
  8  5  2  0  0  0  0
  9 15  1  0  0  0  0
 10  9  1  0  0  0  0
 11 17  2  0  0  0  0
 13  1  1  0  0  0  0
 14 13  1  0  0  0  0
 14  7  1  0  0  0  0
 15 17  1  0  0  0  0
 16 12  2  0  0  0  0
 17 20  1  0  0  0  0
 18  9  1  0  0  0  0
 19 22  1  0  0  0  0
 19 24  1  0  0  0  0
 20 21  1  0  0  0  0
 20 23  2  0  0  0  0
 21 19  2  0  0  0  0
 23 25  1  0  0  0  0
 25 24  2  0  0  0  0
M  END
>  <MODEL>
8

>  <REMARK>
 VINA RESULT:      -8.6      2.610      5.627
  Name = 
  1 active torsions:
  status: ('A' for Active; 'I' for Inactive)
    1  A    between atoms: C_6  and  C_23
                            x       y       z     vdW  Elec       q    Type
                         _______ _______ _______ _____ _____    ______ ____

>  <TORSDO>
F 1

$$$$
=
 OpenBabel10262419523D

 25 29  0  0  1  0  0  0  0  0999 V2000
  185.2000  178.2920  143.6470 N   0  0  0  0  0  0  0  0  0  0  0  0
  186.3940  177.4410  143.6980 C   0  0  1  0  0  3  0  0  0  0  0  0
  185.2700  178.8070  145.9910 C   0  0  0  0  0  3  0  0  0  0  0  0
  184.2260  178.2820  142.6120 C   0  0  0  0  0  0  0  0  0  0  0  0
  182.1230  178.3490  140.7890 C   0  0  0  0  0  3  0  0  0  0  0  0
  186.6360  178.2530  146.0390 C   0  0  0  0  0  3  0  0  0  0  0  0
  183.0130  178.8510  142.9720 C   0  0  0  0  0  0  0  0  0  0  0  0
  181.9490  178.8910  142.0700 C   0  0  0  0  0  3  0  0  0  0  0  0
  188.5490  177.2240  144.9630 N   0  0  0  0  0  0  0  0  0  0  0  0
  189.3040  177.0290  146.1920 C   0  0  0  0  0  1  0  0  0  0  0  0
  187.2350  177.6320  142.5130 N   0  0  0  0  0  0  0  0  0  0  0  0
  183.3510  177.7710  140.4250 C   0  0  0  0  0  3  0  0  0  0  0  0
  184.6160  178.8340  144.8310 C   0  0  0  0  0  0  0  0  0  0  0  0
  182.9440  179.4670  144.6560 S   0  0  0  0  0  0  0  0  0  0  0  0
  189.1940  177.0620  143.7270 N   0  0  0  0  0  2  0  0  0  0  0  0
  184.4110  177.7310  141.3410 C   0  0  0  0  0  3  0  0  0  0  0  0
  188.5150  177.3870  142.5030 C   0  0  0  0  0  0  0  0  0  0  0  0
  187.1860  177.6620  144.9660 C   0  0  0  0  0  0  0  0  0  0  0  0
  189.4280  178.1860  138.9320 C   0  0  0  0  0  0  0  0  0  0  0  0
  189.2810  177.5090  141.2480 C   0  0  0  0  0  0  0  0  0  0  0  0
  188.6900  178.0750  140.1120 C   0  0  0  0  0  3  0  0  0  0  0  0
  188.8070  178.7850  137.7220 C   0  0  0  0  0  1  0  0  0  0  0  0
  190.6090  177.0640  141.1740 C   0  0  0  0  0  3  0  0  0  0  0  0
  190.7140  177.7440  138.8870 N   0  0  0  0  0  0  0  0  0  0  0  0
  191.3130  177.1900  139.9760 C   0  0  0  0  0  3  0  0  0  0  0  0
  1  2  1  0  0  0  0
  1 13  1  0  0  0  0
  2 11  1  6  0  0  0
  2 18  1  0  0  0  0
  3  6  1  0  0  0  0
  4  7  1  0  0  0  0
  4  1  1  0  0  0  0
  5  8  1  0  0  0  0
  7 14  1  0  0  0  0
  8  7  2  0  0  0  0
  9 18  1  0  0  0  0
  9 10  1  0  0  0  0
 12  5  2  0  0  0  0
 12 16  1  0  0  0  0
 13  3  2  0  0  0  0
 14 13  1  0  0  0  0
 15  9  1  0  0  0  0
 16  4  2  0  0  0  0
 17 11  2  0  0  0  0
 17 15  1  0  0  0  0
 18  6  2  0  0  0  0
 19 21  1  0  0  0  0
 20 17  1  0  0  0  0
 21 20  2  0  0  0  0
 22 19  1  0  0  0  0
 23 20  1  0  0  0  0
 24 19  2  0  0  0  0
 24 25  1  0  0  0  0
 25 23  2  0  0  0  0
M  END
>  <MODEL>
9

>  <REMARK>
 VINA RESULT:      -8.6      1.615      2.592
  Name = 
  1 active torsions:
  status: ('A' for Active; 'I' for Inactive)
    1  A    between atoms: C_6  and  C_23
                            x       y       z     vdW  Elec       q    Type
                         _______ _______ _______ _____ _____    ______ ____

>  <TORSDO>
F 1

$$$$
