=
 OpenBabel10262421423D

 32 37  0  0  0  0  0  0  0  0999 V2000
  181.6180  178.5660  142.2610 C   0  0  0  0  0  0  0  0  0  0  0  0
  186.6500  178.4420  143.1930 N   0  0  0  0  0  0  0  0  0  0  0  0
  187.4000  178.2690  139.4540 C   0  0  0  0  0  2  0  0  0  0  0  0
  189.6640  177.2790  139.2180 C   0  0  0  0  0  2  0  0  0  0  0  0
  188.0150  177.6740  145.0730 N   0  0  0  0  0  0  0  0  0  0  0  0
  189.1670  177.1930  145.6060 C   0  0  0  0  0  0  0  0  0  0  0  0
  184.1660  178.7380  143.4310 C   0  0  0  0  0  0  0  0  0  0  0  0
  185.2130  179.0050  141.1480 C   0  0  0  0  0  2  0  0  0  0  0  0
  191.5580  176.1970  146.7850 C   0  0  0  0  0  3  0  0  0  0  0  0
  182.7590  178.6920  141.4550 C   0  0  0  0  0  3  0  0  0  0  0  0
  188.7340  178.3750  138.7280 C   0  0  0  0  0  2  0  0  0  0  0  0
  186.5100  178.5240  141.7550 C   0  0  0  0  0  0  0  0  0  0  0  0
  187.5590  178.2410  140.9570 C   0  0  0  0  0  0  0  0  0  0  0  0
  188.9590  177.6070  142.8840 C   0  0  0  0  0  0  0  0  0  0  0  0
  190.4870  176.4690  147.5340 C   0  0  0  0  0  3  0  0  0  0  0  0
  181.7560  178.5330  143.6510 C   0  0  0  0  0  3  0  0  0  0  0  0
  184.0300  178.7650  142.0330 C   0  0  0  0  0  0  0  0  0  0  0  0
  189.2520  176.9860  146.9220 C   0  0  0  0  0  3  0  0  0  0  0  0
  183.0230  178.6190  144.2340 C   0  0  0  0  0  3  0  0  0  0  0  0
  190.0460  177.5500  140.6680 C   0  0  0  0  0  2  0  0  0  0  0  0
  188.8430  177.7670  141.5540 C   0  0  0  0  0  0  0  0  0  0  0  0
  190.1190  177.1370  143.4240 N   0  0  0  0  0  0  0  0  0  0  0  0
  185.5160  178.7870  144.0230 C   0  0  0  0  0  0  0  0  0  0  0  0
  185.7190  179.4690  145.5080 S   0  0  0  0  0  0  0  0  0  0  0  0
  191.5660  176.4010  145.2920 C   0  0  0  0  0  2  0  0  0  0  0  0
  187.8810  177.9080  143.7390 C   0  0  0  0  0  0  0  0  0  0  0  0
  190.2560  176.9250  144.7580 C   0  0  0  0  0  0  0  0  0  0  0  0
  180.3130  178.4810  141.6870 N   0  0  0  0  0  2  0  0  0  0  0  0
  179.6970  177.2180  141.3030 C   0  0  0  0  0  2  0  0  0  0  0  0
  180.0760  176.8610  139.8770 C   0  0  0  0  0  2  0  0  0  0  0  0
  180.8020  175.5260  139.8210 C   0  0  0  0  0  2  0  0  0  0  0  0
  182.1610  175.7260  139.5750 O   0  0  0  0  0  1  0  0  0  0  0  0
  1 16  1  0  0  0  0
  2 26  1  0  0  0  0
  2 23  1  0  0  0  0
  3 13  1  0  0  0  0
  4 20  1  0  0  0  0
  5  6  1  0  0  0  0
  6 18  2  0  0  0  0
  7 23  1  0  0  0  0
  7 19  1  0  0  0  0
  8 12  1  0  0  0  0
  8 17  1  0  0  0  0
  9 15  2  0  0  0  0
 10 17  1  0  0  0  0
 10  1  2  0  0  0  0
 11  4  1  0  0  0  0
 11  3  1  0  0  0  0
 12  2  1  0  0  0  0
 13 21  1  0  0  0  0
 13 12  2  0  0  0  0
 14 22  1  0  0  0  0
 14 26  1  0  0  0  0
 16 19  2  0  0  0  0
 17  7  2  0  0  0  0
 18 15  1  0  0  0  0
 20 21  1  0  0  0  0
 21 14  2  0  0  0  0
 22 27  2  0  0  0  0
 23 24  2  0  0  0  0
 25  9  1  0  0  0  0
 26  5  2  0  0  0  0
 27 25  1  0  0  0  0
 27  6  1  0  0  0  0
 28  1  1  0  0  0  0
 29 28  1  0  0  0  0
 30 29  1  0  0  0  0
 31 30  1  0  0  0  0
 32 31  1  0  0  0  0
M  END
>  <MODEL>
1

>  <REMARK>
 VINA RESULT:      -9.2      0.000      0.000
  Name = 
  4 active torsions:
  status: ('A' for Active; 'I' for Inactive)
    1  A    between atoms: C_1  and  C_20
    2  A    between atoms: C_2  and  N_24
    3  A    between atoms: C_10  and  C_20
    4  A    between atoms: C_10  and  N_24
                            x       y       z     vdW  Elec       q    Type
                         _______ _______ _______ _____ _____    ______ ____

>  <TORSDO>
F 4

$$$$
=
 OpenBabel10262421423D

 32 37  0  0  0  0  0  0  0  0999 V2000
  181.6220  178.5850  142.2740 C   0  0  0  0  0  0  0  0  0  0  0  0
  186.6400  178.4310  143.2770 N   0  0  0  0  0  0  0  0  0  0  0  0
  187.4400  178.2530  139.5490 C   0  0  0  0  0  2  0  0  0  0  0  0
  189.7020  177.2490  139.3450 C   0  0  0  0  0  2  0  0  0  0  0  0
  187.9730  177.6550  145.1760 N   0  0  0  0  0  0  0  0  0  0  0  0
  189.1150  177.1670  145.7250 C   0  0  0  0  0  0  0  0  0  0  0  0
  184.1540  178.7420  143.4800 C   0  0  0  0  0  0  0  0  0  0  0  0
  185.2350  179.0030  141.2120 C   0  0  0  0  0  2  0  0  0  0  0  0
  191.4830  176.1560  146.9370 C   0  0  0  0  0  3  0  0  0  0  0  0
  182.7750  178.7050  141.4850 C   0  0  0  0  0  3  0  0  0  0  0  0
  188.7850  178.3510  138.8420 C   0  0  0  0  0  2  0  0  0  0  0  0
  186.5200  178.5130  141.8370 C   0  0  0  0  0  0  0  0  0  0  0  0
  187.5780  178.2240  141.0540 C   0  0  0  0  0  0  0  0  0  0  0  0
  188.9470  177.5820  143.0010 C   0  0  0  0  0  0  0  0  0  0  0  0
  190.4030  176.4350  147.6710 C   0  0  0  0  0  3  0  0  0  0  0  0
  181.7400  178.5520  143.6660 C   0  0  0  0  0  3  0  0  0  0  0  0
  184.0380  178.7690  142.0800 C   0  0  0  0  0  0  0  0  0  0  0  0
  189.1800  176.9600  147.0420 C   0  0  0  0  0  3  0  0  0  0  0  0
  182.9990  178.6300  144.2680 C   0  0  0  0  0  3  0  0  0  0  0  0
  190.0650  177.5180  140.8000 C   0  0  0  0  0  2  0  0  0  0  0  0
  188.8510  177.7420  141.6690 C   0  0  0  0  0  0  0  0  0  0  0  0
  190.0970  177.1050  143.5560 N   0  0  0  0  0  0  0  0  0  0  0  0
  185.4960  178.7830  144.0910 C   0  0  0  0  0  0  0  0  0  0  0  0
  185.6830  179.4640  145.5780 S   0  0  0  0  0  0  0  0  0  0  0  0
  191.5130  176.3600  145.4440 C   0  0  0  0  0  2  0  0  0  0  0  0
  187.8590  177.8900  143.8400 C   0  0  0  0  0  0  0  0  0  0  0  0
  190.2140  176.8920  144.8920 C   0  0  0  0  0  0  0  0  0  0  0  0
  180.3240  178.5080  141.6830 N   0  0  0  0  0  2  0  0  0  0  0  0
  179.8550  179.4510  140.6770 C   0  0  0  0  0  2  0  0  0  0  0  0
  179.3390  180.7160  141.3430 C   0  0  0  0  0  2  0  0  0  0  0  0
  178.9360  181.7530  140.3080 C   0  0  0  0  0  2  0  0  0  0  0  0
  179.9420  181.8990  139.3530 O   0  0  0  0  0  1  0  0  0  0  0  0
  1 16  1  0  0  0  0
  2 26  1  0  0  0  0
  2 23  1  0  0  0  0
  3 13  1  0  0  0  0
  4 20  1  0  0  0  0
  5  6  1  0  0  0  0
  6 18  2  0  0  0  0
  7 23  1  0  0  0  0
  7 19  1  0  0  0  0
  8 12  1  0  0  0  0
  8 17  1  0  0  0  0
  9 15  2  0  0  0  0
 10 17  1  0  0  0  0
 10  1  2  0  0  0  0
 11  4  1  0  0  0  0
 11  3  1  0  0  0  0
 12  2  1  0  0  0  0
 13 21  1  0  0  0  0
 13 12  2  0  0  0  0
 14 22  1  0  0  0  0
 14 26  1  0  0  0  0
 16 19  2  0  0  0  0
 17  7  2  0  0  0  0
 18 15  1  0  0  0  0
 20 21  1  0  0  0  0
 21 14  2  0  0  0  0
 22 27  2  0  0  0  0
 23 24  2  0  0  0  0
 25  9  1  0  0  0  0
 26  5  2  0  0  0  0
 27 25  1  0  0  0  0
 27  6  1  0  0  0  0
 28  1  1  0  0  0  0
 29 30  1  0  0  0  0
 29 28  1  0  0  0  0
 31 30  1  0  0  0  0
 32 31  1  0  0  0  0
M  END
>  <MODEL>
2

>  <REMARK>
 VINA RESULT:      -9.1      1.587      1.844
  Name = 
  4 active torsions:
  status: ('A' for Active; 'I' for Inactive)
    1  A    between atoms: C_1  and  C_20
    2  A    between atoms: C_2  and  N_24
    3  A    between atoms: C_10  and  C_20
    4  A    between atoms: C_10  and  N_24
                            x       y       z     vdW  Elec       q    Type
                         _______ _______ _______ _____ _____    ______ ____

>  <TORSDO>
F 4

$$$$
=
 OpenBabel10262421423D

 32 37  0  0  1  0  0  0  0  0999 V2000
  181.3860  178.3770  139.9920 C   0  0  0  0  0  0  0  0  0  0  0  0
  185.9340  178.5850  142.3330 N   0  0  0  0  0  0  0  0  0  0  0  0
  187.7380  178.1690  138.9950 C   0  0  0  0  0  2  0  0  0  0  0  0
  190.0010  177.2840  139.5040 C   0  0  0  0  0  2  0  0  0  0  0  0
  186.7160  178.0320  144.5840 N   0  0  0  0  0  0  0  0  0  0  0  0
  187.6780  177.6530  145.4650 C   0  0  0  0  0  0  0  0  0  0  0  0
  183.4800  178.7690  141.8230 C   0  0  0  0  0  0  0  0  0  0  0  0
  185.1360  178.9170  139.9210 C   0  0  0  0  0  2  0  0  0  0  0  0
  189.6520  176.8750  147.3600 C   0  0  0  0  0  3  0  0  0  0  0  0
  182.7080  178.5010  139.5390 C   0  0  0  0  0  3  0  0  0  0  0  0
  189.2220  178.2900  138.6750 C   0  0  0  0  0  2  0  0  0  0  0  0
  186.2140  178.5510  140.9130 C   0  0  0  0  0  0  0  0  0  0  0  0
  187.4560  178.2630  140.4770 C   0  0  0  0  0  0  0  0  0  0  0  0
  188.2550  177.8500  142.7720 C   0  0  0  0  0  0  0  0  0  0  0  0
  188.4020  177.1460  147.7450 C   0  0  0  0  0  3  0  0  0  0  0  0
  181.1160  178.4570  141.3600 C   0  0  0  0  0  3  0  0  0  0  0  0
  183.7540  178.6830  140.4480 C   0  0  0  0  0  0  0  0  0  0  0  0
  187.3830  177.5510  146.7620 C   0  0  0  0  0  3  0  0  0  0  0  0
  182.1570  178.6520  142.2730 C   0  0  0  0  0  3  0  0  0  0  0  0
  189.9390  177.6830  140.9740 C   0  0  0  0  0  2  0  0  0  0  0  0
  188.5250  177.9030  141.4550 C   0  0  0  0  0  0  0  0  0  0  0  0
  189.2220  177.4830  143.6600 N   0  0  0  0  0  0  0  0  0  0  0  0
  184.5990  178.9330  142.7700 C   0  0  0  0  0  0  0  0  0  0  0  0
  184.3440  179.7340  144.1850 S   0  0  0  0  0  0  0  0  0  0  0  0
  190.0860  176.9650  145.9200 C   0  0  0  0  0  3  0  0  0  0  0  0
  186.9680  178.1580  143.2520 C   0  0  1  0  0  3  0  0  0  0  0  0
  188.9730  177.3790  144.9900 C   0  0  0  0  0  0  0  0  0  0  0  0
  180.3050  178.1810  139.0780 N   0  0  0  0  0  2  0  0  0  0  0  0
  180.1250  176.9540  138.3150 C   0  0  0  0  0  2  0  0  0  0  0  0
  180.1630  175.7500  139.2400 C   0  0  0  0  0  2  0  0  0  0  0  0
  178.9310  175.7040  140.1290 C   0  0  0  0  0  2  0  0  0  0  0  0
  179.2600  175.1920  141.3850 O   0  0  0  0  0  1  0  0  0  0  0  0
  1 16  1  0  0  0  0
  2 23  1  0  0  0  0
  2 26  1  0  0  0  0
  3 13  1  0  0  0  0
  4 20  1  0  0  0  0
  5  6  2  0  0  0  0
  6 18  1  0  0  0  0
  7 19  1  0  0  0  0
  7 23  1  0  0  0  0
  8 17  1  0  0  0  0
  8 12  1  0  0  0  0
  9 15  1  0  0  0  0
 10  1  2  0  0  0  0
 10 17  1  0  0  0  0
 11  3  1  0  0  0  0
 11  4  1  0  0  0  0
 12  2  1  0  0  0  0
 13 12  2  0  0  0  0
 13 21  1  0  0  0  0
 14 22  1  0  0  0  0
 16 19  2  0  0  0  0
 17  7  2  0  0  0  0
 18 15  2  0  0  0  0
 20 21  1  0  0  0  0
 21 14  2  0  0  0  0
 22 27  2  0  0  0  0
 23 24  2  0  0  0  0
 25  9  2  0  0  0  0
 26 14  1  6  0  0  0
 26  5  1  0  0  0  0
 27  6  1  0  0  0  0
 27 25  1  0  0  0  0
 28  1  1  0  0  0  0
 29 28  1  0  0  0  0
 29 30  1  0  0  0  0
 30 31  1  0  0  0  0
 31 32  1  0  0  0  0
M  END
>  <MODEL>
3

>  <REMARK>
 VINA RESULT:      -8.9      1.367      1.717
  Name = 
  4 active torsions:
  status: ('A' for Active; 'I' for Inactive)
    1  A    between atoms: C_1  and  C_20
    2  A    between atoms: C_2  and  N_24
    3  A    between atoms: C_10  and  C_20
    4  A    between atoms: C_10  and  N_24
                            x       y       z     vdW  Elec       q    Type
                         _______ _______ _______ _____ _____    ______ ____

>  <TORSDO>
F 4

$$$$
=
 OpenBabel10262421423D

 32 37  0  0  1  0  0  0  0  0999 V2000
  190.9050  175.6100  137.7200 C   0  0  0  0  0  0  0  0  0  0  0  0
  188.5460  177.7760  141.7150 N   0  0  0  0  0  0  0  0  0  0  0  0
  191.4190  176.7870  144.0250 C   0  0  0  0  0  2  0  0  0  0  0  0
  190.5080  176.7530  146.3340 C   0  0  0  0  0  2  0  0  0  0  0  0
  186.2050  178.2200  142.2730 N   0  0  0  0  0  0  0  0  0  0  0  0
  185.1970  178.4200  143.1600 C   0  0  0  0  0  0  0  0  0  0  0  0
  189.2200  177.1220  139.3840 C   0  0  0  0  0  0  0  0  0  0  0  0
  190.9590  177.0750  141.2150 C   0  0  0  0  0  2  0  0  0  0  0  0
  183.0450  178.8600  144.9690 C   0  0  0  0  0  3  0  0  0  0  0  0
  191.3000  175.9270  139.0290 C   0  0  0  0  0  3  0  0  0  0  0  0
  191.6810  177.1870  145.4700 C   0  0  0  0  0  2  0  0  0  0  0  0
  189.8440  177.3550  142.1950 C   0  0  0  0  0  0  0  0  0  0  0  0
  190.0830  177.2820  143.5190 C   0  0  0  0  0  0  0  0  0  0  0  0
  187.7510  177.8710  144.0560 C   0  0  0  0  0  0  0  0  0  0  0  0
  182.8500  178.8990  143.6480 C   0  0  0  0  0  3  0  0  0  0  0  0
  189.6690  176.0580  137.2470 C   0  0  0  0  0  3  0  0  0  0  0  0
  190.4590  176.6670  139.8640 C   0  0  0  0  0  0  0  0  0  0  0  0
  183.9650  178.6740  142.7150 C   0  0  0  0  0  3  0  0  0  0  0  0
  188.8300  176.8110  138.0730 C   0  0  0  0  0  3  0  0  0  0  0  0
  189.2800  177.5790  145.9720 C   0  0  0  0  0  2  0  0  0  0  0  0
  188.9850  177.5600  144.4910 C   0  0  0  0  0  0  0  0  0  0  0  0
  186.7390  178.0860  144.9440 N   0  0  0  0  0  0  0  0  0  0  0  0
  188.3330  177.8780  140.2870 C   0  0  0  0  0  0  0  0  0  0  0  0
  187.3070  179.0010  139.6540 S   0  0  0  0  0  0  0  0  0  0  0  0
  184.3980  178.5870  145.5710 C   0  0  0  0  0  3  0  0  0  0  0  0
  187.4810  177.9650  142.6770 C   0  0  1  0  0  3  0  0  0  0  0  0
  185.4730  178.3610  144.5380 C   0  0  0  0  0  0  0  0  0  0  0  0
  191.7480  174.8460  136.8570 N   0  0  0  0  0  2  0  0  0  0  0  0
  193.1740  175.1010  136.7120 C   0  0  0  0  0  2  0  0  0  0  0  0
  193.9760  173.9440  137.2830 C   0  0  0  0  0  2  0  0  0  0  0  0
  195.0030  174.4340  138.2910 C   0  0  0  0  0  2  0  0  0  0  0  0
  195.4340  173.3770  139.0930 O   0  0  0  0  0  1  0  0  0  0  0  0
  1 10  1  0  0  0  0
  2 12  1  0  0  0  0
  2 26  1  0  0  0  0
  3 11  1  0  0  0  0
  5  6  2  0  0  0  0
  6 27  1  0  0  0  0
  7 17  1  0  0  0  0
  7 23  1  0  0  0  0
  8 12  1  0  0  0  0
  9 25  2  0  0  0  0
 10 17  2  0  0  0  0
 11  4  1  0  0  0  0
 12 13  2  0  0  0  0
 13  3  1  0  0  0  0
 13 21  1  0  0  0  0
 14 21  2  0  0  0  0
 14 22  1  0  0  0  0
 15  9  1  0  0  0  0
 16  1  2  0  0  0  0
 16 19  1  0  0  0  0
 17  8  1  0  0  0  0
 18  6  1  0  0  0  0
 18 15  2  0  0  0  0
 19  7  2  0  0  0  0
 20  4  1  0  0  0  0
 21 20  1  0  0  0  0
 23  2  1  0  0  0  0
 24 23  2  0  0  0  0
 26  5  1  6  0  0  0
 26 14  1  0  0  0  0
 27 22  2  0  0  0  0
 27 25  1  0  0  0  0
 28  1  1  0  0  0  0
 29 28  1  0  0  0  0
 29 30  1  0  0  0  0
 30 31  1  0  0  0  0
 31 32  1  0  0  0  0
M  END
>  <MODEL>
4

>  <REMARK>
 VINA RESULT:      -8.7      3.591      8.121
  Name = 
  4 active torsions:
  status: ('A' for Active; 'I' for Inactive)
    1  A    between atoms: C_1  and  C_20
    2  A    between atoms: C_2  and  N_24
    3  A    between atoms: C_10  and  C_20
    4  A    between atoms: C_10  and  N_24
                            x       y       z     vdW  Elec       q    Type
                         _______ _______ _______ _____ _____    ______ ____

>  <TORSDO>
F 4

$$$$
=
 OpenBabel10262421423D

 32 37  0  0  0  0  0  0  0  0999 V2000
  186.8420  177.7820  146.1850 C   0  0  0  0  0  0  0  0  0  0  0  0
  184.0040  178.5670  141.9970 N   0  0  0  0  0  0  0  0  0  0  0  0
  180.8960  179.1410  144.1370 C   0  0  0  0  0  2  0  0  0  0  0  0
  178.9310  178.6950  142.6880 C   0  0  0  0  0  2  0  0  0  0  0  0
  184.1550  177.8160  139.6730 N   0  0  0  0  0  0  0  0  0  0  0  0
  183.6060  177.5090  138.4700 C   0  0  0  0  0  0  0  0  0  0  0  0
  185.9420  178.2970  143.5740 C   0  0  0  0  0  0  0  0  0  0  0  0
  183.7370  179.1310  144.4820 C   0  0  0  0  0  2  0  0  0  0  0  0
  182.5180  176.8620  135.9210 C   0  0  0  0  0  3  0  0  0  0  0  0
  185.5440  178.2680  145.9670 C   0  0  0  0  0  3  0  0  0  0  0  0
  179.5160  179.6350  143.7270 C   0  0  0  0  0  2  0  0  0  0  0  0
  183.1400  178.8410  143.1250 C   0  0  0  0  0  0  0  0  0  0  0  0
  181.8050  178.9120  142.9510 C   0  0  0  0  0  0  0  0  0  0  0  0
  181.9990  178.2910  140.5740 C   0  0  0  0  0  0  0  0  0  0  0  0
  183.8320  176.7840  136.1450 C   0  0  0  0  0  3  0  0  0  0  0  0
  187.6880  177.5620  145.0940 C   0  0  0  0  0  3  0  0  0  0  0  0
  185.0880  178.5130  144.6680 C   0  0  0  0  0  0  0  0  0  0  0  0
  184.3930  177.1220  137.4640 C   0  0  0  0  0  3  0  0  0  0  0  0
  187.2420  177.8180  143.7950 C   0  0  0  0  0  3  0  0  0  0  0  0
  179.7280  178.8090  141.3940 C   0  0  0  0  0  2  0  0  0  0  0  0
  181.2120  178.6290  141.6110 C   0  0  0  0  0  0  0  0  0  0  0  0
  181.4520  177.9950  139.3610 N   0  0  0  0  0  0  0  0  0  0  0  0
  185.4350  178.5340  142.2090 C   0  0  0  0  0  0  0  0  0  0  0  0
  186.4860  179.0030  141.0310 S   0  0  0  0  0  0  0  0  0  0  0  0
  181.5470  177.2940  136.9890 C   0  0  0  0  0  2  0  0  0  0  0  0
  183.3970  178.2230  140.7280 C   0  0  0  0  0  0  0  0  0  0  0  0
  182.2130  177.6110  138.3050 C   0  0  0  0  0  0  0  0  0  0  0  0
  187.3220  177.5170  147.5040 N   0  0  0  0  0  2  0  0  0  0  0  0
  188.4870  176.6870  147.7710 C   0  0  0  0  0  2  0  0  0  0  0  0
  189.7550  177.5200  147.6900 C   0  0  0  0  0  2  0  0  0  0  0  0
  190.8700  176.7540  146.9950 C   0  0  0  0  0  2  0  0  0  0  0  0
  192.0200  176.7540  147.7850 O   0  0  0  0  0  1  0  0  0  0  0  0
  1 28  1  0  0  0  0
  2 23  1  0  0  0  0
  2 12  1  0  0  0  0
  4 11  1  0  0  0  0
  5 26  2  0  0  0  0
  6  5  1  0  0  0  0
  7 19  2  0  0  0  0
  7 17  1  0  0  0  0
  8 17  1  0  0  0  0
  9 15  2  0  0  0  0
  9 25  1  0  0  0  0
 10  1  1  0  0  0  0
 11  3  1  0  0  0  0
 12  8  1  0  0  0  0
 13 12  2  0  0  0  0
 13  3  1  0  0  0  0
 14 26  1  0  0  0  0
 14 21  2  0  0  0  0
 15 18  1  0  0  0  0
 16  1  2  0  0  0  0
 17 10  2  0  0  0  0
 18  6  2  0  0  0  0
 19 16  1  0  0  0  0
 20 21  1  0  0  0  0
 20  4  1  0  0  0  0
 21 13  1  0  0  0  0
 22 14  1  0  0  0  0
 23  7  1  0  0  0  0
 24 23  2  0  0  0  0
 25 27  1  0  0  0  0
 26  2  1  0  0  0  0
 27  6  1  0  0  0  0
 27 22  2  0  0  0  0
 28 29  1  0  0  0  0
 30 29  1  0  0  0  0
 31 30  1  0  0  0  0
 31 32  1  0  0  0  0
M  END
>  <MODEL>
5

>  <REMARK>
 VINA RESULT:      -8.6      3.402      8.758
  Name = 
  4 active torsions:
  status: ('A' for Active; 'I' for Inactive)
    1  A    between atoms: C_1  and  C_20
    2  A    between atoms: C_2  and  N_24
    3  A    between atoms: C_10  and  C_20
    4  A    between atoms: C_10  and  N_24
                            x       y       z     vdW  Elec       q    Type
                         _______ _______ _______ _____ _____    ______ ____

>  <TORSDO>
F 4

$$$$
=
 OpenBabel10262421423D

 32 37  0  0  0  0  0  0  0  0999 V2000
  187.6990  177.2090  143.9910 C   0  0  0  0  0  0  0  0  0  0  0  0
  190.2150  177.2510  139.5320 N   0  0  0  0  0  0  0  0  0  0  0  0
  187.0220  178.2060  137.6710 C   0  0  0  0  0  2  0  0  0  0  0  0
  187.3340  177.5180  135.3060 C   0  0  0  0  0  2  0  0  0  0  0  0
  192.2030  176.1010  138.6880 N   0  0  0  0  0  0  0  0  0  0  0  0
  192.9610  175.5880  137.6860 C   0  0  0  0  0  0  0  0  0  0  0  0
  189.6650  177.2580  141.9840 C   0  0  0  0  0  0  0  0  0  0  0  0
  188.0040  178.2470  140.3590 C   0  0  0  0  0  2  0  0  0  0  0  0
  194.6010  174.5040  135.6280 C   0  0  0  0  0  3  0  0  0  0  0  0
  187.3810  177.6540  142.6990 C   0  0  0  0  0  3  0  0  0  0  0  0
  186.8370  178.6260  136.2190 C   0  0  0  0  0  2  0  0  0  0  0  0
  188.8780  177.7250  139.2440 C   0  0  0  0  0  0  0  0  0  0  0  0
  188.4380  177.7680  137.9710 C   0  0  0  0  0  0  0  0  0  0  0  0
  190.5120  176.7350  137.1300 C   0  0  0  0  0  0  0  0  0  0  0  0
  194.9870  174.4620  136.9060 C   0  0  0  0  0  3  0  0  0  0  0  0
  189.0040  176.7970  144.2750 C   0  0  0  0  0  3  0  0  0  0  0  0
  188.3530  177.6670  141.6940 C   0  0  0  0  0  0  0  0  0  0  0  0
  194.1380  175.0250  137.9680 C   0  0  0  0  0  3  0  0  0  0  0  0
  189.9830  176.8210  143.2790 C   0  0  0  0  0  3  0  0  0  0  0  0
  188.8480  177.4000  135.4320 C   0  0  0  0  0  2  0  0  0  0  0  0
  189.3000  177.2550  136.8660 C   0  0  0  0  0  0  0  0  0  0  0  0
  191.2820  176.2320  136.1250 N   0  0  0  0  0  0  0  0  0  0  0  0
  190.6710  177.2510  140.9060 C   0  0  0  0  0  0  0  0  0  0  0  0
  192.2550  177.5000  141.2810 S   0  0  0  0  0  0  0  0  0  0  0  0
  193.2940  175.1220  135.2060 C   0  0  0  0  0  2  0  0  0  0  0  0
  190.9990  176.6910  138.4510 C   0  0  0  0  0  0  0  0  0  0  0  0
  192.4920  175.6640  136.3620 C   0  0  0  0  0  0  0  0  0  0  0  0
  186.7170  177.1810  145.0270 N   0  0  0  0  0  2  0  0  0  0  0  0
  186.9200  177.7990  146.3290 C   0  0  0  0  0  2  0  0  0  0  0  0
  185.7170  178.6480  146.7010 C   0  0  0  0  0  2  0  0  0  0  0  0
  184.9570  179.0940  145.4630 C   0  0  0  0  0  2  0  0  0  0  0  0
  183.5810  179.0020  145.6810 O   0  0  0  0  0  1  0  0  0  0  0  0
  1 16  1  0  0  0  0
  1 28  1  0  0  0  0
  2 23  1  0  0  0  0
  3 13  1  0  0  0  0
  4 20  1  0  0  0  0
  4 11  1  0  0  0  0
  6 18  2  0  0  0  0
  6  5  1  0  0  0  0
  7 19  1  0  0  0  0
  8 17  1  0  0  0  0
  9 15  2  0  0  0  0
 10  1  2  0  0  0  0
 11  3  1  0  0  0  0
 12  2  1  0  0  0  0
 12  8  1  0  0  0  0
 13 12  2  0  0  0  0
 14 26  1  0  0  0  0
 15 18  1  0  0  0  0
 17  7  2  0  0  0  0
 17 10  1  0  0  0  0
 19 16  2  0  0  0  0
 20 21  1  0  0  0  0
 21 14  2  0  0  0  0
 21 13  1  0  0  0  0
 22 27  2  0  0  0  0
 22 14  1  0  0  0  0
 23 24  2  0  0  0  0
 23  7  1  0  0  0  0
 25  9  1  0  0  0  0
 25 27  1  0  0  0  0
 26  5  2  0  0  0  0
 26  2  1  0  0  0  0
 27  6  1  0  0  0  0
 28 29  1  0  0  0  0
 29 30  1  0  0  0  0
 31 32  1  0  0  0  0
 31 30  1  0  0  0  0
M  END
>  <MODEL>
6

>  <REMARK>
 VINA RESULT:      -8.4      3.897      7.154
  Name = 
  4 active torsions:
  status: ('A' for Active; 'I' for Inactive)
    1  A    between atoms: C_1  and  C_20
    2  A    between atoms: C_2  and  N_24
    3  A    between atoms: C_10  and  C_20
    4  A    between atoms: C_10  and  N_24
                            x       y       z     vdW  Elec       q    Type
                         _______ _______ _______ _____ _____    ______ ____

>  <TORSDO>
F 4

$$$$
=
 OpenBabel10262421423D

 32 37  0  0  0  0  0  0  0  0999 V2000
  189.9310  177.2400  145.5130 C   0  0  0  0  0  0  0  0  0  0  0  0
  189.7240  177.4380  140.4010 N   0  0  0  0  0  0  0  0  0  0  0  0
  186.0990  178.6280  140.5350 C   0  0  0  0  0  2  0  0  0  0  0  0
  185.0750  178.0660  138.3440 C   0  0  0  0  0  2  0  0  0  0  0  0
  190.8910  176.2590  138.6030 N   0  0  0  0  0  0  0  0  0  0  0  0
  190.9740  175.7740  137.3370 C   0  0  0  0  0  0  0  0  0  0  0  0
  190.5470  177.3250  142.7730 C   0  0  0  0  0  0  0  0  0  0  0  0
  188.3470  178.4730  142.2990 C   0  0  0  0  0  2  0  0  0  0  0  0
  191.2130  174.7470  134.6950 C   0  0  0  0  0  3  0  0  0  0  0  0
  189.0110  177.7710  144.5970 C   0  0  0  0  0  3  0  0  0  0  0  0
  185.2050  179.1380  139.4130 C   0  0  0  0  0  2  0  0  0  0  0  0
  188.4690  177.9810  140.8760 C   0  0  0  0  0  0  0  0  0  0  0  0
  187.4280  178.1160  140.0290 C   0  0  0  0  0  0  0  0  0  0  0  0
  188.6790  177.0510  138.1920 C   0  0  0  0  0  0  0  0  0  0  0  0
  192.2090  174.6150  135.5740 C   0  0  0  0  0  3  0  0  0  0  0  0
  191.1600  176.7590  145.0540 C   0  0  0  0  0  3  0  0  0  0  0  0
  189.3080  177.8030  143.2310 C   0  0  0  0  0  0  0  0  0  0  0  0
  192.0840  175.1500  136.9400 C   0  0  0  0  0  3  0  0  0  0  0  0
  191.4680  176.8010  143.6910 C   0  0  0  0  0  3  0  0  0  0  0  0
  186.4170  177.8790  137.6480 C   0  0  0  0  0  2  0  0  0  0  0  0
  187.5450  177.6330  138.6220 C   0  0  0  0  0  0  0  0  0  0  0  0
  188.7700  176.5750  136.9180 N   0  0  0  0  0  0  0  0  0  0  0  0
  190.8320  177.3400  141.3260 C   0  0  0  0  0  0  0  0  0  0  0  0
  192.3890  177.5030  140.8150 S   0  0  0  0  0  0  0  0  0  0  0  0
  189.9210  175.4400  135.0440 C   0  0  0  0  0  2  0  0  0  0  0  0
  189.7830  176.9100  139.0550 C   0  0  0  0  0  0  0  0  0  0  0  0
  189.8850  175.9460  136.4640 C   0  0  0  0  0  0  0  0  0  0  0  0
  189.6410  177.1910  146.9100 N   0  0  0  0  0  2  0  0  0  0  0  0
  188.3200  176.8720  147.4340 C   0  0  0  0  0  2  0  0  0  0  0  0
  187.5870  178.1450  147.8210 C   0  0  0  0  0  2  0  0  0  0  0  0
  186.3360  178.3340  146.9770 C   0  0  0  0  0  2  0  0  0  0  0  0
  185.6800  179.5090  147.3440 O   0  0  0  0  0  1  0  0  0  0  0  0
  1 28  1  0  0  0  0
  2 12  1  0  0  0  0
  2 23  1  0  0  0  0
  4 11  1  0  0  0  0
  5 26  2  0  0  0  0
  6  5  1  0  0  0  0
  7 17  2  0  0  0  0
  7 19  1  0  0  0  0
  8 17  1  0  0  0  0
  9 25  1  0  0  0  0
  9 15  2  0  0  0  0
 10  1  2  0  0  0  0
 11  3  1  0  0  0  0
 12  8  1  0  0  0  0
 13  3  1  0  0  0  0
 13 12  2  0  0  0  0
 14 21  2  0  0  0  0
 14 26  1  0  0  0  0
 15 18  1  0  0  0  0
 16  1  1  0  0  0  0
 17 10  1  0  0  0  0
 18  6  2  0  0  0  0
 19 16  2  0  0  0  0
 20  4  1  0  0  0  0
 20 21  1  0  0  0  0
 21 13  1  0  0  0  0
 22 14  1  0  0  0  0
 23  7  1  0  0  0  0
 24 23  2  0  0  0  0
 25 27  1  0  0  0  0
 26  2  1  0  0  0  0
 27 22  2  0  0  0  0
 27  6  1  0  0  0  0
 28 29  1  0  0  0  0
 29 30  1  0  0  0  0
 31 32  1  0  0  0  0
 31 30  1  0  0  0  0
M  END
>  <MODEL>
7

>  <REMARK>
 VINA RESULT:      -8.3      3.971      7.748
  Name = 
  4 active torsions:
  status: ('A' for Active; 'I' for Inactive)
    1  A    between atoms: C_1  and  C_20
    2  A    between atoms: C_2  and  N_24
    3  A    between atoms: C_10  and  C_20
    4  A    between atoms: C_10  and  N_24
                            x       y       z     vdW  Elec       q    Type
                         _______ _______ _______ _____ _____    ______ ____

>  <TORSDO>
F 4

$$$$
=
 OpenBabel10262421423D

 32 37  0  0  1  0  0  0  0  0999 V2000
  192.7500  175.5810  136.9360 C   0  0  0  0  0  0  0  0  0  0  0  0
  189.3500  177.8760  139.9990 N   0  0  0  0  0  0  0  0  0  0  0  0
  191.4620  177.0430  143.0680 C   0  0  0  0  0  2  0  0  0  0  0  0
  189.9380  177.0940  145.0270 C   0  0  0  0  0  2  0  0  0  0  0  0
  186.9450  178.3020  139.8560 N   0  0  0  0  0  0  0  0  0  0  0  0
  185.7270  178.5220  140.4130 C   0  0  0  0  0  0  0  0  0  0  0  0
  190.6570  177.1330  137.9850 C   0  0  0  0  0  0  0  0  0  0  0  0
  191.8110  177.1990  140.2310 C   0  0  0  0  0  2  0  0  0  0  0  0
  183.1500  179.0020  141.5200 C   0  0  0  0  0  3  0  0  0  0  0  0
  192.7600  175.9620  138.2860 C   0  0  0  0  0  3  0  0  0  0  0  0
  191.3030  177.5110  144.5080 C   0  0  0  0  0  2  0  0  0  0  0  0
  190.4630  177.5010  140.8440 C   0  0  0  0  0  0  0  0  0  0  0  0
  190.3200  177.4910  142.1840 C   0  0  0  0  0  0  0  0  0  0  0  0
  187.9270  178.0600  142.0150 C   0  0  0  0  0  0  0  0  0  0  0  0
  183.3340  178.9800  140.1980 C   0  0  0  0  0  3  0  0  0  0  0  0
  191.6960  175.9850  136.1140 C   0  0  0  0  0  3  0  0  0  0  0  0
  191.7130  176.7230  138.8150 C   0  0  0  0  0  0  0  0  0  0  0  0
  184.6690  178.7340  139.6270 C   0  0  0  0  0  3  0  0  0  0  0  0
  190.6540  176.7580  136.6340 C   0  0  0  0  0  3  0  0  0  0  0  0
  188.8570  177.8810  144.2950 C   0  0  0  0  0  2  0  0  0  0  0  0
  188.9910  177.7910  142.7940 C   0  0  0  0  0  0  0  0  0  0  0  0
  186.7060  178.2950  142.5720 N   0  0  0  0  0  0  0  0  0  0  0  0
  189.5470  177.9120  138.5660 C   0  0  0  0  0  0  0  0  0  0  0  0
  188.7360  178.9870  137.6180 S   0  0  0  0  0  0  0  0  0  0  0  0
  184.2800  178.7800  142.4910 C   0  0  0  0  0  3  0  0  0  0  0  0
  188.0560  178.0880  140.6130 C   0  0  1  0  0  3  0  0  0  0  0  0
  185.6040  178.5300  141.8140 C   0  0  0  0  0  0  0  0  0  0  0  0
  193.8060  174.7950  136.3810 N   0  0  0  0  0  2  0  0  0  0  0  0
  195.2100  175.1660  136.4890 C   0  0  0  0  0  2  0  0  0  0  0  0
  196.0410  173.9640  136.9030 C   0  0  0  0  0  2  0  0  0  0  0  0
  195.9070  173.6920  138.3930 C   0  0  0  0  0  2  0  0  0  0  0  0
  195.9640  174.8890  139.1080 O   0  0  0  0  0  1  0  0  0  0  0  0
  1 10  1  0  0  0  0
  2 26  1  0  0  0  0
  2 12  1  0  0  0  0
  3 11  1  0  0  0  0
  5  6  2  0  0  0  0
  6 27  1  0  0  0  0
  7 23  1  0  0  0  0
  7 17  1  0  0  0  0
  8 12  1  0  0  0  0
  9 25  2  0  0  0  0
 10 17  2  0  0  0  0
 11  4  1  0  0  0  0
 12 13  2  0  0  0  0
 13 21  1  0  0  0  0
 13  3  1  0  0  0  0
 14 22  1  0  0  0  0
 14 21  2  0  0  0  0
 15  9  1  0  0  0  0
 16 19  1  0  0  0  0
 16  1  2  0  0  0  0
 17  8  1  0  0  0  0
 18 15  2  0  0  0  0
 18  6  1  0  0  0  0
 19  7  2  0  0  0  0
 20  4  1  0  0  0  0
 21 20  1  0  0  0  0
 23  2  1  0  0  0  0
 24 23  2  0  0  0  0
 26  5  1  6  0  0  0
 26 14  1  0  0  0  0
 27 25  1  0  0  0  0
 27 22  2  0  0  0  0
 28 29  1  0  0  0  0
 28  1  1  0  0  0  0
 29 30  1  0  0  0  0
 30 31  1  0  0  0  0
 31 32  1  0  0  0  0
M  END
>  <MODEL>
8

>  <REMARK>
 VINA RESULT:      -8.3      4.299      9.218
  Name = 
  4 active torsions:
  status: ('A' for Active; 'I' for Inactive)
    1  A    between atoms: C_1  and  C_20
    2  A    between atoms: C_2  and  N_24
    3  A    between atoms: C_10  and  C_20
    4  A    between atoms: C_10  and  N_24
                            x       y       z     vdW  Elec       q    Type
                         _______ _______ _______ _____ _____    ______ ____

>  <TORSDO>
F 4

$$$$
=
 OpenBabel10262421423D

 32 37  0  0  1  0  0  0  0  0999 V2000
  189.0550  178.2610  137.9810 C   0  0  0  0  0  0  0  0  0  0  0  0
  187.4070  177.6090  142.7840 N   0  0  0  0  0  0  0  0  0  0  0  0
  183.9010  178.7550  141.8000 C   0  0  0  0  0  2  0  0  0  0  0  0
  182.7900  179.5380  143.8780 C   0  0  0  0  0  2  0  0  0  0  0  0
  188.4880  177.6740  144.9780 N   0  0  0  0  0  0  0  0  0  0  0  0
  188.4720  177.8660  146.3220 C   0  0  0  0  0  0  0  0  0  0  0  0
  188.7660  177.5100  140.6730 C   0  0  0  0  0  0  0  0  0  0  0  0
  186.2620  177.7940  140.4990 C   0  0  0  0  0  2  0  0  0  0  0  0
  188.5010  178.2430  149.1430 C   0  0  0  0  0  3  0  0  0  0  0  0
  187.7870  178.2530  138.5810 C   0  0  0  0  0  3  0  0  0  0  0  0
  182.6100  178.7250  142.6080 C   0  0  0  0  0  2  0  0  0  0  0  0
  186.2390  177.9510  142.0020 C   0  0  0  0  0  0  0  0  0  0  0  0
  185.1040  178.3410  142.6170 C   0  0  0  0  0  0  0  0  0  0  0  0
  186.1810  178.2610  144.8330 C   0  0  0  0  0  0  0  0  0  0  0  0
  189.6060  177.8790  148.4890 C   0  0  0  0  0  3  0  0  0  0  0  0
  190.1730  177.8850  138.7290 C   0  0  0  0  0  3  0  0  0  0  0  0
  187.6400  177.8930  139.9240 C   0  0  0  0  0  0  0  0  0  0  0  0
  189.5890  177.6830  147.0300 C   0  0  0  0  0  3  0  0  0  0  0  0
  190.0320  177.5110  140.0680 C   0  0  0  0  0  3  0  0  0  0  0  0
  183.7790  178.8320  144.7970 C   0  0  0  0  0  2  0  0  0  0  0  0
  185.0770  178.4960  144.1010 C   0  0  0  0  0  0  0  0  0  0  0  0
  186.1650  178.4400  146.1830 N   0  0  0  0  0  0  0  0  0  0  0  0
  188.5970  177.1590  142.0960 C   0  0  0  0  0  0  0  0  0  0  0  0
  189.6220  176.0690  142.7820 S   0  0  0  0  0  0  0  0  0  0  0  0
  187.1890  178.4690  148.4360 C   0  0  0  0  0  3  0  0  0  0  0  0
  187.3740  177.8410  144.2130 C   0  0  1  0  0  3  0  0  0  0  0  0
  187.2720  178.2520  146.9460 C   0  0  0  0  0  0  0  0  0  0  0  0
  189.2240  178.6350  136.6130 N   0  0  0  0  0  2  0  0  0  0  0  0
  188.7130  177.8400  135.5050 C   0  0  0  0  0  2  0  0  0  0  0  0
  189.5610  176.5940  135.3180 C   0  0  0  0  0  2  0  0  0  0  0  0
  188.7960  175.3450  135.7230 C   0  0  0  0  0  2  0  0  0  0  0  0
  189.2350  174.8940  136.9690 O   0  0  0  0  0  1  0  0  0  0  0  0
  1 10  2  0  0  0  0
  1 16  1  0  0  0  0
  2 26  1  0  0  0  0
  3 11  1  0  0  0  0
  3 13  1  0  0  0  0
  4 20  1  0  0  0  0
  5  6  2  0  0  0  0
  6 27  1  0  0  0  0
  6 18  1  0  0  0  0
  7 23  1  0  0  0  0
  8 12  1  0  0  0  0
 10 17  1  0  0  0  0
 11  4  1  0  0  0  0
 12 13  2  0  0  0  0
 12  2  1  0  0  0  0
 13 21  1  0  0  0  0
 14 22  1  0  0  0  0
 15  9  1  0  0  0  0
 16 19  2  0  0  0  0
 17  8  1  0  0  0  0
 17  7  2  0  0  0  0
 18 15  2  0  0  0  0
 19  7  1  0  0  0  0
 21 20  1  0  0  0  0
 21 14  2  0  0  0  0
 22 27  2  0  0  0  0
 23 24  2  0  0  0  0
 23  2  1  0  0  0  0
 25  9  2  0  0  0  0
 26 14  1  6  0  0  0
 26  5  1  0  0  0  0
 27 25  1  0  0  0  0
 28  1  1  0  0  0  0
 29 28  1  0  0  0  0
 30 29  1  0  0  0  0
 30 31  1  0  0  0  0
 31 32  1  0  0  0  0
M  END
>  <MODEL>
9

>  <REMARK>
 VINA RESULT:      -8.1      2.755      6.092
  Name = 
  4 active torsions:
  status: ('A' for Active; 'I' for Inactive)
    1  A    between atoms: C_1  and  C_20
    2  A    between atoms: C_2  and  N_24
    3  A    between atoms: C_10  and  C_20
    4  A    between atoms: C_10  and  N_24
                            x       y       z     vdW  Elec       q    Type
                         _______ _______ _______ _____ _____    ______ ____

>  <TORSDO>
F 4

$$$$
