=
 OpenBabel10262419193D

 31 35  0  0  0  0  0  0  0  0999 V2000
  184.9180  178.5180  143.6410 C   0  0  0  0  0  0  0  0  0  0  0  0
  188.6100  177.7820  143.4170 C   0  0  0  0  0  0  0  0  0  0  0  0
  189.0500  177.5310  144.7590 C   0  0  0  0  0  0  0  0  0  0  0  0
  188.5970  177.1060  147.2350 C   0  0  0  0  0  3  0  0  0  0  0  0
  187.2610  178.1150  143.0650 C   0  0  0  0  0  0  0  0  0  0  0  0
  184.6160  178.7710  142.3060 C   0  0  0  0  0  3  0  0  0  0  0  0
  188.1530  177.7700  145.9610 C   0  0  0  0  0  2  0  0  0  0  0  0
  189.2060  177.9490  141.0250 C   0  0  0  0  0  0  0  0  0  0  0  0
  183.6630  178.6070  144.8560 Cl  0  0  0  0  0  0  0  0  0  0  0  0
  191.3030  177.0860  143.9460 C   0  0  0  0  0  3  0  0  0  0  0  0
  189.8550  176.7210  147.4360 C   0  0  0  0  0  3  0  0  0  0  0  0
  187.8950  178.2860  140.7170 C   0  0  0  0  0  3  0  0  0  0  0  0
  189.5720  177.6910  142.3620 C   0  0  0  0  0  0  0  0  0  0  0  0
  186.2240  178.1920  144.0120 C   0  0  0  0  0  3  0  0  0  0  0  0
  190.8460  176.8430  146.3660 C   0  0  0  0  0  0  0  0  0  0  0  0
  186.9280  178.3660  141.7080 C   0  0  0  0  0  0  0  0  0  0  0  0
  185.6190  178.6940  141.3420 C   0  0  0  0  0  3  0  0  0  0  0  0
  190.8960  177.3450  142.6490 C   0  0  0  0  0  3  0  0  0  0  0  0
  190.4000  177.1760  144.9990 C   0  0  0  0  0  0  0  0  0  0  0  0
  192.0590  176.6100  146.6140 O   0  0  0  0  0  0  0  0  0  0  0  0
  190.1990  177.9020  139.9020 C   0  0  0  0  0  2  0  0  0  0  0  0
  187.3760  177.8030  135.6650 C   0  0  0  0  0  0  0  0  0  0  0  0
  188.7940  178.3990  137.4700 N   0  0  0  0  0  0  0  0  0  0  0  0
  188.5180  174.9080  137.3580 O   0  0  0  0  0  0  0  0  0  0  0  0
  190.2970  175.6650  139.1120 O   0  0  0  0  0  0  0  0  0  0  0  0
  186.5710  178.1640  134.5940 O   0  0  0  0  0  1  0  0  0  0  0  0
  189.8390  176.8250  138.9260 C   0  0  0  0  0  0  0  0  0  0  0  0
  188.0100  178.7750  136.4270 C   0  0  0  0  0  3  0  0  0  0  0  0
  188.3720  176.1250  137.0680 C   0  0  0  0  0  0  0  0  0  0  0  0
  188.9850  177.1150  137.7980 N   0  0  0  0  0  0  0  0  0  0  0  0
  187.5580  176.4640  135.9880 C   0  0  0  0  0  3  0  0  0  0  0  0
  1 14  1  0  0  0  0
  1  9  1  0  0  0  0
  2  3  1  0  0  0  0
  3 19  2  0  0  0  0
  3  7  1  0  0  0  0
  4 11  2  0  0  0  0
  5  2  1  0  0  0  0
  5 14  2  0  0  0  0
  6  1  2  0  0  0  0
  7  4  1  0  0  0  0
  8 13  1  0  0  0  0
 10 19  1  0  0  0  0
 12  8  2  0  0  0  0
 12 16  1  0  0  0  0
 13 18  1  0  0  0  0
 13  2  2  0  0  0  0
 15 20  2  0  0  0  0
 15 11  1  0  0  0  0
 16  5  1  0  0  0  0
 17 16  2  0  0  0  0
 17  6  1  0  0  0  0
 18 10  2  0  0  0  0
 19 15  1  0  0  0  0
 21  8  1  0  0  0  0
 22 31  2  0  0  0  0
 22 28  1  0  0  0  0
 23 30  1  0  0  0  0
 26 22  1  0  0  0  0
 27 25  2  0  0  0  0
 27 21  1  0  0  0  0
 28 23  2  0  0  0  0
 29 24  2  0  0  0  0
 29 30  1  0  0  0  0
 30 27  1  0  0  0  0
 31 29  1  0  0  0  0
M  END
>  <MODEL>
1

>  <REMARK>
 VINA RESULT:     -11.2      0.000      0.000
  Name = 
  2 active torsions:
  status: ('A' for Active; 'I' for Inactive)
    1  A    between atoms: C_9  and  C_23
    2  A    between atoms: C_15  and  C_23
                            x       y       z     vdW  Elec       q    Type
                         _______ _______ _______ _____ _____    ______ ____

>  <TORSDO>
F 2

$$$$
=
 OpenBabel10262419193D

 31 35  0  0  0  0  0  0  0  0999 V2000
  191.0180  176.7010  144.6500 C   0  0  0  0  0  0  0  0  0  0  0  0
  187.6440  177.8640  143.4320 C   0  0  0  0  0  0  0  0  0  0  0  0
  186.8290  178.0230  144.6020 C   0  0  0  0  0  0  0  0  0  0  0  0
  186.5210  178.1350  147.1340 C   0  0  0  0  0  3  0  0  0  0  0  0
  189.0060  177.4200  143.4580 C   0  0  0  0  0  0  0  0  0  0  0  0
  191.7000  176.5560  143.4440 C   0  0  0  0  0  3  0  0  0  0  0  0
  187.2880  177.5610  145.9740 C   0  0  0  0  0  2  0  0  0  0  0  0
  187.8080  178.0140  140.9720 C   0  0  0  0  0  0  0  0  0  0  0  0
  191.8240  176.3470  146.1620 Cl  0  0  0  0  0  0  0  0  0  0  0  0
  184.9790  178.7980  143.2200 C   0  0  0  0  0  3  0  0  0  0  0  0
  185.2960  178.6350  146.9990 C   0  0  0  0  0  3  0  0  0  0  0  0
  189.1220  177.5650  141.0270 C   0  0  0  0  0  3  0  0  0  0  0  0
  187.0660  178.1700  142.1600 C   0  0  0  0  0  0  0  0  0  0  0  0
  189.6890  177.1310  144.6530 C   0  0  0  0  0  3  0  0  0  0  0  0
  184.6790  178.7360  145.6760 C   0  0  0  0  0  0  0  0  0  0  0  0
  189.7240  177.2760  142.2430 C   0  0  0  0  0  0  0  0  0  0  0  0
  191.0540  176.8440  142.2440 C   0  0  0  0  0  3  0  0  0  0  0  0
  185.7480  178.6310  142.0810 C   0  0  0  0  0  3  0  0  0  0  0  0
  185.5020  178.4980  144.4730 C   0  0  0  0  0  0  0  0  0  0  0  0
  183.4700  179.0760  145.5780 O   0  0  0  0  0  0  0  0  0  0  0  0
  187.2190  178.2870  139.6200 C   0  0  0  0  0  2  0  0  0  0  0  0
  188.3190  174.6500  136.2300 C   0  0  0  0  0  0  0  0  0  0  0  0
  187.2620  176.1440  137.7380 N   0  0  0  0  0  0  0  0  0  0  0  0
  190.4510  177.3800  136.9760 O   0  0  0  0  0  0  0  0  0  0  0  0
  189.0780  179.0960  138.3840 O   0  0  0  0  0  0  0  0  0  0  0  0
  188.3010  173.4860  135.4740 O   0  0  0  0  0  1  0  0  0  0  0  0
  188.2610  178.1500  138.5530 C   0  0  0  0  0  0  0  0  0  0  0  0
  187.2230  175.0000  137.0070 C   0  0  0  0  0  3  0  0  0  0  0  0
  189.4280  176.6430  136.9850 C   0  0  0  0  0  0  0  0  0  0  0  0
  188.3240  176.9590  137.7400 N   0  0  0  0  0  0  0  0  0  0  0  0
  189.4330  175.4790  136.2180 C   0  0  0  0  0  3  0  0  0  0  0  0
  1 14  1  0  0  0  0
  1  9  1  0  0  0  0
  2  5  1  0  0  0  0
  2  3  1  0  0  0  0
  3  7  1  0  0  0  0
  5 14  2  0  0  0  0
  6  1  2  0  0  0  0
  7  4  1  0  0  0  0
  8 12  2  0  0  0  0
  8 13  1  0  0  0  0
 10 19  1  0  0  0  0
 11  4  2  0  0  0  0
 12 16  1  0  0  0  0
 13  2  2  0  0  0  0
 15 11  1  0  0  0  0
 16 17  2  0  0  0  0
 16  5  1  0  0  0  0
 17  6  1  0  0  0  0
 18 13  1  0  0  0  0
 18 10  2  0  0  0  0
 19  3  2  0  0  0  0
 19 15  1  0  0  0  0
 20 15  2  0  0  0  0
 21  8  1  0  0  0  0
 22 28  1  0  0  0  0
 23 30  1  0  0  0  0
 24 29  2  0  0  0  0
 25 27  2  0  0  0  0
 26 22  1  0  0  0  0
 27 21  1  0  0  0  0
 28 23  2  0  0  0  0
 29 30  1  0  0  0  0
 30 27  1  0  0  0  0
 31 22  2  0  0  0  0
 31 29  1  0  0  0  0
M  END
>  <MODEL>
2

>  <REMARK>
 VINA RESULT:     -11.1      2.763      4.412
  Name = 
  2 active torsions:
  status: ('A' for Active; 'I' for Inactive)
    1  A    between atoms: C_9  and  C_23
    2  A    between atoms: C_15  and  C_23
                            x       y       z     vdW  Elec       q    Type
                         _______ _______ _______ _____ _____    ______ ____

>  <TORSDO>
F 2

$$$$
=
 OpenBabel10262419193D

 31 35  0  0  0  0  0  0  0  0999 V2000
  184.8500  178.4870  143.7570 C   0  0  0  0  0  0  0  0  0  0  0  0
  188.5410  177.7240  143.6400 C   0  0  0  0  0  0  0  0  0  0  0  0
  188.9520  177.5240  145.0000 C   0  0  0  0  0  0  0  0  0  0  0  0
  188.4450  177.2010  147.4810 C   0  0  0  0  0  3  0  0  0  0  0  0
  187.2030  178.0500  143.2470 C   0  0  0  0  0  0  0  0  0  0  0  0
  184.5780  178.6880  142.4060 C   0  0  0  0  0  3  0  0  0  0  0  0
  188.0320  177.8160  146.1720 C   0  0  0  0  0  2  0  0  0  0  0  0
  189.1890  177.7920  141.2570 C   0  0  0  0  0  0  0  0  0  0  0  0
  183.5700  178.6310  144.9410 Cl  0  0  0  0  0  0  0  0  0  0  0  0
  191.2190  177.0350  144.2540 C   0  0  0  0  0  3  0  0  0  0  0  0
  189.6960  176.8180  147.7230 C   0  0  0  0  0  3  0  0  0  0  0  0
  187.8860  178.1240  140.9080 C   0  0  0  0  0  3  0  0  0  0  0  0
  189.5250  177.5860  142.6110 C   0  0  0  0  0  0  0  0  0  0  0  0
  186.1460  178.1700  144.1680 C   0  0  0  0  0  3  0  0  0  0  0  0
  190.7100  176.8920  146.6710 C   0  0  0  0  0  0  0  0  0  0  0  0
  186.8990  178.2480  141.8740 C   0  0  0  0  0  0  0  0  0  0  0  0
  185.6010  178.5680  141.4670 C   0  0  0  0  0  3  0  0  0  0  0  0
  190.8400  177.2450  142.9390 C   0  0  0  0  0  3  0  0  0  0  0  0
  190.2940  177.1730  145.2830 C   0  0  0  0  0  0  0  0  0  0  0  0
  191.9160  176.6630  146.9540 O   0  0  0  0  0  0  0  0  0  0  0  0
  190.2050  177.6950  140.1580 C   0  0  0  0  0  2  0  0  0  0  0  0
  189.5960  174.9010  135.9450 C   0  0  0  0  0  0  0  0  0  0  0  0
  189.8460  175.6810  138.1700 N   0  0  0  0  0  0  0  0  0  0  0  0
  189.0410  178.3970  136.1070 O   0  0  0  0  0  0  0  0  0  0  0  0
  189.0380  179.0830  138.6250 O   0  0  0  0  0  0  0  0  0  0  0  0
  189.6130  173.8660  135.0200 O   0  0  0  0  0  1  0  0  0  0  0  0
  189.5680  177.9570  138.8280 C   0  0  0  0  0  0  0  0  0  0  0  0
  189.8690  174.6540  137.2830 C   0  0  0  0  0  3  0  0  0  0  0  0
  189.2940  177.2220  136.4880 C   0  0  0  0  0  0  0  0  0  0  0  0
  189.5660  176.9390  137.8040 N   0  0  0  0  0  0  0  0  0  0  0  0
  189.3050  176.1990  135.5420 C   0  0  0  0  0  3  0  0  0  0  0  0
  1 14  1  0  0  0  0
  1  9  1  0  0  0  0
  2  3  1  0  0  0  0
  3 19  2  0  0  0  0
  3  7  1  0  0  0  0
  4 11  2  0  0  0  0
  5  2  1  0  0  0  0
  5 14  2  0  0  0  0
  6  1  2  0  0  0  0
  7  4  1  0  0  0  0
  8 13  1  0  0  0  0
 10 19  1  0  0  0  0
 12  8  2  0  0  0  0
 12 16  1  0  0  0  0
 13 18  1  0  0  0  0
 13  2  2  0  0  0  0
 15 20  2  0  0  0  0
 15 11  1  0  0  0  0
 16  5  1  0  0  0  0
 17 16  2  0  0  0  0
 17  6  1  0  0  0  0
 18 10  2  0  0  0  0
 19 15  1  0  0  0  0
 21  8  1  0  0  0  0
 22 28  1  0  0  0  0
 24 29  2  0  0  0  0
 25 27  2  0  0  0  0
 26 22  1  0  0  0  0
 27 21  1  0  0  0  0
 28 23  2  0  0  0  0
 29 30  1  0  0  0  0
 30 23  1  0  0  0  0
 30 27  1  0  0  0  0
 31 22  2  0  0  0  0
 31 29  1  0  0  0  0
M  END
>  <MODEL>
3

>  <REMARK>
 VINA RESULT:     -10.9      1.273      1.866
  Name = 
  2 active torsions:
  status: ('A' for Active; 'I' for Inactive)
    1  A    between atoms: C_9  and  C_23
    2  A    between atoms: C_15  and  C_23
                            x       y       z     vdW  Elec       q    Type
                         _______ _______ _______ _____ _____    ______ ____

>  <TORSDO>
F 2

$$$$
=
 OpenBabel10262419193D

 31 35  0  0  0  0  0  0  0  0999 V2000
  189.9820  177.1390  145.9510 C   0  0  0  0  0  0  0  0  0  0  0  0
  187.6200  178.0220  143.1470 C   0  0  0  0  0  0  0  0  0  0  0  0
  186.3280  178.1880  143.7490 C   0  0  0  0  0  0  0  0  0  0  0  0
  184.8040  178.4090  145.7850 C   0  0  0  0  0  3  0  0  0  0  0  0
  188.8030  177.6680  143.8730 C   0  0  0  0  0  0  0  0  0  0  0  0
  191.1750  176.9760  145.2520 C   0  0  0  0  0  3  0  0  0  0  0  0
  186.0620  177.8260  145.2000 C   0  0  0  0  0  2  0  0  0  0  0  0
  188.9760  178.0570  141.0830 C   0  0  0  0  0  0  0  0  0  0  0  0
  189.9440  176.9140  147.6860 Cl  0  0  0  0  0  0  0  0  0  0  0  0
  185.3830  178.7730  141.5810 C   0  0  0  0  0  3  0  0  0  0  0  0
  183.7920  178.8220  145.0280 C   0  0  0  0  0  3  0  0  0  0  0  0
  190.1030  177.6960  141.8110 C   0  0  0  0  0  3  0  0  0  0  0  0
  187.7380  178.2260  141.7360 C   0  0  0  0  0  0  0  0  0  0  0  0
  188.8140  177.4830  145.2680 C   0  0  0  0  0  3  0  0  0  0  0  0
  183.9090  178.8160  143.5690 C   0  0  0  0  0  0  0  0  0  0  0  0
  190.0330  177.5070  143.1830 C   0  0  0  0  0  0  0  0  0  0  0  0
  191.2000  177.1610  143.8710 C   0  0  0  0  0  3  0  0  0  0  0  0
  186.6190  178.5970  140.9850 C   0  0  0  0  0  3  0  0  0  0  0  0
  185.2250  178.5710  142.9490 C   0  0  0  0  0  0  0  0  0  0  0  0
  182.8970  179.0740  142.8640 O   0  0  0  0  0  0  0  0  0  0  0  0
  189.1260  178.2230  139.6000 C   0  0  0  0  0  2  0  0  0  0  0  0
  193.2320  175.7230  137.9210 C   0  0  0  0  0  0  0  0  0  0  0  0
  191.6980  177.1010  139.0940 N   0  0  0  0  0  0  0  0  0  0  0  0
  189.8960  174.8080  137.1510 O   0  0  0  0  0  0  0  0  0  0  0  0
  188.3180  176.1720  138.7190 O   0  0  0  0  0  0  0  0  0  0  0  0
  194.5350  175.3630  137.6090 O   0  0  0  0  0  1  0  0  0  0  0  0
  189.3270  176.8950  138.9380 C   0  0  0  0  0  0  0  0  0  0  0  0
  192.9820  176.7660  138.8020 C   0  0  0  0  0  3  0  0  0  0  0  0
  190.8590  175.4230  137.6820 C   0  0  0  0  0  0  0  0  0  0  0  0
  190.6510  176.4590  138.5610 N   0  0  0  0  0  0  0  0  0  0  0  0
  192.1600  175.0440  137.3540 C   0  0  0  0  0  3  0  0  0  0  0  0
  1  9  1  0  0  0  0
  2  3  1  0  0  0  0
  2  5  1  0  0  0  0
  3  7  1  0  0  0  0
  5 14  2  0  0  0  0
  6  1  2  0  0  0  0
  7  4  1  0  0  0  0
  8 13  1  0  0  0  0
  8 12  2  0  0  0  0
 10 19  1  0  0  0  0
 11  4  2  0  0  0  0
 12 16  1  0  0  0  0
 13  2  2  0  0  0  0
 14  1  1  0  0  0  0
 15 11  1  0  0  0  0
 16 17  2  0  0  0  0
 16  5  1  0  0  0  0
 17  6  1  0  0  0  0
 18 10  2  0  0  0  0
 18 13  1  0  0  0  0
 19 15  1  0  0  0  0
 19  3  2  0  0  0  0
 20 15  2  0  0  0  0
 21  8  1  0  0  0  0
 22 28  1  0  0  0  0
 24 29  2  0  0  0  0
 25 27  2  0  0  0  0
 26 22  1  0  0  0  0
 27 21  1  0  0  0  0
 28 23  2  0  0  0  0
 29 30  1  0  0  0  0
 30 27  1  0  0  0  0
 30 23  1  0  0  0  0
 31 29  1  0  0  0  0
 31 22  2  0  0  0  0
M  END
>  <MODEL>
4

>  <REMARK>
 VINA RESULT:     -10.9      2.720      4.988
  Name = 
  2 active torsions:
  status: ('A' for Active; 'I' for Inactive)
    1  A    between atoms: C_9  and  C_23
    2  A    between atoms: C_15  and  C_23
                            x       y       z     vdW  Elec       q    Type
                         _______ _______ _______ _____ _____    ______ ____

>  <TORSDO>
F 2

$$$$
=
 OpenBabel10262419193D

 31 35  0  0  0  0  0  0  0  0999 V2000
  190.4540  177.2480  141.9080 C   0  0  0  0  0  0  0  0  0  0  0  0
  186.9200  178.1920  142.8240 C   0  0  0  0  0  0  0  0  0  0  0  0
  186.8330  178.0810  144.2520 C   0  0  0  0  0  0  0  0  0  0  0  0
  187.8920  177.7790  146.5550 C   0  0  0  0  0  3  0  0  0  0  0  0
  188.1030  177.9060  142.0680 C   0  0  0  0  0  0  0  0  0  0  0  0
  190.4080  177.3620  140.5210 C   0  0  0  0  0  3  0  0  0  0  0  0
  187.9500  177.4750  145.0830 C   0  0  0  0  0  2  0  0  0  0  0  0
  185.7720  178.7250  140.7020 C   0  0  0  0  0  0  0  0  0  0  0  0
  191.9370  176.7650  142.6990 Cl  0  0  0  0  0  0  0  0  0  0  0  0
  184.5200  178.8410  144.1800 C   0  0  0  0  0  3  0  0  0  0  0  0
  186.7670  178.1530  147.1600 C   0  0  0  0  0  3  0  0  0  0  0  0
  186.9290  178.4240  139.9950 C   0  0  0  0  0  3  0  0  0  0  0  0
  185.7570  178.6180  142.1080 C   0  0  0  0  0  0  0  0  0  0  0  0
  189.3150  177.5200  142.6690 C   0  0  0  0  0  3  0  0  0  0  0  0
  185.5480  178.3800  146.3830 C   0  0  0  0  0  0  0  0  0  0  0  0
  188.0830  178.0260  140.6540 C   0  0  0  0  0  0  0  0  0  0  0  0
  189.2250  177.7510  139.8960 C   0  0  0  0  0  3  0  0  0  0  0  0
  184.5840  178.9330  142.8000 C   0  0  0  0  0  3  0  0  0  0  0  0
  185.6260  178.4190  144.9090 C   0  0  0  0  0  0  0  0  0  0  0  0
  184.4600  178.5920  146.9810 O   0  0  0  0  0  0  0  0  0  0  0  0
  184.5590  179.1290  139.9190 C   0  0  0  0  0  2  0  0  0  0  0  0
  180.1760  176.6350  140.6320 C   0  0  0  0  0  0  0  0  0  0  0  0
  181.9010  178.2550  140.4780 N   0  0  0  0  0  0  0  0  0  0  0  0
  182.8640  175.4080  138.6760 O   0  0  0  0  0  0  0  0  0  0  0  0
  184.5480  177.3700  138.3230 O   0  0  0  0  0  0  0  0  0  0  0  0
  178.9310  176.2400  141.0990 O   0  0  0  0  0  1  0  0  0  0  0  0
  183.9310  177.9360  139.2670 C   0  0  0  0  0  0  0  0  0  0  0  0
  180.6810  177.8890  140.9480 C   0  0  0  0  0  3  0  0  0  0  0  0
  182.1820  176.1980  139.3820 C   0  0  0  0  0  0  0  0  0  0  0  0
  182.6470  177.4480  139.7130 N   0  0  0  0  0  0  0  0  0  0  0  0
  180.9340  175.7800  139.8410 C   0  0  0  0  0  3  0  0  0  0  0  0
  1 14  1  0  0  0  0
  1  9  1  0  0  0  0
  2  3  1  0  0  0  0
  3 19  2  0  0  0  0
  3  7  1  0  0  0  0
  4 11  2  0  0  0  0
  5 14  2  0  0  0  0
  5  2  1  0  0  0  0
  6  1  2  0  0  0  0
  7  4  1  0  0  0  0
  8 13  1  0  0  0  0
 10 19  1  0  0  0  0
 12 16  1  0  0  0  0
 12  8  2  0  0  0  0
 13 18  1  0  0  0  0
 13  2  2  0  0  0  0
 15 20  2  0  0  0  0
 15 11  1  0  0  0  0
 16  5  1  0  0  0  0
 17  6  1  0  0  0  0
 17 16  2  0  0  0  0
 18 10  2  0  0  0  0
 19 15  1  0  0  0  0
 21  8  1  0  0  0  0
 22 28  1  0  0  0  0
 22 26  1  0  0  0  0
 23 28  2  0  0  0  0
 24 29  2  0  0  0  0
 25 27  2  0  0  0  0
 27 30  1  0  0  0  0
 27 21  1  0  0  0  0
 29 30  1  0  0  0  0
 29 31  1  0  0  0  0
 30 23  1  0  0  0  0
 31 22  2  0  0  0  0
M  END
>  <MODEL>
5

>  <REMARK>
 VINA RESULT:     -10.7      4.104      5.802
  Name = 
  2 active torsions:
  status: ('A' for Active; 'I' for Inactive)
    1  A    between atoms: C_9  and  C_23
    2  A    between atoms: C_15  and  C_23
                            x       y       z     vdW  Elec       q    Type
                         _______ _______ _______ _____ _____    ______ ____

>  <TORSDO>
F 2

$$$$
=
 OpenBabel10262419193D

 31 35  0  0  0  0  0  0  0  0999 V2000
  190.4050  176.8400  145.3890 C   0  0  0  0  0  0  0  0  0  0  0  0
  187.7020  177.9860  143.0230 C   0  0  0  0  0  0  0  0  0  0  0  0
  186.5110  178.1220  143.8120 C   0  0  0  0  0  0  0  0  0  0  0  0
  185.2910  178.2000  146.0530 C   0  0  0  0  0  3  0  0  0  0  0  0
  188.9650  177.5540  143.5460 C   0  0  0  0  0  0  0  0  0  0  0  0
  191.4850  176.7160  144.5190 C   0  0  0  0  0  3  0  0  0  0  0  0
  186.4390  177.6480  145.2530 C   0  0  0  0  0  2  0  0  0  0  0  0
  188.7590  178.1660  140.7980 C   0  0  0  0  0  0  0  0  0  0  0  0
  190.6030  176.4750  147.0890 Cl  0  0  0  0  0  0  0  0  0  0  0  0
  185.2910  178.8970  141.8510 C   0  0  0  0  0  3  0  0  0  0  0  0
  184.1960  178.6910  145.4790 C   0  0  0  0  0  3  0  0  0  0  0  0
  189.9660  177.7300  141.3300 C   0  0  0  0  0  3  0  0  0  0  0  0
  187.6290  178.3010  141.6300 C   0  0  0  0  0  0  0  0  0  0  0  0
  189.1630  177.2560  144.9070 C   0  0  0  0  0  3  0  0  0  0  0  0
  184.1080  178.8010  144.0230 C   0  0  0  0  0  0  0  0  0  0  0  0
  190.0820  177.4310  142.6790 C   0  0  0  0  0  0  0  0  0  0  0  0
  191.3230  177.0120  143.1670 C   0  0  0  0  0  3  0  0  0  0  0  0
  186.4270  178.7500  141.0750 C   0  0  0  0  0  3  0  0  0  0  0  0
  185.3190  178.5870  143.2070 C   0  0  0  0  0  0  0  0  0  0  0  0
  183.0160  179.1310  143.4900 O   0  0  0  0  0  0  0  0  0  0  0  0
  188.7060  178.4510  139.3260 C   0  0  0  0  0  2  0  0  0  0  0  0
  185.3130  176.0570  136.3780 C   0  0  0  0  0  0  0  0  0  0  0  0
  186.6160  177.6490  137.5580 N   0  0  0  0  0  0  0  0  0  0  0  0
  188.3160  174.5850  137.5480 O   0  0  0  0  0  0  0  0  0  0  0  0
  189.7940  176.4880  138.5500 O   0  0  0  0  0  0  0  0  0  0  0  0
  184.1690  175.7240  135.6660 O   0  0  0  0  0  1  0  0  0  0  0  0
  188.7370  177.1760  138.5420 C   0  0  0  0  0  0  0  0  0  0  0  0
  185.4890  177.3450  136.8650 C   0  0  0  0  0  3  0  0  0  0  0  0
  187.4380  175.4620  137.3310 C   0  0  0  0  0  0  0  0  0  0  0  0
  187.5780  176.7480  137.7940 N   0  0  0  0  0  0  0  0  0  0  0  0
  186.2970  175.1050  136.6140 C   0  0  0  0  0  3  0  0  0  0  0  0
  1  9  1  0  0  0  0
  2  5  1  0  0  0  0
  2  3  1  0  0  0  0
  3  7  1  0  0  0  0
  5 14  2  0  0  0  0
  6  1  2  0  0  0  0
  7  4  1  0  0  0  0
  8 12  2  0  0  0  0
  8 13  1  0  0  0  0
 10 19  1  0  0  0  0
 11  4  2  0  0  0  0
 12 16  1  0  0  0  0
 13  2  2  0  0  0  0
 14  1  1  0  0  0  0
 15 11  1  0  0  0  0
 16 17  2  0  0  0  0
 16  5  1  0  0  0  0
 17  6  1  0  0  0  0
 18 13  1  0  0  0  0
 18 10  2  0  0  0  0
 19  3  2  0  0  0  0
 19 15  1  0  0  0  0
 20 15  2  0  0  0  0
 21  8  1  0  0  0  0
 22 31  2  0  0  0  0
 22 28  1  0  0  0  0
 23 30  1  0  0  0  0
 26 22  1  0  0  0  0
 27 25  2  0  0  0  0
 27 21  1  0  0  0  0
 28 23  2  0  0  0  0
 29 24  2  0  0  0  0
 29 30  1  0  0  0  0
 30 27  1  0  0  0  0
 31 29  1  0  0  0  0
M  END
>  <MODEL>
6

>  <REMARK>
 VINA RESULT:     -10.6      2.544      4.360
  Name = 
  2 active torsions:
  status: ('A' for Active; 'I' for Inactive)
    1  A    between atoms: C_9  and  C_23
    2  A    between atoms: C_15  and  C_23
                            x       y       z     vdW  Elec       q    Type
                         _______ _______ _______ _____ _____    ______ ____

>  <TORSDO>
F 2

$$$$
=
 OpenBabel10262419193D

 31 35  0  0  0  0  0  0  0  0999 V2000
  186.8140  177.9690  146.9880 C   0  0  0  0  0  0  0  0  0  0  0  0
  187.4230  178.0870  143.2690 C   0  0  0  0  0  0  0  0  0  0  0  0
  188.8110  177.7740  143.0810 C   0  0  0  0  0  0  0  0  0  0  0  0
  191.0720  176.9580  143.9400 C   0  0  0  0  0  3  0  0  0  0  0  0
  186.7850  178.1600  144.5500 C   0  0  0  0  0  0  0  0  0  0  0  0
  185.4660  178.3130  147.0480 C   0  0  0  0  0  3  0  0  0  0  0  0
  189.7790  177.6620  144.2460 C   0  0  0  0  0  2  0  0  0  0  0  0
  185.2600  178.6740  142.2300 C   0  0  0  0  0  0  0  0  0  0  0  0
  187.6980  177.6320  148.4600 Cl  0  0  0  0  0  0  0  0  0  0  0  0
  188.5290  177.9330  140.6660 C   0  0  0  0  0  3  0  0  0  0  0  0
  191.5390  176.8340  142.7010 C   0  0  0  0  0  3  0  0  0  0  0  0
  184.6730  178.7540  143.4860 C   0  0  0  0  0  3  0  0  0  0  0  0
  186.6250  178.3390  142.1090 C   0  0  0  0  0  0  0  0  0  0  0  0
  187.4610  177.8920  145.7540 C   0  0  0  0  0  3  0  0  0  0  0  0
  190.7470  177.3000  141.5620 C   0  0  0  0  0  0  0  0  0  0  0  0
  185.4090  178.4980  144.6330 C   0  0  0  0  0  0  0  0  0  0  0  0
  184.7650  178.5760  145.8720 C   0  0  0  0  0  3  0  0  0  0  0  0
  187.1930  178.2560  140.8350 C   0  0  0  0  0  3  0  0  0  0  0  0
  189.3400  177.6940  141.7700 C   0  0  0  0  0  0  0  0  0  0  0  0
  191.2600  177.3080  140.4110 O   0  0  0  0  0  0  0  0  0  0  0  0
  184.4060  178.9830  141.0370 C   0  0  0  0  0  2  0  0  0  0  0  0
  181.5520  175.4910  138.6720 C   0  0  0  0  0  0  0  0  0  0  0  0
  183.3190  176.7650  139.6100 N   0  0  0  0  0  0  0  0  0  0  0  0
  180.2890  177.8400  141.0050 O   0  0  0  0  0  0  0  0  0  0  0  0
  182.3290  178.9590  142.1870 O   0  0  0  0  0  0  0  0  0  0  0  0
  181.1070  174.4970  137.8120 O   0  0  0  0  0  1  0  0  0  0  0  0
  183.0110  178.4770  141.2430 C   0  0  0  0  0  0  0  0  0  0  0  0
  182.9050  175.7900  138.7610 C   0  0  0  0  0  3  0  0  0  0  0  0
  181.1200  177.1950  140.3100 C   0  0  0  0  0  0  0  0  0  0  0  0
  182.4670  177.4600  140.3740 N   0  0  0  0  0  0  0  0  0  0  0  0
  180.6500  176.2010  139.4540 C   0  0  0  0  0  3  0  0  0  0  0  0
  1  6  1  0  0  0  0
  1  9  1  0  0  0  0
  2  5  1  0  0  0  0
  3  2  1  0  0  0  0
  3  7  1  0  0  0  0
  4  7  1  0  0  0  0
  5 16  2  0  0  0  0
  5 14  1  0  0  0  0
  8 12  2  0  0  0  0
 10 18  2  0  0  0  0
 10 19  1  0  0  0  0
 11  4  2  0  0  0  0
 12 16  1  0  0  0  0
 13  8  1  0  0  0  0
 13  2  2  0  0  0  0
 14  1  2  0  0  0  0
 15 19  1  0  0  0  0
 15 11  1  0  0  0  0
 16 17  1  0  0  0  0
 17  6  2  0  0  0  0
 18 13  1  0  0  0  0
 19  3  2  0  0  0  0
 20 15  2  0  0  0  0
 21 27  1  0  0  0  0
 21  8  1  0  0  0  0
 22 28  1  0  0  0  0
 22 31  2  0  0  0  0
 23 30  1  0  0  0  0
 26 22  1  0  0  0  0
 27 25  2  0  0  0  0
 28 23  2  0  0  0  0
 29 30  1  0  0  0  0
 29 24  2  0  0  0  0
 30 27  1  0  0  0  0
 31 29  1  0  0  0  0
M  END
>  <MODEL>
7

>  <REMARK>
 VINA RESULT:     -10.2      3.875      5.489
  Name = 
  2 active torsions:
  status: ('A' for Active; 'I' for Inactive)
    1  A    between atoms: C_9  and  C_23
    2  A    between atoms: C_15  and  C_23
                            x       y       z     vdW  Elec       q    Type
                         _______ _______ _______ _____ _____    ______ ____

>  <TORSDO>
F 2

$$$$
=
 OpenBabel10262419193D

 31 35  0  0  0  0  0  0  0  0999 V2000
  189.0370  177.6080  147.1190 C   0  0  0  0  0  0  0  0  0  0  0  0
  187.2380  177.8010  143.8100 C   0  0  0  0  0  0  0  0  0  0  0  0
  185.8810  178.1550  144.1130 C   0  0  0  0  0  0  0  0  0  0  0  0
  184.0650  178.9420  145.7250 C   0  0  0  0  0  3  0  0  0  0  0  0
  188.2570  177.6130  144.8000 C   0  0  0  0  0  0  0  0  0  0  0  0
  190.3130  177.2340  146.7060 C   0  0  0  0  0  3  0  0  0  0  0  0
  185.3540  178.1910  145.5370 C   0  0  0  0  0  2  0  0  0  0  0  0
  188.9130  177.2580  142.0780 C   0  0  0  0  0  0  0  0  0  0  0  0
  188.6990  177.8420  148.8190 Cl  0  0  0  0  0  0  0  0  0  0  0  0
  185.3500  178.1850  141.7350 C   0  0  0  0  0  3  0  0  0  0  0  0
  183.2240  179.1750  144.7200 C   0  0  0  0  0  3  0  0  0  0  0  0
  189.8750  177.0660  143.0610 C   0  0  0  0  0  3  0  0  0  0  0  0
  187.6010  177.6280  142.4380 C   0  0  0  0  0  0  0  0  0  0  0  0
  188.0250  177.7960  146.1760 C   0  0  0  0  0  3  0  0  0  0  0  0
  183.5770  178.7860  143.3540 C   0  0  0  0  0  0  0  0  0  0  0  0
  189.5680  177.2420  144.4020 C   0  0  0  0  0  0  0  0  0  0  0  0
  190.5780  177.0530  145.3500 C   0  0  0  0  0  3  0  0  0  0  0  0
  186.6510  177.8240  141.4310 C   0  0  0  0  0  3  0  0  0  0  0  0
  184.9560  178.3500  143.0590 C   0  0  0  0  0  0  0  0  0  0  0  0
  182.7160  178.8810  142.4390 O   0  0  0  0  0  0  0  0  0  0  0  0
  189.3150  177.0290  140.6510 C   0  0  0  0  0  2  0  0  0  0  0  0
  192.5720  176.2740  136.8100 C   0  0  0  0  0  0  0  0  0  0  0  0
  190.6690  176.6850  138.1640 N   0  0  0  0  0  0  0  0  0  0  0  0
  193.5520  177.1300  140.1050 O   0  0  0  0  0  0  0  0  0  0  0  0
  191.4090  177.8550  141.4070 O   0  0  0  0  0  0  0  0  0  0  0  0
  193.1310  175.9290  135.5870 O   0  0  0  0  0  1  0  0  0  0  0  0
  190.7750  177.3090  140.4640 C   0  0  0  0  0  0  0  0  0  0  0  0
  191.1940  176.3460  136.9590 C   0  0  0  0  0  3  0  0  0  0  0  0
  192.8030  176.8940  139.1200 C   0  0  0  0  0  0  0  0  0  0  0  0
  191.4340  176.9580  139.2280 N   0  0  0  0  0  0  0  0  0  0  0  0
  193.3860  176.5500  137.9020 C   0  0  0  0  0  3  0  0  0  0  0  0
  1  9  1  0  0  0  0
  2  3  1  0  0  0  0
  2  5  1  0  0  0  0
  3  7  1  0  0  0  0
  5 14  1  0  0  0  0
  6  1  1  0  0  0  0
  7  4  1  0  0  0  0
  8 13  1  0  0  0  0
  8 12  2  0  0  0  0
 10 19  1  0  0  0  0
 11  4  2  0  0  0  0
 12 16  1  0  0  0  0
 13  2  2  0  0  0  0
 14  1  2  0  0  0  0
 15 11  1  0  0  0  0
 16  5  2  0  0  0  0
 16 17  1  0  0  0  0
 17  6  2  0  0  0  0
 18 10  2  0  0  0  0
 18 13  1  0  0  0  0
 19 15  1  0  0  0  0
 19  3  2  0  0  0  0
 20 15  2  0  0  0  0
 21  8  1  0  0  0  0
 22 28  1  0  0  0  0
 22 31  2  0  0  0  0
 23 30  1  0  0  0  0
 26 22  1  0  0  0  0
 27 21  1  0  0  0  0
 27 25  2  0  0  0  0
 28 23  2  0  0  0  0
 29 30  1  0  0  0  0
 29 24  2  0  0  0  0
 30 27  1  0  0  0  0
 31 29  1  0  0  0  0
M  END
>  <MODEL>
8

>  <REMARK>
 VINA RESULT:     -10.1      2.801      5.135
  Name = 
  2 active torsions:
  status: ('A' for Active; 'I' for Inactive)
    1  A    between atoms: C_9  and  C_23
    2  A    between atoms: C_15  and  C_23
                            x       y       z     vdW  Elec       q    Type
                         _______ _______ _______ _____ _____    ______ ____

>  <TORSDO>
F 2

$$$$
=
 OpenBabel10262419193D

 31 35  0  0  0  0  0  0  0  0999 V2000
  186.4800  178.0250  146.5840 C   0  0  0  0  0  0  0  0  0  0  0  0
  187.5510  178.0840  142.9690 C   0  0  0  0  0  0  0  0  0  0  0  0
  188.9450  177.7450  142.9590 C   0  0  0  0  0  0  0  0  0  0  0  0
  191.0660  176.9020  144.1030 C   0  0  0  0  0  3  0  0  0  0  0  0
  186.7590  178.1850  144.1590 C   0  0  0  0  0  0  0  0  0  0  0  0
  185.1420  178.3930  146.4710 C   0  0  0  0  0  3  0  0  0  0  0  0
  189.7570  177.6320  144.2370 C   0  0  0  0  0  2  0  0  0  0  0  0
  185.5460  178.6950  141.6610 C   0  0  0  0  0  0  0  0  0  0  0  0
  187.1670  177.6920  148.1580 Cl  0  0  0  0  0  0  0  0  0  0  0  0
  188.9690  177.8780  140.5260 C   0  0  0  0  0  3  0  0  0  0  0  0
  191.6810  176.7540  142.9320 C   0  0  0  0  0  3  0  0  0  0  0  0
  184.8080  178.8010  142.8330 C   0  0  0  0  0  3  0  0  0  0  0  0
  186.9080  178.3350  141.7160 C   0  0  0  0  0  0  0  0  0  0  0  0
  187.2750  177.9210  145.4410 C   0  0  0  0  0  3  0  0  0  0  0  0
  191.0470  177.2190  141.6980 C   0  0  0  0  0  0  0  0  0  0  0  0
  185.3900  178.5480  144.0660 C   0  0  0  0  0  0  0  0  0  0  0  0
  184.5980  178.6530  145.2140 C   0  0  0  0  0  3  0  0  0  0  0  0
  187.6300  178.2260  140.5230 C   0  0  0  0  0  3  0  0  0  0  0  0
  189.6320  177.6400  141.7250 C   0  0  0  0  0  0  0  0  0  0  0  0
  191.6990  177.2020  140.6210 O   0  0  0  0  0  0  0  0  0  0  0  0
  184.8530  179.0030  140.3680 C   0  0  0  0  0  2  0  0  0  0  0  0
  180.2180  180.5090  138.8880 C   0  0  0  0  0  0  0  0  0  0  0  0
  182.5510  180.1860  139.1670 N   0  0  0  0  0  0  0  0  0  0  0  0
  180.8530  177.5380  140.7100 O   0  0  0  0  0  0  0  0  0  0  0  0
  183.4310  177.1280  140.6870 O   0  0  0  0  0  0  0  0  0  0  0  0
  179.1540  181.2550  138.4010 O   0  0  0  0  0  1  0  0  0  0  0  0
  183.5160  178.3300  140.3130 C   0  0  0  0  0  0  0  0  0  0  0  0
  181.5250  180.9310  138.6830 C   0  0  0  0  0  3  0  0  0  0  0  0
  181.0750  178.5980  140.0660 C   0  0  0  0  0  0  0  0  0  0  0  0
  182.3540  179.0460  139.8410 N   0  0  0  0  0  0  0  0  0  0  0  0
  179.9900  179.3310  139.5870 C   0  0  0  0  0  3  0  0  0  0  0  0
  1  9  1  0  0  0  0
  2  5  1  0  0  0  0
  3  2  1  0  0  0  0
  3  7  1  0  0  0  0
  4  7  1  0  0  0  0
  5 14  1  0  0  0  0
  6  1  1  0  0  0  0
  8 13  1  0  0  0  0
  8 12  2  0  0  0  0
 10 19  1  0  0  0  0
 11  4  2  0  0  0  0
 12 16  1  0  0  0  0
 13  2  2  0  0  0  0
 14  1  2  0  0  0  0
 15 19  1  0  0  0  0
 15 11  1  0  0  0  0
 16  5  2  0  0  0  0
 16 17  1  0  0  0  0
 17  6  2  0  0  0  0
 18 10  2  0  0  0  0
 18 13  1  0  0  0  0
 19  3  2  0  0  0  0
 20 15  2  0  0  0  0
 21  8  1  0  0  0  0
 22 31  2  0  0  0  0
 23 30  1  0  0  0  0
 26 22  1  0  0  0  0
 27 21  1  0  0  0  0
 27 25  2  0  0  0  0
 28 22  1  0  0  0  0
 28 23  2  0  0  0  0
 29 24  2  0  0  0  0
 30 29  1  0  0  0  0
 30 27  1  0  0  0  0
 31 29  1  0  0  0  0
M  END
>  <MODEL>
9

>  <REMARK>
 VINA RESULT:     -10.0      3.806      5.442
  Name = 
  2 active torsions:
  status: ('A' for Active; 'I' for Inactive)
    1  A    between atoms: C_9  and  C_23
    2  A    between atoms: C_15  and  C_23
                            x       y       z     vdW  Elec       q    Type
                         _______ _______ _______ _____ _____    ______ ____

>  <TORSDO>
F 2

$$$$
