=
 OpenBabel10262422353D

 43 48  0  0  1  0  0  0  0  0999 V2000
  185.5310  178.3200  145.6090 C   0  0  0  0  0  0  0  0  0  0  0  0
  182.7610  178.8140  141.3430 C   0  0  0  0  0  0  0  0  0  0  0  0
  184.4900  178.4190  139.1580 C   0  0  0  0  0  0  0  0  0  0  0  0
  183.7920  178.8840  144.0180 C   0  0  0  0  0  0  0  0  0  0  0  0
  186.3820  177.8800  144.4800 C   0  0  0  0  0  3  0  0  0  0  0  0
  186.0090  178.2190  146.9090 O   0  0  0  0  0  1  0  0  0  0  0  0
  184.8100  178.9460  142.8990 C   0  0  1  0  0  3  0  0  0  0  0  0
  184.2890  178.7680  145.3950 C   0  0  0  0  0  3  0  0  0  0  0  0
  186.0290  178.1180  143.2120 C   0  0  0  0  0  3  0  0  0  0  0  0
  184.9940  178.5200  140.5040 N   0  0  0  0  0  0  0  0  0  0  0  0
  184.2210  178.6840  141.5400 C   0  0  0  0  0  0  0  0  0  0  0  0
  181.9490  178.9570  142.4020 C   0  0  0  0  0  3  0  0  0  0  0  0
  182.2540  178.7430  139.9980 N   0  0  0  0  0  0  0  0  0  0  0  0
  183.1770  178.5310  138.9180 C   0  0  0  0  0  3  0  0  0  0  0  0
  182.4780  178.9530  143.7780 C   0  0  0  0  0  3  0  0  0  0  0  0
  185.4290  178.1700  138.0190 C   0  0  2  0  0  3  0  0  0  0  0  0
  185.1000  176.8390  137.3680 C   0  0  0  0  0  1  0  0  0  0  0  0
  186.8110  178.1400  138.4900 N   0  0  0  0  0  2  0  0  0  0  0  0
  187.8650  178.9070  137.9000 C   0  0  0  0  0  0  0  0  0  0  0  0
  187.6790  179.5190  136.8140 O   0  0  0  0  0  0  0  0  0  0  0  0
  189.1120  178.9760  138.5220 O   0  0  0  0  0  0  0  0  0  0  0  0
  190.1400  178.0420  138.2210 C   0  0  2  0  0  3  0  0  0  0  0  0
  190.4530  175.6360  138.4770 C   0  0  0  0  0  2  0  0  0  0  0  0
  189.8750  177.3780  136.8890 C   0  0  0  0  0  2  0  0  0  0  0  0
  190.1530  176.9180  139.2410 C   0  0  1  0  0  3  0  0  0  0  0  0
  190.4920  176.0010  137.0020 C   0  0  0  0  0  2  0  0  0  0  0  0
  190.8670  176.9970  141.6820 N   0  0  0  0  0  0  0  0  0  0  0  0
  191.1930  177.1550  140.2960 C   0  0  0  0  0  0  0  0  0  0  0  0
  190.9660  176.9020  143.8440 C   0  0  0  0  0  0  0  0  0  0  0  0
  189.6970  176.5820  143.5380 N   0  0  0  0  0  0  0  0  0  0  0  0
  191.4670  176.9450  145.1740 N   0  0  0  0  0  1  0  0  0  0  0  0
  189.6650  176.6520  142.1910 C   0  0  0  0  0  3  0  0  0  0  0  0
  191.7090  177.1620  142.7160 C   0  0  0  0  0  3  0  0  0  0  0  0
  192.3720  177.4560  139.9600 O   0  0  0  0  0  0  0  0  0  0  0  0
  180.8260  178.8070  139.7030 C   0  0  0  0  0  2  0  0  0  0  0  0
  180.4930  182.2470  138.1320 C   0  0  0  0  0  3  0  0  0  0  0  0
  180.0000  181.9320  136.8630 C   0  0  0  0  0  0  0  0  0  0  0  0
  180.0420  179.5710  137.4510 C   0  0  0  0  0  3  0  0  0  0  0  0
  180.7630  181.2320  139.0580 C   0  0  0  0  0  3  0  0  0  0  0  0
  180.5430  179.8930  138.7160 C   0  0  0  0  0  0  0  0  0  0  0  0
  179.7730  180.5850  136.5260 C   0  0  0  0  0  3  0  0  0  0  0  0
  180.7790  183.7950  135.4330 C   0  0  0  0  0  1  0  0  0  0  0  0
  179.7480  182.9710  135.9590 O   0  0  0  0  0  0  0  0  0  0  0  0
  1  6  1  0  0  0  0
  2 11  1  0  0  0  0
  2 12  2  0  0  0  0
  3 10  1  0  0  0  0
  4  8  1  0  0  0  0
  5  1  1  0  0  0  0
  7  9  1  1  0  0  0
  7  4  1  0  0  0  0
  8  1  2  0  0  0  0
  9  5  2  0  0  0  0
 10 11  2  0  0  0  0
 11  7  1  0  0  0  0
 12 15  1  0  0  0  0
 13  2  1  0  0  0  0
 14  3  2  0  0  0  0
 14 13  1  0  0  0  0
 15  4  2  0  0  0  0
 16 17  1  1  0  0  0
 16 18  1  0  0  0  0
 16  3  1  0  0  0  0
 19 18  1  0  0  0  0
 19 21  1  0  0  0  0
 20 19  2  0  0  0  0
 22 21  1  1  0  0  0
 22 25  1  0  0  0  0
 23 25  1  0  0  0  0
 24 26  1  0  0  0  0
 24 22  1  0  0  0  0
 25 28  1  1  0  0  0
 26 23  1  0  0  0  0
 27 32  1  0  0  0  0
 27 33  1  0  0  0  0
 28 27  1  0  0  0  0
 29 31  1  0  0  0  0
 30 29  1  0  0  0  0
 32 30  2  0  0  0  0
 33 29  2  0  0  0  0
 34 28  2  0  0  0  0
 35 13  1  0  0  0  0
 36 39  1  0  0  0  0
 37 36  2  0  0  0  0
 38 40  1  0  0  0  0
 40 39  2  0  0  0  0
 40 35  1  0  0  0  0
 41 37  1  0  0  0  0
 41 38  2  0  0  0  0
 42 43  1  0  0  0  0
 43 37  1  0  0  0  0
M  END
>  <MODEL>
1

>  <REMARK>
 VINA RESULT:      -9.5      0.000      0.000
  Name = 
  8 active torsions:
  status: ('A' for Active; 'I' for Inactive)
    1  A    between atoms: C_1  and  N_34
    2  A    between atoms: C_1  and  C_35
    3  A    between atoms: C_2  and  N_6
    4  A    between atoms: C_2  and  C_13
    5  A    between atoms: O_3  and  C_4
    6  A    between atoms: O_3  and  C_12
    7  A    between atoms: C_14  and  C_22
    8  A    between atoms: C_19  and  O_37
                            x       y       z     vdW  Elec       q    Type
                         _______ _______ _______ _____ _____    ______ ____

>  <TORSDO>
F 8

$$$$
=
 OpenBabel10262422353D

 43 48  0  0  1  0  0  0  0  0999 V2000
  190.9870  176.7840  146.4800 C   0  0  0  0  0  0  0  0  0  0  0  0
  189.4620  177.6630  141.6820 C   0  0  0  0  0  0  0  0  0  0  0  0
  186.7520  178.4160  141.7780 C   0  0  0  0  0  0  0  0  0  0  0  0
  190.8200  176.8190  144.0620 C   0  0  0  0  0  0  0  0  0  0  0  0
  189.6440  177.4060  146.5530 C   0  0  0  0  0  3  0  0  0  0  0  0
  191.6790  176.5060  147.6510 O   0  0  0  0  0  1  0  0  0  0  0  0
  189.3130  176.9370  144.1500 C   0  0  1  0  0  3  0  0  0  0  0  0
  191.5600  176.5340  145.2980 C   0  0  0  0  0  3  0  0  0  0  0  0
  188.8790  177.5310  145.4630 C   0  0  0  0  0  3  0  0  0  0  0  0
  187.4370  177.9300  142.9480 N   0  0  0  0  0  0  0  0  0  0  0  0
  188.6940  177.5900  142.9440 C   0  0  0  0  0  0  0  0  0  0  0  0
  190.7650  177.3420  141.6670 C   0  0  0  0  0  3  0  0  0  0  0  0
  188.7770  178.1210  140.5030 N   0  0  0  0  0  0  0  0  0  0  0  0
  187.3950  178.5030  140.6060 C   0  0  0  0  0  3  0  0  0  0  0  0
  191.4700  176.9460  142.9000 C   0  0  0  0  0  3  0  0  0  0  0  0
  185.3210  178.8470  141.8660 C   0  0  2  0  0  3  0  0  0  0  0  0
  184.7280  178.3830  143.1830 C   0  0  0  0  0  1  0  0  0  0  0  0
  184.5450  178.2760  140.7680 N   0  0  0  0  0  2  0  0  0  0  0  0
  184.3020  178.9560  139.5330 C   0  0  0  0  0  0  0  0  0  0  0  0
  184.6040  180.1740  139.4050 O   0  0  0  0  0  0  0  0  0  0  0  0
  183.7220  178.2760  138.4620 O   0  0  0  0  0  0  0  0  0  0  0  0
  183.2240  176.9530  138.6110 C   0  0  2  0  0  3  0  0  0  0  0  0
  181.3990  175.6480  137.6550 C   0  0  0  0  0  2  0  0  0  0  0  0
  183.7880  176.0550  137.5340 C   0  0  0  0  0  2  0  0  0  0  0  0
  181.7190  176.9250  138.4180 C   0  0  1  0  0  3  0  0  0  0  0  0
  182.7280  175.0010  137.3000 C   0  0  0  0  0  2  0  0  0  0  0  0
  180.5780  178.1810  140.3150 N   0  0  0  0  0  0  0  0  0  0  0  0
  181.0030  176.9410  139.7370 C   0  0  0  0  0  0  0  0  0  0  0  0
  179.7170  179.6800  141.6190 C   0  0  0  0  0  0  0  0  0  0  0  0
  180.2320  180.3700  140.5870 N   0  0  0  0  0  0  0  0  0  0  0  0
  179.0370  180.2890  142.7100 N   0  0  0  0  0  1  0  0  0  0  0  0
  180.7620  179.4140  139.7960 C   0  0  0  0  0  3  0  0  0  0  0  0
  179.9160  178.3270  141.4740 C   0  0  0  0  0  3  0  0  0  0  0  0
  180.7390  175.8540  140.3220 O   0  0  0  0  0  0  0  0  0  0  0  0
  189.4580  178.2790  139.2220 C   0  0  0  0  0  2  0  0  0  0  0  0
  188.0790  175.5550  136.9660 C   0  0  0  0  0  3  0  0  0  0  0  0
  187.2800  176.2930  136.0870 C   0  0  0  0  0  0  0  0  0  0  0  0
  187.9090  178.3330  137.2550 C   0  0  0  0  0  3  0  0  0  0  0  0
  188.7880  176.1990  137.9860 C   0  0  0  0  0  3  0  0  0  0  0  0
  188.6990  177.5880  138.1350 C   0  0  0  0  0  0  0  0  0  0  0  0
  187.2000  177.6890  136.2350 C   0  0  0  0  0  3  0  0  0  0  0  0
  186.0730  174.2990  135.2550 C   0  0  0  0  0  1  0  0  0  0  0  0
  186.5790  175.6160  135.0820 O   0  0  0  0  0  0  0  0  0  0  0  0
  1  5  1  0  0  0  0
  1  6  1  0  0  0  0
  2 11  1  0  0  0  0
  3 16  1  0  0  0  0
  3 10  1  0  0  0  0
  4  7  1  0  0  0  0
  4  8  1  0  0  0  0
  7  9  1  1  0  0  0
  8  1  2  0  0  0  0
  9  5  2  0  0  0  0
 11 10  2  0  0  0  0
 11  7  1  0  0  0  0
 12  2  2  0  0  0  0
 12 15  1  0  0  0  0
 13 14  1  0  0  0  0
 13  2  1  0  0  0  0
 14  3  2  0  0  0  0
 15  4  2  0  0  0  0
 16 17  1  1  0  0  0
 18 16  1  0  0  0  0
 19 18  1  0  0  0  0
 20 19  2  0  0  0  0
 21 19  1  0  0  0  0
 22 21  1  6  0  0  0
 23 25  1  0  0  0  0
 24 22  1  0  0  0  0
 25 22  1  0  0  0  0
 25 28  1  1  0  0  0
 26 24  1  0  0  0  0
 26 23  1  0  0  0  0
 27 33  1  0  0  0  0
 28 27  1  0  0  0  0
 28 34  2  0  0  0  0
 29 31  1  0  0  0  0
 30 29  1  0  0  0  0
 32 27  1  0  0  0  0
 32 30  2  0  0  0  0
 33 29  2  0  0  0  0
 35 13  1  0  0  0  0
 36 39  1  0  0  0  0
 37 41  1  0  0  0  0
 37 36  2  0  0  0  0
 38 40  1  0  0  0  0
 39 40  2  0  0  0  0
 40 35  1  0  0  0  0
 41 38  2  0  0  0  0
 43 42  1  0  0  0  0
 43 37  1  0  0  0  0
M  END
>  <MODEL>
2

>  <REMARK>
 VINA RESULT:      -9.5      2.980      8.026
  Name = 
  8 active torsions:
  status: ('A' for Active; 'I' for Inactive)
    1  A    between atoms: C_1  and  N_34
    2  A    between atoms: C_1  and  C_35
    3  A    between atoms: C_2  and  N_6
    4  A    between atoms: C_2  and  C_13
    5  A    between atoms: O_3  and  C_4
    6  A    between atoms: O_3  and  C_12
    7  A    between atoms: C_14  and  C_22
    8  A    between atoms: C_19  and  O_37
                            x       y       z     vdW  Elec       q    Type
                         _______ _______ _______ _____ _____    ______ ____

>  <TORSDO>
F 8

$$$$
=
 OpenBabel10262422353D

 43 48  0  0  1  0  0  0  0  0999 V2000
  191.1260  176.7790  146.5410 C   0  0  0  0  0  0  0  0  0  0  0  0
  189.6500  177.5240  141.7050 C   0  0  0  0  0  0  0  0  0  0  0  0
  187.0240  178.5340  141.7660 C   0  0  0  0  0  0  0  0  0  0  0  0
  190.9430  176.6920  144.1250 C   0  0  0  0  0  0  0  0  0  0  0  0
  189.8490  177.5280  146.5820 C   0  0  0  0  0  3  0  0  0  0  0  0
  191.7990  176.5040  147.7230 O   0  0  0  0  0  1  0  0  0  0  0  0
  189.4540  176.9570  144.2110 C   0  0  1  0  0  3  0  0  0  0  0  0
  191.6640  176.4090  145.3740 C   0  0  0  0  0  3  0  0  0  0  0  0
  189.0890  177.6630  145.4900 C   0  0  0  0  0  3  0  0  0  0  0  0
  187.6700  178.0530  142.9600 N   0  0  0  0  0  0  0  0  0  0  0  0
  188.8900  177.5960  142.9720 C   0  0  0  0  0  0  0  0  0  0  0  0
  190.9170  177.0810  141.7050 C   0  0  0  0  0  3  0  0  0  0  0  0
  189.0010  177.9770  140.5040 N   0  0  0  0  0  0  0  0  0  0  0  0
  187.6620  178.4920  140.5890 C   0  0  0  0  0  3  0  0  0  0  0  0
  191.5920  176.6900  142.9560 C   0  0  0  0  0  3  0  0  0  0  0  0
  185.6410  179.1020  141.8330 C   0  0  2  0  0  3  0  0  0  0  0  0
  185.1470  179.0740  143.2680 C   0  0  0  0  0  1  0  0  0  0  0  0
  184.7260  178.3260  141.0010 N   0  0  0  0  0  2  0  0  0  0  0  0
  184.2000  178.7940  139.7550 C   0  0  0  0  0  0  0  0  0  0  0  0
  184.3670  179.9920  139.4010 O   0  0  0  0  0  0  0  0  0  0  0  0
  183.4910  177.9250  138.9250 O   0  0  0  0  0  0  0  0  0  0  0  0
  182.2880  177.3060  139.3600 C   0  0  2  0  0  3  0  0  0  0  0  0
  180.2670  176.4570  138.2900 C   0  0  0  0  0  2  0  0  0  0  0  0
  182.3980  175.8030  139.2480 C   0  0  0  0  0  2  0  0  0  0  0  0
  181.1320  177.6980  138.4580 C   0  0  1  0  0  3  0  0  0  0  0  0
  180.9870  175.3190  138.9940 C   0  0  0  0  0  2  0  0  0  0  0  0
  180.3850  180.1310  138.4870 N   0  0  0  0  0  0  0  0  0  0  0  0
  180.3320  178.8180  139.0570 C   0  0  0  0  0  0  0  0  0  0  0  0
  180.0630  182.2320  138.0710 C   0  0  0  0  0  0  0  0  0  0  0  0
  180.9350  181.8200  137.1350 N   0  0  0  0  0  0  0  0  0  0  0  0
  179.5650  183.5620  138.1520 N   0  0  0  0  0  1  0  0  0  0  0  0
  181.1180  180.5150  137.4200 C   0  0  0  0  0  3  0  0  0  0  0  0
  179.7070  181.2070  138.9170 C   0  0  0  0  0  3  0  0  0  0  0  0
  179.5770  178.5930  140.0440 O   0  0  0  0  0  0  0  0  0  0  0  0
  189.6840  177.9960  139.2130 C   0  0  0  0  0  2  0  0  0  0  0  0
  187.3830  176.0000  136.9470 C   0  0  0  0  0  3  0  0  0  0  0  0
  186.9630  176.9770  136.0390 C   0  0  0  0  0  0  0  0  0  0  0  0
  188.3260  178.6220  137.2050 C   0  0  0  0  0  3  0  0  0  0  0  0
  188.2680  176.3290  137.9800 C   0  0  0  0  0  3  0  0  0  0  0  0
  188.7360  177.6420  138.1130 C   0  0  0  0  0  0  0  0  0  0  0  0
  187.4410  178.2930  136.1720 C   0  0  0  0  0  3  0  0  0  0  0  0
  184.8700  175.9010  135.2760 C   0  0  0  0  0  1  0  0  0  0  0  0
  186.0720  176.6150  135.0230 O   0  0  0  0  0  0  0  0  0  0  0  0
  1  5  1  0  0  0  0
  1  6  1  0  0  0  0
  2 12  2  0  0  0  0
  2 11  1  0  0  0  0
  3 16  1  0  0  0  0
  3 10  1  0  0  0  0
  4  7  1  0  0  0  0
  4  8  1  0  0  0  0
  7  9  1  1  0  0  0
  8  1  2  0  0  0  0
  9  5  2  0  0  0  0
 10 11  2  0  0  0  0
 11  7  1  0  0  0  0
 12 15  1  0  0  0  0
 13 14  1  0  0  0  0
 13  2  1  0  0  0  0
 14  3  2  0  0  0  0
 15  4  2  0  0  0  0
 16 17  1  1  0  0  0
 18 16  1  0  0  0  0
 19 18  1  0  0  0  0
 20 19  2  0  0  0  0
 21 19  1  0  0  0  0
 22 21  1  6  0  0  0
 23 25  1  0  0  0  0
 23 26  1  0  0  0  0
 24 22  1  0  0  0  0
 25 28  1  1  0  0  0
 25 22  1  0  0  0  0
 26 24  1  0  0  0  0
 27 33  1  0  0  0  0
 27 28  1  0  0  0  0
 28 34  2  0  0  0  0
 29 31  1  0  0  0  0
 29 33  2  0  0  0  0
 30 32  2  0  0  0  0
 30 29  1  0  0  0  0
 32 27  1  0  0  0  0
 35 13  1  0  0  0  0
 36 39  1  0  0  0  0
 37 41  1  0  0  0  0
 37 36  2  0  0  0  0
 38 40  1  0  0  0  0
 39 40  2  0  0  0  0
 40 35  1  0  0  0  0
 41 38  2  0  0  0  0
 43 42  1  0  0  0  0
 43 37  1  0  0  0  0
M  END
>  <MODEL>
3

>  <REMARK>
 VINA RESULT:      -9.4      2.734      8.470
  Name = 
  8 active torsions:
  status: ('A' for Active; 'I' for Inactive)
    1  A    between atoms: C_1  and  N_34
    2  A    between atoms: C_1  and  C_35
    3  A    between atoms: C_2  and  N_6
    4  A    between atoms: C_2  and  C_13
    5  A    between atoms: O_3  and  C_4
    6  A    between atoms: O_3  and  C_12
    7  A    between atoms: C_14  and  C_22
    8  A    between atoms: C_19  and  O_37
                            x       y       z     vdW  Elec       q    Type
                         _______ _______ _______ _____ _____    ______ ____

>  <TORSDO>
F 8

$$$$
=
 OpenBabel10262422353D

 43 48  0  0  1  0  0  0  0  0999 V2000
  191.1520  176.7440  146.3930 C   0  0  0  0  0  0  0  0  0  0  0  0
  189.5330  177.6560  141.6310 C   0  0  0  0  0  0  0  0  0  0  0  0
  186.8640  178.5310  141.7950 C   0  0  0  0  0  0  0  0  0  0  0  0
  190.9190  176.7680  143.9790 C   0  0  0  0  0  0  0  0  0  0  0  0
  189.8410  177.4260  146.4970 C   0  0  0  0  0  3  0  0  0  0  0  0
  191.8640  176.4440  147.5460 O   0  0  0  0  0  1  0  0  0  0  0  0
  189.4210  176.9550  144.1080 C   0  0  1  0  0  3  0  0  0  0  0  0
  191.6800  176.4600  145.1970 C   0  0  0  0  0  3  0  0  0  0  0  0
  189.0510  177.5780  145.4280 C   0  0  0  0  0  3  0  0  0  0  0  0
  187.5590  178.0230  142.9500 N   0  0  0  0  0  0  0  0  0  0  0  0
  188.7990  177.6270  142.9150 C   0  0  0  0  0  0  0  0  0  0  0  0
  190.8200  177.2760  141.5830 C   0  0  0  0  0  3  0  0  0  0  0  0
  188.8360  178.1350  140.4680 N   0  0  0  0  0  0  0  0  0  0  0  0
  187.4770  178.5790  140.6050 C   0  0  0  0  0  3  0  0  0  0  0  0
  191.5400  176.8570  142.7990 C   0  0  0  0  0  3  0  0  0  0  0  0
  185.4560  179.0260  141.9200 C   0  0  2  0  0  3  0  0  0  0  0  0
  184.9410  178.7540  143.3210 C   0  0  0  0  0  1  0  0  0  0  0  0
  184.5900  178.3540  140.9560 N   0  0  0  0  0  2  0  0  0  0  0  0
  184.2160  178.9230  139.6970 C   0  0  0  0  0  0  0  0  0  0  0  0
  184.4800  180.1280  139.4360 O   0  0  0  0  0  0  0  0  0  0  0  0
  183.5480  178.1460  138.7500 O   0  0  0  0  0  0  0  0  0  0  0  0
  182.1400  177.9630  138.8060 C   0  0  2  0  0  3  0  0  0  0  0  0
  180.5920  176.6810  140.1890 C   0  0  0  0  0  2  0  0  0  0  0  0
  181.5280  178.8920  139.8300 C   0  0  0  0  0  2  0  0  0  0  0  0
  181.8040  176.5590  139.2770 C   0  0  1  0  0  3  0  0  0  0  0  0
  180.3030  178.1660  140.3430 C   0  0  0  0  0  2  0  0  0  0  0  0
  182.5200  174.8210  137.5620 N   0  0  0  0  0  0  0  0  0  0  0  0
  181.4980  175.6570  138.1170 C   0  0  0  0  0  0  0  0  0  0  0  0
  183.6030  173.3790  136.3620 C   0  0  0  0  0  0  0  0  0  0  0  0
  184.5050  173.8510  137.2400 N   0  0  0  0  0  0  0  0  0  0  0  0
  183.8990  172.3870  135.3870 N   0  0  0  0  0  1  0  0  0  0  0  0
  183.8050  174.7450  137.9680 C   0  0  0  0  0  3  0  0  0  0  0  0
  182.3690  173.9610  136.5410 C   0  0  0  0  0  3  0  0  0  0  0  0
  180.3250  175.6060  137.6530 O   0  0  0  0  0  0  0  0  0  0  0  0
  189.4880  178.2520  139.1660 C   0  0  0  0  0  2  0  0  0  0  0  0
  187.1800  178.1500  136.1530 C   0  0  0  0  0  3  0  0  0  0  0  0
  186.9030  176.7830  136.0560 C   0  0  0  0  0  0  0  0  0  0  0  0
  188.3140  176.3750  137.9970 C   0  0  0  0  0  3  0  0  0  0  0  0
  188.0210  178.6300  137.1640 C   0  0  0  0  0  3  0  0  0  0  0  0
  188.5930  177.7420  138.0830 C   0  0  0  0  0  0  0  0  0  0  0  0
  187.4730  175.8950  136.9860 C   0  0  0  0  0  3  0  0  0  0  0  0
  184.7020  176.7300  134.9250 C   0  0  0  0  0  1  0  0  0  0  0  0
  186.0640  176.3360  135.0290 O   0  0  0  0  0  0  0  0  0  0  0  0
  1  5  1  0  0  0  0
  1  6  1  0  0  0  0
  2 11  1  0  0  0  0
  3 16  1  0  0  0  0
  3 10  1  0  0  0  0
  4  7  1  0  0  0  0
  4  8  1  0  0  0  0
  7  9  1  1  0  0  0
  8  1  2  0  0  0  0
  9  5  2  0  0  0  0
 11 10  2  0  0  0  0
 11  7  1  0  0  0  0
 12  2  2  0  0  0  0
 12 15  1  0  0  0  0
 13 14  1  0  0  0  0
 13  2  1  0  0  0  0
 14  3  2  0  0  0  0
 15  4  2  0  0  0  0
 16 17  1  1  0  0  0
 18 16  1  0  0  0  0
 19 18  1  0  0  0  0
 20 19  2  0  0  0  0
 21 19  1  0  0  0  0
 22 21  1  1  0  0  0
 22 25  1  0  0  0  0
 22 24  1  0  0  0  0
 23 26  1  0  0  0  0
 24 26  1  0  0  0  0
 25 28  1  6  0  0  0
 25 23  1  0  0  0  0
 27 32  1  0  0  0  0
 27 28  1  0  0  0  0
 29 33  2  0  0  0  0
 29 30  1  0  0  0  0
 30 32  2  0  0  0  0
 31 29  1  0  0  0  0
 33 27  1  0  0  0  0
 34 28  2  0  0  0  0
 35 13  1  0  0  0  0
 36 39  1  0  0  0  0
 37 36  2  0  0  0  0
 37 41  1  0  0  0  0
 38 40  1  0  0  0  0
 39 40  2  0  0  0  0
 40 35  1  0  0  0  0
 41 38  2  0  0  0  0
 42 43  1  0  0  0  0
 43 37  1  0  0  0  0
M  END
>  <MODEL>
4

>  <REMARK>
 VINA RESULT:      -9.4      3.107      7.941
  Name = 
  8 active torsions:
  status: ('A' for Active; 'I' for Inactive)
    1  A    between atoms: C_1  and  N_34
    2  A    between atoms: C_1  and  C_35
    3  A    between atoms: C_2  and  N_6
    4  A    between atoms: C_2  and  C_13
    5  A    between atoms: O_3  and  C_4
    6  A    between atoms: O_3  and  C_12
    7  A    between atoms: C_14  and  C_22
    8  A    between atoms: C_19  and  O_37
                            x       y       z     vdW  Elec       q    Type
                         _______ _______ _______ _____ _____    ______ ____

>  <TORSDO>
F 8

$$$$
=
 OpenBabel10262422353D

 43 48  0  0  1  0  0  0  0  0999 V2000
  184.6250  178.6300  145.4230 C   0  0  0  0  0  0  0  0  0  0  0  0
  182.7720  178.8030  140.6630 C   0  0  0  0  0  0  0  0  0  0  0  0
  184.9310  178.4280  138.8990 C   0  0  0  0  0  0  0  0  0  0  0  0
  183.2250  179.0320  143.4850 C   0  0  0  0  0  0  0  0  0  0  0  0
  185.7100  178.1970  144.5140 C   0  0  0  0  0  3  0  0  0  0  0  0
  184.8290  178.6050  146.7960 O   0  0  0  0  0  1  0  0  0  0  0  0
  184.4480  179.1110  142.5960 C   0  0  1  0  0  3  0  0  0  0  0  0
  183.4330  178.9960  144.9390 C   0  0  0  0  0  3  0  0  0  0  0  0
  185.6150  178.3670  143.1900 C   0  0  0  0  0  3  0  0  0  0  0  0
  185.1410  178.6070  140.3120 N   0  0  0  0  0  0  0  0  0  0  0  0
  184.1650  178.7650  141.1600 C   0  0  0  0  0  0  0  0  0  0  0  0
  181.7530  178.9390  141.5270 C   0  0  0  0  0  3  0  0  0  0  0  0
  182.5570  178.6530  139.2490 N   0  0  0  0  0  0  0  0  0  0  0  0
  183.6920  178.4550  138.3910 C   0  0  0  0  0  3  0  0  0  0  0  0
  181.9870  179.0170  142.9800 C   0  0  0  0  0  3  0  0  0  0  0  0
  186.0960  178.1910  137.9870 C   0  0  2  0  0  3  0  0  0  0  0  0
  185.6270  177.4680  136.7380 C   0  0  0  0  0  1  0  0  0  0  0  0
  187.1110  177.3790  138.6530 N   0  0  0  0  0  2  0  0  0  0  0  0
  188.4020  177.8740  139.0220 C   0  0  0  0  0  0  0  0  0  0  0  0
  188.7920  179.0030  138.6200 O   0  0  0  0  0  0  0  0  0  0  0  0
  189.2430  177.1030  139.8240 O   0  0  0  0  0  0  0  0  0  0  0  0
  190.2710  177.6990  140.6030 C   0  0  2  0  0  3  0  0  0  0  0  0
  191.8640  176.9360  142.2860 C   0  0  0  0  0  2  0  0  0  0  0  0
  191.6150  177.5040  139.9390 C   0  0  0  0  0  2  0  0  0  0  0  0
  190.3810  177.0160  141.9540 C   0  0  1  0  0  3  0  0  0  0  0  0
  192.6160  177.4610  141.0740 C   0  0  0  0  0  2  0  0  0  0  0  0
  189.8570  177.4910  144.3990 N   0  0  0  0  0  0  0  0  0  0  0  0
  189.6480  177.7870  143.0130 C   0  0  0  0  0  0  0  0  0  0  0  0
  189.7790  177.5060  146.5630 C   0  0  0  0  0  0  0  0  0  0  0  0
  190.6470  176.5280  146.2520 N   0  0  0  0  0  0  0  0  0  0  0  0
  189.4440  177.8650  147.8980 N   0  0  0  0  0  1  0  0  0  0  0  0
  190.6720  176.5400  144.9040 C   0  0  0  0  0  3  0  0  0  0  0  0
  189.2780  178.1170  145.4370 C   0  0  0  0  0  3  0  0  0  0  0  0
  188.8720  178.7270  142.6830 O   0  0  0  0  0  0  0  0  0  0  0  0
  181.2190  178.6240  138.6670 C   0  0  0  0  0  2  0  0  0  0  0  0
  180.7780  180.5860  135.4460 C   0  0  0  0  0  3  0  0  0  0  0  0
  180.7050  181.8990  135.9230 C   0  0  0  0  0  0  0  0  0  0  0  0
  180.9720  181.0710  138.1960 C   0  0  0  0  0  3  0  0  0  0  0  0
  180.9450  179.5190  136.3370 C   0  0  0  0  0  3  0  0  0  0  0  0
  181.0370  179.7600  137.7130 C   0  0  0  0  0  0  0  0  0  0  0  0
  180.8050  182.1370  137.3050 C   0  0  0  0  0  3  0  0  0  0  0  0
  180.7220  184.3060  135.3500 C   0  0  0  0  0  1  0  0  0  0  0  0
  180.5310  182.9400  135.0050 O   0  0  0  0  0  0  0  0  0  0  0  0
  1  6  1  0  0  0  0
  2 11  1  0  0  0  0
  2 12  2  0  0  0  0
  3 10  1  0  0  0  0
  4  8  1  0  0  0  0
  5  1  1  0  0  0  0
  7  9  1  1  0  0  0
  7  4  1  0  0  0  0
  8  1  2  0  0  0  0
  9  5  2  0  0  0  0
 10 11  2  0  0  0  0
 11  7  1  0  0  0  0
 12 15  1  0  0  0  0
 13  2  1  0  0  0  0
 14  3  2  0  0  0  0
 14 13  1  0  0  0  0
 15  4  2  0  0  0  0
 16 17  1  6  0  0  0
 16 18  1  0  0  0  0
 16  3  1  0  0  0  0
 18 19  1  0  0  0  0
 19 21  1  0  0  0  0
 20 19  2  0  0  0  0
 22 21  1  6  0  0  0
 22 25  1  0  0  0  0
 24 22  1  0  0  0  0
 24 26  1  0  0  0  0
 25 23  1  0  0  0  0
 25 28  1  1  0  0  0
 26 23  1  0  0  0  0
 27 32  1  0  0  0  0
 27 33  1  0  0  0  0
 28 27  1  0  0  0  0
 29 31  1  0  0  0  0
 30 29  1  0  0  0  0
 32 30  2  0  0  0  0
 33 29  2  0  0  0  0
 34 28  2  0  0  0  0
 35 13  1  0  0  0  0
 36 37  2  0  0  0  0
 36 39  1  0  0  0  0
 37 41  1  0  0  0  0
 39 40  2  0  0  0  0
 40 38  1  0  0  0  0
 40 35  1  0  0  0  0
 41 38  2  0  0  0  0
 43 42  1  0  0  0  0
 43 37  1  0  0  0  0
M  END
>  <MODEL>
5

>  <REMARK>
 VINA RESULT:      -9.3      1.425      2.248
  Name = 
  8 active torsions:
  status: ('A' for Active; 'I' for Inactive)
    1  A    between atoms: C_1  and  N_34
    2  A    between atoms: C_1  and  C_35
    3  A    between atoms: C_2  and  N_6
    4  A    between atoms: C_2  and  C_13
    5  A    between atoms: O_3  and  C_4
    6  A    between atoms: O_3  and  C_12
    7  A    between atoms: C_14  and  C_22
    8  A    between atoms: C_19  and  O_37
                            x       y       z     vdW  Elec       q    Type
                         _______ _______ _______ _____ _____    ______ ____

>  <TORSDO>
F 8

$$$$
=
 OpenBabel10262422353D

 43 48  0  0  1  0  0  0  0  0999 V2000
  185.8940  178.4320  145.8560 C   0  0  0  0  0  0  0  0  0  0  0  0
  182.7000  178.7450  141.8790 C   0  0  0  0  0  0  0  0  0  0  0  0
  184.2420  178.5430  139.5340 C   0  0  0  0  0  0  0  0  0  0  0  0
  183.9690  178.8630  144.4470 C   0  0  0  0  0  0  0  0  0  0  0  0
  186.6690  178.0870  144.6420 C   0  0  0  0  0  3  0  0  0  0  0  0
  186.5000  178.3520  147.1020 O   0  0  0  0  0  1  0  0  0  0  0  0
  184.8680  179.0340  143.2400 C   0  0  1  0  0  3  0  0  0  0  0  0
  184.6030  178.7690  145.7690 C   0  0  0  0  0  3  0  0  0  0  0  0
  186.1780  178.3140  143.4180 C   0  0  0  0  0  3  0  0  0  0  0  0
  184.8600  178.6660  140.8290 N   0  0  0  0  0  0  0  0  0  0  0  0
  184.1780  178.7430  141.9360 C   0  0  0  0  0  0  0  0  0  0  0  0
  181.9830  178.7980  143.0120 C   0  0  0  0  0  3  0  0  0  0  0  0
  182.0760  178.6510  140.5860 N   0  0  0  0  0  0  0  0  0  0  0  0
  182.9080  178.5410  139.4190 C   0  0  0  0  0  3  0  0  0  0  0  0
  182.6380  178.8190  144.3320 C   0  0  0  0  0  3  0  0  0  0  0  0
  185.0870  178.3970  138.3060 C   0  0  2  0  0  3  0  0  0  0  0  0
  184.2510  177.8250  137.1760 C   0  0  0  0  0  1  0  0  0  0  0  0
  186.2140  177.5040  138.5620 N   0  0  0  0  0  2  0  0  0  0  0  0
  187.5820  177.8940  138.4090 C   0  0  0  0  0  0  0  0  0  0  0  0
  187.8770  178.9920  137.8650 O   0  0  0  0  0  0  0  0  0  0  0  0
  188.6020  177.0540  138.8560 O   0  0  0  0  0  0  0  0  0  0  0  0
  189.9530  177.2580  138.4630 C   0  0  2  0  0  3  0  0  0  0  0  0
  191.9710  175.8940  138.3470 C   0  0  0  0  0  2  0  0  0  0  0  0
  190.1550  176.8190  137.0300 C   0  0  0  0  0  2  0  0  0  0  0  0
  190.8850  176.3930  139.2900 C   0  0  1  0  0  3  0  0  0  0  0  0
  191.5980  176.3710  136.9530 C   0  0  0  0  0  2  0  0  0  0  0  0
  190.9340  177.0880  141.7370 N   0  0  0  0  0  0  0  0  0  0  0  0
  191.4900  177.1730  140.4200 C   0  0  0  0  0  0  0  0  0  0  0  0
  190.5570  177.3380  143.8560 C   0  0  0  0  0  0  0  0  0  0  0  0
  189.6040  176.4910  143.4290 N   0  0  0  0  0  0  0  0  0  0  0  0
  190.6840  177.7620  145.2070 N   0  0  0  0  0  1  0  0  0  0  0  0
  189.8610  176.3580  142.1110 C   0  0  0  0  0  3  0  0  0  0  0  0
  191.3910  177.7190  142.8310 C   0  0  0  0  0  3  0  0  0  0  0  0
  192.5180  177.8780  140.2180 O   0  0  0  0  0  0  0  0  0  0  0  0
  180.6260  178.5920  140.4270 C   0  0  0  0  0  2  0  0  0  0  0  0
  180.0040  174.9570  139.5280 C   0  0  0  0  0  3  0  0  0  0  0  0
  179.4980  175.0690  138.2290 C   0  0  0  0  0  0  0  0  0  0  0  0
  179.7330  177.4880  138.3650 C   0  0  0  0  0  3  0  0  0  0  0  0
  180.3710  176.1010  140.2440 C   0  0  0  0  0  3  0  0  0  0  0  0
  180.2310  177.3680  139.6650 C   0  0  0  0  0  0  0  0  0  0  0  0
  179.3650  176.3430  137.6480 C   0  0  0  0  0  3  0  0  0  0  0  0
  179.8120  172.6680  137.7190 C   0  0  0  0  0  1  0  0  0  0  0  0
  179.1330  173.9040  137.5440 O   0  0  0  0  0  0  0  0  0  0  0  0
  1  6  1  0  0  0  0
  2 11  1  0  0  0  0
  2 12  2  0  0  0  0
  3 10  1  0  0  0  0
  4  8  1  0  0  0  0
  5  1  1  0  0  0  0
  7  9  1  1  0  0  0
  7  4  1  0  0  0  0
  8  1  2  0  0  0  0
  9  5  2  0  0  0  0
 10 11  2  0  0  0  0
 11  7  1  0  0  0  0
 12 15  1  0  0  0  0
 13  2  1  0  0  0  0
 14  3  2  0  0  0  0
 14 13  1  0  0  0  0
 15  4  2  0  0  0  0
 16 17  1  6  0  0  0
 16 18  1  0  0  0  0
 16  3  1  0  0  0  0
 19 18  1  0  0  0  0
 19 21  1  0  0  0  0
 20 19  2  0  0  0  0
 22 21  1  1  0  0  0
 22 25  1  0  0  0  0
 23 25  1  0  0  0  0
 24 22  1  0  0  0  0
 25 28  1  1  0  0  0
 26 24  1  0  0  0  0
 26 23  1  0  0  0  0
 27 32  1  0  0  0  0
 27 33  1  0  0  0  0
 28 27  1  0  0  0  0
 29 31  1  0  0  0  0
 30 29  1  0  0  0  0
 32 30  2  0  0  0  0
 33 29  2  0  0  0  0
 34 28  2  0  0  0  0
 35 13  1  0  0  0  0
 36 39  1  0  0  0  0
 37 36  2  0  0  0  0
 38 40  1  0  0  0  0
 40 39  2  0  0  0  0
 40 35  1  0  0  0  0
 41 37  1  0  0  0  0
 41 38  2  0  0  0  0
 43 42  1  0  0  0  0
 43 37  1  0  0  0  0
M  END
>  <MODEL>
6

>  <REMARK>
 VINA RESULT:      -9.1      2.282      3.056
  Name = 
  8 active torsions:
  status: ('A' for Active; 'I' for Inactive)
    1  A    between atoms: C_1  and  N_34
    2  A    between atoms: C_1  and  C_35
    3  A    between atoms: C_2  and  N_6
    4  A    between atoms: C_2  and  C_13
    5  A    between atoms: O_3  and  C_4
    6  A    between atoms: O_3  and  C_12
    7  A    between atoms: C_14  and  C_22
    8  A    between atoms: C_19  and  O_37
                            x       y       z     vdW  Elec       q    Type
                         _______ _______ _______ _____ _____    ______ ____

>  <TORSDO>
F 8

$$$$
=
 OpenBabel10262422353D

 43 48  0  0  1  0  0  0  0  0999 V2000
  188.0910  177.7290  147.9770 C   0  0  0  0  0  0  0  0  0  0  0  0
  188.5820  177.8330  142.8910 C   0  0  0  0  0  0  0  0  0  0  0  0
  186.0820  178.5440  141.8120 C   0  0  0  0  0  0  0  0  0  0  0  0
  188.8750  177.3880  145.7080 C   0  0  0  0  0  0  0  0  0  0  0  0
  186.8540  178.3310  147.4290 C   0  0  0  0  0  3  0  0  0  0  0  0
  188.2640  177.6460  149.3520 O   0  0  0  0  0  1  0  0  0  0  0  0
  187.4580  177.4920  145.1840 C   0  0  1  0  0  3  0  0  0  0  0  0
  189.0660  177.3100  147.1630 C   0  0  0  0  0  3  0  0  0  0  0  0
  186.5760  178.2730  146.1210 C   0  0  0  0  0  3  0  0  0  0  0  0
  186.2390  178.2550  143.2140 N   0  0  0  0  0  0  0  0  0  0  0  0
  187.3830  177.9420  143.7500 C   0  0  0  0  0  0  0  0  0  0  0  0
  189.7740  177.5360  143.4320 C   0  0  0  0  0  3  0  0  0  0  0  0
  188.4270  178.0920  141.4840 N   0  0  0  0  0  0  0  0  0  0  0  0
  187.1320  178.4600  140.9840 C   0  0  0  0  0  3  0  0  0  0  0  0
  189.9280  177.3460  144.8860 C   0  0  0  0  0  3  0  0  0  0  0  0
  184.7490  178.9580  141.2710 C   0  0  2  0  0  3  0  0  0  0  0  0
  183.6660  178.6450  142.2870 C   0  0  0  0  0  1  0  0  0  0  0  0
  184.4550  178.2460  140.0300 N   0  0  0  0  0  2  0  0  0  0  0  0
  184.2490  178.8990  138.7740 C   0  0  0  0  0  0  0  0  0  0  0  0
  184.1340  180.1530  138.7170 O   0  0  0  0  0  0  0  0  0  0  0  0
  184.1670  178.1480  137.6010 O   0  0  0  0  0  0  0  0  0  0  0  0
  182.9440  177.5480  137.1920 C   0  0  2  0  0  3  0  0  0  0  0  0
  180.6650  178.3150  136.7850 C   0  0  0  0  0  2  0  0  0  0  0  0
  182.7510  177.7100  135.7020 C   0  0  0  0  0  2  0  0  0  0  0  0
  181.7640  178.2530  137.8360 C   0  0  1  0  0  3  0  0  0  0  0  0
  181.2520  177.7550  135.4990 C   0  0  0  0  0  2  0  0  0  0  0  0
  180.7500  178.2300  140.1690 N   0  0  0  0  0  0  0  0  0  0  0  0
  181.2870  177.5130  139.0510 C   0  0  0  0  0  0  0  0  0  0  0  0
  179.8650  178.7440  142.0780 C   0  0  0  0  0  0  0  0  0  0  0  0
  180.0700  179.9200  141.4590 N   0  0  0  0  0  0  0  0  0  0  0  0
  179.2790  178.6270  143.3680 N   0  0  0  0  0  1  0  0  0  0  0  0
  180.6220  179.5690  140.2800 C   0  0  0  0  0  3  0  0  0  0  0  0
  180.2760  177.6860  141.3020 C   0  0  0  0  0  3  0  0  0  0  0  0
  181.3220  176.2510  139.0730 O   0  0  0  0  0  0  0  0  0  0  0  0
  189.5580  178.0620  140.5610 C   0  0  0  0  0  2  0  0  0  0  0  0
  188.2330  176.4940  137.3670 C   0  0  0  0  0  3  0  0  0  0  0  0
  188.1970  177.5950  136.5060 C   0  0  0  0  0  0  0  0  0  0  0  0
  189.0560  179.0030  138.2960 C   0  0  0  0  0  3  0  0  0  0  0  0
  188.6760  176.6440  138.6870 C   0  0  0  0  0  3  0  0  0  0  0  0
  189.0820  177.9000  139.1530 C   0  0  0  0  0  0  0  0  0  0  0  0
  188.6140  178.8530  136.9760 C   0  0  0  0  0  3  0  0  0  0  0  0
  186.4020  177.6750  134.8050 C   0  0  0  0  0  1  0  0  0  0  0  0
  187.7430  177.4110  135.1950 O   0  0  0  0  0  0  0  0  0  0  0  0
  1  6  1  0  0  0  0
  2 12  2  0  0  0  0
  2 11  1  0  0  0  0
  3 10  1  0  0  0  0
  4  8  1  0  0  0  0
  5  1  1  0  0  0  0
  7  4  1  0  0  0  0
  7  9  1  1  0  0  0
  8  1  2  0  0  0  0
  9  5  2  0  0  0  0
 10 11  2  0  0  0  0
 11  7  1  0  0  0  0
 12 15  1  0  0  0  0
 13  2  1  0  0  0  0
 14 13  1  0  0  0  0
 14  3  2  0  0  0  0
 15  4  2  0  0  0  0
 16  3  1  0  0  0  0
 16 17  1  1  0  0  0
 18 16  1  0  0  0  0
 19 18  1  0  0  0  0
 20 19  2  0  0  0  0
 21 19  1  0  0  0  0
 22 21  1  1  0  0  0
 22 25  1  0  0  0  0
 23 25  1  0  0  0  0
 24 22  1  0  0  0  0
 25 28  1  1  0  0  0
 26 24  1  0  0  0  0
 26 23  1  0  0  0  0
 27 32  1  0  0  0  0
 27 33  1  0  0  0  0
 28 34  2  0  0  0  0
 28 27  1  0  0  0  0
 29 31  1  0  0  0  0
 30 29  1  0  0  0  0
 32 30  2  0  0  0  0
 33 29  2  0  0  0  0
 35 13  1  0  0  0  0
 36 39  1  0  0  0  0
 37 41  1  0  0  0  0
 37 36  2  0  0  0  0
 38 40  1  0  0  0  0
 39 40  2  0  0  0  0
 40 35  1  0  0  0  0
 41 38  2  0  0  0  0
 42 43  1  0  0  0  0
 43 37  1  0  0  0  0
M  END
>  <MODEL>
7

>  <REMARK>
 VINA RESULT:      -9.0      2.648      7.699
  Name = 
  8 active torsions:
  status: ('A' for Active; 'I' for Inactive)
    1  A    between atoms: C_1  and  N_34
    2  A    between atoms: C_1  and  C_35
    3  A    between atoms: C_2  and  N_6
    4  A    between atoms: C_2  and  C_13
    5  A    between atoms: O_3  and  C_4
    6  A    between atoms: O_3  and  C_12
    7  A    between atoms: C_14  and  C_22
    8  A    between atoms: C_19  and  O_37
                            x       y       z     vdW  Elec       q    Type
                         _______ _______ _______ _____ _____    ______ ____

>  <TORSDO>
F 8

$$$$
=
 OpenBabel10262422353D

 43 48  0  0  1  0  0  0  0  0999 V2000
  191.2060  176.6200  146.8860 C   0  0  0  0  0  0  0  0  0  0  0  0
  187.4010  177.9370  143.7380 C   0  0  0  0  0  0  0  0  0  0  0  0
  188.4280  177.9350  141.1190 C   0  0  0  0  0  0  0  0  0  0  0  0
  189.1340  177.4930  145.9790 C   0  0  0  0  0  0  0  0  0  0  0  0
  191.6800  176.3870  145.5020 C   0  0  0  0  0  3  0  0  0  0  0  0
  192.0170  176.2720  147.9570 O   0  0  0  0  0  1  0  0  0  0  0  0
  189.8050  177.7500  144.6460 C   0  0  1  0  0  3  0  0  0  0  0  0
  189.9850  177.1160  147.1150 C   0  0  0  0  0  3  0  0  0  0  0  0
  191.0060  176.8620  144.4490 C   0  0  0  0  0  3  0  0  0  0  0  0
  189.2900  177.7760  142.2620 N   0  0  0  0  0  0  0  0  0  0  0  0
  188.8470  177.7540  143.4860 C   0  0  0  0  0  0  0  0  0  0  0  0
  186.9250  177.8910  144.9930 C   0  0  0  0  0  3  0  0  0  0  0  0
  186.5380  178.1250  142.6030 N   0  0  0  0  0  0  0  0  0  0  0  0
  187.1100  178.1070  141.2850 C   0  0  0  0  0  3  0  0  0  0  0  0
  187.8130  177.6240  146.1390 C   0  0  0  0  0  3  0  0  0  0  0  0
  188.9960  177.8910  139.7340 C   0  0  2  0  0  3  0  0  0  0  0  0
  187.9600  178.3850  138.7410 C   0  0  0  0  0  1  0  0  0  0  0  0
  189.3800  176.5270  139.3810 N   0  0  0  0  0  2  0  0  0  0  0  0
  190.4470  176.2130  138.4810 C   0  0  0  0  0  0  0  0  0  0  0  0
  190.9990  177.1220  137.8030 O   0  0  0  0  0  0  0  0  0  0  0  0
  190.8800  174.8940  138.3430 O   0  0  0  0  0  0  0  0  0  0  0  0
  190.6150  174.1500  137.1610 C   0  0  2  0  0  3  0  0  0  0  0  0
  189.6270  174.6150  134.9810 C   0  0  0  0  0  2  0  0  0  0  0  0
  191.7300  174.3380  136.1590 C   0  0  0  0  0  2  0  0  0  0  0  0
  189.3610  174.6640  136.4780 C   0  0  1  0  0  3  0  0  0  0  0  0
  191.0750  174.1880  134.8030 C   0  0  0  0  0  2  0  0  0  0  0  0
  186.8710  174.4180  136.9380 N   0  0  0  0  0  0  0  0  0  0  0  0
  188.1690  173.8230  136.8270 C   0  0  0  0  0  0  0  0  0  0  0  0
  184.7470  174.7380  137.2190 C   0  0  0  0  0  0  0  0  0  0  0  0
  185.2480  175.9520  136.9350 N   0  0  0  0  0  0  0  0  0  0  0  0
  183.3670  174.4950  137.4620 N   0  0  0  0  0  1  0  0  0  0  0  0
  186.5670  175.7230  136.7690 C   0  0  0  0  0  3  0  0  0  0  0  0
  185.7270  173.7730  137.2260 C   0  0  0  0  0  3  0  0  0  0  0  0
  188.3030  172.5770  136.9860 O   0  0  0  0  0  0  0  0  0  0  0  0
  185.0910  178.2620  142.7420 C   0  0  0  0  0  2  0  0  0  0  0  0
  182.8350  177.5860  139.7640 C   0  0  0  0  0  3  0  0  0  0  0  0
  183.2350  178.5870  138.8740 C   0  0  0  0  0  0  0  0  0  0  0  0
  184.8540  179.3740  140.5120 C   0  0  0  0  0  3  0  0  0  0  0  0
  183.4380  177.4780  141.0230 C   0  0  0  0  0  3  0  0  0  0  0  0
  184.4430  178.3760  141.4000 C   0  0  0  0  0  0  0  0  0  0  0  0
  184.2520  179.4820  139.2530 C   0  0  0  0  0  3  0  0  0  0  0  0
  181.7550  177.6480  137.1270 C   0  0  0  0  0  1  0  0  0  0  0  0
  182.6070  178.6700  137.6260 O   0  0  0  0  0  0  0  0  0  0  0  0
  1  8  2  0  0  0  0
  1  6  1  0  0  0  0
  2 12  2  0  0  0  0
  3 14  2  0  0  0  0
  3 10  1  0  0  0  0
  4 15  2  0  0  0  0
  4  8  1  0  0  0  0
  5  1  1  0  0  0  0
  7  9  1  6  0  0  0
  7  4  1  0  0  0  0
  9  5  2  0  0  0  0
 10 11  2  0  0  0  0
 11  2  1  0  0  0  0
 11  7  1  0  0  0  0
 12 15  1  0  0  0  0
 13 35  1  0  0  0  0
 13  2  1  0  0  0  0
 14 13  1  0  0  0  0
 16 17  1  6  0  0  0
 16  3  1  0  0  0  0
 18 16  1  0  0  0  0
 19 18  1  0  0  0  0
 20 19  2  0  0  0  0
 21 19  1  0  0  0  0
 22 21  1  1  0  0  0
 23 25  1  0  0  0  0
 24 22  1  0  0  0  0
 25 28  1  6  0  0  0
 25 22  1  0  0  0  0
 26 23  1  0  0  0  0
 26 24  1  0  0  0  0
 27 33  1  0  0  0  0
 28 27  1  0  0  0  0
 28 34  2  0  0  0  0
 29 33  2  0  0  0  0
 29 31  1  0  0  0  0
 30 29  1  0  0  0  0
 32 30  2  0  0  0  0
 32 27  1  0  0  0  0
 36 39  1  0  0  0  0
 37 41  1  0  0  0  0
 37 36  2  0  0  0  0
 38 40  1  0  0  0  0
 39 40  2  0  0  0  0
 40 35  1  0  0  0  0
 41 38  2  0  0  0  0
 42 43  1  0  0  0  0
 43 37  1  0  0  0  0
M  END
>  <MODEL>
8

>  <REMARK>
 VINA RESULT:      -9.0      2.912      5.699
  Name = 
  8 active torsions:
  status: ('A' for Active; 'I' for Inactive)
    1  A    between atoms: C_1  and  N_34
    2  A    between atoms: C_1  and  C_35
    3  A    between atoms: C_2  and  N_6
    4  A    between atoms: C_2  and  C_13
    5  A    between atoms: O_3  and  C_4
    6  A    between atoms: O_3  and  C_12
    7  A    between atoms: C_14  and  C_22
    8  A    between atoms: C_19  and  O_37
                            x       y       z     vdW  Elec       q    Type
                         _______ _______ _______ _____ _____    ______ ____

>  <TORSDO>
F 8

$$$$
=
 OpenBabel10262422353D

 43 48  0  0  1  0  0  0  0  0999 V2000
  180.9010  179.2880  140.6780 C   0  0  0  0  0  0  0  0  0  0  0  0
  184.6770  178.3740  143.9990 C   0  0  0  0  0  0  0  0  0  0  0  0
  187.0480  178.0510  142.5190 C   0  0  0  0  0  0  0  0  0  0  0  0
  182.1610  178.6880  142.6610 C   0  0  0  0  0  0  0  0  0  0  0  0
  182.1740  179.3560  139.9250 C   0  0  0  0  0  3  0  0  0  0  0  0
  179.7050  179.5740  140.0340 O   0  0  0  0  0  1  0  0  0  0  0  0
  183.3300  178.2470  141.8060 C   0  0  1  0  0  3  0  0  0  0  0  0
  180.8950  179.0020  141.9850 C   0  0  0  0  0  3  0  0  0  0  0  0
  183.3210  178.9240  140.4610 C   0  0  0  0  0  3  0  0  0  0  0  0
  185.7660  178.1480  141.8690 N   0  0  0  0  0  0  0  0  0  0  0  0
  184.6520  178.3160  142.5210 C   0  0  0  0  0  0  0  0  0  0  0  0
  183.5400  178.5730  144.6840 C   0  0  0  0  0  3  0  0  0  0  0  0
  185.9510  178.2490  144.6560 N   0  0  0  0  0  0  0  0  0  0  0  0
  187.1340  178.0950  143.8550 C   0  0  0  0  0  3  0  0  0  0  0  0
  182.2540  178.7730  143.9920 C   0  0  0  0  0  3  0  0  0  0  0  0
  188.2980  177.9180  141.7050 C   0  0  2  0  0  3  0  0  0  0  0  0
  189.4670  178.5200  142.4630 C   0  0  0  0  0  1  0  0  0  0  0  0
  188.1540  178.6110  140.4280 N   0  0  0  0  0  2  0  0  0  0  0  0
  189.0780  178.4720  139.3440 C   0  0  0  0  0  0  0  0  0  0  0  0
  190.1740  177.8720  139.5110 O   0  0  0  0  0  0  0  0  0  0  0  0
  188.7730  179.0080  138.0920 O   0  0  0  0  0  0  0  0  0  0  0  0
  187.9140  178.3290  137.1870 C   0  0  2  0  0  3  0  0  0  0  0  0
  186.7750  176.1730  137.1330 C   0  0  0  0  0  2  0  0  0  0  0  0
  186.4680  178.5390  137.5750 C   0  0  0  0  0  2  0  0  0  0  0  0
  188.1420  176.8300  137.2600 C   0  0  1  0  0  3  0  0  0  0  0  0
  185.7470  177.2920  137.1110 C   0  0  0  0  0  2  0  0  0  0  0  0
  190.1610  175.5100  136.4510 N   0  0  0  0  0  0  0  0  0  0  0  0
  189.0500  176.3660  136.1590 C   0  0  0  0  0  0  0  0  0  0  0  0
  191.9150  174.2490  136.2860 C   0  0  0  0  0  0  0  0  0  0  0  0
  191.6120  174.2570  137.5960 N   0  0  0  0  0  0  0  0  0  0  0  0
  193.0040  173.5200  135.7350 N   0  0  0  0  0  1  0  0  0  0  0  0
  190.5230  175.0490  137.6680 C   0  0  0  0  0  3  0  0  0  0  0  0
  191.0330  175.0140  135.5580 C   0  0  0  0  0  3  0  0  0  0  0  0
  188.8120  176.6980  134.9640 O   0  0  0  0  0  0  0  0  0  0  0  0
  186.0890  178.3460  146.1060 C   0  0  0  0  0  2  0  0  0  0  0  0
  189.6130  176.9370  146.0380 C   0  0  0  0  0  3  0  0  0  0  0  0
  190.0620  177.2350  147.3280 C   0  0  0  0  0  0  0  0  0  0  0  0
  187.9090  178.2570  147.8230 C   0  0  0  0  0  3  0  0  0  0  0  0
  188.3210  177.2970  145.6380 C   0  0  0  0  0  3  0  0  0  0  0  0
  187.4700  177.9630  146.5290 C   0  0  0  0  0  0  0  0  0  0  0  0
  189.2010  177.8970  148.2220 C   0  0  0  0  0  3  0  0  0  0  0  0
  191.9340  175.6170  147.3300 C   0  0  0  0  0  1  0  0  0  0  0  0
  191.3620  176.8660  147.6920 O   0  0  0  0  0  0  0  0  0  0  0  0
  1  8  2  0  0  0  0
  2 13  1  0  0  0  0
  2 12  2  0  0  0  0
  3 14  2  0  0  0  0
  4 15  2  0  0  0  0
  5  9  2  0  0  0  0
  5  1  1  0  0  0  0
  6  1  1  0  0  0  0
  7  9  1  6  0  0  0
  7 11  1  0  0  0  0
  7  4  1  0  0  0  0
  8  4  1  0  0  0  0
 10  3  1  0  0  0  0
 10 11  2  0  0  0  0
 11  2  1  0  0  0  0
 13 35  1  0  0  0  0
 14 13  1  0  0  0  0
 15 12  1  0  0  0  0
 16 17  1  1  0  0  0
 16  3  1  0  0  0  0
 18 16  1  0  0  0  0
 19 20  2  0  0  0  0
 19 18  1  0  0  0  0
 21 19  1  0  0  0  0
 22 25  1  0  0  0  0
 22 24  1  0  0  0  0
 22 21  1  1  0  0  0
 23 25  1  0  0  0  0
 25 28  1  6  0  0  0
 26 23  1  0  0  0  0
 26 24  1  0  0  0  0
 27 32  1  0  0  0  0
 28 27  1  0  0  0  0
 29 30  1  0  0  0  0
 30 32  2  0  0  0  0
 31 29  1  0  0  0  0
 33 29  2  0  0  0  0
 33 27  1  0  0  0  0
 34 28  2  0  0  0  0
 35 40  1  0  0  0  0
 36 37  1  0  0  0  0
 37 43  1  0  0  0  0
 37 41  2  0  0  0  0
 38 41  1  0  0  0  0
 39 36  2  0  0  0  0
 39 40  1  0  0  0  0
 40 38  2  0  0  0  0
 42 43  1  0  0  0  0
M  END
>  <MODEL>
9

>  <REMARK>
 VINA RESULT:      -8.9      2.738      7.832
  Name = 
  8 active torsions:
  status: ('A' for Active; 'I' for Inactive)
    1  A    between atoms: C_1  and  N_34
    2  A    between atoms: C_1  and  C_35
    3  A    between atoms: C_2  and  N_6
    4  A    between atoms: C_2  and  C_13
    5  A    between atoms: O_3  and  C_4
    6  A    between atoms: O_3  and  C_12
    7  A    between atoms: C_14  and  C_22
    8  A    between atoms: C_19  and  O_37
                            x       y       z     vdW  Elec       q    Type
                         _______ _______ _______ _____ _____    ______ ____

>  <TORSDO>
F 8

$$$$
