=
 OpenBabel10262421053D

 32 37  0  0  1  0  0  0  0  0999 V2000
  183.0920  179.2070  139.2850 C   0  0  1  0  0  3  0  0  0  0  0  0
  181.2090  179.0490  137.8400 C   0  0  1  0  0  0  0  0  0  0  0  0
  185.5270  176.8500  136.2060 C   0  0  0  0  0  0  0  0  0  0  0  0
  184.4740  179.4710  139.1210 O   0  0  0  0  0  0  0  0  0  0  0  0
  182.3310  179.9610  138.2180 C   0  0  1  0  0  3  0  0  0  0  0  0
  180.2810  179.5760  136.7550 C   0  0  2  0  0  3  0  0  0  0  0  0
  185.6280  176.3930  135.0350 O   0  0  0  0  0  0  0  0  0  0  0  0
  181.6630  177.6000  137.9650 C   0  0  1  0  0  3  0  0  0  0  0  0
  180.4280  181.1060  136.4840 C   0  0  1  0  0  3  0  0  0  0  0  0
  186.7170  177.5290  136.8450 C   0  0  1  0  0  3  0  0  0  0  0  0
  185.0910  178.4560  138.4280 C   0  0  0  0  0  0  0  0  0  0  0  0
  179.7600  179.3740  138.1810 C   0  0  0  0  0  2  0  0  0  0  0  0
  181.9120  181.3670  138.4740 C   0  0  0  0  0  3  0  0  0  0  0  0
  186.2360  178.6150  137.7640 C   0  0  0  0  0  3  0  0  0  0  0  0
  184.2980  176.7020  136.9510 N   0  0  0  0  0  0  0  0  0  0  0  0
  183.3930  175.6350  136.5470 C   0  0  0  0  0  1  0  0  0  0  0  0
  182.8980  177.7090  138.8910 C   0  0  1  0  0  3  0  0  0  0  0  0
  179.0680  181.6250  136.0460 C   0  0  0  0  0  1  0  0  0  0  0  0
  184.2630  177.2270  138.3290 C   0  0  2  0  0  3  0  0  0  0  0  0
  181.0410  181.9360  137.6330 C   0  0  0  0  0  0  0  0  0  0  0  0
  178.9310  175.0000  138.0930 O   0  0  0  0  0  0  0  0  0  0  0  0
  180.0890  175.1520  140.1970 C   0  0  0  0  0  2  0  0  0  0  0  0
  181.1420  175.8940  139.6270 O   0  0  0  0  0  0  0  0  0  0  0  0
  180.5990  176.6680  138.5780 C   0  0  2  0  0  3  0  0  0  0  0  0
  179.4780  174.2280  139.1360 C   0  0  0  0  0  2  0  0  0  0  0  0
  179.9820  175.7420  137.5200 C   0  0  0  0  0  2  0  0  0  0  0  0
  180.7980  183.3400  137.7960 N   0  0  0  0  0  2  0  0  0  0  0  0
  181.5850  184.3940  137.1800 C   0  0  0  0  0  2  0  0  0  0  0  0
  180.8820  184.8850  135.9320 C   0  0  0  0  0  1  0  0  0  0  0  0
  187.5470  176.5230  137.6300 C   0  0  0  0  0  2  0  0  0  0  0  0
  189.7990  177.5480  137.6570 C   0  0  0  0  0  1  0  0  0  0  0  0
  188.5750  177.2350  138.4900 C   0  0  0  0  0  2  0  0  0  0  0  0
  1  4  1  6  0  0  0
  2  8  1  0  0  0  0
  2 12  1  1  0  0  0
  2  5  1  0  0  0  0
  3 10  1  0  0  0  0
  3 15  1  0  0  0  0
  5 13  1  1  0  0  0
  5  1  1  0  0  0  0
  6  2  1  0  0  0  0
  6 12  1  1  0  0  0
  7  3  2  0  0  0  0
  8 24  1  1  0  0  0
  8 17  1  0  0  0  0
  9 18  1  1  0  0  0
  9  6  1  0  0  0  0
  9 20  1  0  0  0  0
 10 30  1  1  0  0  0
 10 14  1  0  0  0  0
 11  4  1  0  0  0  0
 14 11  2  0  0  0  0
 15 19  1  0  0  0  0
 16 15  1  0  0  0  0
 17  1  1  0  0  0  0
 19 11  1  0  0  0  0
 19 17  1  0  0  0  0
 20 27  1  0  0  0  0
 20 13  2  0  0  0  0
 21 25  1  0  0  0  0
 23 22  1  0  0  0  0
 24 23  1  0  0  0  0
 25 22  1  0  0  0  0
 26 21  1  0  0  0  0
 26 24  1  0  0  0  0
 28 27  1  0  0  0  0
 29 28  1  0  0  0  0
 30 32  1  0  0  0  0
 31 32  1  0  0  0  0
M  END
>  <MODEL>
1

>  <REMARK>
 VINA RESULT:      -5.5      0.000      0.000
  Name = 
  5 active torsions:
  status: ('A' for Active; 'I' for Inactive)
    1  A    between atoms: C_10  and  C_28
    2  A    between atoms: N_14  and  C_21
    3  A    between atoms: N_14  and  C_29
    4  A    between atoms: C_15  and  C_19
    5  A    between atoms: C_19  and  C_26
                            x       y       z     vdW  Elec       q    Type
                         _______ _______ _______ _____ _____    ______ ____

>  <TORSDO>
F 5

$$$$
=
 OpenBabel10262421053D

 32 37  0  0  1  0  0  0  0  0999 V2000
  184.1510  178.7510  138.6540 C   0  0  1  0  0  3  0  0  0  0  0  0
  182.2030  177.9620  137.5400 C   0  0  1  0  0  0  0  0  0  0  0  0
  181.8440  178.5680  142.6040 C   0  0  0  0  0  0  0  0  0  0  0  0
  184.8280  178.4320  139.8570 O   0  0  0  0  0  0  0  0  0  0  0  0
  183.4960  177.4950  138.1260 C   0  0  1  0  0  3  0  0  0  0  0  0
  181.3310  176.8700  136.9380 C   0  0  2  0  0  3  0  0  0  0  0  0
  180.8320  178.1680  143.2420 O   0  0  0  0  0  0  0  0  0  0  0  0
  181.6810  179.1510  138.3360 C   0  0  1  0  0  3  0  0  0  0  0  0
  182.0780  175.5210  136.7010 C   0  0  1  0  0  3  0  0  0  0  0  0
  183.2150  178.4470  143.2300 C   0  0  1  0  0  3  0  0  0  0  0  0
  184.0670  178.7620  140.9540 C   0  0  0  0  0  0  0  0  0  0  0  0
  181.9500  177.9430  136.0380 C   0  0  0  0  0  2  0  0  0  0  0  0
  184.2720  176.5840  137.2400 C   0  0  0  0  0  3  0  0  0  0  0  0
  184.2330  178.2050  142.1530 C   0  0  0  0  0  3  0  0  0  0  0  0
  181.7000  179.1690  141.2980 N   0  0  0  0  0  0  0  0  0  0  0  0
  180.4030  179.7370  140.9610 C   0  0  0  0  0  1  0  0  0  0  0  0
  182.9470  179.6500  139.0730 C   0  0  1  0  0  3  0  0  0  0  0  0
  181.4420  174.8530  135.4920 C   0  0  0  0  0  1  0  0  0  0  0  0
  182.9220  179.6490  140.6250 C   0  0  2  0  0  3  0  0  0  0  0  0
  183.6160  175.6150  136.5910 C   0  0  0  0  0  0  0  0  0  0  0  0
  179.0570  181.1150  136.4660 O   0  0  0  0  0  0  0  0  0  0  0  0
  180.9410  182.4990  137.0360 C   0  0  0  0  0  2  0  0  0  0  0  0
  181.4380  181.5460  137.9440 O   0  0  0  0  0  0  0  0  0  0  0  0
  181.0800  180.2680  137.4590 C   0  0  2  0  0  3  0  0  0  0  0  0
  179.4130  182.3870  136.9550 C   0  0  0  0  0  2  0  0  0  0  0  0
  179.5510  180.1590  137.3730 C   0  0  0  0  0  2  0  0  0  0  0  0
  184.4080  174.6440  135.8940 N   0  0  0  0  0  2  0  0  0  0  0  0
  185.3920  173.7760  136.5180 C   0  0  0  0  0  2  0  0  0  0  0  0
  184.6870  172.7470  137.3760 C   0  0  0  0  0  1  0  0  0  0  0  0
  183.5670  179.7150  143.9940 C   0  0  0  0  0  2  0  0  0  0  0  0
  184.6520  178.6120  145.9250 C   0  0  0  0  0  1  0  0  0  0  0  0
  184.8710  179.5390  144.7490 C   0  0  0  0  0  2  0  0  0  0  0  0
  1 17  1  0  0  0  0
  1  4  1  1  0  0  0
  2 12  1  6  0  0  0
  2  5  1  0  0  0  0
  2  8  1  0  0  0  0
  3 10  1  0  0  0  0
  3  7  2  0  0  0  0
  4 11  1  0  0  0  0
  5 13  1  6  0  0  0
  5  1  1  0  0  0  0
  6 12  1  6  0  0  0
  6  2  1  0  0  0  0
  8 24  1  6  0  0  0
  8 17  1  0  0  0  0
  9 18  1  6  0  0  0
  9  6  1  0  0  0  0
 10 30  1  6  0  0  0
 11 14  2  0  0  0  0
 14 10  1  0  0  0  0
 15  3  1  0  0  0  0
 16 15  1  0  0  0  0
 17 19  1  0  0  0  0
 19 11  1  0  0  0  0
 19 15  1  0  0  0  0
 20  9  1  0  0  0  0
 20 13  2  0  0  0  0
 21 25  1  0  0  0  0
 21 26  1  0  0  0  0
 22 23  1  0  0  0  0
 24 23  1  0  0  0  0
 25 22  1  0  0  0  0
 26 24  1  0  0  0  0
 27 28  1  0  0  0  0
 27 20  1  0  0  0  0
 28 29  1  0  0  0  0
 30 32  1  0  0  0  0
 32 31  1  0  0  0  0
M  END
>  <MODEL>
2

>  <REMARK>
 VINA RESULT:      -5.3      3.099      6.563
  Name = 
  5 active torsions:
  status: ('A' for Active; 'I' for Inactive)
    1  A    between atoms: C_10  and  C_28
    2  A    between atoms: N_14  and  C_21
    3  A    between atoms: N_14  and  C_29
    4  A    between atoms: C_15  and  C_19
    5  A    between atoms: C_19  and  C_26
                            x       y       z     vdW  Elec       q    Type
                         _______ _______ _______ _____ _____    ______ ____

>  <TORSDO>
F 5

$$$$
=
 OpenBabel10262421053D

 32 37  0  0  1  0  0  0  0  0999 V2000
  189.0080  178.4730  138.9010 C   0  0  1  0  0  3  0  0  0  0  0  0
  190.3450  176.8420  140.0030 C   0  0  1  0  0  0  0  0  0  0  0  0
  186.5620  175.0730  137.0530 C   0  0  0  0  0  0  0  0  0  0  0  0
  187.6250  178.6480  138.6540 O   0  0  0  0  0  0  0  0  0  0  0  0
  189.1720  177.7420  140.2150 C   0  0  1  0  0  3  0  0  0  0  0  0
  190.7200  175.9730  141.1940 C   0  0  2  0  0  3  0  0  0  0  0  0
  186.2570  173.8490  137.0410 O   0  0  0  0  0  0  0  0  0  0  0  0
  190.3850  176.3880  138.5490 C   0  0  1  0  0  3  0  0  0  0  0  0
  190.0670  176.4220  142.5380 C   0  0  1  0  0  3  0  0  0  0  0  0
  185.4700  176.1130  136.9480 C   0  0  1  0  0  3  0  0  0  0  0  0
  187.1500  177.6810  137.7990 C   0  0  0  0  0  0  0  0  0  0  0  0
  191.6730  177.0720  140.7140 C   0  0  0  0  0  2  0  0  0  0  0  0
  189.2240  178.5220  141.4830 C   0  0  0  0  0  3  0  0  0  0  0  0
  185.8660  177.3310  137.7320 C   0  0  0  0  0  3  0  0  0  0  0  0
  187.9430  175.4870  137.1340 N   0  0  0  0  0  0  0  0  0  0  0  0
  188.9560  174.5280  136.7150 C   0  0  0  0  0  1  0  0  0  0  0  0
  189.5000  177.4400  137.8390 C   0  0  1  0  0  3  0  0  0  0  0  0
  191.0280  176.0590  143.6580 C   0  0  0  0  0  1  0  0  0  0  0  0
  188.2300  176.9330  137.1050 C   0  0  2  0  0  3  0  0  0  0  0  0
  189.6070  177.8960  142.6010 C   0  0  0  0  0  0  0  0  0  0  0  0
  193.8280  175.0800  137.7240 O   0  0  0  0  0  0  0  0  0  0  0  0
  193.1070  176.7170  136.1140 C   0  0  0  0  0  2  0  0  0  0  0  0
  191.7740  176.6540  136.5630 O   0  0  0  0  0  0  0  0  0  0  0  0
  191.8030  176.3660  137.9450 C   0  0  2  0  0  3  0  0  0  0  0  0
  193.7930  175.3650  136.3450 C   0  0  0  0  0  2  0  0  0  0  0  0
  192.4950  175.0150  138.1760 C   0  0  0  0  0  2  0  0  0  0  0  0
  189.4730  178.6180  143.8330 N   0  0  0  0  0  2  0  0  0  0  0  0
  188.8290  178.1030  145.0290 C   0  0  0  0  0  2  0  0  0  0  0  0
  187.4230  177.6520  144.6910 C   0  0  0  0  0  1  0  0  0  0  0  0
  185.2330  176.4930  135.4930 C   0  0  0  0  0  2  0  0  0  0  0  0
  182.8040  176.1660  135.8260 C   0  0  0  0  0  1  0  0  0  0  0  0
  183.8630  177.1210  135.3220 C   0  0  0  0  0  2  0  0  0  0  0  0
  1  4  1  6  0  0  0
  1  5  1  0  0  0  0
  2  5  1  0  0  0  0
  2 12  1  1  0  0  0
  2  6  1  0  0  0  0
  3 15  1  0  0  0  0
  5 13  1  1  0  0  0
  6 12  1  1  0  0  0
  6  9  1  0  0  0  0
  7  3  2  0  0  0  0
  8 24  1  6  0  0  0
  8  2  1  0  0  0  0
  9 20  1  0  0  0  0
  9 18  1  1  0  0  0
 10 30  1  6  0  0  0
 10  3  1  0  0  0  0
 10 14  1  0  0  0  0
 11  4  1  0  0  0  0
 13 20  2  0  0  0  0
 14 11  2  0  0  0  0
 16 15  1  0  0  0  0
 17  8  1  0  0  0  0
 17  1  1  0  0  0  0
 19 15  1  0  0  0  0
 19 11  1  0  0  0  0
 19 17  1  0  0  0  0
 20 27  1  0  0  0  0
 21 26  1  0  0  0  0
 22 25  1  0  0  0  0
 22 23  1  0  0  0  0
 23 24  1  0  0  0  0
 24 26  1  0  0  0  0
 25 21  1  0  0  0  0
 27 28  1  0  0  0  0
 29 28  1  0  0  0  0
 32 30  1  0  0  0  0
 32 31  1  0  0  0  0
M  END
>  <MODEL>
3

>  <REMARK>
 VINA RESULT:      -5.2      4.723      9.453
  Name = 
  5 active torsions:
  status: ('A' for Active; 'I' for Inactive)
    1  A    between atoms: C_10  and  C_28
    2  A    between atoms: N_14  and  C_21
    3  A    between atoms: N_14  and  C_29
    4  A    between atoms: C_15  and  C_19
    5  A    between atoms: C_19  and  C_26
                            x       y       z     vdW  Elec       q    Type
                         _______ _______ _______ _____ _____    ______ ____

>  <TORSDO>
F 5

$$$$
=
 OpenBabel10262421053D

 32 37  0  0  1  0  0  0  0  0999 V2000
  192.3580  177.4380  139.4410 C   0  0  1  0  0  3  0  0  0  0  0  0
  191.1660  175.9960  137.9720 C   0  0  1  0  0  0  0  0  0  0  0  0
  189.4070  176.3320  142.7610 C   0  0  0  0  0  0  0  0  0  0  0  0
  192.7950  177.3750  140.7860 O   0  0  0  0  0  0  0  0  0  0  0  0
  192.3590  176.0380  138.8700 C   0  0  1  0  0  3  0  0  0  0  0  0
  190.9290  174.6670  137.2690 C   0  0  2  0  0  3  0  0  0  0  0  0
  188.4930  175.5690  143.1790 O   0  0  0  0  0  0  0  0  0  0  0  0
  190.0670  176.8870  138.5370 C   0  0  1  0  0  3  0  0  0  0  0  0
  192.1540  173.7010  137.3090 C   0  0  1  0  0  3  0  0  0  0  0  0
  190.5330  176.7220  143.6900 C   0  0  1  0  0  3  0  0  0  0  0  0
  191.7280  177.3760  141.6520 C   0  0  0  0  0  0  0  0  0  0  0  0
  191.3050  175.9100  136.4570 C   0  0  0  0  0  2  0  0  0  0  0  0
  193.6040  175.5000  138.2550 C   0  0  0  0  0  3  0  0  0  0  0  0
  191.7950  176.9000  142.8950 C   0  0  0  0  0  3  0  0  0  0  0  0
  189.3690  176.8570  141.4160 N   0  0  0  0  0  0  0  0  0  0  0  0
  188.0750  176.9030  140.7500 C   0  0  0  0  0  1  0  0  0  0  0  0
  190.8440  177.8120  139.5050 C   0  0  1  0  0  3  0  0  0  0  0  0
  192.1190  172.8650  136.0400 C   0  0  0  0  0  1  0  0  0  0  0  0
  190.4500  177.7730  141.0060 C   0  0  2  0  0  3  0  0  0  0  0  0
  193.5270  174.3680  137.5470 C   0  0  0  0  0  0  0  0  0  0  0  0
  187.5380  177.6880  135.8530 O   0  0  0  0  0  0  0  0  0  0  0  0
  188.3440  179.6900  136.9180 C   0  0  0  0  0  2  0  0  0  0  0  0
  188.9150  178.9630  137.9790 O   0  0  0  0  0  0  0  0  0  0  0  0
  189.3260  177.7120  137.4670 C   0  0  2  0  0  3  0  0  0  0  0  0
  187.1280  178.9320  136.3700 C   0  0  0  0  0  2  0  0  0  0  0  0
  188.1090  176.9570  136.9140 C   0  0  0  0  0  2  0  0  0  0  0  0
  194.7630  173.7780  137.1230 N   0  0  0  0  0  2  0  0  0  0  0  0
  195.6680  173.0400  137.9870 C   0  0  0  0  0  2  0  0  0  0  0  0
  195.3860  171.5570  137.8640 C   0  0  0  0  0  1  0  0  0  0  0  0
  190.1980  178.0170  144.4190 C   0  0  0  0  0  2  0  0  0  0  0  0
  188.2390  177.7860  145.9130 C   0  0  0  0  0  1  0  0  0  0  0  0
  189.7500  177.7280  145.8390 C   0  0  0  0  0  2  0  0  0  0  0  0
  1 17  1  0  0  0  0
  1  4  1  1  0  0  0
  2 12  1  6  0  0  0
  2  8  1  0  0  0  0
  2  5  1  0  0  0  0
  3  7  2  0  0  0  0
  3 10  1  0  0  0  0
  4 11  1  0  0  0  0
  5 13  1  6  0  0  0
  5  1  1  0  0  0  0
  6 12  1  6  0  0  0
  6  9  1  0  0  0  0
  6  2  1  0  0  0  0
  8 24  1  6  0  0  0
  8 17  1  0  0  0  0
  9 18  1  6  0  0  0
  9 20  1  0  0  0  0
 10 30  1  6  0  0  0
 11 14  2  0  0  0  0
 14 10  1  0  0  0  0
 15  3  1  0  0  0  0
 16 15  1  0  0  0  0
 17 19  1  0  0  0  0
 19 15  1  0  0  0  0
 19 11  1  0  0  0  0
 20 13  2  0  0  0  0
 21 25  1  0  0  0  0
 21 26  1  0  0  0  0
 22 23  1  0  0  0  0
 24 23  1  0  0  0  0
 25 22  1  0  0  0  0
 26 24  1  0  0  0  0
 27 20  1  0  0  0  0
 27 28  1  0  0  0  0
 29 28  1  0  0  0  0
 30 32  1  0  0  0  0
 32 31  1  0  0  0  0
M  END
>  <MODEL>
4

>  <REMARK>
 VINA RESULT:      -5.2      6.307     10.841
  Name = 
  5 active torsions:
  status: ('A' for Active; 'I' for Inactive)
    1  A    between atoms: C_10  and  C_28
    2  A    between atoms: N_14  and  C_21
    3  A    between atoms: N_14  and  C_29
    4  A    between atoms: C_15  and  C_19
    5  A    between atoms: C_19  and  C_26
                            x       y       z     vdW  Elec       q    Type
                         _______ _______ _______ _____ _____    ______ ____

>  <TORSDO>
F 5

$$$$
=
 OpenBabel10262421053D

 32 37  0  0  1  0  0  0  0  0999 V2000
  184.5410  179.4700  139.9260 C   0  0  1  0  0  3  0  0  0  0  0  0
  186.3470  178.2040  140.8180 C   0  0  1  0  0  0  0  0  0  0  0  0
  182.9940  175.6600  137.9140 C   0  0  0  0  0  0  0  0  0  0  0  0
  183.1490  179.2700  139.7620 O   0  0  0  0  0  0  0  0  0  0  0  0
  184.9900  178.7260  141.1630 C   0  0  1  0  0  3  0  0  0  0  0  0
  187.0280  177.3930  141.9110 C   0  0  2  0  0  3  0  0  0  0  0  0
  183.0360  174.4030  137.8130 O   0  0  0  0  0  0  0  0  0  0  0  0
  186.4080  177.8800  139.3310 C   0  0  1  0  0  3  0  0  0  0  0  0
  186.3720  177.5500  143.3190 C   0  0  1  0  0  3  0  0  0  0  0  0
  181.6550  176.3600  137.9510 C   0  0  1  0  0  3  0  0  0  0  0  0
  182.8980  178.2710  138.8510 C   0  0  0  0  0  0  0  0  0  0  0  0
  187.6070  178.7450  141.4820 C   0  0  0  0  0  2  0  0  0  0  0  0
  184.9150  179.4000  142.4890 C   0  0  0  0  0  3  0  0  0  0  0  0
  181.7570  177.5830  138.8160 C   0  0  0  0  0  3  0  0  0  0  0  0
  184.2120  176.4350  137.9630 N   0  0  0  0  0  0  0  0  0  0  0  0
  185.4170  175.8270  137.4160 C   0  0  0  0  0  1  0  0  0  0  0  0
  185.2210  178.6910  138.7570 C   0  0  1  0  0  3  0  0  0  0  0  0
  187.4720  177.3920  144.3560 C   0  0  0  0  0  1  0  0  0  0  0  0
  184.0900  177.9030  138.0440 C   0  0  2  0  0  3  0  0  0  0  0  0
  185.5320  178.8300  143.5300 C   0  0  0  0  0  0  0  0  0  0  0  0
  189.9440  177.5620  138.0530 O   0  0  0  0  0  0  0  0  0  0  0  0
  188.7440  179.2870  136.8790 C   0  0  0  0  0  2  0  0  0  0  0  0
  187.5040  178.8410  137.3770 O   0  0  0  0  0  0  0  0  0  0  0  0
  187.7320  178.2960  138.6600 C   0  0  2  0  0  3  0  0  0  0  0  0
  189.7120  178.1020  136.7730 C   0  0  0  0  0  2  0  0  0  0  0  0
  188.7060  177.1140  138.5520 C   0  0  0  0  0  2  0  0  0  0  0  0
  185.2930  179.3990  144.8230 N   0  0  0  0  0  2  0  0  0  0  0  0
  184.4900  178.7810  145.8650 C   0  0  0  0  0  2  0  0  0  0  0  0
  185.3600  178.5000  147.0720 C   0  0  0  0  0  1  0  0  0  0  0  0
  181.2220  176.7580  136.5470 C   0  0  0  0  0  2  0  0  0  0  0  0
  179.4320  175.0870  136.9010 C   0  0  0  0  0  1  0  0  0  0  0  0
  179.7510  176.4550  136.3360 C   0  0  0  0  0  2  0  0  0  0  0  0
  1  4  1  6  0  0  0
  1  5  1  0  0  0  0
  2  5  1  0  0  0  0
  2 12  1  1  0  0  0
  2  6  1  0  0  0  0
  3 10  1  0  0  0  0
  3 15  1  0  0  0  0
  5 13  1  1  0  0  0
  6 12  1  1  0  0  0
  6  9  1  0  0  0  0
  7  3  2  0  0  0  0
  8 24  1  6  0  0  0
  8  2  1  0  0  0  0
  9 20  1  0  0  0  0
  9 18  1  1  0  0  0
 10 30  1  6  0  0  0
 10 14  1  0  0  0  0
 11  4  1  0  0  0  0
 13 20  2  0  0  0  0
 14 11  2  0  0  0  0
 15 19  1  0  0  0  0
 16 15  1  0  0  0  0
 17  8  1  0  0  0  0
 17  1  1  0  0  0  0
 19 17  1  0  0  0  0
 19 11  1  0  0  0  0
 20 27  1  0  0  0  0
 21 26  1  0  0  0  0
 22 23  1  0  0  0  0
 23 24  1  0  0  0  0
 25 22  1  0  0  0  0
 25 21  1  0  0  0  0
 26 24  1  0  0  0  0
 27 28  1  0  0  0  0
 28 29  1  0  0  0  0
 32 30  1  0  0  0  0
 32 31  1  0  0  0  0
M  END
>  <MODEL>
5

>  <REMARK>
 VINA RESULT:      -5.0      3.553      7.588
  Name = 
  5 active torsions:
  status: ('A' for Active; 'I' for Inactive)
    1  A    between atoms: C_10  and  C_28
    2  A    between atoms: N_14  and  C_21
    3  A    between atoms: N_14  and  C_29
    4  A    between atoms: C_15  and  C_19
    5  A    between atoms: C_19  and  C_26
                            x       y       z     vdW  Elec       q    Type
                         _______ _______ _______ _____ _____    ______ ____

>  <TORSDO>
F 5

$$$$
=
 OpenBabel10262421053D

 32 37  0  0  1  0  0  0  0  0999 V2000
  185.3460  178.7610  138.9910 C   0  0  1  0  0  3  0  0  0  0  0  0
  183.4170  177.4770  139.5280 C   0  0  1  0  0  0  0  0  0  0  0  0
  187.2060  177.4410  142.9600 C   0  0  0  0  0  0  0  0  0  0  0  0
  186.7460  178.5730  139.0900 O   0  0  0  0  0  0  0  0  0  0  0  0
  184.6970  177.4150  138.7600 C   0  0  1  0  0  3  0  0  0  0  0  0
  182.5620  176.2190  139.4690 C   0  0  2  0  0  3  0  0  0  0  0  0
  187.1820  176.6670  143.9560 O   0  0  0  0  0  0  0  0  0  0  0  0
  183.6050  178.3420  140.7680 C   0  0  1  0  0  3  0  0  0  0  0  0
  182.9740  175.2260  138.3380 C   0  0  1  0  0  3  0  0  0  0  0  0
  188.5210  177.7250  142.2700 C   0  0  1  0  0  3  0  0  0  0  0  0
  187.1460  178.5230  140.4050 C   0  0  0  0  0  0  0  0  0  0  0  0
  182.0630  177.5190  138.8290 C   0  0  0  0  0  2  0  0  0  0  0  0
  184.5490  176.9040  137.3700 C   0  0  0  0  0  3  0  0  0  0  0  0
  188.2760  177.9420  140.8040 C   0  0  0  0  0  3  0  0  0  0  0  0
  185.9980  178.0810  142.4960 N   0  0  0  0  0  0  0  0  0  0  0  0
  184.9020  178.2130  143.4450 C   0  0  0  0  0  1  0  0  0  0  0  0
  184.8710  179.1620  140.4220 C   0  0  1  0  0  3  0  0  0  0  0  0
  181.7160  174.5030  137.8850 C   0  0  0  0  0  1  0  0  0  0  0  0
  186.1060  179.0040  141.3500 C   0  0  2  0  0  3  0  0  0  0  0  0
  183.7670  175.8380  137.1620 C   0  0  0  0  0  0  0  0  0  0  0  0
  180.7950  180.7650  140.0840 O   0  0  0  0  0  0  0  0  0  0  0  0
  180.4210  179.5510  142.1280 C   0  0  0  0  0  2  0  0  0  0  0  0
  181.4190  178.6080  141.8160 O   0  0  0  0  0  0  0  0  0  0  0  0
  182.4120  179.2730  141.0620 C   0  0  2  0  0  3  0  0  0  0  0  0
  179.8070  180.0970  140.8330 C   0  0  0  0  0  2  0  0  0  0  0  0
  181.7940  179.8240  139.7690 C   0  0  0  0  0  2  0  0  0  0  0  0
  183.7870  175.2590  135.8510 N   0  0  0  0  0  2  0  0  0  0  0  0
  184.9030  174.5170  135.2900 C   0  0  0  0  0  2  0  0  0  0  0  0
  185.2020  173.3170  136.1650 C   0  0  0  0  0  1  0  0  0  0  0  0
  189.1820  178.9590  142.8680 C   0  0  0  0  0  2  0  0  0  0  0  0
  190.1790  178.2180  145.0070 C   0  0  0  0  0  1  0  0  0  0  0  0
  190.4740  178.5850  143.5690 C   0  0  0  0  0  2  0  0  0  0  0  0
  1  4  1  1  0  0  0
  1 17  1  0  0  0  0
  2 12  1  6  0  0  0
  2  8  1  0  0  0  0
  3  7  2  0  0  0  0
  4 11  1  0  0  0  0
  5 13  1  6  0  0  0
  5  1  1  0  0  0  0
  5  2  1  0  0  0  0
  6 12  1  6  0  0  0
  6  2  1  0  0  0  0
  8 24  1  6  0  0  0
  9 18  1  6  0  0  0
  9  6  1  0  0  0  0
 10 30  1  1  0  0  0
 10  3  1  0  0  0  0
 11 14  2  0  0  0  0
 11 19  1  0  0  0  0
 14 10  1  0  0  0  0
 15  3  1  0  0  0  0
 15 16  1  0  0  0  0
 17  8  1  0  0  0  0
 17 19  1  0  0  0  0
 19 15  1  0  0  0  0
 20 13  2  0  0  0  0
 20  9  1  0  0  0  0
 21 25  1  0  0  0  0
 23 22  1  0  0  0  0
 24 23  1  0  0  0  0
 25 22  1  0  0  0  0
 26 21  1  0  0  0  0
 26 24  1  0  0  0  0
 27 20  1  0  0  0  0
 28 27  1  0  0  0  0
 28 29  1  0  0  0  0
 30 32  1  0  0  0  0
 32 31  1  0  0  0  0
M  END
>  <MODEL>
6

>  <REMARK>
 VINA RESULT:      -4.8      3.379      6.069
  Name = 
  5 active torsions:
  status: ('A' for Active; 'I' for Inactive)
    1  A    between atoms: C_10  and  C_28
    2  A    between atoms: N_14  and  C_21
    3  A    between atoms: N_14  and  C_29
    4  A    between atoms: C_15  and  C_19
    5  A    between atoms: C_19  and  C_26
                            x       y       z     vdW  Elec       q    Type
                         _______ _______ _______ _____ _____    ______ ____

>  <TORSDO>
F 5

$$$$
=
 OpenBabel10262421053D

 32 37  0  0  1  0  0  0  0  0999 V2000
  189.7930  174.5860  137.3160 C   0  0  1  0  0  3  0  0  0  0  0  0
  191.7570  175.8720  137.7010 C   0  0  1  0  0  0  0  0  0  0  0  0
  187.4950  178.4850  136.6260 C   0  0  0  0  0  0  0  0  0  0  0  0
  188.7240  174.6250  136.3880 O   0  0  0  0  0  0  0  0  0  0  0  0
  191.0380  175.1100  136.6360 C   0  0  1  0  0  3  0  0  0  0  0  0
  193.0620  176.5220  137.2660 C   0  0  2  0  0  3  0  0  0  0  0  0
  187.5240  179.7290  136.4190 O   0  0  0  0  0  0  0  0  0  0  0  0
  190.7460  176.5040  138.6500 C   0  0  1  0  0  3  0  0  0  0  0  0
  193.6140  175.9880  135.9080 C   0  0  1  0  0  3  0  0  0  0  0  0
  186.5560  177.6180  135.8200 C   0  0  1  0  0  3  0  0  0  0  0  0
  187.9520  175.7480  136.5700 C   0  0  0  0  0  0  0  0  0  0  0  0
  193.0750  175.3810  138.2880 C   0  0  0  0  0  2  0  0  0  0  0  0
  191.9020  174.1710  135.8700 C   0  0  0  0  0  3  0  0  0  0  0  0
  187.1790  176.2660  135.6170 C   0  0  0  0  0  3  0  0  0  0  0  0
  188.3280  177.8900  137.6460 N   0  0  0  0  0  0  0  0  0  0  0  0
  188.8010  178.7570  138.7160 C   0  0  0  0  0  1  0  0  0  0  0  0
  189.4660  175.6770  138.3830 C   0  0  1  0  0  3  0  0  0  0  0  0
  195.1310  176.0750  135.9650 C   0  0  0  0  0  1  0  0  0  0  0  0
  188.2160  176.4350  137.8610 C   0  0  2  0  0  3  0  0  0  0  0  0
  193.1120  174.5900  135.4820 C   0  0  0  0  0  0  0  0  0  0  0  0
  192.4190  177.4800  141.8880 O   0  0  0  0  0  0  0  0  0  0  0  0
  190.4830  176.1080  142.2860 C   0  0  0  0  0  2  0  0  0  0  0  0
  190.0210  176.2790  140.9670 O   0  0  0  0  0  0  0  0  0  0  0  0
  191.1530  176.4220  140.1350 C   0  0  2  0  0  3  0  0  0  0  0  0
  191.2870  177.3410  142.7150 C   0  0  0  0  0  2  0  0  0  0  0  0
  191.9600  177.6540  140.5680 C   0  0  0  0  0  2  0  0  0  0  0  0
  193.8450  173.7360  134.5940 N   0  0  0  0  0  2  0  0  0  0  0  0
  194.2860  172.3900  134.9150 C   0  0  0  0  0  2  0  0  0  0  0  0
  194.8990  172.3770  136.3000 C   0  0  0  0  0  1  0  0  0  0  0  0
  185.2220  177.4650  136.5380 C   0  0  0  0  0  2  0  0  0  0  0  0
  183.3530  175.8590  136.7620 C   0  0  0  0  0  1  0  0  0  0  0  0
  184.3220  176.5000  135.7910 C   0  0  0  0  0  2  0  0  0  0  0  0
  1  4  1  6  0  0  0
  1 17  1  0  0  0  0
  2 12  1  1  0  0  0
  2  8  1  0  0  0  0
  3 15  1  0  0  0  0
  4 11  1  0  0  0  0
  5 13  1  1  0  0  0
  5  1  1  0  0  0  0
  5  2  1  0  0  0  0
  6  2  1  0  0  0  0
  6 12  1  1  0  0  0
  7  3  2  0  0  0  0
  8 24  1  1  0  0  0
  9 18  1  1  0  0  0
  9  6  1  0  0  0  0
 10 30  1  1  0  0  0
 10  3  1  0  0  0  0
 11 19  1  0  0  0  0
 14 10  1  0  0  0  0
 14 11  2  0  0  0  0
 15 19  1  0  0  0  0
 15 16  1  0  0  0  0
 17  8  1  0  0  0  0
 19 17  1  0  0  0  0
 20 13  2  0  0  0  0
 20  9  1  0  0  0  0
 21 25  1  0  0  0  0
 22 25  1  0  0  0  0
 23 22  1  0  0  0  0
 24 26  1  0  0  0  0
 24 23  1  0  0  0  0
 26 21  1  0  0  0  0
 27 28  1  0  0  0  0
 27 20  1  0  0  0  0
 28 29  1  0  0  0  0
 32 30  1  0  0  0  0
 32 31  1  0  0  0  0
M  END
>  <MODEL>
7

>  <REMARK>
 VINA RESULT:      -4.8      4.986     10.707
  Name = 
  5 active torsions:
  status: ('A' for Active; 'I' for Inactive)
    1  A    between atoms: C_10  and  C_28
    2  A    between atoms: N_14  and  C_21
    3  A    between atoms: N_14  and  C_29
    4  A    between atoms: C_15  and  C_19
    5  A    between atoms: C_19  and  C_26
                            x       y       z     vdW  Elec       q    Type
                         _______ _______ _______ _____ _____    ______ ____

>  <TORSDO>
F 5

$$$$
=
 OpenBabel10262421053D

 32 37  0  0  1  0  0  0  0  0999 V2000
  182.0170  176.7630  136.6150 C   0  0  1  0  0  3  0  0  0  0  0  0
  180.8370  176.9400  138.6730 C   0  0  1  0  0  0  0  0  0  0  0  0
  185.7710  178.2800  138.7520 C   0  0  0  0  0  0  0  0  0  0  0  0
  183.2950  176.2990  136.2190 O   0  0  0  0  0  0  0  0  0  0  0  0
  181.5670  175.9590  137.8150 C   0  0  1  0  0  3  0  0  0  0  0  0
  180.2810  176.3770  139.9730 C   0  0  2  0  0  3  0  0  0  0  0  0
  186.3640  178.5340  139.8360 O   0  0  0  0  0  0  0  0  0  0  0  0
  181.4660  178.3200  138.5230 C   0  0  1  0  0  3  0  0  0  0  0  0
  180.2400  174.8180  140.0230 C   0  0  1  0  0  3  0  0  0  0  0  0
  186.5120  177.5590  137.6500 C   0  0  1  0  0  3  0  0  0  0  0  0
  184.2900  177.1060  136.7190 C   0  0  0  0  0  0  0  0  0  0  0  0
  179.3290  176.8630  138.8760 C   0  0  0  0  0  2  0  0  0  0  0  0
  180.8410  174.6770  137.6040 C   0  0  0  0  0  3  0  0  0  0  0  0
  185.5480  176.6990  136.8830 C   0  0  0  0  0  3  0  0  0  0  0  0
  184.4040  178.6990  138.5460 N   0  0  0  0  0  0  0  0  0  0  0  0
  183.9100  179.8000  139.3610 C   0  0  0  0  0  1  0  0  0  0  0  0
  182.2470  178.1940  137.1930 C   0  0  1  0  0  3  0  0  0  0  0  0
  179.0580  174.4200  140.8920 C   0  0  0  0  0  1  0  0  0  0  0  0
  183.7850  178.4020  137.2400 C   0  0  2  0  0  3  0  0  0  0  0  0
  180.2420  174.1030  138.6540 C   0  0  0  0  0  0  0  0  0  0  0  0
  179.3440  181.2100  139.6980 O   0  0  0  0  0  0  0  0  0  0  0  0
  179.6880  181.2910  137.3180 C   0  0  0  0  0  2  0  0  0  0  0  0
  180.7240  180.3410  137.3780 O   0  0  0  0  0  0  0  0  0  0  0  0
  180.4370  179.4660  138.4490 C   0  0  2  0  0  3  0  0  0  0  0  0
  179.6360  182.0820  138.6310 C   0  0  0  0  0  2  0  0  0  0  0  0
  180.3800  180.2590  139.7630 C   0  0  0  0  0  2  0  0  0  0  0  0
  179.7110  172.7850  138.4630 N   0  0  0  0  0  2  0  0  0  0  0  0
  180.2620  171.7930  137.5540 C   0  0  0  0  0  2  0  0  0  0  0  0
  179.1740  171.3060  136.6200 C   0  0  0  0  0  1  0  0  0  0  0  0
  187.1710  178.5570  136.7080 C   0  0  0  0  0  2  0  0  0  0  0  0
  189.4450  177.5840  136.6460 C   0  0  0  0  0  1  0  0  0  0  0  0
  188.6220  178.7740  137.0920 C   0  0  0  0  0  2  0  0  0  0  0  0
  1  4  1  1  0  0  0
  1 17  1  0  0  0  0
  1  5  1  0  0  0  0
  2 12  1  6  0  0  0
  2  6  1  0  0  0  0
  3  7  2  0  0  0  0
  4 11  1  0  0  0  0
  5 13  1  6  0  0  0
  5  2  1  0  0  0  0
  6 12  1  6  0  0  0
  6  9  1  0  0  0  0
  8 24  1  6  0  0  0
  8  2  1  0  0  0  0
  9 18  1  6  0  0  0
 10 30  1  6  0  0  0
 10  3  1  0  0  0  0
 11 14  2  0  0  0  0
 11 19  1  0  0  0  0
 13 20  2  0  0  0  0
 14 10  1  0  0  0  0
 15  3  1  0  0  0  0
 15 16  1  0  0  0  0
 17 19  1  0  0  0  0
 17  8  1  0  0  0  0
 19 15  1  0  0  0  0
 20  9  1  0  0  0  0
 21 26  1  0  0  0  0
 22 23  1  0  0  0  0
 22 25  1  0  0  0  0
 23 24  1  0  0  0  0
 24 26  1  0  0  0  0
 25 21  1  0  0  0  0
 27 20  1  0  0  0  0
 28 27  1  0  0  0  0
 29 28  1  0  0  0  0
 30 32  1  0  0  0  0
 31 32  1  0  0  0  0
M  END
>  <MODEL>
8

>  <REMARK>
 VINA RESULT:      -4.8      2.273      5.831
  Name = 
  5 active torsions:
  status: ('A' for Active; 'I' for Inactive)
    1  A    between atoms: C_10  and  C_28
    2  A    between atoms: N_14  and  C_21
    3  A    between atoms: N_14  and  C_29
    4  A    between atoms: C_15  and  C_19
    5  A    between atoms: C_19  and  C_26
                            x       y       z     vdW  Elec       q    Type
                         _______ _______ _______ _____ _____    ______ ____

>  <TORSDO>
F 5

$$$$
=
 OpenBabel10262421053D

 32 37  0  0  1  0  0  0  0  0999 V2000
  188.5420  178.2400  138.0200 C   0  0  1  0  0  3  0  0  0  0  0  0
  186.6350  176.8660  137.6520 C   0  0  1  0  0  0  0  0  0  0  0  0
  188.4450  177.0200  142.4310 C   0  0  0  0  0  0  0  0  0  0  0  0
  189.7500  178.1200  138.7490 O   0  0  0  0  0  0  0  0  0  0  0  0
  188.1250  176.8640  137.5520 C   0  0  1  0  0  3  0  0  0  0  0  0
  185.9540  175.5680  137.2410 C   0  0  2  0  0  3  0  0  0  0  0  0
  188.0030  176.2480  143.3250 O   0  0  0  0  0  0  0  0  0  0  0  0
  186.2020  177.7410  138.8210 C   0  0  1  0  0  3  0  0  0  0  0  0
  186.8760  174.5940  136.4450 C   0  0  1  0  0  3  0  0  0  0  0  0
  189.9170  177.3650  142.4070 C   0  0  1  0  0  3  0  0  0  0  0  0
  189.5090  178.0920  140.1020 C   0  0  0  0  0  0  0  0  0  0  0  0
  185.7470  176.8410  136.4140 C   0  0  0  0  0  2  0  0  0  0  0  0
  188.6480  176.3430  136.2580 C   0  0  0  0  0  3  0  0  0  0  0  0
  190.3570  177.5670  140.9850 C   0  0  0  0  0  3  0  0  0  0  0  0
  187.5550  177.6010  141.4530 N   0  0  0  0  0  0  0  0  0  0  0  0
  186.1420  177.6820  141.7970 C   0  0  0  0  0  1  0  0  0  0  0  0
  187.4510  178.6210  139.0690 C   0  0  1  0  0  3  0  0  0  0  0  0
  185.9940  173.8100  135.4870 C   0  0  0  0  0  1  0  0  0  0  0  0
  188.1340  178.5250  140.4600 C   0  0  2  0  0  3  0  0  0  0  0  0
  188.0910  175.2410  135.7430 C   0  0  0  0  0  0  0  0  0  0  0  0
  182.5730  178.6140  138.2620 O   0  0  0  0  0  0  0  0  0  0  0  0
  183.8390  180.5430  138.9470 C   0  0  0  0  0  2  0  0  0  0  0  0
  184.9300  179.7520  139.3550 O   0  0  0  0  0  0  0  0  0  0  0  0
  184.9680  178.6150  138.5190 C   0  0  2  0  0  3  0  0  0  0  0  0
  182.5380  179.7450  139.1000 C   0  0  0  0  0  2  0  0  0  0  0  0
  183.6630  177.8200  138.6690 C   0  0  0  0  0  2  0  0  0  0  0  0
  188.7300  174.6600  134.5990 N   0  0  0  0  0  2  0  0  0  0  0  0
  190.0400  174.0310  134.6110 C   0  0  0  0  0  2  0  0  0  0  0  0
  189.9580  172.7080  135.3430 C   0  0  0  0  0  1  0  0  0  0  0  0
  190.1810  178.6310  143.2110 C   0  0  0  0  0  2  0  0  0  0  0  0
  191.3040  177.1750  144.8660 C   0  0  0  0  0  1  0  0  0  0  0  0
  191.4130  178.4630  144.0800 C   0  0  0  0  0  2  0  0  0  0  0  0
  1  4  1  1  0  0  0
  1 17  1  0  0  0  0
  2 12  1  6  0  0  0
  2  8  1  0  0  0  0
  3  7  2  0  0  0  0
  4 11  1  0  0  0  0
  5 13  1  6  0  0  0
  5  2  1  0  0  0  0
  5  1  1  0  0  0  0
  6 12  1  6  0  0  0
  6  2  1  0  0  0  0
  8 24  1  6  0  0  0
  8 17  1  0  0  0  0
  9 18  1  6  0  0  0
  9  6  1  0  0  0  0
 10  3  1  0  0  0  0
 10 30  1  1  0  0  0
 11 19  1  0  0  0  0
 11 14  2  0  0  0  0
 14 10  1  0  0  0  0
 15 16  1  0  0  0  0
 15  3  1  0  0  0  0
 17 19  1  0  0  0  0
 19 15  1  0  0  0  0
 20 13  2  0  0  0  0
 20  9  1  0  0  0  0
 21 26  1  0  0  0  0
 21 25  1  0  0  0  0
 22 25  1  0  0  0  0
 22 23  1  0  0  0  0
 24 26  1  0  0  0  0
 24 23  1  0  0  0  0
 27 28  1  0  0  0  0
 27 20  1  0  0  0  0
 28 29  1  0  0  0  0
 30 32  1  0  0  0  0
 32 31  1  0  0  0  0
M  END
>  <MODEL>
9

>  <REMARK>
 VINA RESULT:      -4.7      3.631      7.572
  Name = 
  5 active torsions:
  status: ('A' for Active; 'I' for Inactive)
    1  A    between atoms: C_10  and  C_28
    2  A    between atoms: N_14  and  C_21
    3  A    between atoms: N_14  and  C_29
    4  A    between atoms: C_15  and  C_19
    5  A    between atoms: C_19  and  C_26
                            x       y       z     vdW  Elec       q    Type
                         _______ _______ _______ _____ _____    ______ ____

>  <TORSDO>
F 5

$$$$
