=
 OpenBabel10262420443D

 28 31  0  0  1  0  0  0  0  0999 V2000
  189.0160  177.2130  140.6330 C   0  0  2  0  0  3  0  0  0  0  0  0
  187.6850  178.2950  142.1970 C   0  0  2  0  0  3  0  0  0  0  0  0
  187.5180  179.0170  140.8500 C   0  0  2  0  0  3  0  0  0  0  0  0
  186.3370  178.6440  140.2000 O   0  0  0  0  0  1  0  0  0  0  0  0
  188.6910  178.5540  140.0280 C   0  0  0  0  0  2  0  0  0  0  0  0
  188.7380  177.2850  142.0770 N   0  0  0  0  0  0  0  0  0  0  0  0
  185.6740  178.6180  143.4500 O   0  0  0  0  0  1  0  0  0  0  0  0
  186.4060  177.6660  142.7410 C   0  0  0  0  0  2  0  0  0  0  0  0
  190.4150  176.7260  140.2490 C   0  0  0  0  0  2  0  0  0  0  0  0
  190.6720  176.9710  138.8280 N   0  0  0  0  0  0  0  0  0  0  0  0
  192.0880  175.1730  138.1590 C   0  0  2  0  0  3  0  0  0  0  0  0
  189.8950  175.9660  138.1110 C   0  0  0  0  0  2  0  0  0  0  0  0
  193.1150  177.0760  139.4570 C   0  0  0  0  0  1  0  0  0  0  0  0
  192.0500  176.6490  138.4500 C   0  0  2  0  0  3  0  0  0  0  0  0
  192.9660  174.9040  136.9530 C   0  0  0  0  0  1  0  0  0  0  0  0
  190.7200  174.7820  137.8690 N   0  0  0  0  0  2  0  0  0  0  0  0
  189.9000  177.8000  142.8140 C   0  0  0  0  0  2  0  0  0  0  0  0
  189.1810  178.0580  145.9920 C   0  0  1  0  0  3  0  0  0  0  0  0
  191.0770  176.7280  146.3140 C   0  0  0  0  0  0  0  0  0  0  0  0
  190.3310  176.8600  143.9470 C   0  0  2  0  0  3  0  0  0  0  0  0
  189.5960  177.9330  147.4720 C   0  0  2  0  0  3  0  0  0  0  0  0
  190.4630  177.5980  145.2870 C   0  0  1  0  0  3  0  0  0  0  0  0
  192.0190  175.1460  144.6980 C   0  0  0  0  0  2  0  0  0  0  0  0
  190.6290  176.9110  147.5060 N   0  0  0  0  0  0  0  0  0  0  0  0
  192.0110  175.7440  145.9970 O   0  0  0  0  0  0  0  0  0  0  0  0
  188.2790  177.5580  148.6240 Cl  0  0  0  0  0  0  0  0  0  0  0  0
  187.9970  177.1490  145.6560 C   0  0  0  0  0  1  0  0  0  0  0  0
  191.6480  176.1540  143.6050 C   0  0  0  0  0  2  0  0  0  0  0  0
  1  9  1  1  0  0  0
  1  6  1  0  0  0  0
  2  8  1  6  0  0  0
  3  4  1  6  0  0  0
  3  2  1  0  0  0  0
  5  1  1  0  0  0  0
  5  3  1  0  0  0  0
  6  2  1  0  0  0  0
  6 17  1  0  0  0  0
  8  7  1  0  0  0  0
 10  9  1  0  0  0  0
 11 15  1  6  0  0  0
 11 14  1  0  0  0  0
 12 10  1  0  0  0  0
 14 10  1  0  0  0  0
 14 13  1  1  0  0  0
 16 12  1  0  0  0  0
 16 11  1  0  0  0  0
 18 27  1  1  0  0  0
 18 21  1  0  0  0  0
 19 24  2  0  0  0  0
 20 17  1  6  0  0  0
 20 22  1  0  0  0  0
 21 24  1  0  0  0  0
 21 26  1  1  0  0  0
 22 18  1  0  0  0  0
 22 19  1  1  0  0  0
 23 25  1  0  0  0  0
 25 19  1  0  0  0  0
 28 20  1  0  0  0  0
 28 23  1  0  0  0  0
M  END
>  <MODEL>
1

>  <REMARK>
 VINA RESULT:      -7.7      0.000      0.000
  Name = 
  5 active torsions:
  status: ('A' for Active; 'I' for Inactive)
    1  A    between atoms: C_1  and  C_2
    2  A    between atoms: C_2  and  N_3
    3  A    between atoms: C_10  and  C_17
    4  A    between atoms: C_16  and  C_20
    5  A    between atoms: C_17  and  N_27
                            x       y       z     vdW  Elec       q    Type
                         _______ _______ _______ _____ _____    ______ ____

>  <TORSDO>
F 5

$$$$
=
 OpenBabel10262420443D

 28 31  0  0  1  0  0  0  0  0999 V2000
  187.9530  177.7380  144.0830 C   0  0  2  0  0  3  0  0  0  0  0  0
  186.6380  178.1360  142.2120 C   0  0  2  0  0  3  0  0  0  0  0  0
  185.7170  177.6580  143.3470 C   0  0  2  0  0  3  0  0  0  0  0  0
  185.0490  178.7220  143.9610 O   0  0  0  0  0  1  0  0  0  0  0  0
  186.6500  177.0290  144.3470 C   0  0  0  0  0  2  0  0  0  0  0  0
  188.0330  178.0220  142.6410 N   0  0  0  0  0  0  0  0  0  0  0  0
  185.3690  179.5110  140.7230 O   0  0  0  0  0  1  0  0  0  0  0  0
  186.3490  179.5490  141.7140 C   0  0  0  0  0  2  0  0  0  0  0  0
  189.1490  176.9950  144.6830 C   0  0  0  0  0  2  0  0  0  0  0  0
  189.9530  177.8990  145.5080 N   0  0  0  0  0  0  0  0  0  0  0  0
  191.1970  176.4520  146.9380 C   0  0  2  0  0  3  0  0  0  0  0  0
  191.3190  177.7670  145.0160 C   0  0  0  0  0  2  0  0  0  0  0  0
  188.7720  176.8720  147.4900 C   0  0  0  0  0  1  0  0  0  0  0  0
  190.0590  177.4360  146.8930 C   0  0  2  0  0  3  0  0  0  0  0  0
  192.0040  176.6480  148.2060 C   0  0  0  0  0  1  0  0  0  0  0  0
  192.0240  176.7370  145.7790 N   0  0  0  0  0  2  0  0  0  0  0  0
  188.6060  176.8850  141.9090 C   0  0  0  0  0  2  0  0  0  0  0  0
  188.6290  176.9380  138.6410 C   0  0  1  0  0  3  0  0  0  0  0  0
  190.9540  176.8300  138.8650 C   0  0  0  0  0  0  0  0  0  0  0  0
  189.7600  177.3080  140.9920 C   0  0  2  0  0  3  0  0  0  0  0  0
  189.3630  176.7050  137.3040 C   0  0  2  0  0  3  0  0  0  0  0  0
  189.7260  176.5670  139.6470 C   0  0  1  0  0  3  0  0  0  0  0  0
  192.2550  177.6060  140.7910 C   0  0  0  0  0  2  0  0  0  0  0  0
  190.7750  176.8900  137.5930 N   0  0  0  0  0  0  0  0  0  0  0  0
  192.1880  177.0650  139.4690 O   0  0  0  0  0  0  0  0  0  0  0  0
  188.8410  177.7360  135.9380 Cl  0  0  0  0  0  0  0  0  0  0  0  0
  188.1900  178.3960  138.8000 C   0  0  0  0  0  1  0  0  0  0  0  0
  191.1150  177.0910  141.6760 C   0  0  0  0  0  2  0  0  0  0  0  0
  1  5  1  0  0  0  0
  1  9  1  6  0  0  0
  2  8  1  1  0  0  0
  2  6  1  0  0  0  0
  2  3  1  0  0  0  0
  3  4  1  1  0  0  0
  3  5  1  0  0  0  0
  6  1  1  0  0  0  0
  7  8  1  0  0  0  0
  9 10  1  0  0  0  0
 10 14  1  0  0  0  0
 11 15  1  1  0  0  0
 12 10  1  0  0  0  0
 12 16  1  0  0  0  0
 14 11  1  0  0  0  0
 14 13  1  6  0  0  0
 16 11  1  0  0  0  0
 17  6  1  0  0  0  0
 18 27  1  1  0  0  0
 18 22  1  0  0  0  0
 19 25  1  0  0  0  0
 20 28  1  0  0  0  0
 20 17  1  1  0  0  0
 21 26  1  6  0  0  0
 21 24  1  0  0  0  0
 21 18  1  0  0  0  0
 22 19  1  6  0  0  0
 22 20  1  0  0  0  0
 23 28  1  0  0  0  0
 24 19  2  0  0  0  0
 25 23  1  0  0  0  0
M  END
>  <MODEL>
2

>  <REMARK>
 VINA RESULT:      -7.3      3.125      6.760
  Name = 
  5 active torsions:
  status: ('A' for Active; 'I' for Inactive)
    1  A    between atoms: C_1  and  C_2
    2  A    between atoms: C_2  and  N_3
    3  A    between atoms: C_10  and  C_17
    4  A    between atoms: C_16  and  C_20
    5  A    between atoms: C_17  and  N_27
                            x       y       z     vdW  Elec       q    Type
                         _______ _______ _______ _____ _____    ______ ____

>  <TORSDO>
F 5

$$$$
=
 OpenBabel10262420443D

 28 31  0  0  1  0  0  0  0  0999 V2000
  187.6910  178.6100  140.9220 C   0  0  2  0  0  3  0  0  0  0  0  0
  189.4630  177.3460  141.7280 C   0  0  2  0  0  3  0  0  0  0  0  0
  189.2880  177.0230  140.2350 C   0  0  2  0  0  3  0  0  0  0  0  0
  190.2190  177.7000  139.4410 O   0  0  0  0  0  1  0  0  0  0  0  0
  187.9090  177.5240  139.9010 C   0  0  0  0  0  2  0  0  0  0  0  0
  188.3630  178.2080  142.1680 N   0  0  0  0  0  0  0  0  0  0  0  0
  191.7110  176.9820  142.4570 O   0  0  0  0  0  1  0  0  0  0  0  0
  190.8050  177.9760  142.0870 C   0  0  0  0  0  2  0  0  0  0  0  0
  186.2150  178.9930  141.0560 C   0  0  0  0  0  2  0  0  0  0  0  0
  185.4090  178.2930  140.0540 N   0  0  0  0  0  0  0  0  0  0  0  0
  183.3800  179.5400  139.9420 C   0  0  2  0  0  3  0  0  0  0  0  0
  185.4180  179.1510  138.8750 C   0  0  0  0  0  2  0  0  0  0  0  0
  183.7050  177.9710  141.8900 C   0  0  0  0  0  1  0  0  0  0  0  0
  183.9910  178.2490  140.4160 C   0  0  2  0  0  3  0  0  0  0  0  0
  182.0050  179.2810  139.3600 C   0  0  0  0  0  1  0  0  0  0  0  0
  184.2640  180.0500  138.9090 N   0  0  0  0  0  2  0  0  0  0  0  0
  187.4830  177.3740  142.9980 C   0  0  0  0  0  2  0  0  0  0  0  0
  189.2790  176.9670  145.6980 C   0  0  1  0  0  3  0  0  0  0  0  0
  187.3330  177.5920  146.8330 C   0  0  0  0  0  0  0  0  0  0  0  0
  187.2380  177.9880  144.3810 C   0  0  2  0  0  3  0  0  0  0  0  0
  189.3750  176.7770  147.2260 C   0  0  2  0  0  3  0  0  0  0  0  0
  187.7620  177.0880  145.5100 C   0  0  1  0  0  3  0  0  0  0  0  0
  185.5280  178.9870  145.9400 C   0  0  0  0  0  2  0  0  0  0  0  0
  188.1900  177.4140  147.7760 N   0  0  0  0  0  0  0  0  0  0  0  0
  186.1290  178.2690  147.0200 O   0  0  0  0  0  0  0  0  0  0  0  0
  190.8630  177.3990  147.9990 Cl  0  0  0  0  0  0  0  0  0  0  0  0
  190.0060  178.2330  145.2380 C   0  0  0  0  0  1  0  0  0  0  0  0
  185.7500  178.2860  144.5960 C   0  0  0  0  0  2  0  0  0  0  0  0
  1  9  1  1  0  0  0
  1  6  1  0  0  0  0
  2  8  1  6  0  0  0
  2  6  1  0  0  0  0
  3  4  1  6  0  0  0
  3  2  1  0  0  0  0
  5  3  1  0  0  0  0
  5  1  1  0  0  0  0
  6 17  1  0  0  0  0
  8  7  1  0  0  0  0
 10 14  1  0  0  0  0
 10  9  1  0  0  0  0
 11 15  1  6  0  0  0
 11 14  1  0  0  0  0
 12 16  1  0  0  0  0
 12 10  1  0  0  0  0
 14 13  1  1  0  0  0
 16 11  1  0  0  0  0
 18 27  1  1  0  0  0
 18 21  1  0  0  0  0
 19 25  1  0  0  0  0
 19 24  2  0  0  0  0
 20 17  1  6  0  0  0
 20 28  1  0  0  0  0
 20 22  1  0  0  0  0
 21 24  1  0  0  0  0
 21 26  1  1  0  0  0
 22 18  1  0  0  0  0
 22 19  1  1  0  0  0
 23 25  1  0  0  0  0
 28 23  1  0  0  0  0
M  END
>  <MODEL>
3

>  <REMARK>
 VINA RESULT:      -7.2      2.822      5.549
  Name = 
  5 active torsions:
  status: ('A' for Active; 'I' for Inactive)
    1  A    between atoms: C_1  and  C_2
    2  A    between atoms: C_2  and  N_3
    3  A    between atoms: C_10  and  C_17
    4  A    between atoms: C_16  and  C_20
    5  A    between atoms: C_17  and  N_27
                            x       y       z     vdW  Elec       q    Type
                         _______ _______ _______ _____ _____    ______ ____

>  <TORSDO>
F 5

$$$$
=
 OpenBabel10262420443D

 28 31  0  0  1  0  0  0  0  0999 V2000
  189.7760  177.8730  140.2250 C   0  0  2  0  0  3  0  0  0  0  0  0
  190.6240  177.5200  142.3570 C   0  0  2  0  0  3  0  0  0  0  0  0
  191.5090  176.7530  141.3590 C   0  0  2  0  0  3  0  0  0  0  0  0
  192.6930  177.4420  141.0750 O   0  0  0  0  0  1  0  0  0  0  0  0
  190.6800  176.6740  140.1060 C   0  0  0  0  0  2  0  0  0  0  0  0
  189.4660  178.0710  141.6500 N   0  0  0  0  0  0  0  0  0  0  0  0
  191.9850  178.0730  144.2440 O   0  0  0  0  0  1  0  0  0  0  0  0
  191.3470  178.6180  143.1310 C   0  0  0  0  0  2  0  0  0  0  0  0
  188.5700  177.7860  139.2880 C   0  0  0  0  0  2  0  0  0  0  0  0
  189.0040  177.7890  137.8890 N   0  0  0  0  0  0  0  0  0  0  0  0
  186.9910  178.0550  136.6400 C   0  0  2  0  0  3  0  0  0  0  0  0
  188.8760  179.1710  137.4420 C   0  0  0  0  0  2  0  0  0  0  0  0
  187.5060  175.7780  137.5930 C   0  0  0  0  0  1  0  0  0  0  0  0
  188.0680  177.0750  137.0180 C   0  0  2  0  0  3  0  0  0  0  0  0
  186.6130  177.8760  135.1830 C   0  0  0  0  0  1  0  0  0  0  0  0
  187.5570  179.3770  136.8420 N   0  0  0  0  0  2  0  0  0  0  0  0
  188.3050  177.2670  142.0560 C   0  0  0  0  0  2  0  0  0  0  0  0
  187.8230  177.1280  145.2850 C   0  0  1  0  0  3  0  0  0  0  0  0
  185.7150  178.0130  144.7970 C   0  0  0  0  0  0  0  0  0  0  0  0
  187.3000  178.0770  142.8840 C   0  0  2  0  0  3  0  0  0  0  0  0
  186.8690  177.1410  146.4980 C   0  0  2  0  0  3  0  0  0  0  0  0
  186.8320  177.3100  144.1290 C   0  0  1  0  0  3  0  0  0  0  0  0
  185.1410  179.3760  142.8440 C   0  0  0  0  0  2  0  0  0  0  0  0
  185.7120  177.9150  146.0790 N   0  0  0  0  0  0  0  0  0  0  0  0
  184.7860  178.7770  144.0920 O   0  0  0  0  0  0  0  0  0  0  0  0
  187.5550  177.7750  148.0230 Cl  0  0  0  0  0  0  0  0  0  0  0  0
  188.8340  178.2750  145.3460 C   0  0  0  0  0  1  0  0  0  0  0  0
  186.0910  178.4870  142.0350 C   0  0  0  0  0  2  0  0  0  0  0  0
  1  9  1  6  0  0  0
  1  6  1  0  0  0  0
  2  8  1  6  0  0  0
  3  4  1  6  0  0  0
  3  2  1  0  0  0  0
  5  1  1  0  0  0  0
  5  3  1  0  0  0  0
  6 17  1  0  0  0  0
  6  2  1  0  0  0  0
  8  7  1  0  0  0  0
 10  9  1  0  0  0  0
 11 15  1  6  0  0  0
 11 16  1  0  0  0  0
 11 14  1  0  0  0  0
 12 10  1  0  0  0  0
 14 13  1  1  0  0  0
 14 10  1  0  0  0  0
 16 12  1  0  0  0  0
 18 27  1  1  0  0  0
 18 21  1  0  0  0  0
 19 24  2  0  0  0  0
 20 17  1  6  0  0  0
 20 22  1  0  0  0  0
 21 26  1  1  0  0  0
 22 19  1  1  0  0  0
 22 18  1  0  0  0  0
 23 25  1  0  0  0  0
 24 21  1  0  0  0  0
 25 19  1  0  0  0  0
 28 23  1  0  0  0  0
 28 20  1  0  0  0  0
M  END
>  <MODEL>
4

>  <REMARK>
 VINA RESULT:      -7.2      2.476      4.721
  Name = 
  5 active torsions:
  status: ('A' for Active; 'I' for Inactive)
    1  A    between atoms: C_1  and  C_2
    2  A    between atoms: C_2  and  N_3
    3  A    between atoms: C_10  and  C_17
    4  A    between atoms: C_16  and  C_20
    5  A    between atoms: C_17  and  N_27
                            x       y       z     vdW  Elec       q    Type
                         _______ _______ _______ _____ _____    ______ ____

>  <TORSDO>
F 5

$$$$
=
 OpenBabel10262420443D

 28 31  0  0  1  0  0  0  0  0999 V2000
  191.7720  176.8660  140.3990 C   0  0  2  0  0  3  0  0  0  0  0  0
  191.6300  176.4550  138.1190 C   0  0  2  0  0  3  0  0  0  0  0  0
  193.1020  176.7390  138.4600 C   0  0  2  0  0  3  0  0  0  0  0  0
  193.8520  175.5630  138.5580 O   0  0  0  0  0  1  0  0  0  0  0  0
  193.0530  177.3980  139.8120 C   0  0  0  0  0  2  0  0  0  0  0  0
  190.8030  176.6980  139.3030 N   0  0  0  0  0  0  0  0  0  0  0  0
  191.1870  175.1210  136.1840 O   0  0  0  0  0  1  0  0  0  0  0  0
  191.3660  175.0580  137.5660 C   0  0  0  0  0  2  0  0  0  0  0  0
  191.2900  177.6960  141.5910 C   0  0  0  0  0  2  0  0  0  0  0  0
  191.3830  176.9210  142.8290 N   0  0  0  0  0  0  0  0  0  0  0  0
  189.4470  177.5450  144.0730 C   0  0  2  0  0  3  0  0  0  0  0  0
  190.3660  175.8820  142.7190 C   0  0  0  0  0  2  0  0  0  0  0  0
  191.3970  179.1440  144.0260 C   0  0  0  0  0  1  0  0  0  0  0  0
  190.9430  177.6860  143.9970 C   0  0  2  0  0  3  0  0  0  0  0  0
  189.0130  177.3820  145.5150 C   0  0  0  0  0  1  0  0  0  0  0  0
  189.1160  176.3480  143.3200 N   0  0  0  0  0  2  0  0  0  0  0  0
  190.0670  177.9440  139.0520 C   0  0  0  0  0  2  0  0  0  0  0  0
  187.5930  177.2650  137.0270 C   0  0  1  0  0  3  0  0  0  0  0  0
  186.2590  178.2890  138.6510 C   0  0  0  0  0  0  0  0  0  0  0  0
  188.5800  177.8190  139.4060 C   0  0  2  0  0  3  0  0  0  0  0  0
  186.1380  177.4930  136.5690 C   0  0  2  0  0  3  0  0  0  0  0  0
  187.6740  178.2130  138.2300 C   0  0  1  0  0  3  0  0  0  0  0  0
  186.7710  178.4570  141.0410 C   0  0  0  0  0  2  0  0  0  0  0  0
  185.4140  177.9180  137.7550 N   0  0  0  0  0  0  0  0  0  0  0  0
  185.8830  178.6620  139.9400 O   0  0  0  0  0  0  0  0  0  0  0  0
  185.3380  176.0950  135.7890 Cl  0  0  0  0  0  0  0  0  0  0  0  0
  187.8370  175.8110  137.4390 C   0  0  0  0  0  1  0  0  0  0  0  0
  188.2350  178.6630  140.6390 C   0  0  0  0  0  2  0  0  0  0  0  0
  1  9  1  1  0  0  0
  2  8  1  1  0  0  0
  2  3  1  0  0  0  0
  2  6  1  0  0  0  0
  3  4  1  1  0  0  0
  3  5  1  0  0  0  0
  5  1  1  0  0  0  0
  6  1  1  0  0  0  0
  7  8  1  0  0  0  0
  9 10  1  0  0  0  0
 10 14  1  0  0  0  0
 11 15  1  1  0  0  0
 12 10  1  0  0  0  0
 12 16  1  0  0  0  0
 14 13  1  6  0  0  0
 14 11  1  0  0  0  0
 16 11  1  0  0  0  0
 17  6  1  0  0  0  0
 18 27  1  1  0  0  0
 18 22  1  0  0  0  0
 19 25  1  0  0  0  0
 20 17  1  6  0  0  0
 20 28  1  0  0  0  0
 21 26  1  1  0  0  0
 21 18  1  0  0  0  0
 21 24  1  0  0  0  0
 22 19  1  1  0  0  0
 22 20  1  0  0  0  0
 24 19  2  0  0  0  0
 25 23  1  0  0  0  0
 28 23  1  0  0  0  0
M  END
>  <MODEL>
5

>  <REMARK>
 VINA RESULT:      -7.0      3.749      7.430
  Name = 
  5 active torsions:
  status: ('A' for Active; 'I' for Inactive)
    1  A    between atoms: C_1  and  C_2
    2  A    between atoms: C_2  and  N_3
    3  A    between atoms: C_10  and  C_17
    4  A    between atoms: C_16  and  C_20
    5  A    between atoms: C_17  and  N_27
                            x       y       z     vdW  Elec       q    Type
                         _______ _______ _______ _____ _____    ______ ____

>  <TORSDO>
F 5

$$$$
=
 OpenBabel10262420443D

 28 31  0  0  1  0  0  0  0  0999 V2000
  184.3750  178.1080  142.8450 C   0  0  2  0  0  3  0  0  0  0  0  0
  185.9100  178.6450  144.5020 C   0  0  2  0  0  3  0  0  0  0  0  0
  184.5840  179.3490  144.8360 C   0  0  2  0  0  3  0  0  0  0  0  0
  183.8630  178.6640  145.8190 O   0  0  0  0  0  1  0  0  0  0  0  0
  183.8050  179.3120  143.5490 C   0  0  0  0  0  2  0  0  0  0  0  0
  185.8050  178.0170  143.1830 N   0  0  0  0  0  0  0  0  0  0  0  0
  187.1690  178.2490  146.4960 O   0  0  0  0  0  1  0  0  0  0  0  0
  186.3660  177.6260  145.5410 C   0  0  0  0  0  2  0  0  0  0  0  0
  184.0430  178.0970  141.3510 C   0  0  0  0  0  2  0  0  0  0  0  0
  182.8910  178.9580  141.0750 N   0  0  0  0  0  0  0  0  0  0  0  0
  182.1400  178.2760  138.9170 C   0  0  2  0  0  3  0  0  0  0  0  0
  181.7200  178.0990  141.2050 C   0  0  0  0  0  2  0  0  0  0  0  0
  184.1800  179.7530  139.0540 C   0  0  0  0  0  1  0  0  0  0  0  0
  182.8360  179.3760  139.6720 C   0  0  2  0  0  3  0  0  0  0  0  0
  181.2050  178.8680  137.8820 C   0  0  0  0  0  1  0  0  0  0  0  0
  181.3760  177.5300  139.9010 N   0  0  0  0  0  2  0  0  0  0  0  0
  186.6180  178.8260  142.2660 C   0  0  0  0  0  2  0  0  0  0  0  0
  189.4820  177.6360  143.2960 C   0  0  1  0  0  3  0  0  0  0  0  0
  190.0190  177.5360  141.0220 C   0  0  0  0  0  0  0  0  0  0  0  0
  187.6140  177.9750  141.4690 C   0  0  2  0  0  3  0  0  0  0  0  0
  190.9640  177.2990  143.0310 C   0  0  2  0  0  3  0  0  0  0  0  0
  189.0610  178.1990  141.9330 C   0  0  1  0  0  3  0  0  0  0  0  0
  188.4260  177.3290  139.1730 C   0  0  0  0  0  2  0  0  0  0  0  0
  191.0630  177.0590  141.6020 N   0  0  0  0  0  0  0  0  0  0  0  0
  189.7690  177.3800  139.6600 O   0  0  0  0  0  0  0  0  0  0  0  0
  191.6320  175.9270  143.9660 Cl  0  0  0  0  0  0  0  0  0  0  0  0
  188.6740  176.3890  143.6630 C   0  0  0  0  0  1  0  0  0  0  0  0
  187.4960  178.2530  139.9660 C   0  0  0  0  0  2  0  0  0  0  0  0
  1  9  1  6  0  0  0
  1  6  1  0  0  0  0
  1  5  1  0  0  0  0
  2  3  1  0  0  0  0
  2  8  1  1  0  0  0
  3  4  1  1  0  0  0
  5  3  1  0  0  0  0
  6  2  1  0  0  0  0
  8  7  1  0  0  0  0
 10 12  1  0  0  0  0
 10  9  1  0  0  0  0
 11 15  1  6  0  0  0
 11 14  1  0  0  0  0
 11 16  1  0  0  0  0
 14 13  1  6  0  0  0
 14 10  1  0  0  0  0
 16 12  1  0  0  0  0
 17  6  1  0  0  0  0
 18 27  1  6  0  0  0
 19 24  2  0  0  0  0
 20 22  1  0  0  0  0
 20 17  1  1  0  0  0
 21 18  1  0  0  0  0
 21 26  1  1  0  0  0
 22 19  1  6  0  0  0
 22 18  1  0  0  0  0
 23 25  1  0  0  0  0
 23 28  1  0  0  0  0
 24 21  1  0  0  0  0
 25 19  1  0  0  0  0
 28 20  1  0  0  0  0
M  END
>  <MODEL>
6

>  <REMARK>
 VINA RESULT:      -6.9      3.689      6.572
  Name = 
  5 active torsions:
  status: ('A' for Active; 'I' for Inactive)
    1  A    between atoms: C_1  and  C_2
    2  A    between atoms: C_2  and  N_3
    3  A    between atoms: C_10  and  C_17
    4  A    between atoms: C_16  and  C_20
    5  A    between atoms: C_17  and  N_27
                            x       y       z     vdW  Elec       q    Type
                         _______ _______ _______ _____ _____    ______ ____

>  <TORSDO>
F 5

$$$$
=
 OpenBabel10262420443D

 28 31  0  0  1  0  0  0  0  0999 V2000
  188.7900  176.7420  137.5230 C   0  0  2  0  0  3  0  0  0  0  0  0
  187.1850  178.4050  137.7350 C   0  0  2  0  0  3  0  0  0  0  0  0
  187.6600  178.3870  136.2720 C   0  0  2  0  0  3  0  0  0  0  0  0
  186.7600  177.7160  135.4390 O   0  0  0  0  0  1  0  0  0  0  0  0
  188.9540  177.6180  136.3080 C   0  0  0  0  0  2  0  0  0  0  0  0
  188.0130  177.4900  138.5240 N   0  0  0  0  0  0  0  0  0  0  0  0
  185.0410  179.1880  138.4480 O   0  0  0  0  0  1  0  0  0  0  0  0
  185.7070  178.0800  137.9240 C   0  0  0  0  0  2  0  0  0  0  0  0
  190.1240  176.1690  138.0090 C   0  0  0  0  0  2  0  0  0  0  0  0
  191.0690  176.0520  136.8960 N   0  0  0  0  0  0  0  0  0  0  0  0
  192.6610  174.4370  137.6330 C   0  0  2  0  0  3  0  0  0  0  0  0
  190.7890  174.7610  136.2790 C   0  0  0  0  0  2  0  0  0  0  0  0
  192.8400  176.7830  138.5420 C   0  0  0  0  0  1  0  0  0  0  0  0
  192.4510  175.9010  137.3570 C   0  0  2  0  0  3  0  0  0  0  0  0
  194.0380  174.0130  137.1640 C   0  0  0  0  0  1  0  0  0  0  0  0
  191.6430  173.7320  136.8720 N   0  0  0  0  0  2  0  0  0  0  0  0
  188.8880  178.3270  139.3550 C   0  0  0  0  0  2  0  0  0  0  0  0
  190.3920  176.5620  141.6580 C   0  0  1  0  0  3  0  0  0  0  0  0
  188.3680  176.7340  142.8150 C   0  0  0  0  0  0  0  0  0  0  0  0
  188.5300  178.2390  140.8440 C   0  0  2  0  0  3  0  0  0  0  0  0
  190.3280  175.6700  142.9150 C   0  0  2  0  0  3  0  0  0  0  0  0
  188.9060  176.8760  141.4450 C   0  0  1  0  0  3  0  0  0  0  0  0
  186.7130  178.5230  142.5660 C   0  0  0  0  0  2  0  0  0  0  0  0
  189.1200  176.0680  143.6180 N   0  0  0  0  0  0  0  0  0  0  0  0
  187.1770  177.3380  143.2160 O   0  0  0  0  0  0  0  0  0  0  0  0
  191.7550  175.7380  143.9920 Cl  0  0  0  0  0  0  0  0  0  0  0  0
  191.2070  177.8340  141.9040 C   0  0  0  0  0  1  0  0  0  0  0  0
  187.0400  178.5190  141.0700 C   0  0  0  0  0  2  0  0  0  0  0  0
  1  9  1  1  0  0  0
  1  6  1  0  0  0  0
  2  8  1  6  0  0  0
  2  6  1  0  0  0  0
  3  4  1  6  0  0  0
  3  5  1  0  0  0  0
  3  2  1  0  0  0  0
  5  1  1  0  0  0  0
  6 17  1  0  0  0  0
  8  7  1  0  0  0  0
 10 14  1  0  0  0  0
 10  9  1  0  0  0  0
 11 15  1  6  0  0  0
 12 16  1  0  0  0  0
 12 10  1  0  0  0  0
 14 11  1  0  0  0  0
 14 13  1  1  0  0  0
 16 11  1  0  0  0  0
 18 27  1  1  0  0  0
 18 21  1  0  0  0  0
 19 25  1  0  0  0  0
 19 24  2  0  0  0  0
 20 17  1  6  0  0  0
 20 28  1  0  0  0  0
 20 22  1  0  0  0  0
 21 24  1  0  0  0  0
 21 26  1  1  0  0  0
 22 18  1  0  0  0  0
 22 19  1  1  0  0  0
 23 25  1  0  0  0  0
 28 23  1  0  0  0  0
M  END
>  <MODEL>
7

>  <REMARK>
 VINA RESULT:      -6.6      2.675      4.151
  Name = 
  5 active torsions:
  status: ('A' for Active; 'I' for Inactive)
    1  A    between atoms: C_1  and  C_2
    2  A    between atoms: C_2  and  N_3
    3  A    between atoms: C_10  and  C_17
    4  A    between atoms: C_16  and  C_20
    5  A    between atoms: C_17  and  N_27
                            x       y       z     vdW  Elec       q    Type
                         _______ _______ _______ _____ _____    ______ ____

>  <TORSDO>
F 5

$$$$
=
 OpenBabel10262420443D

 28 31  0  0  1  0  0  0  0  0999 V2000
  187.5390  177.8160  143.2950 C   0  0  2  0  0  3  0  0  0  0  0  0
  185.8510  178.0950  144.8620 C   0  0  2  0  0  3  0  0  0  0  0  0
  186.8910  177.1280  145.4510 C   0  0  2  0  0  3  0  0  0  0  0  0
  187.7450  177.7670  146.3560 O   0  0  0  0  0  1  0  0  0  0  0  0
  187.6950  176.6720  144.2630 C   0  0  0  0  0  2  0  0  0  0  0  0
  186.1900  178.3790  143.4670 N   0  0  0  0  0  0  0  0  0  0  0  0
  184.9310  179.1610  146.7950 O   0  0  0  0  0  1  0  0  0  0  0  0
  185.6800  179.3950  145.6430 C   0  0  0  0  0  2  0  0  0  0  0  0
  187.9180  177.4210  141.8650 C   0  0  0  0  0  2  0  0  0  0  0  0
  189.0450  178.2260  141.3910 N   0  0  0  0  0  0  0  0  0  0  0  0
  190.1600  176.8250  139.8170 C   0  0  2  0  0  3  0  0  0  0  0  0
  188.6960  178.6280  140.0330 C   0  0  0  0  0  2  0  0  0  0  0  0
  190.5220  176.3780  142.2730 C   0  0  0  0  0  1  0  0  0  0  0  0
  190.2540  177.4240  141.1940 C   0  0  2  0  0  3  0  0  0  0  0  0
  191.5170  176.8540  139.1430 C   0  0  0  0  0  1  0  0  0  0  0  0
  189.2250  177.6550  139.0770 N   0  0  0  0  0  2  0  0  0  0  0  0
  185.2080  177.6630  142.6410 C   0  0  0  0  0  2  0  0  0  0  0  0
  182.0800  178.5340  143.0100 C   0  0  1  0  0  3  0  0  0  0  0  0
  182.1710  179.0410  140.7300 C   0  0  0  0  0  0  0  0  0  0  0  0
  184.3950  178.6130  141.7540 C   0  0  2  0  0  3  0  0  0  0  0  0
  180.7010  178.8600  142.4010 C   0  0  2  0  0  3  0  0  0  0  0  0
  182.9010  178.2530  141.7460 C   0  0  1  0  0  3  0  0  0  0  0  0
  184.1800  179.6510  139.4680 C   0  0  0  0  0  2  0  0  0  0  0  0
  180.9710  179.3620  141.0640 N   0  0  0  0  0  0  0  0  0  0  0  0
  182.7650  179.4600  139.5410 O   0  0  0  0  0  0  0  0  0  0  0  0
  179.6880  180.0060  143.3300 Cl  0  0  0  0  0  0  0  0  0  0  0  0
  182.6470  179.7170  143.7980 C   0  0  0  0  0  1  0  0  0  0  0  0
  184.9380  178.6280  140.3210 C   0  0  0  0  0  2  0  0  0  0  0  0
  1  9  1  6  0  0  0
  1  6  1  0  0  0  0
  1  5  1  0  0  0  0
  2  3  1  0  0  0  0
  2  8  1  1  0  0  0
  3  4  1  1  0  0  0
  5  3  1  0  0  0  0
  6  2  1  0  0  0  0
  8  7  1  0  0  0  0
 10  9  1  0  0  0  0
 11 15  1  6  0  0  0
 11 14  1  0  0  0  0
 12 10  1  0  0  0  0
 14 10  1  0  0  0  0
 14 13  1  1  0  0  0
 16 11  1  0  0  0  0
 16 12  1  0  0  0  0
 17  6  1  0  0  0  0
 18 27  1  6  0  0  0
 19 24  2  0  0  0  0
 20 17  1  1  0  0  0
 21 18  1  0  0  0  0
 21 26  1  1  0  0  0
 22 19  1  6  0  0  0
 22 20  1  0  0  0  0
 22 18  1  0  0  0  0
 23 25  1  0  0  0  0
 23 28  1  0  0  0  0
 24 21  1  0  0  0  0
 25 19  1  0  0  0  0
 28 20  1  0  0  0  0
M  END
>  <MODEL>
8

>  <REMARK>
 VINA RESULT:      -6.4      3.739      6.677
  Name = 
  5 active torsions:
  status: ('A' for Active; 'I' for Inactive)
    1  A    between atoms: C_1  and  C_2
    2  A    between atoms: C_2  and  N_3
    3  A    between atoms: C_10  and  C_17
    4  A    between atoms: C_16  and  C_20
    5  A    between atoms: C_17  and  N_27
                            x       y       z     vdW  Elec       q    Type
                         _______ _______ _______ _____ _____    ______ ____

>  <TORSDO>
F 5

$$$$
=
 OpenBabel10262420443D

 28 31  0  0  1  0  0  0  0  0999 V2000
  189.3840  177.2210  140.4250 C   0  0  2  0  0  3  0  0  0  0  0  0
  188.5000  177.2400  138.2800 C   0  0  2  0  0  3  0  0  0  0  0  0
  190.0140  177.4840  138.1720 C   0  0  2  0  0  3  0  0  0  0  0  0
  190.7050  176.3250  137.8050 O   0  0  0  0  0  1  0  0  0  0  0  0
  190.4310  177.8780  139.5630 C   0  0  0  0  0  2  0  0  0  0  0  0
  188.1090  177.2420  139.6910 N   0  0  0  0  0  0  0  0  0  0  0  0
  187.6780  176.2380  136.2700 O   0  0  0  0  0  1  0  0  0  0  0  0
  188.0130  175.9660  137.5960 C   0  0  0  0  0  2  0  0  0  0  0  0
  189.3470  177.8050  141.8400 C   0  0  0  0  0  2  0  0  0  0  0  0
  189.7700  176.8040  142.8210 N   0  0  0  0  0  0  0  0  0  0  0  0
  188.9960  177.6510  144.9100 C   0  0  2  0  0  3  0  0  0  0  0  0
  188.5530  176.1080  143.2190 C   0  0  0  0  0  2  0  0  0  0  0  0
  191.0780  178.6680  143.9130 C   0  0  0  0  0  1  0  0  0  0  0  0
  190.2230  177.4120  144.0730 C   0  0  2  0  0  3  0  0  0  0  0  0
  189.2850  177.3250  146.3620 C   0  0  0  0  0  1  0  0  0  0  0  0
  187.9760  176.7530  144.3980 N   0  0  0  0  0  2  0  0  0  0  0  0
  187.3850  178.4990  139.9240 C   0  0  0  0  0  2  0  0  0  0  0  0
  184.5060  178.6540  138.3870 C   0  0  1  0  0  3  0  0  0  0  0  0
  183.6210  179.0030  140.5220 C   0  0  0  0  0  0  0  0  0  0  0  0
  185.9940  178.2630  140.5250 C   0  0  2  0  0  3  0  0  0  0  0  0
  183.0150  179.0510  138.3740 C   0  0  2  0  0  3  0  0  0  0  0  0
  184.9110  179.0790  139.8030 C   0  0  1  0  0  3  0  0  0  0  0  0
  184.6140  178.2540  142.6330 C   0  0  0  0  0  2  0  0  0  0  0  0
  182.5840  179.0040  139.7610 N   0  0  0  0  0  0  0  0  0  0  0  0
  183.5460  178.8670  141.9070 O   0  0  0  0  0  0  0  0  0  0  0  0
  181.9520  178.0570  137.3330 Cl  0  0  0  0  0  0  0  0  0  0  0  0
  184.6950  177.1510  138.1740 C   0  0  0  0  0  1  0  0  0  0  0  0
  185.9800  178.5840  142.0240 C   0  0  0  0  0  2  0  0  0  0  0  0
  1  9  1  1  0  0  0
  2  8  1  1  0  0  0
  2  6  1  0  0  0  0
  3  4  1  1  0  0  0
  3  2  1  0  0  0  0
  3  5  1  0  0  0  0
  5  1  1  0  0  0  0
  6 17  1  0  0  0  0
  6  1  1  0  0  0  0
  7  8  1  0  0  0  0
  9 10  1  0  0  0  0
 10 12  1  0  0  0  0
 10 14  1  0  0  0  0
 11 15  1  1  0  0  0
 12 16  1  0  0  0  0
 14 13  1  6  0  0  0
 14 11  1  0  0  0  0
 16 11  1  0  0  0  0
 18 27  1  1  0  0  0
 18 22  1  0  0  0  0
 19 25  1  0  0  0  0
 20 17  1  6  0  0  0
 20 28  1  0  0  0  0
 21 26  1  6  0  0  0
 21 18  1  0  0  0  0
 21 24  1  0  0  0  0
 22 19  1  1  0  0  0
 22 20  1  0  0  0  0
 24 19  2  0  0  0  0
 25 23  1  0  0  0  0
 28 23  1  0  0  0  0
M  END
>  <MODEL>
9

>  <REMARK>
 VINA RESULT:      -6.3      3.795      7.282
  Name = 
  5 active torsions:
  status: ('A' for Active; 'I' for Inactive)
    1  A    between atoms: C_1  and  C_2
    2  A    between atoms: C_2  and  N_3
    3  A    between atoms: C_10  and  C_17
    4  A    between atoms: C_16  and  C_20
    5  A    between atoms: C_17  and  N_27
                            x       y       z     vdW  Elec       q    Type
                         _______ _______ _______ _____ _____    ______ ____

>  <TORSDO>
F 5

$$$$
