=
 OpenBabel10262422073D

 43 48  0  0  1  0  0  0  0  0999 V2000
  188.4260  177.5120  148.4340 N   0  0  0  0  0  0  0  0  0  0  0  0
  186.1660  178.3220  143.9460 C   0  0  0  0  0  0  0  0  0  0  0  0
  188.0900  177.8280  142.0340 C   0  0  0  0  0  0  0  0  0  0  0  0
  186.8120  177.9450  146.6480 C   0  0  0  0  0  0  0  0  0  0  0  0
  189.1170  176.6230  147.4920 C   0  0  0  0  0  2  0  0  0  0  0  0
  189.0820  178.6970  148.4550 O   0  0  0  0  0  1  0  0  0  0  0  0
  187.7680  177.6620  145.6620 C   0  0  0  0  0  0  0  0  0  0  0  0
  187.1310  177.7540  147.9990 O   0  0  0  0  0  0  0  0  0  0  0  0
  189.1380  177.2110  146.0780 C   0  0  0  0  0  2  0  0  0  0  0  0
  188.3770  177.6300  143.3450 N   0  0  0  0  0  0  0  0  0  0  0  0
  187.4520  177.8630  144.3090 C   0  0  0  0  0  0  0  0  0  0  0  0
  185.2150  178.5800  144.9420 C   0  0  0  0  0  3  0  0  0  0  0  0
  185.8880  178.5190  142.5860 C   0  0  0  0  0  0  0  0  0  0  0  0
  186.8610  178.2710  141.6620 N   0  0  0  0  0  0  0  0  0  0  0  0
  185.5370  178.3900  146.2880 C   0  0  0  0  0  3  0  0  0  0  0  0
  184.5960  178.9810  142.1700 N   0  0  0  0  0  2  0  0  0  0  0  0
  183.5820  178.6760  138.5390 C   0  0  0  0  0  2  0  0  0  0  0  0
  182.0700  178.7420  138.7800 C   0  0  1  0  0  3  0  0  0  0  0  0
  182.4070  178.6270  141.1740 C   0  0  0  0  0  2  0  0  0  0  0  0
  184.3600  179.1840  139.7490 C   0  0  0  0  0  2  0  0  0  0  0  0
  183.9100  178.4450  141.0030 C   0  0  1  0  0  3  0  0  0  0  0  0
  181.6930  178.0610  140.0260 N   0  0  0  0  0  2  0  0  0  0  0  0
  181.1460  181.2500  138.7060 C   0  0  0  0  0  3  0  0  0  0  0  0
  181.5640  180.1220  138.7390 C   0  0  0  0  0  0  0  0  0  0  0  0
  189.1760  177.6460  141.0180 C   0  0  0  0  0  2  0  0  0  0  0  0
  188.8570  178.2170  139.7680 O   0  0  0  0  0  0  0  0  0  0  0  0
  188.4870  177.1840  138.8910 C   0  0  0  0  0  2  0  0  0  0  0  0
  187.3940  177.6240  137.9220 C   0  0  1  0  0  3  0  0  0  0  0  0
  187.6680  178.9200  137.4620 O   0  0  0  0  0  1  0  0  0  0  0  0
  187.3880  176.6470  136.7580 C   0  0  0  0  0  2  0  0  0  0  0  0
  188.6330  175.8720  136.7110 N   0  0  0  0  0  0  0  0  0  0  0  0
  189.1310  174.8610  134.8560 C   0  0  0  0  0  2  0  0  0  0  0  0
  190.6670  176.4570  135.7250 O   0  0  0  0  0  1  0  0  0  0  0  0
  188.4490  174.5140  136.1630 C   0  0  1  0  0  0  0  0  0  0  0  0
  189.2680  173.5100  136.9580 C   0  0  0  0  0  1  0  0  0  0  0  0
  189.3140  176.2360  135.4680 C   0  0  2  0  0  3  0  0  0  0  0  0
  186.9930  174.0470  135.9700 C   0  0  0  0  0  2  0  0  0  0  0  0
  186.7080  172.8550  136.7550 N   0  0  0  0  0  0  0  0  0  0  0  0
  183.4000  173.4540  136.9530 C   0  0  0  0  0  1  0  0  0  0  0  0
  184.7070  171.7390  136.0790 C   0  0  0  0  0  3  0  0  0  0  0  0
  184.4040  172.4650  137.2970 N   0  0  0  0  0  0  0  0  0  0  0  0
  186.1870  171.8610  135.8370 C   0  0  0  0  0  3  0  0  0  0  0  0
  185.6160  173.2020  137.6570 C   0  0  0  0  0  2  0  0  0  0  0  0
  1  6  1  0  0  0  0
  2 11  2  0  0  0  0
  2 12  1  0  0  0  0
  3 10  2  0  0  0  0
  4  8  1  0  0  0  0
  5  1  1  0  0  0  0
  7  9  1  0  0  0  0
  7  4  2  0  0  0  0
  8  1  1  0  0  0  0
  9  5  1  0  0  0  0
 10 11  1  0  0  0  0
 11  7  1  0  0  0  0
 12 15  2  0  0  0  0
 13  2  1  0  0  0  0
 14  3  1  0  0  0  0
 14 13  2  0  0  0  0
 15  4  1  0  0  0  0
 16 13  1  0  0  0  0
 17 18  1  0  0  0  0
 17 20  1  0  0  0  0
 18 24  1  1  0  0  0
 18 22  1  0  0  0  0
 20 21  1  0  0  0  0
 21 19  1  0  0  0  0
 21 16  1  1  0  0  0
 22 19  1  0  0  0  0
 23 24  3  0  0  0  0
 25  3  1  0  0  0  0
 26 25  1  0  0  0  0
 27 26  1  0  0  0  0
 28 29  1  6  0  0  0
 28 27  1  0  0  0  0
 30 28  1  0  0  0  0
 31 30  1  0  0  0  0
 32 36  1  0  0  0  0
 32 34  1  0  0  0  0
 34 31  1  0  0  0  0
 34 35  1  1  0  0  0
 36 33  1  1  0  0  0
 36 31  1  0  0  0  0
 37 34  1  0  0  0  0
 37 38  1  0  0  0  0
 38 43  1  0  0  0  0
 39 41  1  0  0  0  0
 40 41  1  0  0  0  0
 41 43  1  0  0  0  0
 42 40  2  0  0  0  0
 42 38  1  0  0  0  0
M  END
>  <MODEL>
1

>  <REMARK>
 VINA RESULT:      -8.6      0.000      0.000
  Name = 
  11 active torsions:
  status: ('A' for Active; 'I' for Inactive)
    1  A    between atoms: N_1  and  C_34
    2  A    between atoms: N_1  and  C_35
    3  A    between atoms: C_2  and  O_7
    4  A    between atoms: C_2  and  C_13
    5  A    between atoms: C_3  and  N_4
    6  A    between atoms: C_3  and  C_12
    7  A    between atoms: C_6  and  O_7
    8  A    between atoms: C_6  and  C_12
    9  A    between atoms: N_11  and  C_14
   10  A    between atoms: C_14  and  C_22
   11  A    between atoms: C_19  and  C_37
                            x       y       z     vdW  Elec       q    Type
                         _______ _______ _______ _____ _____    ______ ____

>  <TORSDO>
F 11

$$$$
=
 OpenBabel10262422073D

 43 48  0  0  1  0  0  0  0  0999 V2000
  187.9300  177.4880  148.1220 N   0  0  0  0  0  0  0  0  0  0  0  0
  186.7240  178.4610  143.2730 C   0  0  0  0  0  0  0  0  0  0  0  0
  188.9570  177.8060  141.7950 C   0  0  0  0  0  0  0  0  0  0  0  0
  186.7620  178.0430  146.0450 C   0  0  0  0  0  0  0  0  0  0  0  0
  188.7290  176.5430  147.3320 C   0  0  0  0  0  2  0  0  0  0  0  0
  188.6590  178.6170  148.2930 O   0  0  0  0  0  1  0  0  0  0  0  0
  187.8770  177.6810  145.2750 C   0  0  0  0  0  0  0  0  0  0  0  0
  186.7770  177.8330  147.4300 O   0  0  0  0  0  0  0  0  0  0  0  0
  189.0900  177.1220  145.9610 C   0  0  0  0  0  2  0  0  0  0  0  0
  188.9500  177.5900  143.1350 N   0  0  0  0  0  0  0  0  0  0  0  0
  187.8660  177.9010  143.8890 C   0  0  0  0  0  0  0  0  0  0  0  0
  185.6100  178.7990  144.0530 C   0  0  0  0  0  3  0  0  0  0  0  0
  186.7510  178.6740  141.8880 C   0  0  0  0  0  0  0  0  0  0  0  0
  187.8720  178.3450  141.1820 N   0  0  0  0  0  0  0  0  0  0  0  0
  185.6290  178.5880  145.4340 C   0  0  0  0  0  3  0  0  0  0  0  0
  185.6150  179.2370  141.2180 N   0  0  0  0  0  2  0  0  0  0  0  0
  183.2750  178.5810  138.3210 C   0  0  0  0  0  2  0  0  0  0  0  0
  182.1950  177.8610  139.1360 C   0  0  1  0  0  3  0  0  0  0  0  0
  183.6210  177.8530  141.0920 C   0  0  0  0  0  2  0  0  0  0  0  0
  184.2160  179.3730  139.2230 C   0  0  0  0  0  2  0  0  0  0  0  0
  184.7770  178.4660  140.3120 C   0  0  1  0  0  3  0  0  0  0  0  0
  182.7830  177.0420  140.2030 N   0  0  0  0  0  2  0  0  0  0  0  0
  180.3600  179.5590  140.0840 C   0  0  0  0  0  3  0  0  0  0  0  0
  181.1840  178.7930  139.6570 C   0  0  0  0  0  0  0  0  0  0  0  0
  190.2140  177.5330  141.0250 C   0  0  0  0  0  2  0  0  0  0  0  0
  190.1350  176.3570  140.2500 O   0  0  0  0  0  0  0  0  0  0  0  0
  191.0160  176.4830  139.1630 C   0  0  0  0  0  2  0  0  0  0  0  0
  190.4590  175.8360  137.9000 C   0  0  1  0  0  3  0  0  0  0  0  0
  190.5880  174.4420  137.9890 O   0  0  0  0  0  1  0  0  0  0  0  0
  188.9920  176.2180  137.7930 C   0  0  0  0  0  2  0  0  0  0  0  0
  188.8050  177.3460  136.8730 N   0  0  0  0  0  0  0  0  0  0  0  0
  186.9210  178.4210  136.9550 C   0  0  0  0  0  2  0  0  0  0  0  0
  188.9350  179.6300  137.3370 O   0  0  0  0  0  1  0  0  0  0  0  0
  187.5220  177.2920  136.1460 C   0  0  1  0  0  0  0  0  0  0  0  0
  187.7210  177.7030  134.6950 C   0  0  0  0  0  1  0  0  0  0  0  0
  188.2630  178.4520  137.6620 C   0  0  2  0  0  3  0  0  0  0  0  0
  186.7220  175.9800  136.2680 C   0  0  0  0  0  2  0  0  0  0  0  0
  186.6720  175.2670  135.0000 N   0  0  0  0  0  0  0  0  0  0  0  0
  186.6580  172.2110  136.4170 C   0  0  0  0  0  1  0  0  0  0  0  0
  185.2010  173.3860  135.0350 C   0  0  0  0  0  3  0  0  0  0  0  0
  186.5540  172.8750  135.1310 N   0  0  0  0  0  0  0  0  0  0  0  0
  185.2940  174.8680  134.7940 C   0  0  0  0  0  3  0  0  0  0  0  0
  187.4380  174.0390  135.1840 C   0  0  0  0  0  2  0  0  0  0  0  0
  1  6  1  0  0  0  0
  2 11  2  0  0  0  0
  2 12  1  0  0  0  0
  3 10  2  0  0  0  0
  4  8  1  0  0  0  0
  5  1  1  0  0  0  0
  7  9  1  0  0  0  0
  7  4  2  0  0  0  0
  8  1  1  0  0  0  0
  9  5  1  0  0  0  0
 10 11  1  0  0  0  0
 11  7  1  0  0  0  0
 12 15  2  0  0  0  0
 13  2  1  0  0  0  0
 14  3  1  0  0  0  0
 14 13  2  0  0  0  0
 15  4  1  0  0  0  0
 16 13  1  0  0  0  0
 17 18  1  0  0  0  0
 17 20  1  0  0  0  0
 18 24  1  1  0  0  0
 18 22  1  0  0  0  0
 20 21  1  0  0  0  0
 21 19  1  0  0  0  0
 21 16  1  1  0  0  0
 22 19  1  0  0  0  0
 24 23  3  0  0  0  0
 25  3  1  0  0  0  0
 26 25  1  0  0  0  0
 27 26  1  0  0  0  0
 28 29  1  1  0  0  0
 28 27  1  0  0  0  0
 30 28  1  0  0  0  0
 31 36  1  0  0  0  0
 31 30  1  0  0  0  0
 32 36  1  0  0  0  0
 34 35  1  6  0  0  0
 34 37  1  0  0  0  0
 34 31  1  0  0  0  0
 34 32  1  0  0  0  0
 36 33  1  6  0  0  0
 38 43  1  0  0  0  0
 38 37  1  0  0  0  0
 40 41  1  0  0  0  0
 41 43  1  0  0  0  0
 41 39  1  0  0  0  0
 42 38  1  0  0  0  0
 42 40  2  0  0  0  0
M  END
>  <MODEL>
2

>  <REMARK>
 VINA RESULT:      -8.5      1.476      2.304
  Name = 
  11 active torsions:
  status: ('A' for Active; 'I' for Inactive)
    1  A    between atoms: N_1  and  C_34
    2  A    between atoms: N_1  and  C_35
    3  A    between atoms: C_2  and  O_7
    4  A    between atoms: C_2  and  C_13
    5  A    between atoms: C_3  and  N_4
    6  A    between atoms: C_3  and  C_12
    7  A    between atoms: C_6  and  O_7
    8  A    between atoms: C_6  and  C_12
    9  A    between atoms: N_11  and  C_14
   10  A    between atoms: C_14  and  C_22
   11  A    between atoms: C_19  and  C_37
                            x       y       z     vdW  Elec       q    Type
                         _______ _______ _______ _____ _____    ______ ____

>  <TORSDO>
F 11

$$$$
=
 OpenBabel10262422073D

 43 48  0  0  1  0  0  0  0  0999 V2000
  185.1120  178.5300  147.2500 N   0  0  0  0  0  0  0  0  0  0  0  0
  185.1480  178.9170  142.1750 C   0  0  0  0  0  0  0  0  0  0  0  0
  187.7040  178.2480  141.3860 C   0  0  0  0  0  0  0  0  0  0  0  0
  184.4940  178.7940  144.8980 C   0  0  0  0  0  0  0  0  0  0  0  0
  186.1160  177.5580  146.8000 C   0  0  0  0  0  2  0  0  0  0  0  0
  185.7370  179.7130  147.4650 O   0  0  0  0  0  1  0  0  0  0  0  0
  185.7790  178.4210  144.4780 C   0  0  0  0  0  0  0  0  0  0  0  0
  184.1620  178.7300  146.2580 O   0  0  0  0  0  0  0  0  0  0  0  0
  186.7950  178.0120  145.5040 C   0  0  0  0  0  2  0  0  0  0  0  0
  187.3630  178.1730  142.6980 N   0  0  0  0  0  0  0  0  0  0  0  0
  186.1130  178.4950  143.1160 C   0  0  0  0  0  0  0  0  0  0  0  0
  183.8620  179.2660  142.6080 C   0  0  0  0  0  3  0  0  0  0  0  0
  185.5200  178.9860  140.8250 C   0  0  0  0  0  0  0  0  0  0  0  0
  186.7930  178.6540  140.4640 N   0  0  0  0  0  0  0  0  0  0  0  0
  183.5370  179.2020  143.9650 C   0  0  0  0  0  3  0  0  0  0  0  0
  184.5740  179.4060  139.8330 N   0  0  0  0  0  2  0  0  0  0  0  0
  181.8830  178.1170  137.5090 C   0  0  0  0  0  2  0  0  0  0  0  0
  181.5840  176.8330  138.2930 C   0  0  1  0  0  3  0  0  0  0  0  0
  183.4660  177.2440  139.7590 C   0  0  0  0  0  2  0  0  0  0  0  0
  182.6450  179.1250  138.3630 C   0  0  0  0  0  2  0  0  0  0  0  0
  183.8860  178.4690  138.9570 C   0  0  1  0  0  3  0  0  0  0  0  0
  182.8030  176.2690  138.8870 N   0  0  0  0  0  2  0  0  0  0  0  0
  179.6660  177.1950  140.1210 C   0  0  0  0  0  3  0  0  0  0  0  0
  180.5300  177.0340  139.2980 C   0  0  0  0  0  0  0  0  0  0  0  0
  189.1230  177.9730  140.9900 C   0  0  0  0  0  2  0  0  0  0  0  0
  189.2880  176.7060  140.3940 O   0  0  0  0  0  0  0  0  0  0  0  0
  190.5830  176.6360  139.8530 C   0  0  0  0  0  2  0  0  0  0  0  0
  190.5650  176.2220  138.3850 C   0  0  1  0  0  3  0  0  0  0  0  0
  191.0460  174.9090  138.2620 O   0  0  0  0  0  1  0  0  0  0  0  0
  189.1270  176.2990  137.9000 C   0  0  0  0  0  2  0  0  0  0  0  0
  188.9680  177.3430  136.8810 N   0  0  0  0  0  0  0  0  0  0  0  0
  187.0330  178.3100  136.7110 C   0  0  0  0  0  2  0  0  0  0  0  0
  188.9380  179.6590  137.1720 O   0  0  0  0  0  1  0  0  0  0  0  0
  187.7630  177.1600  136.0500 C   0  0  1  0  0  0  0  0  0  0  0  0
  188.0740  177.4740  134.5940 C   0  0  0  0  0  1  0  0  0  0  0  0
  188.3000  178.4710  137.5290 C   0  0  2  0  0  3  0  0  0  0  0  0
  187.0230  175.8170  136.2040 C   0  0  0  0  0  2  0  0  0  0  0  0
  186.3220  175.4510  134.9820 N   0  0  0  0  0  0  0  0  0  0  0  0
  185.5530  172.3460  136.0380 C   0  0  0  0  0  1  0  0  0  0  0  0
  184.3220  174.2080  135.3810 C   0  0  0  0  0  3  0  0  0  0  0  0
  185.3320  173.2670  134.9390 N   0  0  0  0  0  0  0  0  0  0  0  0
  184.9040  175.5890  135.2530 C   0  0  0  0  0  3  0  0  0  0  0  0
  186.5700  174.0290  134.7710 C   0  0  0  0  0  2  0  0  0  0  0  0
  1  6  1  0  0  0  0
  2 12  2  0  0  0  0
  2 11  1  0  0  0  0
  3 10  2  0  0  0  0
  4  8  1  0  0  0  0
  5  1  1  0  0  0  0
  7  4  1  0  0  0  0
  7  9  1  0  0  0  0
  8  1  1  0  0  0  0
  9  5  1  0  0  0  0
 10 11  1  0  0  0  0
 11  7  2  0  0  0  0
 12 15  1  0  0  0  0
 13  2  1  0  0  0  0
 14 13  2  0  0  0  0
 14  3  1  0  0  0  0
 15  4  2  0  0  0  0
 16 13  1  0  0  0  0
 17 18  1  0  0  0  0
 17 20  1  0  0  0  0
 18 22  1  0  0  0  0
 18 24  1  1  0  0  0
 20 21  1  0  0  0  0
 21 19  1  0  0  0  0
 21 16  1  1  0  0  0
 22 19  1  0  0  0  0
 24 23  3  0  0  0  0
 25  3  1  0  0  0  0
 26 25  1  0  0  0  0
 27 26  1  0  0  0  0
 28 29  1  1  0  0  0
 28 27  1  0  0  0  0
 30 28  1  0  0  0  0
 31 36  1  0  0  0  0
 31 30  1  0  0  0  0
 32 36  1  0  0  0  0
 34 35  1  6  0  0  0
 34 37  1  0  0  0  0
 34 32  1  0  0  0  0
 34 31  1  0  0  0  0
 36 33  1  6  0  0  0
 38 42  1  0  0  0  0
 38 37  1  0  0  0  0
 41 40  1  0  0  0  0
 41 39  1  0  0  0  0
 42 40  2  0  0  0  0
 43 41  1  0  0  0  0
 43 38  1  0  0  0  0
M  END
>  <MODEL>
3

>  <REMARK>
 VINA RESULT:      -8.5      1.914      2.898
  Name = 
  11 active torsions:
  status: ('A' for Active; 'I' for Inactive)
    1  A    between atoms: N_1  and  C_34
    2  A    between atoms: N_1  and  C_35
    3  A    between atoms: C_2  and  O_7
    4  A    between atoms: C_2  and  C_13
    5  A    between atoms: C_3  and  N_4
    6  A    between atoms: C_3  and  C_12
    7  A    between atoms: C_6  and  O_7
    8  A    between atoms: C_6  and  C_12
    9  A    between atoms: N_11  and  C_14
   10  A    between atoms: C_14  and  C_22
   11  A    between atoms: C_19  and  C_37
                            x       y       z     vdW  Elec       q    Type
                         _______ _______ _______ _____ _____    ______ ____

>  <TORSDO>
F 11

$$$$
=
 OpenBabel10262422073D

 43 48  0  0  1  0  0  0  0  0999 V2000
  191.6450  176.5500  147.4130 N   0  0  0  0  0  0  0  0  0  0  0  0
  189.4260  177.3630  142.9050 C   0  0  0  0  0  0  0  0  0  0  0  0
  186.7860  177.9370  143.4570 C   0  0  0  0  0  0  0  0  0  0  0  0
  191.1890  176.9100  145.0360 C   0  0  0  0  0  0  0  0  0  0  0  0
  190.5560  177.4940  147.6880 C   0  0  0  0  0  2  0  0  0  0  0  0
  191.1620  175.2930  147.5600 O   0  0  0  0  0  1  0  0  0  0  0  0
  189.8520  177.2390  145.3020 C   0  0  0  0  0  0  0  0  0  0  0  0
  192.0740  176.6850  146.0990 O   0  0  0  0  0  0  0  0  0  0  0  0
  189.3810  177.2910  146.7260 C   0  0  0  0  0  2  0  0  0  0  0  0
  187.6590  177.7360  144.4760 N   0  0  0  0  0  0  0  0  0  0  0  0
  188.9640  177.4530  144.2370 C   0  0  0  0  0  0  0  0  0  0  0  0
  190.7690  177.0540  142.6550 C   0  0  0  0  0  3  0  0  0  0  0  0
  188.5090  177.5760  141.8660 C   0  0  0  0  0  0  0  0  0  0  0  0
  187.2070  177.8530  142.1680 N   0  0  0  0  0  0  0  0  0  0  0  0
  191.6480  176.8300  143.7180 C   0  0  0  0  0  3  0  0  0  0  0  0
  188.9310  177.4970  140.4980 N   0  0  0  0  0  2  0  0  0  0  0  0
  186.6630  178.1500  137.5440 C   0  0  0  0  0  2  0  0  0  0  0  0
  187.7450  178.7270  136.6240 C   0  0  1  0  0  3  0  0  0  0  0  0
  189.3450  178.7220  138.4390 C   0  0  0  0  0  2  0  0  0  0  0  0
  187.2760  177.3790  138.7080 C   0  0  0  0  0  2  0  0  0  0  0  0
  188.2900  178.2560  139.4340 C   0  0  1  0  0  3  0  0  0  0  0  0
  188.7250  179.5200  137.3770 N   0  0  0  0  0  2  0  0  0  0  0  0
  188.9210  176.8290  135.1520 C   0  0  0  0  0  3  0  0  0  0  0  0
  188.3930  177.6840  135.8140 C   0  0  0  0  0  0  0  0  0  0  0  0
  185.3380  178.1530  143.7750 C   0  0  0  0  0  2  0  0  0  0  0  0
  184.7350  179.1230  142.9480 O   0  0  0  0  0  0  0  0  0  0  0  0
  183.7500  178.4910  142.1700 C   0  0  0  0  0  2  0  0  0  0  0  0
  183.7750  178.9680  140.7220 C   0  0  1  0  0  3  0  0  0  0  0  0
  184.9930  179.6140  140.4600 O   0  0  0  0  0  1  0  0  0  0  0  0
  183.6300  177.7460  139.8300 C   0  0  0  0  0  2  0  0  0  0  0  0
  182.5610  177.9360  138.8420 N   0  0  0  0  0  0  0  0  0  0  0  0
  181.2520  176.2560  138.4280 C   0  0  0  0  0  2  0  0  0  0  0  0
  180.2840  178.2800  139.2210 O   0  0  0  0  0  1  0  0  0  0  0  0
  182.5070  176.8590  137.8350 C   0  0  1  0  0  0  0  0  0  0  0  0
  182.2360  177.4400  136.4560 C   0  0  0  0  0  1  0  0  0  0  0  0
  181.3380  177.3910  139.4310 C   0  0  2  0  0  3  0  0  0  0  0  0
  183.6930  175.8750  137.8230 C   0  0  0  0  0  2  0  0  0  0  0  0
  183.7000  175.0650  136.6130 N   0  0  0  0  0  0  0  0  0  0  0  0
  186.8790  174.0250  137.0120 C   0  0  0  0  0  1  0  0  0  0  0  0
  184.8100  172.9680  136.8910 C   0  0  0  0  0  3  0  0  0  0  0  0
  185.7140  173.8400  136.1680 N   0  0  0  0  0  0  0  0  0  0  0  0
  183.4970  173.6890  137.0250 C   0  0  0  0  0  3  0  0  0  0  0  0
  185.0530  175.1410  136.0710 C   0  0  0  0  0  2  0  0  0  0  0  0
  1  6  1  0  0  0  0
  1  5  1  0  0  0  0
  2 11  1  0  0  0  0
  3 25  1  0  0  0  0
  3 10  2  0  0  0  0
  4  7  1  0  0  0  0
  4  8  1  0  0  0  0
  7  9  1  0  0  0  0
  8  1  1  0  0  0  0
  9  5  1  0  0  0  0
 11 10  1  0  0  0  0
 11  7  2  0  0  0  0
 12  2  2  0  0  0  0
 12 15  1  0  0  0  0
 13 14  2  0  0  0  0
 13  2  1  0  0  0  0
 14  3  1  0  0  0  0
 15  4  2  0  0  0  0
 16 13  1  0  0  0  0
 17 20  1  0  0  0  0
 18 24  1  1  0  0  0
 18 22  1  0  0  0  0
 18 17  1  0  0  0  0
 19 21  1  0  0  0  0
 20 21  1  0  0  0  0
 21 16  1  1  0  0  0
 22 19  1  0  0  0  0
 23 24  3  0  0  0  0
 26 25  1  0  0  0  0
 27 26  1  0  0  0  0
 28 29  1  6  0  0  0
 28 27  1  0  0  0  0
 30 28  1  0  0  0  0
 31 36  1  0  0  0  0
 31 30  1  0  0  0  0
 32 36  1  0  0  0  0
 34 35  1  6  0  0  0
 34 32  1  0  0  0  0
 34 31  1  0  0  0  0
 36 33  1  6  0  0  0
 37 34  1  0  0  0  0
 38 42  1  0  0  0  0
 38 37  1  0  0  0  0
 40 42  2  0  0  0  0
 41 40  1  0  0  0  0
 41 39  1  0  0  0  0
 43 41  1  0  0  0  0
 43 38  1  0  0  0  0
M  END
>  <MODEL>
4

>  <REMARK>
 VINA RESULT:      -8.4      2.513      5.352
  Name = 
  11 active torsions:
  status: ('A' for Active; 'I' for Inactive)
    1  A    between atoms: N_1  and  C_34
    2  A    between atoms: N_1  and  C_35
    3  A    between atoms: C_2  and  O_7
    4  A    between atoms: C_2  and  C_13
    5  A    between atoms: C_3  and  N_4
    6  A    between atoms: C_3  and  C_12
    7  A    between atoms: C_6  and  O_7
    8  A    between atoms: C_6  and  C_12
    9  A    between atoms: N_11  and  C_14
   10  A    between atoms: C_14  and  C_22
   11  A    between atoms: C_19  and  C_37
                            x       y       z     vdW  Elec       q    Type
                         _______ _______ _______ _____ _____    ______ ____

>  <TORSDO>
F 11

$$$$
=
 OpenBabel10262422073D

 43 48  0  0  1  0  0  0  0  0999 V2000
  185.2710  178.6120  147.2150 N   0  0  0  0  0  0  0  0  0  0  0  0
  184.5560  178.8820  142.1830 C   0  0  0  0  0  0  0  0  0  0  0  0
  187.0570  178.6290  141.0510 C   0  0  0  0  0  0  0  0  0  0  0  0
  184.3050  178.7150  144.9700 C   0  0  0  0  0  0  0  0  0  0  0  0
  186.3530  177.8100  146.6310 C   0  0  0  0  0  2  0  0  0  0  0  0
  185.7120  179.8860  147.3420 O   0  0  0  0  0  1  0  0  0  0  0  0
  185.5660  178.5510  144.3770 C   0  0  0  0  0  0  0  0  0  0  0  0
  184.1750  178.6280  146.3620 O   0  0  0  0  0  0  0  0  0  0  0  0
  186.7650  178.3400  145.2540 C   0  0  0  0  0  2  0  0  0  0  0  0
  186.9130  178.5290  142.3970 N   0  0  0  0  0  0  0  0  0  0  0  0
  185.6960  178.6480  142.9830 C   0  0  0  0  0  0  0  0  0  0  0  0
  183.3000  179.0230  142.7870 C   0  0  0  0  0  3  0  0  0  0  0  0
  184.7250  178.9800  140.7940 C   0  0  0  0  0  0  0  0  0  0  0  0
  185.9750  178.8570  140.2620 N   0  0  0  0  0  0  0  0  0  0  0  0
  183.1760  178.9370  144.1770 C   0  0  0  0  0  3  0  0  0  0  0  0
  183.5960  179.2150  139.9410 N   0  0  0  0  0  2  0  0  0  0  0  0
  181.0370  177.4630  137.7780 C   0  0  0  0  0  2  0  0  0  0  0  0
  181.1110  176.1080  138.4910 C   0  0  1  0  0  3  0  0  0  0  0  0
  182.9950  176.8640  139.8110 C   0  0  0  0  0  2  0  0  0  0  0  0
  181.6390  178.5750  138.6310 C   0  0  0  0  0  2  0  0  0  0  0  0
  183.0490  178.1900  139.0640 C   0  0  1  0  0  3  0  0  0  0  0  0
  182.4790  175.8080  138.9340 N   0  0  0  0  0  2  0  0  0  0  0  0
  179.3550  175.9390  140.5010 C   0  0  0  0  0  3  0  0  0  0  0  0
  180.1470  176.0140  139.5970 C   0  0  0  0  0  0  0  0  0  0  0  0
  188.4350  178.5840  140.4640 C   0  0  0  0  0  2  0  0  0  0  0  0
  188.7140  177.3630  139.8150 O   0  0  0  0  0  0  0  0  0  0  0  0
  189.4720  177.6360  138.6650 C   0  0  0  0  0  2  0  0  0  0  0  0
  188.6350  178.2950  137.5730 C   0  0  1  0  0  3  0  0  0  0  0  0
  189.0600  179.6200  137.3900 O   0  0  0  0  0  1  0  0  0  0  0  0
  188.8350  177.5000  136.2930 C   0  0  0  0  0  2  0  0  0  0  0  0
  189.6450  176.3020  136.5370 N   0  0  0  0  0  0  0  0  0  0  0  0
  190.1490  175.0540  134.8340 C   0  0  0  0  0  2  0  0  0  0  0  0
  191.9210  175.9830  136.1210 O   0  0  0  0  0  1  0  0  0  0  0  0
  189.0850  175.0890  135.9100 C   0  0  1  0  0  0  0  0  0  0  0  0
  189.2190  173.9010  136.8510 C   0  0  0  0  0  1  0  0  0  0  0  0
  190.6990  176.2890  135.5220 C   0  0  2  0  0  3  0  0  0  0  0  0
  187.6600  175.2120  135.3370 C   0  0  0  0  0  2  0  0  0  0  0  0
  186.6950  174.4850  136.1490 N   0  0  0  0  0  0  0  0  0  0  0  0
  184.2530  176.7730  135.7680 C   0  0  0  0  0  1  0  0  0  0  0  0
  184.4860  174.5190  135.2410 C   0  0  0  0  0  3  0  0  0  0  0  0
  184.5140  175.4660  136.3390 N   0  0  0  0  0  0  0  0  0  0  0  0
  185.8050  173.7980  135.2320 C   0  0  0  0  0  3  0  0  0  0  0  0
  185.8900  175.4890  136.8360 C   0  0  0  0  0  2  0  0  0  0  0  0
  1  6  1  0  0  0  0
  2 12  2  0  0  0  0
  2 11  1  0  0  0  0
  3 10  2  0  0  0  0
  4  8  1  0  0  0  0
  5  1  1  0  0  0  0
  7  4  1  0  0  0  0
  7  9  1  0  0  0  0
  8  1  1  0  0  0  0
  9  5  1  0  0  0  0
 10 11  1  0  0  0  0
 11  7  2  0  0  0  0
 12 15  1  0  0  0  0
 13  2  1  0  0  0  0
 14 13  2  0  0  0  0
 14  3  1  0  0  0  0
 15  4  2  0  0  0  0
 16 13  1  0  0  0  0
 17 18  1  0  0  0  0
 17 20  1  0  0  0  0
 18 22  1  0  0  0  0
 18 24  1  1  0  0  0
 20 21  1  0  0  0  0
 21 19  1  0  0  0  0
 21 16  1  1  0  0  0
 22 19  1  0  0  0  0
 24 23  3  0  0  0  0
 25  3  1  0  0  0  0
 26 25  1  0  0  0  0
 27 26  1  0  0  0  0
 28 29  1  6  0  0  0
 28 27  1  0  0  0  0
 30 31  1  0  0  0  0
 30 28  1  0  0  0  0
 32 36  1  0  0  0  0
 32 34  1  0  0  0  0
 34 31  1  0  0  0  0
 34 35  1  1  0  0  0
 36 33  1  1  0  0  0
 36 31  1  0  0  0  0
 37 34  1  0  0  0  0
 37 38  1  0  0  0  0
 38 43  1  0  0  0  0
 39 41  1  0  0  0  0
 40 41  1  0  0  0  0
 41 43  1  0  0  0  0
 42 40  2  0  0  0  0
 42 38  1  0  0  0  0
M  END
>  <MODEL>
5

>  <REMARK>
 VINA RESULT:      -8.3      1.961      2.579
  Name = 
  11 active torsions:
  status: ('A' for Active; 'I' for Inactive)
    1  A    between atoms: N_1  and  C_34
    2  A    between atoms: N_1  and  C_35
    3  A    between atoms: C_2  and  O_7
    4  A    between atoms: C_2  and  C_13
    5  A    between atoms: C_3  and  N_4
    6  A    between atoms: C_3  and  C_12
    7  A    between atoms: C_6  and  O_7
    8  A    between atoms: C_6  and  C_12
    9  A    between atoms: N_11  and  C_14
   10  A    between atoms: C_14  and  C_22
   11  A    between atoms: C_19  and  C_37
                            x       y       z     vdW  Elec       q    Type
                         _______ _______ _______ _____ _____    ______ ____

>  <TORSDO>
F 11

$$$$
=
 OpenBabel10262422073D

 43 48  0  0  1  0  0  0  0  0999 V2000
  188.4550  177.4930  148.3860 N   0  0  0  0  0  0  0  0  0  0  0  0
  186.0040  178.4210  144.0230 C   0  0  0  0  0  0  0  0  0  0  0  0
  187.8540  178.0180  142.0190 C   0  0  0  0  0  0  0  0  0  0  0  0
  186.7640  177.9630  146.6820 C   0  0  0  0  0  0  0  0  0  0  0  0
  189.1180  176.6460  147.3870 C   0  0  0  0  0  2  0  0  0  0  0  0
  189.0960  178.6870  148.4200 O   0  0  0  0  0  1  0  0  0  0  0  0
  187.6830  177.7270  145.6490 C   0  0  0  0  0  0  0  0  0  0  0  0
  187.1390  177.7320  148.0120 O   0  0  0  0  0  0  0  0  0  0  0  0
  189.0740  177.2810  145.9940 C   0  0  0  0  0  2  0  0  0  0  0  0
  188.1970  177.7800  143.3100 N   0  0  0  0  0  0  0  0  0  0  0  0
  187.3090  177.9690  144.3180 C   0  0  0  0  0  0  0  0  0  0  0  0
  185.0900  178.6330  145.0640 C   0  0  0  0  0  3  0  0  0  0  0  0
  185.6680  178.6590  142.6820 C   0  0  0  0  0  0  0  0  0  0  0  0
  186.6050  178.4560  141.7120 N   0  0  0  0  0  0  0  0  0  0  0  0
  185.4700  178.4020  146.3890 C   0  0  0  0  0  3  0  0  0  0  0  0
  184.3550  179.1170  142.3340 N   0  0  0  0  0  2  0  0  0  0  0  0
  182.3780  177.0390  139.8700 C   0  0  0  0  0  2  0  0  0  0  0  0
  181.0110  177.6580  140.1840 C   0  0  1  0  0  3  0  0  0  0  0  0
  181.9520  178.8830  142.0480 C   0  0  0  0  0  2  0  0  0  0  0  0
  183.5160  177.9150  140.3820 C   0  0  0  0  0  2  0  0  0  0  0  0
  183.3100  178.2200  141.8610 C   0  0  1  0  0  3  0  0  0  0  0  0
  180.8820  177.9810  141.6110 N   0  0  0  0  0  2  0  0  0  0  0  0
  180.4880  179.7780  138.6400 C   0  0  0  0  0  3  0  0  0  0  0  0
  180.7250  178.8230  139.3330 C   0  0  0  0  0  0  0  0  0  0  0  0
  188.9000  177.8850  140.9540 C   0  0  0  0  0  2  0  0  0  0  0  0
  188.6790  178.7460  139.8600 O   0  0  0  0  0  0  0  0  0  0  0  0
  189.3490  178.2230  138.7420 C   0  0  0  0  0  2  0  0  0  0  0  0
  188.4360  178.1280  137.5230 C   0  0  1  0  0  3  0  0  0  0  0  0
  187.9520  179.4030  137.1980 O   0  0  0  0  0  1  0  0  0  0  0  0
  189.2580  177.5720  136.3720 C   0  0  0  0  0  2  0  0  0  0  0  0
  188.6750  176.3280  135.8570 N   0  0  0  0  0  0  0  0  0  0  0  0
  188.9330  174.5230  137.0340 C   0  0  0  0  0  2  0  0  0  0  0  0
  186.7210  175.2520  136.5470 O   0  0  0  0  0  1  0  0  0  0  0  0
  189.6220  175.1970  135.8670 C   0  0  1  0  0  0  0  0  0  0  0  0
  189.4760  174.3760  134.5960 C   0  0  0  0  0  1  0  0  0  0  0  0
  187.9720  175.6950  136.9740 C   0  0  2  0  0  3  0  0  0  0  0  0
  191.0950  175.5430  136.1640 C   0  0  0  0  0  2  0  0  0  0  0  0
  191.5590  174.8940  137.3820 N   0  0  0  0  0  0  0  0  0  0  0  0
  194.6350  174.2390  136.1760 C   0  0  0  0  0  1  0  0  0  0  0  0
  193.8020  175.4750  137.9620 C   0  0  0  0  0  3  0  0  0  0  0  0
  193.8380  174.1460  137.3850 N   0  0  0  0  0  0  0  0  0  0  0  0
  192.3570  175.8690  138.1010 C   0  0  0  0  0  3  0  0  0  0  0  0
  192.4710  173.8340  136.9660 C   0  0  0  0  0  2  0  0  0  0  0  0
  1  6  1  0  0  0  0
  2 11  2  0  0  0  0
  2 12  1  0  0  0  0
  3 10  2  0  0  0  0
  4  8  1  0  0  0  0
  5  1  1  0  0  0  0
  7  9  1  0  0  0  0
  7  4  2  0  0  0  0
  8  1  1  0  0  0  0
  9  5  1  0  0  0  0
 10 11  1  0  0  0  0
 11  7  1  0  0  0  0
 12 15  2  0  0  0  0
 13  2  1  0  0  0  0
 14  3  1  0  0  0  0
 14 13  2  0  0  0  0
 15  4  1  0  0  0  0
 16 13  1  0  0  0  0
 17 18  1  0  0  0  0
 17 20  1  0  0  0  0
 18 24  1  6  0  0  0
 18 22  1  0  0  0  0
 20 21  1  0  0  0  0
 21 19  1  0  0  0  0
 21 16  1  6  0  0  0
 22 19  1  0  0  0  0
 23 24  3  0  0  0  0
 25  3  1  0  0  0  0
 26 25  1  0  0  0  0
 27 26  1  0  0  0  0
 28 29  1  6  0  0  0
 28 27  1  0  0  0  0
 30 28  1  0  0  0  0
 31 34  1  0  0  0  0
 31 30  1  0  0  0  0
 31 36  1  0  0  0  0
 34 35  1  6  0  0  0
 34 37  1  0  0  0  0
 34 32  1  0  0  0  0
 36 33  1  6  0  0  0
 36 32  1  0  0  0  0
 37 38  1  0  0  0  0
 38 42  1  0  0  0  0
 39 41  1  0  0  0  0
 40 42  2  0  0  0  0
 41 40  1  0  0  0  0
 43 38  1  0  0  0  0
 43 41  1  0  0  0  0
M  END
>  <MODEL>
6

>  <REMARK>
 VINA RESULT:      -8.3      2.047      3.553
  Name = 
  11 active torsions:
  status: ('A' for Active; 'I' for Inactive)
    1  A    between atoms: N_1  and  C_34
    2  A    between atoms: N_1  and  C_35
    3  A    between atoms: C_2  and  O_7
    4  A    between atoms: C_2  and  C_13
    5  A    between atoms: C_3  and  N_4
    6  A    between atoms: C_3  and  C_12
    7  A    between atoms: C_6  and  O_7
    8  A    between atoms: C_6  and  C_12
    9  A    between atoms: N_11  and  C_14
   10  A    between atoms: C_14  and  C_22
   11  A    between atoms: C_19  and  C_37
                            x       y       z     vdW  Elec       q    Type
                         _______ _______ _______ _____ _____    ______ ____

>  <TORSDO>
F 11

$$$$
=
 OpenBabel10262422073D

 43 48  0  0  1  0  0  0  0  0999 V2000
  191.4700  176.7080  147.4960 N   0  0  0  0  0  0  0  0  0  0  0  0
  189.4940  177.3900  142.8560 C   0  0  0  0  0  0  0  0  0  0  0  0
  186.8070  177.8740  143.2440 C   0  0  0  0  0  0  0  0  0  0  0  0
  191.1430  177.0240  145.0930 C   0  0  0  0  0  0  0  0  0  0  0  0
  190.3320  177.6150  147.6950 C   0  0  0  0  0  2  0  0  0  0  0  0
  191.0230  175.4360  147.6320 O   0  0  0  0  0  1  0  0  0  0  0  0
  189.7810  177.3080  145.2750 C   0  0  0  0  0  0  0  0  0  0  0  0
  191.9700  176.8440  146.2090 O   0  0  0  0  0  0  0  0  0  0  0  0
  189.2250  177.3590  146.6680 C   0  0  0  0  0  2  0  0  0  0  0  0
  187.6250  177.7160  144.3160 N   0  0  0  0  0  0  0  0  0  0  0  0
  188.9510  177.4770  144.1570 C   0  0  0  0  0  0  0  0  0  0  0  0
  190.8600  177.1260  142.6890 C   0  0  0  0  0  3  0  0  0  0  0  0
  188.6330  177.5580  141.7610 C   0  0  0  0  0  0  0  0  0  0  0  0
  187.3060  177.7910  141.9830 N   0  0  0  0  0  0  0  0  0  0  0  0
  191.6810  176.9470  143.8050 C   0  0  0  0  0  3  0  0  0  0  0  0
  189.1380  177.4790  140.4220 N   0  0  0  0  0  2  0  0  0  0  0  0
  187.0960  177.4760  137.2390 C   0  0  0  0  0  2  0  0  0  0  0  0
  188.0610  178.3390  136.4180 C   0  0  1  0  0  3  0  0  0  0  0  0
  189.4010  178.7800  138.3860 C   0  0  0  0  0  2  0  0  0  0  0  0
  187.7780  176.9050  138.4780 C   0  0  0  0  0  2  0  0  0  0  0  0
  188.4230  178.0300  139.2800 C   0  0  1  0  0  3  0  0  0  0  0  0
  188.6940  179.3740  137.2460 N   0  0  0  0  0  2  0  0  0  0  0  0
  189.8700  176.8580  135.1200 C   0  0  0  0  0  3  0  0  0  0  0  0
  189.0570  177.5270  135.7040 C   0  0  0  0  0  0  0  0  0  0  0  0
  185.3360  178.0400  143.4740 C   0  0  0  0  0  2  0  0  0  0  0  0
  184.8290  179.2370  142.9250 O   0  0  0  0  0  0  0  0  0  0  0  0
  183.8710  178.9060  141.9510 C   0  0  0  0  0  2  0  0  0  0  0  0
  182.5050  178.6260  142.5690 C   0  0  1  0  0  3  0  0  0  0  0  0
  182.1230  179.7080  143.3760 O   0  0  0  0  0  1  0  0  0  0  0  0
  181.5120  178.4470  141.4320 C   0  0  0  0  0  2  0  0  0  0  0  0
  181.2560  179.7190  140.7470 N   0  0  0  0  0  0  0  0  0  0  0  0
  179.5940  179.8060  139.3550 C   0  0  0  0  0  2  0  0  0  0  0  0
  179.6030  181.3030  141.2050 O   0  0  0  0  0  1  0  0  0  0  0  0
  181.0870  179.5670  139.2890 C   0  0  1  0  0  0  0  0  0  0  0  0
  181.7910  180.6990  138.5570 C   0  0  0  0  0  1  0  0  0  0  0  0
  179.8190  179.9720  140.8460 C   0  0  2  0  0  3  0  0  0  0  0  0
  181.4440  178.1880  138.7000 C   0  0  0  0  0  2  0  0  0  0  0  0
  182.6530  178.2520  137.8910 N   0  0  0  0  0  0  0  0  0  0  0  0
  183.3190  174.9610  138.1540 C   0  0  0  0  0  1  0  0  0  0  0  0
  182.8780  176.4100  136.3880 C   0  0  0  0  0  3  0  0  0  0  0  0
  183.7790  176.1710  137.4990 N   0  0  0  0  0  0  0  0  0  0  0  0
  182.2980  177.7860  136.5650 C   0  0  0  0  0  3  0  0  0  0  0  0
  183.5760  177.2670  138.4460 C   0  0  0  0  0  2  0  0  0  0  0  0
  1  6  1  0  0  0  0
  1  5  1  0  0  0  0
  2 11  1  0  0  0  0
  3 25  1  0  0  0  0
  3 10  2  0  0  0  0
  4  7  1  0  0  0  0
  4  8  1  0  0  0  0
  7  9  1  0  0  0  0
  8  1  1  0  0  0  0
  9  5  1  0  0  0  0
 11 10  1  0  0  0  0
 11  7  2  0  0  0  0
 12  2  2  0  0  0  0
 12 15  1  0  0  0  0
 13 14  2  0  0  0  0
 13  2  1  0  0  0  0
 14  3  1  0  0  0  0
 15  4  2  0  0  0  0
 16 13  1  0  0  0  0
 17 20  1  0  0  0  0
 18 24  1  1  0  0  0
 18 17  1  0  0  0  0
 18 22  1  0  0  0  0
 19 21  1  0  0  0  0
 20 21  1  0  0  0  0
 21 16  1  1  0  0  0
 22 19  1  0  0  0  0
 23 24  3  0  0  0  0
 26 25  1  0  0  0  0
 27 28  1  0  0  0  0
 27 26  1  0  0  0  0
 28 29  1  1  0  0  0
 30 28  1  0  0  0  0
 31 36  1  0  0  0  0
 31 30  1  0  0  0  0
 32 36  1  0  0  0  0
 34 35  1  6  0  0  0
 34 32  1  0  0  0  0
 34 31  1  0  0  0  0
 36 33  1  6  0  0  0
 37 34  1  0  0  0  0
 38 43  1  0  0  0  0
 38 37  1  0  0  0  0
 40 42  2  0  0  0  0
 40 41  1  0  0  0  0
 41 39  1  0  0  0  0
 41 43  1  0  0  0  0
 42 38  1  0  0  0  0
M  END
>  <MODEL>
7

>  <REMARK>
 VINA RESULT:      -8.0      3.054      6.505
  Name = 
  11 active torsions:
  status: ('A' for Active; 'I' for Inactive)
    1  A    between atoms: N_1  and  C_34
    2  A    between atoms: N_1  and  C_35
    3  A    between atoms: C_2  and  O_7
    4  A    between atoms: C_2  and  C_13
    5  A    between atoms: C_3  and  N_4
    6  A    between atoms: C_3  and  C_12
    7  A    between atoms: C_6  and  O_7
    8  A    between atoms: C_6  and  C_12
    9  A    between atoms: N_11  and  C_14
   10  A    between atoms: C_14  and  C_22
   11  A    between atoms: C_19  and  C_37
                            x       y       z     vdW  Elec       q    Type
                         _______ _______ _______ _____ _____    ______ ____

>  <TORSDO>
F 11

$$$$
=
 OpenBabel10262422073D

 43 48  0  0  1  0  0  0  0  0999 V2000
  188.6290  177.5020  148.4540 N   0  0  0  0  0  0  0  0  0  0  0  0
  185.7390  178.6210  144.4170 C   0  0  0  0  0  0  0  0  0  0  0  0
  187.2980  178.0930  142.2040 C   0  0  0  0  0  0  0  0  0  0  0  0
  186.7820  178.0990  146.9660 C   0  0  0  0  0  0  0  0  0  0  0  0
  189.1040  176.6130  147.3860 C   0  0  0  0  0  2  0  0  0  0  0  0
  189.3540  178.6460  148.4040 O   0  0  0  0  0  1  0  0  0  0  0  0
  187.5490  177.8010  145.8300 C   0  0  0  0  0  0  0  0  0  0  0  0
  187.2990  177.8360  148.2410 O   0  0  0  0  0  0  0  0  0  0  0  0
  188.9360  177.2550  146.0060 C   0  0  0  0  0  2  0  0  0  0  0  0
  187.7780  177.8260  143.4450 N   0  0  0  0  0  0  0  0  0  0  0  0
  187.0350  178.0740  144.5530 C   0  0  0  0  0  0  0  0  0  0  0  0
  184.9770  178.8940  145.5600 C   0  0  0  0  0  3  0  0  0  0  0  0
  185.2610  178.8870  143.1260 C   0  0  0  0  0  0  0  0  0  0  0  0
  186.0560  178.6210  142.0490 N   0  0  0  0  0  0  0  0  0  0  0  0
  185.4970  178.6310  146.8300 C   0  0  0  0  0  3  0  0  0  0  0  0
  183.9510  179.4400  142.9370 N   0  0  0  0  0  2  0  0  0  0  0  0
  181.0810  177.9240  140.9960 C   0  0  0  0  0  2  0  0  0  0  0  0
  179.9800  178.3200  141.9870 C   0  0  1  0  0  3  0  0  0  0  0  0
  181.6340  179.0850  143.5800 C   0  0  0  0  0  2  0  0  0  0  0  0
  182.3560  178.7280  141.2320 C   0  0  0  0  0  2  0  0  0  0  0  0
  182.7790  178.6130  142.6930 C   0  0  1  0  0  3  0  0  0  0  0  0
  180.4520  178.2420  143.3750 N   0  0  0  0  0  2  0  0  0  0  0  0
  178.9370  180.7170  141.4270 C   0  0  0  0  0  3  0  0  0  0  0  0
  179.4080  179.6390  141.6780 C   0  0  0  0  0  0  0  0  0  0  0  0
  188.1950  177.8890  141.0210 C   0  0  0  0  0  2  0  0  0  0  0  0
  187.6190  178.3360  139.8150 O   0  0  0  0  0  0  0  0  0  0  0  0
  188.4270  177.9040  138.7500 C   0  0  0  0  0  2  0  0  0  0  0  0
  188.0770  178.6110  137.4450 C   0  0  1  0  0  3  0  0  0  0  0  0
  189.2340  178.7590  136.6660 O   0  0  0  0  0  1  0  0  0  0  0  0
  187.0600  177.7510  136.7120 C   0  0  0  0  0  2  0  0  0  0  0  0
  187.4790  176.3440  136.6850 N   0  0  0  0  0  0  0  0  0  0  0  0
  186.9400  175.1580  134.9490 C   0  0  0  0  0  2  0  0  0  0  0  0
  189.2440  175.3820  135.4980 O   0  0  0  0  0  1  0  0  0  0  0  0
  186.3830  175.4220  136.3310 C   0  0  1  0  0  0  0  0  0  0  0  0
  186.4480  174.1720  137.1950 C   0  0  0  0  0  1  0  0  0  0  0  0
  188.0560  176.0990  135.3630 C   0  0  2  0  0  3  0  0  0  0  0  0
  184.9650  176.0260  136.2980 C   0  0  0  0  0  2  0  0  0  0  0  0
  184.1530  175.5410  137.4040 N   0  0  0  0  0  0  0  0  0  0  0  0
  181.7910  177.9170  137.0590 C   0  0  0  0  0  1  0  0  0  0  0  0
  181.8100  175.5930  136.9460 C   0  0  0  0  0  3  0  0  0  0  0  0
  182.1040  176.7170  137.8130 N   0  0  0  0  0  0  0  0  0  0  0  0
  183.0660  174.7750  136.8260 C   0  0  0  0  0  3  0  0  0  0  0  0
  183.5510  176.7160  138.0240 C   0  0  0  0  0  2  0  0  0  0  0  0
  2 11  2  0  0  0  0
  2 12  1  0  0  0  0
  3 10  2  0  0  0  0
  4  8  1  0  0  0  0
  5  1  1  0  0  0  0
  6  1  1  0  0  0  0
  7  9  1  0  0  0  0
  7  4  2  0  0  0  0
  8  1  1  0  0  0  0
  9  5  1  0  0  0  0
 10 11  1  0  0  0  0
 11  7  1  0  0  0  0
 12 15  2  0  0  0  0
 13  2  1  0  0  0  0
 14  3  1  0  0  0  0
 14 13  2  0  0  0  0
 15  4  1  0  0  0  0
 16 13  1  0  0  0  0
 17 20  1  0  0  0  0
 17 18  1  0  0  0  0
 18 24  1  6  0  0  0
 18 22  1  0  0  0  0
 20 21  1  0  0  0  0
 21 16  1  6  0  0  0
 21 19  1  0  0  0  0
 22 19  1  0  0  0  0
 23 24  3  0  0  0  0
 25  3  1  0  0  0  0
 26 25  1  0  0  0  0
 27 26  1  0  0  0  0
 28 29  1  6  0  0  0
 28 27  1  0  0  0  0
 30 28  1  0  0  0  0
 31 30  1  0  0  0  0
 32 36  1  0  0  0  0
 32 34  1  0  0  0  0
 34 31  1  0  0  0  0
 34 35  1  1  0  0  0
 36 33  1  1  0  0  0
 36 31  1  0  0  0  0
 37 34  1  0  0  0  0
 37 38  1  0  0  0  0
 38 43  1  0  0  0  0
 39 41  1  0  0  0  0
 40 41  1  0  0  0  0
 41 43  1  0  0  0  0
 42 40  2  0  0  0  0
 42 38  1  0  0  0  0
M  END
>  <MODEL>
8

>  <REMARK>
 VINA RESULT:      -8.0      1.710      2.423
  Name = 
  11 active torsions:
  status: ('A' for Active; 'I' for Inactive)
    1  A    between atoms: N_1  and  C_34
    2  A    between atoms: N_1  and  C_35
    3  A    between atoms: C_2  and  O_7
    4  A    between atoms: C_2  and  C_13
    5  A    between atoms: C_3  and  N_4
    6  A    between atoms: C_3  and  C_12
    7  A    between atoms: C_6  and  O_7
    8  A    between atoms: C_6  and  C_12
    9  A    between atoms: N_11  and  C_14
   10  A    between atoms: C_14  and  C_22
   11  A    between atoms: C_19  and  C_37
                            x       y       z     vdW  Elec       q    Type
                         _______ _______ _______ _____ _____    ______ ____

>  <TORSDO>
F 11

$$$$
=
 OpenBabel10262422073D

 43 48  0  0  1  0  0  0  0  0999 V2000
  185.2940  178.5900  147.0080 N   0  0  0  0  0  0  0  0  0  0  0  0
  183.7430  178.7750  142.1640 C   0  0  0  0  0  0  0  0  0  0  0  0
  186.0260  178.5660  140.6320 C   0  0  0  0  0  0  0  0  0  0  0  0
  183.9650  178.6390  144.9550 C   0  0  0  0  0  0  0  0  0  0  0  0
  186.2840  177.8060  146.2590 C   0  0  0  0  0  2  0  0  0  0  0  0
  185.7180  179.8760  147.0480 O   0  0  0  0  0  1  0  0  0  0  0  0
  185.1130  178.4980  144.1610 C   0  0  0  0  0  0  0  0  0  0  0  0
  184.0720  178.5690  146.3500 O   0  0  0  0  0  0  0  0  0  0  0  0
  186.4470  178.3270  144.8280 C   0  0  0  0  0  2  0  0  0  0  0  0
  186.1120  178.4800  141.9840 N   0  0  0  0  0  0  0  0  0  0  0  0
  185.0060  178.5790  142.7640 C   0  0  0  0  0  0  0  0  0  0  0  0
  182.6020  178.8940  142.9690 C   0  0  0  0  0  3  0  0  0  0  0  0
  183.6750  178.8590  140.7650 C   0  0  0  0  0  0  0  0  0  0  0  0
  184.8220  178.7570  140.0330 N   0  0  0  0  0  0  0  0  0  0  0  0
  182.7140  178.8240  144.3600 C   0  0  0  0  0  3  0  0  0  0  0  0
  182.4150  179.0550  140.1110 N   0  0  0  0  0  2  0  0  0  0  0  0
  181.4400  175.5630  139.0350 C   0  0  0  0  0  2  0  0  0  0  0  0
  181.9270  175.6900  137.5870 C   0  0  1  0  0  3  0  0  0  0  0  0
  182.3540  178.0530  137.8970 C   0  0  0  0  0  2  0  0  0  0  0  0
  182.0400  176.6510  139.9210 C   0  0  0  0  0  2  0  0  0  0  0  0
  181.7790  178.0210  139.3070 C   0  0  1  0  0  3  0  0  0  0  0  0
  181.7000  177.0420  137.0600 N   0  0  0  0  0  2  0  0  0  0  0  0
  184.4770  174.9310  137.3150 C   0  0  0  0  0  3  0  0  0  0  0  0
  183.3300  175.2750  137.4390 C   0  0  0  0  0  0  0  0  0  0  0  0
  187.2880  178.5460  139.8240 C   0  0  0  0  0  2  0  0  0  0  0  0
  187.4600  177.3420  139.1090 O   0  0  0  0  0  0  0  0  0  0  0  0
  187.2020  177.5930  137.7510 C   0  0  0  0  0  2  0  0  0  0  0  0
  188.4510  177.4220  136.8930 C   0  0  1  0  0  3  0  0  0  0  0  0
  188.2960  178.1290  135.6910 O   0  0  0  0  0  1  0  0  0  0  0  0
  189.6300  177.9760  137.6760 C   0  0  0  0  0  2  0  0  0  0  0  0
  190.8210  177.1370  137.5030 N   0  0  0  0  0  0  0  0  0  0  0  0
  190.9350  175.2890  138.6360 C   0  0  0  0  0  2  0  0  0  0  0  0
  191.0400  175.1720  136.2610 O   0  0  0  0  0  1  0  0  0  0  0  0
  191.4220  176.7150  138.7830 C   0  0  1  0  0  0  0  0  0  0  0  0
  192.9390  176.7870  138.7010 C   0  0  0  0  0  1  0  0  0  0  0  0
  190.3500  175.7640  137.3190 C   0  0  2  0  0  3  0  0  0  0  0  0
  190.8800  177.4020  140.0510 C   0  0  0  0  0  2  0  0  0  0  0  0
  190.7890  176.4690  141.1650 N   0  0  0  0  0  0  0  0  0  0  0  0
  191.3920  178.8050  143.5160 C   0  0  0  0  0  1  0  0  0  0  0  0
  189.6260  177.3640  143.0500 C   0  0  0  0  0  3  0  0  0  0  0  0
  191.0420  177.4060  143.3590 N   0  0  0  0  0  0  0  0  0  0  0  0
  189.4700  176.6320  141.7450 C   0  0  0  0  0  3  0  0  0  0  0  0
  191.7440  176.9260  142.1680 C   0  0  0  0  0  2  0  0  0  0  0  0
  1  6  1  0  0  0  0
  2 11  2  0  0  0  0
  2 12  1  0  0  0  0
  3 10  2  0  0  0  0
  4  8  1  0  0  0  0
  5  1  1  0  0  0  0
  7  9  1  0  0  0  0
  7  4  2  0  0  0  0
  8  1  1  0  0  0  0
  9  5  1  0  0  0  0
 10 11  1  0  0  0  0
 11  7  1  0  0  0  0
 12 15  2  0  0  0  0
 13  2  1  0  0  0  0
 14  3  1  0  0  0  0
 14 13  2  0  0  0  0
 15  4  1  0  0  0  0
 16 13  1  0  0  0  0
 17 20  1  0  0  0  0
 18 24  1  1  0  0  0
 18 17  1  0  0  0  0
 19 21  1  0  0  0  0
 21 20  1  0  0  0  0
 21 16  1  1  0  0  0
 22 18  1  0  0  0  0
 22 19  1  0  0  0  0
 23 24  3  0  0  0  0
 25  3  1  0  0  0  0
 26 25  1  0  0  0  0
 27 26  1  0  0  0  0
 28 29  1  6  0  0  0
 28 30  1  0  0  0  0
 28 27  1  0  0  0  0
 31 30  1  0  0  0  0
 31 34  1  0  0  0  0
 32 34  1  0  0  0  0
 34 35  1  6  0  0  0
 34 37  1  0  0  0  0
 36 33  1  6  0  0  0
 36 31  1  0  0  0  0
 36 32  1  0  0  0  0
 37 38  1  0  0  0  0
 38 42  1  0  0  0  0
 38 43  1  0  0  0  0
 40 41  1  0  0  0  0
 41 39  1  0  0  0  0
 42 40  2  0  0  0  0
 43 41  1  0  0  0  0
M  END
>  <MODEL>
9

>  <REMARK>
 VINA RESULT:      -7.7      2.441      4.804
  Name = 
  11 active torsions:
  status: ('A' for Active; 'I' for Inactive)
    1  A    between atoms: N_1  and  C_34
    2  A    between atoms: N_1  and  C_35
    3  A    between atoms: C_2  and  O_7
    4  A    between atoms: C_2  and  C_13
    5  A    between atoms: C_3  and  N_4
    6  A    between atoms: C_3  and  C_12
    7  A    between atoms: C_6  and  O_7
    8  A    between atoms: C_6  and  C_12
    9  A    between atoms: N_11  and  C_14
   10  A    between atoms: C_14  and  C_22
   11  A    between atoms: C_19  and  C_37
                            x       y       z     vdW  Elec       q    Type
                         _______ _______ _______ _____ _____    ______ ____

>  <TORSDO>
F 11

$$$$
