=
 OpenBabel10262420073D

 27 29  0  0  1  0  0  0  0  0999 V2000
  188.2470  177.7300  144.0830 C   0  0  2  0  0  3  0  0  0  0  0  0
  191.5300  176.5320  146.5890 C   0  0  0  0  0  2  0  0  0  0  0  0
  189.4400  177.7630  145.0480 C   0  0  2  0  0  3  0  0  0  0  0  0
  190.7280  177.1850  144.4530 C   0  0  0  0  0  2  0  0  0  0  0  0
  191.8300  177.3280  145.4010 N   0  0  0  0  0  2  0  0  0  0  0  0
  190.3110  177.1050  147.3060 C   0  0  0  0  0  2  0  0  0  0  0  0
  189.1060  177.0730  146.3710 C   0  0  0  0  0  2  0  0  0  0  0  0
  186.6650  177.1180  144.7910 S   0  0  0  0  0  0  0  0  0  0  0  0
  183.3220  179.1210  144.9240 C   0  0  0  0  0  3  0  0  0  0  0  0
  182.7630  178.8820  143.5500 C   0  0  0  0  0  2  0  0  0  0  0  0
  185.6170  178.4810  144.1850 C   0  0  1  0  0  3  0  0  0  0  0  0
  185.0250  179.1280  146.5320 O   0  0  0  0  0  1  0  0  0  0  0  0
  183.8470  179.0060  142.4870 C   0  0  0  0  0  2  0  0  0  0  0  0
  184.9880  178.0670  142.8510 C   0  0  0  0  0  2  0  0  0  0  0  0
  184.6040  178.8920  145.2310 C   0  0  0  0  0  0  0  0  0  0  0  0
  188.5810  177.0780  142.7520 C   0  0  0  0  0  2  0  0  0  0  0  0
  188.3420  178.0700  141.6270 C   0  0  0  0  0  2  0  0  0  0  0  0
  191.2660  176.7360  139.6560 C   0  0  0  0  0  3  0  0  0  0  0  0
  191.7180  176.5860  137.2980 O   0  0  0  0  0  1  0  0  0  0  0  0
  189.6690  177.6190  138.0670 C   0  0  0  0  0  0  0  0  0  0  0  0
  189.3000  177.8590  136.7480 O   0  0  0  0  0  1  0  0  0  0  0  0
  188.8260  178.0290  139.1140 C   0  0  0  0  0  0  0  0  0  0  0  0
  190.8840  176.9790  138.3390 C   0  0  0  0  0  0  0  0  0  0  0  0
  189.2110  177.7530  140.4540 C   0  0  0  0  0  0  0  0  0  0  0  0
  190.4330  177.1160  140.7060 C   0  0  0  0  0  3  0  0  0  0  0  0
  186.4220  178.0540  138.3980 C   0  0  0  0  0  1  0  0  0  0  0  0
  187.6380  178.6920  138.7590 O   0  0  0  0  0  0  0  0  0  0  0  0
  1 16  1  6  0  0  0
  1  8  1  0  0  0  0
  2  6  1  0  0  0  0
  3  1  1  6  0  0  0
  3  7  1  0  0  0  0
  4  3  1  0  0  0  0
  4  5  1  0  0  0  0
  5  2  1  0  0  0  0
  7  6  1  0  0  0  0
  9 15  2  0  0  0  0
 10  9  1  0  0  0  0
 11  8  1  1  0  0  0
 11 15  1  0  0  0  0
 13 14  1  0  0  0  0
 13 10  1  0  0  0  0
 14 11  1  0  0  0  0
 15 12  1  0  0  0  0
 17 16  1  0  0  0  0
 18 25  1  0  0  0  0
 19 23  1  0  0  0  0
 20 23  1  0  0  0  0
 20 22  2  0  0  0  0
 21 20  1  0  0  0  0
 22 24  1  0  0  0  0
 23 18  2  0  0  0  0
 24 25  2  0  0  0  0
 24 17  1  0  0  0  0
 26 27  1  0  0  0  0
 27 22  1  0  0  0  0
M  END
>  <MODEL>
1

>  <REMARK>
 VINA RESULT:      -8.3      0.000      0.000
  Name = 
  7 active torsions:
  status: ('A' for Active; 'I' for Inactive)
    1  A    between atoms: S_1  and  C_15
    2  A    between atoms: S_1  and  C_18
    3  A    between atoms: C_2  and  C_6
    4  A    between atoms: C_2  and  C_15
    5  A    between atoms: C_6  and  C_17
    6  A    between atoms: C_9  and  C_15
    7  A    between atoms: C_14  and  O_19
                            x       y       z     vdW  Elec       q    Type
                         _______ _______ _______ _____ _____    ______ ____

>  <TORSDO>
F 7

$$$$
=
 OpenBabel10262420073D

 27 29  0  0  1  0  0  0  0  0999 V2000
  188.3470  177.4840  144.3030 C   0  0  2  0  0  3  0  0  0  0  0  0
  191.2630  176.6210  147.3440 C   0  0  0  0  0  2  0  0  0  0  0  0
  189.4680  177.6330  145.3400 C   0  0  2  0  0  3  0  0  0  0  0  0
  190.6990  176.7700  145.0430 C   0  0  0  0  0  2  0  0  0  0  0  0
  191.7470  177.0310  146.0270 N   0  0  0  0  0  2  0  0  0  0  0  0
  190.0920  177.5030  147.7660 C   0  0  0  0  0  2  0  0  0  0  0  0
  188.9570  177.3640  146.7560 C   0  0  0  0  0  2  0  0  0  0  0  0
  186.7060  176.9860  144.9670 S   0  0  0  0  0  0  0  0  0  0  0  0
  183.4210  179.0790  144.7940 C   0  0  0  0  0  3  0  0  0  0  0  0
  183.0070  178.8860  143.3630 C   0  0  0  0  0  2  0  0  0  0  0  0
  185.7650  178.3910  144.2880 C   0  0  1  0  0  3  0  0  0  0  0  0
  184.9420  179.0020  146.5740 O   0  0  0  0  0  1  0  0  0  0  0  0
  184.2000  179.0030  142.4250 C   0  0  0  0  0  2  0  0  0  0  0  0
  185.2710  178.0250  142.8850 C   0  0  0  0  0  2  0  0  0  0  0  0
  184.6560  178.8070  145.2300 C   0  0  0  0  0  0  0  0  0  0  0  0
  188.7630  176.6580  143.0980 C   0  0  0  0  0  2  0  0  0  0  0  0
  188.6450  177.5010  141.8400 C   0  0  0  0  0  2  0  0  0  0  0  0
  192.3200  177.4910  140.9960 C   0  0  0  0  0  3  0  0  0  0  0  0
  193.5350  176.9880  138.9810 O   0  0  0  0  0  1  0  0  0  0  0  0
  191.1160  176.9090  138.9780 C   0  0  0  0  0  0  0  0  0  0  0  0
  191.1330  176.5490  137.6360 O   0  0  0  0  0  1  0  0  0  0  0  0
  189.8880  177.0590  139.6460 C   0  0  0  0  0  0  0  0  0  0  0  0
  192.3250  177.1280  139.6510 C   0  0  0  0  0  0  0  0  0  0  0  0
  189.8930  177.4040  141.0250 C   0  0  0  0  0  0  0  0  0  0  0  0
  191.1130  177.6240  141.6780 C   0  0  0  0  0  3  0  0  0  0  0  0
  187.9350  177.8780  138.3020 C   0  0  0  0  0  1  0  0  0  0  0  0
  188.7190  176.8510  138.8940 O   0  0  0  0  0  0  0  0  0  0  0  0
  1 16  1  6  0  0  0
  1  8  1  0  0  0  0
  2  6  1  0  0  0  0
  3  1  1  6  0  0  0
  3  7  1  0  0  0  0
  4  3  1  0  0  0  0
  4  5  1  0  0  0  0
  5  2  1  0  0  0  0
  7  6  1  0  0  0  0
  9 15  2  0  0  0  0
 10  9  1  0  0  0  0
 11  8  1  1  0  0  0
 11 15  1  0  0  0  0
 13 14  1  0  0  0  0
 13 10  1  0  0  0  0
 14 11  1  0  0  0  0
 15 12  1  0  0  0  0
 17 16  1  0  0  0  0
 18 25  1  0  0  0  0
 19 23  1  0  0  0  0
 20 22  2  0  0  0  0
 20 23  1  0  0  0  0
 21 20  1  0  0  0  0
 22 24  1  0  0  0  0
 23 18  2  0  0  0  0
 24 25  2  0  0  0  0
 24 17  1  0  0  0  0
 26 27  1  0  0  0  0
 27 22  1  0  0  0  0
M  END
>  <MODEL>
2

>  <REMARK>
 VINA RESULT:      -8.3      0.970      1.194
  Name = 
  7 active torsions:
  status: ('A' for Active; 'I' for Inactive)
    1  A    between atoms: S_1  and  C_15
    2  A    between atoms: S_1  and  C_18
    3  A    between atoms: C_2  and  C_6
    4  A    between atoms: C_2  and  C_15
    5  A    between atoms: C_6  and  C_17
    6  A    between atoms: C_9  and  C_15
    7  A    between atoms: C_14  and  O_19
                            x       y       z     vdW  Elec       q    Type
                         _______ _______ _______ _____ _____    ______ ____

>  <TORSDO>
F 7

$$$$
=
 OpenBabel10262420073D

 27 29  0  0  1  0  0  0  0  0999 V2000
  188.3680  177.7760  144.3630 C   0  0  2  0  0  3  0  0  0  0  0  0
  191.3220  176.4140  147.1770 C   0  0  0  0  0  2  0  0  0  0  0  0
  189.5120  177.7480  145.3850 C   0  0  2  0  0  3  0  0  0  0  0  0
  190.7160  176.9120  144.9360 C   0  0  0  0  0  2  0  0  0  0  0  0
  191.7890  177.0020  145.9240 N   0  0  0  0  0  2  0  0  0  0  0  0
  190.1810  177.2500  147.7500 C   0  0  0  0  0  2  0  0  0  0  0  0
  189.0230  177.2850  146.7570 C   0  0  0  0  0  2  0  0  0  0  0  0
  186.7550  177.1210  144.9540 S   0  0  0  0  0  0  0  0  0  0  0  0
  183.3600  179.0370  144.8750 C   0  0  0  0  0  3  0  0  0  0  0  0
  182.9190  178.8270  143.4540 C   0  0  0  0  0  2  0  0  0  0  0  0
  185.7230  178.4760  144.3050 C   0  0  1  0  0  3  0  0  0  0  0  0
  184.9300  179.0370  146.6130 O   0  0  0  0  0  1  0  0  0  0  0  0
  184.0800  179.0090  142.4850 C   0  0  0  0  0  2  0  0  0  0  0  0
  185.2120  178.0880  142.9130 C   0  0  0  0  0  2  0  0  0  0  0  0
  184.6190  178.8310  145.2770 C   0  0  0  0  0  0  0  0  0  0  0  0
  188.7680  177.2090  143.0120 C   0  0  0  0  0  2  0  0  0  0  0  0
  189.0160  178.3470  142.0370 C   0  0  0  0  0  2  0  0  0  0  0  0
  187.2700  177.9650  138.7170 C   0  0  0  0  0  3  0  0  0  0  0  0
  187.9150  176.9420  136.6380 O   0  0  0  0  0  1  0  0  0  0  0  0
  189.4110  176.8510  138.5370 C   0  0  0  0  0  0  0  0  0  0  0  0
  190.3300  176.1390  137.7750 O   0  0  0  0  0  1  0  0  0  0  0  0
  189.7020  177.1540  139.8790 C   0  0  0  0  0  0  0  0  0  0  0  0
  188.2000  177.2530  137.9620 C   0  0  0  0  0  0  0  0  0  0  0  0
  188.7590  177.9030  140.6350 C   0  0  0  0  0  0  0  0  0  0  0  0
  187.5500  178.2910  140.0430 C   0  0  0  0  0  3  0  0  0  0  0  0
  192.1180  177.4550  140.4810 C   0  0  0  0  0  1  0  0  0  0  0  0
  190.9250  176.6890  140.3910 O   0  0  0  0  0  0  0  0  0  0  0  0
  1 16  1  6  0  0  0
  1  8  1  0  0  0  0
  2  6  1  0  0  0  0
  3  1  1  6  0  0  0
  3  7  1  0  0  0  0
  4  3  1  0  0  0  0
  4  5  1  0  0  0  0
  5  2  1  0  0  0  0
  7  6  1  0  0  0  0
  9 15  2  0  0  0  0
 10  9  1  0  0  0  0
 11  8  1  1  0  0  0
 11 15  1  0  0  0  0
 13 14  1  0  0  0  0
 13 10  1  0  0  0  0
 14 11  1  0  0  0  0
 15 12  1  0  0  0  0
 17 16  1  0  0  0  0
 18 25  1  0  0  0  0
 19 23  1  0  0  0  0
 20 22  2  0  0  0  0
 21 20  1  0  0  0  0
 22 27  1  0  0  0  0
 22 24  1  0  0  0  0
 23 20  1  0  0  0  0
 23 18  2  0  0  0  0
 24 17  1  0  0  0  0
 25 24  2  0  0  0  0
 27 26  1  0  0  0  0
M  END
>  <MODEL>
3

>  <REMARK>
 VINA RESULT:      -8.2      1.015      2.079
  Name = 
  7 active torsions:
  status: ('A' for Active; 'I' for Inactive)
    1  A    between atoms: S_1  and  C_15
    2  A    between atoms: S_1  and  C_18
    3  A    between atoms: C_2  and  C_6
    4  A    between atoms: C_2  and  C_15
    5  A    between atoms: C_6  and  C_17
    6  A    between atoms: C_9  and  C_15
    7  A    between atoms: C_14  and  O_19
                            x       y       z     vdW  Elec       q    Type
                         _______ _______ _______ _____ _____    ______ ____

>  <TORSDO>
F 7

$$$$
=
 OpenBabel10262420073D

 27 29  0  0  1  0  0  0  0  0999 V2000
  187.9280  177.9470  142.4640 C   0  0  2  0  0  3  0  0  0  0  0  0
  190.2340  177.2510  138.9010 C   0  0  0  0  0  2  0  0  0  0  0  0
  188.9430  178.1030  141.3240 C   0  0  2  0  0  3  0  0  0  0  0  0
  188.3010  178.1650  139.9340 C   0  0  0  0  0  2  0  0  0  0  0  0
  189.3240  178.3950  138.9160 N   0  0  0  0  0  2  0  0  0  0  0  0
  190.9950  177.1750  140.2210 C   0  0  0  0  0  2  0  0  0  0  0  0
  190.0080  177.0080  141.3720 C   0  0  0  0  0  2  0  0  0  0  0  0
  188.3040  176.6330  143.6930 S   0  0  0  0  0  0  0  0  0  0  0  0
  189.4050  177.3090  147.3720 C   0  0  0  0  0  3  0  0  0  0  0  0
  188.0840  177.3680  148.0840 C   0  0  0  0  0  2  0  0  0  0  0  0
  188.3190  177.7110  145.1620 C   0  0  1  0  0  3  0  0  0  0  0  0
  190.7750  177.3300  145.4720 O   0  0  0  0  0  1  0  0  0  0  0  0
  187.0650  178.1710  147.2860 C   0  0  0  0  0  2  0  0  0  0  0  0
  186.9750  177.5790  145.8870 C   0  0  0  0  0  2  0  0  0  0  0  0
  189.5120  177.4120  146.0430 C   0  0  0  0  0  0  0  0  0  0  0  0
  186.4910  177.8930  141.9730 C   0  0  0  0  0  2  0  0  0  0  0  0
  185.8160  179.2280  142.2320 C   0  0  0  0  0  2  0  0  0  0  0  0
  182.8140  179.0560  144.5060 C   0  0  0  0  0  3  0  0  0  0  0  0
  180.4700  178.7020  144.0970 O   0  0  0  0  0  1  0  0  0  0  0  0
  182.0330  178.6510  142.2510 C   0  0  0  0  0  0  0  0  0  0  0  0
  180.9840  178.3970  141.3750 O   0  0  0  0  0  1  0  0  0  0  0  0
  183.3470  178.7420  141.7600 C   0  0  0  0  0  0  0  0  0  0  0  0
  181.7700  178.8040  143.6180 C   0  0  0  0  0  0  0  0  0  0  0  0
  184.4020  179.0250  142.6700 C   0  0  0  0  0  0  0  0  0  0  0  0
  184.1190  179.1700  144.0340 C   0  0  0  0  0  3  0  0  0  0  0  0
  183.5990  179.5800  139.4090 C   0  0  0  0  0  1  0  0  0  0  0  0
  183.5320  178.5460  140.3810 O   0  0  0  0  0  0  0  0  0  0  0  0
  1 16  1  6  0  0  0
  1  8  1  0  0  0  0
  2  5  1  0  0  0  0
  2  6  1  0  0  0  0
  3  7  1  0  0  0  0
  3  1  1  1  0  0  0
  4  3  1  0  0  0  0
  5  4  1  0  0  0  0
  6  7  1  0  0  0  0
  9 10  1  0  0  0  0
 11  8  1  6  0  0  0
 11 14  1  0  0  0  0
 11 15  1  0  0  0  0
 12 15  1  0  0  0  0
 13 10  1  0  0  0  0
 14 13  1  0  0  0  0
 15  9  2  0  0  0  0
 16 17  1  0  0  0  0
 17 24  1  0  0  0  0
 20 23  1  0  0  0  0
 21 20  1  0  0  0  0
 22 20  2  0  0  0  0
 22 24  1  0  0  0  0
 23 19  1  0  0  0  0
 23 18  2  0  0  0  0
 24 25  2  0  0  0  0
 25 18  1  0  0  0  0
 26 27  1  0  0  0  0
 27 22  1  0  0  0  0
M  END
>  <MODEL>
4

>  <REMARK>
 VINA RESULT:      -8.1      3.031      6.612
  Name = 
  7 active torsions:
  status: ('A' for Active; 'I' for Inactive)
    1  A    between atoms: S_1  and  C_15
    2  A    between atoms: S_1  and  C_18
    3  A    between atoms: C_2  and  C_6
    4  A    between atoms: C_2  and  C_15
    5  A    between atoms: C_6  and  C_17
    6  A    between atoms: C_9  and  C_15
    7  A    between atoms: C_14  and  O_19
                            x       y       z     vdW  Elec       q    Type
                         _______ _______ _______ _____ _____    ______ ____

>  <TORSDO>
F 7

$$$$
=
 OpenBabel10262420073D

 27 29  0  0  1  0  0  0  0  0999 V2000
  189.3650  177.2380  141.4480 C   0  0  2  0  0  3  0  0  0  0  0  0
  191.6340  177.1420  145.1000 C   0  0  0  0  0  2  0  0  0  0  0  0
  190.5290  177.2290  142.4480 C   0  0  2  0  0  3  0  0  0  0  0  0
  190.5750  175.9730  143.3250 C   0  0  0  0  0  2  0  0  0  0  0  0
  191.7530  176.0050  144.1890 N   0  0  0  0  0  2  0  0  0  0  0  0
  191.6820  178.4480  144.3120 C   0  0  0  0  0  2  0  0  0  0  0  0
  190.5270  178.4870  143.3160 C   0  0  0  0  0  2  0  0  0  0  0  0
  189.7670  177.8510  139.7620 S   0  0  0  0  0  0  0  0  0  0  0  0
  192.9140  176.3770  137.9940 C   0  0  0  0  0  3  0  0  0  0  0  0
  192.3000  175.6120  136.8560 C   0  0  0  0  0  2  0  0  0  0  0  0
  190.7530  176.4100  139.2390 C   0  0  1  0  0  3  0  0  0  0  0  0
  192.8580  177.5020  140.0480 O   0  0  0  0  0  1  0  0  0  0  0  0
  191.0760  174.8310  137.3170 C   0  0  0  0  0  2  0  0  0  0  0  0
  190.1130  175.7980  137.9890 C   0  0  0  0  0  2  0  0  0  0  0  0
  192.2060  176.7860  139.0520 C   0  0  0  0  0  0  0  0  0  0  0  0
  188.1040  177.8710  142.0130 C   0  0  0  0  0  2  0  0  0  0  0  0
  187.3700  176.8570  142.8720 C   0  0  0  0  0  2  0  0  0  0  0  0
  187.3150  178.1950  146.3970 C   0  0  0  0  0  3  0  0  0  0  0  0
  185.6820  179.4400  147.6490 O   0  0  0  0  0  1  0  0  0  0  0  0
  185.1880  178.7470  145.3840 C   0  0  0  0  0  0  0  0  0  0  0  0
  183.9370  179.3480  145.4770 O   0  0  0  0  0  1  0  0  0  0  0  0
  185.5600  178.0880  144.1990 C   0  0  0  0  0  0  0  0  0  0  0  0
  186.0610  178.7960  146.4770 C   0  0  0  0  0  0  0  0  0  0  0  0
  186.8520  177.5000  144.1160 C   0  0  0  0  0  0  0  0  0  0  0  0
  187.7090  177.5560  145.2230 C   0  0  0  0  0  3  0  0  0  0  0  0
  184.5210  179.0120  142.1110 C   0  0  0  0  0  1  0  0  0  0  0  0
  184.6160  178.0570  143.1590 O   0  0  0  0  0  0  0  0  0  0  0  0
  1 16  1  1  0  0  0
  3  1  1  1  0  0  0
  3  7  1  0  0  0  0
  3  4  1  0  0  0  0
  4  5  1  0  0  0  0
  5  2  1  0  0  0  0
  6  2  1  0  0  0  0
  7  6  1  0  0  0  0
  8  1  1  0  0  0  0
  9 15  2  0  0  0  0
 10 13  1  0  0  0  0
 10  9  1  0  0  0  0
 11  8  1  6  0  0  0
 13 14  1  0  0  0  0
 14 11  1  0  0  0  0
 15 11  1  0  0  0  0
 15 12  1  0  0  0  0
 16 17  1  0  0  0  0
 17 24  1  0  0  0  0
 18 23  1  0  0  0  0
 20 21  1  0  0  0  0
 20 23  2  0  0  0  0
 22 20  1  0  0  0  0
 23 19  1  0  0  0  0
 24 22  2  0  0  0  0
 24 25  1  0  0  0  0
 25 18  2  0  0  0  0
 26 27  1  0  0  0  0
 27 22  1  0  0  0  0
M  END
>  <MODEL>
5

>  <REMARK>
 VINA RESULT:      -8.0      2.474      7.251
  Name = 
  7 active torsions:
  status: ('A' for Active; 'I' for Inactive)
    1  A    between atoms: S_1  and  C_15
    2  A    between atoms: S_1  and  C_18
    3  A    between atoms: C_2  and  C_6
    4  A    between atoms: C_2  and  C_15
    5  A    between atoms: C_6  and  C_17
    6  A    between atoms: C_9  and  C_15
    7  A    between atoms: C_14  and  O_19
                            x       y       z     vdW  Elec       q    Type
                         _______ _______ _______ _____ _____    ______ ____

>  <TORSDO>
F 7

$$$$
=
 OpenBabel10262420073D

 27 29  0  0  1  0  0  0  0  0999 V2000
  188.6780  177.4170  143.4700 C   0  0  2  0  0  3  0  0  0  0  0  0
  190.6540  176.7320  147.2280 C   0  0  0  0  0  2  0  0  0  0  0  0
  189.4430  177.6340  144.7820 C   0  0  2  0  0  3  0  0  0  0  0  0
  190.7630  176.8580  144.8600 C   0  0  0  0  0  2  0  0  0  0  0  0
  191.4660  177.1820  146.0990 N   0  0  0  0  0  2  0  0  0  0  0  0
  189.3550  177.5310  147.2860 C   0  0  0  0  0  2  0  0  0  0  0  0
  188.5680  177.3230  145.9960 C   0  0  0  0  0  2  0  0  0  0  0  0
  189.1510  178.5210  142.0780 S   0  0  0  0  0  0  0  0  0  0  0  0
  191.5360  177.0760  139.3540 C   0  0  0  0  0  3  0  0  0  0  0  0
  190.6430  177.0400  138.1470 C   0  0  0  0  0  2  0  0  0  0  0  0
  189.5790  177.2030  140.8950 C   0  0  1  0  0  3  0  0  0  0  0  0
  191.9670  177.2390  141.6500 O   0  0  0  0  0  1  0  0  0  0  0  0
  189.2580  176.5150  138.5030 C   0  0  0  0  0  2  0  0  0  0  0  0
  188.7050  177.3540  139.6460 C   0  0  0  0  0  2  0  0  0  0  0  0
  191.0630  177.2000  140.5980 C   0  0  0  0  0  0  0  0  0  0  0  0
  187.1740  177.3410  143.6680 C   0  0  0  0  0  2  0  0  0  0  0  0
  186.4800  178.2000  142.6260 C   0  0  0  0  0  2  0  0  0  0  0  0
  183.4010  178.8430  144.7040 C   0  0  0  0  0  3  0  0  0  0  0  0
  181.0790  179.1290  144.1440 O   0  0  0  0  0  1  0  0  0  0  0  0
  182.6880  178.6570  142.3990 C   0  0  0  0  0  0  0  0  0  0  0  0
  181.6680  178.6910  141.4550 O   0  0  0  0  0  1  0  0  0  0  0  0
  184.0070  178.3920  141.9930 C   0  0  0  0  0  0  0  0  0  0  0  0
  182.3880  178.8780  143.7490 C   0  0  0  0  0  0  0  0  0  0  0  0
  185.0390  178.3840  142.9710 C   0  0  0  0  0  0  0  0  0  0  0  0
  184.7180  178.6030  144.3170 C   0  0  0  0  0  3  0  0  0  0  0  0
  184.5640  179.1380  139.6640 C   0  0  0  0  0  1  0  0  0  0  0  0
  184.2210  178.1500  140.6250 O   0  0  0  0  0  0  0  0  0  0  0  0
  1 16  1  1  0  0  0
  2  6  1  0  0  0  0
  3  1  1  6  0  0  0
  3  4  1  0  0  0  0
  3  7  1  0  0  0  0
  4  5  1  0  0  0  0
  5  2  1  0  0  0  0
  7  6  1  0  0  0  0
  8  1  1  0  0  0  0
  9 15  2  0  0  0  0
 10 13  1  0  0  0  0
 10  9  1  0  0  0  0
 11  8  1  1  0  0  0
 13 14  1  0  0  0  0
 14 11  1  0  0  0  0
 15 11  1  0  0  0  0
 15 12  1  0  0  0  0
 17 24  1  0  0  0  0
 17 16  1  0  0  0  0
 20 23  1  0  0  0  0
 21 20  1  0  0  0  0
 22 20  2  0  0  0  0
 22 24  1  0  0  0  0
 23 19  1  0  0  0  0
 23 18  2  0  0  0  0
 24 25  2  0  0  0  0
 25 18  1  0  0  0  0
 26 27  1  0  0  0  0
 27 22  1  0  0  0  0
M  END
>  <MODEL>
6

>  <REMARK>
 VINA RESULT:      -8.0      2.190      6.408
  Name = 
  7 active torsions:
  status: ('A' for Active; 'I' for Inactive)
    1  A    between atoms: S_1  and  C_15
    2  A    between atoms: S_1  and  C_18
    3  A    between atoms: C_2  and  C_6
    4  A    between atoms: C_2  and  C_15
    5  A    between atoms: C_6  and  C_17
    6  A    between atoms: C_9  and  C_15
    7  A    between atoms: C_14  and  O_19
                            x       y       z     vdW  Elec       q    Type
                         _______ _______ _______ _____ _____    ______ ____

>  <TORSDO>
F 7

$$$$
=
 OpenBabel10262420073D

 27 29  0  0  1  0  0  0  0  0999 V2000
  189.4180  177.5380  141.3160 C   0  0  2  0  0  3  0  0  0  0  0  0
  191.5060  176.7220  144.9860 C   0  0  0  0  0  2  0  0  0  0  0  0
  190.5310  177.2990  142.3440 C   0  0  2  0  0  3  0  0  0  0  0  0
  190.4700  175.9180  143.0070 C   0  0  0  0  0  2  0  0  0  0  0  0
  191.6070  175.7410  143.9080 N   0  0  0  0  0  2  0  0  0  0  0  0
  191.6600  178.1320  144.4230 C   0  0  0  0  0  2  0  0  0  0  0  0
  190.5560  178.4000  143.4050 C   0  0  0  0  0  2  0  0  0  0  0  0
  189.9770  177.8760  139.5980 S   0  0  0  0  0  0  0  0  0  0  0  0
  188.9850  175.6390  136.5620 C   0  0  0  0  0  3  0  0  0  0  0  0
  187.8010  176.3780  136.0070 C   0  0  0  0  0  2  0  0  0  0  0  0
  188.7720  176.7940  138.7630 C   0  0  1  0  0  3  0  0  0  0  0  0
  190.5710  175.1400  138.2130 O   0  0  0  0  0  1  0  0  0  0  0  0
  186.8750  176.8480  137.1220 C   0  0  0  0  0  2  0  0  0  0  0  0
  187.6910  177.6640  138.1130 C   0  0  0  0  0  2  0  0  0  0  0  0
  189.4610  175.8600  137.7920 C   0  0  0  0  0  0  0  0  0  0  0  0
  188.3730  178.5320  141.7950 C   0  0  0  0  0  2  0  0  0  0  0  0
  187.0200  177.8480  141.8730 C   0  0  0  0  0  2  0  0  0  0  0  0
  186.7180  177.6800  145.6280 C   0  0  0  0  0  3  0  0  0  0  0  0
  185.0710  178.5040  147.1750 O   0  0  0  0  0  1  0  0  0  0  0  0
  184.7530  178.8240  144.7970 C   0  0  0  0  0  0  0  0  0  0  0  0
  183.5510  179.4760  145.0500 O   0  0  0  0  0  1  0  0  0  0  0  0
  185.1890  178.6500  143.4720 C   0  0  0  0  0  0  0  0  0  0  0  0
  185.5130  178.3370  145.8680 C   0  0  0  0  0  0  0  0  0  0  0  0
  186.4320  178.0010  143.2380 C   0  0  0  0  0  0  0  0  0  0  0  0
  187.1750  177.5170  144.3220 C   0  0  0  0  0  3  0  0  0  0  0  0
  183.4440  178.3550  141.6940 C   0  0  0  0  0  1  0  0  0  0  0  0
  184.3540  179.1390  142.4530 O   0  0  0  0  0  0  0  0  0  0  0  0
  1 16  1  1  0  0  0
  3  1  1  6  0  0  0
  3  4  1  0  0  0  0
  3  7  1  0  0  0  0
  4  5  1  0  0  0  0
  5  2  1  0  0  0  0
  6  2  1  0  0  0  0
  7  6  1  0  0  0  0
  8  1  1  0  0  0  0
  9 15  2  0  0  0  0
 10  9  1  0  0  0  0
 10 13  1  0  0  0  0
 11  8  1  6  0  0  0
 13 14  1  0  0  0  0
 14 11  1  0  0  0  0
 15 12  1  0  0  0  0
 15 11  1  0  0  0  0
 16 17  1  0  0  0  0
 17 24  1  0  0  0  0
 18 23  1  0  0  0  0
 20 21  1  0  0  0  0
 20 23  2  0  0  0  0
 22 20  1  0  0  0  0
 23 19  1  0  0  0  0
 24 22  2  0  0  0  0
 24 25  1  0  0  0  0
 25 18  2  0  0  0  0
 26 27  1  0  0  0  0
 27 22  1  0  0  0  0
M  END
>  <MODEL>
7

>  <REMARK>
 VINA RESULT:      -7.9      2.233      6.665
  Name = 
  7 active torsions:
  status: ('A' for Active; 'I' for Inactive)
    1  A    between atoms: S_1  and  C_15
    2  A    between atoms: S_1  and  C_18
    3  A    between atoms: C_2  and  C_6
    4  A    between atoms: C_2  and  C_15
    5  A    between atoms: C_6  and  C_17
    6  A    between atoms: C_9  and  C_15
    7  A    between atoms: C_14  and  O_19
                            x       y       z     vdW  Elec       q    Type
                         _______ _______ _______ _____ _____    ______ ____

>  <TORSDO>
F 7

$$$$
=
 OpenBabel10262420073D

 27 29  0  0  1  0  0  0  0  0999 V2000
  187.9520  178.2470  142.2160 C   0  0  2  0  0  3  0  0  0  0  0  0
  190.1540  177.0560  138.7190 C   0  0  0  0  0  2  0  0  0  0  0  0
  188.9790  178.2060  141.0770 C   0  0  2  0  0  3  0  0  0  0  0  0
  188.3510  178.2650  139.6800 C   0  0  0  0  0  2  0  0  0  0  0  0
  189.3960  178.3030  138.6590 N   0  0  0  0  0  2  0  0  0  0  0  0
  190.8990  176.9620  140.0480 C   0  0  0  0  0  2  0  0  0  0  0  0
  189.8980  176.9890  141.1990 C   0  0  0  0  0  2  0  0  0  0  0  0
  187.9630  176.8020  143.3530 S   0  0  0  0  0  0  0  0  0  0  0  0
  189.9560  177.1260  146.6890 C   0  0  0  0  0  3  0  0  0  0  0  0
  188.8560  177.0940  147.7110 C   0  0  0  0  0  2  0  0  0  0  0  0
  188.3560  177.7290  144.8730 C   0  0  1  0  0  3  0  0  0  0  0  0
  190.8070  177.3570  144.5190 O   0  0  0  0  0  1  0  0  0  0  0  0
  187.6780  177.9560  147.2770 C   0  0  0  0  0  2  0  0  0  0  0  0
  187.2350  177.5050  145.8940 C   0  0  0  0  0  2  0  0  0  0  0  0
  189.7290  177.3630  145.3920 C   0  0  0  0  0  0  0  0  0  0  0  0
  186.5540  178.6020  141.7390 C   0  0  0  0  0  2  0  0  0  0  0  0
  185.5400  178.2060  142.7980 C   0  0  0  0  0  2  0  0  0  0  0  0
  182.5640  177.9540  140.4970 C   0  0  0  0  0  3  0  0  0  0  0  0
  180.2570  178.5950  140.7300 O   0  0  0  0  0  1  0  0  0  0  0  0
  181.8180  179.0510  142.5220 C   0  0  0  0  0  0  0  0  0  0  0  0
  180.7930  179.6280  143.2630 O   0  0  0  0  0  1  0  0  0  0  0  0
  183.1200  179.0010  143.0500 C   0  0  0  0  0  0  0  0  0  0  0  0
  181.5440  178.5330  141.2500 C   0  0  0  0  0  0  0  0  0  0  0  0
  184.1490  178.3850  142.2860 C   0  0  0  0  0  0  0  0  0  0  0  0
  183.8550  177.8770  141.0140 C   0  0  0  0  0  3  0  0  0  0  0  0
  183.8050  178.8760  145.4600 C   0  0  0  0  0  1  0  0  0  0  0  0
  183.3200  179.5700  144.3190 O   0  0  0  0  0  0  0  0  0  0  0  0
  1 16  1  6  0  0  0
  1  8  1  0  0  0  0
  2  6  1  0  0  0  0
  3  7  1  0  0  0  0
  3  1  1  1  0  0  0
  4  3  1  0  0  0  0
  5  2  1  0  0  0  0
  5  4  1  0  0  0  0
  6  7  1  0  0  0  0
  9 10  1  0  0  0  0
 11  8  1  6  0  0  0
 11 15  1  0  0  0  0
 11 14  1  0  0  0  0
 12 15  1  0  0  0  0
 13 10  1  0  0  0  0
 14 13  1  0  0  0  0
 15  9  2  0  0  0  0
 16 17  1  0  0  0  0
 18 25  2  0  0  0  0
 18 23  1  0  0  0  0
 19 23  1  0  0  0  0
 20 22  1  0  0  0  0
 20 21  1  0  0  0  0
 22 27  1  0  0  0  0
 23 20  2  0  0  0  0
 24 17  1  0  0  0  0
 24 22  2  0  0  0  0
 25 24  1  0  0  0  0
 27 26  1  0  0  0  0
M  END
>  <MODEL>
8

>  <REMARK>
 VINA RESULT:      -7.8      3.037      6.836
  Name = 
  7 active torsions:
  status: ('A' for Active; 'I' for Inactive)
    1  A    between atoms: S_1  and  C_15
    2  A    between atoms: S_1  and  C_18
    3  A    between atoms: C_2  and  C_6
    4  A    between atoms: C_2  and  C_15
    5  A    between atoms: C_6  and  C_17
    6  A    between atoms: C_9  and  C_15
    7  A    between atoms: C_14  and  O_19
                            x       y       z     vdW  Elec       q    Type
                         _______ _______ _______ _____ _____    ______ ____

>  <TORSDO>
F 7

$$$$
=
 OpenBabel10262420073D

 27 29  0  0  1  0  0  0  0  0999 V2000
  182.6930  178.7940  141.6170 C   0  0  2  0  0  3  0  0  0  0  0  0
  178.9630  179.5350  143.6270 C   0  0  0  0  0  2  0  0  0  0  0  0
  181.2730  178.6280  142.1770 C   0  0  2  0  0  3  0  0  0  0  0  0
  180.2820  179.6760  141.6580 C   0  0  0  0  0  2  0  0  0  0  0  0
  178.9420  179.4000  142.1720 N   0  0  0  0  0  2  0  0  0  0  0  0
  179.8540  178.4560  144.2370 C   0  0  0  0  0  2  0  0  0  0  0  0
  181.2760  178.6060  143.7050 C   0  0  0  0  0  2  0  0  0  0  0  0
  183.2660  177.4610  140.4890 S   0  0  0  0  0  0  0  0  0  0  0  0
  182.3840  180.7190  138.5370 C   0  0  0  0  0  3  0  0  0  0  0  0
  180.9820  180.4350  138.0800 C   0  0  0  0  0  2  0  0  0  0  0  0
  182.8280  178.2960  138.9290 C   0  0  1  0  0  3  0  0  0  0  0  0
  184.4820  180.1190  139.3880 O   0  0  0  0  0  1  0  0  0  0  0  0
  180.8500  179.0100  137.5600 C   0  0  0  0  0  2  0  0  0  0  0  0
  181.3420  178.0570  138.6400 C   0  0  0  0  0  2  0  0  0  0  0  0
  183.2080  179.7590  138.9710 C   0  0  0  0  0  0  0  0  0  0  0  0
  183.7150  179.1310  142.6880 C   0  0  0  0  0  2  0  0  0  0  0  0
  184.8950  178.1820  142.5810 C   0  0  0  0  0  2  0  0  0  0  0  0
  185.6570  178.5940  146.2500 C   0  0  0  0  0  3  0  0  0  0  0  0
  187.5340  177.9580  147.6130 O   0  0  0  0  0  1  0  0  0  0  0  0
  187.5690  177.5120  145.2350 C   0  0  0  0  0  0  0  0  0  0  0  0
  188.8310  176.9430  145.3640 O   0  0  0  0  0  1  0  0  0  0  0  0
  186.9590  177.5800  143.9700 C   0  0  0  0  0  0  0  0  0  0  0  0
  186.9210  178.0200  146.3680 C   0  0  0  0  0  0  0  0  0  0  0  0
  185.6580  178.1450  143.8640 C   0  0  0  0  0  0  0  0  0  0  0  0
  185.0290  178.6520  145.0080 C   0  0  0  0  0  3  0  0  0  0  0  0
  188.4720  177.8570  141.9890 C   0  0  0  0  0  1  0  0  0  0  0  0
  187.6870  177.0760  142.8790 O   0  0  0  0  0  0  0  0  0  0  0  0
  1 16  1  1  0  0  0
  2  6  1  0  0  0  0
  3  1  1  1  0  0  0
  3  7  1  0  0  0  0
  4  5  1  0  0  0  0
  4  3  1  0  0  0  0
  5  2  1  0  0  0  0
  7  6  1  0  0  0  0
  8  1  1  0  0  0  0
  9 15  2  0  0  0  0
 10  9  1  0  0  0  0
 11 15  1  0  0  0  0
 11  8  1  1  0  0  0
 13 10  1  0  0  0  0
 13 14  1  0  0  0  0
 14 11  1  0  0  0  0
 15 12  1  0  0  0  0
 17 16  1  0  0  0  0
 17 24  1  0  0  0  0
 18 23  1  0  0  0  0
 20 21  1  0  0  0  0
 20 23  2  0  0  0  0
 22 20  1  0  0  0  0
 23 19  1  0  0  0  0
 24 22  2  0  0  0  0
 24 25  1  0  0  0  0
 25 18  2  0  0  0  0
 26 27  1  0  0  0  0
 27 22  1  0  0  0  0
M  END
>  <MODEL>
9

>  <REMARK>
 VINA RESULT:      -7.5      4.124      7.898
  Name = 
  7 active torsions:
  status: ('A' for Active; 'I' for Inactive)
    1  A    between atoms: S_1  and  C_15
    2  A    between atoms: S_1  and  C_18
    3  A    between atoms: C_2  and  C_6
    4  A    between atoms: C_2  and  C_15
    5  A    between atoms: C_6  and  C_17
    6  A    between atoms: C_9  and  C_15
    7  A    between atoms: C_14  and  O_19
                            x       y       z     vdW  Elec       q    Type
                         _______ _______ _______ _____ _____    ______ ____

>  <TORSDO>
F 7

$$$$
