=
 OpenBabel10262420513D

 28 31  0  0  1  0  0  0  0  0999 V2000
  187.2140  178.5650  140.6570 C   0  0  1  0  0  3  0  0  0  0  0  0
  184.3460  179.2580  144.6740 C   0  0  0  0  0  1  0  0  0  0  0  0
  187.6470  177.2550  144.2640 C   0  0  2  0  0  3  0  0  0  0  0  0
  186.0380  177.2730  146.1840 C   0  0  0  0  0  1  0  0  0  0  0  0
  185.7840  178.8760  142.6720 C   0  0  2  0  0  3  0  0  0  0  0  0
  188.0490  177.8980  142.9400 C   0  0  0  0  0  2  0  0  0  0  0  0
  184.8510  179.0590  140.3460 C   0  0  0  0  0  3  0  0  0  0  0  0
  185.3260  178.2950  144.0150 C   0  0  1  0  0  3  0  0  0  0  0  0
  184.6530  179.0330  141.7630 N   0  0  0  0  0  2  0  0  0  0  0  0
  186.5160  178.0420  144.9580 C   0  0  2  0  0  3  0  0  0  0  0  0
  186.0240  178.8240  139.8370 N   0  0  0  0  0  0  0  0  0  0  0  0
  186.8380  177.9780  142.0250 C   0  0  2  0  0  3  0  0  0  0  0  0
  188.0990  177.8470  138.3830 C   0  0  0  0  0  2  0  0  0  0  0  0
  188.2030  177.6730  139.9050 C   0  0  1  0  0  3  0  0  0  0  0  0
  188.9920  176.8360  137.6580 C   0  0  0  0  0  0  0  0  0  0  0  0
  190.6250  177.5830  139.4320 C   0  0  0  0  0  2  0  0  0  0  0  0
  190.2260  176.4540  138.4820 C   0  0  0  0  0  2  0  0  0  0  0  0
  189.5690  177.8880  140.4120 N   0  0  0  0  0  2  0  0  0  0  0  0
  188.1900  175.5810  137.3720 C   0  0  0  0  0  1  0  0  0  0  0  0
  189.4370  177.4370  136.3400 C   0  0  0  0  0  1  0  0  0  0  0  0
  188.8530  177.6110  146.4490 C   0  0  0  0  0  3  0  0  0  0  0  0
  190.0110  176.4530  144.6570 C   0  0  0  0  0  0  0  0  0  0  0  0
  191.1180  176.8310  146.7810 C   0  0  0  0  0  0  0  0  0  0  0  0
  188.8570  177.0980  145.1420 C   0  0  0  0  0  0  0  0  0  0  0  0
  191.1340  176.3220  145.4810 C   0  0  0  0  0  3  0  0  0  0  0  0
  190.0830  175.8000  143.0270 Cl  0  0  0  0  0  0  0  0  0  0  0  0
  192.2090  176.7000  147.5730 F   0  0  0  0  0  0  0  0  0  0  0  0
  189.9790  177.4760  147.2650 C   0  0  0  0  0  3  0  0  0  0  0  0
  1 11  1  6  0  0  0
  1 12  1  0  0  0  0
  3 10  1  0  0  0  0
  3 24  1  1  0  0  0
  5  9  1  6  0  0  0
  5  8  1  0  0  0  0
  6  3  1  0  0  0  0
  7  9  1  0  0  0  0
  8  2  1  1  0  0  0
  8 10  1  0  0  0  0
 10  4  1  1  0  0  0
 11  7  2  0  0  0  0
 12  5  1  0  0  0  0
 12  6  1  1  0  0  0
 14 13  1  6  0  0  0
 14 18  1  0  0  0  0
 14  1  1  0  0  0  0
 15 13  1  0  0  0  0
 15 17  1  0  0  0  0
 16 18  1  0  0  0  0
 17 16  1  0  0  0  0
 19 15  1  0  0  0  0
 20 15  1  0  0  0  0
 21 28  1  0  0  0  0
 22 24  1  0  0  0  0
 22 25  2  0  0  0  0
 23 28  2  0  0  0  0
 23 27  1  0  0  0  0
 24 21  2  0  0  0  0
 25 23  1  0  0  0  0
 26 22  1  0  0  0  0
M  END
>  <MODEL>
1

>  <REMARK>
 VINA RESULT:     -10.1      0.000      0.000
  Name = 
  2 active torsions:
  status: ('A' for Active; 'I' for Inactive)
    1  A    between atoms: C_1  and  C_3
    2  A    between atoms: C_10  and  C_13
                            x       y       z     vdW  Elec       q    Type
                         _______ _______ _______ _____ _____    ______ ____

>  <TORSDO>
F 2

$$$$
=
 OpenBabel10262420513D

 28 31  0  0  1  0  0  0  0  0999 V2000
  184.4170  179.0990  142.7660 C   0  0  1  0  0  3  0  0  0  0  0  0
  186.5270  178.5630  147.2490 C   0  0  0  0  0  1  0  0  0  0  0  0
  187.7500  177.4160  143.7480 C   0  0  2  0  0  3  0  0  0  0  0  0
  188.6370  176.8050  146.0100 C   0  0  0  0  0  1  0  0  0  0  0  0
  185.4790  178.7970  144.9980 C   0  0  2  0  0  3  0  0  0  0  0  0
  186.8040  178.3130  142.9560 C   0  0  0  0  0  2  0  0  0  0  0  0
  182.9980  179.1020  144.7430 C   0  0  0  0  0  3  0  0  0  0  0  0
  186.4150  177.9440  145.8620 C   0  0  1  0  0  3  0  0  0  0  0  0
  184.1350  178.8300  145.5680 N   0  0  0  0  0  2  0  0  0  0  0  0
  187.8160  177.8270  145.2330 C   0  0  2  0  0  3  0  0  0  0  0  0
  183.1240  179.2050  143.4540 N   0  0  0  0  0  0  0  0  0  0  0  0
  185.4150  178.2550  143.5710 C   0  0  2  0  0  3  0  0  0  0  0  0
  182.7510  178.3350  141.0020 C   0  0  0  0  0  2  0  0  0  0  0  0
  184.2300  178.5640  141.3460 C   0  0  1  0  0  3  0  0  0  0  0  0
  182.6080  177.6590  139.6350 C   0  0  0  0  0  0  0  0  0  0  0  0
  184.3330  179.3990  139.0230 C   0  0  0  0  0  2  0  0  0  0  0  0
  183.7520  178.0260  138.6830 C   0  0  0  0  0  2  0  0  0  0  0  0
  184.9110  179.4400  140.3770 N   0  0  0  0  0  2  0  0  0  0  0  0
  182.5940  176.1550  139.8240 C   0  0  0  0  0  1  0  0  0  0  0  0
  181.2900  178.0820  139.0190 C   0  0  0  0  0  1  0  0  0  0  0  0
  190.2670  177.3810  143.8850 C   0  0  0  0  0  3  0  0  0  0  0  0
  189.2230  177.4370  141.6940 C   0  0  0  0  0  0  0  0  0  0  0  0
  191.6400  177.4070  141.8940 C   0  0  0  0  0  0  0  0  0  0  0  0
  189.1060  177.4040  143.0960 C   0  0  0  0  0  0  0  0  0  0  0  0
  190.4900  177.4360  141.1010 C   0  0  0  0  0  3  0  0  0  0  0  0
  187.8080  177.4800  140.6530 Cl  0  0  0  0  0  0  0  0  0  0  0  0
  192.8630  177.4070  141.3130 F   0  0  0  0  0  0  0  0  0  0  0  0
  191.5290  177.3810  143.2850 C   0  0  0  0  0  3  0  0  0  0  0  0
  1 11  1  1  0  0  0
  1 12  1  0  0  0  0
  3 24  1  6  0  0  0
  3 10  1  0  0  0  0
  5  9  1  1  0  0  0
  5  8  1  0  0  0  0
  6  3  1  0  0  0  0
  7  9  1  0  0  0  0
  8  2  1  1  0  0  0
 10  8  1  0  0  0  0
 10  4  1  1  0  0  0
 11  7  2  0  0  0  0
 12  6  1  6  0  0  0
 12  5  1  0  0  0  0
 14 13  1  6  0  0  0
 14  1  1  0  0  0  0
 15 19  1  0  0  0  0
 15 13  1  0  0  0  0
 16 18  1  0  0  0  0
 17 16  1  0  0  0  0
 17 15  1  0  0  0  0
 18 14  1  0  0  0  0
 20 15  1  0  0  0  0
 22 24  1  0  0  0  0
 23 28  2  0  0  0  0
 24 21  2  0  0  0  0
 25 22  2  0  0  0  0
 25 23  1  0  0  0  0
 26 22  1  0  0  0  0
 27 23  1  0  0  0  0
 28 21  1  0  0  0  0
M  END
>  <MODEL>
2

>  <REMARK>
 VINA RESULT:      -9.8      2.690      4.523
  Name = 
  2 active torsions:
  status: ('A' for Active; 'I' for Inactive)
    1  A    between atoms: C_1  and  C_3
    2  A    between atoms: C_10  and  C_13
                            x       y       z     vdW  Elec       q    Type
                         _______ _______ _______ _____ _____    ______ ____

>  <TORSDO>
F 2

$$$$
=
 OpenBabel10262420513D

 28 31  0  0  1  0  0  0  0  0999 V2000
  185.6890  177.9770  144.1300 C   0  0  1  0  0  3  0  0  0  0  0  0
  180.7880  178.8760  144.2090 C   0  0  0  0  0  1  0  0  0  0  0  0
  183.2280  178.5390  141.2080 C   0  0  2  0  0  3  0  0  0  0  0  0
  180.8620  179.3620  141.2350 C   0  0  0  0  0  1  0  0  0  0  0  0
  183.2450  178.4520  144.1440 C   0  0  2  0  0  3  0  0  0  0  0  0
  184.3480  177.8690  141.9990 C   0  0  0  0  0  2  0  0  0  0  0  0
  184.7130  179.0080  146.1070 C   0  0  0  0  0  3  0  0  0  0  0  0
  182.0660  179.1050  143.4130 C   0  0  1  0  0  3  0  0  0  0  0  0
  183.4380  179.0580  145.4590 N   0  0  0  0  0  2  0  0  0  0  0  0
  181.8990  178.5390  141.9900 C   0  0  2  0  0  3  0  0  0  0  0  0
  185.7520  178.5300  145.4890 N   0  0  0  0  0  0  0  0  0  0  0  0
  184.5300  178.5850  143.3280 C   0  0  2  0  0  3  0  0  0  0  0  0
  187.9810  176.9720  143.6740 C   0  0  0  0  0  2  0  0  0  0  0  0
  187.0310  178.1500  143.4160 C   0  0  1  0  0  3  0  0  0  0  0  0
  189.3630  177.2450  143.0720 C   0  0  0  0  0  0  0  0  0  0  0  0
  187.9410  177.9960  141.1240 C   0  0  0  0  0  2  0  0  0  0  0  0
  189.2890  178.1430  141.8320 C   0  0  0  0  0  2  0  0  0  0  0  0
  186.8140  178.4030  141.9800 N   0  0  0  0  0  2  0  0  0  0  0  0
  190.2330  177.9220  144.1120 C   0  0  0  0  0  1  0  0  0  0  0  0
  189.9990  175.9230  142.6940 C   0  0  0  0  0  1  0  0  0  0  0  0
  182.8980  176.5030  139.7600 C   0  0  0  0  0  3  0  0  0  0  0  0
  183.1960  178.6580  138.6840 C   0  0  0  0  0  0  0  0  0  0  0  0
  182.8790  176.6600  137.3470 C   0  0  0  0  0  0  0  0  0  0  0  0
  183.0980  177.8890  139.8590 C   0  0  0  0  0  0  0  0  0  0  0  0
  183.0830  178.0390  137.4340 C   0  0  0  0  0  3  0  0  0  0  0  0
  183.4580  180.3950  138.7410 Cl  0  0  0  0  0  0  0  0  0  0  0  0
  182.7710  176.0680  136.1340 F   0  0  0  0  0  0  0  0  0  0  0  0
  182.7870  175.8920  138.5080 C   0  0  0  0  0  3  0  0  0  0  0  0
  1 11  1  1  0  0  0
  3 24  1  6  0  0  0
  3 10  1  0  0  0  0
  3  6  1  0  0  0  0
  5  9  1  1  0  0  0
  8  5  1  0  0  0  0
  8  2  1  1  0  0  0
  9  7  1  0  0  0  0
 10  4  1  6  0  0  0
 10  8  1  0  0  0  0
 11  7  2  0  0  0  0
 12  6  1  6  0  0  0
 12  1  1  0  0  0  0
 12  5  1  0  0  0  0
 14 13  1  6  0  0  0
 14  1  1  0  0  0  0
 15 13  1  0  0  0  0
 15 19  1  0  0  0  0
 16 17  1  0  0  0  0
 16 18  1  0  0  0  0
 17 15  1  0  0  0  0
 18 14  1  0  0  0  0
 20 15  1  0  0  0  0
 21 24  1  0  0  0  0
 22 26  1  0  0  0  0
 22 24  2  0  0  0  0
 23 25  2  0  0  0  0
 23 28  1  0  0  0  0
 25 22  1  0  0  0  0
 27 23  1  0  0  0  0
 28 21  2  0  0  0  0
M  END
>  <MODEL>
3

>  <REMARK>
 VINA RESULT:      -8.9      4.163      7.139
  Name = 
  2 active torsions:
  status: ('A' for Active; 'I' for Inactive)
    1  A    between atoms: C_1  and  C_3
    2  A    between atoms: C_10  and  C_13
                            x       y       z     vdW  Elec       q    Type
                         _______ _______ _______ _____ _____    ______ ____

>  <TORSDO>
F 2

$$$$
=
 OpenBabel10262420513D

 28 31  0  0  1  0  0  0  0  0999 V2000
  189.7080  176.7090  143.5650 C   0  0  1  0  0  3  0  0  0  0  0  0
  188.0220  177.3410  148.2110 C   0  0  0  0  0  1  0  0  0  0  0  0
  186.5980  178.6140  144.8320 C   0  0  2  0  0  3  0  0  0  0  0  0
  185.9480  179.2610  147.1630 C   0  0  0  0  0  1  0  0  0  0  0  0
  188.8590  177.0600  145.8790 C   0  0  2  0  0  3  0  0  0  0  0  0
  187.4080  177.6610  143.9580 C   0  0  0  0  0  2  0  0  0  0  0  0
  191.2830  176.5820  145.4160 C   0  0  0  0  0  3  0  0  0  0  0  0
  188.0620  177.9670  146.8230 C   0  0  1  0  0  3  0  0  0  0  0  0
  190.2400  176.9240  146.3350 N   0  0  0  0  0  2  0  0  0  0  0  0
  186.6260  178.1920  146.3140 C   0  0  2  0  0  3  0  0  0  0  0  0
  191.0430  176.5030  144.1410 N   0  0  0  0  0  0  0  0  0  0  0  0
  188.8440  177.6130  144.4550 C   0  0  2  0  0  3  0  0  0  0  0  0
  190.6180  176.3100  141.2230 C   0  0  0  0  0  2  0  0  0  0  0  0
  189.8150  177.2460  142.1370 C   0  0  1  0  0  3  0  0  0  0  0  0
  190.8340  176.9450  139.8460 C   0  0  0  0  0  0  0  0  0  0  0  0
  188.3840  177.4860  140.1370 C   0  0  0  0  0  2  0  0  0  0  0  0
  189.6930  177.8930  139.4580 C   0  0  0  0  0  2  0  0  0  0  0  0
  188.4740  177.5500  141.6060 N   0  0  0  0  0  2  0  0  0  0  0  0
  192.1330  177.7270  139.8590 C   0  0  0  0  0  1  0  0  0  0  0  0
  190.9420  175.8430  138.8130 C   0  0  0  0  0  1  0  0  0  0  0  0
  184.0990  178.4530  145.1260 C   0  0  0  0  0  3  0  0  0  0  0  0
  184.9750  179.0960  142.9550 C   0  0  0  0  0  0  0  0  0  0  0  0
  182.5810  178.9180  143.3020 C   0  0  0  0  0  0  0  0  0  0  0  0
  185.1970  178.7300  144.2960 C   0  0  0  0  0  0  0  0  0  0  0  0
  183.6670  179.1910  142.4660 C   0  0  0  0  0  3  0  0  0  0  0  0
  186.3070  179.4440  141.8630 Cl  0  0  0  0  0  0  0  0  0  0  0  0
  181.3180  179.0110  142.8210 F   0  0  0  0  0  0  0  0  0  0  0  0
  182.7970  178.5480  144.6300 C   0  0  0  0  0  3  0  0  0  0  0  0
  1 11  1  1  0  0  0
  1 12  1  0  0  0  0
  3 24  1  6  0  0  0
  3 10  1  0  0  0  0
  5  9  1  1  0  0  0
  5  8  1  0  0  0  0
  6  3  1  0  0  0  0
  7  9  1  0  0  0  0
  8  2  1  1  0  0  0
 10  8  1  0  0  0  0
 10  4  1  1  0  0  0
 11  7  2  0  0  0  0
 12  6  1  6  0  0  0
 12  5  1  0  0  0  0
 14 13  1  6  0  0  0
 14  1  1  0  0  0  0
 15 19  1  0  0  0  0
 15 13  1  0  0  0  0
 16 18  1  0  0  0  0
 17 15  1  0  0  0  0
 17 16  1  0  0  0  0
 18 14  1  0  0  0  0
 20 15  1  0  0  0  0
 22 24  1  0  0  0  0
 23 28  2  0  0  0  0
 24 21  2  0  0  0  0
 25 22  2  0  0  0  0
 25 23  1  0  0  0  0
 26 22  1  0  0  0  0
 27 23  1  0  0  0  0
 28 21  1  0  0  0  0
M  END
>  <MODEL>
4

>  <REMARK>
 VINA RESULT:      -8.8      3.138      5.487
  Name = 
  2 active torsions:
  status: ('A' for Active; 'I' for Inactive)
    1  A    between atoms: C_1  and  C_3
    2  A    between atoms: C_10  and  C_13
                            x       y       z     vdW  Elec       q    Type
                         _______ _______ _______ _____ _____    ______ ____

>  <TORSDO>
F 2

$$$$
=
 OpenBabel10262420513D

 28 31  0  0  1  0  0  0  0  0999 V2000
  188.5490  177.2700  141.1070 C   0  0  1  0  0  3  0  0  0  0  0  0
  186.9380  177.9810  136.4450 C   0  0  0  0  0  1  0  0  0  0  0  0
  190.4430  176.9510  137.7570 C   0  0  2  0  0  3  0  0  0  0  0  0
  189.7660  177.6650  135.4530 C   0  0  0  0  0  1  0  0  0  0  0  0
  187.7750  177.6440  138.7700 C   0  0  2  0  0  3  0  0  0  0  0  0
  189.9710  176.5540  139.1530 C   0  0  0  0  0  2  0  0  0  0  0  0
  186.6560  178.7520  140.7290 C   0  0  0  0  0  3  0  0  0  0  0  0
  188.1680  178.0370  137.3410 C   0  0  1  0  0  3  0  0  0  0  0  0
  186.7970  178.5820  139.3150 N   0  0  0  0  0  2  0  0  0  0  0  0
  189.2610  177.1100  136.7800 C   0  0  2  0  0  3  0  0  0  0  0  0
  187.4740  178.1650  141.5510 N   0  0  0  0  0  0  0  0  0  0  0  0
  189.0030  177.6020  139.6780 C   0  0  2  0  0  3  0  0  0  0  0  0
  189.3190  177.9170  143.4430 C   0  0  0  0  0  2  0  0  0  0  0  0
  189.7150  177.2960  142.0970 C   0  0  1  0  0  3  0  0  0  0  0  0
  190.5410  178.0660  144.3550 C   0  0  0  0  0  0  0  0  0  0  0  0
  190.9630  175.7170  143.5290 C   0  0  0  0  0  2  0  0  0  0  0  0
  191.6000  176.9900  144.0870 C   0  0  0  0  0  2  0  0  0  0  0  0
  190.2920  175.9480  142.2380 N   0  0  0  0  0  2  0  0  0  0  0  0
  191.1640  179.4300  144.1320 C   0  0  0  0  0  1  0  0  0  0  0  0
  190.0860  177.9710  145.7970 C   0  0  0  0  0  1  0  0  0  0  0  0
  192.8040  176.3510  137.1070 C   0  0  0  0  0  3  0  0  0  0  0  0
  191.0840  174.6460  136.9400 C   0  0  0  0  0  0  0  0  0  0  0  0
  193.3730  174.1350  136.3250 C   0  0  0  0  0  0  0  0  0  0  0  0
  191.4640  175.9620  137.2650 C   0  0  0  0  0  0  0  0  0  0  0  0
  192.0420  173.7390  136.4740 C   0  0  0  0  0  3  0  0  0  0  0  0
  189.4210  174.1020  137.1050 Cl  0  0  0  0  0  0  0  0  0  0  0  0
  194.2950  173.2510  135.8730 F   0  0  0  0  0  0  0  0  0  0  0  0
  193.7540  175.4400  136.6400 C   0  0  0  0  0  3  0  0  0  0  0  0
  1 11  1  1  0  0  0
  1 14  1  0  0  0  0
  3 24  1  6  0  0  0
  3  6  1  0  0  0  0
  5  9  1  1  0  0  0
  5 12  1  0  0  0  0
  7 11  2  0  0  0  0
  8  2  1  6  0  0  0
  8  5  1  0  0  0  0
  9  7  1  0  0  0  0
 10  4  1  6  0  0  0
 10  8  1  0  0  0  0
 10  3  1  0  0  0  0
 12  6  1  6  0  0  0
 12  1  1  0  0  0  0
 13 15  1  0  0  0  0
 14 18  1  0  0  0  0
 14 13  1  1  0  0  0
 15 20  1  0  0  0  0
 16 17  1  0  0  0  0
 17 15  1  0  0  0  0
 18 16  1  0  0  0  0
 19 15  1  0  0  0  0
 21 24  1  0  0  0  0
 22 26  1  0  0  0  0
 22 24  2  0  0  0  0
 23 25  2  0  0  0  0
 23 28  1  0  0  0  0
 25 22  1  0  0  0  0
 27 23  1  0  0  0  0
 28 21  2  0  0  0  0
M  END
>  <MODEL>
5

>  <REMARK>
 VINA RESULT:      -8.8      3.347      7.401
  Name = 
  2 active torsions:
  status: ('A' for Active; 'I' for Inactive)
    1  A    between atoms: C_1  and  C_3
    2  A    between atoms: C_10  and  C_13
                            x       y       z     vdW  Elec       q    Type
                         _______ _______ _______ _____ _____    ______ ____

>  <TORSDO>
F 2

$$$$
=
 OpenBabel10262420513D

 28 31  0  0  1  0  0  0  0  0999 V2000
  187.6040  177.4110  141.9670 C   0  0  1  0  0  3  0  0  0  0  0  0
  186.4750  178.5080  137.2380 C   0  0  0  0  0  1  0  0  0  0  0  0
  189.7970  177.2390  138.7930 C   0  0  2  0  0  3  0  0  0  0  0  0
  189.3710  178.1380  136.4940 C   0  0  0  0  0  1  0  0  0  0  0  0
  187.0720  177.9770  139.6010 C   0  0  2  0  0  3  0  0  0  0  0  0
  189.1800  176.7680  140.1070 C   0  0  0  0  0  2  0  0  0  0  0  0
  185.8120  178.9960  141.5220 C   0  0  0  0  0  3  0  0  0  0  0  0
  187.6150  178.4490  138.2470 C   0  0  1  0  0  3  0  0  0  0  0  0
  186.0820  178.9170  140.1190 N   0  0  0  0  0  2  0  0  0  0  0  0
  188.7210  177.5150  137.7240 C   0  0  2  0  0  3  0  0  0  0  0  0
  186.5250  178.3190  142.3720 N   0  0  0  0  0  0  0  0  0  0  0  0
  188.2050  177.8190  140.6140 C   0  0  2  0  0  3  0  0  0  0  0  0
  189.7630  178.3840  142.8960 C   0  0  0  0  0  2  0  0  0  0  0  0
  188.6700  177.3180  143.0600 C   0  0  1  0  0  3  0  0  0  0  0  0
  190.8890  178.1700  143.9120 C   0  0  0  0  0  0  0  0  0  0  0  0
  188.9150  177.8600  145.4570 C   0  0  0  0  0  2  0  0  0  0  0  0
  190.3870  177.5240  145.2090 C   0  0  0  0  0  2  0  0  0  0  0  0
  188.0380  177.3480  144.3910 N   0  0  0  0  0  2  0  0  0  0  0  0
  191.9460  177.2730  143.3000 C   0  0  0  0  0  1  0  0  0  0  0  0
  191.5170  179.5110  144.2320 C   0  0  0  0  0  1  0  0  0  0  0  0
  190.4410  175.1600  137.5210 C   0  0  0  0  0  3  0  0  0  0  0  0
  192.1710  176.3740  138.7130 C   0  0  0  0  0  0  0  0  0  0  0  0
  192.7240  174.3640  137.4750 C   0  0  0  0  0  0  0  0  0  0  0  0
  190.8240  176.2420  138.3280 C   0  0  0  0  0  0  0  0  0  0  0  0
  193.1140  175.4350  138.2820 C   0  0  0  0  0  3  0  0  0  0  0  0
  192.7110  177.7000  139.7320 Cl  0  0  0  0  0  0  0  0  0  0  0  0
  193.6420  173.4580  137.0610 F   0  0  0  0  0  0  0  0  0  0  0  0
  191.3880  174.2260  137.0950 C   0  0  0  0  0  3  0  0  0  0  0  0
  1 11  1  1  0  0  0
  1 14  1  0  0  0  0
  3 24  1  6  0  0  0
  3  6  1  0  0  0  0
  5  9  1  1  0  0  0
  5 12  1  0  0  0  0
  7 11  2  0  0  0  0
  8  2  1  6  0  0  0
  8  5  1  0  0  0  0
  9  7  1  0  0  0  0
 10  4  1  6  0  0  0
 10  8  1  0  0  0  0
 10  3  1  0  0  0  0
 12  6  1  6  0  0  0
 12  1  1  0  0  0  0
 13 15  1  0  0  0  0
 14 13  1  1  0  0  0
 14 18  1  0  0  0  0
 15 20  1  0  0  0  0
 15 17  1  0  0  0  0
 17 16  1  0  0  0  0
 18 16  1  0  0  0  0
 19 15  1  0  0  0  0
 21 24  1  0  0  0  0
 22 26  1  0  0  0  0
 23 25  2  0  0  0  0
 24 22  2  0  0  0  0
 25 22  1  0  0  0  0
 27 23  1  0  0  0  0
 28 23  1  0  0  0  0
 28 21  2  0  0  0  0
M  END
>  <MODEL>
6

>  <REMARK>
 VINA RESULT:      -8.8      2.959      6.647
  Name = 
  2 active torsions:
  status: ('A' for Active; 'I' for Inactive)
    1  A    between atoms: C_1  and  C_3
    2  A    between atoms: C_10  and  C_13
                            x       y       z     vdW  Elec       q    Type
                         _______ _______ _______ _____ _____    ______ ____

>  <TORSDO>
F 2

$$$$
=
 OpenBabel10262420513D

 28 31  0  0  1  0  0  0  0  0999 V2000
  187.1950  177.3990  143.3160 C   0  0  1  0  0  3  0  0  0  0  0  0
  182.7490  178.9790  141.7120 C   0  0  0  0  0  1  0  0  0  0  0  0
  186.1190  178.6280  139.8170 C   0  0  2  0  0  3  0  0  0  0  0  0
  184.0120  179.7740  139.0940 C   0  0  0  0  0  1  0  0  0  0  0  0
  184.9900  178.2160  142.4970 C   0  0  2  0  0  3  0  0  0  0  0  0
  186.7790  177.7200  140.8500 C   0  0  0  0  0  2  0  0  0  0  0  0
  185.6280  178.3350  144.9250 C   0  0  0  0  0  3  0  0  0  0  0  0
  184.2510  179.1080  141.4930 C   0  0  1  0  0  3  0  0  0  0  0  0
  184.7130  178.6380  143.8670 N   0  0  0  0  0  2  0  0  0  0  0  0
  184.5970  178.7320  140.0400 C   0  0  2  0  0  3  0  0  0  0  0  0
  186.7770  177.7840  144.6690 N   0  0  0  0  0  0  0  0  0  0  0  0
  186.4970  178.2510  142.2470 C   0  0  2  0  0  3  0  0  0  0  0  0
  189.4060  177.7010  144.5360 C   0  0  0  0  0  2  0  0  0  0  0  0
  188.7180  177.4550  143.1860 C   0  0  1  0  0  3  0  0  0  0  0  0
  190.9130  177.9020  144.3500 C   0  0  0  0  0  0  0  0  0  0  0  0
  190.6050  175.8980  142.8430 C   0  0  0  0  0  2  0  0  0  0  0  0
  191.4570  177.1330  143.1400 C   0  0  0  0  0  2  0  0  0  0  0  0
  189.2150  176.2470  142.5040 N   0  0  0  0  0  2  0  0  0  0  0  0
  191.1980  179.3780  144.1570 C   0  0  0  0  0  1  0  0  0  0  0  0
  191.6250  177.4300  145.6020 C   0  0  0  0  0  1  0  0  0  0  0  0
  185.4790  177.5670  137.6220 C   0  0  0  0  0  3  0  0  0  0  0  0
  187.7770  178.2810  137.9410 C   0  0  0  0  0  0  0  0  0  0  0  0
  187.0980  177.2490  135.8540 C   0  0  0  0  0  0  0  0  0  0  0  0
  186.4630  178.1550  138.4310 C   0  0  0  0  0  0  0  0  0  0  0  0
  188.0860  177.8280  136.6530 C   0  0  0  0  0  3  0  0  0  0  0  0
  189.0560  178.9980  138.9090 Cl  0  0  0  0  0  0  0  0  0  0  0  0
  187.4050  176.8130  134.6090 F   0  0  0  0  0  0  0  0  0  0  0  0
  185.7960  177.1170  136.3380 C   0  0  0  0  0  3  0  0  0  0  0  0
  1 11  1  1  0  0  0
  3 24  1  6  0  0  0
  3 10  1  0  0  0  0
  3  6  1  0  0  0  0
  5  9  1  1  0  0  0
  8  2  1  6  0  0  0
  8  5  1  0  0  0  0
  9  7  1  0  0  0  0
 10  4  1  6  0  0  0
 10  8  1  0  0  0  0
 11  7  2  0  0  0  0
 12  6  1  6  0  0  0
 12  5  1  0  0  0  0
 12  1  1  0  0  0  0
 14  1  1  0  0  0  0
 14 13  1  1  0  0  0
 15 13  1  0  0  0  0
 15 20  1  0  0  0  0
 16 17  1  0  0  0  0
 17 15  1  0  0  0  0
 18 16  1  0  0  0  0
 18 14  1  0  0  0  0
 19 15  1  0  0  0  0
 21 24  1  0  0  0  0
 22 24  2  0  0  0  0
 22 26  1  0  0  0  0
 23 28  1  0  0  0  0
 23 25  2  0  0  0  0
 25 22  1  0  0  0  0
 27 23  1  0  0  0  0
 28 21  2  0  0  0  0
M  END
>  <MODEL>
7

>  <REMARK>
 VINA RESULT:      -8.4      3.359      6.766
  Name = 
  2 active torsions:
  status: ('A' for Active; 'I' for Inactive)
    1  A    between atoms: C_1  and  C_3
    2  A    between atoms: C_10  and  C_13
                            x       y       z     vdW  Elec       q    Type
                         _______ _______ _______ _____ _____    ______ ____

>  <TORSDO>
F 2

$$$$
=
 OpenBabel10262420513D

 28 31  0  0  1  0  0  0  0  0999 V2000
  187.2820  177.1740  143.5380 C   0  0  1  0  0  3  0  0  0  0  0  0
  185.1590  178.9160  139.3790 C   0  0  0  0  0  1  0  0  0  0  0  0
  188.7690  177.6340  140.0040 C   0  0  2  0  0  3  0  0  0  0  0  0
  187.8470  178.8490  138.0180 C   0  0  0  0  0  1  0  0  0  0  0  0
  186.2510  178.0640  141.4530 C   0  0  2  0  0  3  0  0  0  0  0  0
  188.4530  176.9280  141.3200 C   0  0  0  0  0  2  0  0  0  0  0  0
  185.3890  178.6920  143.7290 C   0  0  0  0  0  3  0  0  0  0  0  0
  186.4850  178.7740  140.1140 C   0  0  1  0  0  3  0  0  0  0  0  0
  185.3630  178.8490  142.3070 N   0  0  0  0  0  2  0  0  0  0  0  0
  187.4860  178.0040  139.2340 C   0  0  2  0  0  3  0  0  0  0  0  0
  186.2840  177.9390  144.2960 N   0  0  0  0  0  0  0  0  0  0  0  0
  187.5740  177.8240  142.1780 C   0  0  2  0  0  3  0  0  0  0  0  0
  189.7510  177.7390  143.7720 C   0  0  0  0  0  2  0  0  0  0  0  0
  188.5540  176.9810  144.3640 C   0  0  1  0  0  3  0  0  0  0  0  0
  191.0370  177.4050  144.5330 C   0  0  0  0  0  0  0  0  0  0  0  0
  189.5040  177.7550  146.5090 C   0  0  0  0  0  2  0  0  0  0  0  0
  190.7710  177.0630  146.0030 C   0  0  0  0  0  2  0  0  0  0  0  0
  188.3020  177.3250  145.7750 N   0  0  0  0  0  2  0  0  0  0  0  0
  191.7120  176.2190  143.8710 C   0  0  0  0  0  1  0  0  0  0  0  0
  191.9700  178.5960  144.4580 C   0  0  0  0  0  1  0  0  0  0  0  0
  189.2020  175.9610  138.1680 C   0  0  0  0  0  3  0  0  0  0  0  0
  191.0890  176.8020  139.4430 C   0  0  0  0  0  0  0  0  0  0  0  0
  191.4380  175.1880  137.6670 C   0  0  0  0  0  0  0  0  0  0  0  0
  189.7050  176.7880  139.1850 C   0  0  0  0  0  0  0  0  0  0  0  0
  191.9480  176.0030  138.6800 C   0  0  0  0  0  3  0  0  0  0  0  0
  191.7790  177.8060  140.7100 Cl  0  0  0  0  0  0  0  0  0  0  0  0
  192.2750  174.4170  136.9330 F   0  0  0  0  0  0  0  0  0  0  0  0
  190.0660  175.1660  137.4120 C   0  0  0  0  0  3  0  0  0  0  0  0
  1 11  1  1  0  0  0
  1 14  1  0  0  0  0
  3 24  1  6  0  0  0
  3  6  1  0  0  0  0
  5 12  1  0  0  0  0
  5  9  1  1  0  0  0
  7 11  2  0  0  0  0
  8  2  1  6  0  0  0
  8  5  1  0  0  0  0
  9  7  1  0  0  0  0
 10  4  1  6  0  0  0
 10  3  1  0  0  0  0
 10  8  1  0  0  0  0
 12  6  1  6  0  0  0
 12  1  1  0  0  0  0
 13 15  1  0  0  0  0
 14 13  1  6  0  0  0
 14 18  1  0  0  0  0
 15 17  1  0  0  0  0
 17 16  1  0  0  0  0
 18 16  1  0  0  0  0
 19 15  1  0  0  0  0
 20 15  1  0  0  0  0
 21 24  1  0  0  0  0
 22 26  1  0  0  0  0
 23 25  2  0  0  0  0
 24 22  2  0  0  0  0
 25 22  1  0  0  0  0
 27 23  1  0  0  0  0
 28 23  1  0  0  0  0
 28 21  2  0  0  0  0
M  END
>  <MODEL>
8

>  <REMARK>
 VINA RESULT:      -8.1      2.743      6.256
  Name = 
  2 active torsions:
  status: ('A' for Active; 'I' for Inactive)
    1  A    between atoms: C_1  and  C_3
    2  A    between atoms: C_10  and  C_13
                            x       y       z     vdW  Elec       q    Type
                         _______ _______ _______ _____ _____    ______ ____

>  <TORSDO>
F 2

$$$$
=
 OpenBabel10262420513D

 28 31  0  0  1  0  0  0  0  0999 V2000
  190.9780  177.1510  139.4230 C   0  0  1  0  0  3  0  0  0  0  0  0
  191.1950  175.7780  134.6370 C   0  0  0  0  0  1  0  0  0  0  0  0
  188.2870  175.5070  137.1940 C   0  0  2  0  0  3  0  0  0  0  0  0
  188.4940  174.4720  134.9230 C   0  0  0  0  0  1  0  0  0  0  0  0
  191.0700  176.4340  137.0400 C   0  0  2  0  0  3  0  0  0  0  0  0
  188.8750  176.4950  138.1970 C   0  0  0  0  0  2  0  0  0  0  0  0
  193.1440  176.6300  138.4450 C   0  0  0  0  0  3  0  0  0  0  0  0
  190.5310  175.4730  135.9730 C   0  0  1  0  0  3  0  0  0  0  0  0
  192.5080  176.2560  137.2180 N   0  0  0  0  0  2  0  0  0  0  0  0
  189.0020  175.5860  135.8310 C   0  0  2  0  0  3  0  0  0  0  0  0
  192.4400  177.0210  139.4640 N   0  0  0  0  0  0  0  0  0  0  0  0
  190.3590  176.2160  138.3750 C   0  0  2  0  0  3  0  0  0  0  0  0
  191.3310  177.3690  141.9320 C   0  0  0  0  0  2  0  0  0  0  0  0
  190.3780  176.9300  140.8120 C   0  0  1  0  0  3  0  0  0  0  0  0
  190.7660  176.9960  143.3060 C   0  0  0  0  0  0  0  0  0  0  0  0
  188.6670  177.9490  142.2740 C   0  0  0  0  0  2  0  0  0  0  0  0
  189.2330  176.9880  143.3210 C   0  0  0  0  0  2  0  0  0  0  0  0
  189.0550  177.5740  140.9040 N   0  0  0  0  0  2  0  0  0  0  0  0
  191.2630  175.6160  143.6900 C   0  0  0  0  0  1  0  0  0  0  0  0
  191.2700  177.9950  144.3270 C   0  0  0  0  0  1  0  0  0  0  0  0
  186.2960  177.0140  136.8500 C   0  0  0  0  0  3  0  0  0  0  0  0
  185.9110  174.6440  137.2100 C   0  0  0  0  0  0  0  0  0  0  0  0
  184.0380  176.1480  136.8780 C   0  0  0  0  0  0  0  0  0  0  0  0
  186.8030  175.7250  137.0760 C   0  0  0  0  0  0  0  0  0  0  0  0
  184.5330  174.8620  137.1080 C   0  0  0  0  0  3  0  0  0  0  0  0
  186.4840  173.0100  137.5050 Cl  0  0  0  0  0  0  0  0  0  0  0  0
  182.7020  176.3510  136.7800 F   0  0  0  0  0  0  0  0  0  0  0  0
  184.9180  177.2230  136.7510 C   0  0  0  0  0  3  0  0  0  0  0  0
  1 11  1  1  0  0  0
  1 14  1  0  0  0  0
  3 24  1  6  0  0  0
  3  6  1  0  0  0  0
  5  9  1  1  0  0  0
  5 12  1  0  0  0  0
  7 11  2  0  0  0  0
  8  2  1  6  0  0  0
  8  5  1  0  0  0  0
  9  7  1  0  0  0  0
 10  4  1  6  0  0  0
 10  8  1  0  0  0  0
 10  3  1  0  0  0  0
 12  6  1  6  0  0  0
 12  1  1  0  0  0  0
 13 15  1  0  0  0  0
 14 18  1  0  0  0  0
 14 13  1  1  0  0  0
 15 17  1  0  0  0  0
 15 19  1  0  0  0  0
 15 20  1  0  0  0  0
 16 17  1  0  0  0  0
 18 16  1  0  0  0  0
 21 24  1  0  0  0  0
 22 26  1  0  0  0  0
 23 25  2  0  0  0  0
 24 22  2  0  0  0  0
 25 22  1  0  0  0  0
 27 23  1  0  0  0  0
 28 21  2  0  0  0  0
 28 23  1  0  0  0  0
M  END
>  <MODEL>
9

>  <REMARK>
 VINA RESULT:      -8.0      4.016      8.499
  Name = 
  2 active torsions:
  status: ('A' for Active; 'I' for Inactive)
    1  A    between atoms: C_1  and  C_3
    2  A    between atoms: C_10  and  C_13
                            x       y       z     vdW  Elec       q    Type
                         _______ _______ _______ _____ _____    ______ ____

>  <TORSDO>
F 2

$$$$
