=
 OpenBabel10262423163D

 34 38  0  0  1  0  0  0  0  0999 V2000
  187.7270  177.7050  144.4300 C   0  0  2  0  0  3  0  0  0  0  0  0
  183.8730  178.2530  145.0710 C   0  0  0  0  0  2  0  0  0  0  0  0
  182.5830  179.0250  142.1650 C   0  0  0  0  0  0  0  0  0  0  0  0
  185.8040  178.1380  146.5390 O   0  0  0  0  0  0  0  0  0  0  0  0
  189.4910  177.8330  146.2200 C   0  0  0  0  0  3  0  0  0  0  0  0
  188.9100  178.1820  148.5450 C   0  0  0  0  0  3  0  0  0  0  0  0
  182.6620  178.7170  140.7760 N   0  0  0  0  0  1  0  0  0  0  0  0
  189.8770  177.9840  147.5550 C   0  0  0  0  0  3  0  0  0  0  0  0
  187.1620  178.0710  146.8710 C   0  0  0  0  0  0  0  0  0  0  0  0
  188.1370  177.8780  145.8700 C   0  0  0  0  0  0  0  0  0  0  0  0
  187.5550  178.2270  148.2040 C   0  0  0  0  0  3  0  0  0  0  0  0
  183.7020  179.5800  144.3440 C   0  0  0  0  0  2  0  0  0  0  0  0
  181.4610  179.0080  142.7360 O   0  0  0  0  0  0  0  0  0  0  0  0
  183.7690  179.3520  142.9050 N   0  0  0  0  0  0  0  0  0  0  0  0
  185.0730  179.3090  142.2570 C   0  0  0  0  0  2  0  0  0  0  0  0
  185.3330  177.8140  145.2310 C   0  0  2  0  0  3  0  0  0  0  0  0
  185.8700  178.1020  142.7300 C   0  0  0  0  0  2  0  0  0  0  0  0
  186.3350  178.3120  144.1680 C   0  0  2  0  0  3  0  0  0  0  0  0
  187.8780  176.2500  143.9550 C   0  0  0  0  0  2  0  0  0  0  0  0
  189.0690  176.0540  143.0210 C   0  0  0  0  0  2  0  0  0  0  0  0
  189.4560  177.2810  142.4730 O   0  0  0  0  0  0  0  0  0  0  0  0
  188.3500  178.2230  139.0070 C   0  0  0  0  0  2  0  0  0  0  0  0
  190.5930  176.7510  140.4110 C   0  0  0  0  0  2  0  0  0  0  0  0
  190.2590  176.4090  136.1700 C   0  0  1  0  0  3  0  0  0  0  0  0
  189.2520  177.3640  136.8260 C   0  0  0  0  0  2  0  0  0  0  0  0
  189.1970  177.1390  138.3310 C   0  0  1  0  0  3  0  0  0  0  0  0
  191.4270  176.0660  138.1440 C   0  0  0  0  0  2  0  0  0  0  0  0
  190.6110  177.0970  138.9150 C   0  0  2  0  0  3  0  0  0  0  0  0
  191.5370  176.4340  136.7840 O   0  0  0  0  0  0  0  0  0  0  0  0
  189.2710  177.1300  141.0950 C   0  0  2  0  0  3  0  0  0  0  0  0
  188.6800  178.4060  140.4970 C   0  0  0  0  0  2  0  0  0  0  0  0
  189.7360  175.0210  135.9370 C   0  0  0  0  0  0  0  0  0  0  0  0
  188.5500  174.7460  136.2550 O   0  0  0  0  0  0  0  0  0  0  0  0
  190.5530  174.0170  135.3440 N   0  0  0  0  0  1  0  0  0  0  0  0
  1 19  1  1  0  0  0
  1 10  1  0  0  0  0
  3 13  2  0  0  0  0
  3 14  1  0  0  0  0
  4  9  1  0  0  0  0
  5  8  1  0  0  0  0
  7  3  1  0  0  0  0
  8  6  2  0  0  0  0
  9 11  2  0  0  0  0
 10  5  2  0  0  0  0
 10  9  1  0  0  0  0
 11  6  1  0  0  0  0
 12  2  1  0  0  0  0
 14 12  1  0  0  0  0
 15 17  1  0  0  0  0
 15 14  1  0  0  0  0
 16  2  1  6  0  0  0
 16  4  1  0  0  0  0
 18 17  1  6  0  0  0
 18  1  1  0  0  0  0
 18 16  1  0  0  0  0
 20 19  1  0  0  0  0
 21 20  1  0  0  0  0
 22 31  1  0  0  0  0
 23 30  1  0  0  0  0
 24 32  1  1  0  0  0
 24 29  1  0  0  0  0
 24 25  1  0  0  0  0
 26 25  1  6  0  0  0
 26 28  1  0  0  0  0
 26 22  1  0  0  0  0
 28 27  1  6  0  0  0
 28 23  1  0  0  0  0
 29 27  1  0  0  0  0
 30 21  1  1  0  0  0
 31 30  1  0  0  0  0
 32 33  2  0  0  0  0
 34 32  1  0  0  0  0
M  END
>  <MODEL>
1

>  <REMARK>
 VINA RESULT:      -9.2      0.000      0.000
  Name = 
  5 active torsions:
  status: ('A' for Active; 'I' for Inactive)
    1  A    between atoms: C_1  and  C_9
    2  A    between atoms: C_7  and  C_11
    3  A    between atoms: C_8  and  C_9
    4  A    between atoms: C_8  and  O_18
    5  A    between atoms: O_18  and  C_30
                            x       y       z     vdW  Elec       q    Type
                         _______ _______ _______ _____ _____    ______ ____

>  <TORSDO>
F 5

$$$$
=
 OpenBabel10262423163D

 34 38  0  0  1  0  0  0  0  0999 V2000
  187.7860  177.6500  144.4270 C   0  0  2  0  0  3  0  0  0  0  0  0
  183.9130  178.2420  144.8890 C   0  0  0  0  0  2  0  0  0  0  0  0
  182.7700  179.0450  141.9300 C   0  0  0  0  0  0  0  0  0  0  0  0
  185.7710  178.0960  146.4450 O   0  0  0  0  0  0  0  0  0  0  0  0
  189.4650  177.7480  146.2980 C   0  0  0  0  0  3  0  0  0  0  0  0
  188.7800  178.0920  148.5950 C   0  0  0  0  0  3  0  0  0  0  0  0
  182.9110  178.7430  140.5440 N   0  0  0  0  0  1  0  0  0  0  0  0
  189.7890  177.8880  147.6500 C   0  0  0  0  0  3  0  0  0  0  0  0
  187.1110  178.0110  146.8410 C   0  0  0  0  0  0  0  0  0  0  0  0
  188.1300  177.8110  145.8850 C   0  0  0  0  0  0  0  0  0  0  0  0
  187.4430  178.1550  148.1910 C   0  0  0  0  0  3  0  0  0  0  0  0
  183.7920  179.5750  144.1620 C   0  0  0  0  0  2  0  0  0  0  0  0
  181.6220  179.0390  142.4480 O   0  0  0  0  0  0  0  0  0  0  0  0
  183.9240  179.3540  142.7260 N   0  0  0  0  0  0  0  0  0  0  0  0
  185.2570  179.2980  142.1400 C   0  0  0  0  0  2  0  0  0  0  0  0
  185.3580  177.7850  145.1150 C   0  0  2  0  0  3  0  0  0  0  0  0
  186.0160  178.0790  142.6440 C   0  0  0  0  0  2  0  0  0  0  0  0
  186.4150  178.2750  144.1030 C   0  0  2  0  0  3  0  0  0  0  0  0
  187.9420  176.1960  143.9510 C   0  0  0  0  0  2  0  0  0  0  0  0
  189.1470  176.0000  143.0360 C   0  0  0  0  0  2  0  0  0  0  0  0
  189.4410  177.1920  142.3670 O   0  0  0  0  0  0  0  0  0  0  0  0
  189.3800  176.8910  138.6210 C   0  0  0  0  0  2  0  0  0  0  0  0
  191.3570  177.1520  140.9000 C   0  0  0  0  0  2  0  0  0  0  0  0
  192.8260  176.1530  137.0190 C   0  0  1  0  0  3  0  0  0  0  0  0
  191.3180  176.4350  137.0900 C   0  0  0  0  0  2  0  0  0  0  0  0
  190.8330  176.4100  138.5330 C   0  0  1  0  0  3  0  0  0  0  0  0
  193.1870  176.7890  139.2200 C   0  0  0  0  0  2  0  0  0  0  0  0
  191.7500  177.2560  139.4190 C   0  0  2  0  0  3  0  0  0  0  0  0
  193.5920  176.9790  137.8800 O   0  0  0  0  0  0  0  0  0  0  0  0
  189.8770  176.7910  141.1000 C   0  0  2  0  0  3  0  0  0  0  0  0
  189.0000  177.4150  140.0150 C   0  0  0  0  0  2  0  0  0  0  0  0
  193.1880  174.6980  137.1100 C   0  0  0  0  0  0  0  0  0  0  0  0
  192.2740  173.8370  137.1860 O   0  0  0  0  0  0  0  0  0  0  0  0
  194.5480  174.2770  137.0880 N   0  0  0  0  0  1  0  0  0  0  0  0
  1 19  1  1  0  0  0
  1 10  1  0  0  0  0
  3 13  2  0  0  0  0
  3 14  1  0  0  0  0
  4  9  1  0  0  0  0
  5  8  1  0  0  0  0
  7  3  1  0  0  0  0
  8  6  2  0  0  0  0
  9 11  2  0  0  0  0
 10  5  2  0  0  0  0
 10  9  1  0  0  0  0
 11  6  1  0  0  0  0
 12  2  1  0  0  0  0
 14 12  1  0  0  0  0
 15 17  1  0  0  0  0
 15 14  1  0  0  0  0
 16  2  1  6  0  0  0
 16  4  1  0  0  0  0
 18 17  1  6  0  0  0
 18  1  1  0  0  0  0
 18 16  1  0  0  0  0
 20 19  1  0  0  0  0
 21 20  1  0  0  0  0
 22 31  1  0  0  0  0
 23 30  1  0  0  0  0
 24 25  1  0  0  0  0
 24 32  1  1  0  0  0
 24 29  1  0  0  0  0
 26 25  1  6  0  0  0
 26 22  1  0  0  0  0
 26 28  1  0  0  0  0
 28 27  1  1  0  0  0
 28 23  1  0  0  0  0
 29 27  1  0  0  0  0
 30 21  1  1  0  0  0
 31 30  1  0  0  0  0
 32 33  2  0  0  0  0
 34 32  1  0  0  0  0
M  END
>  <MODEL>
2

>  <REMARK>
 VINA RESULT:      -9.2      1.314      1.557
  Name = 
  5 active torsions:
  status: ('A' for Active; 'I' for Inactive)
    1  A    between atoms: C_1  and  C_9
    2  A    between atoms: C_7  and  C_11
    3  A    between atoms: C_8  and  C_9
    4  A    between atoms: C_8  and  O_18
    5  A    between atoms: O_18  and  C_30
                            x       y       z     vdW  Elec       q    Type
                         _______ _______ _______ _____ _____    ______ ____

>  <TORSDO>
F 5

$$$$
=
 OpenBabel10262423163D

 34 38  0  0  1  0  0  0  0  0999 V2000
  185.3250  178.1940  142.5280 C   0  0  2  0  0  3  0  0  0  0  0  0
  185.5100  179.2300  146.3300 C   0  0  0  0  0  2  0  0  0  0  0  0
  188.2670  177.9030  147.4870 C   0  0  0  0  0  0  0  0  0  0  0  0
  183.7210  179.2390  144.6880 O   0  0  0  0  0  0  0  0  0  0  0  0
  183.2070  178.1680  141.1700 C   0  0  0  0  0  3  0  0  0  0  0  0
  181.1010  178.9240  142.0970 C   0  0  0  0  0  3  0  0  0  0  0  0
  189.6220  177.6260  147.1380 N   0  0  0  0  0  1  0  0  0  0  0  0
  181.8370  178.4070  141.0270 C   0  0  0  0  0  3  0  0  0  0  0  0
  183.1030  178.9730  143.4600 C   0  0  0  0  0  0  0  0  0  0  0  0
  183.8460  178.4450  142.3830 C   0  0  0  0  0  0  0  0  0  0  0  0
  181.7330  179.2040  143.3120 C   0  0  0  0  0  3  0  0  0  0  0  0
  185.8200  177.8640  146.9300 C   0  0  0  0  0  2  0  0  0  0  0  0
  188.0200  178.5010  148.5680 O   0  0  0  0  0  0  0  0  0  0  0  0
  187.1980  177.5030  146.6180 N   0  0  0  0  0  0  0  0  0  0  0  0
  187.4890  176.8690  145.3380 C   0  0  0  0  0  2  0  0  0  0  0  0
  185.1380  179.1880  144.8440 C   0  0  2  0  0  3  0  0  0  0  0  0
  187.2240  177.8290  144.1880 C   0  0  0  0  0  2  0  0  0  0  0  0
  185.7220  178.0300  144.0080 C   0  0  2  0  0  3  0  0  0  0  0  0
  186.1670  179.2290  141.7620 C   0  0  0  0  0  2  0  0  0  0  0  0
  187.1050  178.5900  140.7430 C   0  0  0  0  0  2  0  0  0  0  0  0
  186.5190  178.6090  139.4730 O   0  0  0  0  0  0  0  0  0  0  0  0
  188.1590  177.4590  136.2930 C   0  0  0  0  0  2  0  0  0  0  0  0
  188.8250  177.9490  139.2060 C   0  0  0  0  0  2  0  0  0  0  0  0
  191.6560  175.8710  136.7800 C   0  0  1  0  0  3  0  0  0  0  0  0
  190.4130  176.3810  136.0360 C   0  0  0  0  0  2  0  0  0  0  0  0
  189.3150  176.7630  137.0200 C   0  0  1  0  0  3  0  0  0  0  0  0
  191.0800  176.9410  138.7560 C   0  0  0  0  0  2  0  0  0  0  0  0
  189.8810  177.6470  138.1330 C   0  0  2  0  0  3  0  0  0  0  0  0
  192.1010  176.7530  137.7970 O   0  0  0  0  0  0  0  0  0  0  0  0
  187.3880  177.8660  138.6690 C   0  0  2  0  0  3  0  0  0  0  0  0
  187.3080  178.3420  137.2200 C   0  0  0  0  0  2  0  0  0  0  0  0
  191.5670  174.4400  137.2270 C   0  0  0  0  0  0  0  0  0  0  0  0
  192.6110  173.8400  137.5910 O   0  0  0  0  0  0  0  0  0  0  0  0
  190.3160  173.7600  137.2660 N   0  0  0  0  0  1  0  0  0  0  0  0
  1 19  1  1  0  0  0
  1 18  1  0  0  0  0
  2 12  1  0  0  0  0
  3 13  2  0  0  0  0
  4 16  1  0  0  0  0
  5 10  1  0  0  0  0
  6 11  2  0  0  0  0
  7  3  1  0  0  0  0
  8  5  2  0  0  0  0
  8  6  1  0  0  0  0
  9  4  1  0  0  0  0
 10  1  1  0  0  0  0
 10  9  2  0  0  0  0
 11  9  1  0  0  0  0
 14 12  1  0  0  0  0
 14  3  1  0  0  0  0
 15 14  1  0  0  0  0
 16  2  1  1  0  0  0
 17 15  1  0  0  0  0
 18 17  1  6  0  0  0
 18 16  1  0  0  0  0
 20 19  1  0  0  0  0
 21 20  1  0  0  0  0
 22 26  1  0  0  0  0
 22 31  1  0  0  0  0
 24 32  1  1  0  0  0
 24 29  1  0  0  0  0
 25 24  1  0  0  0  0
 26 25  1  6  0  0  0
 26 28  1  0  0  0  0
 28 27  1  1  0  0  0
 28 23  1  0  0  0  0
 29 27  1  0  0  0  0
 30 23  1  0  0  0  0
 30 21  1  1  0  0  0
 31 30  1  0  0  0  0
 32 34  1  0  0  0  0
 32 33  2  0  0  0  0
M  END
>  <MODEL>
3

>  <REMARK>
 VINA RESULT:      -9.1      2.388      4.989
  Name = 
  5 active torsions:
  status: ('A' for Active; 'I' for Inactive)
    1  A    between atoms: C_1  and  C_9
    2  A    between atoms: C_7  and  C_11
    3  A    between atoms: C_8  and  C_9
    4  A    between atoms: C_8  and  O_18
    5  A    between atoms: O_18  and  C_30
                            x       y       z     vdW  Elec       q    Type
                         _______ _______ _______ _____ _____    ______ ____

>  <TORSDO>
F 5

$$$$
=
 OpenBabel10262423163D

 34 38  0  0  1  0  0  0  0  0999 V2000
  188.5410  177.4460  143.9890 C   0  0  2  0  0  3  0  0  0  0  0  0
  184.9800  177.6950  145.6690 C   0  0  0  0  0  2  0  0  0  0  0  0
  182.9940  178.9260  143.3800 C   0  0  0  0  0  0  0  0  0  0  0  0
  187.2220  177.4000  146.5560 O   0  0  0  0  0  0  0  0  0  0  0  0
  190.7040  177.3240  145.2690 C   0  0  0  0  0  3  0  0  0  0  0  0
  190.7370  177.2160  147.6880 C   0  0  0  0  0  3  0  0  0  0  0  0
  182.7140  178.8800  141.9830 N   0  0  0  0  0  1  0  0  0  0  0  0
  191.4180  177.2470  146.4680 C   0  0  0  0  0  3  0  0  0  0  0  0
  188.6200  177.3350  146.5180 C   0  0  0  0  0  0  0  0  0  0  0  0
  189.3060  177.3720  145.2850 C   0  0  0  0  0  0  0  0  0  0  0  0
  189.3410  177.2620  147.7130 C   0  0  0  0  0  3  0  0  0  0  0  0
  184.6330  179.1230  145.2710 C   0  0  0  0  0  2  0  0  0  0  0  0
  182.0550  178.7550  144.2010 O   0  0  0  0  0  0  0  0  0  0  0  0
  184.3300  179.1650  143.8450 N   0  0  0  0  0  0  0  0  0  0  0  0
  185.4260  179.2990  142.8940 C   0  0  0  0  0  2  0  0  0  0  0  0
  186.4320  177.3000  145.3720 C   0  0  2  0  0  3  0  0  0  0  0  0
  186.3130  178.0630  142.9170 C   0  0  0  0  0  2  0  0  0  0  0  0
  187.1300  178.0280  144.2040 C   0  0  2  0  0  3  0  0  0  0  0  0
  188.5610  176.1100  143.2260 C   0  0  0  0  0  2  0  0  0  0  0  0
  189.7790  175.9660  142.3200 C   0  0  0  0  0  2  0  0  0  0  0  0
  190.0460  177.1790  141.6770 O   0  0  0  0  0  0  0  0  0  0  0  0
  187.9440  178.0870  138.6970 C   0  0  0  0  0  2  0  0  0  0  0  0
  190.5900  176.7740  139.3610 C   0  0  0  0  0  2  0  0  0  0  0  0
  189.1000  176.4750  135.3720 C   0  0  1  0  0  3  0  0  0  0  0  0
  188.2530  177.3370  136.3200 C   0  0  0  0  0  2  0  0  0  0  0  0
  188.6410  177.0850  137.7710 C   0  0  1  0  0  3  0  0  0  0  0  0
  190.7990  176.1940  136.9270 C   0  0  0  0  0  2  0  0  0  0  0  0
  190.1610  177.1450  137.9340 C   0  0  2  0  0  3  0  0  0  0  0  0
  190.4940  176.5920  135.6050 O   0  0  0  0  0  0  0  0  0  0  0  0
  189.4910  177.0370  140.4020 C   0  0  2  0  0  3  0  0  0  0  0  0
  188.6670  178.2710  140.0410 C   0  0  0  0  0  2  0  0  0  0  0  0
  188.6320  175.0540  135.2440 C   0  0  0  0  0  0  0  0  0  0  0  0
  187.5050  174.7310  135.6990 O   0  0  0  0  0  0  0  0  0  0  0  0
  189.4350  174.0730  134.5960 N   0  0  0  0  0  1  0  0  0  0  0  0
  1 19  1  1  0  0  0
  1 18  1  0  0  0  0
  1 10  1  0  0  0  0
  3 14  1  0  0  0  0
  3 13  2  0  0  0  0
  5 10  2  0  0  0  0
  5  8  1  0  0  0  0
  6 11  1  0  0  0  0
  7  3  1  0  0  0  0
  8  6  2  0  0  0  0
  9  4  1  0  0  0  0
  9 11  2  0  0  0  0
 10  9  1  0  0  0  0
 12  2  1  0  0  0  0
 14 12  1  0  0  0  0
 15 17  1  0  0  0  0
 15 14  1  0  0  0  0
 16  2  1  1  0  0  0
 16  4  1  0  0  0  0
 18 17  1  6  0  0  0
 18 16  1  0  0  0  0
 20 19  1  0  0  0  0
 21 20  1  0  0  0  0
 22 31  1  0  0  0  0
 23 30  1  0  0  0  0
 24 32  1  1  0  0  0
 24 29  1  0  0  0  0
 24 25  1  0  0  0  0
 26 25  1  6  0  0  0
 26 28  1  0  0  0  0
 26 22  1  0  0  0  0
 28 27  1  6  0  0  0
 28 23  1  0  0  0  0
 29 27  1  0  0  0  0
 30 21  1  1  0  0  0
 31 30  1  0  0  0  0
 32 33  2  0  0  0  0
 34 32  1  0  0  0  0
M  END
>  <MODEL>
4

>  <REMARK>
 VINA RESULT:      -9.0      1.133      1.301
  Name = 
  5 active torsions:
  status: ('A' for Active; 'I' for Inactive)
    1  A    between atoms: C_1  and  C_9
    2  A    between atoms: C_7  and  C_11
    3  A    between atoms: C_8  and  C_9
    4  A    between atoms: C_8  and  O_18
    5  A    between atoms: O_18  and  C_30
                            x       y       z     vdW  Elec       q    Type
                         _______ _______ _______ _____ _____    ______ ____

>  <TORSDO>
F 5

$$$$
=
 OpenBabel10262423163D

 34 38  0  0  1  0  0  0  0  0999 V2000
  183.1800  178.9110  141.8680 C   0  0  2  0  0  3  0  0  0  0  0  0
  183.1420  176.4830  138.7580 C   0  0  0  0  0  2  0  0  0  0  0  0
  185.9460  177.0270  137.1630 C   0  0  0  0  0  0  0  0  0  0  0  0
  181.4210  177.2550  140.2870 O   0  0  0  0  0  0  0  0  0  0  0  0
  181.1220  179.6350  143.1220 C   0  0  0  0  0  3  0  0  0  0  0  0
  178.9320  178.7600  142.5710 C   0  0  0  0  0  3  0  0  0  0  0  0
  187.3290  177.3020  137.3700 N   0  0  0  0  0  1  0  0  0  0  0  0
  179.7450  179.5850  143.3540 C   0  0  0  0  0  3  0  0  0  0  0  0
  180.8720  178.0230  141.3210 C   0  0  0  0  0  0  0  0  0  0  0  0
  181.6920  178.8600  142.1070 C   0  0  0  0  0  0  0  0  0  0  0  0
  179.4940  177.9820  141.5550 C   0  0  0  0  0  3  0  0  0  0  0  0
  183.5300  177.4820  137.6760 C   0  0  0  0  0  2  0  0  0  0  0  0
  185.6140  176.0830  136.3980 O   0  0  0  0  0  0  0  0  0  0  0  0
  184.9430  177.8180  137.8170 N   0  0  0  0  0  0  0  0  0  0  0  0
  185.3290  178.8690  138.7500 C   0  0  0  0  0  2  0  0  0  0  0  0
  182.8310  177.1230  140.1160 C   0  0  2  0  0  3  0  0  0  0  0  0
  185.0360  178.4500  140.1830 C   0  0  0  0  0  2  0  0  0  0  0  0
  183.5320  178.4600  140.4360 C   0  0  2  0  0  3  0  0  0  0  0  0
  183.9700  178.1830  142.9680 C   0  0  0  0  0  2  0  0  0  0  0  0
  184.7550  179.1380  143.8610 C   0  0  0  0  0  2  0  0  0  0  0  0
  185.0150  178.5360  145.0960 O   0  0  0  0  0  0  0  0  0  0  0  0
  188.3730  177.6680  146.5440 C   0  0  0  0  0  2  0  0  0  0  0  0
  186.8110  177.3860  143.9660 C   0  0  0  0  0  2  0  0  0  0  0  0
  190.9860  176.4990  143.9380 C   0  0  1  0  0  3  0  0  0  0  0  0
  190.4060  176.8520  145.3160 C   0  0  0  0  0  2  0  0  0  0  0  0
  189.0370  177.5040  145.1730 C   0  0  1  0  0  3  0  0  0  0  0  0
  188.9050  176.4850  142.9140 C   0  0  0  0  0  2  0  0  0  0  0  0
  188.1540  176.6890  144.2250 C   0  0  2  0  0  3  0  0  0  0  0  0
  190.0930  175.7510  143.1290 O   0  0  0  0  0  0  0  0  0  0  0  0
  186.3980  178.3280  145.1070 C   0  0  2  0  0  3  0  0  0  0  0  0
  186.8430  177.7870  146.4640 C   0  0  0  0  0  2  0  0  0  0  0  0
  191.6180  177.6550  143.2180 C   0  0  0  0  0  0  0  0  0  0  0  0
  192.0490  177.4930  142.0470 O   0  0  0  0  0  0  0  0  0  0  0  0
  191.7170  178.9370  143.8310 N   0  0  0  0  0  1  0  0  0  0  0  0
  1 10  1  0  0  0  0
  1 19  1  1  0  0  0
  3  7  1  0  0  0  0
  3 14  1  0  0  0  0
  4  9  1  0  0  0  0
  5  8  1  0  0  0  0
  6  8  2  0  0  0  0
  9 11  2  0  0  0  0
  9 10  1  0  0  0  0
 10  5  2  0  0  0  0
 11  6  1  0  0  0  0
 12 14  1  0  0  0  0
 12  2  1  0  0  0  0
 13  3  2  0  0  0  0
 14 15  1  0  0  0  0
 15 17  1  0  0  0  0
 16  2  1  6  0  0  0
 16  4  1  0  0  0  0
 16 18  1  0  0  0  0
 18 17  1  1  0  0  0
 18  1  1  0  0  0  0
 19 20  1  0  0  0  0
 20 21  1  0  0  0  0
 23 28  1  0  0  0  0
 23 30  1  0  0  0  0
 24 32  1  6  0  0  0
 24 25  1  0  0  0  0
 26 25  1  1  0  0  0
 26 22  1  0  0  0  0
 27 29  1  0  0  0  0
 28 27  1  6  0  0  0
 28 26  1  0  0  0  0
 29 24  1  0  0  0  0
 30 21  1  1  0  0  0
 30 31  1  0  0  0  0
 31 22  1  0  0  0  0
 32 34  1  0  0  0  0
 33 32  2  0  0  0  0
M  END
>  <MODEL>
5

>  <REMARK>
 VINA RESULT:      -8.6      2.949      7.139
  Name = 
  5 active torsions:
  status: ('A' for Active; 'I' for Inactive)
    1  A    between atoms: C_1  and  C_9
    2  A    between atoms: C_7  and  C_11
    3  A    between atoms: C_8  and  C_9
    4  A    between atoms: C_8  and  O_18
    5  A    between atoms: O_18  and  C_30
                            x       y       z     vdW  Elec       q    Type
                         _______ _______ _______ _____ _____    ______ ____

>  <TORSDO>
F 5

$$$$
=
 OpenBabel10262423163D

 34 38  0  0  1  0  0  0  0  0999 V2000
  188.5480  178.1590  141.6790 C   0  0  2  0  0  3  0  0  0  0  0  0
  191.0130  175.7330  143.5780 C   0  0  0  0  0  2  0  0  0  0  0  0
  191.0110  176.7170  146.6980 C   0  0  0  0  0  0  0  0  0  0  0  0
  190.6430  176.2250  141.2290 O   0  0  0  0  0  0  0  0  0  0  0  0
  188.5790  178.5460  139.1930 C   0  0  0  0  0  3  0  0  0  0  0  0
  190.0810  177.3200  137.7420 C   0  0  0  0  0  3  0  0  0  0  0  0
  190.1580  177.2160  147.7250 N   0  0  0  0  0  1  0  0  0  0  0  0
  189.0730  178.2720  137.9150 C   0  0  0  0  0  3  0  0  0  0  0  0
  190.1040  176.9010  140.1280 C   0  0  0  0  0  0  0  0  0  0  0  0
  189.0910  177.8670  140.3040 C   0  0  0  0  0  0  0  0  0  0  0  0
  190.5970  176.6370  138.8470 C   0  0  0  0  0  3  0  0  0  0  0  0
  191.8350  176.7740  144.3270 C   0  0  0  0  0  2  0  0  0  0  0  0
  191.7490  175.7260  146.9390 O   0  0  0  0  0  0  0  0  0  0  0  0
  191.0300  177.3380  145.4040 N   0  0  0  0  0  0  0  0  0  0  0  0
  190.1290  178.4450  145.1080 C   0  0  0  0  0  2  0  0  0  0  0  0
  190.0640  176.3250  142.5290 C   0  0  2  0  0  3  0  0  0  0  0  0
  189.0100  177.9950  144.1810 C   0  0  0  0  0  2  0  0  0  0  0  0
  189.5560  177.7610  142.7750 C   0  0  2  0  0  3  0  0  0  0  0  0
  187.1380  177.5790  141.8820 C   0  0  0  0  0  2  0  0  0  0  0  0
  186.0720  178.6580  142.0370 C   0  0  0  0  0  2  0  0  0  0  0  0
  185.4940  178.5850  143.3080 O   0  0  0  0  0  0  0  0  0  0  0  0
  181.7940  179.0180  143.7990 C   0  0  0  0  0  2  0  0  0  0  0  0
  183.8080  178.5800  141.5820 C   0  0  0  0  0  2  0  0  0  0  0  0
  179.6560  178.1630  140.6870 C   0  0  1  0  0  3  0  0  0  0  0  0
  179.9690  178.6180  142.1200 C   0  0  0  0  0  2  0  0  0  0  0  0
  181.4360  178.3800  142.4530 C   0  0  1  0  0  3  0  0  0  0  0  0
  181.8690  178.3120  140.0100 C   0  0  0  0  0  2  0  0  0  0  0  0
  182.3310  178.9140  141.3320 C   0  0  2  0  0  3  0  0  0  0  0  0
  180.5420  178.7030  139.7210 O   0  0  0  0  0  0  0  0  0  0  0  0
  184.1320  178.3820  143.0700 C   0  0  2  0  0  3  0  0  0  0  0  0
  183.2950  179.3090  143.9500 C   0  0  0  0  0  2  0  0  0  0  0  0
  179.4430  176.6830  140.5410 C   0  0  0  0  0  0  0  0  0  0  0  0
  179.2940  175.9750  141.5710 O   0  0  0  0  0  0  0  0  0  0  0  0
  179.3840  176.0730  139.2560 N   0  0  0  0  0  1  0  0  0  0  0  0
  1 19  1  1  0  0  0
  1 18  1  0  0  0  0
  2 12  1  0  0  0  0
  3 13  2  0  0  0  0
  3  7  1  0  0  0  0
  4 16  1  0  0  0  0
  5 10  1  0  0  0  0
  6  8  1  0  0  0  0
  6 11  2  0  0  0  0
  8  5  2  0  0  0  0
  9 10  2  0  0  0  0
  9  4  1  0  0  0  0
 10  1  1  0  0  0  0
 11  9  1  0  0  0  0
 12 14  1  0  0  0  0
 14  3  1  0  0  0  0
 15 14  1  0  0  0  0
 16 18  1  0  0  0  0
 16  2  1  1  0  0  0
 17 15  1  0  0  0  0
 18 17  1  1  0  0  0
 19 20  1  0  0  0  0
 20 21  1  0  0  0  0
 22 31  1  0  0  0  0
 23 30  1  0  0  0  0
 24 32  1  1  0  0  0
 24 25  1  0  0  0  0
 26 25  1  6  0  0  0
 26 22  1  0  0  0  0
 28 27  1  6  0  0  0
 28 23  1  0  0  0  0
 28 26  1  0  0  0  0
 29 27  1  0  0  0  0
 29 24  1  0  0  0  0
 30 21  1  6  0  0  0
 30 31  1  0  0  0  0
 32 33  2  0  0  0  0
 34 32  1  0  0  0  0
M  END
>  <MODEL>
6

>  <REMARK>
 VINA RESULT:      -8.4      3.172      8.408
  Name = 
  5 active torsions:
  status: ('A' for Active; 'I' for Inactive)
    1  A    between atoms: C_1  and  C_9
    2  A    between atoms: C_7  and  C_11
    3  A    between atoms: C_8  and  C_9
    4  A    between atoms: C_8  and  O_18
    5  A    between atoms: O_18  and  C_30
                            x       y       z     vdW  Elec       q    Type
                         _______ _______ _______ _____ _____    ______ ____

>  <TORSDO>
F 5

$$$$
=
 OpenBabel10262423163D

 34 38  0  0  1  0  0  0  0  0999 V2000
  188.6010  178.3050  141.5630 C   0  0  2  0  0  3  0  0  0  0  0  0
  190.7800  175.7000  143.5720 C   0  0  0  0  0  2  0  0  0  0  0  0
  190.8070  176.7550  146.6690 C   0  0  0  0  0  0  0  0  0  0  0  0
  190.5090  176.1680  141.2050 O   0  0  0  0  0  0  0  0  0  0  0  0
  188.7220  178.6260  139.0700 C   0  0  0  0  0  3  0  0  0  0  0  0
  190.1300  177.2270  137.6820 C   0  0  0  0  0  3  0  0  0  0  0  0
  189.9840  177.3590  147.6650 N   0  0  0  0  0  1  0  0  0  0  0  0
  189.2150  178.2760  137.8100 C   0  0  0  0  0  3  0  0  0  0  0  0
  190.0620  176.8660  140.0770 C   0  0  0  0  0  0  0  0  0  0  0  0
  189.1430  177.9290  140.2080 C   0  0  0  0  0  0  0  0  0  0  0  0
  190.5540  176.5250  138.8130 C   0  0  0  0  0  3  0  0  0  0  0  0
  191.6820  176.6760  144.3170 C   0  0  0  0  0  2  0  0  0  0  0  0
  191.4400  175.7030  146.9490 O   0  0  0  0  0  0  0  0  0  0  0  0
  190.9130  177.3400  145.3620 N   0  0  0  0  0  0  0  0  0  0  0  0
  190.1290  178.5210  145.0210 C   0  0  0  0  0  2  0  0  0  0  0  0
  189.9150  176.3550  142.4880 C   0  0  2  0  0  3  0  0  0  0  0  0
  188.9920  178.1580  144.0770 C   0  0  0  0  0  2  0  0  0  0  0  0
  189.5430  177.8390  142.6910 C   0  0  2  0  0  3  0  0  0  0  0  0
  187.1380  177.8680  141.7450 C   0  0  0  0  0  2  0  0  0  0  0  0
  186.2110  179.0320  142.0780 C   0  0  0  0  0  2  0  0  0  0  0  0
  185.6750  179.5710  140.9040 O   0  0  0  0  0  0  0  0  0  0  0  0
  182.8460  177.1920  140.2230 C   0  0  0  0  0  2  0  0  0  0  0  0
  185.0760  178.6290  138.7640 C   0  0  0  0  0  2  0  0  0  0  0  0
  182.9510  175.5420  136.7220 C   0  0  1  0  0  3  0  0  0  0  0  0
  182.4270  175.8720  138.1280 C   0  0  0  0  0  2  0  0  0  0  0  0
  183.4480  176.6920  138.9050 C   0  0  1  0  0  3  0  0  0  0  0  0
  184.4590  177.3050  136.7220 C   0  0  0  0  0  2  0  0  0  0  0  0
  183.9570  177.8560  138.0520 C   0  0  2  0  0  3  0  0  0  0  0  0
  183.4070  176.6820  136.0130 O   0  0  0  0  0  0  0  0  0  0  0  0
  185.0090  178.5040  140.2940 C   0  0  2  0  0  3  0  0  0  0  0  0
  183.5630  178.4310  140.7830 C   0  0  0  0  0  2  0  0  0  0  0  0
  183.9080  174.3860  136.6740 C   0  0  0  0  0  0  0  0  0  0  0  0
  184.3350  173.8920  137.7490 O   0  0  0  0  0  0  0  0  0  0  0  0
  184.3220  173.8270  135.4320 N   0  0  0  0  0  1  0  0  0  0  0  0
  1 19  1  1  0  0  0
  1 18  1  0  0  0  0
  2 12  1  0  0  0  0
  3 13  2  0  0  0  0
  3  7  1  0  0  0  0
  4 16  1  0  0  0  0
  5 10  1  0  0  0  0
  6  8  1  0  0  0  0
  6 11  2  0  0  0  0
  8  5  2  0  0  0  0
  9 10  2  0  0  0  0
  9  4  1  0  0  0  0
 10  1  1  0  0  0  0
 11  9  1  0  0  0  0
 12 14  1  0  0  0  0
 14  3  1  0  0  0  0
 15 14  1  0  0  0  0
 16 18  1  0  0  0  0
 16  2  1  1  0  0  0
 17 15  1  0  0  0  0
 18 17  1  1  0  0  0
 19 20  1  0  0  0  0
 21 20  1  0  0  0  0
 22 31  1  0  0  0  0
 23 30  1  0  0  0  0
 24 32  1  1  0  0  0
 24 25  1  0  0  0  0
 26 25  1  6  0  0  0
 26 22  1  0  0  0  0
 28 27  1  6  0  0  0
 28 23  1  0  0  0  0
 28 26  1  0  0  0  0
 29 24  1  0  0  0  0
 29 27  1  0  0  0  0
 30 31  1  0  0  0  0
 30 21  1  1  0  0  0
 32 33  2  0  0  0  0
 34 32  1  0  0  0  0
M  END
>  <MODEL>
7

>  <REMARK>
 VINA RESULT:      -8.3      3.790      7.042
  Name = 
  5 active torsions:
  status: ('A' for Active; 'I' for Inactive)
    1  A    between atoms: C_1  and  C_9
    2  A    between atoms: C_7  and  C_11
    3  A    between atoms: C_8  and  C_9
    4  A    between atoms: C_8  and  O_18
    5  A    between atoms: O_18  and  C_30
                            x       y       z     vdW  Elec       q    Type
                         _______ _______ _______ _____ _____    ______ ____

>  <TORSDO>
F 5

$$$$
=
 OpenBabel10262423163D

 34 38  0  0  1  0  0  0  0  0999 V2000
  187.5000  177.5460  144.5680 C   0  0  2  0  0  3  0  0  0  0  0  0
  191.1630  178.3640  143.3530 C   0  0  0  0  0  2  0  0  0  0  0  0
  191.3560  177.2570  140.2810 C   0  0  0  0  0  0  0  0  0  0  0  0
  190.1140  178.2900  145.5420 O   0  0  0  0  0  0  0  0  0  0  0  0
  186.8130  177.3860  146.9840 C   0  0  0  0  0  3  0  0  0  0  0  0
  188.3710  177.8660  148.7760 C   0  0  0  0  0  3  0  0  0  0  0  0
  190.6090  177.1410  139.0720 N   0  0  0  0  0  1  0  0  0  0  0  0
  187.0930  177.4930  148.3490 C   0  0  0  0  0  3  0  0  0  0  0  0
  189.0980  178.0370  146.4710 C   0  0  0  0  0  0  0  0  0  0  0  0
  187.8100  177.6540  146.0390 C   0  0  0  0  0  0  0  0  0  0  0  0
  189.3720  178.1360  147.8380 C   0  0  0  0  0  3  0  0  0  0  0  0
  191.5260  177.0030  142.7730 C   0  0  0  0  0  2  0  0  0  0  0  0
  192.5100  177.7610  140.2450 O   0  0  0  0  0  0  0  0  0  0  0  0
  190.8000  176.8040  141.5240 N   0  0  0  0  0  0  0  0  0  0  0  0
  189.4410  176.2810  141.5730 C   0  0  0  0  0  2  0  0  0  0  0  0
  189.8490  178.3740  144.1420 C   0  0  2  0  0  3  0  0  0  0  0  0
  188.5040  177.2770  142.2410 C   0  0  0  0  0  2  0  0  0  0  0  0
  188.7830  177.3340  143.7400 C   0  0  2  0  0  3  0  0  0  0  0  0
  186.6180  178.7060  144.0750 C   0  0  0  0  0  2  0  0  0  0  0  0
  185.1860  178.2730  143.7770 C   0  0  0  0  0  2  0  0  0  0  0  0
  184.5740  179.1930  142.9200 O   0  0  0  0  0  0  0  0  0  0  0  0
  182.2790  177.7410  140.3230 C   0  0  0  0  0  2  0  0  0  0  0  0
  185.0960  178.8170  140.5940 C   0  0  0  0  0  2  0  0  0  0  0  0
  184.0280  176.7530  137.0140 C   0  0  1  0  0  3  0  0  0  0  0  0
  182.8820  176.9510  138.0170 C   0  0  0  0  0  2  0  0  0  0  0  0
  183.4240  177.3460  139.3840 C   0  0  1  0  0  3  0  0  0  0  0  0
  185.5040  178.0620  138.2340 C   0  0  0  0  0  2  0  0  0  0  0  0
  184.4430  178.4790  139.2460 C   0  0  2  0  0  3  0  0  0  0  0  0
  184.9240  177.8510  136.9630 O   0  0  0  0  0  0  0  0  0  0  0  0
  184.2120  178.4470  141.7950 C   0  0  2  0  0  3  0  0  0  0  0  0
  182.7310  178.6480  141.4790 C   0  0  0  0  0  2  0  0  0  0  0  0
  184.7180  175.4230  137.1180 C   0  0  0  0  0  0  0  0  0  0  0  0
  185.8260  175.2550  136.5450 O   0  0  0  0  0  0  0  0  0  0  0  0
  184.1500  174.3580  137.8720 N   0  0  0  0  0  1  0  0  0  0  0  0
  1 19  1  6  0  0  0
  1 10  1  0  0  0  0
  3 14  1  0  0  0  0
  4  9  1  0  0  0  0
  5  8  1  0  0  0  0
  7  3  1  0  0  0  0
  8  6  2  0  0  0  0
  9 11  2  0  0  0  0
 10  9  1  0  0  0  0
 10  5  2  0  0  0  0
 11  6  1  0  0  0  0
 12  2  1  0  0  0  0
 13  3  2  0  0  0  0
 14 15  1  0  0  0  0
 14 12  1  0  0  0  0
 15 17  1  0  0  0  0
 16  2  1  6  0  0  0
 16  4  1  0  0  0  0
 18 17  1  6  0  0  0
 18 16  1  0  0  0  0
 18  1  1  0  0  0  0
 20 19  1  0  0  0  0
 21 20  1  0  0  0  0
 22 31  1  0  0  0  0
 23 30  1  0  0  0  0
 24 32  1  1  0  0  0
 24 25  1  0  0  0  0
 26 25  1  6  0  0  0
 26 22  1  0  0  0  0
 28 27  1  6  0  0  0
 28 26  1  0  0  0  0
 28 23  1  0  0  0  0
 29 24  1  0  0  0  0
 29 27  1  0  0  0  0
 30 21  1  1  0  0  0
 31 30  1  0  0  0  0
 32 34  1  0  0  0  0
 33 32  2  0  0  0  0
M  END
>  <MODEL>
8

>  <REMARK>
 VINA RESULT:      -8.3      3.010      5.669
  Name = 
  5 active torsions:
  status: ('A' for Active; 'I' for Inactive)
    1  A    between atoms: C_1  and  C_9
    2  A    between atoms: C_7  and  C_11
    3  A    between atoms: C_8  and  C_9
    4  A    between atoms: C_8  and  O_18
    5  A    between atoms: O_18  and  C_30
                            x       y       z     vdW  Elec       q    Type
                         _______ _______ _______ _____ _____    ______ ____

>  <TORSDO>
F 5

$$$$
=
 OpenBabel10262423163D

 34 38  0  0  1  0  0  0  0  0999 V2000
  188.7350  178.2430  141.5460 C   0  0  2  0  0  3  0  0  0  0  0  0
  190.9010  175.6630  143.6010 C   0  0  0  0  0  2  0  0  0  0  0  0
  190.8850  176.7420  146.6900 C   0  0  0  0  0  0  0  0  0  0  0  0
  190.6570  176.1120  141.2270 O   0  0  0  0  0  0  0  0  0  0  0  0
  188.8850  178.5460  139.0520 C   0  0  0  0  0  3  0  0  0  0  0  0
  190.3160  177.1420  137.6920 C   0  0  0  0  0  3  0  0  0  0  0  0
  190.0480  177.3490  147.6710 N   0  0  0  0  0  1  0  0  0  0  0  0
  189.3950  178.1880  137.8010 C   0  0  0  0  0  3  0  0  0  0  0  0
  190.2200  176.7990  140.0880 C   0  0  0  0  0  0  0  0  0  0  0  0
  189.2950  177.8580  140.2000 C   0  0  0  0  0  0  0  0  0  0  0  0
  190.7290  176.4500  138.8340 C   0  0  0  0  0  3  0  0  0  0  0  0
  191.7890  176.6480  144.3490 C   0  0  0  0  0  2  0  0  0  0  0  0
  191.5200  175.6950  146.9860 O   0  0  0  0  0  0  0  0  0  0  0  0
  191.0040  177.3180  145.3800 N   0  0  0  0  0  0  0  0  0  0  0  0
  190.2200  178.4920  145.0200 C   0  0  0  0  0  2  0  0  0  0  0  0
  190.0460  176.3060  142.5020 C   0  0  2  0  0  3  0  0  0  0  0  0
  189.0960  178.1160  144.0660 C   0  0  0  0  0  2  0  0  0  0  0  0
  189.6650  177.7890  142.6880 C   0  0  2  0  0  3  0  0  0  0  0  0
  187.2720  177.8000  141.7130 C   0  0  0  0  0  2  0  0  0  0  0  0
  186.2770  178.8910  141.3280 C   0  0  0  0  0  2  0  0  0  0  0  0
  185.9510  178.7870  139.9720 O   0  0  0  0  0  0  0  0  0  0  0  0
  182.5200  179.0130  138.4560 C   0  0  0  0  0  2  0  0  0  0  0  0
  183.8500  178.5570  141.1370 C   0  0  0  0  0  2  0  0  0  0  0  0
  179.6460  179.2830  141.0350 C   0  0  1  0  0  3  0  0  0  0  0  0
  180.3230  179.1920  139.6600 C   0  0  0  0  0  2  0  0  0  0  0  0
  181.8350  179.3080  139.7950 C   0  0  1  0  0  3  0  0  0  0  0  0
  181.5660  178.6540  142.1740 C   0  0  0  0  0  2  0  0  0  0  0  0
  182.3450  178.3740  140.8950 C   0  0  2  0  0  3  0  0  0  0  0  0
  180.1910  178.3860  141.9890 O   0  0  0  0  0  0  0  0  0  0  0  0
  184.5910  179.1030  139.9070 C   0  0  2  0  0  3  0  0  0  0  0  0
  183.9840  178.5710  138.6100 C   0  0  0  0  0  2  0  0  0  0  0  0
  179.4860  180.6830  141.5550 C   0  0  0  0  0  0  0  0  0  0  0  0
  179.7050  180.9190  142.7720 O   0  0  0  0  0  0  0  0  0  0  0  0
  179.1130  181.7500  140.6900 N   0  0  0  0  0  1  0  0  0  0  0  0
  1 19  1  1  0  0  0
  1 18  1  0  0  0  0
  2 12  1  0  0  0  0
  3 13  2  0  0  0  0
  3  7  1  0  0  0  0
  4 16  1  0  0  0  0
  5 10  1  0  0  0  0
  6  8  1  0  0  0  0
  6 11  2  0  0  0  0
  8  5  2  0  0  0  0
  9 10  2  0  0  0  0
  9  4  1  0  0  0  0
 10  1  1  0  0  0  0
 11  9  1  0  0  0  0
 12 14  1  0  0  0  0
 14  3  1  0  0  0  0
 15 14  1  0  0  0  0
 16 18  1  0  0  0  0
 16  2  1  1  0  0  0
 17 15  1  0  0  0  0
 18 17  1  1  0  0  0
 20 19  1  0  0  0  0
 21 20  1  0  0  0  0
 22 31  1  0  0  0  0
 24 32  1  1  0  0  0
 24 29  1  0  0  0  0
 25 26  1  0  0  0  0
 25 24  1  0  0  0  0
 26 22  1  6  0  0  0
 26 28  1  0  0  0  0
 28 23  1  1  0  0  0
 28 27  1  0  0  0  0
 29 27  1  0  0  0  0
 30 21  1  1  0  0  0
 30 23  1  0  0  0  0
 31 30  1  0  0  0  0
 32 33  2  0  0  0  0
 34 32  1  0  0  0  0
M  END
>  <MODEL>
9

>  <REMARK>
 VINA RESULT:      -8.2      3.385      8.614
  Name = 
  5 active torsions:
  status: ('A' for Active; 'I' for Inactive)
    1  A    between atoms: C_1  and  C_9
    2  A    between atoms: C_7  and  C_11
    3  A    between atoms: C_8  and  C_9
    4  A    between atoms: C_8  and  O_18
    5  A    between atoms: O_18  and  C_30
                            x       y       z     vdW  Elec       q    Type
                         _______ _______ _______ _____ _____    ______ ____

>  <TORSDO>
F 5

$$$$
