=
 OpenBabel10262419473D

 25 27  0  0  1  0  0  0  0  0999 V2000
  189.3220  178.1250  138.0050 C   0  0  0  0  0  0  0  0  0  0  0  0
  189.4710  177.1270  136.9720 N   0  0  0  0  0  0  0  0  0  0  0  0
  187.0030  176.7140  135.1130 C   0  0  2  0  0  3  0  0  0  0  0  0
  187.0550  175.6950  137.4750 C   0  0  0  0  0  2  0  0  0  0  0  0
  187.9950  177.8910  135.1530 C   0  0  0  0  0  2  0  0  0  0  0  0
  188.2210  174.6240  135.4940 C   0  0  0  0  0  0  0  0  0  0  0  0
  188.7590  173.5080  135.0250 C   0  0  0  0  0  2  0  0  0  0  0  0
  186.2160  176.4410  136.4210 C   0  0  1  0  0  0  0  0  0  0  0  0
  189.5810  175.7050  137.2910 C   0  0  0  0  0  2  0  0  0  0  0  0
  188.9920  179.3000  137.6830 O   0  0  0  0  0  0  0  0  0  0  0  0
  187.6020  175.5180  134.6210 O   0  0  0  0  0  0  0  0  0  0  0  0
  188.2960  174.9420  136.9580 C   0  0  1  0  0  3  0  0  0  0  0  0
  189.4160  177.5080  135.5650 C   0  0  0  0  0  2  0  0  0  0  0  0
  185.7310  177.7410  137.0490 C   0  0  0  0  0  1  0  0  0  0  0  0
  189.5440  177.8180  139.4380 C   0  0  0  0  0  0  0  0  0  0  0  0
  190.0010  177.2900  142.1600 C   0  0  0  0  0  3  0  0  0  0  0  0
  188.4920  177.9200  140.3720 C   0  0  0  0  0  0  0  0  0  0  0  0
  188.7250  177.6520  141.7240 C   0  0  0  0  0  3  0  0  0  0  0  0
  191.0500  177.1950  141.2450 C   0  0  0  0  0  3  0  0  0  0  0  0
  187.2390  178.2560  139.9780 F   0  0  0  0  0  0  0  0  0  0  0  0
  190.8220  177.4600  139.8920 C   0  0  0  0  0  3  0  0  0  0  0  0
  184.0070  175.9530  135.2030 C   0  0  0  0  0  0  0  0  0  0  0  0
  184.0200  177.0560  134.5940 O   0  0  0  0  0  0  0  0  0  0  0  0
  182.6650  174.8090  134.9280 S   0  0  0  0  0  1  0  0  0  0  0  0
  185.0570  175.6040  136.1130 N   0  0  0  0  0  2  0  0  0  0  0  0
  1 15  1  0  0  0  0
  2  9  1  0  0  0  0
  2  1  1  0  0  0  0
  3  5  1  1  0  0  0
  3  8  1  0  0  0  0
  5 13  1  0  0  0  0
  6 12  1  0  0  0  0
  7  6  2  0  0  0  0
  8 14  1  1  0  0  0
  8  4  1  0  0  0  0
 10  1  2  0  0  0  0
 11  3  1  0  0  0  0
 11  6  1  0  0  0  0
 12  9  1  6  0  0  0
 12  4  1  0  0  0  0
 13  2  1  0  0  0  0
 15 21  2  0  0  0  0
 15 17  1  0  0  0  0
 17 18  2  0  0  0  0
 18 16  1  0  0  0  0
 19 16  2  0  0  0  0
 20 17  1  0  0  0  0
 21 19  1  0  0  0  0
 22 25  1  0  0  0  0
 23 22  2  0  0  0  0
 24 22  1  0  0  0  0
 25  8  1  0  0  0  0
M  END
>  <MODEL>
1

>  <REMARK>
 VINA RESULT:      -5.5      0.000      0.000
  Name = 
  2 active torsions:
  status: ('A' for Active; 'I' for Inactive)
    1  A    between atoms: C_1  and  C_5
    2  A    between atoms: C_15  and  N_21
                            x       y       z     vdW  Elec       q    Type
                         _______ _______ _______ _____ _____    ______ ____

>  <TORSDO>
F 2

$$$$
=
 OpenBabel10262419473D

 25 27  0  0  1  0  0  0  0  0999 V2000
  189.2550  178.1460  138.0100 C   0  0  0  0  0  0  0  0  0  0  0  0
  189.4070  177.1110  137.0150 N   0  0  0  0  0  0  0  0  0  0  0  0
  187.0090  176.7410  135.0590 C   0  0  2  0  0  3  0  0  0  0  0  0
  186.9140  175.7930  137.4490 C   0  0  0  0  0  2  0  0  0  0  0  0
  188.0460  177.8780  135.1100 C   0  0  0  0  0  2  0  0  0  0  0  0
  188.1200  174.6160  135.5540 C   0  0  0  0  0  0  0  0  0  0  0  0
  188.6310  173.4650  135.1430 C   0  0  0  0  0  2  0  0  0  0  0  0
  186.1540  176.5410  136.3380 C   0  0  1  0  0  0  0  0  0  0  0  0
  189.4450  175.6960  137.3780 C   0  0  0  0  0  2  0  0  0  0  0  0
  188.9890  179.3230  137.6400 O   0  0  0  0  0  0  0  0  0  0  0  0
  187.5780  175.5070  134.6280 O   0  0  0  0  0  0  0  0  0  0  0  0
  188.1450  174.9760  137.0110 C   0  0  1  0  0  3  0  0  0  0  0  0
  189.4300  177.4500  135.5960 C   0  0  0  0  0  2  0  0  0  0  0  0
  185.6970  177.8770  136.9050 C   0  0  0  0  0  1  0  0  0  0  0  0
  189.4010  177.8740  139.4590 C   0  0  0  0  0  0  0  0  0  0  0  0
  189.6360  177.3050  142.2020 C   0  0  0  0  0  3  0  0  0  0  0  0
  190.6200  177.4050  139.9900 C   0  0  0  0  0  0  0  0  0  0  0  0
  190.7320  177.1280  141.3560 C   0  0  0  0  0  3  0  0  0  0  0  0
  188.4220  177.7600  141.6850 C   0  0  0  0  0  3  0  0  0  0  0  0
  191.7080  177.2360  139.1970 F   0  0  0  0  0  0  0  0  0  0  0  0
  188.3060  178.0390  140.3210 C   0  0  0  0  0  3  0  0  0  0  0  0
  183.8480  175.5370  136.8600 C   0  0  0  0  0  0  0  0  0  0  0  0
  183.8080  176.0510  138.0090 O   0  0  0  0  0  0  0  0  0  0  0  0
  182.4800  174.5400  136.2910 S   0  0  0  0  0  1  0  0  0  0  0  0
  184.9760  175.7420  136.0020 N   0  0  0  0  0  2  0  0  0  0  0  0
  1 15  1  0  0  0  0
  2  9  1  0  0  0  0
  2  1  1  0  0  0  0
  3  5  1  1  0  0  0
  3  8  1  0  0  0  0
  5 13  1  0  0  0  0
  6 12  1  0  0  0  0
  7  6  2  0  0  0  0
  8 14  1  1  0  0  0
  8  4  1  0  0  0  0
 10  1  2  0  0  0  0
 11  3  1  0  0  0  0
 11  6  1  0  0  0  0
 12  9  1  6  0  0  0
 12  4  1  0  0  0  0
 13  2  1  0  0  0  0
 15 17  2  0  0  0  0
 15 21  1  0  0  0  0
 17 18  1  0  0  0  0
 18 16  2  0  0  0  0
 19 16  1  0  0  0  0
 20 17  1  0  0  0  0
 21 19  2  0  0  0  0
 22 23  2  0  0  0  0
 24 22  1  0  0  0  0
 25  8  1  0  0  0  0
 25 22  1  0  0  0  0
M  END
>  <MODEL>
2

>  <REMARK>
 VINA RESULT:      -5.3      1.265      1.591
  Name = 
  2 active torsions:
  status: ('A' for Active; 'I' for Inactive)
    1  A    between atoms: C_1  and  C_5
    2  A    between atoms: C_15  and  N_21
                            x       y       z     vdW  Elec       q    Type
                         _______ _______ _______ _____ _____    ______ ____

>  <TORSDO>
F 2

$$$$
=
 OpenBabel10262419473D

 25 27  0  0  1  0  0  0  0  0999 V2000
  179.9800  179.3690  137.7060 C   0  0  0  0  0  0  0  0  0  0  0  0
  180.7860  178.1980  137.4570 N   0  0  0  0  0  0  0  0  0  0  0  0
  181.9080  176.7560  139.9820 C   0  0  2  0  0  3  0  0  0  0  0  0
  183.0090  178.9070  139.0980 C   0  0  0  0  0  2  0  0  0  0  0  0
  180.4630  176.7870  139.4500 C   0  0  0  0  0  2  0  0  0  0  0  0
  183.4570  176.6240  138.0900 C   0  0  0  0  0  0  0  0  0  0  0  0
  184.2760  175.9180  137.3250 C   0  0  0  0  0  2  0  0  0  0  0  0
  182.5320  178.1300  140.3400 C   0  0  1  0  0  0  0  0  0  0  0  0
  182.0970  178.2900  136.8170 C   0  0  0  0  0  2  0  0  0  0  0  0
  178.9760  179.2770  138.4660 O   0  0  0  0  0  0  0  0  0  0  0  0
  182.7790  176.0050  139.1400 O   0  0  0  0  0  0  0  0  0  0  0  0
  183.2370  178.0830  137.8170 C   0  0  1  0  0  3  0  0  0  0  0  0
  180.3500  176.8890  137.9300 C   0  0  0  0  0  2  0  0  0  0  0  0
  181.5350  179.0070  141.0830 C   0  0  0  0  0  1  0  0  0  0  0  0
  180.2910  180.6850  137.0980 C   0  0  0  0  0  0  0  0  0  0  0  0
  180.8150  183.1890  135.9330 C   0  0  0  0  0  3  0  0  0  0  0  0
  180.7410  181.7610  137.8890 C   0  0  0  0  0  0  0  0  0  0  0  0
  181.0050  183.0020  137.3040 C   0  0  0  0  0  3  0  0  0  0  0  0
  180.3600  182.1320  135.1420 C   0  0  0  0  0  3  0  0  0  0  0  0
  180.9500  181.6080  139.2210 F   0  0  0  0  0  0  0  0  0  0  0  0
  180.0970  180.8890  135.7220 C   0  0  0  0  0  3  0  0  0  0  0  0
  184.8820  178.7220  141.1940 C   0  0  0  0  0  0  0  0  0  0  0  0
  184.9910  179.7080  140.4170 O   0  0  0  0  0  0  0  0  0  0  0  0
  186.2170  178.3280  142.3120 S   0  0  0  0  0  1  0  0  0  0  0  0
  183.7000  177.9130  141.1940 N   0  0  0  0  0  2  0  0  0  0  0  0
  1 10  2  0  0  0  0
  2  1  1  0  0  0  0
  2 13  1  0  0  0  0
  3  5  1  6  0  0  0
  3  8  1  0  0  0  0
  4  8  1  0  0  0  0
  6 11  1  0  0  0  0
  7  6  2  0  0  0  0
  8 14  1  1  0  0  0
  8 25  1  0  0  0  0
  9  2  1  0  0  0  0
 11  3  1  0  0  0  0
 12  9  1  6  0  0  0
 12  6  1  0  0  0  0
 12  4  1  0  0  0  0
 13  5  1  0  0  0  0
 15  1  1  0  0  0  0
 15 17  1  0  0  0  0
 16 18  1  0  0  0  0
 17 20  1  0  0  0  0
 18 17  2  0  0  0  0
 19 21  1  0  0  0  0
 19 16  2  0  0  0  0
 21 15  2  0  0  0  0
 22 25  1  0  0  0  0
 22 24  1  0  0  0  0
 23 22  2  0  0  0  0
M  END
>  <MODEL>
3

>  <REMARK>
 VINA RESULT:      -5.1      5.606      8.489
  Name = 
  2 active torsions:
  status: ('A' for Active; 'I' for Inactive)
    1  A    between atoms: C_1  and  C_5
    2  A    between atoms: C_15  and  N_21
                            x       y       z     vdW  Elec       q    Type
                         _______ _______ _______ _____ _____    ______ ____

>  <TORSDO>
F 2

$$$$
=
 OpenBabel10262419473D

 25 27  0  0  1  0  0  0  0  0999 V2000
  190.1770  176.2130  135.2290 C   0  0  0  0  0  0  0  0  0  0  0  0
  188.7950  175.8110  135.3310 N   0  0  0  0  0  0  0  0  0  0  0  0
  186.8560  177.9100  136.5760 C   0  0  2  0  0  3  0  0  0  0  0  0
  188.3990  176.4960  138.0720 C   0  0  0  0  0  2  0  0  0  0  0  0
  187.5240  177.9170  135.1890 C   0  0  0  0  0  2  0  0  0  0  0  0
  186.2090  175.6180  137.1450 C   0  0  0  0  0  0  0  0  0  0  0  0
  185.2760  174.6850  137.2660 C   0  0  0  0  0  2  0  0  0  0  0  0
  187.8150  177.8930  137.7950 C   0  0  1  0  0  0  0  0  0  0  0  0
  188.3700  174.7480  136.2400 C   0  0  0  0  0  2  0  0  0  0  0  0
  190.4650  177.2820  134.6210 O   0  0  0  0  0  0  0  0  0  0  0  0
  185.8650  176.8920  136.6950 O   0  0  0  0  0  0  0  0  0  0  0  0
  187.6400  175.3000  137.4660 C   0  0  1  0  0  3  0  0  0  0  0  0
  187.7610  176.5290  134.5940 C   0  0  0  0  0  2  0  0  0  0  0  0
  188.9800  178.8520  137.5870 C   0  0  0  0  0  1  0  0  0  0  0  0
  191.2780  175.4120  135.8160 C   0  0  0  0  0  0  0  0  0  0  0  0
  193.4020  173.9070  136.8750 C   0  0  0  0  0  3  0  0  0  0  0  0
  191.9750  175.8640  136.9550 C   0  0  0  0  0  0  0  0  0  0  0  0
  193.0280  175.1090  137.4800 C   0  0  0  0  0  3  0  0  0  0  0  0
  192.7250  173.4560  135.7410 C   0  0  0  0  0  3  0  0  0  0  0  0
  191.6260  177.0190  137.5740 F   0  0  0  0  0  0  0  0  0  0  0  0
  191.6710  174.2060  135.2140 C   0  0  0  0  0  3  0  0  0  0  0  0
  187.6050  178.3290  140.3180 C   0  0  0  0  0  0  0  0  0  0  0  0
  188.7940  177.9800  140.5470 O   0  0  0  0  0  0  0  0  0  0  0  0
  186.5690  178.8670  141.6680 S   0  0  0  0  0  1  0  0  0  0  0  0
  187.0750  178.3020  138.9880 N   0  0  0  0  0  2  0  0  0  0  0  0
  1  2  1  0  0  0  0
  1 15  1  0  0  0  0
  2  9  1  0  0  0  0
  3  5  1  6  0  0  0
  3 11  1  0  0  0  0
  3  8  1  0  0  0  0
  6  7  2  0  0  0  0
  6 12  1  0  0  0  0
  8 14  1  6  0  0  0
  8  4  1  0  0  0  0
  8 25  1  0  0  0  0
 10  1  2  0  0  0  0
 11  6  1  0  0  0  0
 12  9  1  6  0  0  0
 12  4  1  0  0  0  0
 13  5  1  0  0  0  0
 13  2  1  0  0  0  0
 15 17  1  0  0  0  0
 16 18  1  0  0  0  0
 17 18  2  0  0  0  0
 17 20  1  0  0  0  0
 19 16  2  0  0  0  0
 21 19  1  0  0  0  0
 21 15  2  0  0  0  0
 22 23  2  0  0  0  0
 22 24  1  0  0  0  0
 25 22  1  0  0  0  0
M  END
>  <MODEL>
4

>  <REMARK>
 VINA RESULT:      -5.0      3.055      4.706
  Name = 
  2 active torsions:
  status: ('A' for Active; 'I' for Inactive)
    1  A    between atoms: C_1  and  C_5
    2  A    between atoms: C_15  and  N_21
                            x       y       z     vdW  Elec       q    Type
                         _______ _______ _______ _____ _____    ______ ____

>  <TORSDO>
F 2

$$$$
=
 OpenBabel10262419473D

 25 27  0  0  1  0  0  0  0  0999 V2000
  180.1670  178.9120  139.6490 C   0  0  0  0  0  0  0  0  0  0  0  0
  181.4530  179.1340  139.0310 N   0  0  0  0  0  0  0  0  0  0  0  0
  182.4870  176.8440  137.1870 C   0  0  2  0  0  3  0  0  0  0  0  0
  182.6540  176.6460  139.7460 C   0  0  0  0  0  2  0  0  0  0  0  0
  181.3570  177.8570  136.9270 C   0  0  0  0  0  2  0  0  0  0  0  0
  184.3180  177.9680  138.3620 C   0  0  0  0  0  0  0  0  0  0  0  0
  185.5220  178.5200  138.3500 C   0  0  0  0  0  2  0  0  0  0  0  0
  182.3120  175.9300  138.4270 C   0  0  1  0  0  0  0  0  0  0  0  0
  182.6850  179.1780  139.8170 C   0  0  0  0  0  2  0  0  0  0  0  0
  179.1710  178.6430  138.9220 O   0  0  0  0  0  0  0  0  0  0  0  0
  183.7750  177.4570  137.1840 O   0  0  0  0  0  0  0  0  0  0  0  0
  183.5260  177.9120  139.6360 C   0  0  1  0  0  3  0  0  0  0  0  0
  181.5670  179.2220  137.5800 C   0  0  0  0  0  2  0  0  0  0  0  0
  180.8810  175.4200  138.5320 C   0  0  0  0  0  1  0  0  0  0  0  0
  179.9740  178.9890  141.1170 C   0  0  0  0  0  0  0  0  0  0  0  0
  179.6710  179.1180  143.9090 C   0  0  0  0  0  3  0  0  0  0  0  0
  179.7660  180.2280  141.7570 C   0  0  0  0  0  0  0  0  0  0  0  0
  179.6120  180.2860  143.1450 C   0  0  0  0  0  3  0  0  0  0  0  0
  179.8850  177.8880  143.2860 C   0  0  0  0  0  3  0  0  0  0  0  0
  179.6900  181.3790  141.0420 F   0  0  0  0  0  0  0  0  0  0  0  0
  180.0380  177.8250  141.8990 C   0  0  0  0  0  3  0  0  0  0  0  0
  183.2670  173.8940  137.1850 C   0  0  0  0  0  0  0  0  0  0  0  0
  182.5000  174.0490  136.1980 O   0  0  0  0  0  0  0  0  0  0  0  0
  184.4390  172.5470  137.1880 S   0  0  0  0  0  1  0  0  0  0  0  0
  183.2140  174.7850  138.3050 N   0  0  0  0  0  2  0  0  0  0  0  0
  1 15  1  0  0  0  0
  2  1  1  0  0  0  0
  2  9  1  0  0  0  0
  3  5  1  1  0  0  0
  3  8  1  0  0  0  0
  5 13  1  0  0  0  0
  6 12  1  0  0  0  0
  7  6  2  0  0  0  0
  8 14  1  1  0  0  0
  8  4  1  0  0  0  0
 10  1  2  0  0  0  0
 11  3  1  0  0  0  0
 11  6  1  0  0  0  0
 12  4  1  6  0  0  0
 12  9  1  0  0  0  0
 13  2  1  0  0  0  0
 15 17  2  0  0  0  0
 15 21  1  0  0  0  0
 17 18  1  0  0  0  0
 18 16  2  0  0  0  0
 19 16  1  0  0  0  0
 20 17  1  0  0  0  0
 21 19  2  0  0  0  0
 22 24  1  0  0  0  0
 22 25  1  0  0  0  0
 23 22  2  0  0  0  0
 25  8  1  0  0  0  0
M  END
>  <MODEL>
5

>  <REMARK>
 VINA RESULT:      -4.9      5.579      7.570
  Name = 
  2 active torsions:
  status: ('A' for Active; 'I' for Inactive)
    1  A    between atoms: C_1  and  C_5
    2  A    between atoms: C_15  and  N_21
                            x       y       z     vdW  Elec       q    Type
                         _______ _______ _______ _____ _____    ______ ____

>  <TORSDO>
F 2

$$$$
=
 OpenBabel10262419473D

 25 27  0  0  1  0  0  0  0  0999 V2000
  182.0930  175.5240  136.3280 C   0  0  0  0  0  0  0  0  0  0  0  0
  181.1140  176.0980  137.2200 N   0  0  0  0  0  0  0  0  0  0  0  0
  182.1120  178.4590  138.9950 C   0  0  2  0  0  3  0  0  0  0  0  0
  182.6820  176.0250  139.6030 C   0  0  0  0  0  2  0  0  0  0  0  0
  181.8160  178.4450  137.4830 C   0  0  0  0  0  2  0  0  0  0  0  0
  180.4460  177.0870  140.1510 C   0  0  0  0  0  0  0  0  0  0  0  0
  179.3530  176.9920  140.8940 C   0  0  0  0  0  2  0  0  0  0  0  0
  183.2010  177.4700  139.4860 C   0  0  1  0  0  0  0  0  0  0  0  0
  180.5820  175.3510  138.3580 C   0  0  0  0  0  2  0  0  0  0  0  0
  182.6990  176.2730  135.5120 O   0  0  0  0  0  0  0  0  0  0  0  0
  180.9270  178.3410  139.7790 O   0  0  0  0  0  0  0  0  0  0  0  0
  181.1540  175.8480  139.6880 C   0  0  1  0  0  3  0  0  0  0  0  0
  180.7010  177.4880  137.0650 C   0  0  0  0  0  2  0  0  0  0  0  0
  184.3960  177.4600  138.5420 C   0  0  0  0  0  1  0  0  0  0  0  0
  182.4140  174.0770  136.3340 C   0  0  0  0  0  0  0  0  0  0  0  0
  183.0110  171.3310  136.4130 C   0  0  0  0  0  3  0  0  0  0  0  0
  181.5590  173.1420  135.7150 C   0  0  0  0  0  0  0  0  0  0  0  0
  181.8640  171.7780  135.7540 C   0  0  0  0  0  3  0  0  0  0  0  0
  183.8580  172.2480  137.0370 C   0  0  0  0  0  3  0  0  0  0  0  0
  180.4450  173.5450  135.0550 F   0  0  0  0  0  0  0  0  0  0  0  0
  183.5590  173.6120  137.0000 C   0  0  0  0  0  3  0  0  0  0  0  0
  184.5000  179.0030  141.0860 C   0  0  0  0  0  0  0  0  0  0  0  0
  184.9310  179.7290  140.1510 O   0  0  0  0  0  0  0  0  0  0  0  0
  184.9500  179.3780  142.7730 S   0  0  0  0  0  1  0  0  0  0  0  0
  183.6520  177.8820  140.8150 N   0  0  0  0  0  2  0  0  0  0  0  0
  1 15  1  0  0  0  0
  1  2  1  0  0  0  0
  2  9  1  0  0  0  0
  3  5  1  6  0  0  0
  3  8  1  0  0  0  0
  3 11  1  0  0  0  0
  4 12  1  0  0  0  0
  6  7  2  0  0  0  0
  8 14  1  6  0  0  0
  8  4  1  0  0  0  0
  8 25  1  0  0  0  0
 10  1  2  0  0  0  0
 11  6  1  0  0  0  0
 12  9  1  6  0  0  0
 12  6  1  0  0  0  0
 13  2  1  0  0  0  0
 13  5  1  0  0  0  0
 15 21  1  0  0  0  0
 16 19  1  0  0  0  0
 17 18  1  0  0  0  0
 17 15  2  0  0  0  0
 18 16  2  0  0  0  0
 20 17  1  0  0  0  0
 21 19  2  0  0  0  0
 22 24  1  0  0  0  0
 23 22  2  0  0  0  0
 25 22  1  0  0  0  0
M  END
>  <MODEL>
6

>  <REMARK>
 VINA RESULT:      -4.8      5.400      8.260
  Name = 
  2 active torsions:
  status: ('A' for Active; 'I' for Inactive)
    1  A    between atoms: C_1  and  C_5
    2  A    between atoms: C_15  and  N_21
                            x       y       z     vdW  Elec       q    Type
                         _______ _______ _______ _____ _____    ______ ____

>  <TORSDO>
F 2

$$$$
=
 OpenBabel10262419473D

 25 27  0  0  1  0  0  0  0  0999 V2000
  188.9750  178.0420  138.2760 C   0  0  0  0  0  0  0  0  0  0  0  0
  189.5530  177.2770  137.1980 N   0  0  0  0  0  0  0  0  0  0  0  0
  187.5410  176.1320  135.1110 C   0  0  2  0  0  3  0  0  0  0  0  0
  187.8560  174.9930  137.3960 C   0  0  0  0  0  2  0  0  0  0  0  0
  187.9980  177.5890  135.3130 C   0  0  0  0  0  2  0  0  0  0  0  0
  189.4500  174.6370  135.4560 C   0  0  0  0  0  0  0  0  0  0  0  0
  190.4020  173.8590  134.9630 C   0  0  0  0  0  2  0  0  0  0  0  0
  186.8510  175.4590  136.3250 C   0  0  1  0  0  0  0  0  0  0  0  0
  190.1870  175.9810  137.4300 C   0  0  0  0  0  2  0  0  0  0  0  0
  188.2340  179.0280  138.0060 O   0  0  0  0  0  0  0  0  0  0  0  0
  188.5810  175.3060  134.5940 O   0  0  0  0  0  0  0  0  0  0  0  0
  189.3170  174.8220  136.9400 C   0  0  1  0  0  3  0  0  0  0  0  0
  189.4320  177.7390  135.8190 C   0  0  0  0  0  2  0  0  0  0  0  0
  185.8690  176.4110  136.9930 C   0  0  0  0  0  1  0  0  0  0  0  0
  189.2200  177.7100  139.7000 C   0  0  0  0  0  0  0  0  0  0  0  0
  189.7270  177.1310  142.4040 C   0  0  0  0  0  3  0  0  0  0  0  0
  188.2090  177.8770  140.6680 C   0  0  0  0  0  0  0  0  0  0  0  0
  188.4660  177.5840  142.0110 C   0  0  0  0  0  3  0  0  0  0  0  0
  190.7380  176.9710  141.4540 C   0  0  0  0  0  3  0  0  0  0  0  0
  186.9690  178.3010  140.3160 F   0  0  0  0  0  0  0  0  0  0  0  0
  190.4850  177.2610  140.1110 C   0  0  0  0  0  3  0  0  0  0  0  0
  185.5600  173.2730  136.7150 C   0  0  0  0  0  0  0  0  0  0  0  0
  185.6680  173.3520  137.9680 O   0  0  0  0  0  0  0  0  0  0  0  0
  184.6890  171.8930  135.9900 S   0  0  0  0  0  1  0  0  0  0  0  0
  186.1240  174.2770  135.8640 N   0  0  0  0  0  2  0  0  0  0  0  0
  1 15  1  0  0  0  0
  2  9  1  0  0  0  0
  2  1  1  0  0  0  0
  3  5  1  1  0  0  0
  3  8  1  0  0  0  0
  5 13  1  0  0  0  0
  6 12  1  0  0  0  0
  7  6  2  0  0  0  0
  8 14  1  1  0  0  0
  8  4  1  0  0  0  0
 10  1  2  0  0  0  0
 11  3  1  0  0  0  0
 11  6  1  0  0  0  0
 12  4  1  6  0  0  0
 12  9  1  0  0  0  0
 13  2  1  0  0  0  0
 15 21  2  0  0  0  0
 15 17  1  0  0  0  0
 17 18  2  0  0  0  0
 18 16  1  0  0  0  0
 19 16  2  0  0  0  0
 20 17  1  0  0  0  0
 21 19  1  0  0  0  0
 22 23  2  0  0  0  0
 24 22  1  0  0  0  0
 25  8  1  0  0  0  0
 25 22  1  0  0  0  0
M  END
>  <MODEL>
7

>  <REMARK>
 VINA RESULT:      -4.8      1.540      1.682
  Name = 
  2 active torsions:
  status: ('A' for Active; 'I' for Inactive)
    1  A    between atoms: C_1  and  C_5
    2  A    between atoms: C_15  and  N_21
                            x       y       z     vdW  Elec       q    Type
                         _______ _______ _______ _____ _____    ______ ____

>  <TORSDO>
F 2

$$$$
=
 OpenBabel10262419473D

 25 27  0  0  1  0  0  0  0  0999 V2000
  180.6770  178.2500  141.3250 C   0  0  0  0  0  0  0  0  0  0  0  0
  180.2850  179.1460  140.2640 N   0  0  0  0  0  0  0  0  0  0  0  0
  180.2540  177.9260  137.3950 C   0  0  2  0  0  3  0  0  0  0  0  0
  182.4680  178.6300  138.5010 C   0  0  0  0  0  2  0  0  0  0  0  0
  179.2750  177.6830  138.5580 C   0  0  0  0  0  2  0  0  0  0  0  0
  180.9100  180.2860  137.3780 C   0  0  0  0  0  0  0  0  0  0  0  0
  180.8100  181.5010  136.8620 C   0  0  0  0  0  2  0  0  0  0  0  0
  181.7370  177.5620  137.6650 C   0  0  1  0  0  0  0  0  0  0  0  0
  181.1190  180.2800  139.8700 C   0  0  0  0  0  2  0  0  0  0  0  0
  180.0580  177.1590  141.4720 O   0  0  0  0  0  0  0  0  0  0  0  0
  180.1430  179.2430  136.8600 O   0  0  0  0  0  0  0  0  0  0  0  0
  181.8300  180.0320  138.5370 C   0  0  1  0  0  3  0  0  0  0  0  0
  179.0800  178.8830  139.4840 C   0  0  0  0  0  2  0  0  0  0  0  0
  181.8490  176.2360  138.4040 C   0  0  0  0  0  1  0  0  0  0  0  0
  181.7880  178.5650  142.2540 C   0  0  0  0  0  0  0  0  0  0  0  0
  183.9090  179.2170  143.9790 C   0  0  0  0  0  3  0  0  0  0  0  0
  181.5310  178.9960  143.5710 C   0  0  0  0  0  0  0  0  0  0  0  0
  182.5900  179.3150  144.4260 C   0  0  0  0  0  3  0  0  0  0  0  0
  184.1740  178.8000  142.6740 C   0  0  0  0  0  3  0  0  0  0  0  0
  180.2610  179.0880  144.0400 F   0  0  0  0  0  0  0  0  0  0  0  0
  183.1190  178.4790  141.8160 C   0  0  0  0  0  3  0  0  0  0  0  0
  183.8250  177.1210  136.2350 C   0  0  0  0  0  0  0  0  0  0  0  0
  184.5530  176.9040  137.2400 O   0  0  0  0  0  0  0  0  0  0  0  0
  184.5290  177.0140  134.5970 S   0  0  0  0  0  1  0  0  0  0  0  0
  182.4400  177.4520  136.3880 N   0  0  0  0  0  2  0  0  0  0  0  0
  1 10  2  0  0  0  0
  1 15  1  0  0  0  0
  2  1  1  0  0  0  0
  3  8  1  0  0  0  0
  3  5  1  1  0  0  0
  5 13  1  0  0  0  0
  6 12  1  0  0  0  0
  7  6  2  0  0  0  0
  8 14  1  1  0  0  0
  8  4  1  0  0  0  0
  9  2  1  0  0  0  0
 11  6  1  0  0  0  0
 11  3  1  0  0  0  0
 12  4  1  1  0  0  0
 12  9  1  0  0  0  0
 13  2  1  0  0  0  0
 15 17  1  0  0  0  0
 16 18  1  0  0  0  0
 17 20  1  0  0  0  0
 17 18  2  0  0  0  0
 19 16  2  0  0  0  0
 21 15  2  0  0  0  0
 21 19  1  0  0  0  0
 22 25  1  0  0  0  0
 22 23  2  0  0  0  0
 24 22  1  0  0  0  0
 25  8  1  0  0  0  0
M  END
>  <MODEL>
8

>  <REMARK>
 VINA RESULT:      -4.8      5.622      7.784
  Name = 
  2 active torsions:
  status: ('A' for Active; 'I' for Inactive)
    1  A    between atoms: C_1  and  C_5
    2  A    between atoms: C_15  and  N_21
                            x       y       z     vdW  Elec       q    Type
                         _______ _______ _______ _____ _____    ______ ____

>  <TORSDO>
F 2

$$$$
=
 OpenBabel10262419473D

 25 27  0  0  1  0  0  0  0  0999 V2000
  181.7480  179.9660  138.8200 C   0  0  0  0  0  0  0  0  0  0  0  0
  181.1970  178.8880  139.6060 N   0  0  0  0  0  0  0  0  0  0  0  0
  182.5700  176.1110  139.2580 C   0  0  2  0  0  3  0  0  0  0  0  0
  180.9090  176.9860  137.4980 C   0  0  0  0  0  2  0  0  0  0  0  0
  183.0950  177.3630  139.9840 C   0  0  0  0  0  2  0  0  0  0  0  0
  180.1650  175.8970  139.6640 C   0  0  0  0  0  0  0  0  0  0  0  0
  179.1540  175.3170  140.2950 C   0  0  0  0  0  2  0  0  0  0  0  0
  182.2550  176.2800  137.7490 C   0  0  1  0  0  0  0  0  0  0  0  0
  179.8590  178.3580  139.3510 C   0  0  0  0  0  2  0  0  0  0  0  0
  182.9790  180.2290  138.9120 O   0  0  0  0  0  0  0  0  0  0  0  0
  181.4740  175.5080  139.9420 O   0  0  0  0  0  0  0  0  0  0  0  0
  179.9060  176.9890  138.6680 C   0  0  1  0  0  3  0  0  0  0  0  0
  182.0090  178.2270  140.6230 C   0  0  0  0  0  2  0  0  0  0  0  0
  183.3410  177.0870  137.0510 C   0  0  0  0  0  1  0  0  0  0  0  0
  180.9150  180.7790  137.9030 C   0  0  0  0  0  0  0  0  0  0  0  0
  179.2990  182.2680  136.1500 C   0  0  0  0  0  3  0  0  0  0  0  0
  180.0310  181.7570  138.4030 C   0  0  0  0  0  0  0  0  0  0  0  0
  179.2330  182.4980  137.5260 C   0  0  0  0  0  3  0  0  0  0  0  0
  180.1640  181.2950  135.6460 C   0  0  0  0  0  3  0  0  0  0  0  0
  179.9530  182.0140  139.7330 F   0  0  0  0  0  0  0  0  0  0  0  0
  180.9650  180.5540  136.5190 C   0  0  0  0  0  3  0  0  0  0  0  0
  183.1880  173.9470  137.2110 C   0  0  0  0  0  0  0  0  0  0  0  0
  184.2560  174.1520  137.8470 O   0  0  0  0  0  0  0  0  0  0  0  0
  182.9290  172.3760  136.4040 S   0  0  0  0  0  1  0  0  0  0  0  0
  182.1760  174.9580  137.1290 N   0  0  0  0  0  2  0  0  0  0  0  0
  1 10  2  0  0  0  0
  1  2  1  0  0  0  0
  2 13  1  0  0  0  0
  3 11  1  0  0  0  0
  3  5  1  1  0  0  0
  4  8  1  0  0  0  0
  5 13  1  0  0  0  0
  6 11  1  0  0  0  0
  6  7  2  0  0  0  0
  8 14  1  6  0  0  0
  8  3  1  0  0  0  0
  9  2  1  0  0  0  0
 12  4  1  6  0  0  0
 12  9  1  0  0  0  0
 12  6  1  0  0  0  0
 15 17  1  0  0  0  0
 15  1  1  0  0  0  0
 16 18  1  0  0  0  0
 17 20  1  0  0  0  0
 18 17  2  0  0  0  0
 19 16  2  0  0  0  0
 19 21  1  0  0  0  0
 21 15  2  0  0  0  0
 22 23  2  0  0  0  0
 24 22  1  0  0  0  0
 25 22  1  0  0  0  0
 25  8  1  0  0  0  0
M  END
>  <MODEL>
9

>  <REMARK>
 VINA RESULT:      -4.5      5.647      8.352
  Name = 
  2 active torsions:
  status: ('A' for Active; 'I' for Inactive)
    1  A    between atoms: C_1  and  C_5
    2  A    between atoms: C_15  and  N_21
                            x       y       z     vdW  Elec       q    Type
                         _______ _______ _______ _____ _____    ______ ____

>  <TORSDO>
F 2

$$$$
