=
 OpenBabel10262421263D

 32 39  0  0  1  0  0  0  0  0999 V2000
  187.9750  177.5900  142.2440 C   0  0  1  0  0  3  0  0  0  0  0  0
  183.5210  179.4230  143.6660 C   0  0  0  0  0  3  0  0  0  0  0  0
  183.6690  178.8550  144.9320 C   0  0  0  0  0  3  0  0  0  0  0  0
  189.2630  177.8190  144.3500 C   0  0  1  0  0  3  0  0  0  0  0  0
  190.5330  177.7410  143.6490 C   0  0  0  0  0  0  0  0  0  0  0  0
  190.2170  176.9850  146.3870 C   0  0  0  0  0  0  0  0  0  0  0  0
  184.5340  179.2890  142.7140 C   0  0  0  0  0  3  0  0  0  0  0  0
  186.7940  178.5350  141.9540 C   0  0  0  0  0  2  0  0  0  0  0  0
  185.7040  178.5830  143.0150 C   0  0  0  0  0  0  0  0  0  0  0  0
  187.0620  177.1720  144.6390 C   0  0  2  0  0  3  0  0  0  0  0  0
  191.6160  177.1400  145.8250 C   0  0  0  0  0  2  0  0  0  0  0  0
  191.6250  177.3610  144.3210 C   0  0  0  0  0  2  0  0  0  0  0  0
  184.8340  178.1540  145.2530 C   0  0  0  0  0  3  0  0  0  0  0  0
  185.8690  178.0300  144.3170 C   0  0  0  0  0  0  0  0  0  0  0  0
  187.6760  177.3610  146.0420 C   0  0  0  0  0  2  0  0  0  0  0  0
  189.2520  178.1080  141.5170 C   0  0  1  0  0  3  0  0  0  0  0  0
  190.4970  177.7610  142.2200 N   0  0  0  0  0  0  0  0  0  0  0  0
  190.0160  176.2640  147.3500 O   0  0  0  0  0  0  0  0  0  0  0  0
  188.1570  177.5230  143.7270 C   0  0  1  0  0  3  0  0  0  0  0  0
  189.1210  177.8430  145.8150 C   0  0  2  0  0  3  0  0  0  0  0  0
  190.1100  177.1650  137.3220 C   0  0  0  0  0  2  0  0  0  0  0  0
  189.3210  177.6190  140.0750 C   0  0  1  0  0  0  0  0  0  0  0  0
  187.9600  177.3520  139.4570 C   0  0  0  0  0  2  0  0  0  0  0  0
  189.3210  178.4400  137.6070 C   0  0  0  0  0  2  0  0  0  0  0  0
  188.7500  178.5820  139.0310 C   0  0  2  0  0  3  0  0  0  0  0  0
  190.3610  176.5590  139.6940 C   0  0  0  0  0  2  0  0  0  0  0  0
  191.1170  176.9290  138.4320 C   0  0  1  0  0  3  0  0  0  0  0  0
  192.0480  175.7900  138.0590 C   0  0  0  0  0  2  0  0  0  0  0  0
  194.2280  175.0380  138.0050 C   0  0  2  0  0  3  0  0  0  0  0  0
  193.4270  176.1730  138.3070 N   0  0  0  0  0  0  0  0  0  0  0  0
  195.4520  175.1460  138.6630 O   0  0  0  0  0  1  0  0  0  0  0  0
  194.1130  176.0800  137.0450 N   0  0  0  0  0  2  0  0  0  0  0  0
  1  8  1  1  0  0  0
  1 19  1  0  0  0  0
  2  3  1  0  0  0  0
  3 13  2  0  0  0  0
  4  5  1  1  0  0  0
  4 20  1  0  0  0  0
  5 12  1  0  0  0  0
  6 18  2  0  0  0  0
  7  9  1  0  0  0  0
  7  2  2  0  0  0  0
  8  9  1  0  0  0  0
  9 14  2  0  0  0  0
 10 15  1  1  0  0  0
 11  6  1  0  0  0  0
 12 11  1  0  0  0  0
 14 10  1  0  0  0  0
 14 13  1  0  0  0  0
 16 17  1  1  0  0  0
 16  1  1  0  0  0  0
 17  5  2  0  0  0  0
 19  4  1  0  0  0  0
 19 10  1  0  0  0  0
 20 15  1  0  0  0  0
 20  6  1  0  0  0  0
 21 24  1  0  0  0  0
 21 27  1  0  0  0  0
 22 16  1  0  0  0  0
 23 22  1  0  0  0  0
 24 25  1  0  0  0  0
 25 23  1  0  0  0  0
 25 22  1  0  0  0  0
 26 22  1  0  0  0  0
 27 26  1  0  0  0  0
 28 30  1  0  0  0  0
 28 27  1  0  0  0  0
 29 30  1  0  0  0  0
 29 31  1  0  0  0  0
 32 29  1  0  0  0  0
 32 30  1  0  0  0  0
M  END
>  <MODEL>
1

>  <REMARK>
 VINA RESULT:     -11.8      0.000      0.000
  Name = 
  3 active torsions:
  status: ('A' for Active; 'I' for Inactive)
    1  A    between atoms: C_8  and  C_28
    2  A    between atoms: N_10  and  C_19
    3  A    between atoms: C_19  and  C_24
                            x       y       z     vdW  Elec       q    Type
                         _______ _______ _______ _____ _____    ______ ____

>  <TORSDO>
F 3

$$$$
=
 OpenBabel10262421263D

 32 39  0  0  1  0  0  0  0  0999 V2000
  189.3500  177.5200  143.4990 C   0  0  1  0  0  3  0  0  0  0  0  0
  192.5130  175.3720  146.7540 C   0  0  0  0  0  3  0  0  0  0  0  0
  191.9260  176.0660  147.8140 C   0  0  0  0  0  3  0  0  0  0  0  0
  187.2810  177.6190  144.8610 C   0  0  1  0  0  3  0  0  0  0  0  0
  186.4440  177.7630  143.6830 C   0  0  0  0  0  0  0  0  0  0  0  0
  185.6810  178.7280  146.2620 C   0  0  0  0  0  0  0  0  0  0  0  0
  192.0200  175.5240  145.4570 C   0  0  0  0  0  3  0  0  0  0  0  0
  190.4080  176.4350  143.7780 C   0  0  0  0  0  2  0  0  0  0  0  0
  190.9360  176.3720  145.2030 C   0  0  0  0  0  0  0  0  0  0  0  0
  189.2230  178.0570  146.0370 C   0  0  2  0  0  3  0  0  0  0  0  0
  184.6390  178.6680  145.1630 C   0  0  0  0  0  2  0  0  0  0  0  0
  185.2310  178.3140  143.8080 C   0  0  0  0  0  2  0  0  0  0  0  0
  190.8380  176.9100  147.5800 C   0  0  0  0  0  3  0  0  0  0  0  0
  190.3160  177.0550  146.2880 C   0  0  0  0  0  0  0  0  0  0  0  0
  188.0580  178.0610  147.0500 C   0  0  0  0  0  2  0  0  0  0  0  0
  188.4390  177.0730  142.3170 C   0  0  1  0  0  3  0  0  0  0  0  0
  187.0720  177.6090  142.4070 N   0  0  0  0  0  0  0  0  0  0  0  0
  185.5530  179.5100  147.1900 O   0  0  0  0  0  0  0  0  0  0  0  0
  188.5750  177.7400  144.7590 C   0  0  1  0  0  3  0  0  0  0  0  0
  186.7920  177.7130  146.2460 C   0  0  2  0  0  3  0  0  0  0  0  0
  189.7650  177.4770  138.1570 C   0  0  0  0  0  2  0  0  0  0  0  0
  189.0450  177.4330  140.9660 C   0  0  1  0  0  0  0  0  0  0  0  0
  190.4350  178.0370  141.0640 C   0  0  0  0  0  2  0  0  0  0  0  0
  190.5280  176.4970  139.0440 C   0  0  0  0  0  2  0  0  0  0  0  0
  190.2700  176.6110  140.5600 C   0  0  2  0  0  3  0  0  0  0  0  0
  188.1720  178.1300  139.9160 C   0  0  0  0  0  2  0  0  0  0  0  0
  188.2990  177.4840  138.5490 C   0  0  1  0  0  3  0  0  0  0  0  0
  187.4930  178.2870  137.5440 C   0  0  0  0  0  2  0  0  0  0  0  0
  186.4060  176.3860  136.8230 C   0  0  2  0  0  3  0  0  0  0  0  0
  187.2030  177.4750  136.3750 N   0  0  0  0  0  0  0  0  0  0  0  0
  186.5000  175.3370  135.9090 O   0  0  0  0  0  1  0  0  0  0  0  0
  185.7740  177.4980  136.2030 N   0  0  0  0  0  2  0  0  0  0  0  0
  1  8  1  1  0  0  0
  1 19  1  0  0  0  0
  2  3  1  0  0  0  0
  4  5  1  6  0  0  0
  4 20  1  0  0  0  0
  5 12  1  0  0  0  0
  6 18  2  0  0  0  0
  7  2  2  0  0  0  0
  8  9  1  0  0  0  0
  9  7  1  0  0  0  0
  9 14  2  0  0  0  0
 10 14  1  0  0  0  0
 10 15  1  1  0  0  0
 11  6  1  0  0  0  0
 12 11  1  0  0  0  0
 13  3  2  0  0  0  0
 14 13  1  0  0  0  0
 16 17  1  1  0  0  0
 16  1  1  0  0  0  0
 17  5  2  0  0  0  0
 19  4  1  0  0  0  0
 19 10  1  0  0  0  0
 20  6  1  0  0  0  0
 20 15  1  0  0  0  0
 21 27  1  0  0  0  0
 21 24  1  0  0  0  0
 22 23  1  0  0  0  0
 22 16  1  0  0  0  0
 24 25  1  0  0  0  0
 25 22  1  0  0  0  0
 25 23  1  0  0  0  0
 26 22  1  0  0  0  0
 27 26  1  0  0  0  0
 28 27  1  0  0  0  0
 30 29  1  0  0  0  0
 30 28  1  0  0  0  0
 31 29  1  0  0  0  0
 32 30  1  0  0  0  0
 32 29  1  0  0  0  0
M  END
>  <MODEL>
2

>  <REMARK>
 VINA RESULT:     -11.2      2.956      5.404
  Name = 
  3 active torsions:
  status: ('A' for Active; 'I' for Inactive)
    1  A    between atoms: C_8  and  C_28
    2  A    between atoms: N_10  and  C_19
    3  A    between atoms: C_19  and  C_24
                            x       y       z     vdW  Elec       q    Type
                         _______ _______ _______ _____ _____    ______ ____

>  <TORSDO>
F 3

$$$$
=
 OpenBabel10262421263D

 32 39  0  0  1  0  0  0  0  0999 V2000
  185.3140  178.0130  142.1950 C   0  0  1  0  0  3  0  0  0  0  0  0
  185.6220  178.7640  147.1510 C   0  0  0  0  0  3  0  0  0  0  0  0
  186.8450  178.0920  147.1970 C   0  0  0  0  0  3  0  0  0  0  0  0
  187.6940  178.2430  141.5430 C   0  0  1  0  0  3  0  0  0  0  0  0
  187.3500  178.4970  140.1560 C   0  0  0  0  0  0  0  0  0  0  0  0
  189.8560  177.3820  140.9580 C   0  0  0  0  0  0  0  0  0  0  0  0
  184.9640  178.9410  145.9320 C   0  0  0  0  0  3  0  0  0  0  0  0
  184.7820  178.7370  143.4470 C   0  0  0  0  0  2  0  0  0  0  0  0
  185.5190  178.4470  144.7460 C   0  0  0  0  0  0  0  0  0  0  0  0
  187.3530  177.1500  143.5520 C   0  0  2  0  0  3  0  0  0  0  0  0
  189.6920  177.8710  139.5320 C   0  0  0  0  0  2  0  0  0  0  0  0
  188.2600  178.2620  139.2050 C   0  0  0  0  0  3  0  0  0  0  0  0
  187.4170  177.5990  146.0220 C   0  0  0  0  0  3  0  0  0  0  0  0
  186.7810  177.7900  144.7880 C   0  0  0  0  0  0  0  0  0  0  0  0
  188.8770  177.2920  143.3560 C   0  0  0  0  0  2  0  0  0  0  0  0
  184.9820  178.8510  140.9250 C   0  0  1  0  0  3  0  0  0  0  0  0
  185.9660  178.6750  139.8440 N   0  0  0  0  0  2  0  0  0  0  0  0
  190.6850  176.5280  141.2250 O   0  0  0  0  0  0  0  0  0  0  0  0
  186.7850  177.8120  142.3720 C   0  0  1  0  0  3  0  0  0  0  0  0
  189.0690  178.0690  142.0410 C   0  0  2  0  0  3  0  0  0  0  0  0
  180.8770  177.5590  140.0860 C   0  0  0  0  0  2  0  0  0  0  0  0
  183.5820  178.5560  140.4000 C   0  0  1  0  0  0  0  0  0  0  0  0
  183.4960  178.5140  138.8840 C   0  0  0  0  0  2  0  0  0  0  0  0
  182.0060  176.6150  139.6810 C   0  0  0  0  0  2  0  0  0  0  0  0
  183.4260  177.2160  139.6760 C   0  0  2  0  0  3  0  0  0  0  0  0
  182.3790  179.2580  141.0410 C   0  0  0  0  0  2  0  0  0  0  0  0
  181.2560  178.2900  141.3600 C   0  0  1  0  0  3  0  0  0  0  0  0
  180.0650  179.0680  141.8900 C   0  0  0  0  0  2  0  0  0  0  0  0
  180.0110  178.1290  143.9960 C   0  0  2  0  0  3  0  0  0  0  0  0
  179.2800  178.2310  142.7800 N   0  0  0  0  0  0  0  0  0  0  0  0
  179.5990  176.9920  144.6890 O   0  0  0  0  0  1  0  0  0  0  0  0
  178.9310  179.0490  143.9120 N   0  0  0  0  0  2  0  0  0  0  0  0
  1 19  1  0  0  0  0
  1  8  1  1  0  0  0
  2  3  1  0  0  0  0
  4  5  1  6  0  0  0
  4 20  1  0  0  0  0
  4 19  1  0  0  0  0
  6 18  2  0  0  0  0
  6 20  1  0  0  0  0
  7  2  2  0  0  0  0
  8  9  1  0  0  0  0
  9 14  2  0  0  0  0
  9  7  1  0  0  0  0
 10 15  1  1  0  0  0
 10 14  1  0  0  0  0
 11  6  1  0  0  0  0
 12 11  1  0  0  0  0
 12  5  2  0  0  0  0
 13  3  2  0  0  0  0
 14 13  1  0  0  0  0
 16 17  1  6  0  0  0
 16  1  1  0  0  0  0
 17  5  1  0  0  0  0
 19 10  1  0  0  0  0
 20 15  1  0  0  0  0
 21 27  1  0  0  0  0
 22 16  1  0  0  0  0
 22 26  1  0  0  0  0
 23 25  1  0  0  0  0
 23 22  1  0  0  0  0
 24 21  1  0  0  0  0
 25 24  1  0  0  0  0
 25 22  1  0  0  0  0
 26 27  1  0  0  0  0
 27 28  1  0  0  0  0
 28 30  1  0  0  0  0
 29 31  1  0  0  0  0
 30 32  1  0  0  0  0
 30 29  1  0  0  0  0
 32 29  1  0  0  0  0
M  END
>  <MODEL>
3

>  <REMARK>
 VINA RESULT:     -11.0      4.309      7.837
  Name = 
  3 active torsions:
  status: ('A' for Active; 'I' for Inactive)
    1  A    between atoms: C_8  and  C_28
    2  A    between atoms: N_10  and  C_19
    3  A    between atoms: C_19  and  C_24
                            x       y       z     vdW  Elec       q    Type
                         _______ _______ _______ _____ _____    ______ ____

>  <TORSDO>
F 3

$$$$
=
 OpenBabel10262421263D

 32 39  0  0  1  0  0  0  0  0999 V2000
  187.5940  177.4600  143.3330 C   0  0  1  0  0  3  0  0  0  0  0  0
  190.8320  177.0330  147.1470 C   0  0  0  0  0  3  0  0  0  0  0  0
  191.7170  176.3160  146.3410 C   0  0  0  0  0  3  0  0  0  0  0  0
  189.1550  177.7290  141.4270 C   0  0  1  0  0  3  0  0  0  0  0  0
  188.1230  178.3110  140.5880 C   0  0  0  0  0  0  0  0  0  0  0  0
  190.3920  176.9320  139.5320 C   0  0  0  0  0  0  0  0  0  0  0  0
  189.6340  177.5150  146.6160 C   0  0  0  0  0  3  0  0  0  0  0  0
  188.0180  177.8980  144.7480 C   0  0  0  0  0  2  0  0  0  0  0  0
  189.3050  177.2850  145.2760 C   0  0  0  0  0  0  0  0  0  0  0  0
  189.8550  176.2180  143.0320 C   0  0  2  0  0  3  0  0  0  0  0  0
  189.5230  177.7430  138.5920 C   0  0  0  0  0  2  0  0  0  0  0  0
  188.2590  178.2620  139.2580 C   0  0  0  0  0  3  0  0  0  0  0  0
  191.4100  176.0830  144.9980 C   0  0  0  0  0  3  0  0  0  0  0  0
  190.2230  176.5810  144.4450 C   0  0  0  0  0  0  0  0  0  0  0  0
  190.9820  176.3340  141.9840 C   0  0  0  0  0  2  0  0  0  0  0  0
  186.7400  178.5820  142.6700 C   0  0  1  0  0  3  0  0  0  0  0  0
  186.8700  178.6170  141.2050 N   0  0  0  0  0  2  0  0  0  0  0  0
  191.0610  176.0040  139.1070 O   0  0  0  0  0  0  0  0  0  0  0  0
  188.8340  177.1590  142.5540 C   0  0  1  0  0  3  0  0  0  0  0  0
  190.5090  177.3850  140.9620 C   0  0  2  0  0  3  0  0  0  0  0  0
  182.4150  178.9280  143.3030 C   0  0  0  0  0  2  0  0  0  0  0  0
  185.2690  178.4780  143.0550 C   0  0  1  0  0  0  0  0  0  0  0  0
  185.0430  177.9370  144.4560 C   0  0  0  0  0  2  0  0  0  0  0  0
  183.3220  179.7880  144.1780 C   0  0  0  0  0  2  0  0  0  0  0  0
  184.8190  179.4160  144.1760 C   0  0  2  0  0  3  0  0  0  0  0  0
  184.2680  177.9180  142.0370 C   0  0  0  0  0  2  0  0  0  0  0  0
  183.0270  178.7820  141.9220 C   0  0  1  0  0  3  0  0  0  0  0  0
  182.0410  178.1130  140.9810 C   0  0  0  0  0  2  0  0  0  0  0  0
  182.0330  176.2890  139.5710 C   0  0  2  0  0  3  0  0  0  0  0  0
  182.7520  177.4740  139.8880 N   0  0  0  0  0  0  0  0  0  0  0  0
  182.8780  175.3980  138.9110 O   0  0  0  0  0  1  0  0  0  0  0  0
  181.8480  177.4480  138.7690 N   0  0  0  0  0  2  0  0  0  0  0  0
  1  8  1  1  0  0  0
  3  2  2  0  0  0  0
  4  5  1  6  0  0  0
  4 19  1  0  0  0  0
  5 17  1  0  0  0  0
  6 20  1  0  0  0  0
  7  2  1  0  0  0  0
  8  9  1  0  0  0  0
  9  7  2  0  0  0  0
 10 15  1  6  0  0  0
 10 14  1  0  0  0  0
 11 12  1  0  0  0  0
 11  6  1  0  0  0  0
 12  5  2  0  0  0  0
 13  3  1  0  0  0  0
 14 13  2  0  0  0  0
 14  9  1  0  0  0  0
 16 17  1  6  0  0  0
 16 22  1  0  0  0  0
 16  1  1  0  0  0  0
 18  6  2  0  0  0  0
 19 10  1  0  0  0  0
 19  1  1  0  0  0  0
 20  4  1  0  0  0  0
 20 15  1  0  0  0  0
 21 24  1  0  0  0  0
 22 25  1  0  0  0  0
 22 23  1  0  0  0  0
 25 24  1  0  0  0  0
 25 23  1  0  0  0  0
 26 22  1  0  0  0  0
 27 26  1  0  0  0  0
 27 21  1  0  0  0  0
 28 27  1  0  0  0  0
 29 30  1  0  0  0  0
 30 28  1  0  0  0  0
 31 29  1  0  0  0  0
 32 29  1  0  0  0  0
 32 30  1  0  0  0  0
M  END
>  <MODEL>
4

>  <REMARK>
 VINA RESULT:     -10.9      3.454      7.330
  Name = 
  3 active torsions:
  status: ('A' for Active; 'I' for Inactive)
    1  A    between atoms: C_8  and  C_28
    2  A    between atoms: N_10  and  C_19
    3  A    between atoms: C_19  and  C_24
                            x       y       z     vdW  Elec       q    Type
                         _______ _______ _______ _____ _____    ______ ____

>  <TORSDO>
F 3

$$$$
=
 OpenBabel10262421263D

 32 39  0  0  1  0  0  0  0  0999 V2000
  186.0260  177.9000  143.9020 C   0  0  1  0  0  3  0  0  0  0  0  0
  188.0930  178.2270  148.4670 C   0  0  0  0  0  3  0  0  0  0  0  0
  189.2170  177.5260  148.0300 C   0  0  0  0  0  3  0  0  0  0  0  0
  188.0340  178.1280  142.4670 C   0  0  1  0  0  3  0  0  0  0  0  0
  187.2370  178.5050  141.3130 C   0  0  0  0  0  0  0  0  0  0  0  0
  189.8050  177.2690  141.0960 C   0  0  0  0  0  0  0  0  0  0  0  0
  187.0580  178.5200  147.5750 C   0  0  0  0  0  3  0  0  0  0  0  0
  186.0050  178.5280  145.3090 C   0  0  0  0  0  2  0  0  0  0  0  0
  187.1350  178.1140  146.2390 C   0  0  0  0  0  0  0  0  0  0  0  0
  188.3650  176.8790  144.3850 C   0  0  2  0  0  3  0  0  0  0  0  0
  189.1770  177.8800  139.8580 C   0  0  0  0  0  2  0  0  0  0  0  0
  187.7430  178.3300  140.0870 C   0  0  0  0  0  3  0  0  0  0  0  0
  189.3150  177.1200  146.6970 C   0  0  0  0  0  3  0  0  0  0  0  0
  188.2970  177.4270  145.7850 C   0  0  0  0  0  0  0  0  0  0  0  0
  189.7280  177.0020  143.6730 C   0  0  0  0  0  2  0  0  0  0  0  0
  185.3120  178.8480  142.8940 C   0  0  1  0  0  3  0  0  0  0  0  0
  185.8430  178.7400  141.5250 N   0  0  0  0  0  2  0  0  0  0  0  0
  190.6310  176.3780  140.9920 O   0  0  0  0  0  0  0  0  0  0  0  0
  187.4530  177.6500  143.5320 C   0  0  1  0  0  3  0  0  0  0  0  0
  189.4850  177.8820  142.4320 C   0  0  2  0  0  3  0  0  0  0  0  0
  180.9710  178.7850  142.2770 C   0  0  0  0  0  2  0  0  0  0  0  0
  183.8040  178.6300  142.8790 C   0  0  1  0  0  0  0  0  0  0  0  0
  183.2300  178.2530  144.2340 C   0  0  0  0  0  2  0  0  0  0  0  0
  181.5300  179.8480  143.2190 C   0  0  0  0  0  2  0  0  0  0  0  0
  182.9890  179.6490  143.6780 C   0  0  2  0  0  3  0  0  0  0  0  0
  183.1740  177.8340  141.7300 C   0  0  0  0  0  2  0  0  0  0  0  0
  181.9570  178.5310  141.1520 C   0  0  1  0  0  3  0  0  0  0  0  0
  181.3280  177.6390  140.0970 C   0  0  0  0  0  2  0  0  0  0  0  0
  182.0930  175.8400  138.8740 C   0  0  2  0  0  3  0  0  0  0  0  0
  182.3350  177.2160  139.1390 N   0  0  0  0  0  0  0  0  0  0  0  0
  183.2580  175.2520  138.3810 O   0  0  0  0  0  1  0  0  0  0  0  0
  181.6280  176.8150  137.9510 N   0  0  0  0  0  2  0  0  0  0  0  0
  1  8  1  1  0  0  0
  3  2  1  0  0  0  0
  4  5  1  6  0  0  0
  4 19  1  0  0  0  0
  5 17  1  0  0  0  0
  6 20  1  0  0  0  0
  7  2  2  0  0  0  0
  8  9  1  0  0  0  0
  9  7  1  0  0  0  0
 10 15  1  6  0  0  0
 10 14  1  0  0  0  0
 11 12  1  0  0  0  0
 11  6  1  0  0  0  0
 12  5  2  0  0  0  0
 13  3  2  0  0  0  0
 14  9  2  0  0  0  0
 14 13  1  0  0  0  0
 16 17  1  6  0  0  0
 16  1  1  0  0  0  0
 18  6  2  0  0  0  0
 19  1  1  0  0  0  0
 19 10  1  0  0  0  0
 20  4  1  0  0  0  0
 20 15  1  0  0  0  0
 21 24  1  0  0  0  0
 22 16  1  0  0  0  0
 22 25  1  0  0  0  0
 22 23  1  0  0  0  0
 24 25  1  0  0  0  0
 25 23  1  0  0  0  0
 26 22  1  0  0  0  0
 27 26  1  0  0  0  0
 27 21  1  0  0  0  0
 28 27  1  0  0  0  0
 29 30  1  0  0  0  0
 30 28  1  0  0  0  0
 31 29  1  0  0  0  0
 32 29  1  0  0  0  0
 32 30  1  0  0  0  0
M  END
>  <MODEL>
5

>  <REMARK>
 VINA RESULT:     -10.8      3.805      7.099
  Name = 
  3 active torsions:
  status: ('A' for Active; 'I' for Inactive)
    1  A    between atoms: C_8  and  C_28
    2  A    between atoms: N_10  and  C_19
    3  A    between atoms: C_19  and  C_24
                            x       y       z     vdW  Elec       q    Type
                         _______ _______ _______ _____ _____    ______ ____

>  <TORSDO>
F 3

$$$$
=
 OpenBabel10262421263D

 32 39  0  0  1  0  0  0  0  0999 V2000
  185.4080  178.1480  142.2280 C   0  0  1  0  0  3  0  0  0  0  0  0
  185.8420  178.8270  147.1840 C   0  0  0  0  0  3  0  0  0  0  0  0
  187.0020  178.0510  147.2090 C   0  0  0  0  0  3  0  0  0  0  0  0
  187.7910  178.1750  141.5460 C   0  0  1  0  0  3  0  0  0  0  0  0
  187.4520  178.4700  140.1650 C   0  0  0  0  0  0  0  0  0  0  0  0
  189.8610  177.1350  140.9260 C   0  0  0  0  0  0  0  0  0  0  0  0
  185.1870  179.0700  145.9750 C   0  0  0  0  0  3  0  0  0  0  0  0
  184.9560  178.9040  143.4920 C   0  0  0  0  0  2  0  0  0  0  0  0
  185.6810  178.5400  144.7790 C   0  0  0  0  0  0  0  0  0  0  0  0
  187.3810  177.0990  143.5520 C   0  0  2  0  0  3  0  0  0  0  0  0
  189.7240  177.6480  139.5060 C   0  0  0  0  0  2  0  0  0  0  0  0
  188.3270  178.1650  139.2000 C   0  0  0  0  0  3  0  0  0  0  0  0
  187.5150  177.5200  146.0230 C   0  0  0  0  0  3  0  0  0  0  0  0
  186.8830  177.7760  144.8000 C   0  0  0  0  0  0  0  0  0  0  0  0
  188.9090  177.1090  143.3360 C   0  0  0  0  0  2  0  0  0  0  0  0
  185.1340  179.0220  140.9680 C   0  0  1  0  0  3  0  0  0  0  0  0
  186.0850  178.7710  139.8730 N   0  0  0  0  0  2  0  0  0  0  0  0
  190.6170  176.2100  141.1760 O   0  0  0  0  0  0  0  0  0  0  0  0
  186.8580  177.8170  142.3830 C   0  0  1  0  0  3  0  0  0  0  0  0
  189.1510  177.8780  142.0240 C   0  0  2  0  0  3  0  0  0  0  0  0
  180.9180  179.2840  139.7920 C   0  0  0  0  0  2  0  0  0  0  0  0
  183.7070  178.8540  140.4600 C   0  0  1  0  0  0  0  0  0  0  0  0
  183.2020  177.4230  140.5280 C   0  0  0  0  0  2  0  0  0  0  0  0
  181.2210  178.8560  141.2260 C   0  0  0  0  0  2  0  0  0  0  0  0
  182.6800  178.4530  141.5200 C   0  0  2  0  0  3  0  0  0  0  0  0
  183.2830  179.5690  139.1720 C   0  0  0  0  0  2  0  0  0  0  0  0
  181.9560  180.2890  139.3290 C   0  0  1  0  0  3  0  0  0  0  0  0
  181.5510  180.8810  137.9920 C   0  0  0  0  0  2  0  0  0  0  0  0
  180.9040  182.7860  136.8650 C   0  0  2  0  0  3  0  0  0  0  0  0
  181.4290  182.3240  138.1040 N   0  0  0  0  0  0  0  0  0  0  0  0
  181.2130  184.1370  136.7070 O   0  0  0  0  0  1  0  0  0  0  0  0
  180.0280  182.6290  137.9740 N   0  0  0  0  0  2  0  0  0  0  0  0
  1 19  1  0  0  0  0
  1  8  1  1  0  0  0
  2  3  1  0  0  0  0
  4  5  1  6  0  0  0
  4 20  1  0  0  0  0
  4 19  1  0  0  0  0
  6 18  2  0  0  0  0
  6 20  1  0  0  0  0
  7  2  2  0  0  0  0
  8  9  1  0  0  0  0
  9 14  2  0  0  0  0
  9  7  1  0  0  0  0
 10 15  1  1  0  0  0
 10 14  1  0  0  0  0
 11  6  1  0  0  0  0
 12 11  1  0  0  0  0
 12  5  2  0  0  0  0
 13  3  2  0  0  0  0
 14 13  1  0  0  0  0
 16 17  1  6  0  0  0
 16  1  1  0  0  0  0
 17  5  1  0  0  0  0
 19 10  1  0  0  0  0
 20 15  1  0  0  0  0
 21 24  1  0  0  0  0
 22 23  1  0  0  0  0
 22 16  1  0  0  0  0
 22 25  1  0  0  0  0
 23 25  1  0  0  0  0
 24 25  1  0  0  0  0
 26 27  1  0  0  0  0
 26 22  1  0  0  0  0
 27 21  1  0  0  0  0
 28 30  1  0  0  0  0
 28 27  1  0  0  0  0
 29 32  1  0  0  0  0
 29 30  1  0  0  0  0
 31 29  1  0  0  0  0
 32 30  1  0  0  0  0
M  END
>  <MODEL>
6

>  <REMARK>
 VINA RESULT:     -10.6      4.954      7.587
  Name = 
  3 active torsions:
  status: ('A' for Active; 'I' for Inactive)
    1  A    between atoms: C_8  and  C_28
    2  A    between atoms: N_10  and  C_19
    3  A    between atoms: C_19  and  C_24
                            x       y       z     vdW  Elec       q    Type
                         _______ _______ _______ _____ _____    ______ ____

>  <TORSDO>
F 3

$$$$
=
 OpenBabel10262421263D

 32 39  0  0  1  0  0  0  0  0999 V2000
  189.4600  176.9000  140.5960 C   0  0  1  0  0  3  0  0  0  0  0  0
  193.4020  176.4730  137.5150 C   0  0  0  0  0  3  0  0  0  0  0  0
  192.5580  176.1780  136.4430 C   0  0  0  0  0  3  0  0  0  0  0  0
  187.7960  177.9340  139.0780 C   0  0  1  0  0  3  0  0  0  0  0  0
  186.9930  178.4130  140.1900 C   0  0  0  0  0  0  0  0  0  0  0  0
  185.9050  177.8780  137.6020 C   0  0  0  0  0  0  0  0  0  0  0  0
  192.8660  176.7520  138.7730 C   0  0  0  0  0  3  0  0  0  0  0  0
  190.9660  177.1190  140.3560 C   0  0  0  0  0  2  0  0  0  0  0  0
  191.4820  176.7370  138.9770 C   0  0  0  0  0  0  0  0  0  0  0  0
  189.1350  176.3330  138.0820 C   0  0  2  0  0  3  0  0  0  0  0  0
  185.0630  178.6350  138.6100 C   0  0  0  0  0  2  0  0  0  0  0  0
  185.6980  178.6800  139.9910 C   0  0  0  0  0  3  0  0  0  0  0  0
  191.1730  176.1660  136.6250 C   0  0  0  0  0  3  0  0  0  0  0  0
  190.6190  176.4670  137.8760 C   0  0  0  0  0  0  0  0  0  0  0  0
  188.2390  176.9360  136.9800 C   0  0  0  0  0  2  0  0  0  0  0  0
  188.9520  177.8970  141.6800 C   0  0  1  0  0  3  0  0  0  0  0  0
  187.5390  178.2700  141.5040 N   0  0  0  0  0  2  0  0  0  0  0  0
  185.3720  177.2500  136.7020 O   0  0  0  0  0  0  0  0  0  0  0  0
  188.7560  177.0790  139.2890 C   0  0  1  0  0  3  0  0  0  0  0  0
  187.4000  178.0330  137.6630 C   0  0  2  0  0  3  0  0  0  0  0  0
  189.5660  177.1330  145.9530 C   0  0  0  0  0  2  0  0  0  0  0  0
  189.1700  177.3610  143.0900 C   0  0  1  0  0  0  0  0  0  0  0  0
  189.9970  176.0880  143.1360 C   0  0  0  0  0  2  0  0  0  0  0  0
  190.7980  177.4660  145.1170 C   0  0  0  0  0  2  0  0  0  0  0  0
  190.6170  177.4030  143.5870 C   0  0  2  0  0  3  0  0  0  0  0  0
  187.9930  177.3370  144.0720 C   0  0  0  0  0  2  0  0  0  0  0  0
  188.3690  177.9030  145.4280 C   0  0  1  0  0  3  0  0  0  0  0  0
  187.1920  177.7490  146.3740 C   0  0  0  0  0  2  0  0  0  0  0  0
  184.9520  178.2530  146.5930 C   0  0  2  0  0  3  0  0  0  0  0  0
  186.1810  178.7490  146.0770 N   0  0  0  0  0  0  0  0  0  0  0  0
  183.8900  178.8800  145.9410 O   0  0  0  0  0  1  0  0  0  0  0  0
  185.6800  179.2150  147.3440 N   0  0  0  0  0  2  0  0  0  0  0  0
  1  8  1  6  0  0  0
  1 16  1  0  0  0  0
  2  7  1  0  0  0  0
  3 13  1  0  0  0  0
  3  2  2  0  0  0  0
  4 19  1  0  0  0  0
  4  5  1  1  0  0  0
  5 17  1  0  0  0  0
  6 20  1  0  0  0  0
  6 11  1  0  0  0  0
  7  9  2  0  0  0  0
  9  8  1  0  0  0  0
 10 15  1  6  0  0  0
 10 19  1  0  0  0  0
 11 12  1  0  0  0  0
 12  5  2  0  0  0  0
 13 14  2  0  0  0  0
 14 10  1  0  0  0  0
 14  9  1  0  0  0  0
 15 20  1  0  0  0  0
 16 17  1  6  0  0  0
 16 22  1  0  0  0  0
 18  6  2  0  0  0  0
 19  1  1  0  0  0  0
 20  4  1  0  0  0  0
 22 23  1  0  0  0  0
 22 25  1  0  0  0  0
 22 26  1  0  0  0  0
 23 25  1  0  0  0  0
 24 21  1  0  0  0  0
 25 24  1  0  0  0  0
 26 27  1  0  0  0  0
 27 21  1  0  0  0  0
 27 28  1  0  0  0  0
 29 32  1  0  0  0  0
 30 28  1  0  0  0  0
 30 29  1  0  0  0  0
 30 32  1  0  0  0  0
 31 29  1  0  0  0  0
M  END
>  <MODEL>
7

>  <REMARK>
 VINA RESULT:     -10.3      3.308      8.614
  Name = 
  3 active torsions:
  status: ('A' for Active; 'I' for Inactive)
    1  A    between atoms: C_8  and  C_28
    2  A    between atoms: N_10  and  C_19
    3  A    between atoms: C_19  and  C_24
                            x       y       z     vdW  Elec       q    Type
                         _______ _______ _______ _____ _____    ______ ____

>  <TORSDO>
F 3

$$$$
=
 OpenBabel10262421263D

 32 39  0  0  1  0  0  0  0  0999 V2000
  185.5370  178.0070  142.0110 C   0  0  1  0  0  3  0  0  0  0  0  0
  185.2900  178.8520  146.9550 C   0  0  0  0  0  3  0  0  0  0  0  0
  186.5020  178.1870  147.1490 C   0  0  0  0  0  3  0  0  0  0  0  0
  187.9740  178.2360  141.6230 C   0  0  1  0  0  3  0  0  0  0  0  0
  187.7860  178.4620  140.2010 C   0  0  0  0  0  0  0  0  0  0  0  0
  190.1900  177.3740  141.2990 C   0  0  0  0  0  0  0  0  0  0  0  0
  184.7710  179.0030  145.6670 C   0  0  0  0  0  3  0  0  0  0  0  0
  184.8670  178.7510  143.1820 C   0  0  0  0  0  2  0  0  0  0  0  0
  185.4560  178.4900  144.5600 C   0  0  0  0  0  0  0  0  0  0  0  0
  187.4150  177.1790  143.6030 C   0  0  2  0  0  3  0  0  0  0  0  0
  190.1850  177.8350  139.8540 C   0  0  0  0  0  2  0  0  0  0  0  0
  188.7970  178.2140  139.3620 C   0  0  0  0  0  3  0  0  0  0  0  0
  187.2030  177.6750  146.0550 C   0  0  0  0  0  3  0  0  0  0  0  0
  186.7070  177.8390  144.7550 C   0  0  0  0  0  0  0  0  0  0  0  0
  188.9510  177.3240  143.5750 C   0  0  0  0  0  2  0  0  0  0  0  0
  185.3460  178.8190  140.6950 C   0  0  1  0  0  3  0  0  0  0  0  0
  186.4440  178.6280  139.7340 N   0  0  0  0  0  2  0  0  0  0  0  0
  190.9860  176.5290  141.6730 O   0  0  0  0  0  0  0  0  0  0  0  0
  186.9800  177.8160  142.3530 C   0  0  1  0  0  3  0  0  0  0  0  0
  189.2850  178.0780  142.2740 C   0  0  2  0  0  3  0  0  0  0  0  0
  181.9200  178.0320  138.0750 C   0  0  0  0  0  2  0  0  0  0  0  0
  184.0140  178.5070  140.0240 C   0  0  1  0  0  0  0  0  0  0  0  0
  182.8070  178.9630  140.8250 C   0  0  0  0  0  2  0  0  0  0  0  0
  182.2290  179.4900  138.4060 C   0  0  0  0  0  2  0  0  0  0  0  0
  183.2090  179.7280  139.5720 C   0  0  2  0  0  3  0  0  0  0  0  0
  183.8080  177.1340  139.3740 C   0  0  0  0  0  2  0  0  0  0  0  0
  183.2130  177.2440  137.9830 C   0  0  1  0  0  3  0  0  0  0  0  0
  182.9400  175.8500  137.4480 C   0  0  0  0  0  2  0  0  0  0  0  0
  183.8250  173.7230  137.5350 C   0  0  2  0  0  3  0  0  0  0  0  0
  184.1770  175.0920  137.3810 N   0  0  0  0  0  0  0  0  0  0  0  0
  184.9380  173.0050  137.9690 O   0  0  0  0  0  1  0  0  0  0  0  0
  184.0690  174.2330  136.2310 N   0  0  0  0  0  2  0  0  0  0  0  0
  1 19  1  0  0  0  0
  1  8  1  1  0  0  0
  2  3  1  0  0  0  0
  4  5  1  6  0  0  0
  4 20  1  0  0  0  0
  4 19  1  0  0  0  0
  6 18  2  0  0  0  0
  6 20  1  0  0  0  0
  7  2  2  0  0  0  0
  8  9  1  0  0  0  0
  9 14  2  0  0  0  0
  9  7  1  0  0  0  0
 10 15  1  1  0  0  0
 10 14  1  0  0  0  0
 11  6  1  0  0  0  0
 12 11  1  0  0  0  0
 12  5  2  0  0  0  0
 13  3  2  0  0  0  0
 14 13  1  0  0  0  0
 16 17  1  6  0  0  0
 16  1  1  0  0  0  0
 17  5  1  0  0  0  0
 19 10  1  0  0  0  0
 20 15  1  0  0  0  0
 21 24  1  0  0  0  0
 22 16  1  0  0  0  0
 22 23  1  0  0  0  0
 24 25  1  0  0  0  0
 25 22  1  0  0  0  0
 25 23  1  0  0  0  0
 26 22  1  0  0  0  0
 27 21  1  0  0  0  0
 27 26  1  0  0  0  0
 28 27  1  0  0  0  0
 29 31  1  0  0  0  0
 30 28  1  0  0  0  0
 30 29  1  0  0  0  0
 32 30  1  0  0  0  0
 32 29  1  0  0  0  0
M  END
>  <MODEL>
8

>  <REMARK>
 VINA RESULT:     -10.2      4.107      5.871
  Name = 
  3 active torsions:
  status: ('A' for Active; 'I' for Inactive)
    1  A    between atoms: C_8  and  C_28
    2  A    between atoms: N_10  and  C_19
    3  A    between atoms: C_19  and  C_24
                            x       y       z     vdW  Elec       q    Type
                         _______ _______ _______ _____ _____    ______ ____

>  <TORSDO>
F 3

$$$$
=
 OpenBabel10262421263D

 32 39  0  0  1  0  0  0  0  0999 V2000
  185.2820  178.0250  142.0150 C   0  0  1  0  0  3  0  0  0  0  0  0
  185.3050  178.8480  146.9680 C   0  0  0  0  0  3  0  0  0  0  0  0
  186.5280  178.1860  147.0930 C   0  0  0  0  0  3  0  0  0  0  0  0
  187.6940  178.2620  141.4950 C   0  0  1  0  0  3  0  0  0  0  0  0
  187.4270  178.4940  140.0860 C   0  0  0  0  0  0  0  0  0  0  0  0
  189.8900  177.4080  141.0450 C   0  0  0  0  0  0  0  0  0  0  0  0
  184.7170  179.0030  145.7120 C   0  0  0  0  0  3  0  0  0  0  0  0
  184.6760  178.7620  143.2240 C   0  0  0  0  0  2  0  0  0  0  0  0
  185.3400  178.4960  144.5660 C   0  0  0  0  0  0  0  0  0  0  0  0
  187.2470  177.1950  143.4970 C   0  0  2  0  0  3  0  0  0  0  0  0
  189.8050  177.8750  139.6050 C   0  0  0  0  0  2  0  0  0  0  0  0
  188.3910  178.2520  139.1920 C   0  0  0  0  0  3  0  0  0  0  0  0
  187.1690  177.6800  145.9590 C   0  0  0  0  0  3  0  0  0  0  0  0
  186.6020  177.8490  144.6890 C   0  0  0  0  0  0  0  0  0  0  0  0
  188.7790  177.3450  143.3850 C   0  0  0  0  0  2  0  0  0  0  0  0
  185.0170  178.8420  140.7150 C   0  0  1  0  0  3  0  0  0  0  0  0
  186.0620  178.6580  139.6950 N   0  0  0  0  0  2  0  0  0  0  0  0
  190.7090  176.5640  141.3710 O   0  0  0  0  0  0  0  0  0  0  0  0
  186.7420  177.8360  142.2770 C   0  0  1  0  0  3  0  0  0  0  0  0
  189.0390  178.1050  142.0720 C   0  0  2  0  0  3  0  0  0  0  0  0
  181.5020  177.7750  138.3220 C   0  0  0  0  0  2  0  0  0  0  0  0
  183.6510  178.5290  140.1170 C   0  0  1  0  0  0  0  0  0  0  0  0
  182.5280  179.3770  140.6880 C   0  0  0  0  0  2  0  0  0  0  0  0
  182.0240  179.2040  138.2020 C   0  0  0  0  0  2  0  0  0  0  0  0
  183.0340  179.6510  139.2790 C   0  0  2  0  0  3  0  0  0  0  0  0
  183.2420  177.0660  139.9130 C   0  0  0  0  0  2  0  0  0  0  0  0
  182.6650  176.8220  138.5310 C   0  0  1  0  0  3  0  0  0  0  0  0
  182.1860  175.3850  138.4390 C   0  0  0  0  0  2  0  0  0  0  0  0
  180.4040  173.9990  137.9700 C   0  0  2  0  0  3  0  0  0  0  0  0
  180.7470  175.3510  138.2460 N   0  0  0  0  0  0  0  0  0  0  0  0
  179.1790  173.9580  137.3060 O   0  0  0  0  0  1  0  0  0  0  0  0
  180.2140  174.5080  139.2840 N   0  0  0  0  0  2  0  0  0  0  0  0
  1 19  1  0  0  0  0
  1  8  1  1  0  0  0
  2  3  1  0  0  0  0
  4  5  1  6  0  0  0
  4 20  1  0  0  0  0
  4 19  1  0  0  0  0
  6 18  2  0  0  0  0
  6 20  1  0  0  0  0
  7  2  2  0  0  0  0
  8  9  1  0  0  0  0
  9 14  2  0  0  0  0
  9  7  1  0  0  0  0
 10 15  1  1  0  0  0
 10 14  1  0  0  0  0
 11  6  1  0  0  0  0
 12 11  1  0  0  0  0
 12  5  2  0  0  0  0
 13  3  2  0  0  0  0
 14 13  1  0  0  0  0
 16 17  1  6  0  0  0
 16  1  1  0  0  0  0
 17  5  1  0  0  0  0
 19 10  1  0  0  0  0
 20 15  1  0  0  0  0
 21 27  1  0  0  0  0
 22 23  1  0  0  0  0
 22 16  1  0  0  0  0
 24 21  1  0  0  0  0
 24 25  1  0  0  0  0
 25 22  1  0  0  0  0
 25 23  1  0  0  0  0
 26 22  1  0  0  0  0
 27 26  1  0  0  0  0
 28 27  1  0  0  0  0
 29 30  1  0  0  0  0
 29 32  1  0  0  0  0
 30 28  1  0  0  0  0
 30 32  1  0  0  0  0
 31 29  1  0  0  0  0
M  END
>  <MODEL>
9

>  <REMARK>
 VINA RESULT:     -10.0      4.945      7.042
  Name = 
  3 active torsions:
  status: ('A' for Active; 'I' for Inactive)
    1  A    between atoms: C_8  and  C_28
    2  A    between atoms: N_10  and  C_19
    3  A    between atoms: C_19  and  C_24
                            x       y       z     vdW  Elec       q    Type
                         _______ _______ _______ _____ _____    ______ ____

>  <TORSDO>
F 3

$$$$
