=
 OpenBabel10262423333D

 34 40  0  0  1  0  0  0  0  0999 V2000
  186.6930  176.6520  136.6360 C   0  0  2  0  0  0  0  0  0  0  0  0
  183.5360  178.0070  137.6060 C   0  0  0  0  0  3  0  0  0  0  0  0
  185.9900  178.4010  138.1120 N   0  0  0  0  0  0  0  0  0  0  0  0
  186.9040  175.1880  137.0270 C   0  0  2  0  0  3  0  0  0  0  0  0
  187.6240  175.7850  135.8170 C   0  0  0  0  0  2  0  0  0  0  0  0
  187.1640  177.6080  137.7090 C   0  0  2  0  0  3  0  0  0  0  0  0
  182.4680  177.8490  136.8240 C   0  0  0  0  0  3  0  0  0  0  0  0
  182.4620  177.7710  135.3430 C   0  0  0  0  0  0  0  0  0  0  0  0
  183.4480  177.2320  134.6060 C   0  0  0  0  0  3  0  0  0  0  0  0
  184.9300  178.1960  137.0800 C   0  0  1  0  0  3  0  0  0  0  0  0
  184.7580  176.7350  135.0630 C   0  0  0  0  0  3  0  0  0  0  0  0
  185.3540  177.0830  136.2020 C   0  0  0  0  0  0  0  0  0  0  0  0
  184.1330  171.2730  136.4510 C   0  0  0  0  0  2  0  0  0  0  0  0
  185.0140  173.7620  137.7340 C   0  0  1  0  0  3  0  0  0  0  0  0
  180.8700  173.1990  136.6660 C   0  0  0  0  0  0  0  0  0  0  0  0
  181.8060  172.1870  136.3880 C   0  0  0  0  0  3  0  0  0  0  0  0
  183.1520  172.3610  136.7220 C   0  0  0  0  0  0  0  0  0  0  0  0
  185.7980  174.2630  136.5390 C   0  0  2  0  0  3  0  0  0  0  0  0
  182.6400  174.5490  137.6300 C   0  0  0  0  0  3  0  0  0  0  0  0
  183.5740  173.5470  137.3480 C   0  0  0  0  0  0  0  0  0  0  0  0
  181.2950  174.3770  137.2900 C   0  0  0  0  0  3  0  0  0  0  0  0
  186.0330  172.8460  137.0310 C   0  0  2  0  0  3  0  0  0  0  0  0
  185.4530  171.8790  135.9910 C   0  0  0  0  0  2  0  0  0  0  0  0
  179.5170  173.0500  136.3480 O   0  0  0  0  0  0  0  0  0  0  0  0
  178.9930  174.6480  134.6410 C   0  0  0  0  0  1  0  0  0  0  0  0
  179.0200  173.1850  135.0240 C   0  0  0  0  0  2  0  0  0  0  0  0
  181.1750  178.0930  134.6450 C   0  0  0  0  0  3  0  0  0  0  0  0
  180.2030  178.7610  135.6050 C   0  0  0  0  0  2  0  0  0  0  0  0
  180.9530  179.5970  134.5940 C   0  0  0  0  0  2  0  0  0  0  0  0
  189.6890  178.0710  137.2170 C   0  0  0  0  0  1  0  0  0  0  0  0
  188.2620  178.5130  137.2220 C   0  0  0  0  0  0  0  0  0  0  0  0
  187.9770  179.6220  136.8020 O   0  0  0  0  0  0  0  0  0  0  0  0
  185.6080  177.9020  139.4320 C   0  0  0  0  0  2  0  0  0  0  0  0
  186.0110  178.8140  140.4070 O   0  0  0  0  0  1  0  0  0  0  0  0
  1  5  1  6  0  0  0
  1  4  1  0  0  0  0
  1  6  1  0  0  0  0
  3 33  1  0  0  0  0
  4  5  1  6  0  0  0
  6 31  1  6  0  0  0
  6  3  1  0  0  0  0
  7  2  2  0  0  0  0
  8  7  1  0  0  0  0
  9 11  1  0  0  0  0
  9  8  2  0  0  0  0
 10  2  1  1  0  0  0
 10  3  1  0  0  0  0
 11 12  2  0  0  0  0
 12  1  1  0  0  0  0
 12 10  1  0  0  0  0
 13 17  1  0  0  0  0
 14 20  1  6  0  0  0
 15 21  1  0  0  0  0
 16 15  2  0  0  0  0
 16 17  1  0  0  0  0
 17 20  2  0  0  0  0
 18  4  1  1  0  0  0
 18 22  1  0  0  0  0
 18 14  1  0  0  0  0
 20 19  1  0  0  0  0
 21 19  2  0  0  0  0
 22 23  1  6  0  0  0
 22 14  1  0  0  0  0
 23 13  1  0  0  0  0
 24 15  1  0  0  0  0
 25 26  1  0  0  0  0
 26 24  1  0  0  0  0
 27  8  1  0  0  0  0
 27 28  1  0  0  0  0
 29 27  1  0  0  0  0
 29 28  1  0  0  0  0
 30 31  1  0  0  0  0
 32 31  2  0  0  0  0
 33 34  1  0  0  0  0
M  END
>  <MODEL>
1

>  <REMARK>
 VINA RESULT:      -4.4      0.000      0.000
  Name = 
  6 active torsions:
  status: ('A' for Active; 'I' for Inactive)
    1  A    between atoms: C_3  and  C_25
    2  A    between atoms: N_5  and  C_19
    3  A    between atoms: C_7  and  O_11
    4  A    between atoms: C_8  and  C_18
    5  A    between atoms: O_11  and  C_21
    6  A    between atoms: C_12  and  C_20
                            x       y       z     vdW  Elec       q    Type
                         _______ _______ _______ _____ _____    ______ ____

>  <TORSDO>
F 6

$$$$
=
 OpenBabel10262423333D

 34 40  0  0  1  0  0  0  0  0999 V2000
  182.8770  178.0090  138.6170 C   0  0  2  0  0  0  0  0  0  0  0  0
  183.2850  174.5020  138.0900 C   0  0  0  0  0  3  0  0  0  0  0  0
  181.4000  176.1980  138.1020 N   0  0  0  0  0  0  0  0  0  0  0  0
  183.2430  178.4870  140.0240 C   0  0  2  0  0  3  0  0  0  0  0  0
  183.3480  179.4320  138.8250 C   0  0  0  0  0  2  0  0  0  0  0  0
  181.4220  177.6150  138.5030 C   0  0  2  0  0  3  0  0  0  0  0  0
  184.4720  174.0090  137.7360 C   0  0  0  0  0  3  0  0  0  0  0  0
  185.4980  174.6880  136.9070 C   0  0  0  0  0  0  0  0  0  0  0  0
  185.7180  176.0130  136.9030 C   0  0  0  0  0  3  0  0  0  0  0  0
  182.7720  175.8390  137.6350 C   0  0  1  0  0  3  0  0  0  0  0  0
  184.9460  177.0660  137.5870 C   0  0  0  0  0  3  0  0  0  0  0  0
  183.6850  176.9440  137.9990 C   0  0  0  0  0  0  0  0  0  0  0  0
  188.0070  178.6140  140.8160 C   0  0  0  0  0  2  0  0  0  0  0  0
  185.1790  179.1210  141.4210 C   0  0  1  0  0  3  0  0  0  0  0  0
  187.7440  177.2590  144.3510 C   0  0  0  0  0  0  0  0  0  0  0  0
  188.2640  177.6150  143.0950 C   0  0  0  0  0  3  0  0  0  0  0  0
  187.4420  178.2120  142.1350 C   0  0  0  0  0  0  0  0  0  0  0  0
  184.6440  178.0820  140.4590 C   0  0  2  0  0  3  0  0  0  0  0  0
  185.5770  178.1180  143.6800 C   0  0  0  0  0  3  0  0  0  0  0  0
  186.0910  178.4680  142.4270 C   0  0  0  0  0  0  0  0  0  0  0  0
  186.3990  177.5160  144.6370 C   0  0  0  0  0  3  0  0  0  0  0  0
  185.6680  179.0840  139.9610 C   0  0  2  0  0  3  0  0  0  0  0  0
  186.9870  178.3380  139.7180 C   0  0  0  0  0  2  0  0  0  0  0  0
  188.5450  176.6660  145.3320 O   0  0  0  0  0  0  0  0  0  0  0  0
  188.8770  177.4310  147.5790 C   0  0  0  0  0  1  0  0  0  0  0  0
  189.4170  177.4170  146.1670 C   0  0  0  0  0  2  0  0  0  0  0  0
  186.5060  173.8180  136.2180 C   0  0  0  0  0  3  0  0  0  0  0  0
  185.9390  172.4270  135.9880 C   0  0  0  0  0  2  0  0  0  0  0  0
  186.0110  173.4080  134.8400 C   0  0  0  0  0  2  0  0  0  0  0  0
  181.1100  178.5090  136.0660 C   0  0  0  0  0  1  0  0  0  0  0  0
  180.6830  178.4540  137.4970 C   0  0  0  0  0  0  0  0  0  0  0  0
  179.7020  179.0850  137.8540 O   0  0  0  0  0  0  0  0  0  0  0  0
  180.9860  175.4550  139.2910 C   0  0  0  0  0  2  0  0  0  0  0  0
  180.3050  176.3080  140.1580 O   0  0  0  0  0  1  0  0  0  0  0  0
  1  5  1  6  0  0  0
  1  4  1  0  0  0  0
  3  6  1  0  0  0  0
  3 33  1  0  0  0  0
  4  5  1  6  0  0  0
  6 31  1  6  0  0  0
  6  1  1  0  0  0  0
  7  2  2  0  0  0  0
  8  7  1  0  0  0  0
  9  8  2  0  0  0  0
  9 11  1  0  0  0  0
 10 12  1  0  0  0  0
 10  2  1  1  0  0  0
 10  3  1  0  0  0  0
 11 12  2  0  0  0  0
 12  1  1  0  0  0  0
 13 17  1  0  0  0  0
 14 20  1  1  0  0  0
 15 21  1  0  0  0  0
 15 24  1  0  0  0  0
 16 15  2  0  0  0  0
 17 20  2  0  0  0  0
 17 16  1  0  0  0  0
 18  4  1  6  0  0  0
 18 14  1  0  0  0  0
 19 21  2  0  0  0  0
 20 19  1  0  0  0  0
 22 23  1  1  0  0  0
 22 18  1  0  0  0  0
 22 14  1  0  0  0  0
 23 13  1  0  0  0  0
 24 26  1  0  0  0  0
 26 25  1  0  0  0  0
 27  8  1  0  0  0  0
 28 27  1  0  0  0  0
 29 28  1  0  0  0  0
 29 27  1  0  0  0  0
 30 31  1  0  0  0  0
 31 32  2  0  0  0  0
 33 34  1  0  0  0  0
M  END
>  <MODEL>
2

>  <REMARK>
 VINA RESULT:      -4.4      3.583      8.021
  Name = 
  6 active torsions:
  status: ('A' for Active; 'I' for Inactive)
    1  A    between atoms: C_3  and  C_25
    2  A    between atoms: N_5  and  C_19
    3  A    between atoms: C_7  and  O_11
    4  A    between atoms: C_8  and  C_18
    5  A    between atoms: O_11  and  C_21
    6  A    between atoms: C_12  and  C_20
                            x       y       z     vdW  Elec       q    Type
                         _______ _______ _______ _____ _____    ______ ____

>  <TORSDO>
F 6

$$$$
=
 OpenBabel10262423333D

 34 40  0  0  1  0  0  0  0  0999 V2000
  189.5110  177.5770  140.6390 C   0  0  2  0  0  0  0  0  0  0  0  0
  187.1580  176.8690  143.2280 C   0  0  0  0  0  3  0  0  0  0  0  0
  189.6680  176.7610  142.8830 N   0  0  0  0  0  0  0  0  0  0  0  0
  189.3560  176.7120  139.3860 C   0  0  2  0  0  3  0  0  0  0  0  0
  189.9590  178.1160  139.2980 C   0  0  0  0  0  2  0  0  0  0  0  0
  190.4500  176.9610  141.6510 C   0  0  2  0  0  3  0  0  0  0  0  0
  185.9550  177.4440  143.2190 C   0  0  0  0  0  3  0  0  0  0  0  0
  185.6260  178.7940  142.7010 C   0  0  0  0  0  0  0  0  0  0  0  0
  186.2390  179.3780  141.6570 C   0  0  0  0  0  3  0  0  0  0  0  0
  188.4090  177.5530  142.7540 C   0  0  1  0  0  3  0  0  0  0  0  0
  187.4080  178.8950  140.9020 C   0  0  0  0  0  3  0  0  0  0  0  0
  188.2990  178.0130  141.3530 C   0  0  0  0  0  0  0  0  0  0  0  0
  185.6740  177.5020  136.3600 C   0  0  0  0  0  2  0  0  0  0  0  0
  187.9690  176.0360  137.4570 C   0  0  1  0  0  3  0  0  0  0  0  0
  184.2090  174.0270  136.7820 C   0  0  0  0  0  0  0  0  0  0  0  0
  184.3320  175.3950  136.4840 C   0  0  0  0  0  3  0  0  0  0  0  0
  185.5420  176.0590  136.7060 C   0  0  0  0  0  0  0  0  0  0  0  0
  187.9520  176.7380  138.7980 C   0  0  2  0  0  3  0  0  0  0  0  0
  186.5230  173.9930  137.5080 C   0  0  0  0  0  3  0  0  0  0  0  0
  186.6460  175.3560  137.2180 C   0  0  0  0  0  0  0  0  0  0  0  0
  185.3110  173.3320  137.2920 C   0  0  0  0  0  3  0  0  0  0  0  0
  187.9200  177.5740  137.5320 C   0  0  2  0  0  3  0  0  0  0  0  0
  186.5250  178.2030  137.4120 C   0  0  0  0  0  2  0  0  0  0  0  0
  183.0120  173.3370  136.5650 O   0  0  0  0  0  0  0  0  0  0  0  0
  182.8370  171.1250  135.6580 C   0  0  0  0  0  1  0  0  0  0  0  0
  182.8420  171.9690  136.9130 C   0  0  0  0  0  2  0  0  0  0  0  0
  184.3770  179.4410  143.2190 C   0  0  0  0  0  3  0  0  0  0  0  0
  183.7780  178.6130  144.3440 C   0  0  0  0  0  2  0  0  0  0  0  0
  184.5550  179.8690  144.6680 C   0  0  0  0  0  2  0  0  0  0  0  0
  191.7520  178.6280  143.1880 C   0  0  0  0  0  1  0  0  0  0  0  0
  191.6430  177.8340  141.9260 C   0  0  0  0  0  0  0  0  0  0  0  0
  192.5490  177.8780  141.1110 O   0  0  0  0  0  0  0  0  0  0  0  0
  189.4330  175.3210  142.9760 C   0  0  0  0  0  2  0  0  0  0  0  0
  190.6410  174.6680  143.2190 O   0  0  0  0  0  1  0  0  0  0  0  0
  1  5  1  6  0  0  0
  1 12  1  0  0  0  0
  1  6  1  0  0  0  0
  3 33  1  0  0  0  0
  4  5  1  6  0  0  0
  4  1  1  0  0  0  0
  6 31  1  1  0  0  0
  6  3  1  0  0  0  0
  7  2  2  0  0  0  0
  8 27  1  0  0  0  0
  8  7  1  0  0  0  0
  9  8  2  0  0  0  0
 10  3  1  0  0  0  0
 10  2  1  6  0  0  0
 11 12  2  0  0  0  0
 11  9  1  0  0  0  0
 12 10  1  0  0  0  0
 13 17  1  0  0  0  0
 13 23  1  0  0  0  0
 14 20  1  1  0  0  0
 14 22  1  0  0  0  0
 14 18  1  0  0  0  0
 15 21  1  0  0  0  0
 16 17  1  0  0  0  0
 16 15  2  0  0  0  0
 17 20  2  0  0  0  0
 18  4  1  6  0  0  0
 20 19  1  0  0  0  0
 21 19  2  0  0  0  0
 22 23  1  1  0  0  0
 22 18  1  0  0  0  0
 24 15  1  0  0  0  0
 24 26  1  0  0  0  0
 25 26  1  0  0  0  0
 27 28  1  0  0  0  0
 27 29  1  0  0  0  0
 28 29  1  0  0  0  0
 31 30  1  0  0  0  0
 32 31  2  0  0  0  0
 33 34  1  0  0  0  0
M  END
>  <MODEL>
3

>  <REMARK>
 VINA RESULT:      -4.3      3.712      6.090
  Name = 
  6 active torsions:
  status: ('A' for Active; 'I' for Inactive)
    1  A    between atoms: C_3  and  C_25
    2  A    between atoms: N_5  and  C_19
    3  A    between atoms: C_7  and  O_11
    4  A    between atoms: C_8  and  C_18
    5  A    between atoms: O_11  and  C_21
    6  A    between atoms: C_12  and  C_20
                            x       y       z     vdW  Elec       q    Type
                         _______ _______ _______ _____ _____    ______ ____

>  <TORSDO>
F 6

$$$$
=
 OpenBabel10262423333D

 34 40  0  0  1  0  0  0  0  0999 V2000
  189.8080  175.9810  137.1650 C   0  0  2  0  0  0  0  0  0  0  0  0
  186.9190  176.3800  135.1060 C   0  0  0  0  0  3  0  0  0  0  0  0
  189.4410  176.4510  134.8470 N   0  0  0  0  0  0  0  0  0  0  0  0
  189.9470  177.0250  138.2740 C   0  0  2  0  0  3  0  0  0  0  0  0
  190.5550  175.6300  138.4330 C   0  0  0  0  0  2  0  0  0  0  0  0
  190.4860  176.4080  135.8830 C   0  0  2  0  0  3  0  0  0  0  0  0
  185.7510  175.8540  135.4780 C   0  0  0  0  0  3  0  0  0  0  0  0
  185.5520  174.6080  136.2560 C   0  0  0  0  0  0  0  0  0  0  0  0
  186.3900  174.1640  137.2080 C   0  0  0  0  0  3  0  0  0  0  0  0
  188.2460  175.7310  135.3800 C   0  0  1  0  0  3  0  0  0  0  0  0
  187.7020  174.7120  137.5930 C   0  0  0  0  0  3  0  0  0  0  0  0
  188.4640  175.4870  136.8220 C   0  0  0  0  0  0  0  0  0  0  0  0
  186.8330  178.6300  141.6010 C   0  0  0  0  0  2  0  0  0  0  0  0
  188.0700  178.4860  138.9420 C   0  0  1  0  0  3  0  0  0  0  0  0
  183.7870  178.1750  139.3830 C   0  0  0  0  0  0  0  0  0  0  0  0
  184.5960  178.3360  140.5210 C   0  0  0  0  0  3  0  0  0  0  0  0
  185.9850  178.4290  140.3920 C   0  0  0  0  0  0  0  0  0  0  0  0
  188.7170  177.1350  139.1640 C   0  0  2  0  0  3  0  0  0  0  0  0
  185.7710  178.2200  137.9870 C   0  0  0  0  0  3  0  0  0  0  0  0
  186.5780  178.3740  139.1190 C   0  0  0  0  0  0  0  0  0  0  0  0
  184.3830  178.1210  138.1180 C   0  0  0  0  0  3  0  0  0  0  0  0
  188.9100  178.2220  140.2060 C   0  0  2  0  0  3  0  0  0  0  0  0
  188.1190  177.8250  141.4600 C   0  0  0  0  0  2  0  0  0  0  0  0
  182.3960  178.0840  139.4820 O   0  0  0  0  0  0  0  0  0  0  0  0
  180.9110  178.2570  141.3550 C   0  0  0  0  0  1  0  0  0  0  0  0
  181.6200  178.9990  140.2430 C   0  0  0  0  0  2  0  0  0  0  0  0
  184.2170  173.9350  136.1420 C   0  0  0  0  0  3  0  0  0  0  0  0
  183.9990  172.9870  137.3100 C   0  0  0  0  0  2  0  0  0  0  0  0
  183.3130  174.3350  137.2980 C   0  0  0  0  0  2  0  0  0  0  0  0
  191.2820  174.0730  135.0160 C   0  0  0  0  0  1  0  0  0  0  0  0
  191.5840  175.4620  135.4780 C   0  0  0  0  0  0  0  0  0  0  0  0
  192.7410  175.8460  135.5070 O   0  0  0  0  0  0  0  0  0  0  0  0
  189.1900  177.8680  134.5940 C   0  0  0  0  0  2  0  0  0  0  0  0
  189.4420  178.5990  135.7540 O   0  0  0  0  0  1  0  0  0  0  0  0
  1  4  1  0  0  0  0
  1  5  1  1  0  0  0
  2  7  2  0  0  0  0
  3 10  1  0  0  0  0
  3  6  1  0  0  0  0
  4  5  1  1  0  0  0
  6 31  1  6  0  0  0
  6  1  1  0  0  0  0
  7  8  1  0  0  0  0
  8  9  2  0  0  0  0
  9 11  1  0  0  0  0
 10  2  1  1  0  0  0
 10 12  1  0  0  0  0
 12  1  1  0  0  0  0
 12 11  2  0  0  0  0
 14 20  1  1  0  0  0
 14 18  1  0  0  0  0
 14 22  1  0  0  0  0
 15 24  1  0  0  0  0
 15 16  1  0  0  0  0
 17 16  2  0  0  0  0
 17 13  1  0  0  0  0
 18  4  1  6  0  0  0
 18 22  1  0  0  0  0
 19 21  1  0  0  0  0
 19 20  2  0  0  0  0
 20 17  1  0  0  0  0
 21 15  2  0  0  0  0
 22 23  1  1  0  0  0
 23 13  1  0  0  0  0
 24 26  1  0  0  0  0
 26 25  1  0  0  0  0
 27  8  1  0  0  0  0
 27 29  1  0  0  0  0
 27 28  1  0  0  0  0
 29 28  1  0  0  0  0
 30 31  1  0  0  0  0
 31 32  2  0  0  0  0
 33  3  1  0  0  0  0
 33 34  1  0  0  0  0
M  END
>  <MODEL>
4

>  <REMARK>
 VINA RESULT:      -4.1      2.918      5.875
  Name = 
  6 active torsions:
  status: ('A' for Active; 'I' for Inactive)
    1  A    between atoms: C_3  and  C_25
    2  A    between atoms: N_5  and  C_19
    3  A    between atoms: C_7  and  O_11
    4  A    between atoms: C_8  and  C_18
    5  A    between atoms: O_11  and  C_21
    6  A    between atoms: C_12  and  C_20
                            x       y       z     vdW  Elec       q    Type
                         _______ _______ _______ _____ _____    ______ ____

>  <TORSDO>
F 6

$$$$
=
 OpenBabel10262423333D

 34 40  0  0  1  0  0  0  0  0999 V2000
  180.7870  179.4030  138.5890 C   0  0  2  0  0  0  0  0  0  0  0  0
  181.3680  178.1470  135.2980 C   0  0  0  0  0  3  0  0  0  0  0  0
  180.4910  180.2680  136.3770 N   0  0  0  0  0  0  0  0  0  0  0  0
  179.7390  178.6270  139.3890 C   0  0  2  0  0  3  0  0  0  0  0  0
  180.8620  179.3850  140.1000 C   0  0  0  0  0  2  0  0  0  0  0  0
  180.1820  180.5350  137.7910 C   0  0  2  0  0  3  0  0  0  0  0  0
  182.2370  177.1550  135.1000 C   0  0  0  0  0  3  0  0  0  0  0  0
  183.4700  176.8940  135.8800 C   0  0  0  0  0  0  0  0  0  0  0  0
  183.6080  177.1470  137.1930 C   0  0  0  0  0  3  0  0  0  0  0  0
  181.5510  179.2160  136.3370 C   0  0  1  0  0  3  0  0  0  0  0  0
  182.6610  177.8310  138.0920 C   0  0  0  0  0  3  0  0  0  0  0  0
  181.6930  178.6560  137.6980 C   0  0  0  0  0  0  0  0  0  0  0  0
  179.1950  173.9110  140.2810 C   0  0  0  0  0  2  0  0  0  0  0  0
  178.9330  176.3880  138.7270 C   0  0  1  0  0  3  0  0  0  0  0  0
  180.5510  172.8240  136.9060 C   0  0  0  0  0  0  0  0  0  0  0  0
  180.1570  172.8010  138.2550 C   0  0  0  0  0  3  0  0  0  0  0  0
  179.6390  173.9510  138.8580 C   0  0  0  0  0  0  0  0  0  0  0  0
  180.0200  177.1330  139.4720 C   0  0  2  0  0  3  0  0  0  0  0  0
  179.8870  175.1530  136.7690 C   0  0  0  0  0  3  0  0  0  0  0  0
  179.4990  175.1340  138.1130 C   0  0  0  0  0  0  0  0  0  0  0  0
  180.4100  174.0050  136.1690 C   0  0  0  0  0  3  0  0  0  0  0  0
  178.9340  176.4310  140.2670 C   0  0  2  0  0  3  0  0  0  0  0  0
  179.5640  175.2190  140.9670 C   0  0  0  0  0  2  0  0  0  0  0  0
  181.0670  171.6880  136.2760 O   0  0  0  0  0  0  0  0  0  0  0  0
  183.3510  171.4710  136.9690 C   0  0  0  0  0  1  0  0  0  0  0  0
  182.4040  171.6160  135.7990 C   0  0  0  0  0  2  0  0  0  0  0  0
  184.5390  176.0760  135.2190 C   0  0  0  0  0  3  0  0  0  0  0  0
  184.9490  174.9170  136.1130 C   0  0  0  0  0  2  0  0  0  0  0  0
  184.0380  174.6690  134.9320 C   0  0  0  0  0  2  0  0  0  0  0  0
  179.8370  183.0630  138.3640 C   0  0  0  0  0  1  0  0  0  0  0  0
  180.7290  181.8750  138.2010 C   0  0  0  0  0  0  0  0  0  0  0  0
  181.9230  181.9870  138.4260 O   0  0  0  0  0  0  0  0  0  0  0  0
  179.2340  179.8380  135.7680 C   0  0  0  0  0  2  0  0  0  0  0  0
  179.0160  180.5580  134.5940 O   0  0  0  0  0  1  0  0  0  0  0  0
  1  4  1  0  0  0  0
  1  5  1  1  0  0  0
  3  6  1  0  0  0  0
  4  5  1  1  0  0  0
  6 31  1  1  0  0  0
  6  1  1  0  0  0  0
  7  2  2  0  0  0  0
  7  8  1  0  0  0  0
  8  9  2  0  0  0  0
  9 11  1  0  0  0  0
 10  2  1  6  0  0  0
 10  3  1  0  0  0  0
 10 12  1  0  0  0  0
 12 11  2  0  0  0  0
 12  1  1  0  0  0  0
 13 23  1  0  0  0  0
 14 20  1  1  0  0  0
 14 18  1  0  0  0  0
 14 22  1  0  0  0  0
 15 16  1  0  0  0  0
 16 17  2  0  0  0  0
 17 13  1  0  0  0  0
 18  4  1  6  0  0  0
 18 22  1  0  0  0  0
 19 20  2  0  0  0  0
 20 17  1  0  0  0  0
 21 19  1  0  0  0  0
 21 15  2  0  0  0  0
 22 23  1  1  0  0  0
 24 15  1  0  0  0  0
 26 24  1  0  0  0  0
 26 25  1  0  0  0  0
 27  8  1  0  0  0  0
 27 28  1  0  0  0  0
 29 27  1  0  0  0  0
 29 28  1  0  0  0  0
 31 30  1  0  0  0  0
 31 32  2  0  0  0  0
 33  3  1  0  0  0  0
 34 33  1  0  0  0  0
M  END
>  <MODEL>
5

>  <REMARK>
 VINA RESULT:      -4.0      3.126      5.985
  Name = 
  6 active torsions:
  status: ('A' for Active; 'I' for Inactive)
    1  A    between atoms: C_3  and  C_25
    2  A    between atoms: N_5  and  C_19
    3  A    between atoms: C_7  and  O_11
    4  A    between atoms: C_8  and  C_18
    5  A    between atoms: O_11  and  C_21
    6  A    between atoms: C_12  and  C_20
                            x       y       z     vdW  Elec       q    Type
                         _______ _______ _______ _____ _____    ______ ____

>  <TORSDO>
F 6

$$$$
=
 OpenBabel10262423333D

 34 40  0  0  1  0  0  0  0  0999 V2000
  187.5970  175.4510  135.5970 C   0  0  2  0  0  0  0  0  0  0  0  0
  185.3000  177.5260  137.3760 C   0  0  0  0  0  3  0  0  0  0  0  0
  187.8120  177.3000  137.1010 N   0  0  0  0  0  0  0  0  0  0  0  0
  187.5630  173.9750  135.9990 C   0  0  2  0  0  3  0  0  0  0  0  0
  188.0010  174.3920  134.5940 C   0  0  0  0  0  2  0  0  0  0  0  0
  188.5840  176.2490  136.4170 C   0  0  2  0  0  3  0  0  0  0  0  0
  184.0390  177.6440  136.9590 C   0  0  0  0  0  3  0  0  0  0  0  0
  183.5650  177.5880  135.5550 C   0  0  0  0  0  0  0  0  0  0  0  0
  184.1220  176.8330  134.5940 C   0  0  0  0  0  3  0  0  0  0  0  0
  186.4710  177.3740  136.4470 C   0  0  1  0  0  3  0  0  0  0  0  0
  185.3520  176.0240  134.6700 C   0  0  0  0  0  3  0  0  0  0  0  0
  186.3310  176.2020  135.5550 C   0  0  0  0  0  0  0  0  0  0  0  0
  183.9020  170.8690  136.5310 C   0  0  0  0  0  2  0  0  0  0  0  0
  185.6940  173.0540  137.3260 C   0  0  1  0  0  3  0  0  0  0  0  0
  181.4110  173.5380  137.5690 C   0  0  0  0  0  0  0  0  0  0  0  0
  181.9510  172.3290  137.0960 C   0  0  0  0  0  3  0  0  0  0  0  0
  183.3360  172.1630  137.0050 C   0  0  0  0  0  0  0  0  0  0  0  0
  186.1750  173.3550  135.9220 C   0  0  2  0  0  3  0  0  0  0  0  0
  183.6570  174.4030  137.8740 C   0  0  0  0  0  3  0  0  0  0  0  0
  184.1970  173.2030  137.3980 C   0  0  0  0  0  0  0  0  0  0  0  0
  182.2730  174.5700  137.9590 C   0  0  0  0  0  3  0  0  0  0  0  0
  186.2050  171.9200  136.4160 C   0  0  2  0  0  3  0  0  0  0  0  0
  185.1240  171.1340  135.6610 C   0  0  0  0  0  2  0  0  0  0  0  0
  180.0310  173.7300  137.6760 O   0  0  0  0  0  0  0  0  0  0  0  0
  179.5960  174.2810  139.9670 C   0  0  0  0  0  1  0  0  0  0  0  0
  179.2890  173.3400  138.8240 C   0  0  0  0  0  2  0  0  0  0  0  0
  182.2410  178.2240  135.2540 C   0  0  0  0  0  3  0  0  0  0  0  0
  181.2470  177.1790  134.7740 C   0  0  0  0  0  2  0  0  0  0  0  0
  181.1660  177.6970  136.1910 C   0  0  0  0  0  2  0  0  0  0  0  0
  191.0920  176.4480  135.7060 C   0  0  0  0  0  1  0  0  0  0  0  0
  189.6630  176.8630  135.5690 C   0  0  0  0  0  0  0  0  0  0  0  0
  189.3610  177.7020  134.7360 O   0  0  0  0  0  0  0  0  0  0  0  0
  187.7430  176.8950  138.5040 C   0  0  0  0  0  2  0  0  0  0  0  0
  189.0210  176.9300  139.0600 O   0  0  0  0  0  1  0  0  0  0  0  0
  1  5  1  6  0  0  0
  1  4  1  0  0  0  0
  1  6  1  0  0  0  0
  3 33  1  0  0  0  0
  4  5  1  6  0  0  0
  6 31  1  6  0  0  0
  6  3  1  0  0  0  0
  7  2  2  0  0  0  0
  8  7  1  0  0  0  0
  9 11  1  0  0  0  0
  9  8  2  0  0  0  0
 10  3  1  0  0  0  0
 10  2  1  1  0  0  0
 11 12  2  0  0  0  0
 12  1  1  0  0  0  0
 12 10  1  0  0  0  0
 13 17  1  0  0  0  0
 14 20  1  6  0  0  0
 15 24  1  0  0  0  0
 15 21  1  0  0  0  0
 16 15  2  0  0  0  0
 17 16  1  0  0  0  0
 17 20  2  0  0  0  0
 18  4  1  1  0  0  0
 18 22  1  0  0  0  0
 18 14  1  0  0  0  0
 19 21  2  0  0  0  0
 20 19  1  0  0  0  0
 22 23  1  6  0  0  0
 22 14  1  0  0  0  0
 23 13  1  0  0  0  0
 24 26  1  0  0  0  0
 26 25  1  0  0  0  0
 27  8  1  0  0  0  0
 27 29  1  0  0  0  0
 28 27  1  0  0  0  0
 28 29  1  0  0  0  0
 31 30  1  0  0  0  0
 32 31  2  0  0  0  0
 33 34  1  0  0  0  0
M  END
>  <MODEL>
6

>  <REMARK>
 VINA RESULT:      -3.9      1.672      2.087
  Name = 
  6 active torsions:
  status: ('A' for Active; 'I' for Inactive)
    1  A    between atoms: C_3  and  C_25
    2  A    between atoms: N_5  and  C_19
    3  A    between atoms: C_7  and  O_11
    4  A    between atoms: C_8  and  C_18
    5  A    between atoms: O_11  and  C_21
    6  A    between atoms: C_12  and  C_20
                            x       y       z     vdW  Elec       q    Type
                         _______ _______ _______ _____ _____    ______ ____

>  <TORSDO>
F 6

$$$$
=
 OpenBabel10262423333D

 34 40  0  0  1  0  0  0  0  0999 V2000
  187.8820  176.8370  136.9750 C   0  0  2  0  0  0  0  0  0  0  0  0
  188.9360  173.4710  136.4250 C   0  0  0  0  0  3  0  0  0  0  0  0
  186.9100  174.9140  135.9320 N   0  0  0  0  0  0  0  0  0  0  0  0
  187.7320  177.2230  138.4470 C   0  0  2  0  0  3  0  0  0  0  0  0
  188.0550  178.2820  137.3910 C   0  0  0  0  0  2  0  0  0  0  0  0
  186.6040  176.2800  136.3920 C   0  0  2  0  0  3  0  0  0  0  0  0
  190.2330  173.1630  136.4350 C   0  0  0  0  0  3  0  0  0  0  0  0
  191.3510  174.0360  136.0040 C   0  0  0  0  0  0  0  0  0  0  0  0
  191.3670  175.3730  136.1360 C   0  0  0  0  0  3  0  0  0  0  0  0
  188.3960  174.7710  135.9000 C   0  0  1  0  0  3  0  0  0  0  0  0
  190.2790  176.2540  136.5970 C   0  0  0  0  0  3  0  0  0  0  0  0
  188.9850  175.9410  136.5870 C   0  0  0  0  0  0  0  0  0  0  0  0
  191.9930  177.8370  140.6390 C   0  0  0  0  0  2  0  0  0  0  0  0
  189.0730  177.9950  140.3730 C   0  0  1  0  0  3  0  0  0  0  0  0
  190.8580  176.2800  143.9090 C   0  0  0  0  0  0  0  0  0  0  0  0
  191.6810  176.7570  142.8730 C   0  0  0  0  0  3  0  0  0  0  0  0
  191.1140  177.3070  141.7200 C   0  0  0  0  0  0  0  0  0  0  0  0
  188.9780  176.9540  139.2780 C   0  0  2  0  0  3  0  0  0  0  0  0
  188.9010  176.9270  142.6300 C   0  0  0  0  0  3  0  0  0  0  0  0
  189.7170  177.3960  141.5960 C   0  0  0  0  0  0  0  0  0  0  0  0
  189.4680  176.3710  143.7800 C   0  0  0  0  0  3  0  0  0  0  0  0
  189.9740  178.0890  139.1270 C   0  0  2  0  0  3  0  0  0  0  0  0
  191.3860  177.5070  139.2810 C   0  0  0  0  0  2  0  0  0  0  0  0
  191.3970  175.7300  145.0760 O   0  0  0  0  0  0  0  0  0  0  0  0
  192.3090  175.6320  147.2900 C   0  0  0  0  0  1  0  0  0  0  0  0
  191.6760  176.5080  146.2320 C   0  0  0  0  0  2  0  0  0  0  0  0
  192.6360  173.3650  135.6220 C   0  0  0  0  0  3  0  0  0  0  0  0
  193.8230  174.2430  135.9870 C   0  0  0  0  0  2  0  0  0  0  0  0
  193.4700  173.0570  136.8560 C   0  0  0  0  0  2  0  0  0  0  0  0
  184.6400  177.1250  134.8860 C   0  0  0  0  0  1  0  0  0  0  0  0
  186.0900  177.1120  135.2490 C   0  0  0  0  0  0  0  0  0  0  0  0
  186.8710  177.8070  134.6200 O   0  0  0  0  0  0  0  0  0  0  0  0
  186.2680  174.0180  136.8930 C   0  0  0  0  0  2  0  0  0  0  0  0
  184.9600  174.4420  137.1200 O   0  0  0  0  0  1  0  0  0  0  0  0
  1  5  1  6  0  0  0
  1  4  1  0  0  0  0
  2  7  2  0  0  0  0
  3  6  1  0  0  0  0
  3 33  1  0  0  0  0
  4  5  1  6  0  0  0
  6 31  1  6  0  0  0
  6  1  1  0  0  0  0
  8  9  2  0  0  0  0
  8  7  1  0  0  0  0
  9 11  1  0  0  0  0
 10  3  1  0  0  0  0
 10  2  1  1  0  0  0
 10 12  1  0  0  0  0
 12 11  2  0  0  0  0
 12  1  1  0  0  0  0
 13 17  1  0  0  0  0
 14 20  1  1  0  0  0
 15 24  1  0  0  0  0
 16 15  2  0  0  0  0
 17 16  1  0  0  0  0
 18  4  1  6  0  0  0
 18 14  1  0  0  0  0
 19 21  2  0  0  0  0
 20 17  2  0  0  0  0
 20 19  1  0  0  0  0
 21 15  1  0  0  0  0
 22 18  1  0  0  0  0
 22 23  1  1  0  0  0
 22 14  1  0  0  0  0
 23 13  1  0  0  0  0
 24 26  1  0  0  0  0
 26 25  1  0  0  0  0
 27 28  1  0  0  0  0
 27  8  1  0  0  0  0
 27 29  1  0  0  0  0
 28 29  1  0  0  0  0
 30 31  1  0  0  0  0
 32 31  2  0  0  0  0
 33 34  1  0  0  0  0
M  END
>  <MODEL>
7

>  <REMARK>
 VINA RESULT:      -3.7      4.583      9.297
  Name = 
  6 active torsions:
  status: ('A' for Active; 'I' for Inactive)
    1  A    between atoms: C_3  and  C_25
    2  A    between atoms: N_5  and  C_19
    3  A    between atoms: C_7  and  O_11
    4  A    between atoms: C_8  and  C_18
    5  A    between atoms: O_11  and  C_21
    6  A    between atoms: C_12  and  C_20
                            x       y       z     vdW  Elec       q    Type
                         _______ _______ _______ _____ _____    ______ ____

>  <TORSDO>
F 6

$$$$
=
 OpenBabel10262423333D

 34 40  0  0  1  0  0  0  0  0999 V2000
  184.5310  176.9700  136.6610 C   0  0  2  0  0  0  0  0  0  0  0  0
  184.3160  173.5550  137.6810 C   0  0  0  0  0  3  0  0  0  0  0  0
  182.7380  175.4870  137.2220 N   0  0  0  0  0  0  0  0  0  0  0  0
  185.2730  177.8800  137.6410 C   0  0  2  0  0  3  0  0  0  0  0  0
  185.2300  178.2100  136.1480 C   0  0  0  0  0  2  0  0  0  0  0  0
  183.0480  176.9000  136.9490 C   0  0  2  0  0  3  0  0  0  0  0  0
  185.3100  172.7090  137.4100 C   0  0  0  0  0  3  0  0  0  0  0  0
  186.2020  172.7450  136.2260 C   0  0  0  0  0  0  0  0  0  0  0  0
  186.5970  173.8700  135.6050 C   0  0  0  0  0  3  0  0  0  0  0  0
  183.9020  174.6710  136.7640 C   0  0  1  0  0  3  0  0  0  0  0  0
  186.1560  175.2530  135.8610 C   0  0  0  0  0  3  0  0  0  0  0  0
  185.0190  175.5940  136.4650 C   0  0  0  0  0  0  0  0  0  0  0  0
  190.0830  177.5830  137.9680 C   0  0  0  0  0  2  0  0  0  0  0  0
  187.3980  178.4730  138.7530 C   0  0  1  0  0  3  0  0  0  0  0  0
  190.0660  176.7340  141.6670 C   0  0  0  0  0  0  0  0  0  0  0  0
  190.4820  176.8660  140.3310 C   0  0  0  0  0  3  0  0  0  0  0  0
  189.6240  177.4200  139.3770 C   0  0  0  0  0  0  0  0  0  0  0  0
  186.6660  177.3830  137.9990 C   0  0  2  0  0  3  0  0  0  0  0  0
  187.9330  177.7330  141.0840 C   0  0  0  0  0  3  0  0  0  0  0  0
  188.3430  177.8590  139.7530 C   0  0  0  0  0  0  0  0  0  0  0  0
  188.7890  177.1730  142.0360 C   0  0  0  0  0  3  0  0  0  0  0  0
  187.7240  178.1940  137.2740 C   0  0  2  0  0  3  0  0  0  0  0  0
  188.9320  177.2820  137.0180 C   0  0  0  0  0  2  0  0  0  0  0  0
  190.9040  176.1890  142.6440 O   0  0  0  0  0  0  0  0  0  0  0  0
  191.6510  178.1330  143.8320 C   0  0  0  0  0  1  0  0  0  0  0  0
  191.0390  176.7540  143.9410 C   0  0  0  0  0  2  0  0  0  0  0  0
  186.8940  171.4700  135.8510 C   0  0  0  0  0  3  0  0  0  0  0  0
  188.0890  171.7580  134.9550 C   0  0  0  0  0  2  0  0  0  0  0  0
  188.3060  171.4390  136.4170 C   0  0  0  0  0  2  0  0  0  0  0  0
  181.2450  178.5200  135.9700 C   0  0  0  0  0  1  0  0  0  0  0  0
  182.2220  177.4030  135.7970 C   0  0  0  0  0  0  0  0  0  0  0  0
  182.3700  176.9020  134.6940 O   0  0  0  0  0  0  0  0  0  0  0  0
  182.5090  175.4010  138.6630 C   0  0  0  0  0  2  0  0  0  0  0  0
  182.1450  176.6550  139.1500 O   0  0  0  0  0  1  0  0  0  0  0  0
  1  5  1  6  0  0  0
  1  6  1  0  0  0  0
  1  4  1  0  0  0  0
  3 33  1  0  0  0  0
  4  5  1  6  0  0  0
  6 31  1  6  0  0  0
  6  3  1  0  0  0  0
  7  2  2  0  0  0  0
  8  7  1  0  0  0  0
  9 11  1  0  0  0  0
  9  8  2  0  0  0  0
 10  3  1  0  0  0  0
 10  2  1  1  0  0  0
 11 12  2  0  0  0  0
 12  1  1  0  0  0  0
 12 10  1  0  0  0  0
 13 17  1  0  0  0  0
 14 20  1  1  0  0  0
 15 21  1  0  0  0  0
 15 24  1  0  0  0  0
 16 15  2  0  0  0  0
 17 20  2  0  0  0  0
 17 16  1  0  0  0  0
 18  4  1  6  0  0  0
 18 14  1  0  0  0  0
 19 21  2  0  0  0  0
 20 19  1  0  0  0  0
 22 23  1  1  0  0  0
 22 18  1  0  0  0  0
 22 14  1  0  0  0  0
 23 13  1  0  0  0  0
 24 26  1  0  0  0  0
 25 26  1  0  0  0  0
 27  8  1  0  0  0  0
 27 29  1  0  0  0  0
 28 27  1  0  0  0  0
 28 29  1  0  0  0  0
 31 30  1  0  0  0  0
 32 31  2  0  0  0  0
 33 34  1  0  0  0  0
M  END
>  <MODEL>
8

>  <REMARK>
 VINA RESULT:      -3.7      3.009      7.801
  Name = 
  6 active torsions:
  status: ('A' for Active; 'I' for Inactive)
    1  A    between atoms: C_3  and  C_25
    2  A    between atoms: N_5  and  C_19
    3  A    between atoms: C_7  and  O_11
    4  A    between atoms: C_8  and  C_18
    5  A    between atoms: O_11  and  C_21
    6  A    between atoms: C_12  and  C_20
                            x       y       z     vdW  Elec       q    Type
                         _______ _______ _______ _____ _____    ______ ____

>  <TORSDO>
F 6

$$$$
=
 OpenBabel10262423333D

 34 40  0  0  1  0  0  0  0  0999 V2000
  189.5830  174.8760  135.9690 C   0  0  2  0  0  0  0  0  0  0  0  0
  187.0870  176.8510  137.5850 C   0  0  0  0  0  3  0  0  0  0  0  0
  189.6030  176.5480  137.6820 N   0  0  0  0  0  0  0  0  0  0  0  0
  189.4470  173.3690  136.1980 C   0  0  2  0  0  3  0  0  0  0  0  0
  190.1140  173.9110  134.9320 C   0  0  0  0  0  2  0  0  0  0  0  0
  190.4470  175.5420  137.0160 C   0  0  2  0  0  3  0  0  0  0  0  0
  185.9120  177.0660  136.9930 C   0  0  0  0  0  3  0  0  0  0  0  0
  185.6660  177.1770  135.5350 C   0  0  0  0  0  0  0  0  0  0  0  0
  186.3490  176.5020  134.5950 C   0  0  0  0  0  3  0  0  0  0  0  0
  188.3870  176.7470  136.8390 C   0  0  1  0  0  3  0  0  0  0  0  0
  187.5300  175.6380  134.7730 C   0  0  0  0  0  3  0  0  0  0  0  0
  188.3600  175.6810  135.8140 C   0  0  0  0  0  0  0  0  0  0  0  0
  185.6940  170.3610  135.7510 C   0  0  0  0  0  2  0  0  0  0  0  0
  187.3920  172.3380  137.1020 C   0  0  1  0  0  3  0  0  0  0  0  0
  183.1280  172.9460  136.8200 C   0  0  0  0  0  0  0  0  0  0  0  0
  183.7090  171.7990  136.2520 C   0  0  0  0  0  3  0  0  0  0  0  0
  185.0890  171.5950  136.3300 C   0  0  0  0  0  0  0  0  0  0  0  0
  188.0740  172.8200  135.8390 C   0  0  2  0  0  3  0  0  0  0  0  0
  185.3230  173.6710  137.5580 C   0  0  0  0  0  3  0  0  0  0  0  0
  185.9030  172.5330  136.9880 C   0  0  0  0  0  0  0  0  0  0  0  0
  183.9430  173.8770  137.4740 C   0  0  0  0  0  3  0  0  0  0  0  0
  188.0080  171.3290  136.1140 C   0  0  2  0  0  3  0  0  0  0  0  0
  187.0320  170.7020  135.1080 C   0  0  0  0  0  2  0  0  0  0  0  0
  181.7500  173.1730  136.7620 O   0  0  0  0  0  0  0  0  0  0  0  0
  180.3730  174.1390  138.4700 C   0  0  0  0  0  1  0  0  0  0  0  0
  181.1540  174.3870  137.1980 C   0  0  0  0  0  2  0  0  0  0  0  0
  184.4240  177.8970  135.1020 C   0  0  0  0  0  3  0  0  0  0  0  0
  183.3870  176.9080  134.5940 C   0  0  0  0  0  2  0  0  0  0  0  0
  183.2430  177.5030  135.9760 C   0  0  0  0  0  2  0  0  0  0  0  0
  192.9900  176.1450  137.1050 C   0  0  0  0  0  1  0  0  0  0  0  0
  191.6630  176.1940  136.4180 C   0  0  0  0  0  0  0  0  0  0  0  0
  191.5680  176.7550  135.3390 O   0  0  0  0  0  0  0  0  0  0  0  0
  189.3010  176.0030  139.0040 C   0  0  0  0  0  2  0  0  0  0  0  0
  190.4570  176.0110  139.7840 O   0  0  0  0  0  1  0  0  0  0  0  0
  1  5  1  6  0  0  0
  1  4  1  0  0  0  0
  1  6  1  0  0  0  0
  3 33  1  0  0  0  0
  4  5  1  6  0  0  0
  6 31  1  6  0  0  0
  6  3  1  0  0  0  0
  7  2  2  0  0  0  0
  8  7  1  0  0  0  0
  9 11  1  0  0  0  0
  9  8  2  0  0  0  0
 10  2  1  1  0  0  0
 10  3  1  0  0  0  0
 11 12  2  0  0  0  0
 12  1  1  0  0  0  0
 12 10  1  0  0  0  0
 13 17  1  0  0  0  0
 14 20  1  6  0  0  0
 15 21  1  0  0  0  0
 16 17  1  0  0  0  0
 16 15  2  0  0  0  0
 17 20  2  0  0  0  0
 18 22  1  0  0  0  0
 18  4  1  1  0  0  0
 18 14  1  0  0  0  0
 20 19  1  0  0  0  0
 21 19  2  0  0  0  0
 22 23  1  6  0  0  0
 22 14  1  0  0  0  0
 23 13  1  0  0  0  0
 24 15  1  0  0  0  0
 24 26  1  0  0  0  0
 26 25  1  0  0  0  0
 27  8  1  0  0  0  0
 27 29  1  0  0  0  0
 28 27  1  0  0  0  0
 28 29  1  0  0  0  0
 31 30  1  0  0  0  0
 32 31  2  0  0  0  0
 33 34  1  0  0  0  0
M  END
>  <MODEL>
9

>  <REMARK>
 VINA RESULT:      -3.4      2.251      3.355
  Name = 
  6 active torsions:
  status: ('A' for Active; 'I' for Inactive)
    1  A    between atoms: C_3  and  C_25
    2  A    between atoms: N_5  and  C_19
    3  A    between atoms: C_7  and  O_11
    4  A    between atoms: C_8  and  C_18
    5  A    between atoms: O_11  and  C_21
    6  A    between atoms: C_12  and  C_20
                            x       y       z     vdW  Elec       q    Type
                         _______ _______ _______ _____ _____    ______ ____

>  <TORSDO>
F 6

$$$$
