=
 OpenBabel10262421213D

 32 38  0  0  0  0  0  0  0  0999 V2000
  188.0680  177.9170  136.4490 N   0  0  0  0  0  0  0  0  0  0  0  0
  187.9800  177.9770  141.5560 C   0  0  0  0  0  0  0  0  0  0  0  0
  183.6610  178.7190  143.3740 C   0  0  0  0  0  0  0  0  0  0  0  0
  182.3640  178.9420  143.9120 N   0  0  0  0  0  1  0  0  0  0  0  0
  189.5230  177.5490  143.5050 C   0  0  0  0  0  0  0  0  0  0  0  0
  189.6520  177.4460  144.8880 C   0  0  0  0  0  0  0  0  0  0  0  0
  188.7140  177.9850  139.2340 C   0  0  0  0  0  0  0  0  0  0  0  0
  186.4210  178.3890  139.7580 N   0  0  0  0  0  0  0  0  0  0  0  0
  189.1470  177.4080  147.0450 C   0  0  0  0  0  0  0  0  0  0  0  0
  187.0650  178.4620  137.3730 C   0  0  0  0  0  2  0  0  0  0  0  0
  184.0170  178.7460  141.7250 S   0  0  0  0  0  0  0  0  0  0  0  0
  186.6690  178.2610  141.0890 C   0  0  0  0  0  0  0  0  0  0  0  0
  185.6420  178.4100  142.0130 C   0  0  0  0  0  0  0  0  0  0  0  0
  187.1260  178.0060  143.8780 C   0  0  0  0  0  0  0  0  0  0  0  0
  190.5290  177.0900  146.8750 N   0  0  0  0  0  0  0  0  0  0  0  0
  189.4270  178.3050  136.8560 C   0  0  0  0  0  2  0  0  0  0  0  0
  187.3980  178.2440  138.8260 C   0  0  0  0  0  0  0  0  0  0  0  0
  190.8250  177.1250  145.6340 N   0  0  0  0  0  0  0  0  0  0  0  0
  189.8050  177.7570  138.2360 C   0  0  0  0  0  2  0  0  0  0  0  0
  184.7410  178.4600  144.1440 N   0  0  0  0  0  0  0  0  0  0  0  0
  185.8510  178.2870  143.3760 C   0  0  0  0  0  0  0  0  0  0  0  0
  187.3140  177.8850  145.2680 C   0  0  0  0  0  3  0  0  0  0  0  0
  188.9880  177.8390  140.5920 C   0  0  0  0  0  3  0  0  0  0  0  0
  190.6780  177.3500  142.6920 N   0  0  0  0  0  1  0  0  0  0  0  0
  188.3050  177.1290  148.4180 S   0  0  0  0  0  0  0  0  0  0  0  0
  188.2310  177.8420  142.9620 C   0  0  0  0  0  0  0  0  0  0  0  0
  188.5920  177.6120  145.7260 C   0  0  0  0  0  0  0  0  0  0  0  0
  187.9360  176.4640  136.3820 C   0  0  0  0  0  2  0  0  0  0  0  0
  186.5210  176.0910  135.9850 C   0  0  0  0  0  2  0  0  0  0  0  0
  186.0000  175.1080  136.9160 N   0  0  0  0  0  0  0  0  0  0  0  0
  184.6180  175.5100  137.2190 C   0  0  0  0  0  2  0  0  0  0  0  0
  184.8670  174.4560  136.2450 C   0  0  0  0  0  2  0  0  0  0  0  0
  1 16  1  0  0  0  0
  1 10  1  0  0  0  0
  2 26  1  0  0  0  0
  3  4  1  0  0  0  0
  3 20  2  0  0  0  0
  5  6  1  0  0  0  0
  6 18  1  0  0  0  0
  6 27  2  0  0  0  0
  7 23  1  0  0  0  0
  8 12  2  0  0  0  0
  9 25  2  0  0  0  0
 10 17  1  0  0  0  0
 11 13  1  0  0  0  0
 11  3  1  0  0  0  0
 12  2  1  0  0  0  0
 12 13  1  0  0  0  0
 13 21  2  0  0  0  0
 14 22  2  0  0  0  0
 15  9  1  0  0  0  0
 16 19  1  0  0  0  0
 17  7  2  0  0  0  0
 17  8  1  0  0  0  0
 18 15  2  0  0  0  0
 19  7  1  0  0  0  0
 21 14  1  0  0  0  0
 21 20  1  0  0  0  0
 22 27  1  0  0  0  0
 23  2  2  0  0  0  0
 24  5  1  0  0  0  0
 26  5  2  0  0  0  0
 26 14  1  0  0  0  0
 27  9  1  0  0  0  0
 28  1  1  0  0  0  0
 29 28  1  0  0  0  0
 29 30  1  0  0  0  0
 30 31  1  0  0  0  0
 32 30  1  0  0  0  0
 32 31  1  0  0  0  0
M  END
>  <MODEL>
1

>  <REMARK>
 VINA RESULT:      -9.1      0.000      0.000
  Name = 
  3 active torsions:
  status: ('A' for Active; 'I' for Inactive)
    1  A    between atoms: N_1  and  C_10
    2  A    between atoms: N_2  and  C_24
    3  A    between atoms: C_10  and  C_24
                            x       y       z     vdW  Elec       q    Type
                         _______ _______ _______ _____ _____    ______ ____

>  <TORSDO>
F 3

$$$$
=
 OpenBabel10262421213D

 32 38  0  0  0  0  0  0  0  0999 V2000
  181.7490  179.8440  138.4270 N   0  0  0  0  0  0  0  0  0  0  0  0
  185.3230  178.4670  141.8070 C   0  0  0  0  0  0  0  0  0  0  0  0
  189.5850  177.7080  139.8650 C   0  0  0  0  0  0  0  0  0  0  0  0
  190.8590  177.4810  139.2760 N   0  0  0  0  0  1  0  0  0  0  0  0
  185.6080  178.2190  144.3010 C   0  0  0  0  0  0  0  0  0  0  0  0
  186.4800  177.9450  145.3520 C   0  0  0  0  0  0  0  0  0  0  0  0
  183.1970  178.9910  140.7410 C   0  0  0  0  0  0  0  0  0  0  0  0
  185.1550  178.6930  139.4080 N   0  0  0  0  0  0  0  0  0  0  0  0
  188.3320  177.4710  146.4730 C   0  0  0  0  0  0  0  0  0  0  0  0
  183.0430  179.1800  138.2210 C   0  0  0  0  0  2  0  0  0  0  0  0
  188.1910  178.0750  138.9880 S   0  0  0  0  0  0  0  0  0  0  0  0
  185.9080  178.4450  140.5130 C   0  0  0  0  0  0  0  0  0  0  0  0
  187.2640  178.1630  140.3910 C   0  0  0  0  0  0  0  0  0  0  0  0
  187.5310  177.9190  142.7820 C   0  0  0  0  0  0  0  0  0  0  0  0
  187.2610  177.6840  147.3940 N   0  0  0  0  0  0  0  0  0  0  0  0
  181.0130  179.2320  139.5420 C   0  0  0  0  0  2  0  0  0  0  0  0
  183.8300  178.9790  139.4890 C   0  0  0  0  0  0  0  0  0  0  0  0
  186.1900  177.9440  146.7490 N   0  0  0  0  0  0  0  0  0  0  0  0
  181.7540  179.3620  140.8770 C   0  0  0  0  0  2  0  0  0  0  0  0
  189.3700  177.6490  141.1980 N   0  0  0  0  0  0  0  0  0  0  0  0
  188.0660  177.9060  141.4900 C   0  0  0  0  0  0  0  0  0  0  0  0
  188.3670  177.6560  143.8830 C   0  0  0  0  0  3  0  0  0  0  0  0
  183.9530  178.7510  141.8870 C   0  0  0  0  0  3  0  0  0  0  0  0
  184.2440  178.5080  144.6000 N   0  0  0  0  0  1  0  0  0  0  0  0
  189.9110  177.4640  146.8920 S   0  0  0  0  0  0  0  0  0  0  0  0
  186.1270  178.2060  142.9660 C   0  0  0  0  0  0  0  0  0  0  0  0
  187.7980  177.6730  145.1450 C   0  0  0  0  0  0  0  0  0  0  0  0
  181.9620  181.2710  138.6600 C   0  0  0  0  0  2  0  0  0  0  0  0
  181.0150  182.0820  137.7970 C   0  0  0  0  0  2  0  0  0  0  0  0
  181.5140  183.4390  137.6760 N   0  0  0  0  0  0  0  0  0  0  0  0
  181.0120  183.9560  136.3930 C   0  0  0  0  0  2  0  0  0  0  0  0
  180.3350  184.3160  137.6310 C   0  0  0  0  0  2  0  0  0  0  0  0
  1 28  1  0  0  0  0
  1 16  1  0  0  0  0
  2 23  1  0  0  0  0
  2 26  1  0  0  0  0
  3 20  2  0  0  0  0
  4  3  1  0  0  0  0
  5 24  1  0  0  0  0
  5  6  1  0  0  0  0
  6 18  1  0  0  0  0
  7 19  1  0  0  0  0
  7 23  2  0  0  0  0
  8 17  2  0  0  0  0
  8 12  1  0  0  0  0
  9 25  2  0  0  0  0
  9 15  1  0  0  0  0
 10  1  1  0  0  0  0
 10 17  1  0  0  0  0
 11  3  1  0  0  0  0
 11 13  1  0  0  0  0
 12  2  2  0  0  0  0
 13 12  1  0  0  0  0
 13 21  2  0  0  0  0
 14 26  1  0  0  0  0
 14 22  2  0  0  0  0
 16 19  1  0  0  0  0
 17  7  1  0  0  0  0
 18 15  2  0  0  0  0
 20 21  1  0  0  0  0
 21 14  1  0  0  0  0
 22 27  1  0  0  0  0
 26  5  2  0  0  0  0
 27  6  2  0  0  0  0
 27  9  1  0  0  0  0
 29 28  1  0  0  0  0
 30 29  1  0  0  0  0
 31 32  1  0  0  0  0
 31 30  1  0  0  0  0
 32 30  1  0  0  0  0
M  END
>  <MODEL>
2

>  <REMARK>
 VINA RESULT:      -8.7      3.744      5.783
  Name = 
  3 active torsions:
  status: ('A' for Active; 'I' for Inactive)
    1  A    between atoms: N_1  and  C_10
    2  A    between atoms: N_2  and  C_24
    3  A    between atoms: C_10  and  C_24
                            x       y       z     vdW  Elec       q    Type
                         _______ _______ _______ _____ _____    ______ ____

>  <TORSDO>
F 3

$$$$
=
 OpenBabel10262421213D

 32 38  0  0  0  0  0  0  0  0999 V2000
  190.4270  176.3650  136.8570 N   0  0  0  0  0  0  0  0  0  0  0  0
  189.3570  177.2800  141.7680 C   0  0  0  0  0  0  0  0  0  0  0  0
  184.9240  178.8070  142.4950 C   0  0  0  0  0  0  0  0  0  0  0  0
  183.5940  179.2640  142.7060 N   0  0  0  0  0  1  0  0  0  0  0  0
  190.4120  177.0060  144.0420 C   0  0  0  0  0  0  0  0  0  0  0  0
  190.2530  177.1200  145.4210 C   0  0  0  0  0  0  0  0  0  0  0  0
  190.5220  176.8180  139.6790 C   0  0  0  0  0  0  0  0  0  0  0  0
  188.2550  177.5660  139.6370 N   0  0  0  0  0  0  0  0  0  0  0  0
  189.3390  177.4980  147.4040 C   0  0  0  0  0  0  0  0  0  0  0  0
  189.3540  177.1670  137.4600 C   0  0  0  0  0  2  0  0  0  0  0  0
  185.5940  178.5190  140.9740 S   0  0  0  0  0  0  0  0  0  0  0  0
  188.2180  177.6320  140.9950 C   0  0  0  0  0  0  0  0  0  0  0  0
  187.0650  178.0500  141.6480 C   0  0  0  0  0  0  0  0  0  0  0  0
  188.0820  177.7920  143.8260 C   0  0  0  0  0  0  0  0  0  0  0  0
  190.6650  176.9990  147.5800 N   0  0  0  0  0  0  0  0  0  0  0  0
  191.7220  176.6560  137.4880 C   0  0  0  0  0  2  0  0  0  0  0  0
  189.3620  177.1560  138.9660 C   0  0  0  0  0  0  0  0  0  0  0  0
  191.1990  176.7930  146.4390 N   0  0  0  0  0  0  0  0  0  0  0  0
  191.7400  176.3040  138.9800 C   0  0  0  0  0  2  0  0  0  0  0  0
  185.7850  178.5560  143.5080 N   0  0  0  0  0  0  0  0  0  0  0  0
  186.9850  178.1310  143.0270 C   0  0  0  0  0  0  0  0  0  0  0  0
  187.9760  177.8820  145.2260 C   0  0  0  0  0  3  0  0  0  0  0  0
  190.5020  176.8690  141.0710 C   0  0  0  0  0  3  0  0  0  0  0  0
  191.6610  176.5430  143.5320 N   0  0  0  0  0  1  0  0  0  0  0  0
  188.2140  177.5490  148.5890 S   0  0  0  0  0  0  0  0  0  0  0  0
  189.3070  177.3520  143.1990 C   0  0  0  0  0  0  0  0  0  0  0  0
  189.0860  177.5430  145.9810 C   0  0  0  0  0  0  0  0  0  0  0  0
  190.0980  174.9460  136.9650 C   0  0  0  0  0  2  0  0  0  0  0  0
  188.6830  174.7040  136.4730 C   0  0  0  0  0  2  0  0  0  0  0  0
  188.3510  173.3000  136.6290 N   0  0  0  0  0  0  0  0  0  0  0  0
  187.5480  172.9290  135.4540 C   0  0  0  0  0  2  0  0  0  0  0  0
  188.9660  172.5970  135.4940 C   0  0  0  0  0  2  0  0  0  0  0  0
  1 28  1  0  0  0  0
  1 10  1  0  0  0  0
  1 16  1  0  0  0  0
  2 26  1  0  0  0  0
  3  4  1  0  0  0  0
  3 20  2  0  0  0  0
  5  6  1  0  0  0  0
  6 27  2  0  0  0  0
  6 18  1  0  0  0  0
  7 23  2  0  0  0  0
  8 12  1  0  0  0  0
  9 15  1  0  0  0  0
  9 25  2  0  0  0  0
 10 17  1  0  0  0  0
 11 13  1  0  0  0  0
 11  3  1  0  0  0  0
 12 13  1  0  0  0  0
 12  2  2  0  0  0  0
 13 21  2  0  0  0  0
 14 22  2  0  0  0  0
 16 19  1  0  0  0  0
 17  8  2  0  0  0  0
 17  7  1  0  0  0  0
 18 15  2  0  0  0  0
 19  7  1  0  0  0  0
 21 20  1  0  0  0  0
 21 14  1  0  0  0  0
 22 27  1  0  0  0  0
 23  2  1  0  0  0  0
 24  5  1  0  0  0  0
 26 14  1  0  0  0  0
 26  5  2  0  0  0  0
 27  9  1  0  0  0  0
 29 30  1  0  0  0  0
 29 28  1  0  0  0  0
 31 32  1  0  0  0  0
 31 30  1  0  0  0  0
 32 30  1  0  0  0  0
M  END
>  <MODEL>
3

>  <REMARK>
 VINA RESULT:      -8.5      1.768      2.076
  Name = 
  3 active torsions:
  status: ('A' for Active; 'I' for Inactive)
    1  A    between atoms: N_1  and  C_10
    2  A    between atoms: N_2  and  C_24
    3  A    between atoms: C_10  and  C_24
                            x       y       z     vdW  Elec       q    Type
                         _______ _______ _______ _____ _____    ______ ____

>  <TORSDO>
F 3

$$$$
=
 OpenBabel10262421213D

 32 38  0  0  0  0  0  0  0  0999 V2000
  180.0040  179.0370  142.2890 N   0  0  0  0  0  0  0  0  0  0  0  0
  185.0850  178.5260  142.4120 C   0  0  0  0  0  0  0  0  0  0  0  0
  186.8330  177.9610  146.7870 C   0  0  0  0  0  0  0  0  0  0  0  0
  187.3500  177.7920  148.1000 N   0  0  0  0  0  1  0  0  0  0  0  0
  187.0270  178.2920  140.8190 C   0  0  0  0  0  0  0  0  0  0  0  0
  188.3960  178.0790  140.6750 C   0  0  0  0  0  0  0  0  0  0  0  0
  182.7990  178.9660  141.6930 C   0  0  0  0  0  0  0  0  0  0  0  0
  183.2900  178.7230  144.0170 N   0  0  0  0  0  0  0  0  0  0  0  0
  190.5200  177.6830  141.1630 C   0  0  0  0  0  0  0  0  0  0  0  0
  180.9470  179.2100  143.4010 C   0  0  0  0  0  2  0  0  0  0  0  0
  185.2070  178.2530  146.4410 S   0  0  0  0  0  0  0  0  0  0  0  0
  184.6080  178.5200  143.7500 C   0  0  0  0  0  0  0  0  0  0  0  0
  185.5100  178.3060  144.7850 C   0  0  0  0  0  0  0  0  0  0  0  0
  187.3700  178.0910  143.2560 C   0  0  0  0  0  0  0  0  0  0  0  0
  190.3620  177.7430  139.7450 N   0  0  0  0  0  0  0  0  0  0  0  0
  180.4900  179.7080  141.0740 C   0  0  0  0  0  2  0  0  0  0  0  0
  182.3790  178.9280  143.0310 C   0  0  0  0  0  0  0  0  0  0  0  0
  189.1410  177.9840  139.4620 N   0  0  0  0  0  0  0  0  0  0  0  0
  181.8190  179.1280  140.5760 C   0  0  0  0  0  2  0  0  0  0  0  0
  187.6060  177.9010  145.6790 N   0  0  0  0  0  0  0  0  0  0  0  0
  186.8590  178.0950  144.5580 C   0  0  0  0  0  0  0  0  0  0  0  0
  188.7450  177.8730  143.0500 C   0  0  0  0  0  3  0  0  0  0  0  0
  184.1440  178.7490  141.3970 C   0  0  0  0  0  3  0  0  0  0  0  0
  186.2350  178.4780  139.6480 N   0  0  0  0  0  1  0  0  0  0  0  0
  191.8300  177.0570  141.9130 S   0  0  0  0  0  0  0  0  0  0  0  0
  186.4770  178.3090  142.1420 C   0  0  0  0  0  0  0  0  0  0  0  0
  189.2130  177.8820  141.7470 C   0  0  0  0  0  0  0  0  0  0  0  0
  179.7840  177.6130  142.0480 C   0  0  0  0  0  2  0  0  0  0  0  0
  178.9330  177.4230  140.8080 C   0  0  0  0  0  2  0  0  0  0  0  0
  178.9890  176.0350  140.3900 N   0  0  0  0  0  0  0  0  0  0  0  0
  179.2460  176.0450  138.9410 C   0  0  0  0  0  2  0  0  0  0  0  0
  180.3450  175.8110  139.8680 C   0  0  0  0  0  2  0  0  0  0  0  0
  1 10  1  0  0  0  0
  2 12  1  0  0  0  0
  3  4  1  0  0  0  0
  5 26  1  0  0  0  0
  6  5  2  0  0  0  0
  6 27  1  0  0  0  0
  7 17  1  0  0  0  0
  9 27  1  0  0  0  0
  9 25  2  0  0  0  0
 11  3  1  0  0  0  0
 12  8  1  0  0  0  0
 12 13  2  0  0  0  0
 13 11  1  0  0  0  0
 14 21  2  0  0  0  0
 15  9  1  0  0  0  0
 16  1  1  0  0  0  0
 17 10  1  0  0  0  0
 17  8  2  0  0  0  0
 18 15  2  0  0  0  0
 18  6  1  0  0  0  0
 19 16  1  0  0  0  0
 19  7  1  0  0  0  0
 20  3  2  0  0  0  0
 21 13  1  0  0  0  0
 21 20  1  0  0  0  0
 22 14  1  0  0  0  0
 23  7  2  0  0  0  0
 23  2  1  0  0  0  0
 24  5  1  0  0  0  0
 26  2  2  0  0  0  0
 26 14  1  0  0  0  0
 27 22  2  0  0  0  0
 28  1  1  0  0  0  0
 29 28  1  0  0  0  0
 30 29  1  0  0  0  0
 31 32  1  0  0  0  0
 31 30  1  0  0  0  0
 32 30  1  0  0  0  0
M  END
>  <MODEL>
4

>  <REMARK>
 VINA RESULT:      -8.2      3.126      6.133
  Name = 
  3 active torsions:
  status: ('A' for Active; 'I' for Inactive)
    1  A    between atoms: N_1  and  C_10
    2  A    between atoms: N_2  and  C_24
    3  A    between atoms: C_10  and  C_24
                            x       y       z     vdW  Elec       q    Type
                         _______ _______ _______ _____ _____    ______ ____

>  <TORSDO>
F 3

$$$$
=
 OpenBabel10262421213D

 32 38  0  0  0  0  0  0  0  0999 V2000
  189.3930  177.6840  147.2650 N   0  0  0  0  0  0  0  0  0  0  0  0
  185.7330  178.4910  143.7940 C   0  0  0  0  0  0  0  0  0  0  0  0
  187.3010  178.3860  139.3170 C   0  0  0  0  0  0  0  0  0  0  0  0
  187.7770  178.3540  137.9780 N   0  0  0  0  0  1  0  0  0  0  0  0
  183.2280  178.7660  143.6790 C   0  0  0  0  0  0  0  0  0  0  0  0
  182.1080  178.9100  142.8630 C   0  0  0  0  0  0  0  0  0  0  0  0
  186.9750  178.3330  145.8840 C   0  0  0  0  0  0  0  0  0  0  0  0
  188.1330  178.2200  143.7990 N   0  0  0  0  0  0  0  0  0  0  0  0
  180.8350  179.0720  141.0560 C   0  0  0  0  0  0  0  0  0  0  0  0
  189.4940  178.0910  145.8570 C   0  0  0  0  0  2  0  0  0  0  0  0
  188.2910  178.2530  140.6770 S   0  0  0  0  0  0  0  0  0  0  0  0
  186.9690  178.3610  143.1090 C   0  0  0  0  0  0  0  0  0  0  0  0
  186.9750  178.3840  141.7190 C   0  0  0  0  0  0  0  0  0  0  0  0
  184.5750  178.6550  141.6130 C   0  0  0  0  0  0  0  0  0  0  0  0
  180.0100  179.0910  142.2220 N   0  0  0  0  0  0  0  0  0  0  0  0
  188.3590  178.4590  147.9650 C   0  0  0  0  0  2  0  0  0  0  0  0
  188.1650  178.1860  145.1560 C   0  0  0  0  0  0  0  0  0  0  0  0
  180.7420  179.0110  143.2640 N   0  0  0  0  0  0  0  0  0  0  0  0
  186.9610  178.2390  147.3760 C   0  0  0  0  0  2  0  0  0  0  0  0
  185.9930  178.5280  139.6290 N   0  0  0  0  0  0  0  0  0  0  0  0
  185.8140  178.5260  140.9780 C   0  0  0  0  0  0  0  0  0  0  0  0
  183.4090  178.7970  140.8380 C   0  0  0  0  0  3  0  0  0  0  0  0
  185.7700  178.4680  145.1950 C   0  0  0  0  0  3  0  0  0  0  0  0
  183.0470  178.7440  145.0940 N   0  0  0  0  0  1  0  0  0  0  0  0
  180.2780  178.8010  139.5440 S   0  0  0  0  0  0  0  0  0  0  0  0
  184.5110  178.6380  143.0560 C   0  0  0  0  0  0  0  0  0  0  0  0
  182.2020  178.9270  141.5040 C   0  0  0  0  0  0  0  0  0  0  0  0
  189.1170  176.2510  147.3420 C   0  0  0  0  0  2  0  0  0  0  0  0
  190.3810  175.5010  147.7180 C   0  0  0  0  0  2  0  0  0  0  0  0
  191.5330  176.3570  147.5030 N   0  0  0  0  0  0  0  0  0  0  0  0
  192.6980  175.6280  148.0270 C   0  0  0  0  0  2  0  0  0  0  0  0
  192.4310  175.6280  146.5950 C   0  0  0  0  0  2  0  0  0  0  0  0
  1 28  1  0  0  0  0
  1 16  1  0  0  0  0
  2 23  2  0  0  0  0
  3 20  2  0  0  0  0
  3 11  1  0  0  0  0
  4  3  1  0  0  0  0
  5 24  1  0  0  0  0
  6 18  1  0  0  0  0
  6  5  2  0  0  0  0
  7 19  1  0  0  0  0
  8 17  1  0  0  0  0
  9 27  1  0  0  0  0
  9 15  1  0  0  0  0
 10  1  1  0  0  0  0
 11 13  1  0  0  0  0
 12  2  1  0  0  0  0
 12  8  2  0  0  0  0
 13 12  1  0  0  0  0
 14 26  2  0  0  0  0
 15 18  2  0  0  0  0
 17 10  1  0  0  0  0
 17  7  2  0  0  0  0
 19 16  1  0  0  0  0
 20 21  1  0  0  0  0
 21 14  1  0  0  0  0
 21 13  2  0  0  0  0
 22 27  2  0  0  0  0
 22 14  1  0  0  0  0
 23  7  1  0  0  0  0
 25  9  2  0  0  0  0
 26  5  1  0  0  0  0
 26  2  1  0  0  0  0
 27  6  1  0  0  0  0
 28 29  1  0  0  0  0
 30 29  1  0  0  0  0
 30 31  1  0  0  0  0
 32 30  1  0  0  0  0
 32 31  1  0  0  0  0
M  END
>  <MODEL>
5

>  <REMARK>
 VINA RESULT:      -8.0      2.757      8.425
  Name = 
  3 active torsions:
  status: ('A' for Active; 'I' for Inactive)
    1  A    between atoms: N_1  and  C_10
    2  A    between atoms: N_2  and  C_24
    3  A    between atoms: C_10  and  C_24
                            x       y       z     vdW  Elec       q    Type
                         _______ _______ _______ _____ _____    ______ ____

>  <TORSDO>
F 3

$$$$
=
 OpenBabel10262421213D

 32 38  0  0  0  0  0  0  0  0999 V2000
  180.3480  179.1310  138.8760 N   0  0  0  0  0  0  0  0  0  0  0  0
  184.9880  178.6130  140.9480 C   0  0  0  0  0  0  0  0  0  0  0  0
  184.9550  178.5460  145.6920 C   0  0  0  0  0  0  0  0  0  0  0  0
  184.9380  178.5280  147.1140 N   0  0  0  0  0  1  0  0  0  0  0  0
  187.3700  178.1880  140.2340 C   0  0  0  0  0  0  0  0  0  0  0  0
  188.6820  177.9530  140.6360 C   0  0  0  0  0  0  0  0  0  0  0  0
  183.1580  178.9790  139.3830 C   0  0  0  0  0  0  0  0  0  0  0  0
  182.7370  179.0020  141.7320 N   0  0  0  0  0  0  0  0  0  0  0  0
  190.4520  177.6060  141.9240 C   0  0  0  0  0  0  0  0  0  0  0  0
  180.8170  179.4260  140.2360 C   0  0  0  0  0  2  0  0  0  0  0  0
  183.5900  178.8050  144.7340 S   0  0  0  0  0  0  0  0  0  0  0  0
  184.0480  178.7630  142.0020 C   0  0  0  0  0  0  0  0  0  0  0  0
  184.4900  178.6660  143.3170 C   0  0  0  0  0  0  0  0  0  0  0  0
  186.7720  178.2670  142.6280 C   0  0  0  0  0  0  0  0  0  0  0  0
  190.8350  177.5030  140.5520 N   0  0  0  0  0  0  0  0  0  0  0  0
  181.2830  179.6550  137.8690 C   0  0  0  0  0  2  0  0  0  0  0  0
  182.2690  179.0970  140.4610 C   0  0  0  0  0  0  0  0  0  0  0  0
  189.8200  177.7160  139.8090 N   0  0  0  0  0  0  0  0  0  0  0  0
  182.6720  179.0150  137.9690 C   0  0  0  0  0  2  0  0  0  0  0  0
  186.0810  178.3560  144.9680 N   0  0  0  0  0  0  0  0  0  0  0  0
  185.8150  178.4230  143.6350 C   0  0  0  0  0  0  0  0  0  0  0  0
  188.1130  178.0200  142.9770 C   0  0  0  0  0  3  0  0  0  0  0  0
  184.5040  178.7220  139.6370 C   0  0  0  0  0  3  0  0  0  0  0  0
  187.0800  178.2420  138.8380 N   0  0  0  0  0  1  0  0  0  0  0  0
  191.3570  177.0650  143.1720 S   0  0  0  0  0  0  0  0  0  0  0  0
  186.3690  178.3590  141.2440 C   0  0  0  0  0  0  0  0  0  0  0  0
  189.0320  177.8770  141.9500 C   0  0  0  0  0  0  0  0  0  0  0  0
  180.1660  177.6890  138.7210 C   0  0  0  0  0  2  0  0  0  0  0  0
  179.4660  177.3940  137.4090 C   0  0  0  0  0  2  0  0  0  0  0  0
  179.6690  176.0020  137.0550 N   0  0  0  0  0  0  0  0  0  0  0  0
  180.1380  175.9900  135.6600 C   0  0  0  0  0  2  0  0  0  0  0  0
  181.0990  175.8540  136.7460 C   0  0  0  0  0  2  0  0  0  0  0  0
  1 10  1  0  0  0  0
  2 26  2  0  0  0  0
  2 12  1  0  0  0  0
  3  4  1  0  0  0  0
  5  6  2  0  0  0  0
  5 26  1  0  0  0  0
  6 27  1  0  0  0  0
  7 23  2  0  0  0  0
  7 17  1  0  0  0  0
  8 12  1  0  0  0  0
  9 27  1  0  0  0  0
  9 25  2  0  0  0  0
 10 17  1  0  0  0  0
 11  3  1  0  0  0  0
 12 13  2  0  0  0  0
 13 21  1  0  0  0  0
 13 11  1  0  0  0  0
 14 22  1  0  0  0  0
 14 21  2  0  0  0  0
 15  9  1  0  0  0  0
 16 19  1  0  0  0  0
 16  1  1  0  0  0  0
 17  8  2  0  0  0  0
 18 15  2  0  0  0  0
 18  6  1  0  0  0  0
 19  7  1  0  0  0  0
 20  3  2  0  0  0  0
 21 20  1  0  0  0  0
 23  2  1  0  0  0  0
 24  5  1  0  0  0  0
 26 14  1  0  0  0  0
 27 22  2  0  0  0  0
 28  1  1  0  0  0  0
 29 28  1  0  0  0  0
 30 29  1  0  0  0  0
 31 32  1  0  0  0  0
 31 30  1  0  0  0  0
 32 30  1  0  0  0  0
M  END
>  <MODEL>
6

>  <REMARK>
 VINA RESULT:      -7.6      3.322      5.088
  Name = 
  3 active torsions:
  status: ('A' for Active; 'I' for Inactive)
    1  A    between atoms: N_1  and  C_10
    2  A    between atoms: N_2  and  C_24
    3  A    between atoms: C_10  and  C_24
                            x       y       z     vdW  Elec       q    Type
                         _______ _______ _______ _____ _____    ______ ____

>  <TORSDO>
F 3

$$$$
=
 OpenBabel10262421213D

 32 38  0  0  0  0  0  0  0  0999 V2000
  191.7380  177.5870  143.4840 N   0  0  0  0  0  0  0  0  0  0  0  0
  187.7690  178.0730  140.3060 C   0  0  0  0  0  0  0  0  0  0  0  0
  188.5430  176.2340  136.0010 C   0  0  0  0  0  0  0  0  0  0  0  0
  188.7820  175.6820  134.7130 N   0  0  0  0  0  1  0  0  0  0  0  0
  185.3690  178.8510  140.3410 C   0  0  0  0  0  0  0  0  0  0  0  0
  184.1760  178.9810  139.6340 C   0  0  0  0  0  0  0  0  0  0  0  0
  189.2850  178.2980  142.2000 C   0  0  0  0  0  0  0  0  0  0  0  0
  190.0490  177.2870  140.1760 N   0  0  0  0  0  0  0  0  0  0  0  0
  182.6770  178.8530  138.0070 C   0  0  0  0  0  0  0  0  0  0  0  0
  191.6810  177.5030  142.0190 C   0  0  0  0  0  2  0  0  0  0  0  0
  189.7010  176.3120  137.2260 S   0  0  0  0  0  0  0  0  0  0  0  0
  188.8340  177.4630  139.5920 C   0  0  0  0  0  0  0  0  0  0  0  0
  188.6170  177.0520  138.2820 C   0  0  0  0  0  0  0  0  0  0  0  0
  186.3200  177.8050  138.3180 C   0  0  0  0  0  0  0  0  0  0  0  0
  182.0690  179.4180  139.1710 N   0  0  0  0  0  0  0  0  0  0  0  0
  190.9880  178.7520  143.9760 C   0  0  0  0  0  2  0  0  0  0  0  0
  190.2950  177.6700  141.4560 C   0  0  0  0  0  0  0  0  0  0  0  0
  182.9350  179.5040  140.1040 N   0  0  0  0  0  0  0  0  0  0  0  0
  189.4970  178.6780  143.6300 C   0  0  0  0  0  2  0  0  0  0  0  0
  187.3510  176.7550  136.3680 N   0  0  0  0  0  0  0  0  0  0  0  0
  187.3960  177.2120  137.6490 C   0  0  0  0  0  0  0  0  0  0  0  0
  185.0890  177.9560  137.6530 C   0  0  0  0  0  3  0  0  0  0  0  0
  188.0290  178.4780  141.6220 C   0  0  0  0  0  3  0  0  0  0  0  0
  185.4200  179.3110  141.6910 N   0  0  0  0  0  1  0  0  0  0  0  0
  181.8420  178.2580  136.7350 S   0  0  0  0  0  0  0  0  0  0  0  0
  186.4900  178.2530  139.6800 C   0  0  0  0  0  0  0  0  0  0  0  0
  184.0500  178.5540  138.3470 C   0  0  0  0  0  0  0  0  0  0  0  0
  191.2250  176.3490  144.0670 C   0  0  0  0  0  2  0  0  0  0  0  0
  190.8500  176.5780  145.5180 C   0  0  0  0  0  2  0  0  0  0  0  0
  192.0550  176.7510  146.3080 N   0  0  0  0  0  0  0  0  0  0  0  0
  191.6410  176.7030  147.7190 C   0  0  0  0  0  2  0  0  0  0  0  0
  192.2200  175.5210  147.0950 C   0  0  0  0  0  2  0  0  0  0  0  0
  1 16  1  0  0  0  0
  1 28  1  0  0  0  0
  2 23  2  0  0  0  0
  3 20  2  0  0  0  0
  3 11  1  0  0  0  0
  4  3  1  0  0  0  0
  5 24  1  0  0  0  0
  6 18  1  0  0  0  0
  6  5  2  0  0  0  0
  7 19  1  0  0  0  0
  8 17  1  0  0  0  0
  9 27  1  0  0  0  0
  9 15  1  0  0  0  0
 10  1  1  0  0  0  0
 11 13  1  0  0  0  0
 12  8  2  0  0  0  0
 12  2  1  0  0  0  0
 13 12  1  0  0  0  0
 14 26  2  0  0  0  0
 15 18  2  0  0  0  0
 17 10  1  0  0  0  0
 17  7  2  0  0  0  0
 19 16  1  0  0  0  0
 20 21  1  0  0  0  0
 21 13  2  0  0  0  0
 21 14  1  0  0  0  0
 22 14  1  0  0  0  0
 22 27  2  0  0  0  0
 23  7  1  0  0  0  0
 25  9  2  0  0  0  0
 26  2  1  0  0  0  0
 26  5  1  0  0  0  0
 27  6  1  0  0  0  0
 28 29  1  0  0  0  0
 29 30  1  0  0  0  0
 30 32  1  0  0  0  0
 30 31  1  0  0  0  0
 32 31  1  0  0  0  0
M  END
>  <MODEL>
7

>  <REMARK>
 VINA RESULT:      -7.5      3.021      8.175
  Name = 
  3 active torsions:
  status: ('A' for Active; 'I' for Inactive)
    1  A    between atoms: N_1  and  C_10
    2  A    between atoms: N_2  and  C_24
    3  A    between atoms: C_10  and  C_24
                            x       y       z     vdW  Elec       q    Type
                         _______ _______ _______ _____ _____    ______ ____

>  <TORSDO>
F 3

$$$$
=
 OpenBabel10262421213D

 32 38  0  0  0  0  0  0  0  0999 V2000
  191.4570  177.4430  144.2060 N   0  0  0  0  0  0  0  0  0  0  0  0
  186.9920  178.3130  141.8810 C   0  0  0  0  0  0  0  0  0  0  0  0
  187.2850  178.3240  137.1460 C   0  0  0  0  0  0  0  0  0  0  0  0
  187.3800  178.3270  135.7270 N   0  0  0  0  0  1  0  0  0  0  0  0
  184.5500  178.5760  142.4570 C   0  0  0  0  0  0  0  0  0  0  0  0
  183.2510  178.7330  141.9800 C   0  0  0  0  0  0  0  0  0  0  0  0
  188.7550  178.1110  143.5500 C   0  0  0  0  0  0  0  0  0  0  0  0
  189.3030  178.0550  141.2270 N   0  0  0  0  0  0  0  0  0  0  0  0
  181.5360  178.9310  140.5910 C   0  0  0  0  0  0  0  0  0  0  0  0
  191.1720  177.8840  142.8340 C   0  0  0  0  0  2  0  0  0  0  0  0
  188.6080  178.1640  138.1810 S   0  0  0  0  0  0  0  0  0  0  0  0
  187.9960  178.2060  140.8820 C   0  0  0  0  0  0  0  0  0  0  0  0
  187.6240  178.2630  139.5450 C   0  0  0  0  0  0  0  0  0  0  0  0
  185.2860  178.5220  140.1010 C   0  0  0  0  0  0  0  0  0  0  0  0
  181.0580  178.9180  141.9370 N   0  0  0  0  0  0  0  0  0  0  0  0
  190.6520  178.1950  145.1800 C   0  0  0  0  0  2  0  0  0  0  0  0
  189.7030  177.9890  142.5240 C   0  0  0  0  0  0  0  0  0  0  0  0
  182.0460  178.8170  142.7390 N   0  0  0  0  0  0  0  0  0  0  0  0
  189.1470  177.9820  144.9870 C   0  0  0  0  0  2  0  0  0  0  0  0
  186.1110  178.4510  137.8040 N   0  0  0  0  0  0  0  0  0  0  0  0
  186.3060  178.4160  139.1500 C   0  0  0  0  0  0  0  0  0  0  0  0
  183.9530  178.6760  139.6760 C   0  0  0  0  0  3  0  0  0  0  0  0
  187.4090  178.2560  143.2180 C   0  0  0  0  0  3  0  0  0  0  0  0
  184.7600  178.5190  143.8670 N   0  0  0  0  0  1  0  0  0  0  0  0
  180.5890  178.6940  139.2810 S   0  0  0  0  0  0  0  0  0  0  0  0
  185.6160  178.4710  141.5070 C   0  0  0  0  0  0  0  0  0  0  0  0
  182.9730  178.7840  140.6480 C   0  0  0  0  0  0  0  0  0  0  0  0
  191.2110  176.0070  144.3210 C   0  0  0  0  0  2  0  0  0  0  0  0
  192.0630  175.4240  145.4310 C   0  0  0  0  0  2  0  0  0  0  0  0
  192.0720  176.3330  146.5620 N   0  0  0  0  0  0  0  0  0  0  0  0
  191.3290  175.6630  147.6420 C   0  0  0  0  0  2  0  0  0  0  0  0
  192.7860  175.6440  147.6470 C   0  0  0  0  0  2  0  0  0  0  0  0
  1 28  1  0  0  0  0
  1 16  1  0  0  0  0
  2 23  1  0  0  0  0
  3 20  2  0  0  0  0
  3 11  1  0  0  0  0
  4  3  1  0  0  0  0
  5 24  1  0  0  0  0
  6  5  1  0  0  0  0
  6 18  1  0  0  0  0
  7 19  1  0  0  0  0
  8 17  2  0  0  0  0
  9 27  1  0  0  0  0
  9 15  1  0  0  0  0
 10  1  1  0  0  0  0
 11 13  1  0  0  0  0
 12  8  1  0  0  0  0
 12  2  2  0  0  0  0
 13 12  1  0  0  0  0
 14 26  1  0  0  0  0
 15 18  2  0  0  0  0
 17 10  1  0  0  0  0
 17  7  1  0  0  0  0
 19 16  1  0  0  0  0
 20 21  1  0  0  0  0
 21 13  2  0  0  0  0
 21 14  1  0  0  0  0
 22 14  2  0  0  0  0
 22 27  1  0  0  0  0
 23  7  2  0  0  0  0
 25  9  2  0  0  0  0
 26  2  1  0  0  0  0
 26  5  2  0  0  0  0
 27  6  2  0  0  0  0
 28 29  1  0  0  0  0
 29 30  1  0  0  0  0
 30 31  1  0  0  0  0
 30 32  1  0  0  0  0
 31 32  1  0  0  0  0
M  END
>  <MODEL>
8

>  <REMARK>
 VINA RESULT:      -7.4      2.686      7.740
  Name = 
  3 active torsions:
  status: ('A' for Active; 'I' for Inactive)
    1  A    between atoms: N_1  and  C_10
    2  A    between atoms: N_2  and  C_24
    3  A    between atoms: C_10  and  C_24
                            x       y       z     vdW  Elec       q    Type
                         _______ _______ _______ _____ _____    ______ ____

>  <TORSDO>
F 3

$$$$
=
 OpenBabel10262421213D

 32 38  0  0  0  0  0  0  0  0999 V2000
  191.7580  176.2350  137.1490 N   0  0  0  0  0  0  0  0  0  0  0  0
  188.7290  177.5460  141.0480 C   0  0  0  0  0  0  0  0  0  0  0  0
  184.4520  179.0920  139.6970 C   0  0  0  0  0  0  0  0  0  0  0  0
  183.1720  179.5550  139.2850 N   0  0  0  0  0  1  0  0  0  0  0  0
  188.7090  177.4690  143.5690 C   0  0  0  0  0  0  0  0  0  0  0  0
  187.9830  177.6970  144.7360 C   0  0  0  0  0  0  0  0  0  0  0  0
  190.6580  176.9220  139.6970 C   0  0  0  0  0  0  0  0  0  0  0  0
  188.6450  177.6450  138.6360 N   0  0  0  0  0  0  0  0  0  0  0  0
  186.3230  178.2300  146.1040 C   0  0  0  0  0  0  0  0  0  0  0  0
  190.5530  177.0760  137.1730 C   0  0  0  0  0  2  0  0  0  0  0  0
  185.6970  178.6850  138.6330 S   0  0  0  0  0  0  0  0  0  0  0  0
  188.0370  177.8240  139.8390 C   0  0  0  0  0  0  0  0  0  0  0  0
  186.7270  178.2850  139.9030 C   0  0  0  0  0  0  0  0  0  0  0  0
  186.7150  178.2170  142.3200 C   0  0  0  0  0  0  0  0  0  0  0  0
  187.4350  177.7580  146.8660 N   0  0  0  0  0  0  0  0  0  0  0  0
  192.6700  176.5880  138.2460 C   0  0  0  0  0  2  0  0  0  0  0  0
  189.9210  177.1900  138.5340 C   0  0  0  0  0  0  0  0  0  0  0  0
  188.3960  177.4630  146.0810 N   0  0  0  0  0  0  0  0  0  0  0  0
  192.0420  176.3610  139.6260 C   0  0  0  0  0  2  0  0  0  0  0  0
  184.7930  178.9340  140.9950 N   0  0  0  0  0  0  0  0  0  0  0  0
  186.0710  178.4800  141.1070 C   0  0  0  0  0  0  0  0  0  0  0  0
  186.0270  178.4220  143.5300 C   0  0  0  0  0  3  0  0  0  0  0  0
  190.0490  177.0880  140.9400 C   0  0  0  0  0  3  0  0  0  0  0  0
  190.0430  176.9760  143.6770 N   0  0  0  0  0  1  0  0  0  0  0  0
  184.8040  178.3710  146.6890 S   0  0  0  0  0  0  0  0  0  0  0  0
  188.0780  177.7370  142.3120 C   0  0  0  0  0  0  0  0  0  0  0  0
  186.7010  178.1560  144.7100 C   0  0  0  0  0  0  0  0  0  0  0  0
  191.3740  174.8280  137.2170 C   0  0  0  0  0  2  0  0  0  0  0  0
  190.4780  174.4780  136.0440 C   0  0  0  0  0  2  0  0  0  0  0  0
  190.2290  173.0490  136.0360 N   0  0  0  0  0  0  0  0  0  0  0  0
  188.7680  172.8800  136.0970 C   0  0  0  0  0  2  0  0  0  0  0  0
  189.4550  172.7670  134.8180 C   0  0  0  0  0  2  0  0  0  0  0  0
  1 10  1  0  0  0  0
  1 28  1  0  0  0  0
  1 16  1  0  0  0  0
  2 26  1  0  0  0  0
  3 20  2  0  0  0  0
  4  3  1  0  0  0  0
  5 24  1  0  0  0  0
  5  6  1  0  0  0  0
  6 18  1  0  0  0  0
  7 23  2  0  0  0  0
  8 12  1  0  0  0  0
  9 25  2  0  0  0  0
  9 15  1  0  0  0  0
 10 17  1  0  0  0  0
 11  3  1  0  0  0  0
 11 13  1  0  0  0  0
 12 13  1  0  0  0  0
 12  2  2  0  0  0  0
 13 21  2  0  0  0  0
 14 22  2  0  0  0  0
 16 19  1  0  0  0  0
 17  8  2  0  0  0  0
 17  7  1  0  0  0  0
 18 15  2  0  0  0  0
 19  7  1  0  0  0  0
 20 21  1  0  0  0  0
 21 14  1  0  0  0  0
 22 27  1  0  0  0  0
 23  2  1  0  0  0  0
 26 14  1  0  0  0  0
 26  5  2  0  0  0  0
 27  6  2  0  0  0  0
 27  9  1  0  0  0  0
 29 28  1  0  0  0  0
 30 29  1  0  0  0  0
 30 31  1  0  0  0  0
 32 30  1  0  0  0  0
 32 31  1  0  0  0  0
M  END
>  <MODEL>
9

>  <REMARK>
 VINA RESULT:      -7.3      2.530      3.161
  Name = 
  3 active torsions:
  status: ('A' for Active; 'I' for Inactive)
    1  A    between atoms: N_1  and  C_10
    2  A    between atoms: N_2  and  C_24
    3  A    between atoms: C_10  and  C_24
                            x       y       z     vdW  Elec       q    Type
                         _______ _______ _______ _____ _____    ______ ____

>  <TORSDO>
F 3

$$$$
