=
 OpenBabel10262422373D

 43 48  0  0  1  0  0  0  0  0999 V2000
  188.4500  177.7520  148.0170 C   0  0  1  0  0  3  0  0  0  0  0  0
  185.8180  178.2940  143.5710 C   0  0  0  0  0  0  0  0  0  0  0  0
  187.7580  178.1690  141.5310 C   0  0  0  0  0  0  0  0  0  0  0  0
  186.5090  177.8850  146.3440 C   0  0  1  0  0  3  0  0  0  0  0  0
  188.9020  176.6420  147.0620 C   0  0  0  0  0  2  0  0  0  0  0  0
  189.2760  178.8530  147.8800 F   0  0  0  0  0  0  0  0  0  0  0  0
  187.6500  178.0820  145.3380 C   0  0  1  0  0  3  0  0  0  0  0  0
  186.9900  178.1650  147.7720 C   0  0  0  0  0  2  0  0  0  0  0  0
  188.7590  177.0440  145.5840 C   0  0  0  0  0  2  0  0  0  0  0  0
  188.1380  178.0710  142.8730 C   0  0  0  0  0  3  0  0  0  0  0  0
  187.1830  178.1020  143.8990 C   0  0  0  0  0  0  0  0  0  0  0  0
  184.7650  178.3310  144.6520 C   0  0  0  0  0  2  0  0  0  0  0  0
  185.4360  178.3840  142.2170 C   0  0  0  0  0  0  0  0  0  0  0  0
  186.4050  178.3220  141.2120 C   0  0  0  0  0  3  0  0  0  0  0  0
  185.3320  178.7760  145.9930 C   0  0  0  0  0  2  0  0  0  0  0  0
  188.7770  178.1190  140.4710 C   0  0  0  0  0  0  0  0  0  0  0  0
  188.7500  178.9560  139.5270 O   0  0  0  0  0  0  0  0  0  0  0  0
  189.7750  177.1420  140.5190 O   0  0  0  0  0  0  0  0  0  0  0  0
  191.0980  177.3950  140.0690 C   0  0  0  0  0  2  0  0  0  0  0  0
  192.9610  176.5120  138.6650 C   0  0  0  0  0  2  0  0  0  0  0  0
  190.6090  176.6820  137.7420 C   0  0  0  0  0  2  0  0  0  0  0  0
  191.6910  174.4650  136.5480 C   0  0  2  0  0  3  0  0  0  0  0  0
  191.4660  176.4100  138.9760 C   0  0  2  0  0  3  0  0  0  0  0  0
  193.3860  175.5290  137.5770 C   0  0  0  0  0  2  0  0  0  0  0  0
  190.6690  175.6130  136.6300 C   0  0  1  0  0  0  0  0  0  0  0  0
  190.2730  174.2210  137.0640 C   0  0  0  0  0  2  0  0  0  0  0  0
  192.5790  174.3870  137.6350 O   0  0  0  0  0  0  0  0  0  0  0  0
  190.0630  175.9540  135.4130 O   0  0  0  0  0  0  0  0  0  0  0  0
  189.6550  177.2000  135.5580 O   0  0  0  0  0  0  0  0  0  0  0  0
  188.3100  177.1830  135.1810 C   0  0  0  0  0  2  0  0  0  0  0  0
  187.5390  178.2820  135.9210 C   0  0  0  0  0  2  0  0  0  0  0  0
  186.1700  178.6750  137.7230 O   0  0  0  0  0  1  0  0  0  0  0  0
  186.8450  176.5360  137.3880 C   0  0  0  0  0  1  0  0  0  0  0  0
  186.4370  177.7760  136.7460 N   0  0  0  0  0  0  0  0  0  0  0  0
  184.0010  178.5360  141.8150 C   0  0  0  0  0  2  0  0  0  0  0  0
  182.4650  179.1650  138.3840 C   0  0  0  0  0  2  0  0  0  0  0  0
  181.2360  178.3220  138.7450 C   0  0  2  0  0  3  0  0  0  0  0  0
  182.9370  177.0310  140.1240 C   0  0  0  0  0  2  0  0  0  0  0  0
  183.2650  179.5310  139.6300 C   0  0  0  0  0  2  0  0  0  0  0  0
  183.8150  178.2740  140.3270 C   0  0  1  0  0  3  0  0  0  0  0  0
  181.4630  177.3990  139.9570 C   0  0  0  0  0  2  0  0  0  0  0  0
  181.8710  177.4890  136.5460 N   0  0  0  0  0  1  0  0  0  0  0  0
  180.8050  177.5170  137.5320 C   0  0  0  0  0  2  0  0  0  0  0  0
  1  6  1  6  0  0  0
  2 11  1  0  0  0  0
  2 12  1  0  0  0  0
  3 10  1  0  0  0  0
  4 15  1  6  0  0  0
  4  8  1  0  0  0  0
  5  1  1  0  0  0  0
  7  9  1  6  0  0  0
  7  4  1  0  0  0  0
  8  1  1  0  0  0  0
  9  5  1  0  0  0  0
 10 11  2  0  0  0  0
 11  7  1  0  0  0  0
 12 15  1  0  0  0  0
 13  2  2  0  0  0  0
 14  3  2  0  0  0  0
 14 13  1  0  0  0  0
 16 18  1  0  0  0  0
 16  3  1  0  0  0  0
 17 16  2  0  0  0  0
 19 18  1  0  0  0  0
 20 23  1  0  0  0  0
 21 23  1  0  0  0  0
 22 25  1  0  0  0  0
 22 26  1  1  0  0  0
 22 27  1  0  0  0  0
 23 19  1  1  0  0  0
 24 27  1  0  0  0  0
 24 20  1  0  0  0  0
 25 28  1  6  0  0  0
 25 26  1  0  0  0  0
 25 21  1  0  0  0  0
 28 29  1  0  0  0  0
 30 29  1  0  0  0  0
 30 31  1  0  0  0  0
 31 34  1  0  0  0  0
 34 33  1  0  0  0  0
 34 32  1  0  0  0  0
 35 13  1  0  0  0  0
 36 37  1  0  0  0  0
 36 39  1  0  0  0  0
 37 43  1  6  0  0  0
 37 41  1  0  0  0  0
 38 40  1  0  0  0  0
 39 40  1  0  0  0  0
 40 35  1  1  0  0  0
 41 38  1  0  0  0  0
 42 43  1  0  0  0  0
M  END
>  <MODEL>
1

>  <REMARK>
 VINA RESULT:      -8.6      0.000      0.000
  Name = 
  12 active torsions:
  status: ('A' for Active; 'I' for Inactive)
    1  A    between atoms: C_1  and  C_34
    2  A    between atoms: C_1  and  C_35
    3  A    between atoms: C_2  and  O_6
    4  A    between atoms: C_2  and  C_13
    5  A    between atoms: O_6  and  C_17
    6  A    between atoms: O_11  and  O_14
    7  A    between atoms: O_11  and  C_36
    8  A    between atoms: C_12  and  C_17
    9  A    between atoms: O_14  and  C_22
   10  A    between atoms: C_19  and  C_37
   11  A    between atoms: N_31  and  C_40
   12  A    between atoms: C_36  and  C_40
                            x       y       z     vdW  Elec       q    Type
                         _______ _______ _______ _____ _____    ______ ____

>  <TORSDO>
F 12

$$$$
=
 OpenBabel10262422373D

 43 48  0  0  1  0  0  0  0  0999 V2000
  188.6330  177.2160  148.2040 C   0  0  1  0  0  3  0  0  0  0  0  0
  188.2810  178.0730  143.0920 C   0  0  0  0  0  0  0  0  0  0  0  0
  185.5210  178.2160  142.5440 C   0  0  0  0  0  0  0  0  0  0  0  0
  189.2760  177.7900  145.7870 C   0  0  1  0  0  3  0  0  0  0  0  0
  187.6640  178.3830  147.9860 C   0  0  0  0  0  2  0  0  0  0  0  0
  187.9320  176.0240  148.2420 F   0  0  0  0  0  0  0  0  0  0  0  0
  187.7770  177.5770  145.5470 C   0  0  1  0  0  3  0  0  0  0  0  0
  189.7110  177.1490  147.1100 C   0  0  0  0  0  2  0  0  0  0  0  0
  186.9570  178.3120  146.6220 C   0  0  0  0  0  2  0  0  0  0  0  0
  185.9700  177.9750  143.8460 C   0  0  0  0  0  3  0  0  0  0  0  0
  187.3400  177.9290  144.1410 C   0  0  0  0  0  0  0  0  0  0  0  0
  189.7630  178.0300  143.3770 C   0  0  0  0  0  2  0  0  0  0  0  0
  187.8260  178.3240  141.7820 C   0  0  0  0  0  0  0  0  0  0  0  0
  186.4560  178.3930  141.5190 C   0  0  0  0  0  3  0  0  0  0  0  0
  190.0850  177.2300  144.6320 C   0  0  0  0  0  2  0  0  0  0  0  0
  184.0780  178.2750  142.2610 C   0  0  0  0  0  0  0  0  0  0  0  0
  183.2980  178.8550  143.0660 O   0  0  0  0  0  0  0  0  0  0  0  0
  183.5800  177.6870  141.0950 O   0  0  0  0  0  0  0  0  0  0  0  0
  183.0000  178.4590  140.0530 C   0  0  0  0  0  2  0  0  0  0  0  0
  182.0900  176.2070  139.4830 C   0  0  0  0  0  2  0  0  0  0  0  0
  183.7260  177.3730  137.9420 C   0  0  0  0  0  2  0  0  0  0  0  0
  182.0650  175.9540  136.2870 C   0  0  2  0  0  3  0  0  0  0  0  0
  182.5670  177.5480  138.9200 C   0  0  2  0  0  3  0  0  0  0  0  0
  181.6300  175.2560  138.3820 C   0  0  0  0  0  2  0  0  0  0  0  0
  183.3800  176.6890  136.6010 C   0  0  1  0  0  0  0  0  0  0  0  0
  182.3060  177.3800  135.7940 C   0  0  0  0  0  2  0  0  0  0  0  0
  181.1060  175.9940  137.3130 O   0  0  0  0  0  0  0  0  0  0  0  0
  184.4670  176.3310  135.7940 O   0  0  0  0  0  0  0  0  0  0  0  0
  185.5250  176.3870  136.5790 O   0  0  0  0  0  0  0  0  0  0  0  0
  186.4990  175.6270  135.9250 C   0  0  0  0  0  2  0  0  0  0  0  0
  186.1880  174.1340  136.0690 C   0  0  0  0  0  2  0  0  0  0  0  0
  186.7920  172.7600  137.8090 O   0  0  0  0  0  1  0  0  0  0  0  0
  184.5750  173.1380  137.5150 C   0  0  0  0  0  1  0  0  0  0  0  0
  185.9070  173.7200  137.4480 N   0  0  0  0  0  0  0  0  0  0  0  0
  188.7810  178.5350  140.6470 C   0  0  0  0  0  2  0  0  0  0  0  0
  190.9700  176.1250  138.6640 C   0  0  0  0  0  2  0  0  0  0  0  0
  190.6190  176.8380  137.3530 C   0  0  2  0  0  3  0  0  0  0  0  0
  188.4090  177.2360  138.5420 C   0  0  0  0  0  2  0  0  0  0  0  0
  190.5940  176.9800  139.8700 C   0  0  0  0  0  2  0  0  0  0  0  0
  189.0760  177.2270  139.9260 C   0  0  1  0  0  3  0  0  0  0  0  0
  189.3650  177.7250  137.4550 C   0  0  0  0  0  2  0  0  0  0  0  0
  189.9250  174.5720  136.7930 N   0  0  0  0  0  1  0  0  0  0  0  0
  190.4590  175.8070  136.2490 C   0  0  0  0  0  2  0  0  0  0  0  0
  1  6  1  6  0  0  0
  2 12  1  0  0  0  0
  2 11  1  0  0  0  0
  3 10  1  0  0  0  0
  4 15  1  6  0  0  0
  4  8  1  0  0  0  0
  5  1  1  0  0  0  0
  7  4  1  0  0  0  0
  7  9  1  1  0  0  0
  8  1  1  0  0  0  0
  9  5  1  0  0  0  0
 10 11  2  0  0  0  0
 11  7  1  0  0  0  0
 12 15  1  0  0  0  0
 13  2  2  0  0  0  0
 14 13  1  0  0  0  0
 14  3  2  0  0  0  0
 16  3  1  0  0  0  0
 16 17  2  0  0  0  0
 18 16  1  0  0  0  0
 19 18  1  0  0  0  0
 21 23  1  0  0  0  0
 22 26  1  6  0  0  0
 22 25  1  0  0  0  0
 22 27  1  0  0  0  0
 23 20  1  0  0  0  0
 23 19  1  1  0  0  0
 24 20  1  0  0  0  0
 25 28  1  6  0  0  0
 25 21  1  0  0  0  0
 26 25  1  0  0  0  0
 27 24  1  0  0  0  0
 28 29  1  0  0  0  0
 30 31  1  0  0  0  0
 30 29  1  0  0  0  0
 31 34  1  0  0  0  0
 34 33  1  0  0  0  0
 34 32  1  0  0  0  0
 35 13  1  0  0  0  0
 36 39  1  0  0  0  0
 37 43  1  6  0  0  0
 37 41  1  0  0  0  0
 37 36  1  0  0  0  0
 38 40  1  0  0  0  0
 39 40  1  0  0  0  0
 40 35  1  6  0  0  0
 41 38  1  0  0  0  0
 43 42  1  0  0  0  0
M  END
>  <MODEL>
2

>  <REMARK>
 VINA RESULT:      -8.5      2.490      6.360
  Name = 
  12 active torsions:
  status: ('A' for Active; 'I' for Inactive)
    1  A    between atoms: C_1  and  C_34
    2  A    between atoms: C_1  and  C_35
    3  A    between atoms: C_2  and  O_6
    4  A    between atoms: C_2  and  C_13
    5  A    between atoms: O_6  and  C_17
    6  A    between atoms: O_11  and  O_14
    7  A    between atoms: O_11  and  C_36
    8  A    between atoms: C_12  and  C_17
    9  A    between atoms: O_14  and  C_22
   10  A    between atoms: C_19  and  C_37
   11  A    between atoms: N_31  and  C_40
   12  A    between atoms: C_36  and  C_40
                            x       y       z     vdW  Elec       q    Type
                         _______ _______ _______ _____ _____    ______ ____

>  <TORSDO>
F 12

$$$$
=
 OpenBabel10262422373D

 43 48  0  0  1  0  0  0  0  0999 V2000
  188.6780  177.8780  148.4730 C   0  0  1  0  0  3  0  0  0  0  0  0
  185.9570  178.2270  144.0620 C   0  0  0  0  0  0  0  0  0  0  0  0
  187.8630  178.0770  141.9920 C   0  0  0  0  0  0  0  0  0  0  0  0
  186.7050  177.9200  146.8320 C   0  0  1  0  0  3  0  0  0  0  0  0
  189.1350  176.7470  147.5450 C   0  0  0  0  0  2  0  0  0  0  0  0
  189.4790  178.9900  148.2870 F   0  0  0  0  0  0  0  0  0  0  0  0
  187.8240  178.1070  145.8010 C   0  0  1  0  0  3  0  0  0  0  0  0
  187.2050  178.2540  148.2420 C   0  0  0  0  0  2  0  0  0  0  0  0
  188.9580  177.1000  146.0580 C   0  0  0  0  0  2  0  0  0  0  0  0
  188.2680  178.0280  143.3280 C   0  0  0  0  0  3  0  0  0  0  0  0
  187.3310  178.0730  144.3700 C   0  0  0  0  0  0  0  0  0  0  0  0
  184.9230  178.2770  145.1600 C   0  0  0  0  0  2  0  0  0  0  0  0
  185.5490  178.2670  142.7130 C   0  0  0  0  0  0  0  0  0  0  0  0
  186.5010  178.1930  141.6930 C   0  0  0  0  0  3  0  0  0  0  0  0
  185.5040  178.7760  146.4760 C   0  0  0  0  0  2  0  0  0  0  0  0
  188.8630  178.0130  140.9150 C   0  0  0  0  0  0  0  0  0  0  0  0
  189.9550  177.4080  141.1000 O   0  0  0  0  0  0  0  0  0  0  0  0
  188.5950  178.6230  139.6860 O   0  0  0  0  0  0  0  0  0  0  0  0
  189.3340  178.3120  138.5140 C   0  0  0  0  0  2  0  0  0  0  0  0
  186.9460  177.9290  137.9020 C   0  0  0  0  0  2  0  0  0  0  0  0
  188.7540  176.3340  137.1300 C   0  0  0  0  0  2  0  0  0  0  0  0
  186.9030  176.3530  135.1100 C   0  0  2  0  0  3  0  0  0  0  0  0
  188.3990  177.7860  137.4420 C   0  0  2  0  0  3  0  0  0  0  0  0
  185.9620  177.4240  136.8510 C   0  0  0  0  0  2  0  0  0  0  0  0
  188.0750  175.7250  135.8850 C   0  0  1  0  0  0  0  0  0  0  0  0
  188.3370  176.4630  134.5940 C   0  0  0  0  0  2  0  0  0  0  0  0
  186.4990  177.6170  135.5730 O   0  0  0  0  0  0  0  0  0  0  0  0
  188.2230  174.3420  135.7160 O   0  0  0  0  0  0  0  0  0  0  0  0
  188.3780  173.8520  136.9310 O   0  0  0  0  0  0  0  0  0  0  0  0
  187.6150  172.6810  136.9450 C   0  0  0  0  0  2  0  0  0  0  0  0
  186.1610  173.0020  137.3080 C   0  0  0  0  0  2  0  0  0  0  0  0
  184.9930  172.8710  135.3330 O   0  0  0  0  0  1  0  0  0  0  0  0
  183.9010  172.2480  137.2210 C   0  0  0  0  0  1  0  0  0  0  0  0
  185.1770  172.2480  136.5220 N   0  0  0  0  0  0  0  0  0  0  0  0
  184.1050  178.3780  142.3330 C   0  0  0  0  0  2  0  0  0  0  0  0
  183.2460  179.2990  138.7350 C   0  0  0  0  0  2  0  0  0  0  0  0
  181.7460  179.1720  139.0280 C   0  0  2  0  0  3  0  0  0  0  0  0
  182.5490  177.3830  140.6460 C   0  0  0  0  0  2  0  0  0  0  0  0
  184.0530  179.3730  140.0270 C   0  0  0  0  0  2  0  0  0  0  0  0
  183.9000  178.0830  140.8540 C   0  0  1  0  0  3  0  0  0  0  0  0
  181.4390  178.3800  140.3120 C   0  0  0  0  0  2  0  0  0  0  0  0
  181.9780  178.4350  136.7180 N   0  0  0  0  0  1  0  0  0  0  0  0
  181.0530  178.5430  137.8320 C   0  0  0  0  0  2  0  0  0  0  0  0
  1  6  1  6  0  0  0
  2 11  1  0  0  0  0
  2 12  1  0  0  0  0
  3 10  1  0  0  0  0
  4 15  1  6  0  0  0
  4  8  1  0  0  0  0
  5  1  1  0  0  0  0
  7  9  1  6  0  0  0
  7  4  1  0  0  0  0
  8  1  1  0  0  0  0
  9  5  1  0  0  0  0
 10 11  2  0  0  0  0
 11  7  1  0  0  0  0
 12 15  1  0  0  0  0
 13  2  2  0  0  0  0
 14  3  2  0  0  0  0
 14 13  1  0  0  0  0
 16 17  2  0  0  0  0
 16  3  1  0  0  0  0
 18 16  1  0  0  0  0
 19 18  1  0  0  0  0
 21 23  1  0  0  0  0
 22 26  1  6  0  0  0
 22 27  1  0  0  0  0
 22 25  1  0  0  0  0
 23 20  1  0  0  0  0
 23 19  1  1  0  0  0
 24 20  1  0  0  0  0
 25 28  1  6  0  0  0
 25 21  1  0  0  0  0
 26 25  1  0  0  0  0
 27 24  1  0  0  0  0
 28 29  1  0  0  0  0
 29 30  1  0  0  0  0
 30 31  1  0  0  0  0
 32 34  1  0  0  0  0
 34 33  1  0  0  0  0
 34 31  1  0  0  0  0
 35 13  1  0  0  0  0
 36 37  1  0  0  0  0
 36 39  1  0  0  0  0
 37 43  1  6  0  0  0
 37 41  1  0  0  0  0
 38 40  1  0  0  0  0
 39 40  1  0  0  0  0
 40 35  1  1  0  0  0
 41 38  1  0  0  0  0
 42 43  1  0  0  0  0
M  END
>  <MODEL>
3

>  <REMARK>
 VINA RESULT:      -8.5      1.996      3.135
  Name = 
  12 active torsions:
  status: ('A' for Active; 'I' for Inactive)
    1  A    between atoms: C_1  and  C_34
    2  A    between atoms: C_1  and  C_35
    3  A    between atoms: C_2  and  O_6
    4  A    between atoms: C_2  and  C_13
    5  A    between atoms: O_6  and  C_17
    6  A    between atoms: O_11  and  O_14
    7  A    between atoms: O_11  and  C_36
    8  A    between atoms: C_12  and  C_17
    9  A    between atoms: O_14  and  C_22
   10  A    between atoms: C_19  and  C_37
   11  A    between atoms: N_31  and  C_40
   12  A    between atoms: C_36  and  C_40
                            x       y       z     vdW  Elec       q    Type
                         _______ _______ _______ _____ _____    ______ ____

>  <TORSDO>
F 12

$$$$
=
 OpenBabel10262422373D

 43 48  0  0  1  0  0  0  0  0999 V2000
  188.7980  177.1310  148.0780 C   0  0  1  0  0  3  0  0  0  0  0  0
  188.3190  178.0540  142.9890 C   0  0  0  0  0  0  0  0  0  0  0  0
  185.5460  178.2030  142.5120 C   0  0  0  0  0  0  0  0  0  0  0  0
  189.3810  177.7370  145.6540 C   0  0  1  0  0  3  0  0  0  0  0  0
  187.8240  178.3000  147.9000 C   0  0  0  0  0  2  0  0  0  0  0  0
  188.0990  175.9390  148.1190 F   0  0  0  0  0  0  0  0  0  0  0  0
  187.8760  177.5260  145.4490 C   0  0  1  0  0  3  0  0  0  0  0  0
  189.8480  177.0790  146.9570 C   0  0  0  0  0  2  0  0  0  0  0  0
  187.0840  178.2470  146.5530 C   0  0  0  0  0  2  0  0  0  0  0  0
  186.0270  177.9460  143.7980 C   0  0  0  0  0  3  0  0  0  0  0  0
  187.4040  177.8960  144.0590 C   0  0  0  0  0  0  0  0  0  0  0  0
  189.8080  178.0070  143.2360 C   0  0  0  0  0  2  0  0  0  0  0  0
  187.8310  178.3220  141.6930 C   0  0  0  0  0  0  0  0  0  0  0  0
  186.4550  178.3940  141.4660 C   0  0  0  0  0  3  0  0  0  0  0  0
  190.1610  177.1910  144.4720 C   0  0  0  0  0  2  0  0  0  0  0  0
  184.0970  178.2650  142.2660 C   0  0  0  0  0  0  0  0  0  0  0  0
  183.3580  178.9690  143.0080 O   0  0  0  0  0  0  0  0  0  0  0  0
  183.5460  177.5430  141.2030 O   0  0  0  0  0  0  0  0  0  0  0  0
  182.3530  177.9560  140.5520 C   0  0  0  0  0  2  0  0  0  0  0  0
  183.9650  177.7240  138.6630 C   0  0  0  0  0  2  0  0  0  0  0  0
  181.7210  178.8460  138.3220 C   0  0  0  0  0  2  0  0  0  0  0  0
  182.2630  177.5880  135.9490 C   0  0  2  0  0  3  0  0  0  0  0  0
  182.4860  177.7470  139.0560 C   0  0  2  0  0  3  0  0  0  0  0  0
  184.1550  177.5040  137.1640 C   0  0  0  0  0  2  0  0  0  0  0  0
  181.5350  178.6420  136.8030 C   0  0  1  0  0  0  0  0  0  0  0  0
  180.8260  177.3660  136.4160 C   0  0  0  0  0  2  0  0  0  0  0  0
  183.1040  176.7230  136.6680 O   0  0  0  0  0  0  0  0  0  0  0  0
  181.0310  179.7370  136.0910 O   0  0  0  0  0  0  0  0  0  0  0  0
  181.1110  180.7630  136.9150 O   0  0  0  0  0  0  0  0  0  0  0  0
  180.7100  181.8660  136.1560 C   0  0  0  0  0  2  0  0  0  0  0  0
  180.5270  183.0900  137.0580 C   0  0  0  0  0  2  0  0  0  0  0  0
  182.1570  184.6660  137.4300 O   0  0  0  0  0  1  0  0  0  0  0  0
  180.2250  185.3840  136.4820 C   0  0  0  0  0  1  0  0  0  0  0  0
  181.1910  184.2980  136.5550 N   0  0  0  0  0  0  0  0  0  0  0  0
  188.7570  178.5470  140.5380 C   0  0  0  0  0  2  0  0  0  0  0  0
  189.9670  176.1420  137.8390 C   0  0  0  0  0  2  0  0  0  0  0  0
  189.9830  177.2690  136.7990 C   0  0  2  0  0  3  0  0  0  0  0  0
  188.0300  178.1270  138.1820 C   0  0  0  0  0  2  0  0  0  0  0  0
  189.8810  176.7030  139.2550 C   0  0  0  0  0  2  0  0  0  0  0  0
  188.5700  177.4820  139.4670 C   0  0  1  0  0  3  0  0  0  0  0  0
  189.1570  178.4990  137.2170 C   0  0  0  0  0  2  0  0  0  0  0  0
  189.6340  175.2810  135.4350 N   0  0  0  0  0  1  0  0  0  0  0  0
  189.5010  176.7270  135.4650 C   0  0  0  0  0  2  0  0  0  0  0  0
  1  6  1  6  0  0  0
  2 12  1  0  0  0  0
  2 11  1  0  0  0  0
  3 10  1  0  0  0  0
  4 15  1  6  0  0  0
  4  8  1  0  0  0  0
  5  1  1  0  0  0  0
  7  4  1  0  0  0  0
  7  9  1  1  0  0  0
  8  1  1  0  0  0  0
  9  5  1  0  0  0  0
 10 11  2  0  0  0  0
 11  7  1  0  0  0  0
 12 15  1  0  0  0  0
 13  2  2  0  0  0  0
 14 13  1  0  0  0  0
 14  3  2  0  0  0  0
 16  3  1  0  0  0  0
 16 17  2  0  0  0  0
 18 16  1  0  0  0  0
 19 18  1  0  0  0  0
 20 23  1  0  0  0  0
 21 23  1  0  0  0  0
 22 26  1  1  0  0  0
 22 27  1  0  0  0  0
 22 25  1  0  0  0  0
 23 19  1  1  0  0  0
 24 20  1  0  0  0  0
 25 28  1  6  0  0  0
 25 21  1  0  0  0  0
 26 25  1  0  0  0  0
 27 24  1  0  0  0  0
 28 29  1  0  0  0  0
 30 29  1  0  0  0  0
 30 31  1  0  0  0  0
 33 34  1  0  0  0  0
 34 31  1  0  0  0  0
 34 32  1  0  0  0  0
 35 13  1  0  0  0  0
 36 39  1  0  0  0  0
 37 43  1  6  0  0  0
 37 41  1  0  0  0  0
 37 36  1  0  0  0  0
 38 40  1  0  0  0  0
 39 40  1  0  0  0  0
 40 35  1  1  0  0  0
 41 38  1  0  0  0  0
 42 43  1  0  0  0  0
M  END
>  <MODEL>
4

>  <REMARK>
 VINA RESULT:      -8.5      3.153      6.994
  Name = 
  12 active torsions:
  status: ('A' for Active; 'I' for Inactive)
    1  A    between atoms: C_1  and  C_34
    2  A    between atoms: C_1  and  C_35
    3  A    between atoms: C_2  and  O_6
    4  A    between atoms: C_2  and  C_13
    5  A    between atoms: O_6  and  C_17
    6  A    between atoms: O_11  and  O_14
    7  A    between atoms: O_11  and  C_36
    8  A    between atoms: C_12  and  C_17
    9  A    between atoms: O_14  and  C_22
   10  A    between atoms: C_19  and  C_37
   11  A    between atoms: N_31  and  C_40
   12  A    between atoms: C_36  and  C_40
                            x       y       z     vdW  Elec       q    Type
                         _______ _______ _______ _____ _____    ______ ____

>  <TORSDO>
F 12

$$$$
=
 OpenBabel10262422373D

 43 48  0  0  1  0  0  0  0  0999 V2000
  180.1580  178.6320  140.5550 C   0  0  1  0  0  3  0  0  0  0  0  0
  184.2770  178.7760  143.7170 C   0  0  0  0  0  0  0  0  0  0  0  0
  186.5160  178.3930  142.0490 C   0  0  0  0  0  0  0  0  0  0  0  0
  181.6080  178.9990  142.6400 C   0  0  1  0  0  3  0  0  0  0  0  0
  181.1890  179.5870  139.9450 C   0  0  0  0  0  2  0  0  0  0  0  0
  180.3480  177.3560  140.0580 F   0  0  0  0  0  0  0  0  0  0  0  0
  182.7230  178.5140  141.7060 C   0  0  1  0  0  3  0  0  0  0  0  0
  180.2320  178.6080  142.0910 C   0  0  0  0  0  2  0  0  0  0  0  0
  182.6300  179.2320  140.3490 C   0  0  0  0  0  2  0  0  0  0  0  0
  185.2260  178.3940  141.5100 C   0  0  0  0  0  3  0  0  0  0  0  0
  184.1030  178.6110  142.3200 C   0  0  0  0  0  0  0  0  0  0  0  0
  183.0890  179.0130  144.6180 C   0  0  0  0  0  2  0  0  0  0  0  0
  185.5790  178.7840  144.2580 C   0  0  0  0  0  0  0  0  0  0  0  0
  186.6830  178.5920  143.4230 C   0  0  0  0  0  3  0  0  0  0  0  0
  181.8030  178.4390  144.0370 C   0  0  0  0  0  2  0  0  0  0  0  0
  187.6800  178.1780  141.1760 C   0  0  0  0  0  0  0  0  0  0  0  0
  188.7030  177.5870  141.6190 O   0  0  0  0  0  0  0  0  0  0  0  0
  187.6430  178.6290  139.8540 O   0  0  0  0  0  0  0  0  0  0  0  0
  188.7400  178.4520  138.9680 C   0  0  0  0  0  2  0  0  0  0  0  0
  189.0530  178.2230  136.5040 C   0  0  0  0  0  2  0  0  0  0  0  0
  186.7740  177.8970  137.5570 C   0  0  0  0  0  2  0  0  0  0  0  0
  186.8380  176.1660  135.4340 C   0  0  2  0  0  3  0  0  0  0  0  0
  188.2810  177.7160  137.7240 C   0  0  2  0  0  3  0  0  0  0  0  0
  188.6360  177.5030  135.2240 C   0  0  0  0  0  2  0  0  0  0  0  0
  186.1000  177.0050  136.4920 C   0  0  1  0  0  0  0  0  0  0  0  0
  186.2800  175.5200  136.7010 C   0  0  0  0  0  2  0  0  0  0  0  0
  188.2390  176.1960  135.5290 O   0  0  0  0  0  0  0  0  0  0  0  0
  184.7690  177.3140  136.1810 O   0  0  0  0  0  0  0  0  0  0  0  0
  184.1630  177.4750  137.3420 O   0  0  0  0  0  0  0  0  0  0  0  0
  182.7990  177.4240  137.0440 C   0  0  0  0  0  2  0  0  0  0  0  0
  182.4340  176.0500  136.4720 C   0  0  0  0  0  2  0  0  0  0  0  0
  182.8700  173.8200  136.8100 O   0  0  0  0  0  1  0  0  0  0  0  0
  181.2160  174.7470  138.0540 C   0  0  0  0  0  1  0  0  0  0  0  0
  182.5230  174.9610  137.4510 N   0  0  0  0  0  0  0  0  0  0  0  0
  185.8200  179.0050  145.7200 C   0  0  0  0  0  2  0  0  0  0  0  0
  188.2400  177.3760  148.1730 C   0  0  0  0  0  2  0  0  0  0  0  0
  189.4330  177.7250  147.2750 C   0  0  2  0  0  3  0  0  0  0  0  0
  187.7160  177.4010  145.4280 C   0  0  0  0  0  2  0  0  0  0  0  0
  187.0020  178.1720  147.7730 C   0  0  0  0  0  2  0  0  0  0  0  0
  186.5570  177.8270  146.3410 C   0  0  1  0  0  3  0  0  0  0  0  0
  189.0300  178.0720  145.8300 C   0  0  0  0  0  2  0  0  0  0  0  0
  191.5870  176.9070  146.4840 N   0  0  0  0  0  1  0  0  0  0  0  0
  190.4270  176.5770  147.2930 C   0  0  0  0  0  2  0  0  0  0  0  0
  1  6  1  6  0  0  0
  1  8  1  0  0  0  0
  2 13  1  0  0  0  0
  2 12  1  0  0  0  0
  3 14  1  0  0  0  0
  4  8  1  6  0  0  0
  4 15  1  0  0  0  0
  5  9  1  0  0  0  0
  5  1  1  0  0  0  0
  7  9  1  6  0  0  0
  7 11  1  0  0  0  0
  7  4  1  0  0  0  0
 10  3  2  0  0  0  0
 10 11  1  0  0  0  0
 11  2  2  0  0  0  0
 13 35  1  0  0  0  0
 14 13  2  0  0  0  0
 15 12  1  0  0  0  0
 16 17  2  0  0  0  0
 16  3  1  0  0  0  0
 18 16  1  0  0  0  0
 19 18  1  0  0  0  0
 20 23  1  0  0  0  0
 21 23  1  0  0  0  0
 22 27  1  0  0  0  0
 22 25  1  0  0  0  0
 22 26  1  1  0  0  0
 23 19  1  1  0  0  0
 24 27  1  0  0  0  0
 24 20  1  0  0  0  0
 25 28  1  6  0  0  0
 25 26  1  0  0  0  0
 25 21  1  0  0  0  0
 28 29  1  0  0  0  0
 30 29  1  0  0  0  0
 31 30  1  0  0  0  0
 31 34  1  0  0  0  0
 32 34  1  0  0  0  0
 34 33  1  0  0  0  0
 37 43  1  6  0  0  0
 37 36  1  0  0  0  0
 38 41  1  0  0  0  0
 38 40  1  0  0  0  0
 39 36  1  0  0  0  0
 40 35  1  6  0  0  0
 40 39  1  0  0  0  0
 41 37  1  0  0  0  0
 42 43  1  0  0  0  0
M  END
>  <MODEL>
5

>  <REMARK>
 VINA RESULT:      -8.3      3.084      6.882
  Name = 
  12 active torsions:
  status: ('A' for Active; 'I' for Inactive)
    1  A    between atoms: C_1  and  C_34
    2  A    between atoms: C_1  and  C_35
    3  A    between atoms: C_2  and  O_6
    4  A    between atoms: C_2  and  C_13
    5  A    between atoms: O_6  and  C_17
    6  A    between atoms: O_11  and  O_14
    7  A    between atoms: O_11  and  C_36
    8  A    between atoms: C_12  and  C_17
    9  A    between atoms: O_14  and  C_22
   10  A    between atoms: C_19  and  C_37
   11  A    between atoms: N_31  and  C_40
   12  A    between atoms: C_36  and  C_40
                            x       y       z     vdW  Elec       q    Type
                         _______ _______ _______ _____ _____    ______ ____

>  <TORSDO>
F 12

$$$$
=
 OpenBabel10262422373D

 43 48  0  0  1  0  0  0  0  0999 V2000
  188.6720  177.8770  148.3010 C   0  0  1  0  0  3  0  0  0  0  0  0
  185.9080  178.2400  143.9180 C   0  0  0  0  0  0  0  0  0  0  0  0
  187.7940  178.1110  141.8290 C   0  0  0  0  0  0  0  0  0  0  0  0
  186.6830  177.9190  146.6800 C   0  0  1  0  0  3  0  0  0  0  0  0
  189.1260  176.7540  147.3620 C   0  0  0  0  0  2  0  0  0  0  0  0
  189.4660  178.9940  148.1150 F   0  0  0  0  0  0  0  0  0  0  0  0
  187.7920  178.1180  145.6390 C   0  0  1  0  0  3  0  0  0  0  0  0
  187.1960  178.2470  148.0870 C   0  0  0  0  0  2  0  0  0  0  0  0
  188.9330  177.1150  145.8790 C   0  0  0  0  0  2  0  0  0  0  0  0
  188.2130  178.0560  143.1610 C   0  0  0  0  0  3  0  0  0  0  0  0
  187.2860  178.0900  144.2130 C   0  0  0  0  0  0  0  0  0  0  0  0
  184.8830  178.2780  145.0270 C   0  0  0  0  0  2  0  0  0  0  0  0
  185.4870  178.2860  142.5730 C   0  0  0  0  0  0  0  0  0  0  0  0
  186.4300  178.2220  141.5440 C   0  0  0  0  0  3  0  0  0  0  0  0
  185.4750  178.7720  146.3400 C   0  0  0  0  0  2  0  0  0  0  0  0
  188.7850  178.0590  140.7420 C   0  0  0  0  0  0  0  0  0  0  0  0
  189.9730  177.7080  140.9850 O   0  0  0  0  0  0  0  0  0  0  0  0
  188.4010  178.3950  139.4410 O   0  0  0  0  0  0  0  0  0  0  0  0
  189.3510  178.6220  138.4110 C   0  0  0  0  0  2  0  0  0  0  0  0
  188.2690  176.4620  137.7930 C   0  0  0  0  0  2  0  0  0  0  0  0
  190.7890  176.7010  137.7730 C   0  0  0  0  0  2  0  0  0  0  0  0
  190.2180  174.9550  135.7400 C   0  0  2  0  0  3  0  0  0  0  0  0
  189.4520  177.3950  137.5260 C   0  0  2  0  0  3  0  0  0  0  0  0
  188.3160  175.2140  136.9160 C   0  0  0  0  0  2  0  0  0  0  0  0
  191.1670  175.5870  136.7750 C   0  0  1  0  0  0  0  0  0  0  0  0
  191.2300  176.0230  135.3300 C   0  0  0  0  0  2  0  0  0  0  0  0
  188.9320  175.5200  135.6970 O   0  0  0  0  0  0  0  0  0  0  0  0
  192.2780  174.8040  137.1150 O   0  0  0  0  0  0  0  0  0  0  0  0
  193.0870  175.6070  137.7780 O   0  0  0  0  0  0  0  0  0  0  0  0
  194.3030  174.9220  137.8380 C   0  0  0  0  0  2  0  0  0  0  0  0
  194.0730  173.4190  137.6460 C   0  0  0  0  0  2  0  0  0  0  0  0
  195.8270  173.3470  139.1290 O   0  0  0  0  0  1  0  0  0  0  0  0
  195.9880  172.0470  137.2770 C   0  0  0  0  0  1  0  0  0  0  0  0
  195.0900  172.5800  138.2900 N   0  0  0  0  0  0  0  0  0  0  0  0
  184.0380  178.3920  142.2070 C   0  0  0  0  0  2  0  0  0  0  0  0
  183.3150  179.3960  138.6020 C   0  0  0  0  0  2  0  0  0  0  0  0
  181.8070  179.4160  138.8780 C   0  0  2  0  0  3  0  0  0  0  0  0
  182.4130  177.5550  140.5010 C   0  0  0  0  0  2  0  0  0  0  0  0
  184.1100  179.3900  139.9040 C   0  0  0  0  0  2  0  0  0  0  0  0
  183.8230  178.1210  140.7260 C   0  0  1  0  0  3  0  0  0  0  0  0
  181.4090  178.6560  140.1570 C   0  0  0  0  0  2  0  0  0  0  0  0
  180.9450  179.8800  136.6480 N   0  0  0  0  0  1  0  0  0  0  0  0
  181.0690  178.8590  137.6730 C   0  0  0  0  0  2  0  0  0  0  0  0
  1  6  1  6  0  0  0
  2 11  1  0  0  0  0
  2 12  1  0  0  0  0
  3 10  1  0  0  0  0
  4 15  1  6  0  0  0
  4  8  1  0  0  0  0
  5  1  1  0  0  0  0
  7  9  1  6  0  0  0
  7  4  1  0  0  0  0
  8  1  1  0  0  0  0
  9  5  1  0  0  0  0
 10 11  2  0  0  0  0
 11  7  1  0  0  0  0
 12 15  1  0  0  0  0
 13  2  2  0  0  0  0
 14  3  2  0  0  0  0
 14 13  1  0  0  0  0
 16 17  2  0  0  0  0
 16  3  1  0  0  0  0
 18 16  1  0  0  0  0
 19 18  1  0  0  0  0
 22 26  1  6  0  0  0
 22 25  1  0  0  0  0
 23 21  1  0  0  0  0
 23 20  1  0  0  0  0
 23 19  1  1  0  0  0
 24 20  1  0  0  0  0
 25 28  1  1  0  0  0
 25 21  1  0  0  0  0
 26 25  1  0  0  0  0
 27 22  1  0  0  0  0
 27 24  1  0  0  0  0
 28 29  1  0  0  0  0
 29 30  1  0  0  0  0
 31 30  1  0  0  0  0
 31 34  1  0  0  0  0
 33 34  1  0  0  0  0
 34 32  1  0  0  0  0
 35 13  1  0  0  0  0
 36 37  1  0  0  0  0
 36 39  1  0  0  0  0
 37 43  1  6  0  0  0
 37 41  1  0  0  0  0
 38 40  1  0  0  0  0
 39 40  1  0  0  0  0
 40 35  1  1  0  0  0
 41 38  1  0  0  0  0
 42 43  1  0  0  0  0
M  END
>  <MODEL>
6

>  <REMARK>
 VINA RESULT:      -8.2      2.047      3.722
  Name = 
  12 active torsions:
  status: ('A' for Active; 'I' for Inactive)
    1  A    between atoms: C_1  and  C_34
    2  A    between atoms: C_1  and  C_35
    3  A    between atoms: C_2  and  O_6
    4  A    between atoms: C_2  and  C_13
    5  A    between atoms: O_6  and  C_17
    6  A    between atoms: O_11  and  O_14
    7  A    between atoms: O_11  and  C_36
    8  A    between atoms: C_12  and  C_17
    9  A    between atoms: O_14  and  C_22
   10  A    between atoms: C_19  and  C_37
   11  A    between atoms: N_31  and  C_40
   12  A    between atoms: C_36  and  C_40
                            x       y       z     vdW  Elec       q    Type
                         _______ _______ _______ _____ _____    ______ ____

>  <TORSDO>
F 12

$$$$
=
 OpenBabel10262422373D

 43 48  0  0  1  0  0  0  0  0999 V2000
  191.0160  176.4310  147.4620 C   0  0  1  0  0  3  0  0  0  0  0  0
  188.9660  177.9070  142.9230 C   0  0  0  0  0  0  0  0  0  0  0  0
  186.2030  178.1850  143.4030 C   0  0  0  0  0  0  0  0  0  0  0  0
  190.8150  177.2770  145.0470 C   0  0  1  0  0  3  0  0  0  0  0  0
  190.1110  177.6390  147.7230 C   0  0  0  0  0  2  0  0  0  0  0  0
  190.2950  175.2620  147.6210 F   0  0  0  0  0  0  0  0  0  0  0  0
  189.3150  177.1320  145.3310 C   0  0  1  0  0  3  0  0  0  0  0  0
  191.6390  176.4700  146.0570 C   0  0  0  0  0  2  0  0  0  0  0  0
  188.9710  177.7520  146.6960 C   0  0  0  0  0  2  0  0  0  0  0  0
  187.0600  177.7770  144.4290 C   0  0  0  0  0  3  0  0  0  0  0  0
  188.4410  177.6620  144.2160 C   0  0  0  0  0  0  0  0  0  0  0  0
  190.4480  177.7930  142.6600 C   0  0  0  0  0  2  0  0  0  0  0  0
  188.1010  178.3270  141.8910 C   0  0  0  0  0  0  0  0  0  0  0  0
  186.7330  178.4610  142.1380 C   0  0  0  0  0  3  0  0  0  0  0  0
  191.1330  176.8400  143.6300 C   0  0  0  0  0  2  0  0  0  0  0  0
  184.7590  178.3130  143.6550 C   0  0  0  0  0  0  0  0  0  0  0  0
  184.3340  178.4670  144.8330 O   0  0  0  0  0  0  0  0  0  0  0  0
  183.8650  178.2690  142.5820 O   0  0  0  0  0  0  0  0  0  0  0  0
  182.4990  178.6300  142.7260 C   0  0  0  0  0  2  0  0  0  0  0  0
  180.4600  178.2170  141.3490 C   0  0  0  0  0  2  0  0  0  0  0  0
  182.7640  178.1700  140.3000 C   0  0  0  0  0  2  0  0  0  0  0  0
  181.1090  179.1560  138.3520 C   0  0  2  0  0  3  0  0  0  0  0  0
  181.8700  178.8130  141.3580 C   0  0  2  0  0  3  0  0  0  0  0  0
  179.7770  178.3860  139.9950 C   0  0  0  0  0  2  0  0  0  0  0  0
  182.4080  178.4850  138.8320 C   0  0  1  0  0  0  0  0  0  0  0  0
  182.4050  179.9540  138.4800 C   0  0  0  0  0  2  0  0  0  0  0  0
  180.2370  179.5560  139.3790 O   0  0  0  0  0  0  0  0  0  0  0  0
  183.0810  177.7340  137.8590 O   0  0  0  0  0  0  0  0  0  0  0  0
  183.7720  176.8300  138.5250 O   0  0  0  0  0  0  0  0  0  0  0  0
  183.2930  175.6000  138.0650 C   0  0  0  0  0  2  0  0  0  0  0  0
  183.7820  175.3440  136.6360 C   0  0  0  0  0  2  0  0  0  0  0  0
  185.5680  175.0570  135.2200 O   0  0  0  0  0  1  0  0  0  0  0  0
  185.6900  174.0540  137.2510 C   0  0  0  0  0  1  0  0  0  0  0  0
  185.2400  175.2310  136.5230 N   0  0  0  0  0  0  0  0  0  0  0  0
  188.6130  178.6480  140.5200 C   0  0  0  0  0  2  0  0  0  0  0  0
  189.8300  176.2490  137.8200 C   0  0  0  0  0  2  0  0  0  0  0  0
  189.4110  177.2290  136.7180 C   0  0  2  0  0  3  0  0  0  0  0  0
  187.5930  177.8230  138.3920 C   0  0  0  0  0  2  0  0  0  0  0  0
  189.8740  176.9390  139.1800 C   0  0  0  0  0  2  0  0  0  0  0  0
  188.4820  177.4530  139.5890 C   0  0  1  0  0  3  0  0  0  0  0  0
  188.4190  178.3040  137.1990 C   0  0  0  0  0  2  0  0  0  0  0  0
  188.1280  177.3500  134.6510 N   0  0  0  0  0  1  0  0  0  0  0  0
  188.8330  176.4520  135.5480 C   0  0  0  0  0  2  0  0  0  0  0  0
  1  6  1  6  0  0  0
  1  5  1  0  0  0  0
  2 11  1  0  0  0  0
  3 16  1  0  0  0  0
  3 10  1  0  0  0  0
  4 15  1  6  0  0  0
  4  7  1  0  0  0  0
  4  8  1  0  0  0  0
  7  9  1  1  0  0  0
  8  1  1  0  0  0  0
  9  5  1  0  0  0  0
 11 10  2  0  0  0  0
 11  7  1  0  0  0  0
 12  2  1  0  0  0  0
 12 15  1  0  0  0  0
 13 14  1  0  0  0  0
 13  2  2  0  0  0  0
 14  3  2  0  0  0  0
 16 17  2  0  0  0  0
 18 19  1  0  0  0  0
 18 16  1  0  0  0  0
 20 23  1  0  0  0  0
 21 23  1  0  0  0  0
 22 26  1  1  0  0  0
 22 25  1  0  0  0  0
 22 27  1  0  0  0  0
 23 19  1  1  0  0  0
 24 20  1  0  0  0  0
 25 28  1  6  0  0  0
 25 21  1  0  0  0  0
 26 25  1  0  0  0  0
 27 24  1  0  0  0  0
 28 29  1  0  0  0  0
 30 29  1  0  0  0  0
 31 30  1  0  0  0  0
 32 34  1  0  0  0  0
 34 31  1  0  0  0  0
 34 33  1  0  0  0  0
 35 13  1  0  0  0  0
 36 39  1  0  0  0  0
 37 43  1  6  0  0  0
 37 41  1  0  0  0  0
 37 36  1  0  0  0  0
 38 40  1  0  0  0  0
 39 40  1  0  0  0  0
 40 35  1  1  0  0  0
 41 38  1  0  0  0  0
 42 43  1  0  0  0  0
M  END
>  <MODEL>
7

>  <REMARK>
 VINA RESULT:      -8.1      2.679      6.896
  Name = 
  12 active torsions:
  status: ('A' for Active; 'I' for Inactive)
    1  A    between atoms: C_1  and  C_34
    2  A    between atoms: C_1  and  C_35
    3  A    between atoms: C_2  and  O_6
    4  A    between atoms: C_2  and  C_13
    5  A    between atoms: O_6  and  C_17
    6  A    between atoms: O_11  and  O_14
    7  A    between atoms: O_11  and  C_36
    8  A    between atoms: C_12  and  C_17
    9  A    between atoms: O_14  and  C_22
   10  A    between atoms: C_19  and  C_37
   11  A    between atoms: N_31  and  C_40
   12  A    between atoms: C_36  and  C_40
                            x       y       z     vdW  Elec       q    Type
                         _______ _______ _______ _____ _____    ______ ____

>  <TORSDO>
F 12

$$$$
=
 OpenBabel10262422373D

 43 48  0  0  1  0  0  0  0  0999 V2000
  179.3130  178.7790  141.3370 C   0  0  1  0  0  3  0  0  0  0  0  0
  184.0300  178.7360  143.5130 C   0  0  0  0  0  0  0  0  0  0  0  0
  185.8430  178.5200  141.3670 C   0  0  0  0  0  0  0  0  0  0  0  0
  181.1900  179.0030  143.0730 C   0  0  1  0  0  3  0  0  0  0  0  0
  180.1860  179.7940  140.5920 C   0  0  0  0  0  2  0  0  0  0  0  0
  179.3850  177.5480  140.7100 F   0  0  0  0  0  0  0  0  0  0  0  0
  182.0690  178.6090  141.8800 C   0  0  1  0  0  3  0  0  0  0  0  0
  179.7250  178.6350  142.8110 C   0  0  0  0  0  2  0  0  0  0  0  0
  181.6800  179.4300  140.6390 C   0  0  0  0  0  2  0  0  0  0  0  0
  184.4670  178.5430  141.1270 C   0  0  0  0  0  3  0  0  0  0  0  0
  183.5510  178.6790  142.1800 C   0  0  0  0  0  0  0  0  0  0  0  0
  183.0710  178.8840  144.6700 C   0  0  0  0  0  2  0  0  0  0  0  0
  185.4190  178.7220  143.7520 C   0  0  0  0  0  0  0  0  0  0  0  0
  186.3110  178.6140  142.6820 C   0  0  0  0  0  3  0  0  0  0  0  0
  181.6870  178.3390  144.3430 C   0  0  0  0  0  2  0  0  0  0  0  0
  186.7850  178.3920  140.2440 C   0  0  0  0  0  0  0  0  0  0  0  0
  187.9860  178.0670  140.4580 O   0  0  0  0  0  0  0  0  0  0  0  0
  186.3410  178.6280  138.9400 O   0  0  0  0  0  0  0  0  0  0  0  0
  186.5540  177.6930  137.8920 C   0  0  0  0  0  2  0  0  0  0  0  0
  185.7010  175.5970  136.8430 C   0  0  0  0  0  2  0  0  0  0  0  0
  184.1330  177.5150  137.3700 C   0  0  0  0  0  2  0  0  0  0  0  0
  182.6400  175.2460  137.7340 C   0  0  2  0  0  3  0  0  0  0  0  0
  185.3760  176.7420  137.8060 C   0  0  2  0  0  3  0  0  0  0  0  0
  184.5490  174.6020  136.7300 C   0  0  0  0  0  2  0  0  0  0  0  0
  182.7930  176.7560  137.4800 C   0  0  1  0  0  0  0  0  0  0  0  0
  182.4590  176.2550  138.8660 C   0  0  0  0  0  2  0  0  0  0  0  0
  183.8470  174.5570  137.9400 O   0  0  0  0  0  0  0  0  0  0  0  0
  181.6850  177.3730  136.8850 O   0  0  0  0  0  0  0  0  0  0  0  0
  181.7280  178.6310  137.2760 O   0  0  0  0  0  0  0  0  0  0  0  0
  180.9530  179.3240  136.3410 C   0  0  0  0  0  2  0  0  0  0  0  0
  179.9710  180.2580  137.0560 C   0  0  0  0  0  2  0  0  0  0  0  0
  180.8110  181.8250  135.6010 O   0  0  0  0  0  1  0  0  0  0  0  0
  181.1710  182.1740  137.8130 C   0  0  0  0  0  1  0  0  0  0  0  0
  180.2310  181.6820  136.8170 N   0  0  0  0  0  0  0  0  0  0  0  0
  185.9780  178.8310  145.1370 C   0  0  0  0  0  2  0  0  0  0  0  0
  188.6640  176.9940  147.1230 C   0  0  0  0  0  2  0  0  0  0  0  0
  189.7720  177.6520  146.2920 C   0  0  2  0  0  3  0  0  0  0  0  0
  188.0110  177.5410  144.4610 C   0  0  0  0  0  2  0  0  0  0  0  0
  187.3340  177.7170  146.9340 C   0  0  0  0  0  2  0  0  0  0  0  0
  186.8590  177.6360  145.4720 C   0  0  1  0  0  3  0  0  0  0  0  0
  189.2680  178.2510  144.9660 C   0  0  0  0  0  2  0  0  0  0  0  0
  191.5370  176.3000  147.2850 N   0  0  0  0  0  1  0  0  0  0  0  0
  190.8760  176.6420  146.0380 C   0  0  0  0  0  2  0  0  0  0  0  0
  1  6  1  6  0  0  0
  1  8  1  0  0  0  0
  2 13  1  0  0  0  0
  2 12  1  0  0  0  0
  3 14  1  0  0  0  0
  4  8  1  6  0  0  0
  4 15  1  0  0  0  0
  5  9  1  0  0  0  0
  5  1  1  0  0  0  0
  7  9  1  6  0  0  0
  7 11  1  0  0  0  0
  7  4  1  0  0  0  0
 10  3  2  0  0  0  0
 10 11  1  0  0  0  0
 11  2  2  0  0  0  0
 13 35  1  0  0  0  0
 14 13  2  0  0  0  0
 15 12  1  0  0  0  0
 16 17  2  0  0  0  0
 16  3  1  0  0  0  0
 18 16  1  0  0  0  0
 19 18  1  0  0  0  0
 20 23  1  0  0  0  0
 21 25  1  0  0  0  0
 21 23  1  0  0  0  0
 22 27  1  0  0  0  0
 22 26  1  1  0  0  0
 23 19  1  6  0  0  0
 24 20  1  0  0  0  0
 24 27  1  0  0  0  0
 25 28  1  6  0  0  0
 25 22  1  0  0  0  0
 25 26  1  0  0  0  0
 28 29  1  0  0  0  0
 30 31  1  0  0  0  0
 30 29  1  0  0  0  0
 32 34  1  0  0  0  0
 34 31  1  0  0  0  0
 34 33  1  0  0  0  0
 37 43  1  6  0  0  0
 37 36  1  0  0  0  0
 38 41  1  0  0  0  0
 38 40  1  0  0  0  0
 39 36  1  0  0  0  0
 40 35  1  6  0  0  0
 40 39  1  0  0  0  0
 41 37  1  0  0  0  0
 43 42  1  0  0  0  0
M  END
>  <MODEL>
8

>  <REMARK>
 VINA RESULT:      -8.0      3.858      7.760
  Name = 
  12 active torsions:
  status: ('A' for Active; 'I' for Inactive)
    1  A    between atoms: C_1  and  C_34
    2  A    between atoms: C_1  and  C_35
    3  A    between atoms: C_2  and  O_6
    4  A    between atoms: C_2  and  C_13
    5  A    between atoms: O_6  and  C_17
    6  A    between atoms: O_11  and  O_14
    7  A    between atoms: O_11  and  C_36
    8  A    between atoms: C_12  and  C_17
    9  A    between atoms: O_14  and  C_22
   10  A    between atoms: C_19  and  C_37
   11  A    between atoms: N_31  and  C_40
   12  A    between atoms: C_36  and  C_40
                            x       y       z     vdW  Elec       q    Type
                         _______ _______ _______ _____ _____    ______ ____

>  <TORSDO>
F 12

$$$$
=
 OpenBabel10262422373D

 43 48  0  0  1  0  0  0  0  0999 V2000
  188.6560  177.1070  148.1090 C   0  0  1  0  0  3  0  0  0  0  0  0
  188.2240  178.0440  143.0180 C   0  0  0  0  0  0  0  0  0  0  0  0
  185.4590  178.2850  142.5320 C   0  0  0  0  0  0  0  0  0  0  0  0
  189.2660  177.6930  145.6860 C   0  0  1  0  0  3  0  0  0  0  0  0
  187.7210  178.3080  147.9270 C   0  0  0  0  0  2  0  0  0  0  0  0
  187.9170  175.9390  148.1470 F   0  0  0  0  0  0  0  0  0  0  0  0
  187.7560  177.5320  145.4760 C   0  0  1  0  0  3  0  0  0  0  0  0
  189.7070  177.0200  146.9910 C   0  0  0  0  0  2  0  0  0  0  0  0
  186.9840  178.2790  146.5780 C   0  0  0  0  0  2  0  0  0  0  0  0
  185.9270  178.0120  143.8200 C   0  0  0  0  0  3  0  0  0  0  0  0
  187.3010  177.9180  144.0850 C   0  0  0  0  0  0  0  0  0  0  0  0
  189.7090  177.9490  143.2700 C   0  0  0  0  0  2  0  0  0  0  0  0
  187.7500  178.3280  141.7210 C   0  0  0  0  0  0  0  0  0  0  0  0
  186.3770  178.4450  141.4890 C   0  0  0  0  0  3  0  0  0  0  0  0
  190.0320  177.1220  144.5070 C   0  0  0  0  0  2  0  0  0  0  0  0
  184.0130  178.3950  142.2810 C   0  0  0  0  0  0  0  0  0  0  0  0
  183.5190  177.9360  141.2140 O   0  0  0  0  0  0  0  0  0  0  0  0
  183.1920  179.0050  143.2330 O   0  0  0  0  0  0  0  0  0  0  0  0
  181.8340  178.6290  143.4060 C   0  0  0  0  0  2  0  0  0  0  0  0
  179.8280  180.0840  143.1150 C   0  0  0  0  0  2  0  0  0  0  0  0
  180.4430  178.3580  141.3670 C   0  0  0  0  0  2  0  0  0  0  0  0
  179.3380  180.4380  139.9660 C   0  0  2  0  0  3  0  0  0  0  0  0
  180.9670  179.3580  142.3960 C   0  0  2  0  0  3  0  0  0  0  0  0
  178.9310  180.8440  142.1420 C   0  0  0  0  0  2  0  0  0  0  0  0
  179.7590  178.9660  140.1240 C   0  0  1  0  0  0  0  0  0  0  0  0
  180.6210  179.9140  139.3240 C   0  0  0  0  0  2  0  0  0  0  0  0
  179.6860  181.2700  141.0430 O   0  0  0  0  0  0  0  0  0  0  0  0
  179.0880  178.0650  139.2870 O   0  0  0  0  0  0  0  0  0  0  0  0
  180.0050  177.5960  138.4640 O   0  0  0  0  0  0  0  0  0  0  0  0
  179.5390  176.3330  138.0880 C   0  0  0  0  0  2  0  0  0  0  0  0
  180.2350  175.2460  138.9130 C   0  0  0  0  0  2  0  0  0  0  0  0
  179.6760  173.6440  140.4620 O   0  0  0  0  0  1  0  0  0  0  0  0
  179.6440  173.0250  138.2800 C   0  0  0  0  0  1  0  0  0  0  0  0
  179.3730  174.0990  139.2230 N   0  0  0  0  0  0  0  0  0  0  0  0
  188.6860  178.5220  140.5680 C   0  0  0  0  0  2  0  0  0  0  0  0
  190.7390  176.0160  138.5600 C   0  0  0  0  0  2  0  0  0  0  0  0
  190.4900  176.8020  137.2670 C   0  0  2  0  0  3  0  0  0  0  0  0
  188.2810  177.3350  138.4050 C   0  0  0  0  0  2  0  0  0  0  0  0
  190.3930  176.8550  139.7860 C   0  0  0  0  0  2  0  0  0  0  0  0
  188.8990  177.2220  139.8060 C   0  0  1  0  0  3  0  0  0  0  0  0
  189.3080  177.7840  137.3660 C   0  0  0  0  0  2  0  0  0  0  0  0
  190.3540  174.4620  136.6060 N   0  0  0  0  0  1  0  0  0  0  0  0
  190.2840  175.8280  136.1200 C   0  0  0  0  0  2  0  0  0  0  0  0
  1  6  1  6  0  0  0
  2 12  1  0  0  0  0
  2 11  1  0  0  0  0
  3 10  1  0  0  0  0
  4 15  1  6  0  0  0
  4  8  1  0  0  0  0
  5  1  1  0  0  0  0
  7  4  1  0  0  0  0
  7  9  1  1  0  0  0
  8  1  1  0  0  0  0
  9  5  1  0  0  0  0
 10 11  2  0  0  0  0
 11  7  1  0  0  0  0
 12 15  1  0  0  0  0
 13  2  2  0  0  0  0
 14 13  1  0  0  0  0
 14  3  2  0  0  0  0
 16  3  1  0  0  0  0
 16 18  1  0  0  0  0
 17 16  2  0  0  0  0
 18 19  1  0  0  0  0
 21 23  1  0  0  0  0
 22 26  1  6  0  0  0
 22 25  1  0  0  0  0
 22 27  1  0  0  0  0
 23 20  1  0  0  0  0
 23 19  1  1  0  0  0
 24 20  1  0  0  0  0
 25 28  1  6  0  0  0
 25 21  1  0  0  0  0
 26 25  1  0  0  0  0
 27 24  1  0  0  0  0
 29 28  1  0  0  0  0
 30 29  1  0  0  0  0
 30 31  1  0  0  0  0
 31 34  1  0  0  0  0
 33 34  1  0  0  0  0
 34 32  1  0  0  0  0
 35 13  1  0  0  0  0
 36 39  1  0  0  0  0
 37 43  1  6  0  0  0
 37 41  1  0  0  0  0
 37 36  1  0  0  0  0
 38 40  1  0  0  0  0
 39 40  1  0  0  0  0
 40 35  1  6  0  0  0
 41 38  1  0  0  0  0
 43 42  1  0  0  0  0
M  END
>  <MODEL>
9

>  <REMARK>
 VINA RESULT:      -7.9      3.388      8.212
  Name = 
  12 active torsions:
  status: ('A' for Active; 'I' for Inactive)
    1  A    between atoms: C_1  and  C_34
    2  A    between atoms: C_1  and  C_35
    3  A    between atoms: C_2  and  O_6
    4  A    between atoms: C_2  and  C_13
    5  A    between atoms: O_6  and  C_17
    6  A    between atoms: O_11  and  O_14
    7  A    between atoms: O_11  and  C_36
    8  A    between atoms: C_12  and  C_17
    9  A    between atoms: O_14  and  C_22
   10  A    between atoms: C_19  and  C_37
   11  A    between atoms: N_31  and  C_40
   12  A    between atoms: C_36  and  C_40
                            x       y       z     vdW  Elec       q    Type
                         _______ _______ _______ _____ _____    ______ ____

>  <TORSDO>
F 12

$$$$
