=
 OpenBabel10262419513D

 25 27  0  0  1  0  0  0  0  0999 V2000
  188.4870  177.3980  145.9750 C   0  0  0  0  0  0  0  0  0  0  0  0
  188.8060  176.0510  147.9670 O   0  0  0  0  0  1  0  0  0  0  0  0
  190.7250  176.7640  146.6830 C   0  0  0  0  0  0  0  0  0  0  0  0
  191.5710  176.1080  147.5690 O   0  0  0  0  0  1  0  0  0  0  0  0
  189.0440  178.0910  144.8880 C   0  0  0  0  0  3  0  0  0  0  0  0
  191.2670  177.4490  145.5920 C   0  0  0  0  0  3  0  0  0  0  0  0
  190.4270  178.1180  144.6980 C   0  0  0  0  0  0  0  0  0  0  0  0
  189.3370  176.7360  146.8780 C   0  0  0  0  0  0  0  0  0  0  0  0
  186.9900  177.3680  146.1850 C   0  0  2  0  0  3  0  0  0  0  0  0
  187.5210  178.9290  148.2150 C   0  0  0  0  0  1  0  0  0  0  0  0
  186.2610  177.8700  144.9850 C   0  0  0  0  0  0  0  0  0  0  0  0
  184.8030  179.1900  143.0260 C   0  0  0  0  0  3  0  0  0  0  0  0
  185.5490  178.9950  145.2990 C   0  0  0  0  0  0  0  0  0  0  0  0
  184.8100  179.6850  144.3400 C   0  0  0  0  0  3  0  0  0  0  0  0
  185.5310  178.0290  142.7010 C   0  0  0  0  0  3  0  0  0  0  0  0
  186.4620  178.3080  147.3140 C   0  0  1  0  0  3  0  0  0  0  0  0
  185.6660  179.3460  146.6630 N   0  0  0  0  0  2  0  0  0  0  0  0
  186.2720  177.3560  143.6860 C   0  0  0  0  0  3  0  0  0  0  0  0
  190.9950  178.8220  143.5160 C   0  0  0  0  0  2  0  0  0  0  0  0
  191.6850  177.8210  142.6050 C   0  0  0  0  0  2  0  0  0  0  0  0
  190.6610  177.0750  141.7650 C   0  0  0  0  0  2  0  0  0  0  0  0
  190.9730  177.2000  140.3460 N   0  0  0  0  0  2  0  0  0  0  0  0
  189.7800  177.6840  139.6680 C   0  0  1  0  0  3  0  0  0  0  0  0
  189.3800  176.7330  138.6450 N   0  0  0  0  0  1  0  0  0  0  0  0
  188.6580  177.8370  140.6730 C   0  0  0  0  0  1  0  0  0  0  0  0
  1  8  1  0  0  0  0
  3  8  2  0  0  0  0
  3  4  1  0  0  0  0
  5  1  2  0  0  0  0
  6  3  1  0  0  0  0
  7  5  1  0  0  0  0
  7  6  2  0  0  0  0
  8  2  1  0  0  0  0
  9  1  1  6  0  0  0
  9 16  1  0  0  0  0
 11 13  1  0  0  0  0
 11  9  1  0  0  0  0
 12 14  1  0  0  0  0
 13 17  1  0  0  0  0
 14 13  2  0  0  0  0
 15 12  2  0  0  0  0
 15 18  1  0  0  0  0
 16 10  1  6  0  0  0
 17 16  1  0  0  0  0
 18 11  2  0  0  0  0
 19  7  1  0  0  0  0
 20 19  1  0  0  0  0
 21 20  1  0  0  0  0
 22 21  1  0  0  0  0
 23 22  1  0  0  0  0
 23 25  1  1  0  0  0
 24 23  1  0  0  0  0
M  END
>  <MODEL>
1

>  <REMARK>
 VINA RESULT:      -8.3      0.000      0.000
  Name = 
  6 active torsions:
  status: ('A' for Active; 'I' for Inactive)
    1  A    between atoms: C_1  and  C_3
    2  A    between atoms: C_2  and  N_25
    3  A    between atoms: C_6  and  C_15
    4  A    between atoms: C_6  and  C_23
    5  A    between atoms: C_15  and  C_21
    6  A    between atoms: C_21  and  N_25
                            x       y       z     vdW  Elec       q    Type
                         _______ _______ _______ _____ _____    ______ ____

>  <TORSDO>
F 6

$$$$
=
 OpenBabel10262419513D

 25 27  0  0  1  0  0  0  0  0999 V2000
  186.3380  177.8400  144.0760 C   0  0  0  0  0  0  0  0  0  0  0  0
  184.0750  178.2330  143.2950 O   0  0  0  0  0  1  0  0  0  0  0  0
  184.6260  178.6200  145.6160 C   0  0  0  0  0  0  0  0  0  0  0  0
  183.3150  179.0040  145.8710 O   0  0  0  0  0  1  0  0  0  0  0  0
  187.2680  177.8540  145.1270 C   0  0  0  0  0  3  0  0  0  0  0  0
  185.5580  178.6210  146.6570 C   0  0  0  0  0  3  0  0  0  0  0  0
  186.8810  178.2430  146.4120 C   0  0  0  0  0  0  0  0  0  0  0  0
  185.0100  178.2310  144.3250 C   0  0  0  0  0  0  0  0  0  0  0  0
  186.7530  177.4180  142.6840 C   0  0  2  0  0  3  0  0  0  0  0  0
  186.0810  179.8640  142.0430 C   0  0  0  0  0  1  0  0  0  0  0  0
  188.1730  176.9670  142.6520 C   0  0  0  0  0  0  0  0  0  0  0  0
  190.8990  176.5370  142.3510 C   0  0  0  0  0  3  0  0  0  0  0  0
  188.9120  177.7810  141.8370 C   0  0  0  0  0  0  0  0  0  0  0  0
  190.2820  177.5960  141.6660 C   0  0  0  0  0  3  0  0  0  0  0  0
  190.1400  175.6940  143.1860 C   0  0  0  0  0  3  0  0  0  0  0  0
  186.7400  178.5590  141.6180 C   0  0  1  0  0  3  0  0  0  0  0  0
  188.1300  178.7880  141.2270 N   0  0  0  0  0  2  0  0  0  0  0  0
  188.7610  175.9060  143.3450 C   0  0  0  0  0  3  0  0  0  0  0  0
  187.8720  178.2110  147.5210 C   0  0  0  0  0  2  0  0  0  0  0  0
  188.6220  176.8900  147.5010 C   0  0  0  0  0  2  0  0  0  0  0  0
  190.1190  177.1270  147.6190 C   0  0  0  0  0  2  0  0  0  0  0  0
  190.7720  176.9240  146.3320 N   0  0  0  0  0  2  0  0  0  0  0  0
  192.0920  176.3650  146.5850 C   0  0  1  0  0  3  0  0  0  0  0  0
  192.3590  176.3680  148.0130 N   0  0  0  0  0  1  0  0  0  0  0  0
  192.1400  174.9400  146.0720 C   0  0  0  0  0  1  0  0  0  0  0  0
  1  8  2  0  0  0  0
  1  5  1  0  0  0  0
  2  8  1  0  0  0  0
  3  4  1  0  0  0  0
  3  6  2  0  0  0  0
  5  7  2  0  0  0  0
  7  6  1  0  0  0  0
  7 19  1  0  0  0  0
  8  3  1  0  0  0  0
  9  1  1  1  0  0  0
 11  9  1  0  0  0  0
 11 18  1  0  0  0  0
 12 15  1  0  0  0  0
 13 11  2  0  0  0  0
 14 13  1  0  0  0  0
 14 12  2  0  0  0  0
 15 18  2  0  0  0  0
 16 10  1  1  0  0  0
 16  9  1  0  0  0  0
 17 16  1  0  0  0  0
 17 13  1  0  0  0  0
 20 19  1  0  0  0  0
 20 21  1  0  0  0  0
 22 23  1  0  0  0  0
 22 21  1  0  0  0  0
 23 25  1  1  0  0  0
 23 24  1  0  0  0  0
M  END
>  <MODEL>
2

>  <REMARK>
 VINA RESULT:      -7.3      3.065      5.900
  Name = 
  6 active torsions:
  status: ('A' for Active; 'I' for Inactive)
    1  A    between atoms: C_1  and  C_3
    2  A    between atoms: C_2  and  N_25
    3  A    between atoms: C_6  and  C_15
    4  A    between atoms: C_6  and  C_23
    5  A    between atoms: C_15  and  C_21
    6  A    between atoms: C_21  and  N_25
                            x       y       z     vdW  Elec       q    Type
                         _______ _______ _______ _____ _____    ______ ____

>  <TORSDO>
F 6

$$$$
=
 OpenBabel10262419513D

 25 27  0  0  1  0  0  0  0  0999 V2000
  188.4850  177.3690  145.5720 C   0  0  0  0  0  0  0  0  0  0  0  0
  189.2300  176.5050  147.7130 O   0  0  0  0  0  1  0  0  0  0  0  0
  190.8510  176.9900  145.9880 C   0  0  0  0  0  0  0  0  0  0  0  0
  191.8780  176.5760  146.8270 O   0  0  0  0  0  1  0  0  0  0  0  0
  188.8010  177.8270  144.2830 C   0  0  0  0  0  3  0  0  0  0  0  0
  191.1520  177.4380  144.7000 C   0  0  0  0  0  3  0  0  0  0  0  0
  190.1280  177.8630  143.8480 C   0  0  0  0  0  0  0  0  0  0  0  0
  189.5200  176.9530  146.4290 C   0  0  0  0  0  0  0  0  0  0  0  0
  187.0500  177.3290  146.0460 C   0  0  2  0  0  3  0  0  0  0  0  0
  187.9360  178.8530  147.9790 C   0  0  0  0  0  1  0  0  0  0  0  0
  186.1170  177.8510  145.0080 C   0  0  0  0  0  0  0  0  0  0  0  0
  184.3320  179.2040  143.3680 C   0  0  0  0  0  3  0  0  0  0  0  0
  185.4730  178.9680  145.4660 C   0  0  0  0  0  0  0  0  0  0  0  0
  184.5740  179.6730  144.6690 C   0  0  0  0  0  3  0  0  0  0  0  0
  184.9890  178.0510  142.8940 C   0  0  0  0  0  3  0  0  0  0  0  0
  186.7330  178.2450  147.2710 C   0  0  1  0  0  3  0  0  0  0  0  0
  185.8330  179.2930  146.7930 N   0  0  0  0  0  2  0  0  0  0  0  0
  185.8950  177.3630  143.7180 C   0  0  0  0  0  3  0  0  0  0  0  0
  190.4380  178.3110  142.4640 C   0  0  0  0  0  2  0  0  0  0  0  0
  189.5040  177.6260  141.4810 C   0  0  0  0  0  2  0  0  0  0  0  0
  189.9160  177.9380  140.0520 C   0  0  0  0  0  2  0  0  0  0  0  0
  188.8850  178.7220  139.3810 N   0  0  0  0  0  2  0  0  0  0  0  0
  187.9200  177.7940  138.8100 C   0  0  1  0  0  3  0  0  0  0  0  0
  186.7750  178.5300  138.3030 N   0  0  0  0  0  1  0  0  0  0  0  0
  188.5680  177.0320  137.6720 C   0  0  0  0  0  1  0  0  0  0  0  0
  1  8  1  0  0  0  0
  3  8  2  0  0  0  0
  3  4  1  0  0  0  0
  5  1  2  0  0  0  0
  6  3  1  0  0  0  0
  7  5  1  0  0  0  0
  7  6  2  0  0  0  0
  8  2  1  0  0  0  0
  9  1  1  6  0  0  0
  9 16  1  0  0  0  0
 11 13  1  0  0  0  0
 11  9  1  0  0  0  0
 12 14  1  0  0  0  0
 13 17  1  0  0  0  0
 14 13  2  0  0  0  0
 15 12  2  0  0  0  0
 15 18  1  0  0  0  0
 16 10  1  6  0  0  0
 17 16  1  0  0  0  0
 18 11  2  0  0  0  0
 19  7  1  0  0  0  0
 20 19  1  0  0  0  0
 21 20  1  0  0  0  0
 22 21  1  0  0  0  0
 23 25  1  6  0  0  0
 23 22  1  0  0  0  0
 24 23  1  0  0  0  0
M  END
>  <MODEL>
3

>  <REMARK>
 VINA RESULT:      -7.2      1.166      1.407
  Name = 
  6 active torsions:
  status: ('A' for Active; 'I' for Inactive)
    1  A    between atoms: C_1  and  C_3
    2  A    between atoms: C_2  and  N_25
    3  A    between atoms: C_6  and  C_15
    4  A    between atoms: C_6  and  C_23
    5  A    between atoms: C_15  and  C_21
    6  A    between atoms: C_21  and  N_25
                            x       y       z     vdW  Elec       q    Type
                         _______ _______ _______ _____ _____    ______ ____

>  <TORSDO>
F 6

$$$$
=
 OpenBabel10262419513D

 25 27  0  0  1  0  0  0  0  0999 V2000
  189.6870  177.6760  144.4800 C   0  0  0  0  0  0  0  0  0  0  0  0
  191.6910  177.7810  145.8450 O   0  0  0  0  0  1  0  0  0  0  0  0
  189.5320  177.5410  146.9030 C   0  0  0  0  0  0  0  0  0  0  0  0
  190.1370  177.5350  148.1540 O   0  0  0  0  0  1  0  0  0  0  0  0
  188.2920  177.5500  144.4000 C   0  0  0  0  0  3  0  0  0  0  0  0
  188.1420  177.4260  146.8100 C   0  0  0  0  0  3  0  0  0  0  0  0
  187.5220  177.4240  145.5580 C   0  0  0  0  0  0  0  0  0  0  0  0
  190.3080  177.6660  145.7420 C   0  0  0  0  0  0  0  0  0  0  0  0
  190.5240  177.8120  143.2280 C   0  0  2  0  0  3  0  0  0  0  0  0
  191.4910  175.4930  143.9550 C   0  0  0  0  0  1  0  0  0  0  0  0
  189.6700  177.9540  142.0150 C   0  0  0  0  0  0  0  0  0  0  0  0
  188.2280  177.7710  139.6490 C   0  0  0  0  0  3  0  0  0  0  0  0
  189.8770  176.9040  141.1630 C   0  0  0  0  0  0  0  0  0  0  0  0
  189.1680  176.7780  139.9700 C   0  0  0  0  0  3  0  0  0  0  0  0
  188.0160  178.8570  140.5220 C   0  0  0  0  0  3  0  0  0  0  0  0
  191.3970  176.5650  142.8790 C   0  0  1  0  0  3  0  0  0  0  0  0
  190.8580  176.0050  141.6400 N   0  0  0  0  0  2  0  0  0  0  0  0
  188.7410  178.9550  141.7210 C   0  0  0  0  0  3  0  0  0  0  0  0
  186.0410  177.3350  145.4530 C   0  0  0  0  0  2  0  0  0  0  0  0
  185.4020  178.4960  146.1950 C   0  0  0  0  0  2  0  0  0  0  0  0
  184.1530  178.9690  145.4680 C   0  0  0  0  0  2  0  0  0  0  0  0
  184.4920  179.4680  144.1410 N   0  0  0  0  0  2  0  0  0  0  0  0
  183.8430  178.6090  143.1620 C   0  0  1  0  0  3  0  0  0  0  0  0
  182.4580  179.0140  142.9970 N   0  0  0  0  0  1  0  0  0  0  0  0
  184.5610  178.7300  141.8330 C   0  0  0  0  0  1  0  0  0  0  0  0
  1  8  1  0  0  0  0
  3  4  1  0  0  0  0
  5  1  2  0  0  0  0
  5  7  1  0  0  0  0
  6  3  1  0  0  0  0
  7  6  2  0  0  0  0
  8  2  1  0  0  0  0
  8  3  2  0  0  0  0
  9  1  1  1  0  0  0
 11  9  1  0  0  0  0
 12 14  2  0  0  0  0
 12 15  1  0  0  0  0
 13 17  1  0  0  0  0
 13 11  2  0  0  0  0
 14 13  1  0  0  0  0
 15 18  2  0  0  0  0
 16  9  1  0  0  0  0
 16 10  1  1  0  0  0
 17 16  1  0  0  0  0
 18 11  1  0  0  0  0
 19  7  1  0  0  0  0
 19 20  1  0  0  0  0
 21 20  1  0  0  0  0
 22 21  1  0  0  0  0
 23 25  1  6  0  0  0
 23 22  1  0  0  0  0
 24 23  1  0  0  0  0
M  END
>  <MODEL>
4

>  <REMARK>
 VINA RESULT:      -6.8      1.731      5.400
  Name = 
  6 active torsions:
  status: ('A' for Active; 'I' for Inactive)
    1  A    between atoms: C_1  and  C_3
    2  A    between atoms: C_2  and  N_25
    3  A    between atoms: C_6  and  C_15
    4  A    between atoms: C_6  and  C_23
    5  A    between atoms: C_15  and  C_21
    6  A    between atoms: C_21  and  N_25
                            x       y       z     vdW  Elec       q    Type
                         _______ _______ _______ _____ _____    ______ ____

>  <TORSDO>
F 6

$$$$
=
 OpenBabel10262419513D

 25 27  0  0  1  0  0  0  0  0999 V2000
  183.9000  178.6010  139.8960 C   0  0  0  0  0  0  0  0  0  0  0  0
  185.9300  178.6850  138.5700 O   0  0  0  0  0  1  0  0  0  0  0  0
  186.0680  178.8070  140.9790 C   0  0  0  0  0  0  0  0  0  0  0  0
  187.4510  178.9080  140.9020 O   0  0  0  0  0  1  0  0  0  0  0  0
  183.2870  178.6060  141.1590 C   0  0  0  0  0  3  0  0  0  0  0  0
  185.4450  178.8200  142.2300 C   0  0  0  0  0  3  0  0  0  0  0  0
  184.0540  178.7140  142.3210 C   0  0  0  0  0  0  0  0  0  0  0  0
  185.3010  178.6970  139.8110 C   0  0  0  0  0  0  0  0  0  0  0  0
  183.0720  178.4830  138.6360 C   0  0  2  0  0  3  0  0  0  0  0  0
  182.6000  176.0610  139.5030 C   0  0  0  0  0  1  0  0  0  0  0  0
  182.0000  179.5170  138.5900 C   0  0  0  0  0  0  0  0  0  0  0  0
  179.7000  181.0730  138.5830 C   0  0  0  0  0  3  0  0  0  0  0  0
  180.7670  178.9230  138.5850 C   0  0  0  0  0  0  0  0  0  0  0  0
  179.5930  179.6730  138.5850 C   0  0  0  0  0  3  0  0  0  0  0  0
  180.9680  181.6880  138.5830 C   0  0  0  0  0  3  0  0  0  0  0  0
  182.2620  177.1550  138.5000 C   0  0  1  0  0  3  0  0  0  0  0  0
  180.8470  177.5120  138.5840 N   0  0  0  0  0  2  0  0  0  0  0  0
  182.1350  180.9080  138.5890 C   0  0  0  0  0  3  0  0  0  0  0  0
  183.3820  178.7600  143.6470 C   0  0  0  0  0  2  0  0  0  0  0  0
  184.2700  179.4780  144.6480 C   0  0  0  0  0  2  0  0  0  0  0  0
  184.4710  178.6230  145.8890 C   0  0  0  0  0  2  0  0  0  0  0  0
  185.6100  179.1020  146.6620 N   0  0  0  0  0  2  0  0  0  0  0  0
  186.5850  178.0250  146.7350 C   0  0  1  0  0  3  0  0  0  0  0  0
  187.3630  177.9850  145.5090 N   0  0  0  0  0  1  0  0  0  0  0  0
  187.5140  178.2660  147.9070 C   0  0  0  0  0  1  0  0  0  0  0  0
  1  5  1  0  0  0  0
  2  8  1  0  0  0  0
  3  6  2  0  0  0  0
  4  3  1  0  0  0  0
  5  7  2  0  0  0  0
  6  7  1  0  0  0  0
  7 19  1  0  0  0  0
  8  1  2  0  0  0  0
  8  3  1  0  0  0  0
  9  1  1  1  0  0  0
 11  9  1  0  0  0  0
 12 14  2  0  0  0  0
 13 14  1  0  0  0  0
 13 11  2  0  0  0  0
 15 12  1  0  0  0  0
 15 18  2  0  0  0  0
 16 17  1  0  0  0  0
 16  9  1  0  0  0  0
 16 10  1  1  0  0  0
 17 13  1  0  0  0  0
 18 11  1  0  0  0  0
 19 20  1  0  0  0  0
 20 21  1  0  0  0  0
 21 22  1  0  0  0  0
 22 23  1  0  0  0  0
 23 25  1  1  0  0  0
 24 23  1  0  0  0  0
M  END
>  <MODEL>
5

>  <REMARK>
 VINA RESULT:      -6.7      4.840      8.087
  Name = 
  6 active torsions:
  status: ('A' for Active; 'I' for Inactive)
    1  A    between atoms: C_1  and  C_3
    2  A    between atoms: C_2  and  N_25
    3  A    between atoms: C_6  and  C_15
    4  A    between atoms: C_6  and  C_23
    5  A    between atoms: C_15  and  C_21
    6  A    between atoms: C_21  and  N_25
                            x       y       z     vdW  Elec       q    Type
                         _______ _______ _______ _____ _____    ______ ____

>  <TORSDO>
F 6

$$$$
=
 OpenBabel10262419513D

 25 27  0  0  1  0  0  0  0  0999 V2000
  189.6430  177.6990  146.6520 C   0  0  0  0  0  0  0  0  0  0  0  0
  190.5130  178.1000  148.8800 O   0  0  0  0  0  1  0  0  0  0  0  0
  188.1250  178.0140  148.5240 C   0  0  0  0  0  0  0  0  0  0  0  0
  187.9070  178.2540  149.8760 O   0  0  0  0  0  1  0  0  0  0  0  0
  188.5370  177.5290  145.8040 C   0  0  0  0  0  3  0  0  0  0  0  0
  187.0320  177.8520  147.6690 C   0  0  0  0  0  3  0  0  0  0  0  0
  187.2370  177.6040  146.3090 C   0  0  0  0  0  0  0  0  0  0  0  0
  189.4310  177.9380  148.0210 C   0  0  0  0  0  0  0  0  0  0  0  0
  191.0520  177.6180  146.1080 C   0  0  2  0  0  3  0  0  0  0  0  0
  191.0960  175.3070  147.3330 C   0  0  0  0  0  1  0  0  0  0  0  0
  191.0690  177.7120  144.6210 C   0  0  0  0  0  0  0  0  0  0  0  0
  191.2170  177.4180  141.8640 C   0  0  0  0  0  3  0  0  0  0  0  0
  191.5720  176.5620  144.0780 C   0  0  0  0  0  0  0  0  0  0  0  0
  191.6570  176.3790  142.6990 C   0  0  0  0  0  3  0  0  0  0  0  0
  190.7030  178.6060  142.4200 C   0  0  0  0  0  3  0  0  0  0  0  0
  191.7820  176.2620  146.3660 C   0  0  1  0  0  3  0  0  0  0  0  0
  191.9690  175.6280  145.0620 N   0  0  0  0  0  2  0  0  0  0  0  0
  190.6230  178.7610  143.8130 C   0  0  0  0  0  3  0  0  0  0  0  0
  186.0790  177.4630  145.3870 C   0  0  0  0  0  2  0  0  0  0  0  0
  186.5010  177.8220  143.9730 C   0  0  0  0  0  2  0  0  0  0  0  0
  185.3030  178.2910  143.1630 C   0  0  0  0  0  2  0  0  0  0  0  0
  185.7030  179.3090  142.1990 N   0  0  0  0  0  2  0  0  0  0  0  0
  185.9280  178.6510  140.9210 C   0  0  1  0  0  3  0  0  0  0  0  0
  185.2400  179.3780  139.8690 N   0  0  0  0  0  1  0  0  0  0  0  0
  187.4130  178.6280  140.6230 C   0  0  0  0  0  1  0  0  0  0  0  0
  1  8  1  0  0  0  0
  3  4  1  0  0  0  0
  5  7  1  0  0  0  0
  5  1  2  0  0  0  0
  6  3  1  0  0  0  0
  7  6  2  0  0  0  0
  8  3  2  0  0  0  0
  8  2  1  0  0  0  0
  9 16  1  0  0  0  0
  9  1  1  6  0  0  0
 11  9  1  0  0  0  0
 12 15  2  0  0  0  0
 12 14  1  0  0  0  0
 13 11  1  0  0  0  0
 13 17  1  0  0  0  0
 14 13  2  0  0  0  0
 15 18  1  0  0  0  0
 16 10  1  1  0  0  0
 17 16  1  0  0  0  0
 18 11  2  0  0  0  0
 19  7  1  0  0  0  0
 20 19  1  0  0  0  0
 21 20  1  0  0  0  0
 22 21  1  0  0  0  0
 23 25  1  6  0  0  0
 23 22  1  0  0  0  0
 24 23  1  0  0  0  0
M  END
>  <MODEL>
6

>  <REMARK>
 VINA RESULT:      -6.7      2.122      4.939
  Name = 
  6 active torsions:
  status: ('A' for Active; 'I' for Inactive)
    1  A    between atoms: C_1  and  C_3
    2  A    between atoms: C_2  and  N_25
    3  A    between atoms: C_6  and  C_15
    4  A    between atoms: C_6  and  C_23
    5  A    between atoms: C_15  and  C_21
    6  A    between atoms: C_21  and  N_25
                            x       y       z     vdW  Elec       q    Type
                         _______ _______ _______ _____ _____    ______ ____

>  <TORSDO>
F 6

$$$$
=
 OpenBabel10262419513D

 25 27  0  0  1  0  0  0  0  0999 V2000
  188.6310  177.2640  142.5230 C   0  0  0  0  0  0  0  0  0  0  0  0
  190.3930  176.1850  141.2520 O   0  0  0  0  0  1  0  0  0  0  0  0
  188.7110  177.4860  140.1030 C   0  0  0  0  0  0  0  0  0  0  0  0
  189.3140  177.2010  138.8830 O   0  0  0  0  0  1  0  0  0  0  0  0
  187.4820  178.0710  142.5430 C   0  0  0  0  0  3  0  0  0  0  0  0
  187.5620  178.2800  140.1350 C   0  0  0  0  0  3  0  0  0  0  0  0
  186.9500  178.5780  141.3550 C   0  0  0  0  0  0  0  0  0  0  0  0
  189.2490  176.9760  141.2930 C   0  0  0  0  0  0  0  0  0  0  0  0
  189.2090  176.7130  143.8070 C   0  0  2  0  0  3  0  0  0  0  0  0
  191.3110  178.1190  143.1380 C   0  0  0  0  0  1  0  0  0  0  0  0
  188.3700  177.0780  144.9840 C   0  0  0  0  0  0  0  0  0  0  0  0
  187.1720  178.0540  147.2900 C   0  0  0  0  0  3  0  0  0  0  0  0
  189.0830  177.8590  145.8510 C   0  0  0  0  0  0  0  0  0  0  0  0
  188.5130  178.3680  147.0160 C   0  0  0  0  0  3  0  0  0  0  0  0
  186.4360  177.2450  146.4010 C   0  0  0  0  0  3  0  0  0  0  0  0
  190.6070  177.2880  144.2010 C   0  0  1  0  0  3  0  0  0  0  0  0
  190.4130  178.0700  145.4210 N   0  0  0  0  0  2  0  0  0  0  0  0
  187.0350  176.7500  145.2320 C   0  0  0  0  0  3  0  0  0  0  0  0
  185.7080  179.3960  141.3940 C   0  0  0  0  0  2  0  0  0  0  0  0
  185.1040  179.3470  142.7860 C   0  0  0  0  0  2  0  0  0  0  0  0
  183.8520  178.4840  142.7910 C   0  0  0  0  0  2  0  0  0  0  0  0
  182.9120  178.9520  143.8030 N   0  0  0  0  0  2  0  0  0  0  0  0
  181.6400  179.2090  143.1450 C   0  0  1  0  0  3  0  0  0  0  0  0
  181.6810  178.7010  141.7850 N   0  0  0  0  0  1  0  0  0  0  0  0
  180.5300  178.5110  143.9050 C   0  0  0  0  0  1  0  0  0  0  0  0
  1  5  1  0  0  0  0
  2  8  1  0  0  0  0
  3  6  2  0  0  0  0
  3  8  1  0  0  0  0
  4  3  1  0  0  0  0
  6  7  1  0  0  0  0
  7 19  1  0  0  0  0
  7  5  2  0  0  0  0
  8  1  2  0  0  0  0
  9  1  1  6  0  0  0
  9 16  1  0  0  0  0
  9 11  1  0  0  0  0
 11 18  2  0  0  0  0
 11 13  1  0  0  0  0
 13 14  2  0  0  0  0
 14 12  1  0  0  0  0
 15 12  2  0  0  0  0
 16 10  1  6  0  0  0
 16 17  1  0  0  0  0
 17 13  1  0  0  0  0
 18 15  1  0  0  0  0
 19 20  1  0  0  0  0
 20 21  1  0  0  0  0
 21 22  1  0  0  0  0
 23 22  1  0  0  0  0
 23 25  1  1  0  0  0
 24 23  1  0  0  0  0
M  END
>  <MODEL>
7

>  <REMARK>
 VINA RESULT:      -6.7      3.253      6.084
  Name = 
  6 active torsions:
  status: ('A' for Active; 'I' for Inactive)
    1  A    between atoms: C_1  and  C_3
    2  A    between atoms: C_2  and  N_25
    3  A    between atoms: C_6  and  C_15
    4  A    between atoms: C_6  and  C_23
    5  A    between atoms: C_15  and  C_21
    6  A    between atoms: C_21  and  N_25
                            x       y       z     vdW  Elec       q    Type
                         _______ _______ _______ _____ _____    ______ ____

>  <TORSDO>
F 6

$$$$
=
 OpenBabel10262419513D

 25 27  0  0  1  0  0  0  0  0999 V2000
  187.9060  178.1440  145.8140 C   0  0  0  0  0  0  0  0  0  0  0  0
  187.2880  178.7530  148.0800 O   0  0  0  0  0  1  0  0  0  0  0  0
  185.5700  178.4730  146.4040 C   0  0  0  0  0  0  0  0  0  0  0  0
  184.5940  178.7870  147.3420 O   0  0  0  0  0  1  0  0  0  0  0  0
  187.5150  177.8400  144.5010 C   0  0  0  0  0  3  0  0  0  0  0  0
  185.1940  178.1780  145.0910 C   0  0  0  0  0  3  0  0  0  0  0  0
  186.1660  177.8550  144.1400 C   0  0  0  0  0  0  0  0  0  0  0  0
  186.9230  178.4570  146.7700 C   0  0  0  0  0  0  0  0  0  0  0  0
  189.3650  178.1280  146.2080 C   0  0  2  0  0  3  0  0  0  0  0  0
  188.6440  176.1340  147.7410 C   0  0  0  0  0  1  0  0  0  0  0  0
  190.2470  177.9210  145.0250 C   0  0  0  0  0  0  0  0  0  0  0  0
  191.9690  177.0970  143.0080 C   0  0  0  0  0  3  0  0  0  0  0  0
  190.9510  176.7550  145.1550 C   0  0  0  0  0  0  0  0  0  0  0  0
  191.8200  176.3100  144.1610 C   0  0  0  0  0  3  0  0  0  0  0  0
  191.2500  178.3010  142.8730 C   0  0  0  0  0  3  0  0  0  0  0  0
  189.7830  176.9510  147.1460 C   0  0  1  0  0  3  0  0  0  0  0  0
  190.6830  176.0950  146.3750 N   0  0  0  0  0  2  0  0  0  0  0  0
  190.3760  178.7230  143.8880 C   0  0  0  0  0  3  0  0  0  0  0  0
  185.7750  177.5710  142.7320 C   0  0  0  0  0  2  0  0  0  0  0  0
  185.7910  178.8580  141.9260 C   0  0  0  0  0  2  0  0  0  0  0  0
  186.4530  178.6320  140.5770 C   0  0  0  0  0  2  0  0  0  0  0  0
  187.9050  178.6830  140.7030 N   0  0  0  0  0  2  0  0  0  0  0  0
  188.4780  178.0150  139.5440 C   0  0  1  0  0  3  0  0  0  0  0  0
  189.0570  179.0010  138.6480 N   0  0  0  0  0  1  0  0  0  0  0  0
  189.5610  177.0580  140.0000 C   0  0  0  0  0  1  0  0  0  0  0  0
  1  8  1  0  0  0  0
  3  8  2  0  0  0  0
  3  4  1  0  0  0  0
  5  1  2  0  0  0  0
  6  3  1  0  0  0  0
  7  5  1  0  0  0  0
  7  6  2  0  0  0  0
  8  2  1  0  0  0  0
  9  1  1  6  0  0  0
  9 16  1  0  0  0  0
 11 13  1  0  0  0  0
 11  9  1  0  0  0  0
 12 14  1  0  0  0  0
 13 17  1  0  0  0  0
 14 13  2  0  0  0  0
 15 12  2  0  0  0  0
 15 18  1  0  0  0  0
 16 10  1  6  0  0  0
 17 16  1  0  0  0  0
 18 11  2  0  0  0  0
 19  7  1  0  0  0  0
 20 19  1  0  0  0  0
 21 22  1  0  0  0  0
 21 20  1  0  0  0  0
 23 25  1  1  0  0  0
 23 22  1  0  0  0  0
 24 23  1  0  0  0  0
M  END
>  <MODEL>
8

>  <REMARK>
 VINA RESULT:      -6.7      2.110      4.706
  Name = 
  6 active torsions:
  status: ('A' for Active; 'I' for Inactive)
    1  A    between atoms: C_1  and  C_3
    2  A    between atoms: C_2  and  N_25
    3  A    between atoms: C_6  and  C_15
    4  A    between atoms: C_6  and  C_23
    5  A    between atoms: C_15  and  C_21
    6  A    between atoms: C_21  and  N_25
                            x       y       z     vdW  Elec       q    Type
                         _______ _______ _______ _____ _____    ______ ____

>  <TORSDO>
F 6

$$$$
=
 OpenBabel10262419513D

 25 27  0  0  1  0  0  0  0  0999 V2000
  187.9240  178.1310  145.8950 C   0  0  0  0  0  0  0  0  0  0  0  0
  187.3240  178.6130  148.1960 O   0  0  0  0  0  1  0  0  0  0  0  0
  185.5930  178.4290  146.5200 C   0  0  0  0  0  0  0  0  0  0  0  0
  184.6250  178.6910  147.4820 O   0  0  0  0  0  1  0  0  0  0  0  0
  187.5220  177.9010  144.5700 C   0  0  0  0  0  3  0  0  0  0  0  0
  185.2070  178.2090  145.1960 C   0  0  0  0  0  3  0  0  0  0  0  0
  186.1710  177.9380  144.2210 C   0  0  0  0  0  0  0  0  0  0  0  0
  186.9490  178.3910  146.8740 C   0  0  0  0  0  0  0  0  0  0  0  0
  189.3870  178.0910  146.2760 C   0  0  2  0  0  3  0  0  0  0  0  0
  188.6540  176.0810  147.7830 C   0  0  0  0  0  1  0  0  0  0  0  0
  190.2560  177.8920  145.0820 C   0  0  0  0  0  0  0  0  0  0  0  0
  191.9500  177.0810  143.0380 C   0  0  0  0  0  3  0  0  0  0  0  0
  190.9470  176.7160  145.1870 C   0  0  0  0  0  0  0  0  0  0  0  0
  191.8020  176.2760  144.1790 C   0  0  0  0  0  3  0  0  0  0  0  0
  191.2450  178.2960  142.9290 C   0  0  0  0  0  3  0  0  0  0  0  0
  189.7980  176.8940  147.1920 C   0  0  1  0  0  3  0  0  0  0  0  0
  190.6810  176.0400  146.3990 N   0  0  0  0  0  2  0  0  0  0  0  0
  190.3850  178.7120  143.9580 C   0  0  0  0  0  3  0  0  0  0  0  0
  185.7690  177.7340  142.8030 C   0  0  0  0  0  2  0  0  0  0  0  0
  186.9180  178.1150  141.8840 C   0  0  0  0  0  2  0  0  0  0  0  0
  186.3910  178.7810  140.6230 C   0  0  0  0  0  2  0  0  0  0  0  0
  185.0440  179.2960  140.8400 N   0  0  0  0  0  2  0  0  0  0  0  0
  184.3100  179.1660  139.5910 C   0  0  1  0  0  3  0  0  0  0  0  0
  184.1000  180.4800  139.0080 N   0  0  0  0  0  1  0  0  0  0  0  0
  185.1090  178.3140  138.6250 C   0  0  0  0  0  1  0  0  0  0  0  0
  1  8  1  0  0  0  0
  3  8  2  0  0  0  0
  3  4  1  0  0  0  0
  5  1  2  0  0  0  0
  6  3  1  0  0  0  0
  7  5  1  0  0  0  0
  7  6  2  0  0  0  0
  8  2  1  0  0  0  0
  9  1  1  6  0  0  0
  9 16  1  0  0  0  0
 11 13  1  0  0  0  0
 11  9  1  0  0  0  0
 12 14  1  0  0  0  0
 13 17  1  0  0  0  0
 14 13  2  0  0  0  0
 15 12  2  0  0  0  0
 15 18  1  0  0  0  0
 16 10  1  6  0  0  0
 17 16  1  0  0  0  0
 18 11  2  0  0  0  0
 19  7  1  0  0  0  0
 20 19  1  0  0  0  0
 21 22  1  0  0  0  0
 21 20  1  0  0  0  0
 23 25  1  6  0  0  0
 23 22  1  0  0  0  0
 24 23  1  0  0  0  0
M  END
>  <MODEL>
9

>  <REMARK>
 VINA RESULT:      -6.6      2.793      5.097
  Name = 
  6 active torsions:
  status: ('A' for Active; 'I' for Inactive)
    1  A    between atoms: C_1  and  C_3
    2  A    between atoms: C_2  and  N_25
    3  A    between atoms: C_6  and  C_15
    4  A    between atoms: C_6  and  C_23
    5  A    between atoms: C_15  and  C_21
    6  A    between atoms: C_21  and  N_25
                            x       y       z     vdW  Elec       q    Type
                         _______ _______ _______ _____ _____    ______ ____

>  <TORSDO>
F 6

$$$$
