=
 OpenBabel10262419573D

 25 26  0  0  1  0  0  0  0  0999 V2000
  189.9010  177.5410  141.4580 C   0  0  1  0  0  3  0  0  0  0  0  0
  189.7950  178.1380  143.9050 C   0  0  0  0  0  2  0  0  0  0  0  0
  191.3120  176.2740  143.1300 C   0  0  0  0  0  2  0  0  0  0  0  0
  191.9750  177.1500  146.4400 O   0  0  0  0  0  0  0  0  0  0  0  0
  191.2130  176.9120  145.5190 C   0  0  0  0  0  0  0  0  0  0  0  0
  191.4950  175.7920  144.5710 C   0  0  0  0  0  2  0  0  0  0  0  0
  189.9590  176.9780  142.8990 C   0  0  0  0  0  0  0  0  0  0  0  0
  189.9490  177.6930  145.3610 C   0  0  0  0  0  2  0  0  0  0  0  0
  188.8220  175.9620  143.0870 C   0  0  0  0  0  2  0  0  0  0  0  0
  187.6770  176.5750  143.6050 O   0  0  0  0  0  1  0  0  0  0  0  0
  192.1810  177.8170  140.8090 O   0  0  0  0  0  0  0  0  0  0  0  0
  191.1020  177.1900  140.6270 C   0  0  0  0  0  0  0  0  0  0  0  0
  191.0210  176.1730  139.6740 O   0  0  0  0  0  0  0  0  0  0  0  0
  191.2810  176.4120  138.3000 C   0  0  0  0  0  1  0  0  0  0  0  0
  188.6810  177.1280  140.7720 N   0  0  0  0  0  2  0  0  0  0  0  0
  188.1210  178.3140  140.1460 C   0  0  0  0  0  2  0  0  0  0  0  0
  186.8410  178.7160  140.8530 C   0  0  0  0  0  2  0  0  0  0  0  0
  185.7690  178.8760  139.8840 N   0  0  0  0  0  2  0  0  0  0  0  0
  184.5440  179.1030  140.6340 C   0  0  0  0  0  2  0  0  0  0  0  0
  184.5490  178.2770  141.9090 C   0  0  0  0  0  2  0  0  0  0  0  0
  184.3040  179.1370  143.0550 N   0  0  0  0  0  2  0  0  0  0  0  0
  183.7360  178.9080  145.3950 C   0  0  0  0  0  2  0  0  0  0  0  0
  185.2230  179.1670  145.2890 C   0  0  1  0  0  3  0  0  0  0  0  0
  185.9590  178.2480  146.2410 C   0  0  0  0  0  1  0  0  0  0  0  0
  184.5230  178.3280  144.2390 C   0  0  2  0  0  3  0  0  0  0  0  0
  1 12  1  6  0  0  0
  1  7  1  0  0  0  0
  2  8  1  0  0  0  0
  3  6  1  0  0  0  0
  5  4  2  0  0  0  0
  6  5  1  0  0  0  0
  7  9  1  0  0  0  0
  7  3  1  0  0  0  0
  7  2  1  0  0  0  0
  8  5  1  0  0  0  0
  9 10  1  0  0  0  0
 12 11  2  0  0  0  0
 13 12  1  0  0  0  0
 14 13  1  0  0  0  0
 15  1  1  0  0  0  0
 16 15  1  0  0  0  0
 16 17  1  0  0  0  0
 18 19  1  0  0  0  0
 18 17  1  0  0  0  0
 19 20  1  0  0  0  0
 20 21  1  0  0  0  0
 23 22  1  0  0  0  0
 23 24  1  1  0  0  0
 25 21  1  6  0  0  0
 25 23  1  0  0  0  0
 25 22  1  0  0  0  0
M  END
>  <MODEL>
1

>  <REMARK>
 VINA RESULT:      -6.4      0.000      0.000
  Name = 
  12 active torsions:
  status: ('A' for Active; 'I' for Inactive)
    1  A    between atoms: C_1  and  N_3
    2  A    between atoms: C_1  and  C_18
    3  A    between atoms: C_1  and  C_24
    4  A    between atoms: N_3  and  C_16
    5  A    between atoms: C_6  and  C_15
    6  A    between atoms: C_6  and  N_21
    7  A    between atoms: O_13  and  C_24
    8  A    between atoms: C_15  and  N_20
    9  A    between atoms: C_16  and  C_23
   10  A    between atoms: C_17  and  C_18
   11  A    between atoms: N_20  and  C_23
   12  A    between atoms: N_21  and  C_25
                            x       y       z     vdW  Elec       q    Type
                         _______ _______ _______ _____ _____    ______ ____

>  <TORSDO>
F 12

$$$$
=
 OpenBabel10262419573D

 25 26  0  0  1  0  0  0  0  0999 V2000
  190.2690  176.7960  144.8800 C   0  0  1  0  0  3  0  0  0  0  0  0
  189.1960  177.1520  142.6270 C   0  0  0  0  0  2  0  0  0  0  0  0
  191.7060  176.9380  142.8050 C   0  0  0  0  0  2  0  0  0  0  0  0
  190.6560  176.7710  139.4830 O   0  0  0  0  0  0  0  0  0  0  0  0
  190.6170  177.2490  140.6040 C   0  0  0  0  0  0  0  0  0  0  0  0
  191.8760  177.4680  141.3790 C   0  0  0  0  0  2  0  0  0  0  0  0
  190.4320  177.4690  143.4960 C   0  0  0  0  0  0  0  0  0  0  0  0
  189.3170  177.6850  141.1970 C   0  0  0  0  0  2  0  0  0  0  0  0
  190.5570  178.9870  143.6870 C   0  0  0  0  0  2  0  0  0  0  0  0
  191.8480  179.3410  144.0930 O   0  0  0  0  0  1  0  0  0  0  0  0
  192.1050  175.2750  144.7820 O   0  0  0  0  0  0  0  0  0  0  0  0
  191.5430  176.2080  145.4170 C   0  0  0  0  0  0  0  0  0  0  0  0
  192.0970  176.7010  146.6000 O   0  0  0  0  0  0  0  0  0  0  0  0
  192.4150  175.8490  147.6900 C   0  0  0  0  0  1  0  0  0  0  0  0
  189.6930  177.7160  145.8560 N   0  0  0  0  0  2  0  0  0  0  0  0
  188.3680  177.2160  146.1830 C   0  0  0  0  0  2  0  0  0  0  0  0
  188.1560  177.2600  147.6840 C   0  0  0  0  0  2  0  0  0  0  0  0
  187.2620  178.3540  148.0260 N   0  0  0  0  0  2  0  0  0  0  0  0
  186.4670  178.6440  146.8430 C   0  0  0  0  0  2  0  0  0  0  0  0
  185.0090  178.2960  147.0920 C   0  0  0  0  0  2  0  0  0  0  0  0
  184.1890  178.7930  146.0000 N   0  0  0  0  0  2  0  0  0  0  0  0
  184.3910  179.9090  143.8640 C   0  0  0  0  0  2  0  0  0  0  0  0
  184.4750  178.4170  143.6310 C   0  0  1  0  0  3  0  0  0  0  0  0
  185.5820  178.1280  142.6390 C   0  0  0  0  0  1  0  0  0  0  0  0
  185.0820  179.0240  144.8800 C   0  0  2  0  0  3  0  0  0  0  0  0
  1 12  1  1  0  0  0
  1 15  1  0  0  0  0
  2  7  1  0  0  0  0
  3  7  1  0  0  0  0
  4  5  2  0  0  0  0
  5  8  1  0  0  0  0
  5  6  1  0  0  0  0
  6  3  1  0  0  0  0
  7  9  1  0  0  0  0
  7  1  1  0  0  0  0
  8  2  1  0  0  0  0
  9 10  1  0  0  0  0
 11 12  2  0  0  0  0
 12 13  1  0  0  0  0
 13 14  1  0  0  0  0
 15 16  1  0  0  0  0
 16 17  1  0  0  0  0
 17 18  1  0  0  0  0
 19 20  1  0  0  0  0
 19 18  1  0  0  0  0
 21 20  1  0  0  0  0
 22 25  1  0  0  0  0
 23 24  1  6  0  0  0
 23 22  1  0  0  0  0
 23 25  1  0  0  0  0
 25 21  1  1  0  0  0
M  END
>  <MODEL>
2

>  <REMARK>
 VINA RESULT:      -6.4      2.347      5.022
  Name = 
  12 active torsions:
  status: ('A' for Active; 'I' for Inactive)
    1  A    between atoms: C_1  and  N_3
    2  A    between atoms: C_1  and  C_18
    3  A    between atoms: C_1  and  C_24
    4  A    between atoms: N_3  and  C_16
    5  A    between atoms: C_6  and  C_15
    6  A    between atoms: C_6  and  N_21
    7  A    between atoms: O_13  and  C_24
    8  A    between atoms: C_15  and  N_20
    9  A    between atoms: C_16  and  C_23
   10  A    between atoms: C_17  and  C_18
   11  A    between atoms: N_20  and  C_23
   12  A    between atoms: N_21  and  C_25
                            x       y       z     vdW  Elec       q    Type
                         _______ _______ _______ _____ _____    ______ ____

>  <TORSDO>
F 12

$$$$
=
 OpenBabel10262419573D

 25 26  0  0  1  0  0  0  0  0999 V2000
  189.8120  177.8720  142.6640 C   0  0  1  0  0  3  0  0  0  0  0  0
  190.9710  176.8500  144.6570 C   0  0  0  0  0  2  0  0  0  0  0  0
  188.6970  177.9140  144.9330 C   0  0  0  0  0  2  0  0  0  0  0  0
  189.5960  176.0990  147.7720 O   0  0  0  0  0  0  0  0  0  0  0  0
  189.8450  176.8680  146.8600 C   0  0  0  0  0  0  0  0  0  0  0  0
  188.8540  177.9120  146.4560 C   0  0  0  0  0  2  0  0  0  0  0  0
  190.0460  177.9960  144.1890 C   0  0  0  0  0  0  0  0  0  0  0  0
  191.1720  176.8260  146.1730 C   0  0  0  0  0  2  0  0  0  0  0  0
  190.7060  179.3500  144.4880 C   0  0  0  0  0  2  0  0  0  0  0  0
  192.0470  179.3570  144.0940 O   0  0  0  0  0  1  0  0  0  0  0  0
  190.4170  175.6860  141.9190 O   0  0  0  0  0  0  0  0  0  0  0  0
  190.7400  176.9030  141.9900 C   0  0  0  0  0  0  0  0  0  0  0  0
  191.9420  177.3530  141.4400 O   0  0  0  0  0  0  0  0  0  0  0  0
  192.1280  177.4700  140.0380 C   0  0  0  0  0  1  0  0  0  0  0  0
  188.4260  177.5290  142.3630 N   0  0  0  0  0  2  0  0  0  0  0  0
  188.0530  178.2680  141.1690 C   0  0  0  0  0  2  0  0  0  0  0  0
  186.5890  178.6570  141.2400 C   0  0  0  0  0  2  0  0  0  0  0  0
  186.0400  178.7640  139.8970 N   0  0  0  0  0  2  0  0  0  0  0  0
  184.6260  179.0790  140.0360 C   0  0  0  0  0  2  0  0  0  0  0  0
  183.9910  178.1880  141.0900 C   0  0  0  0  0  2  0  0  0  0  0  0
  183.4420  179.0040  142.1600 N   0  0  0  0  0  2  0  0  0  0  0  0
  182.9150  178.7620  144.5080 C   0  0  0  0  0  2  0  0  0  0  0  0
  184.2150  179.5260  144.3890 C   0  0  1  0  0  3  0  0  0  0  0  0
  185.1970  179.0040  145.4150 C   0  0  0  0  0  1  0  0  0  0  0  0
  183.8950  178.4170  143.4070 C   0  0  2  0  0  3  0  0  0  0  0  0
  1 12  1  1  0  0  0
  1  7  1  0  0  0  0
  2  8  1  0  0  0  0
  3  6  1  0  0  0  0
  5  4  2  0  0  0  0
  6  5  1  0  0  0  0
  7  9  1  0  0  0  0
  7  2  1  0  0  0  0
  7  3  1  0  0  0  0
  8  5  1  0  0  0  0
 10  9  1  0  0  0  0
 11 12  2  0  0  0  0
 13 12  1  0  0  0  0
 14 13  1  0  0  0  0
 15  1  1  0  0  0  0
 16 17  1  0  0  0  0
 16 15  1  0  0  0  0
 18 19  1  0  0  0  0
 18 17  1  0  0  0  0
 19 20  1  0  0  0  0
 20 21  1  0  0  0  0
 23 22  1  0  0  0  0
 23 24  1  1  0  0  0
 25 21  1  6  0  0  0
 25 23  1  0  0  0  0
 25 22  1  0  0  0  0
M  END
>  <MODEL>
3

>  <REMARK>
 VINA RESULT:      -6.3      1.498      2.275
  Name = 
  12 active torsions:
  status: ('A' for Active; 'I' for Inactive)
    1  A    between atoms: C_1  and  N_3
    2  A    between atoms: C_1  and  C_18
    3  A    between atoms: C_1  and  C_24
    4  A    between atoms: N_3  and  C_16
    5  A    between atoms: C_6  and  C_15
    6  A    between atoms: C_6  and  N_21
    7  A    between atoms: O_13  and  C_24
    8  A    between atoms: C_15  and  N_20
    9  A    between atoms: C_16  and  C_23
   10  A    between atoms: C_17  and  C_18
   11  A    between atoms: N_20  and  C_23
   12  A    between atoms: N_21  and  C_25
                            x       y       z     vdW  Elec       q    Type
                         _______ _______ _______ _____ _____    ______ ____

>  <TORSDO>
F 12

$$$$
=
 OpenBabel10262419573D

 25 26  0  0  1  0  0  0  0  0999 V2000
  188.7020  178.2750  141.1060 C   0  0  1  0  0  3  0  0  0  0  0  0
  189.2850  176.3400  142.6140 C   0  0  0  0  0  2  0  0  0  0  0  0
  190.5950  178.4940  142.7680 C   0  0  0  0  0  2  0  0  0  0  0  0
  191.3250  176.3780  145.4420 O   0  0  0  0  0  0  0  0  0  0  0  0
  191.1160  176.5900  144.2600 C   0  0  0  0  0  0  0  0  0  0  0  0
  191.6810  177.8030  143.5950 C   0  0  0  0  0  2  0  0  0  0  0  0
  189.8590  177.5300  141.8140 C   0  0  0  0  0  0  0  0  0  0  0  0
  190.3460  175.6070  143.4390 C   0  0  0  0  0  2  0  0  0  0  0  0
  190.8480  177.0160  140.7560 C   0  0  0  0  0  2  0  0  0  0  0  0
  191.9410  177.8780  140.6260 O   0  0  0  0  0  1  0  0  0  0  0  0
  189.0350  179.0370  138.8680 O   0  0  0  0  0  0  0  0  0  0  0  0
  188.6870  178.0830  139.6160 C   0  0  0  0  0  0  0  0  0  0  0  0
  188.3000  176.8560  139.0720 O   0  0  0  0  0  0  0  0  0  0  0  0
  187.9400  176.7230  137.7060 C   0  0  0  0  0  1  0  0  0  0  0  0
  187.4080  177.9090  141.6700 N   0  0  0  0  0  2  0  0  0  0  0  0
  186.4490  178.9040  141.2180 C   0  0  0  0  0  2  0  0  0  0  0  0
  185.1530  178.7610  141.9930 C   0  0  0  0  0  2  0  0  0  0  0  0
  185.2830  179.3940  143.2960 N   0  0  0  0  0  2  0  0  0  0  0  0
  184.4700  178.6290  144.2280 C   0  0  0  0  0  2  0  0  0  0  0  0
  184.8490  178.9710  145.6580 C   0  0  0  0  0  2  0  0  0  0  0  0
  185.5970  177.8730  146.2460 N   0  0  0  0  0  2  0  0  0  0  0  0
  187.8960  177.8780  145.4940 C   0  0  0  0  0  2  0  0  0  0  0  0
  187.8420  177.2160  146.8540 C   0  0  1  0  0  3  0  0  0  0  0  0
  188.9950  177.7150  147.6980 C   0  0  0  0  0  1  0  0  0  0  0  0
  186.9250  178.3810  146.5400 C   0  0  2  0  0  3  0  0  0  0  0  0
  1 12  1  6  0  0  0
  1 15  1  0  0  0  0
  1  7  1  0  0  0  0
  2  8  1  0  0  0  0
  3  6  1  0  0  0  0
  5  4  2  0  0  0  0
  6  5  1  0  0  0  0
  7  2  1  0  0  0  0
  7  3  1  0  0  0  0
  8  5  1  0  0  0  0
  9  7  1  0  0  0  0
 10  9  1  0  0  0  0
 11 12  2  0  0  0  0
 13 12  1  0  0  0  0
 14 13  1  0  0  0  0
 16 15  1  0  0  0  0
 16 17  1  0  0  0  0
 17 18  1  0  0  0  0
 18 19  1  0  0  0  0
 19 20  1  0  0  0  0
 20 21  1  0  0  0  0
 22 25  1  0  0  0  0
 22 23  1  0  0  0  0
 23 24  1  1  0  0  0
 25 21  1  6  0  0  0
 25 23  1  0  0  0  0
M  END
>  <MODEL>
4

>  <REMARK>
 VINA RESULT:      -6.2      1.756      3.049
  Name = 
  12 active torsions:
  status: ('A' for Active; 'I' for Inactive)
    1  A    between atoms: C_1  and  N_3
    2  A    between atoms: C_1  and  C_18
    3  A    between atoms: C_1  and  C_24
    4  A    between atoms: N_3  and  C_16
    5  A    between atoms: C_6  and  C_15
    6  A    between atoms: C_6  and  N_21
    7  A    between atoms: O_13  and  C_24
    8  A    between atoms: C_15  and  N_20
    9  A    between atoms: C_16  and  C_23
   10  A    between atoms: C_17  and  C_18
   11  A    between atoms: N_20  and  C_23
   12  A    between atoms: N_21  and  C_25
                            x       y       z     vdW  Elec       q    Type
                         _______ _______ _______ _____ _____    ______ ____

>  <TORSDO>
F 12

$$$$
=
 OpenBabel10262419573D

 25 26  0  0  1  0  0  0  0  0999 V2000
  188.3590  177.5850  144.2110 C   0  0  1  0  0  3  0  0  0  0  0  0
  190.5640  176.4480  144.6650 C   0  0  0  0  0  2  0  0  0  0  0  0
  189.2290  177.4130  146.5790 C   0  0  0  0  0  2  0  0  0  0  0  0
  191.8380  175.4110  147.7410 O   0  0  0  0  0  0  0  0  0  0  0  0
  191.3770  176.2570  146.9940 C   0  0  0  0  0  0  0  0  0  0  0  0
  190.4370  177.2960  147.5120 C   0  0  0  0  0  2  0  0  0  0  0  0
  189.6260  177.5960  145.1000 C   0  0  0  0  0  0  0  0  0  0  0  0
  191.7970  176.3120  145.5600 C   0  0  0  0  0  2  0  0  0  0  0  0
  190.3440  178.9440  144.9340 C   0  0  0  0  0  2  0  0  0  0  0  0
  191.0940  178.9750  143.7550 O   0  0  0  0  0  1  0  0  0  0  0  0
  188.3220  175.5890  142.9020 O   0  0  0  0  0  0  0  0  0  0  0  0
  188.5350  176.8320  142.9230 C   0  0  0  0  0  0  0  0  0  0  0  0
  188.9200  177.5090  141.7640 O   0  0  0  0  0  0  0  0  0  0  0  0
  188.0290  178.3660  141.0670 C   0  0  0  0  0  1  0  0  0  0  0  0
  187.2030  177.0700  144.9370 N   0  0  0  0  0  2  0  0  0  0  0  0
  186.0930  177.9690  144.6650 C   0  0  0  0  0  2  0  0  0  0  0  0
  185.6450  178.6400  145.9490 C   0  0  0  0  0  2  0  0  0  0  0  0
  184.2300  178.9660  145.8690 N   0  0  0  0  0  2  0  0  0  0  0  0
  183.8960  179.0810  144.4590 C   0  0  0  0  0  2  0  0  0  0  0  0
  182.4350  178.7300  144.2360 C   0  0  0  0  0  2  0  0  0  0  0  0
  182.0760  178.9680  142.8480 N   0  0  0  0  0  2  0  0  0  0  0  0
  179.8870  178.5380  141.9110 C   0  0  0  0  0  2  0  0  0  0  0  0
  180.3390  179.9090  141.4560 C   0  0  1  0  0  3  0  0  0  0  0  0
  179.1800  180.8770  141.5630 C   0  0  0  0  0  1  0  0  0  0  0  0
  180.6950  179.4160  142.8440 C   0  0  2  0  0  3  0  0  0  0  0  0
  1 12  1  6  0  0  0
  1 15  1  0  0  0  0
  1  7  1  0  0  0  0
  2  7  1  0  0  0  0
  2  8  1  0  0  0  0
  3  6  1  0  0  0  0
  5  6  1  0  0  0  0
  5  4  2  0  0  0  0
  7  3  1  0  0  0  0
  8  5  1  0  0  0  0
  9  7  1  0  0  0  0
 10  9  1  0  0  0  0
 11 12  2  0  0  0  0
 13 12  1  0  0  0  0
 14 13  1  0  0  0  0
 16 15  1  0  0  0  0
 16 17  1  0  0  0  0
 18 17  1  0  0  0  0
 19 18  1  0  0  0  0
 20 19  1  0  0  0  0
 21 20  1  0  0  0  0
 22 25  1  0  0  0  0
 23 24  1  1  0  0  0
 23 22  1  0  0  0  0
 23 25  1  0  0  0  0
 25 21  1  6  0  0  0
M  END
>  <MODEL>
5

>  <REMARK>
 VINA RESULT:      -6.0      2.585      4.295
  Name = 
  12 active torsions:
  status: ('A' for Active; 'I' for Inactive)
    1  A    between atoms: C_1  and  N_3
    2  A    between atoms: C_1  and  C_18
    3  A    between atoms: C_1  and  C_24
    4  A    between atoms: N_3  and  C_16
    5  A    between atoms: C_6  and  C_15
    6  A    between atoms: C_6  and  N_21
    7  A    between atoms: O_13  and  C_24
    8  A    between atoms: C_15  and  N_20
    9  A    between atoms: C_16  and  C_23
   10  A    between atoms: C_17  and  C_18
   11  A    between atoms: N_20  and  C_23
   12  A    between atoms: N_21  and  C_25
                            x       y       z     vdW  Elec       q    Type
                         _______ _______ _______ _____ _____    ______ ____

>  <TORSDO>
F 12

$$$$
=
 OpenBabel10262419573D

 25 26  0  0  1  0  0  0  0  0999 V2000
  189.4630  177.5990  142.7060 C   0  0  1  0  0  3  0  0  0  0  0  0
  191.1390  176.8180  144.4200 C   0  0  0  0  0  2  0  0  0  0  0  0
  188.8650  177.6280  145.1620 C   0  0  0  0  0  2  0  0  0  0  0  0
  190.5680  176.0730  147.7790 O   0  0  0  0  0  0  0  0  0  0  0  0
  190.5190  176.8190  146.8160 C   0  0  0  0  0  0  0  0  0  0  0  0
  189.3450  177.7200  146.6130 C   0  0  0  0  0  2  0  0  0  0  0  0
  190.0030  177.8250  144.1390 C   0  0  0  0  0  0  0  0  0  0  0  0
  191.6630  176.8930  145.8560 C   0  0  0  0  0  2  0  0  0  0  0  0
  190.5400  179.2600  144.2520 C   0  0  0  0  0  2  0  0  0  0  0  0
  191.8710  179.3350  143.8310 O   0  0  0  0  0  1  0  0  0  0  0  0
  190.0100  175.2820  142.5220 O   0  0  0  0  0  0  0  0  0  0  0  0
  190.0930  176.4290  142.0050 C   0  0  0  0  0  0  0  0  0  0  0  0
  190.7530  176.6160  140.7880 O   0  0  0  0  0  0  0  0  0  0  0  0
  191.8450  177.5120  140.6580 C   0  0  0  0  0  1  0  0  0  0  0  0
  188.0110  177.4630  142.6980 N   0  0  0  0  0  2  0  0  0  0  0  0
  187.5020  178.3800  141.6910 C   0  0  0  0  0  2  0  0  0  0  0  0
  186.0820  178.7860  142.0320 C   0  0  0  0  0  2  0  0  0  0  0  0
  185.4810  179.4800  140.9040 N   0  0  0  0  0  2  0  0  0  0  0  0
  184.4140  178.6300  140.3980 C   0  0  0  0  0  2  0  0  0  0  0  0
  184.5510  178.4550  138.8950 C   0  0  0  0  0  2  0  0  0  0  0  0
  185.8820  178.8540  138.4710 N   0  0  0  0  0  2  0  0  0  0  0  0
  187.7740  177.6120  137.6160 C   0  0  0  0  0  2  0  0  0  0  0  0
  187.3100  178.5710  136.5420 C   0  0  1  0  0  3  0  0  0  0  0  0
  187.3070  177.8610  135.2060 C   0  0  0  0  0  1  0  0  0  0  0  0
  186.2980  177.9060  137.4530 C   0  0  2  0  0  3  0  0  0  0  0  0
  1 12  1  1  0  0  0
  1  7  1  0  0  0  0
  2  8  1  0  0  0  0
  3  6  1  0  0  0  0
  5  4  2  0  0  0  0
  6  5  1  0  0  0  0
  7  9  1  0  0  0  0
  7  2  1  0  0  0  0
  7  3  1  0  0  0  0
  8  5  1  0  0  0  0
 10  9  1  0  0  0  0
 12 11  2  0  0  0  0
 13 12  1  0  0  0  0
 14 13  1  0  0  0  0
 15  1  1  0  0  0  0
 16 17  1  0  0  0  0
 16 15  1  0  0  0  0
 18 17  1  0  0  0  0
 19 18  1  0  0  0  0
 20 19  1  0  0  0  0
 21 20  1  0  0  0  0
 23 24  1  6  0  0  0
 23 25  1  0  0  0  0
 23 22  1  0  0  0  0
 25 22  1  0  0  0  0
 25 21  1  1  0  0  0
M  END
>  <MODEL>
6

>  <REMARK>
 VINA RESULT:      -5.8      2.089      4.410
  Name = 
  12 active torsions:
  status: ('A' for Active; 'I' for Inactive)
    1  A    between atoms: C_1  and  N_3
    2  A    between atoms: C_1  and  C_18
    3  A    between atoms: C_1  and  C_24
    4  A    between atoms: N_3  and  C_16
    5  A    between atoms: C_6  and  C_15
    6  A    between atoms: C_6  and  N_21
    7  A    between atoms: O_13  and  C_24
    8  A    between atoms: C_15  and  N_20
    9  A    between atoms: C_16  and  C_23
   10  A    between atoms: C_17  and  C_18
   11  A    between atoms: N_20  and  C_23
   12  A    between atoms: N_21  and  C_25
                            x       y       z     vdW  Elec       q    Type
                         _______ _______ _______ _____ _____    ______ ____

>  <TORSDO>
F 12

$$$$
=
 OpenBabel10262419573D

 25 26  0  0  1  0  0  0  0  0999 V2000
  189.6890  177.6200  141.0370 C   0  0  1  0  0  3  0  0  0  0  0  0
  188.0670  177.0200  142.8710 C   0  0  0  0  0  2  0  0  0  0  0  0
  190.1700  178.3040  143.4230 C   0  0  0  0  0  2  0  0  0  0  0  0
  187.9650  178.2720  146.1250 O   0  0  0  0  0  0  0  0  0  0  0  0
  188.5380  177.7330  145.1930 C   0  0  0  0  0  0  0  0  0  0  0  0
  189.9770  178.0270  144.9160 C   0  0  0  0  0  2  0  0  0  0  0  0
  189.5600  177.2090  142.5230 C   0  0  0  0  0  0  0  0  0  0  0  0
  187.8310  176.7190  144.3530 C   0  0  0  0  0  2  0  0  0  0  0  0
  190.3160  175.8920  142.7480 C   0  0  0  0  0  2  0  0  0  0  0  0
  191.4410  176.0870  143.5550 O   0  0  0  0  0  1  0  0  0  0  0  0
  192.0530  177.6920  140.7180 O   0  0  0  0  0  0  0  0  0  0  0  0
  190.9620  177.1510  140.3920 C   0  0  0  0  0  0  0  0  0  0  0  0
  190.9310  176.1190  139.4520 O   0  0  0  0  0  0  0  0  0  0  0  0
  191.4020  176.2990  138.1260 C   0  0  0  0  0  1  0  0  0  0  0  0
  188.5400  177.1740  140.2580 N   0  0  0  0  0  2  0  0  0  0  0  0
  188.0170  178.3380  139.5620 C   0  0  0  0  0  2  0  0  0  0  0  0
  188.0690  178.1120  138.0640 C   0  0  0  0  0  2  0  0  0  0  0  0
  186.8390  178.5840  137.4490 N   0  0  0  0  0  2  0  0  0  0  0  0
  185.7440  177.8400  138.0530 C   0  0  0  0  0  2  0  0  0  0  0  0
  184.8580  178.7720  138.8600 C   0  0  0  0  0  2  0  0  0  0  0  0
  184.2560  178.0480  139.9660 N   0  0  0  0  0  2  0  0  0  0  0  0
  185.3490  178.9720  141.9150 C   0  0  0  0  0  2  0  0  0  0  0  0
  184.1030  178.2440  142.3690 C   0  0  1  0  0  3  0  0  0  0  0  0
  183.3880  179.0780  143.4100 C   0  0  0  0  0  1  0  0  0  0  0  0
  184.1040  178.9960  141.0540 C   0  0  2  0  0  3  0  0  0  0  0  0
  1 15  1  6  0  0  0
  1  7  1  0  0  0  0
  2  8  1  0  0  0  0
  3  6  1  0  0  0  0
  5  4  2  0  0  0  0
  6  5  1  0  0  0  0
  7  9  1  0  0  0  0
  7  2  1  0  0  0  0
  7  3  1  0  0  0  0
  8  5  1  0  0  0  0
  9 10  1  0  0  0  0
 12 11  2  0  0  0  0
 12  1  1  0  0  0  0
 13 12  1  0  0  0  0
 14 13  1  0  0  0  0
 16 15  1  0  0  0  0
 17 16  1  0  0  0  0
 18 19  1  0  0  0  0
 18 17  1  0  0  0  0
 19 20  1  0  0  0  0
 20 21  1  0  0  0  0
 22 23  1  0  0  0  0
 23 24  1  1  0  0  0
 25 21  1  6  0  0  0
 25 22  1  0  0  0  0
 25 23  1  0  0  0  0
M  END
>  <MODEL>
7

>  <REMARK>
 VINA RESULT:      -5.7      1.689      2.581
  Name = 
  12 active torsions:
  status: ('A' for Active; 'I' for Inactive)
    1  A    between atoms: C_1  and  N_3
    2  A    between atoms: C_1  and  C_18
    3  A    between atoms: C_1  and  C_24
    4  A    between atoms: N_3  and  C_16
    5  A    between atoms: C_6  and  C_15
    6  A    between atoms: C_6  and  N_21
    7  A    between atoms: O_13  and  C_24
    8  A    between atoms: C_15  and  N_20
    9  A    between atoms: C_16  and  C_23
   10  A    between atoms: C_17  and  C_18
   11  A    between atoms: N_20  and  C_23
   12  A    between atoms: N_21  and  C_25
                            x       y       z     vdW  Elec       q    Type
                         _______ _______ _______ _____ _____    ______ ____

>  <TORSDO>
F 12

$$$$
=
 OpenBabel10262419573D

 25 26  0  0  1  0  0  0  0  0999 V2000
  189.7500  176.9790  144.8460 C   0  0  1  0  0  3  0  0  0  0  0  0
  190.1910  176.5030  142.4090 C   0  0  0  0  0  2  0  0  0  0  0  0
  188.6460  178.3910  143.0620 C   0  0  0  0  0  2  0  0  0  0  0  0
  189.4430  178.5270  139.6690 O   0  0  0  0  0  0  0  0  0  0  0  0
  189.1310  177.9220  140.6810 C   0  0  0  0  0  0  0  0  0  0  0  0
  188.1250  178.4930  141.6270 C   0  0  0  0  0  2  0  0  0  0  0  0
  189.1290  176.9720  143.4280 C   0  0  0  0  0  0  0  0  0  0  0  0
  189.7010  176.5690  140.9610 C   0  0  0  0  0  2  0  0  0  0  0  0
  187.9310  176.0110  143.4090 C   0  0  0  0  0  2  0  0  0  0  0  0
  186.7930  176.6110  143.9570 O   0  0  0  0  0  1  0  0  0  0  0  0
  191.7410  178.2200  144.4090 O   0  0  0  0  0  0  0  0  0  0  0  0
  191.2420  177.1480  144.8470 C   0  0  0  0  0  0  0  0  0  0  0  0
  192.0610  176.1300  145.3400 O   0  0  0  0  0  0  0  0  0  0  0  0
  192.0750  174.8340  144.7620 C   0  0  0  0  0  1  0  0  0  0  0  0
  189.1310  177.9910  145.6940 N   0  0  0  0  0  2  0  0  0  0  0  0
  189.3730  177.5980  147.0730 C   0  0  0  0  0  2  0  0  0  0  0  0
  188.0650  177.2210  147.7400 C   0  0  0  0  0  2  0  0  0  0  0  0
  187.1450  178.3470  147.6980 N   0  0  0  0  0  2  0  0  0  0  0  0
  186.0410  177.9660  146.8310 C   0  0  0  0  0  2  0  0  0  0  0  0
  185.5590  179.1680  146.0370 C   0  0  0  0  0  2  0  0  0  0  0  0
  184.1490  179.0160  145.7190 N   0  0  0  0  0  2  0  0  0  0  0  0
  182.7090  178.9600  143.7770 C   0  0  0  0  0  2  0  0  0  0  0  0
  184.0670  178.4280  143.3770 C   0  0  1  0  0  3  0  0  0  0  0  0
  184.4550  179.0070  142.0340 C   0  0  0  0  0  1  0  0  0  0  0  0
  183.9610  179.5550  144.3850 C   0  0  2  0  0  3  0  0  0  0  0  0
  1 12  1  6  0  0  0
  1 15  1  0  0  0  0
  2  7  1  0  0  0  0
  3  7  1  0  0  0  0
  4  5  2  0  0  0  0
  5  8  1  0  0  0  0
  5  6  1  0  0  0  0
  6  3  1  0  0  0  0
  7  1  1  0  0  0  0
  8  2  1  0  0  0  0
  9  7  1  0  0  0  0
  9 10  1  0  0  0  0
 11 12  2  0  0  0  0
 12 13  1  0  0  0  0
 14 13  1  0  0  0  0
 15 16  1  0  0  0  0
 16 17  1  0  0  0  0
 18 17  1  0  0  0  0
 19 18  1  0  0  0  0
 20 19  1  0  0  0  0
 21 20  1  0  0  0  0
 22 25  1  0  0  0  0
 23 24  1  6  0  0  0
 23 22  1  0  0  0  0
 23 25  1  0  0  0  0
 25 21  1  1  0  0  0
M  END
>  <MODEL>
8

>  <REMARK>
 VINA RESULT:      -5.6      2.196      4.735
  Name = 
  12 active torsions:
  status: ('A' for Active; 'I' for Inactive)
    1  A    between atoms: C_1  and  N_3
    2  A    between atoms: C_1  and  C_18
    3  A    between atoms: C_1  and  C_24
    4  A    between atoms: N_3  and  C_16
    5  A    between atoms: C_6  and  C_15
    6  A    between atoms: C_6  and  N_21
    7  A    between atoms: O_13  and  C_24
    8  A    between atoms: C_15  and  N_20
    9  A    between atoms: C_16  and  C_23
   10  A    between atoms: C_17  and  C_18
   11  A    between atoms: N_20  and  C_23
   12  A    between atoms: N_21  and  C_25
                            x       y       z     vdW  Elec       q    Type
                         _______ _______ _______ _____ _____    ______ ____

>  <TORSDO>
F 12

$$$$
=
 OpenBabel10262419573D

 25 26  0  0  1  0  0  0  0  0999 V2000
  189.4110  177.1490  145.6430 C   0  0  1  0  0  3  0  0  0  0  0  0
  188.8230  178.2660  143.4610 C   0  0  0  0  0  2  0  0  0  0  0  0
  190.1830  176.1390  143.4580 C   0  0  0  0  0  2  0  0  0  0  0  0
  189.0880  176.9440  140.2450 O   0  0  0  0  0  0  0  0  0  0  0  0
  189.5550  177.2400  141.3320 C   0  0  0  0  0  0  0  0  0  0  0  0
  190.5640  176.3560  141.9910 C   0  0  0  0  0  2  0  0  0  0  0  0
  189.9050  177.4570  144.2090 C   0  0  0  0  0  0  0  0  0  0  0  0
  189.1760  178.5250  141.9950 C   0  0  0  0  0  2  0  0  0  0  0  0
  191.2020  178.2750  144.2890 C   0  0  0  0  0  2  0  0  0  0  0  0
  190.9350  179.6480  144.2930 O   0  0  0  0  0  1  0  0  0  0  0  0
  190.5180  177.6590  147.6950 O   0  0  0  0  0  0  0  0  0  0  0  0
  190.5240  176.9740  146.6370 C   0  0  0  0  0  0  0  0  0  0  0  0
  191.5450  176.0540  146.3900 O   0  0  0  0  0  0  0  0  0  0  0  0
  192.4320  175.6270  147.4110 C   0  0  0  0  0  1  0  0  0  0  0  0
  188.4740  178.1620  146.1150 N   0  0  0  0  0  2  0  0  0  0  0  0
  187.3270  177.4590  146.6660 C   0  0  0  0  0  2  0  0  0  0  0  0
  186.1380  177.6020  145.7350 C   0  0  0  0  0  2  0  0  0  0  0  0
  185.5830  178.9410  145.8430 N   0  0  0  0  0  2  0  0  0  0  0  0
  184.4350  179.0030  144.9520 C   0  0  0  0  0  2  0  0  0  0  0  0
  184.8820  179.3600  143.5450 C   0  0  0  0  0  2  0  0  0  0  0  0
  184.7100  178.2150  142.6670 N   0  0  0  0  0  2  0  0  0  0  0  0
  182.6390  178.6310  141.4880 C   0  0  0  0  0  2  0  0  0  0  0  0
  183.4260  177.5940  140.7170 C   0  0  1  0  0  3  0  0  0  0  0  0
  183.3560  177.9120  139.2380 C   0  0  0  0  0  1  0  0  0  0  0  0
  184.1490  178.7200  141.4270 C   0  0  2  0  0  3  0  0  0  0  0  0
  1 15  1  1  0  0  0
  1 12  1  0  0  0  0
  2  7  1  0  0  0  0
  3  7  1  0  0  0  0
  4  5  2  0  0  0  0
  5  6  1  0  0  0  0
  5  8  1  0  0  0  0
  6  3  1  0  0  0  0
  7  9  1  0  0  0  0
  7  1  1  0  0  0  0
  8  2  1  0  0  0  0
  9 10  1  0  0  0  0
 12 11  2  0  0  0  0
 13 12  1  0  0  0  0
 13 14  1  0  0  0  0
 15 16  1  0  0  0  0
 17 18  1  0  0  0  0
 17 16  1  0  0  0  0
 19 18  1  0  0  0  0
 20 19  1  0  0  0  0
 21 20  1  0  0  0  0
 23 24  1  6  0  0  0
 23 25  1  0  0  0  0
 23 22  1  0  0  0  0
 25 22  1  0  0  0  0
 25 21  1  1  0  0  0
M  END
>  <MODEL>
9

>  <REMARK>
 VINA RESULT:      -5.4      2.036      5.003
  Name = 
  12 active torsions:
  status: ('A' for Active; 'I' for Inactive)
    1  A    between atoms: C_1  and  N_3
    2  A    between atoms: C_1  and  C_18
    3  A    between atoms: C_1  and  C_24
    4  A    between atoms: N_3  and  C_16
    5  A    between atoms: C_6  and  C_15
    6  A    between atoms: C_6  and  N_21
    7  A    between atoms: O_13  and  C_24
    8  A    between atoms: C_15  and  N_20
    9  A    between atoms: C_16  and  C_23
   10  A    between atoms: C_17  and  C_18
   11  A    between atoms: N_20  and  C_23
   12  A    between atoms: N_21  and  C_25
                            x       y       z     vdW  Elec       q    Type
                         _______ _______ _______ _____ _____    ______ ____

>  <TORSDO>
F 12

$$$$
