=
 OpenBabel10262420443D

 28 31  0  0  1  0  0  0  0  0999 V2000
  188.8320  177.4110  145.1940 C   0  0  0  0  0  0  0  0  0  0  0  0
  187.4540  177.7340  149.5520 Cl  0  0  0  0  0  0  0  0  0  0  0  0
  185.2990  178.5610  144.7030 C   0  0  0  0  0  0  0  0  0  0  0  0
  187.0710  177.9490  146.8150 C   0  0  0  0  0  0  0  0  0  0  0  0
  186.6090  178.1400  144.4360 C   0  0  0  0  0  3  0  0  0  0  0  0
  189.2370  177.1830  147.5820 C   0  0  0  0  0  3  0  0  0  0  0  0
  185.7600  178.3650  147.0830 C   0  0  0  0  0  3  0  0  0  0  0  0
  187.9450  177.6220  147.8660 C   0  0  0  0  0  0  0  0  0  0  0  0
  184.8840  178.6670  146.0390 C   0  0  0  0  0  3  0  0  0  0  0  0
  189.6750  177.0770  146.2630 C   0  0  0  0  0  3  0  0  0  0  0  0
  187.5100  177.8430  145.4700 C   0  0  0  0  0  0  0  0  0  0  0  0
  183.1010  179.2010  143.8980 C   0  0  0  0  0  3  0  0  0  0  0  0
  184.0850  178.2380  141.1700 C   0  0  0  0  0  3  0  0  0  0  0  0
  181.7580  178.3320  142.0430 C   0  0  0  0  0  0  0  0  0  0  0  0
  184.3580  178.8520  143.5880 C   0  0  0  0  0  0  0  0  0  0  0  0
  186.2040  179.1820  141.8210 C   0  0  0  0  0  1  0  0  0  0  0  0
  182.6800  177.7920  141.2470 C   0  0  0  0  0  3  0  0  0  0  0  0
  184.8190  178.7520  142.1680 C   0  0  0  0  0  0  0  0  0  0  0  0
  180.4780  177.7940  142.0590 O   0  0  0  0  0  1  0  0  0  0  0  0
  182.0540  179.5260  142.8870 C   0  0  0  0  0  2  0  0  0  0  0  0
  189.3680  177.2950  143.8140 C   0  0  0  0  0  0  0  0  0  0  0  0
  189.1970  176.1410  143.1550 C   0  0  0  0  0  3  0  0  0  0  0  0
  190.5410  178.1750  141.7160 C   0  0  1  0  0  3  0  0  0  0  0  0
  189.6960  175.9520  141.7530 C   0  0  0  0  0  2  0  0  0  0  0  0
  191.0280  179.1790  143.9800 C   0  0  0  0  0  1  0  0  0  0  0  0
  189.9800  178.4950  143.1130 C   0  0  2  0  0  3  0  0  0  0  0  0
  191.8410  177.6890  141.7810 F   0  0  0  0  0  0  0  0  0  0  0  0
  189.6760  177.2190  141.0220 N   0  0  0  0  0  2  0  0  0  0  0  0
  1 11  2  0  0  0  0
  1 10  1  0  0  0  0
  3  9  1  0  0  0  0
  4  7  1  0  0  0  0
  4  8  2  0  0  0  0
  5  3  2  0  0  0  0
  5 11  1  0  0  0  0
  6  8  1  0  0  0  0
  8  2  1  0  0  0  0
  9  7  2  0  0  0  0
 10  6  2  0  0  0  0
 11  4  1  0  0  0  0
 13 17  1  0  0  0  0
 13 18  2  0  0  0  0
 14 19  1  0  0  0  0
 14 20  1  0  0  0  0
 15 12  2  0  0  0  0
 15  3  1  0  0  0  0
 16 18  1  0  0  0  0
 17 14  2  0  0  0  0
 18 15  1  0  0  0  0
 20 12  1  0  0  0  0
 21  1  1  0  0  0  0
 22 21  2  0  0  0  0
 23 27  1  1  0  0  0
 23 26  1  0  0  0  0
 24 22  1  0  0  0  0
 26 21  1  0  0  0  0
 26 25  1  1  0  0  0
 28 23  1  0  0  0  0
 28 24  1  0  0  0  0
M  END
>  <MODEL>
1

>  <REMARK>
 VINA RESULT:     -10.0      0.000      0.000
  Name = 
  2 active torsions:
  status: ('A' for Active; 'I' for Inactive)
    1  A    between atoms: C_1  and  C_2
    2  A    between atoms: C_10  and  C_13
                            x       y       z     vdW  Elec       q    Type
                         _______ _______ _______ _____ _____    ______ ____

>  <TORSDO>
F 2

$$$$
=
 OpenBabel10262420443D

 28 31  0  0  1  0  0  0  0  0999 V2000
  187.7740  177.6250  145.3310 C   0  0  0  0  0  0  0  0  0  0  0  0
  191.6270  176.2430  147.3900 Cl  0  0  0  0  0  0  0  0  0  0  0  0
  190.0040  177.1650  142.3550 C   0  0  0  0  0  0  0  0  0  0  0  0
  190.1080  176.8880  145.1620 C   0  0  0  0  0  0  0  0  0  0  0  0
  188.8830  177.4600  143.1430 C   0  0  0  0  0  3  0  0  0  0  0  0
  189.0510  177.0920  147.3330 C   0  0  0  0  0  3  0  0  0  0  0  0
  191.2290  176.5960  144.3760 C   0  0  0  0  0  3  0  0  0  0  0  0
  190.1670  176.7720  146.5620 C   0  0  0  0  0  0  0  0  0  0  0  0
  191.1780  176.7330  142.9880 C   0  0  0  0  0  3  0  0  0  0  0  0
  187.8700  177.5150  146.7260 C   0  0  0  0  0  3  0  0  0  0  0  0
  188.9080  177.3180  144.5380 C   0  0  0  0  0  0  0  0  0  0  0  0
  188.7830  177.6850  140.3220 C   0  0  0  0  0  3  0  0  0  0  0  0
  191.2050  176.5270  138.8600 C   0  0  0  0  0  3  0  0  0  0  0  0
  188.8360  176.6350  138.1090 C   0  0  0  0  0  0  0  0  0  0  0  0
  189.9550  177.3420  140.8780 C   0  0  0  0  0  0  0  0  0  0  0  0
  192.5050  177.5730  140.5970 C   0  0  0  0  0  1  0  0  0  0  0  0
  190.0360  176.0550  138.0930 C   0  0  0  0  0  3  0  0  0  0  0  0
  191.1870  177.1380  140.0540 C   0  0  0  0  0  0  0  0  0  0  0  0
  187.7990  176.0690  137.3780 O   0  0  0  0  0  1  0  0  0  0  0  0
  188.5880  177.9010  138.8590 C   0  0  0  0  0  2  0  0  0  0  0  0
  186.4800  178.0620  144.7480 C   0  0  0  0  0  0  0  0  0  0  0  0
  186.3200  177.9920  143.4200 C   0  0  0  0  0  3  0  0  0  0  0  0
  184.0790  178.9420  144.8650 C   0  0  1  0  0  3  0  0  0  0  0  0
  185.0380  178.4000  142.7570 C   0  0  0  0  0  2  0  0  0  0  0  0
  185.7350  179.4700  146.6960 C   0  0  0  0  0  1  0  0  0  0  0  0
  185.3170  178.4550  145.6410 C   0  0  2  0  0  3  0  0  0  0  0  0
  184.1600  180.2950  144.5610 F   0  0  0  0  0  0  0  0  0  0  0  0
  183.8990  178.1570  143.6430 N   0  0  0  0  0  2  0  0  0  0  0  0
  1 10  1  0  0  0  0
  3  9  1  0  0  0  0
  3  5  2  0  0  0  0
  4  8  2  0  0  0  0
  5 11  1  0  0  0  0
  7  4  1  0  0  0  0
  8  6  1  0  0  0  0
  8  2  1  0  0  0  0
  9  7  2  0  0  0  0
 10  6  2  0  0  0  0
 11  4  1  0  0  0  0
 11  1  2  0  0  0  0
 12 15  2  0  0  0  0
 13 18  2  0  0  0  0
 14 20  1  0  0  0  0
 15  3  1  0  0  0  0
 17 14  2  0  0  0  0
 17 13  1  0  0  0  0
 18 16  1  0  0  0  0
 18 15  1  0  0  0  0
 19 14  1  0  0  0  0
 20 12  1  0  0  0  0
 21  1  1  0  0  0  0
 21 26  1  0  0  0  0
 22 21  2  0  0  0  0
 23 27  1  6  0  0  0
 23 26  1  0  0  0  0
 24 22  1  0  0  0  0
 24 28  1  0  0  0  0
 26 25  1  1  0  0  0
 28 23  1  0  0  0  0
M  END
>  <MODEL>
2

>  <REMARK>
 VINA RESULT:      -9.8      3.298      5.909
  Name = 
  2 active torsions:
  status: ('A' for Active; 'I' for Inactive)
    1  A    between atoms: C_1  and  C_2
    2  A    between atoms: C_10  and  C_13
                            x       y       z     vdW  Elec       q    Type
                         _______ _______ _______ _____ _____    ______ ____

>  <TORSDO>
F 2

$$$$
=
 OpenBabel10262420443D

 28 31  0  0  1  0  0  0  0  0999 V2000
  187.6200  177.6710  145.1520 C   0  0  0  0  0  0  0  0  0  0  0  0
  183.3260  179.0300  144.3100 Cl  0  0  0  0  0  0  0  0  0  0  0  0
  187.7850  178.1750  141.4420 C   0  0  0  0  0  0  0  0  0  0  0  0
  185.9200  178.4140  143.5480 C   0  0  0  0  0  0  0  0  0  0  0  0
  188.1530  177.8670  142.7590 C   0  0  0  0  0  3  0  0  0  0  0  0
  185.3590  178.1790  145.8930 C   0  0  0  0  0  3  0  0  0  0  0  0
  185.5500  178.7180  142.2310 C   0  0  0  0  0  3  0  0  0  0  0  0
  184.9840  178.5110  144.5920 C   0  0  0  0  0  0  0  0  0  0  0  0
  186.4720  178.5990  141.1900 C   0  0  0  0  0  3  0  0  0  0  0  0
  186.6600  177.7620  146.1690 C   0  0  0  0  0  3  0  0  0  0  0  0
  187.2460  177.9910  143.8230 C   0  0  0  0  0  0  0  0  0  0  0  0
  188.3630  178.3390  139.0900 C   0  0  0  0  0  3  0  0  0  0  0  0
  190.8030  176.6500  139.8210 C   0  0  0  0  0  3  0  0  0  0  0  0
  189.6200  176.8160  137.6400 C   0  0  0  0  0  0  0  0  0  0  0  0
  188.7620  178.0180  140.3300 C   0  0  0  0  0  0  0  0  0  0  0  0
  190.8310  177.9280  141.8620 C   0  0  0  0  0  1  0  0  0  0  0  0
  190.3610  176.1330  138.5110 C   0  0  0  0  0  3  0  0  0  0  0  0
  190.1430  177.5140  140.6060 C   0  0  0  0  0  0  0  0  0  0  0  0
  189.2280  176.2040  136.4560 O   0  0  0  0  0  1  0  0  0  0  0  0
  189.2340  178.2370  137.8840 C   0  0  0  0  0  2  0  0  0  0  0  0
  188.9940  177.2400  145.5180 C   0  0  0  0  0  0  0  0  0  0  0  0
  189.7530  176.6550  144.5820 C   0  0  0  0  0  3  0  0  0  0  0  0
  190.9830  176.9910  147.1090 C   0  0  1  0  0  3  0  0  0  0  0  0
  191.1550  176.2070  144.8710 C   0  0  0  0  0  2  0  0  0  0  0  0
  188.6310  177.1740  148.0070 C   0  0  0  0  0  1  0  0  0  0  0  0
  189.5760  177.5710  146.8810 C   0  0  2  0  0  3  0  0  0  0  0  0
  190.9330  175.6810  147.5710 F   0  0  0  0  0  0  0  0  0  0  0  0
  191.7740  177.0660  145.8800 N   0  0  0  0  0  2  0  0  0  0  0  0
  1 21  1  0  0  0  0
  1 10  1  0  0  0  0
  2  8  1  0  0  0  0
  3  5  2  0  0  0  0
  4 11  1  0  0  0  0
  4  8  2  0  0  0  0
  5 11  1  0  0  0  0
  6 10  2  0  0  0  0
  7  4  1  0  0  0  0
  8  6  1  0  0  0  0
  9  3  1  0  0  0  0
  9  7  2  0  0  0  0
 11  1  2  0  0  0  0
 12 15  2  0  0  0  0
 13 18  2  0  0  0  0
 14 20  1  0  0  0  0
 14 17  2  0  0  0  0
 15 18  1  0  0  0  0
 15  3  1  0  0  0  0
 17 13  1  0  0  0  0
 18 16  1  0  0  0  0
 19 14  1  0  0  0  0
 20 12  1  0  0  0  0
 21 26  1  0  0  0  0
 22 24  1  0  0  0  0
 22 21  2  0  0  0  0
 23 27  1  6  0  0  0
 24 28  1  0  0  0  0
 26 23  1  0  0  0  0
 26 25  1  1  0  0  0
 28 23  1  0  0  0  0
M  END
>  <MODEL>
3

>  <REMARK>
 VINA RESULT:      -9.4      3.347      5.567
  Name = 
  2 active torsions:
  status: ('A' for Active; 'I' for Inactive)
    1  A    between atoms: C_1  and  C_2
    2  A    between atoms: C_10  and  C_13
                            x       y       z     vdW  Elec       q    Type
                         _______ _______ _______ _____ _____    ______ ____

>  <TORSDO>
F 2

$$$$
=
 OpenBabel10262420443D

 28 31  0  0  1  0  0  0  0  0999 V2000
  181.8870  177.8670  140.5820 C   0  0  0  0  0  0  0  0  0  0  0  0
  179.5940  179.5030  144.1970 Cl  0  0  0  0  0  0  0  0  0  0  0  0
  184.7050  178.3660  143.0010 C   0  0  0  0  0  0  0  0  0  0  0  0
  181.9030  178.6930  142.8920 C   0  0  0  0  0  0  0  0  0  0  0  0
  183.9940  178.0440  141.8370 C   0  0  0  0  0  3  0  0  0  0  0  0
  179.8220  178.5750  141.6570 C   0  0  0  0  0  3  0  0  0  0  0  0
  182.6130  179.0190  144.0550 C   0  0  0  0  0  3  0  0  0  0  0  0
  180.5100  178.8790  142.8300 C   0  0  0  0  0  0  0  0  0  0  0  0
  183.9980  178.8580  144.1080 C   0  0  0  0  0  3  0  0  0  0  0  0
  180.5010  178.0780  140.5470 C   0  0  0  0  0  3  0  0  0  0  0  0
  182.6000  178.1870  141.7650 C   0  0  0  0  0  0  0  0  0  0  0  0
  186.8930  178.6660  141.9950 C   0  0  0  0  0  3  0  0  0  0  0  0
  187.8840  176.7490  144.1590 C   0  0  0  0  0  3  0  0  0  0  0  0
  188.8310  177.1700  141.8980 C   0  0  0  0  0  0  0  0  0  0  0  0
  186.1850  178.2220  143.0440 C   0  0  0  0  0  0  0  0  0  0  0  0
  186.3000  177.8620  145.5930 C   0  0  0  0  0  1  0  0  0  0  0  0
  188.6300  176.3690  142.9440 C   0  0  0  0  0  3  0  0  0  0  0  0
  186.8470  177.5970  144.2320 C   0  0  0  0  0  0  0  0  0  0  0  0
  189.5110  176.6810  140.7900 O   0  0  0  0  0  1  0  0  0  0  0  0
  188.3800  178.5920  141.9030 C   0  0  0  0  0  2  0  0  0  0  0  0
  182.5450  177.3150  139.3710 C   0  0  0  0  0  0  0  0  0  0  0  0
  182.6870  175.9870  139.2680 C   0  0  0  0  0  3  0  0  0  0  0  0
  183.6600  177.4860  137.0740 C   0  0  1  0  0  3  0  0  0  0  0  0
  183.3280  175.3530  138.0700 C   0  0  0  0  0  2  0  0  0  0  0  0
  183.7280  179.4270  138.6850 C   0  0  0  0  0  1  0  0  0  0  0  0
  182.9310  178.2190  138.2140 C   0  0  2  0  0  3  0  0  0  0  0  0
  185.0250  177.3910  137.3100 F   0  0  0  0  0  0  0  0  0  0  0  0
  183.0870  176.1550  136.8700 N   0  0  0  0  0  2  0  0  0  0  0  0
  1 11  1  0  0  0  0
  3 15  1  0  0  0  0
  3  9  1  0  0  0  0
  4  7  1  0  0  0  0
  5  3  2  0  0  0  0
  6  8  2  0  0  0  0
  7  9  2  0  0  0  0
  8  4  1  0  0  0  0
  8  2  1  0  0  0  0
 10  1  2  0  0  0  0
 10  6  1  0  0  0  0
 11  5  1  0  0  0  0
 11  4  2  0  0  0  0
 12 15  2  0  0  0  0
 13 18  2  0  0  0  0
 14 20  1  0  0  0  0
 14 17  2  0  0  0  0
 15 18  1  0  0  0  0
 17 13  1  0  0  0  0
 18 16  1  0  0  0  0
 19 14  1  0  0  0  0
 20 12  1  0  0  0  0
 21  1  1  0  0  0  0
 22 21  2  0  0  0  0
 23 27  1  1  0  0  0
 23 26  1  0  0  0  0
 24 22  1  0  0  0  0
 26 25  1  1  0  0  0
 26 21  1  0  0  0  0
 28 23  1  0  0  0  0
 28 24  1  0  0  0  0
M  END
>  <MODEL>
4

>  <REMARK>
 VINA RESULT:      -9.2      3.764      7.155
  Name = 
  2 active torsions:
  status: ('A' for Active; 'I' for Inactive)
    1  A    between atoms: C_1  and  C_2
    2  A    between atoms: C_10  and  C_13
                            x       y       z     vdW  Elec       q    Type
                         _______ _______ _______ _____ _____    ______ ____

>  <TORSDO>
F 2

$$$$
=
 OpenBabel10262420443D

 28 31  0  0  1  0  0  0  0  0999 V2000
  187.4720  177.6190  144.2760 C   0  0  0  0  0  0  0  0  0  0  0  0
  183.1870  179.1770  144.7180 Cl  0  0  0  0  0  0  0  0  0  0  0  0
  186.6100  178.2530  140.6850 C   0  0  0  0  0  0  0  0  0  0  0  0
  185.4270  178.4880  143.2380 C   0  0  0  0  0  0  0  0  0  0  0  0
  187.3190  177.8830  141.8370 C   0  0  0  0  0  3  0  0  0  0  0  0
  185.5390  178.1890  145.6390 C   0  0  0  0  0  3  0  0  0  0  0  0
  184.7170  178.8550  142.0880 C   0  0  0  0  0  3  0  0  0  0  0  0
  184.8290  178.5830  144.5070 C   0  0  0  0  0  0  0  0  0  0  0  0
  185.3020  178.7380  140.8260 C   0  0  0  0  0  3  0  0  0  0  0  0
  186.8430  177.7110  145.5260 C   0  0  0  0  0  3  0  0  0  0  0  0
  186.7550  178.0020  143.1160 C   0  0  0  0  0  0  0  0  0  0  0  0
  186.4650  178.3580  138.2650 C   0  0  0  0  0  3  0  0  0  0  0  0
  189.0960  176.8020  138.2810 C   0  0  0  0  0  3  0  0  0  0  0  0
  187.3190  176.8410  136.5410 C   0  0  0  0  0  0  0  0  0  0  0  0
  187.2260  178.0990  139.3390 C   0  0  0  0  0  0  0  0  0  0  0  0
  189.6540  178.1520  140.1970 C   0  0  0  0  0  1  0  0  0  0  0  0
  188.3170  176.2210  137.1700 C   0  0  0  0  0  3  0  0  0  0  0  0
  188.6510  177.6640  139.2080 C   0  0  0  0  0  0  0  0  0  0  0  0
  186.6300  176.1710  135.5380 O   0  0  0  0  0  1  0  0  0  0  0  0
  186.9490  178.2510  136.8580 C   0  0  0  0  0  2  0  0  0  0  0  0
  188.8710  177.1210  144.2290 C   0  0  0  0  0  0  0  0  0  0  0  0
  189.1830  176.1710  143.3370 C   0  0  0  0  0  3  0  0  0  0  0  0
  191.3270  177.0770  144.9470 C   0  0  1  0  0  3  0  0  0  0  0  0
  190.5760  175.6280  143.2180 C   0  0  0  0  0  2  0  0  0  0  0  0
  189.5360  177.8780  146.5350 C   0  0  0  0  0  1  0  0  0  0  0  0
  189.9550  177.7630  145.0760 C   0  0  2  0  0  3  0  0  0  0  0  0
  191.4470  175.9960  145.8110 F   0  0  0  0  0  0  0  0  0  0  0  0
  191.5610  176.6520  143.5660 N   0  0  0  0  0  2  0  0  0  0  0  0
  1 10  1  0  0  0  0
  3  9  1  0  0  0  0
  3  5  2  0  0  0  0
  4  8  2  0  0  0  0
  5 11  1  0  0  0  0
  7  4  1  0  0  0  0
  8  2  1  0  0  0  0
  8  6  1  0  0  0  0
  9  7  2  0  0  0  0
 10  6  2  0  0  0  0
 11  4  1  0  0  0  0
 11  1  2  0  0  0  0
 12 15  2  0  0  0  0
 13 18  2  0  0  0  0
 14 20  1  0  0  0  0
 14 17  2  0  0  0  0
 15  3  1  0  0  0  0
 17 13  1  0  0  0  0
 18 15  1  0  0  0  0
 18 16  1  0  0  0  0
 19 14  1  0  0  0  0
 20 12  1  0  0  0  0
 21  1  1  0  0  0  0
 21 26  1  0  0  0  0
 22 21  2  0  0  0  0
 23 26  1  0  0  0  0
 23 27  1  1  0  0  0
 24 22  1  0  0  0  0
 24 28  1  0  0  0  0
 26 25  1  1  0  0  0
 28 23  1  0  0  0  0
M  END
>  <MODEL>
5

>  <REMARK>
 VINA RESULT:      -9.1      3.323      4.864
  Name = 
  2 active torsions:
  status: ('A' for Active; 'I' for Inactive)
    1  A    between atoms: C_1  and  C_2
    2  A    between atoms: C_10  and  C_13
                            x       y       z     vdW  Elec       q    Type
                         _______ _______ _______ _____ _____    ______ ____

>  <TORSDO>
F 2

$$$$
=
 OpenBabel10262420443D

 28 31  0  0  1  0  0  0  0  0999 V2000
  188.8030  177.9680  140.1690 C   0  0  0  0  0  0  0  0  0  0  0  0
  193.2930  177.0600  140.2300 Cl  0  0  0  0  0  0  0  0  0  0  0  0
  189.3220  177.3690  143.8320 C   0  0  0  0  0  0  0  0  0  0  0  0
  190.8240  177.4070  141.4410 C   0  0  0  0  0  0  0  0  0  0  0  0
  188.7040  177.6520  142.6060 C   0  0  0  0  0  3  0  0  0  0  0  0
  190.9330  177.6630  139.0350 C   0  0  0  0  0  3  0  0  0  0  0  0
  191.4410  177.1200  142.6660 C   0  0  0  0  0  3  0  0  0  0  0  0
  191.5680  177.4020  140.2480 C   0  0  0  0  0  0  0  0  0  0  0  0
  190.6990  177.1010  143.8470 C   0  0  0  0  0  3  0  0  0  0  0  0
  189.5680  177.9400  138.9950 C   0  0  0  0  0  3  0  0  0  0  0  0
  189.4330  177.6880  141.4080 C   0  0  0  0  0  0  0  0  0  0  0  0
  187.1840  177.3430  144.9820 C   0  0  0  0  0  3  0  0  0  0  0  0
  188.8090  177.9150  147.5070 C   0  0  0  0  0  3  0  0  0  0  0  0
  186.4420  178.4990  147.0100 C   0  0  0  0  0  0  0  0  0  0  0  0
  188.5210  177.3190  145.0860 C   0  0  0  0  0  0  0  0  0  0  0  0
  190.4510  176.4370  146.5470 C   0  0  0  0  0  1  0  0  0  0  0  0
  187.5900  178.7370  147.6440 C   0  0  0  0  0  3  0  0  0  0  0  0
  189.2060  177.2460  146.4140 C   0  0  0  0  0  0  0  0  0  0  0  0
  185.3770  179.3730  147.1870 O   0  0  0  0  0  1  0  0  0  0  0  0
  186.2580  177.2940  146.1490 C   0  0  0  0  0  2  0  0  0  0  0  0
  187.3570  178.2900  140.0580 C   0  0  0  0  0  0  0  0  0  0  0  0
  186.7010  178.6800  141.1600 C   0  0  0  0  0  3  0  0  0  0  0  0
  185.1560  178.5980  138.7900 C   0  0  1  0  0  3  0  0  0  0  0  0
  185.2450  179.0370  141.1260 C   0  0  0  0  0  2  0  0  0  0  0  0
  186.9340  177.0330  137.9200 C   0  0  0  0  0  1  0  0  0  0  0  0
  186.6650  178.3080  138.7070 C   0  0  2  0  0  3  0  0  0  0  0  0
  184.4200  177.4450  139.0280 F   0  0  0  0  0  0  0  0  0  0  0  0
  184.8810  179.5980  139.8240 N   0  0  0  0  0  2  0  0  0  0  0  0
  1 11  1  0  0  0  0
  2  8  1  0  0  0  0
  3  9  1  0  0  0  0
  3 15  1  0  0  0  0
  4  7  1  0  0  0  0
  5  3  2  0  0  0  0
  6  8  2  0  0  0  0
  7  9  2  0  0  0  0
  8  4  1  0  0  0  0
 10  6  1  0  0  0  0
 10  1  2  0  0  0  0
 11  4  2  0  0  0  0
 11  5  1  0  0  0  0
 12 15  2  0  0  0  0
 12 20  1  0  0  0  0
 13 17  1  0  0  0  0
 14 19  1  0  0  0  0
 14 17  2  0  0  0  0
 15 18  1  0  0  0  0
 18 16  1  0  0  0  0
 18 13  2  0  0  0  0
 20 14  1  0  0  0  0
 21  1  1  0  0  0  0
 21 22  2  0  0  0  0
 23 27  1  1  0  0  0
 23 28  1  0  0  0  0
 24 22  1  0  0  0  0
 26 25  1  1  0  0  0
 26 23  1  0  0  0  0
 26 21  1  0  0  0  0
 28 24  1  0  0  0  0
M  END
>  <MODEL>
6

>  <REMARK>
 VINA RESULT:      -8.9      3.549      6.570
  Name = 
  2 active torsions:
  status: ('A' for Active; 'I' for Inactive)
    1  A    between atoms: C_1  and  C_2
    2  A    between atoms: C_10  and  C_13
                            x       y       z     vdW  Elec       q    Type
                         _______ _______ _______ _____ _____    ______ ____

>  <TORSDO>
F 2

$$$$
=
 OpenBabel10262420443D

 28 31  0  0  1  0  0  0  0  0999 V2000
  188.0410  177.4920  144.4930 C   0  0  0  0  0  0  0  0  0  0  0  0
  184.5560  178.2970  147.3550 Cl  0  0  0  0  0  0  0  0  0  0  0  0
  185.4190  178.6160  142.0640 C   0  0  0  0  0  0  0  0  0  0  0  0
  185.7250  178.2190  144.8430 C   0  0  0  0  0  0  0  0  0  0  0  0
  186.6350  178.1570  142.5890 C   0  0  0  0  0  3  0  0  0  0  0  0
  187.0780  177.5200  146.7270 C   0  0  0  0  0  3  0  0  0  0  0  0
  184.5090  178.6740  144.3180 C   0  0  0  0  0  3  0  0  0  0  0  0
  185.8690  177.9990  146.2240 C   0  0  0  0  0  0  0  0  0  0  0  0
  184.3570  178.8700  142.9450 C   0  0  0  0  0  3  0  0  0  0  0  0
  188.1500  177.2670  145.8730 C   0  0  0  0  0  3  0  0  0  0  0  0
  186.8130  177.9640  143.9680 C   0  0  0  0  0  0  0  0  0  0  0  0
  184.0960  179.3130  140.1520 C   0  0  0  0  0  3  0  0  0  0  0  0
  186.1530  177.7910  138.4800 C   0  0  0  0  0  3  0  0  0  0  0  0
  183.7660  178.2620  137.9640 C   0  0  0  0  0  0  0  0  0  0  0  0
  185.2510  178.7950  140.5960 C   0  0  0  0  0  0  0  0  0  0  0  0
  187.7660  178.6280  140.0630 C   0  0  0  0  0  1  0  0  0  0  0  0
  184.8550  177.5030  137.8400 C   0  0  0  0  0  3  0  0  0  0  0  0
  186.3480  178.4010  139.6590 C   0  0  0  0  0  0  0  0  0  0  0  0
  182.5870  177.8610  137.3480 O   0  0  0  0  0  1  0  0  0  0  0  0
  183.7910  179.5530  138.7120 C   0  0  0  0  0  2  0  0  0  0  0  0
  189.2290  177.2220  143.6420 C   0  0  0  0  0  0  0  0  0  0  0  0
  189.4240  175.9760  143.1920 C   0  0  0  0  0  3  0  0  0  0  0  0
  191.3450  177.8830  142.3640 C   0  0  1  0  0  3  0  0  0  0  0  0
  190.5910  175.6280  142.3160 C   0  0  0  0  0  2  0  0  0  0  0  0
  190.5620  179.2370  144.3440 C   0  0  0  0  0  1  0  0  0  0  0  0
  190.1300  178.3540  143.1820 C   0  0  2  0  0  3  0  0  0  0  0  0
  192.4070  177.5170  143.1800 F   0  0  0  0  0  0  0  0  0  0  0  0
  190.9730  176.7710  141.4870 N   0  0  0  0  0  2  0  0  0  0  0  0
  1 10  1  0  0  0  0
  3  5  2  0  0  0  0
  3  9  1  0  0  0  0
  4  8  2  0  0  0  0
  5 11  1  0  0  0  0
  7  4  1  0  0  0  0
  8  6  1  0  0  0  0
  8  2  1  0  0  0  0
  9  7  2  0  0  0  0
 10  6  2  0  0  0  0
 11  1  2  0  0  0  0
 11  4  1  0  0  0  0
 12 15  2  0  0  0  0
 13 18  2  0  0  0  0
 14 20  1  0  0  0  0
 15  3  1  0  0  0  0
 17 14  2  0  0  0  0
 17 13  1  0  0  0  0
 18 16  1  0  0  0  0
 18 15  1  0  0  0  0
 19 14  1  0  0  0  0
 20 12  1  0  0  0  0
 21  1  1  0  0  0  0
 22 21  2  0  0  0  0
 23 27  1  1  0  0  0
 23 26  1  0  0  0  0
 24 22  1  0  0  0  0
 26 21  1  0  0  0  0
 26 25  1  1  0  0  0
 28 24  1  0  0  0  0
 28 23  1  0  0  0  0
M  END
>  <MODEL>
7

>  <REMARK>
 VINA RESULT:      -8.7      1.999      2.742
  Name = 
  2 active torsions:
  status: ('A' for Active; 'I' for Inactive)
    1  A    between atoms: C_1  and  C_2
    2  A    between atoms: C_10  and  C_13
                            x       y       z     vdW  Elec       q    Type
                         _______ _______ _______ _____ _____    ______ ____

>  <TORSDO>
F 2

$$$$
=
 OpenBabel10262420443D

 28 31  0  0  1  0  0  0  0  0999 V2000
  185.1490  178.3480  143.8570 C   0  0  0  0  0  0  0  0  0  0  0  0
  187.6510  177.7640  147.6510 Cl  0  0  0  0  0  0  0  0  0  0  0  0
  188.5390  177.8050  142.3550 C   0  0  0  0  0  0  0  0  0  0  0  0
  187.3250  177.9090  144.9010 C   0  0  0  0  0  0  0  0  0  0  0  0
  187.1640  178.0500  142.4800 C   0  0  0  0  0  3  0  0  0  0  0  0
  185.3620  178.2510  146.2790 C   0  0  0  0  0  3  0  0  0  0  0  0
  188.6990  177.6690  144.7770 C   0  0  0  0  0  3  0  0  0  0  0  0
  186.7250  177.9840  146.1710 C   0  0  0  0  0  0  0  0  0  0  0  0
  189.3000  177.6180  143.5180 C   0  0  0  0  0  3  0  0  0  0  0  0
  184.5840  178.4330  145.1370 C   0  0  0  0  0  3  0  0  0  0  0  0
  186.5380  178.0930  143.7350 C   0  0  0  0  0  0  0  0  0  0  0  0
  188.4800  178.2530  139.9700 C   0  0  0  0  0  3  0  0  0  0  0  0
  190.9670  176.4820  139.8210 C   0  0  0  0  0  3  0  0  0  0  0  0
  189.2550  176.9150  138.0690 C   0  0  0  0  0  0  0  0  0  0  0  0
  189.1810  177.7820  141.0120 C   0  0  0  0  0  0  0  0  0  0  0  0
  191.5770  177.5020  141.9160 C   0  0  0  0  0  1  0  0  0  0  0  0
  190.1770  176.1300  138.6250 C   0  0  0  0  0  3  0  0  0  0  0  0
  190.5680  177.2450  140.8500 C   0  0  0  0  0  0  0  0  0  0  0  0
  188.5440  176.4530  136.9700 O   0  0  0  0  0  1  0  0  0  0  0  0
  188.9970  178.2960  138.5720 C   0  0  0  0  0  2  0  0  0  0  0  0
  184.2600  178.5320  142.6820 C   0  0  0  0  0  0  0  0  0  0  0  0
  184.8150  178.8170  141.4970 C   0  0  0  0  0  3  0  0  0  0  0  0
  181.9940  178.5760  141.4920 C   0  0  1  0  0  3  0  0  0  0  0  0
  183.9840  179.0010  140.2610 C   0  0  0  0  0  2  0  0  0  0  0  0
  182.1530  179.0030  143.9740 C   0  0  0  0  0  1  0  0  0  0  0  0
  182.7670  178.2730  142.7880 C   0  0  2  0  0  3  0  0  0  0  0  0
  181.6440  179.9170  141.4010 F   0  0  0  0  0  0  0  0  0  0  0  0
  182.7780  178.1760  140.3220 N   0  0  0  0  0  2  0  0  0  0  0  0
  1 10  1  0  0  0  0
  3  5  2  0  0  0  0
  3  9  1  0  0  0  0
  4  8  2  0  0  0  0
  5 11  1  0  0  0  0
  7  4  1  0  0  0  0
  8  6  1  0  0  0  0
  8  2  1  0  0  0  0
  9  7  2  0  0  0  0
 10  6  2  0  0  0  0
 11  1  2  0  0  0  0
 11  4  1  0  0  0  0
 12 15  2  0  0  0  0
 13 18  2  0  0  0  0
 14 20  1  0  0  0  0
 14 17  2  0  0  0  0
 15  3  1  0  0  0  0
 17 13  1  0  0  0  0
 18 15  1  0  0  0  0
 18 16  1  0  0  0  0
 19 14  1  0  0  0  0
 20 12  1  0  0  0  0
 21 26  1  0  0  0  0
 21  1  1  0  0  0  0
 22 21  2  0  0  0  0
 23 27  1  6  0  0  0
 23 26  1  0  0  0  0
 24 28  1  0  0  0  0
 24 22  1  0  0  0  0
 26 25  1  1  0  0  0
 28 23  1  0  0  0  0
M  END
>  <MODEL>
8

>  <REMARK>
 VINA RESULT:      -8.4      3.407      6.279
  Name = 
  2 active torsions:
  status: ('A' for Active; 'I' for Inactive)
    1  A    between atoms: C_1  and  C_2
    2  A    between atoms: C_10  and  C_13
                            x       y       z     vdW  Elec       q    Type
                         _______ _______ _______ _____ _____    ______ ____

>  <TORSDO>
F 2

$$$$
=
 OpenBabel10262420443D

 28 31  0  0  1  0  0  0  0  0999 V2000
  185.8040  178.2250  144.7070 C   0  0  0  0  0  0  0  0  0  0  0  0
  181.8830  179.1940  142.5440 Cl  0  0  0  0  0  0  0  0  0  0  0  0
  187.0160  178.4280  141.1670 C   0  0  0  0  0  0  0  0  0  0  0  0
  184.6110  178.7060  142.6180 C   0  0  0  0  0  0  0  0  0  0  0  0
  186.9990  178.2590  142.5580 C   0  0  0  0  0  3  0  0  0  0  0  0
  183.4050  178.6280  144.7180 C   0  0  0  0  0  3  0  0  0  0  0  0
  184.6260  178.8720  141.2280 C   0  0  0  0  0  3  0  0  0  0  0  0
  183.4080  178.8220  143.3380 C   0  0  0  0  0  0  0  0  0  0  0  0
  185.8150  178.7340  140.5100 C   0  0  0  0  0  3  0  0  0  0  0  0
  184.5870  178.3310  145.3940 C   0  0  0  0  0  3  0  0  0  0  0  0
  185.8180  178.4050  143.3010 C   0  0  0  0  0  0  0  0  0  0  0  0
  188.2420  178.4270  139.0720 C   0  0  0  0  0  3  0  0  0  0  0  0
  190.4470  177.0070  140.6420 C   0  0  0  0  0  3  0  0  0  0  0  0
  189.9400  176.8850  138.2100 C   0  0  0  0  0  0  0  0  0  0  0  0
  188.2800  178.2500  140.4010 C   0  0  0  0  0  0  0  0  0  0  0  0
  189.8180  178.4610  142.4570 C   0  0  0  0  0  1  0  0  0  0  0  0
  190.4300  176.3430  139.3240 C   0  0  0  0  0  3  0  0  0  0  0  0
  189.5450  177.8830  141.1100 C   0  0  0  0  0  0  0  0  0  0  0  0
  189.9400  176.1410  137.0380 O   0  0  0  0  0  1  0  0  0  0  0  0
  189.4300  178.2870  138.1800 C   0  0  0  0  0  2  0  0  0  0  0  0
  187.0300  177.9270  145.4910 C   0  0  0  0  0  0  0  0  0  0  0  0
  187.9370  177.0910  144.9690 C   0  0  0  0  0  3  0  0  0  0  0  0
  188.5950  178.1700  147.5020 C   0  0  1  0  0  3  0  0  0  0  0  0
  189.2060  176.7530  145.6920 C   0  0  0  0  0  2  0  0  0  0  0  0
  186.1200  178.6080  147.7360 C   0  0  0  0  0  1  0  0  0  0  0  0
  187.3150  178.6520  146.7940 C   0  0  2  0  0  3  0  0  0  0  0  0
  188.3560  177.0590  148.3000 F   0  0  0  0  0  0  0  0  0  0  0  0
  189.6430  177.8760  146.5220 N   0  0  0  0  0  2  0  0  0  0  0  0
  1 10  1  0  0  0  0
  1 21  1  0  0  0  0
  2  8  1  0  0  0  0
  3  5  2  0  0  0  0
  4 11  1  0  0  0  0
  4  8  2  0  0  0  0
  5 11  1  0  0  0  0
  6 10  2  0  0  0  0
  7  4  1  0  0  0  0
  8  6  1  0  0  0  0
  9  3  1  0  0  0  0
  9  7  2  0  0  0  0
 11  1  2  0  0  0  0
 12 15  2  0  0  0  0
 13 18  2  0  0  0  0
 14 17  2  0  0  0  0
 15 18  1  0  0  0  0
 15  3  1  0  0  0  0
 17 13  1  0  0  0  0
 18 16  1  0  0  0  0
 19 14  1  0  0  0  0
 20 14  1  0  0  0  0
 20 12  1  0  0  0  0
 21 26  1  0  0  0  0
 22 21  2  0  0  0  0
 22 24  1  0  0  0  0
 23 27  1  6  0  0  0
 24 28  1  0  0  0  0
 26 23  1  0  0  0  0
 26 25  1  1  0  0  0
 28 23  1  0  0  0  0
M  END
>  <MODEL>
9

>  <REMARK>
 VINA RESULT:      -8.4      3.576      6.097
  Name = 
  2 active torsions:
  status: ('A' for Active; 'I' for Inactive)
    1  A    between atoms: C_1  and  C_2
    2  A    between atoms: C_10  and  C_13
                            x       y       z     vdW  Elec       q    Type
                         _______ _______ _______ _____ _____    ______ ____

>  <TORSDO>
F 2

$$$$
