=
 OpenBabel10262420433D

 28 32  0  0  1  0  0  0  0  0999 V2000
  185.3450  177.0940  136.4580 N   0  0  0  0  0  0  0  0  0  0  0  0
  186.7980  177.0280  136.5850 C   0  0  1  0  0  3  0  0  0  0  0  0
  187.3600  178.1000  137.5410 C   0  0  1  0  0  3  0  0  0  0  0  0
  181.6950  175.3100  138.9750 O   0  0  0  0  0  0  0  0  0  0  0  0
  187.8780  178.3590  140.0480 C   0  0  2  0  0  3  0  0  0  0  0  0
  185.5640  178.7770  139.2000 C   0  0  1  0  0  3  0  0  0  0  0  0
  189.6820  177.6760  138.4610 C   0  0  0  0  0  0  0  0  0  0  0  0
  186.8430  177.9520  138.9850 C   0  0  1  0  0  3  0  0  0  0  0  0
  186.3270  179.0430  141.5480 C   0  0  0  0  0  2  0  0  0  0  0  0
  189.1700  177.5720  139.8670 C   0  0  0  0  0  2  0  0  0  0  0  0
  183.1090  176.5610  137.2730 C   0  0  0  0  0  0  0  0  0  0  0  0
  184.3900  178.4300  138.2760 C   0  0  0  0  0  2  0  0  0  0  0  0
  187.3610  178.1130  141.3340 O   0  0  0  0  0  0  0  0  0  0  0  0
  183.4840  177.1720  134.9080 C   0  0  0  0  0  3  0  0  0  0  0  0
  182.3830  175.9200  138.1450 C   0  0  0  0  0  0  0  0  0  0  0  0
  182.4800  177.0850  136.0210 C   0  0  0  0  0  2  0  0  0  0  0  0
  190.7950  177.2520  138.2000 O   0  0  0  0  0  0  0  0  0  0  0  0
  188.8700  178.3300  137.3800 C   0  0  0  0  0  2  0  0  0  0  0  0
  185.1280  178.7080  140.6600 C   0  0  0  0  0  2  0  0  0  0  0  0
  184.8010  177.1920  135.1310 C   0  0  0  0  0  3  0  0  0  0  0  0
  184.4780  177.0410  137.6460 C   0  0  2  0  0  3  0  0  0  0  0  0
  187.2890  175.5730  136.7320 C   0  0  1  0  0  3  0  0  0  0  0  0
  187.6280  173.4720  135.5620 C   0  0  1  0  0  3  0  0  0  0  0  0
  186.1550  174.6440  137.1260 C   0  0  0  0  0  2  0  0  0  0  0  0
  189.4160  175.2950  135.3950 C   0  0  0  0  0  1  0  0  0  0  0  0
  187.9320  174.9670  135.4970 C   0  0  2  0  0  3  0  0  0  0  0  0
  188.6630  172.6840  136.3580 C   0  0  0  0  0  1  0  0  0  0  0  0
  186.3010  173.3810  136.2870 C   0  0  0  0  0  2  0  0  0  0  0  0
  1 21  1  0  0  0  0
  2  1  1  1  0  0  0
  2 22  1  0  0  0  0
  2  3  1  0  0  0  0
  3 18  1  1  0  0  0
  3  8  1  0  0  0  0
  5 10  1  6  0  0  0
  5 13  1  0  0  0  0
  6 12  1  6  0  0  0
  6 19  1  0  0  0  0
  7 10  1  0  0  0  0
  8  6  1  0  0  0  0
  8  5  1  0  0  0  0
 11 21  1  0  0  0  0
 11 15  2  0  0  0  0
 13  9  1  0  0  0  0
 14 20  2  0  0  0  0
 14 16  1  0  0  0  0
 15  4  2  0  0  0  0
 16 11  1  0  0  0  0
 17  7  2  0  0  0  0
 18  7  1  0  0  0  0
 19  9  1  0  0  0  0
 20  1  1  0  0  0  0
 21 12  1  0  0  0  0
 22 24  1  0  0  0  0
 23 28  1  0  0  0  0
 23 27  1  0  0  0  0
 25 26  1  0  0  0  0
 26 23  1  0  0  0  0
 26 22  1  0  0  0  0
 28 24  1  0  0  0  0
M  END
>  <MODEL>
1

>  <REMARK>
 VINA RESULT:      -5.8      0.000      0.000
  Name = 
  1 active torsions:
  status: ('A' for Active; 'I' for Inactive)
    1  A    between atoms: C_2  and  C_3
                            x       y       z     vdW  Elec       q    Type
                         _______ _______ _______ _____ _____    ______ ____

>  <TORSDO>
F 1

$$$$
=
 OpenBabel10262420433D

 28 32  0  0  1  0  0  0  0  0999 V2000
  185.8480  176.9090  136.4280 N   0  0  0  0  0  0  0  0  0  0  0  0
  187.2800  176.6380  136.3270 C   0  0  1  0  0  3  0  0  0  0  0  0
  188.1290  177.6150  137.1680 C   0  0  1  0  0  3  0  0  0  0  0  0
  182.4240  175.6420  139.5100 O   0  0  0  0  0  0  0  0  0  0  0  0
  189.0640  177.7830  139.5590 C   0  0  2  0  0  3  0  0  0  0  0  0
  186.7270  178.5270  139.0740 C   0  0  1  0  0  3  0  0  0  0  0  0
  190.4840  176.8620  137.7210 C   0  0  0  0  0  0  0  0  0  0  0  0
  187.8290  177.5320  138.6760 C   0  0  1  0  0  3  0  0  0  0  0  0
  187.8770  178.6690  141.2700 C   0  0  0  0  0  2  0  0  0  0  0  0
  190.1880  176.8230  139.1910 C   0  0  0  0  0  2  0  0  0  0  0  0
  183.7160  176.6910  137.5890 C   0  0  0  0  0  0  0  0  0  0  0  0
  185.3860  178.3550  138.3510 C   0  0  0  0  0  2  0  0  0  0  0  0
  188.7250  177.6040  140.9130 O   0  0  0  0  0  0  0  0  0  0  0  0
  183.7980  177.2570  135.1850 C   0  0  0  0  0  3  0  0  0  0  0  0
  183.0520  176.1530  138.5740 C   0  0  0  0  0  0  0  0  0  0  0  0
  182.9780  177.3060  136.4420 C   0  0  0  0  0  2  0  0  0  0  0  0
  191.4720  176.2870  137.2970 O   0  0  0  0  0  0  0  0  0  0  0  0
  189.6120  177.6300  136.7690 C   0  0  0  0  0  2  0  0  0  0  0  0
  186.5190  178.5110  140.5850 C   0  0  0  0  0  2  0  0  0  0  0  0
  185.1230  177.0910  135.2000 C   0  0  0  0  0  3  0  0  0  0  0  0
  185.1790  176.9710  137.7370 C   0  0  2  0  0  3  0  0  0  0  0  0
  187.5790  175.1280  136.4200 C   0  0  1  0  0  3  0  0  0  0  0  0
  187.2930  172.9840  135.3150 C   0  0  1  0  0  3  0  0  0  0  0  0
  186.4680  174.3870  137.1430 C   0  0  0  0  0  2  0  0  0  0  0  0
  189.2150  174.5120  134.5940 C   0  0  0  0  0  1  0  0  0  0  0  0
  187.7800  174.4140  135.0950 C   0  0  2  0  0  3  0  0  0  0  0  0
  188.3780  172.0580  135.8570 C   0  0  0  0  0  1  0  0  0  0  0  0
  186.2060  173.1050  136.3640 C   0  0  0  0  0  2  0  0  0  0  0  0
  1 21  1  0  0  0  0
  2 22  1  0  0  0  0
  2  1  1  1  0  0  0
  2  3  1  0  0  0  0
  3 18  1  1  0  0  0
  3  8  1  0  0  0  0
  5 10  1  6  0  0  0
  5 13  1  0  0  0  0
  6 12  1  6  0  0  0
  6 19  1  0  0  0  0
  7 10  1  0  0  0  0
  8  6  1  0  0  0  0
  8  5  1  0  0  0  0
 11 21  1  0  0  0  0
 11 15  2  0  0  0  0
 13  9  1  0  0  0  0
 14 20  2  0  0  0  0
 14 16  1  0  0  0  0
 15  4  2  0  0  0  0
 16 11  1  0  0  0  0
 17  7  2  0  0  0  0
 18  7  1  0  0  0  0
 19  9  1  0  0  0  0
 20  1  1  0  0  0  0
 21 12  1  0  0  0  0
 22 24  1  0  0  0  0
 23 27  1  0  0  0  0
 23 28  1  0  0  0  0
 25 26  1  0  0  0  0
 26 23  1  0  0  0  0
 26 22  1  0  0  0  0
 28 24  1  0  0  0  0
M  END
>  <MODEL>
2

>  <REMARK>
 VINA RESULT:      -5.7      0.915      1.013
  Name = 
  1 active torsions:
  status: ('A' for Active; 'I' for Inactive)
    1  A    between atoms: C_2  and  C_3
                            x       y       z     vdW  Elec       q    Type
                         _______ _______ _______ _____ _____    ______ ____

>  <TORSDO>
F 1

$$$$
=
 OpenBabel10262420433D

 28 32  0  0  1  0  0  0  0  0999 V2000
  182.3840  179.1420  141.4360 N   0  0  0  0  0  0  0  0  0  0  0  0
  183.6570  178.8600  140.7770 C   0  0  1  0  0  3  0  0  0  0  0  0
  184.8720  179.2760  141.6320 C   0  0  1  0  0  3  0  0  0  0  0  0
  179.6800  176.8000  144.6040 O   0  0  0  0  0  0  0  0  0  0  0  0
  186.4030  178.2500  143.4280 C   0  0  2  0  0  3  0  0  0  0  0  0
  184.2210  179.2790  144.0830 C   0  0  1  0  0  3  0  0  0  0  0  0
  187.0870  178.2060  141.0260 C   0  0  0  0  0  0  0  0  0  0  0  0
  184.9580  178.5180  142.9700 C   0  0  1  0  0  3  0  0  0  0  0  0
  185.8990  178.3090  145.6340 C   0  0  0  0  0  2  0  0  0  0  0  0
  187.1770  177.5040  142.3490 C   0  0  0  0  0  2  0  0  0  0  0  0
  180.6220  178.5420  143.0110 C   0  0  0  0  0  0  0  0  0  0  0  0
  182.7330  179.5490  143.8270 C   0  0  0  0  0  2  0  0  0  0  0  0
  186.3930  177.4820  144.6070 O   0  0  0  0  0  0  0  0  0  0  0  0
  180.1990  180.1570  141.1900 C   0  0  0  0  0  3  0  0  0  0  0  0
  180.1380  177.6490  143.8280 C   0  0  0  0  0  0  0  0  0  0  0  0
  179.7560  179.6650  142.5370 C   0  0  0  0  0  2  0  0  0  0  0  0
  187.7960  177.8350  140.1060 O   0  0  0  0  0  0  0  0  0  0  0  0
  186.1760  179.3830  140.8260 C   0  0  0  0  0  2  0  0  0  0  0  0
  184.4080  178.5740  145.4220 C   0  0  0  0  0  2  0  0  0  0  0  0
  181.4210  179.9200  140.7070 C   0  0  0  0  0  3  0  0  0  0  0  0
  182.1000  178.6280  142.7850 C   0  0  2  0  0  3  0  0  0  0  0  0
  183.6580  177.4660  140.1180 C   0  0  1  0  0  3  0  0  0  0  0  0
  182.8660  176.1750  138.2190 C   0  0  1  0  0  3  0  0  0  0  0  0
  182.4840  176.6280  140.5940 C   0  0  0  0  0  2  0  0  0  0  0  0
  184.9880  177.5840  137.9720 C   0  0  0  0  0  1  0  0  0  0  0  0
  183.6070  177.4550  138.6010 C   0  0  2  0  0  3  0  0  0  0  0  0
  183.7850  174.9650  138.0910 C   0  0  0  0  0  1  0  0  0  0  0  0
  181.9110  175.9260  139.3690 C   0  0  0  0  0  2  0  0  0  0  0  0
  1 21  1  0  0  0  0
  2  1  1  1  0  0  0
  2  3  1  0  0  0  0
  3 18  1  6  0  0  0
  3  8  1  0  0  0  0
  5 10  1  6  0  0  0
  5 13  1  0  0  0  0
  6 12  1  6  0  0  0
  6 19  1  0  0  0  0
  7 10  1  0  0  0  0
  8  5  1  0  0  0  0
  8  6  1  0  0  0  0
 11 15  2  0  0  0  0
 13  9  1  0  0  0  0
 14 16  1  0  0  0  0
 15  4  2  0  0  0  0
 16 11  1  0  0  0  0
 17  7  2  0  0  0  0
 18  7  1  0  0  0  0
 19  9  1  0  0  0  0
 20 14  2  0  0  0  0
 20  1  1  0  0  0  0
 21 11  1  0  0  0  0
 21 12  1  0  0  0  0
 22 24  1  0  0  0  0
 22  2  1  0  0  0  0
 23 26  1  0  0  0  0
 23 28  1  0  0  0  0
 25 26  1  0  0  0  0
 26 22  1  0  0  0  0
 27 23  1  0  0  0  0
 28 24  1  0  0  0  0
M  END
>  <MODEL>
3

>  <REMARK>
 VINA RESULT:      -5.5      3.483      5.497
  Name = 
  1 active torsions:
  status: ('A' for Active; 'I' for Inactive)
    1  A    between atoms: C_2  and  C_3
                            x       y       z     vdW  Elec       q    Type
                         _______ _______ _______ _____ _____    ______ ____

>  <TORSDO>
F 1

$$$$
=
 OpenBabel10262420433D

 28 32  0  0  1  0  0  0  0  0999 V2000
  182.9690  179.1590  140.1700 N   0  0  0  0  0  0  0  0  0  0  0  0
  184.3870  178.8590  139.9930 C   0  0  1  0  0  3  0  0  0  0  0  0
  185.2330  179.2440  141.2250 C   0  0  1  0  0  3  0  0  0  0  0  0
  179.2940  176.8390  142.1570 O   0  0  0  0  0  0  0  0  0  0  0  0
  186.0240  178.1720  143.4260 C   0  0  2  0  0  3  0  0  0  0  0  0
  183.7660  179.2360  143.2930 C   0  0  1  0  0  3  0  0  0  0  0  0
  187.5040  178.1380  141.4140 C   0  0  0  0  0  0  0  0  0  0  0  0
  184.8350  178.4720  142.4960 C   0  0  1  0  0  3  0  0  0  0  0  0
  184.7820  178.2190  145.3170 C   0  0  0  0  0  2  0  0  0  0  0  0
  187.1160  177.4220  142.6740 C   0  0  0  0  0  2  0  0  0  0  0  0
  180.7590  178.5770  141.0200 C   0  0  0  0  0  0  0  0  0  0  0  0
  182.4660  179.5370  142.5380 C   0  0  0  0  0  2  0  0  0  0  0  0
  185.5910  177.3930  144.5150 O   0  0  0  0  0  0  0  0  0  0  0  0
  181.0220  180.2180  139.1910 C   0  0  0  0  0  3  0  0  0  0  0  0
  180.0070  177.6860  141.6030 C   0  0  0  0  0  0  0  0  0  0  0  0
  180.1290  179.7220  140.2910 C   0  0  0  0  0  2  0  0  0  0  0  0
  188.4850  177.7630  140.7940 O   0  0  0  0  0  0  0  0  0  0  0  0
  186.7370  179.3340  140.9260 C   0  0  0  0  0  2  0  0  0  0  0  0
  183.4630  178.5150  144.6020 C   0  0  0  0  0  2  0  0  0  0  0  0
  182.3320  179.9630  139.1620 C   0  0  0  0  0  3  0  0  0  0  0  0
  182.2230  178.6370  141.3270 C   0  0  2  0  0  3  0  0  0  0  0  0
  184.5980  177.4720  139.3540 C   0  0  1  0  0  3  0  0  0  0  0  0
  184.3890  176.1860  137.3040 C   0  0  1  0  0  3  0  0  0  0  0  0
  183.3550  176.6090  139.4810 C   0  0  0  0  0  2  0  0  0  0  0  0
  186.4680  177.6340  137.6610 C   0  0  0  0  0  1  0  0  0  0  0  0
  184.9700  177.4750  137.8820 C   0  0  2  0  0  3  0  0  0  0  0  0
  185.3320  174.9930  137.4310 C   0  0  0  0  0  1  0  0  0  0  0  0
  183.1580  175.9090  138.1430 C   0  0  0  0  0  2  0  0  0  0  0  0
  1 21  1  0  0  0  0
  2  1  1  1  0  0  0
  2  3  1  0  0  0  0
  3 18  1  6  0  0  0
  3  8  1  0  0  0  0
  5 10  1  6  0  0  0
  5 13  1  0  0  0  0
  6 12  1  6  0  0  0
  6 19  1  0  0  0  0
  7 10  1  0  0  0  0
  8  6  1  0  0  0  0
  8  5  1  0  0  0  0
 11 21  1  0  0  0  0
 11 15  2  0  0  0  0
 13  9  1  0  0  0  0
 14 16  1  0  0  0  0
 15  4  2  0  0  0  0
 16 11  1  0  0  0  0
 17  7  2  0  0  0  0
 18  7  1  0  0  0  0
 19  9  1  0  0  0  0
 20 14  2  0  0  0  0
 20  1  1  0  0  0  0
 21 12  1  0  0  0  0
 22 24  1  0  0  0  0
 22  2  1  0  0  0  0
 23 27  1  0  0  0  0
 23 26  1  0  0  0  0
 23 28  1  0  0  0  0
 25 26  1  0  0  0  0
 26 22  1  0  0  0  0
 28 24  1  0  0  0  0
M  END
>  <MODEL>
4

>  <REMARK>
 VINA RESULT:      -5.1      2.884      4.455
  Name = 
  1 active torsions:
  status: ('A' for Active; 'I' for Inactive)
    1  A    between atoms: C_2  and  C_3
                            x       y       z     vdW  Elec       q    Type
                         _______ _______ _______ _____ _____    ______ ____

>  <TORSDO>
F 1

$$$$
=
 OpenBabel10262420433D

 28 32  0  0  1  0  0  0  0  0999 V2000
  181.8300  177.0800  137.5670 N   0  0  0  0  0  0  0  0  0  0  0  0
  181.4950  175.6660  137.4160 C   0  0  1  0  0  3  0  0  0  0  0  0
  182.5240  174.9010  136.5570 C   0  0  1  0  0  3  0  0  0  0  0  0
  184.6360  179.5390  140.5510 O   0  0  0  0  0  0  0  0  0  0  0  0
  184.7190  173.6000  136.8910 C   0  0  2  0  0  3  0  0  0  0  0  0
  184.7620  176.0890  136.6630 C   0  0  1  0  0  3  0  0  0  0  0  0
  182.5400  172.3800  136.8090 C   0  0  0  0  0  0  0  0  0  0  0  0
  183.9370  174.8960  137.1700 C   0  0  1  0  0  3  0  0  0  0  0  0
  186.7430  174.6120  136.9050 C   0  0  0  0  0  2  0  0  0  0  0  0
  183.9320  172.3870  137.3690 C   0  0  0  0  0  2  0  0  0  0  0  0
  183.0640  178.8700  138.6700 C   0  0  0  0  0  0  0  0  0  0  0  0
  184.1670  177.4740  136.9460 C   0  0  0  0  0  2  0  0  0  0  0  0
  185.9590  173.6410  137.5540 O   0  0  0  0  0  0  0  0  0  0  0  0
  181.0010  179.3490  137.3980 C   0  0  0  0  0  3  0  0  0  0  0  0
  183.8700  179.2140  139.6350 C   0  0  0  0  0  0  0  0  0  0  0  0
  182.2770  179.9170  137.9480 C   0  0  0  0  0  2  0  0  0  0  0  0
  181.8450  171.3890  136.9510 O   0  0  0  0  0  0  0  0  0  0  0  0
  182.0020  173.5530  136.0390 C   0  0  0  0  0  2  0  0  0  0  0  0
  186.1910  176.0090  137.1920 C   0  0  0  0  0  2  0  0  0  0  0  0
  180.8200  178.0390  137.2130 C   0  0  0  0  0  3  0  0  0  0  0  0
  183.1440  177.4950  138.0820 C   0  0  2  0  0  3  0  0  0  0  0  0
  181.0370  175.0460  138.7510 C   0  0  1  0  0  3  0  0  0  0  0  0
  179.1770  174.8340  140.2990 C   0  0  1  0  0  3  0  0  0  0  0  0
  181.3060  175.9810  139.9170 C   0  0  0  0  0  2  0  0  0  0  0  0
  179.2920  173.2810  138.2690 C   0  0  0  0  0  1  0  0  0  0  0  0
  179.5680  174.6690  138.8320 C   0  0  2  0  0  3  0  0  0  0  0  0
  179.4350  173.5840  141.1340 C   0  0  0  0  0  1  0  0  0  0  0  0
  180.0760  175.9420  140.8140 C   0  0  0  0  0  2  0  0  0  0  0  0
  1 21  1  0  0  0  0
  2  1  1  1  0  0  0
  2 22  1  0  0  0  0
  3 18  1  1  0  0  0
  3  8  1  0  0  0  0
  3  2  1  0  0  0  0
  5  8  1  0  0  0  0
  5 10  1  1  0  0  0
  5 13  1  0  0  0  0
  6 12  1  1  0  0  0
  6  8  1  0  0  0  0
  6 19  1  0  0  0  0
  7 17  2  0  0  0  0
  7 10  1  0  0  0  0
  9 19  1  0  0  0  0
  9 13  1  0  0  0  0
 11 15  2  0  0  0  0
 12 21  1  0  0  0  0
 14 16  1  0  0  0  0
 15  4  2  0  0  0  0
 16 11  1  0  0  0  0
 18  7  1  0  0  0  0
 20 14  2  0  0  0  0
 20  1  1  0  0  0  0
 21 11  1  0  0  0  0
 22 26  1  0  0  0  0
 22 24  1  0  0  0  0
 23 28  1  0  0  0  0
 23 27  1  0  0  0  0
 24 28  1  0  0  0  0
 25 26  1  0  0  0  0
 26 23  1  0  0  0  0
M  END
>  <MODEL>
5

>  <REMARK>
 VINA RESULT:      -5.0      2.849      6.639
  Name = 
  1 active torsions:
  status: ('A' for Active; 'I' for Inactive)
    1  A    between atoms: C_2  and  C_3
                            x       y       z     vdW  Elec       q    Type
                         _______ _______ _______ _____ _____    ______ ____

>  <TORSDO>
F 1

$$$$
=
 OpenBabel10262420433D

 28 32  0  0  1  0  0  0  0  0999 V2000
  182.8110  175.5140  136.1860 N   0  0  0  0  0  0  0  0  0  0  0  0
  184.2360  175.7110  135.9320 C   0  0  1  0  0  3  0  0  0  0  0  0
  184.7010  177.1480  136.2480 C   0  0  1  0  0  3  0  0  0  0  0  0
  180.2340  174.4180  140.0570 O   0  0  0  0  0  0  0  0  0  0  0  0
  185.6120  178.4790  138.2530 C   0  0  2  0  0  3  0  0  0  0  0  0
  183.1470  178.1820  137.9650 C   0  0  1  0  0  3  0  0  0  0  0  0
  187.1890  177.4690  136.5990 C   0  0  0  0  0  0  0  0  0  0  0  0
  184.5190  177.5310  137.7280 C   0  0  1  0  0  3  0  0  0  0  0  0
  184.2580  179.4890  139.7590 C   0  0  0  0  0  2  0  0  0  0  0  0
  186.9940  177.8770  138.0290 C   0  0  0  0  0  2  0  0  0  0  0  0
  180.9620  175.0510  137.7060 C   0  0  0  0  0  0  0  0  0  0  0  0
  181.9330  177.3260  137.5810 C   0  0  0  0  0  2  0  0  0  0  0  0
  185.4220  178.7090  139.6280 O   0  0  0  0  0  0  0  0  0  0  0  0
  180.7250  174.6880  135.2730 C   0  0  0  0  0  3  0  0  0  0  0  0
  180.5870  174.7260  138.9110 C   0  0  0  0  0  0  0  0  0  0  0  0
  180.0000  174.9230  136.5670 C   0  0  0  0  0  2  0  0  0  0  0  0
  188.3000  177.1370  136.2210 O   0  0  0  0  0  0  0  0  0  0  0  0
  186.0550  177.5020  135.6150 C   0  0  0  0  0  2  0  0  0  0  0  0
  183.0250  178.6540  139.4100 C   0  0  0  0  0  2  0  0  0  0  0  0
  182.0170  174.9830  135.1110 C   0  0  0  0  0  3  0  0  0  0  0  0
  182.2240  175.8280  137.4980 C   0  0  2  0  0  3  0  0  0  0  0  0
  185.0750  174.5290  136.4590 C   0  0  1  0  0  3  0  0  0  0  0  0
  185.6230  172.1870  136.1210 C   0  0  1  0  0  3  0  0  0  0  0  0
  184.3090  173.7270  137.4970 C   0  0  0  0  0  2  0  0  0  0  0  0
  186.8480  173.9660  134.7480 C   0  0  0  0  0  1  0  0  0  0  0  0
  185.5450  173.5370  135.4110 C   0  0  2  0  0  3  0  0  0  0  0  0
  186.9660  171.9440  136.8010 C   0  0  0  0  0  1  0  0  0  0  0  0
  184.5540  172.2540  137.1930 C   0  0  0  0  0  2  0  0  0  0  0  0
  1 21  1  0  0  0  0
  2  1  1  1  0  0  0
  2  3  1  0  0  0  0
  2 22  1  0  0  0  0
  3 18  1  1  0  0  0
  3  8  1  0  0  0  0
  5 10  1  1  0  0  0
  5 13  1  0  0  0  0
  6 12  1  1  0  0  0
  6 19  1  0  0  0  0
  7 10  1  0  0  0  0
  8  6  1  0  0  0  0
  8  5  1  0  0  0  0
 11 15  2  0  0  0  0
 13  9  1  0  0  0  0
 14 16  1  0  0  0  0
 15  4  2  0  0  0  0
 16 11  1  0  0  0  0
 17  7  2  0  0  0  0
 18  7  1  0  0  0  0
 19  9  1  0  0  0  0
 20 14  2  0  0  0  0
 20  1  1  0  0  0  0
 21 12  1  0  0  0  0
 21 11  1  0  0  0  0
 22 24  1  0  0  0  0
 23 27  1  0  0  0  0
 23 28  1  0  0  0  0
 25 26  1  0  0  0  0
 26 23  1  0  0  0  0
 26 22  1  0  0  0  0
 28 24  1  0  0  0  0
M  END
>  <MODEL>
6

>  <REMARK>
 VINA RESULT:      -4.9      1.904      2.811
  Name = 
  1 active torsions:
  status: ('A' for Active; 'I' for Inactive)
    1  A    between atoms: C_2  and  C_3
                            x       y       z     vdW  Elec       q    Type
                         _______ _______ _______ _____ _____    ______ ____

>  <TORSDO>
F 1

$$$$
=
 OpenBabel10262420433D

 28 32  0  0  1  0  0  0  0  0999 V2000
  182.6100  177.6960  137.6400 N   0  0  0  0  0  0  0  0  0  0  0  0
  182.2310  176.4050  137.0700 C   0  0  1  0  0  3  0  0  0  0  0  0
  183.3410  175.7980  136.1860 C   0  0  1  0  0  3  0  0  0  0  0  0
  185.0390  179.0380  141.5290 O   0  0  0  0  0  0  0  0  0  0  0  0
  185.3890  174.2630  136.4550 C   0  0  2  0  0  3  0  0  0  0  0  0
  185.5930  176.7120  136.9130 C   0  0  1  0  0  3  0  0  0  0  0  0
  183.1900  173.3070  135.7510 C   0  0  0  0  0  0  0  0  0  0  0  0
  184.6400  175.5080  136.9620 C   0  0  1  0  0  3  0  0  0  0  0  0
  187.4350  175.0500  137.0170 C   0  0  0  0  0  2  0  0  0  0  0  0
  184.4760  173.0430  136.4770 C   0  0  0  0  0  2  0  0  0  0  0  0
  183.7460  179.0210  139.3410 C   0  0  0  0  0  0  0  0  0  0  0  0
  185.0320  178.0240  137.4730 C   0  0  0  0  0  2  0  0  0  0  0  0
  186.5100  174.0180  137.2680 O   0  0  0  0  0  0  0  0  0  0  0  0
  181.9340  179.9970  137.9750 C   0  0  0  0  0  3  0  0  0  0  0  0
  184.4090  179.0310  140.4640 C   0  0  0  0  0  0  0  0  0  0  0  0
  183.1360  180.2860  138.8260 C   0  0  0  0  0  2  0  0  0  0  0  0
  182.4320  172.3790  135.5260 O   0  0  0  0  0  0  0  0  0  0  0  0
  182.8390  174.6820  135.2580 C   0  0  0  0  0  2  0  0  0  0  0  0
  186.9160  176.3700  137.5900 C   0  0  0  0  0  2  0  0  0  0  0  0
  181.7170  178.8010  137.4230 C   0  0  0  0  0  3  0  0  0  0  0  0
  183.8480  177.8440  138.4220 C   0  0  2  0  0  3  0  0  0  0  0  0
  181.5400  175.5050  138.1140 C   0  0  1  0  0  3  0  0  0  0  0  0
  179.5080  175.1710  139.4020 C   0  0  1  0  0  3  0  0  0  0  0  0
  181.8120  175.9880  139.5280 C   0  0  0  0  0  2  0  0  0  0  0  0
  179.6190  174.2980  136.9990 C   0  0  0  0  0  1  0  0  0  0  0  0
  180.0320  175.3840  137.9830 C   0  0  2  0  0  3  0  0  0  0  0  0
  179.4840  173.7040  139.8180 C   0  0  0  0  0  1  0  0  0  0  0  0
  180.4970  175.9000  140.2900 C   0  0  0  0  0  2  0  0  0  0  0  0
  1 21  1  0  0  0  0
  2  1  1  1  0  0  0
  2 22  1  0  0  0  0
  3 18  1  1  0  0  0
  3  8  1  0  0  0  0
  3  2  1  0  0  0  0
  5 10  1  1  0  0  0
  5  8  1  0  0  0  0
  5 13  1  0  0  0  0
  6  8  1  0  0  0  0
  6 12  1  1  0  0  0
  6 19  1  0  0  0  0
  7 10  1  0  0  0  0
  9 13  1  0  0  0  0
  9 19  1  0  0  0  0
 11 15  2  0  0  0  0
 12 21  1  0  0  0  0
 14 16  1  0  0  0  0
 15  4  2  0  0  0  0
 16 11  1  0  0  0  0
 17  7  2  0  0  0  0
 18  7  1  0  0  0  0
 20  1  1  0  0  0  0
 20 14  2  0  0  0  0
 21 11  1  0  0  0  0
 22 24  1  0  0  0  0
 23 27  1  0  0  0  0
 23 28  1  0  0  0  0
 24 28  1  0  0  0  0
 25 26  1  0  0  0  0
 26 22  1  0  0  0  0
 26 23  1  0  0  0  0
M  END
>  <MODEL>
7

>  <REMARK>
 VINA RESULT:      -4.9      2.489      6.177
  Name = 
  1 active torsions:
  status: ('A' for Active; 'I' for Inactive)
    1  A    between atoms: C_2  and  C_3
                            x       y       z     vdW  Elec       q    Type
                         _______ _______ _______ _____ _____    ______ ____

>  <TORSDO>
F 1

$$$$
=
 OpenBabel10262420433D

 28 32  0  0  1  0  0  0  0  0999 V2000
  186.7060  177.7280  137.1110 N   0  0  0  0  0  0  0  0  0  0  0  0
  185.2720  177.4720  137.0000 C   0  0  1  0  0  3  0  0  0  0  0  0
  184.9580  176.1940  136.1950 C   0  0  1  0  0  3  0  0  0  0  0  0
  190.1380  176.2310  140.0800 O   0  0  0  0  0  0  0  0  0  0  0  0
  184.6380  173.6780  136.6290 C   0  0  2  0  0  3  0  0  0  0  0  0
  186.9360  174.6110  136.3170 C   0  0  1  0  0  3  0  0  0  0  0  0
  182.6550  175.1940  136.5330 C   0  0  0  0  0  0  0  0  0  0  0  0
  185.5250  174.9170  136.8440 C   0  0  1  0  0  3  0  0  0  0  0  0
  186.3680  172.2190  136.6600 C   0  0  0  0  0  2  0  0  0  0  0  0
  183.2230  173.9390  137.1280 C   0  0  0  0  0  2  0  0  0  0  0  0
  188.8610  177.3410  138.1840 C   0  0  0  0  0  0  0  0  0  0  0  0
  187.9780  175.7140  136.5370 C   0  0  0  0  0  2  0  0  0  0  0  0
  185.1800  172.5800  137.3220 O   0  0  0  0  0  0  0  0  0  0  0  0
  188.4590  179.3780  136.8440 C   0  0  0  0  0  3  0  0  0  0  0  0
  189.5170  176.7720  139.1570 C   0  0  0  0  0  0  0  0  0  0  0  0
  189.4970  178.4500  137.4060 C   0  0  0  0  0  2  0  0  0  0  0  0
  181.4730  175.4470  136.6920 O   0  0  0  0  0  0  0  0  0  0  0  0
  183.5020  176.1220  135.7100 C   0  0  0  0  0  2  0  0  0  0  0  0
  187.4390  173.2870  136.8840 C   0  0  0  0  0  2  0  0  0  0  0  0
  187.1810  179.0210  136.7000 C   0  0  0  0  0  3  0  0  0  0  0  0
  187.6180  176.7040  137.6450 C   0  0  2  0  0  3  0  0  0  0  0  0
  184.5500  177.6980  138.3440 C   0  0  1  0  0  3  0  0  0  0  0  0
  183.6410  179.3780  139.8440 C   0  0  1  0  0  3  0  0  0  0  0  0
  185.5410  177.8780  139.4810 C   0  0  0  0  0  2  0  0  0  0  0  0
  182.2210  178.5610  137.8780 C   0  0  0  0  0  1  0  0  0  0  0  0
  183.6140  178.8920  138.3960 C   0  0  2  0  0  3  0  0  0  0  0  0
  182.6210  178.6740  140.7320 C   0  0  0  0  0  1  0  0  0  0  0  0
  185.0280  179.0250  140.3420 C   0  0  0  0  0  2  0  0  0  0  0  0
  1 21  1  0  0  0  0
  2  1  1  1  0  0  0
  2 22  1  0  0  0  0
  3 18  1  1  0  0  0
  3  8  1  0  0  0  0
  3  2  1  0  0  0  0
  5  8  1  0  0  0  0
  5 10  1  1  0  0  0
  5 13  1  0  0  0  0
  6 12  1  1  0  0  0
  6  8  1  0  0  0  0
  6 19  1  0  0  0  0
  7 17  2  0  0  0  0
  7 10  1  0  0  0  0
  9 19  1  0  0  0  0
  9 13  1  0  0  0  0
 11 15  2  0  0  0  0
 12 21  1  0  0  0  0
 14 16  1  0  0  0  0
 15  4  2  0  0  0  0
 16 11  1  0  0  0  0
 18  7  1  0  0  0  0
 20 14  2  0  0  0  0
 20  1  1  0  0  0  0
 21 11  1  0  0  0  0
 22 26  1  0  0  0  0
 22 24  1  0  0  0  0
 23 28  1  0  0  0  0
 23 27  1  0  0  0  0
 24 28  1  0  0  0  0
 25 26  1  0  0  0  0
 26 23  1  0  0  0  0
M  END
>  <MODEL>
8

>  <REMARK>
 VINA RESULT:      -4.7      1.708      6.445
  Name = 
  1 active torsions:
  status: ('A' for Active; 'I' for Inactive)
    1  A    between atoms: C_2  and  C_3
                            x       y       z     vdW  Elec       q    Type
                         _______ _______ _______ _____ _____    ______ ____

>  <TORSDO>
F 1

$$$$
=
 OpenBabel10262420433D

 28 32  0  0  1  0  0  0  0  0999 V2000
  181.6580  176.0650  136.5020 N   0  0  0  0  0  0  0  0  0  0  0  0
  182.6040  177.0900  136.9370 C   0  0  1  0  0  3  0  0  0  0  0  0
  181.9680  178.1120  137.9030 C   0  0  1  0  0  3  0  0  0  0  0  0
  180.1820  171.9020  138.3250 O   0  0  0  0  0  0  0  0  0  0  0  0
  181.6070  178.3980  140.4350 C   0  0  2  0  0  3  0  0  0  0  0  0
  179.9970  177.0420  139.0870 C   0  0  1  0  0  3  0  0  0  0  0  0
  183.5760  179.4610  139.3230 C   0  0  0  0  0  0  0  0  0  0  0  0
  181.4660  177.4740  139.2130 C   0  0  1  0  0  3  0  0  0  0  0  0
  179.8160  177.5320  141.5140 C   0  0  0  0  0  2  0  0  0  0  0  0
  183.0500  178.8600  140.5930 C   0  0  0  0  0  2  0  0  0  0  0  0
  180.4790  173.9630  136.8670 C   0  0  0  0  0  0  0  0  0  0  0  0
  179.6950  176.0390  137.9670 C   0  0  0  0  0  2  0  0  0  0  0  0
  181.2100  177.7120  141.5970 O   0  0  0  0  0  0  0  0  0  0  0  0
  180.7280  174.8990  134.5940 C   0  0  0  0  0  3  0  0  0  0  0  0
  180.3260  172.9050  137.6140 C   0  0  0  0  0  0  0  0  0  0  0  0
  179.9360  173.9740  135.4730 C   0  0  0  0  0  2  0  0  0  0  0  0
  184.6500  180.0390  139.3360 O   0  0  0  0  0  0  0  0  0  0  0  0
  182.7860  179.4050  138.0460 C   0  0  0  0  0  2  0  0  0  0  0  0
  179.4830  176.5150  140.4230 C   0  0  0  0  0  2  0  0  0  0  0  0
  181.5030  175.8680  135.0870 C   0  0  0  0  0  3  0  0  0  0  0  0
  180.9140  175.2570  137.4810 C   0  0  2  0  0  3  0  0  0  0  0  0
  183.9740  176.4810  137.2990 C   0  0  1  0  0  3  0  0  0  0  0  0
  185.7740  175.0530  136.5120 C   0  0  1  0  0  3  0  0  0  0  0  0
  183.8170  175.1320  137.9800 C   0  0  0  0  0  2  0  0  0  0  0  0
  185.7390  177.5150  135.8150 C   0  0  0  0  0  1  0  0  0  0  0  0
  184.9270  176.2670  136.1370 C   0  0  2  0  0  3  0  0  0  0  0  0
  187.0130  175.4130  137.3240 C   0  0  0  0  0  1  0  0  0  0  0  0
  184.8660  174.2050  137.3810 C   0  0  0  0  0  2  0  0  0  0  0  0
  1 21  1  0  0  0  0
  2  1  1  1  0  0  0
  2 22  1  0  0  0  0
  2  3  1  0  0  0  0
  3 18  1  1  0  0  0
  3  8  1  0  0  0  0
  5 10  1  1  0  0  0
  5 13  1  0  0  0  0
  6 12  1  6  0  0  0
  6  8  1  0  0  0  0
  6 19  1  0  0  0  0
  7 17  2  0  0  0  0
  7 10  1  0  0  0  0
  8  5  1  0  0  0  0
  9 13  1  0  0  0  0
 11 21  1  0  0  0  0
 11 15  2  0  0  0  0
 14 20  2  0  0  0  0
 14 16  1  0  0  0  0
 15  4  2  0  0  0  0
 16 11  1  0  0  0  0
 18  7  1  0  0  0  0
 19  9  1  0  0  0  0
 20  1  1  0  0  0  0
 21 12  1  0  0  0  0
 22 24  1  0  0  0  0
 23 27  1  0  0  0  0
 23 28  1  0  0  0  0
 25 26  1  0  0  0  0
 26 23  1  0  0  0  0
 26 22  1  0  0  0  0
 28 24  1  0  0  0  0
M  END
>  <MODEL>
9

>  <REMARK>
 VINA RESULT:      -4.4      2.896      4.809
  Name = 
  1 active torsions:
  status: ('A' for Active; 'I' for Inactive)
    1  A    between atoms: C_2  and  C_3
                            x       y       z     vdW  Elec       q    Type
                         _______ _______ _______ _____ _____    ______ ____

>  <TORSDO>
F 1

$$$$
