=
 OpenBabel10262421033D

 32 37  0  0  1  0  0  0  0  0999 V2000
  181.9080  178.8000  140.5230 C   0  0  1  0  0  3  0  0  0  0  0  0
  182.3900  179.3920  138.2100 C   0  0  2  0  0  3  0  0  0  0  0  0
  186.3750  178.2420  141.7110 C   0  0  1  0  0  3  0  0  0  0  0  0
  182.3690  179.4350  141.7560 N   0  0  0  0  0  2  0  0  0  0  0  0
  181.6410  179.8510  139.4670 C   0  0  1  0  0  3  0  0  0  0  0  0
  181.4920  179.0020  137.0140 C   0  0  2  0  0  3  0  0  0  0  0  0
  187.7360  178.8140  141.3550 C   0  0  0  0  0  1  0  0  0  0  0  0
  183.0910  174.7660  138.3210 O   0  0  0  0  0  0  0  0  0  0  0  0
  183.3180  178.2650  138.6790 C   0  0  1  0  0  3  0  0  0  0  0  0
  180.9670  175.4590  139.1830 C   0  0  0  0  0  1  0  0  0  0  0  0
  182.0790  176.5790  137.1820 C   0  0  1  0  0  3  0  0  0  0  0  0
  180.3960  180.0030  136.8360 C   0  0  0  0  0  0  0  0  0  0  0  0
  185.8740  178.8160  143.0500 C   0  0  1  0  0  3  0  0  0  0  0  0
  183.4620  178.6140  142.2370 C   0  0  2  0  0  3  0  0  0  0  0  0
  180.9320  177.5980  137.2090 C   0  0  0  0  0  2  0  0  0  0  0  0
  180.1240  180.0080  139.3040 C   0  0  0  0  0  2  0  0  0  0  0  0
  184.5010  179.4930  142.9460 C   0  0  0  0  0  2  0  0  0  0  0  0
  185.3800  178.3840  140.5520 C   0  0  2  0  0  3  0  0  0  0  0  0
  185.3000  179.7220  140.1400 O   0  0  0  0  0  1  0  0  0  0  0  0
  182.9150  177.8550  140.0310 N   0  0  1  0  0  0  0  0  0  0  0  0
  180.0640  180.3960  135.6110 C   0  0  0  0  0  2  0  0  0  0  0  0
  183.9990  177.8690  141.0240 C   0  0  2  0  0  3  0  0  0  0  0  0
  183.4080  177.0690  137.7000 C   0  0  2  0  0  3  0  0  0  0  0  0
  179.7880  180.5740  138.0060 N   0  0  0  0  0  0  0  0  0  0  0  0
  181.8390  175.2870  137.9430 C   0  0  1  0  0  3  0  0  0  0  0  0
  184.0170  175.8340  138.3390 C   0  0  0  0  0  2  0  0  0  0  0  0
  178.9310  181.7520  137.9570 C   0  0  0  0  0  2  0  0  0  0  0  0
  179.6460  182.9470  138.5580 C   0  0  0  0  0  2  0  0  0  0  0  0
  180.6310  183.5030  137.5510 C   0  0  0  0  0  1  0  0  0  0  0  0
  185.8360  177.5090  144.3140 S   0  0  0  0  0  0  0  0  0  0  0  0
  186.0500  178.6200  146.7910 C   0  0  0  0  0  1  0  0  0  0  0  0
  185.1530  178.6240  145.5720 C   0  0  0  0  0  2  0  0  0  0  0  0
  1  4  1  1  0  0  0
  2  9  1  0  0  0  0
  2  5  1  0  0  0  0
  3 13  1  0  0  0  0
  4 14  1  0  0  0  0
  5  1  1  0  0  0  0
  6 15  1  0  0  0  0
  6  2  1  0  0  0  0
  7  3  1  0  0  0  0
  8 26  1  0  0  0  0
  9 20  1  0  0  0  0
 11 15  1  0  0  0  0
 11 23  1  0  0  0  0
 11 25  1  0  0  0  0
 12  6  1  0  0  0  0
 12 24  1  0  0  0  0
 13 30  1  0  0  0  0
 14 17  1  0  0  0  0
 16  5  1  0  0  0  0
 17 13  1  0  0  0  0
 18 22  1  0  0  0  0
 18  3  1  0  0  0  0
 19 18  1  0  0  0  0
 20  1  1  0  0  0  0
 20 22  1  0  0  0  0
 21 12  2  0  0  0  0
 22 14  1  0  0  0  0
 23 26  1  0  0  0  0
 23  9  1  0  0  0  0
 24 16  1  0  0  0  0
 25  8  1  0  0  0  0
 25 10  1  0  0  0  0
 27 24  1  0  0  0  0
 27 28  1  0  0  0  0
 29 28  1  0  0  0  0
 30 32  1  0  0  0  0
 32 31  1  0  0  0  0
M  END
>  <MODEL>
1

>  <REMARK>
 VINA RESULT:      -4.9      0.000      0.000
  Name = 
  4 active torsions:
  status: ('A' for Active; 'I' for Inactive)
    1  A    between atoms: C_14  and  C_21
    2  A    between atoms: C_14  and  N_29
    3  A    between atoms: C_15  and  S_19
    4  A    between atoms: S_19  and  C_26
                            x       y       z     vdW  Elec       q    Type
                         _______ _______ _______ _____ _____    ______ ____

>  <TORSDO>
F 4

$$$$
=
 OpenBabel10262421033D

 32 37  0  0  1  0  0  0  0  0999 V2000
  189.0680  175.1970  135.1260 C   0  0  1  0  0  3  0  0  0  0  0  0
  187.8440  174.7690  137.1890 C   0  0  2  0  0  3  0  0  0  0  0  0
  193.1410  175.9510  137.2510 C   0  0  1  0  0  3  0  0  0  0  0  0
  190.2490  174.5210  134.5940 N   0  0  0  0  0  2  0  0  0  0  0  0
  188.1560  174.1950  135.8010 C   0  0  1  0  0  3  0  0  0  0  0  0
  186.3700  175.1740  137.4170 C   0  0  2  0  0  3  0  0  0  0  0  0
  193.8950  175.4830  138.4830 C   0  0  0  0  0  1  0  0  0  0  0  0
  188.4130  179.4150  137.2000 O   0  0  0  0  0  0  0  0  0  0  0  0
  188.8380  175.9210  137.3840 C   0  0  1  0  0  3  0  0  0  0  0  0
  187.4510  178.5480  135.1860 C   0  0  0  0  0  1  0  0  0  0  0  0
  186.9030  177.6140  137.4930 C   0  0  1  0  0  3  0  0  0  0  0  0
  185.4520  174.1210  136.8850 C   0  0  0  0  0  0  0  0  0  0  0  0
  193.6910  175.2710  135.9830 C   0  0  1  0  0  3  0  0  0  0  0  0
  191.3720  175.3760  134.9190 C   0  0  2  0  0  3  0  0  0  0  0  0
  186.0880  176.5290  136.7780 C   0  0  0  0  0  2  0  0  0  0  0  0
  186.9360  173.9570  134.9020 C   0  0  0  0  0  2  0  0  0  0  0  0
  192.6190  174.5210  135.1810 C   0  0  0  0  0  2  0  0  0  0  0  0
  191.6230  175.8160  137.4310 C   0  0  2  0  0  3  0  0  0  0  0  0
  191.2890  174.5030  137.7880 O   0  0  0  0  0  1  0  0  0  0  0  0
  189.4640  176.2270  136.0910 N   0  0  1  0  0  0  0  0  0  0  0  0
  184.3740  173.7810  137.5850 C   0  0  0  0  0  2  0  0  0  0  0  0
  190.9340  176.2200  136.1060 C   0  0  2  0  0  3  0  0  0  0  0  0
  188.2300  177.1750  138.0590 C   0  0  2  0  0  3  0  0  0  0  0  0
  185.8080  173.4480  135.6670 N   0  0  0  0  0  0  0  0  0  0  0  0
  187.2420  178.8430  136.6680 C   0  0  1  0  0  3  0  0  0  0  0  0
  189.1060  178.4050  137.9050 C   0  0  0  0  0  2  0  0  0  0  0  0
  185.1520  172.2260  135.2170 C   0  0  0  0  0  2  0  0  0  0  0  0
  185.9060  171.0100  135.7230 C   0  0  0  0  0  2  0  0  0  0  0  0
  186.7240  170.4200  134.5940 C   0  0  0  0  0  1  0  0  0  0  0  0
  194.5210  176.4980  134.9270 S   0  0  0  0  0  0  0  0  0  0  0  0
  197.0230  175.7780  135.7260 C   0  0  0  0  0  1  0  0  0  0  0  0
  195.9750  175.4390  134.6880 C   0  0  0  0  0  2  0  0  0  0  0  0
  1  4  1  1  0  0  0
  1  5  1  0  0  0  0
  1 20  1  0  0  0  0
  2  9  1  0  0  0  0
  2  6  1  0  0  0  0
  3 18  1  0  0  0  0
  3  7  1  0  0  0  0
  4 14  1  0  0  0  0
  5  2  1  0  0  0  0
  8 26  1  0  0  0  0
  9 23  1  0  0  0  0
 10 25  1  0  0  0  0
 11 23  1  0  0  0  0
 12  6  1  0  0  0  0
 12 21  2  0  0  0  0
 13  3  1  0  0  0  0
 14 17  1  0  0  0  0
 14 22  1  0  0  0  0
 15  6  1  0  0  0  0
 15 11  1  0  0  0  0
 16 24  1  0  0  0  0
 16  5  1  0  0  0  0
 17 13  1  0  0  0  0
 18 19  1  0  0  0  0
 20 22  1  0  0  0  0
 20  9  1  0  0  0  0
 22 18  1  0  0  0  0
 24 12  1  0  0  0  0
 25  8  1  0  0  0  0
 25 11  1  0  0  0  0
 26 23  1  0  0  0  0
 27 24  1  0  0  0  0
 27 28  1  0  0  0  0
 29 28  1  0  0  0  0
 30 13  1  0  0  0  0
 32 30  1  0  0  0  0
 32 31  1  0  0  0  0
M  END
>  <MODEL>
2

>  <REMARK>
 VINA RESULT:      -4.9      6.774      9.736
  Name = 
  4 active torsions:
  status: ('A' for Active; 'I' for Inactive)
    1  A    between atoms: C_14  and  C_21
    2  A    between atoms: C_14  and  N_29
    3  A    between atoms: C_15  and  S_19
    4  A    between atoms: S_19  and  C_26
                            x       y       z     vdW  Elec       q    Type
                         _______ _______ _______ _____ _____    ______ ____

>  <TORSDO>
F 4

$$$$
=
 OpenBabel10262421033D

 32 37  0  0  1  0  0  0  0  0999 V2000
  182.3230  178.8570  138.5750 C   0  0  1  0  0  3  0  0  0  0  0  0
  180.0810  179.7530  138.2530 C   0  0  2  0  0  3  0  0  0  0  0  0
  181.2370  174.5780  137.0970 C   0  0  1  0  0  3  0  0  0  0  0  0
  183.2160  178.2250  137.6060 N   0  0  0  0  0  2  0  0  0  0  0  0
  181.5600  179.9870  137.9190 C   0  0  1  0  0  3  0  0  0  0  0  0
  179.4380  180.8190  139.1700 C   0  0  2  0  0  3  0  0  0  0  0  0
  180.3030  173.9110  136.1020 C   0  0  0  0  0  1  0  0  0  0  0  0
  179.6710  177.1540  142.1230 O   0  0  0  0  0  0  0  0  0  0  0  0
  180.0130  178.3290  138.8180 C   0  0  1  0  0  3  0  0  0  0  0  0
  181.4600  178.7440  142.1930 C   0  0  0  0  0  1  0  0  0  0  0  0
  179.2150  179.2350  141.0910 C   0  0  1  0  0  3  0  0  0  0  0  0
  179.8380  182.1910  138.7340 C   0  0  0  0  0  0  0  0  0  0  0  0
  182.6750  174.6300  136.5450 C   0  0  1  0  0  3  0  0  0  0  0  0
  183.0910  176.7980  137.8270 C   0  0  2  0  0  3  0  0  0  0  0  0
  179.8210  180.5660  140.6230 C   0  0  0  0  0  2  0  0  0  0  0  0
  182.1390  181.3200  138.4090 C   0  0  0  0  0  2  0  0  0  0  0  0
  183.2590  176.0480  136.4990 C   0  0  0  0  0  2  0  0  0  0  0  0
  180.6920  175.9330  137.5650 C   0  0  2  0  0  3  0  0  0  0  0  0
  180.4190  176.7560  136.4640 O   0  0  0  0  0  1  0  0  0  0  0  0
  181.3780  177.8730  139.1130 N   0  0  1  0  0  0  0  0  0  0  0  0
  178.9310  183.1630  138.7250 C   0  0  0  0  0  2  0  0  0  0  0  0
  181.7400  176.5890  138.4960 C   0  0  2  0  0  3  0  0  0  0  0  0
  179.0620  178.1740  140.0300 C   0  0  2  0  0  3  0  0  0  0  0  0
  181.1770  182.4010  138.2580 N   0  0  0  0  0  0  0  0  0  0  0  0
  179.9490  178.5310  142.2170 C   0  0  1  0  0  3  0  0  0  0  0  0
  179.2900  176.8790  140.7900 C   0  0  0  0  0  2  0  0  0  0  0  0
  181.5840  183.6060  137.5460 C   0  0  0  0  0  2  0  0  0  0  0  0
  181.1980  183.5060  136.0820 C   0  0  0  0  0  2  0  0  0  0  0  0
  180.8170  184.8770  135.5660 C   0  0  0  0  0  1  0  0  0  0  0  0
  183.7560  173.5370  137.5180 S   0  0  0  0  0  0  0  0  0  0  0  0
  183.8290  172.5050  134.9990 C   0  0  0  0  0  1  0  0  0  0  0  0
  183.4640  172.1240  136.4180 C   0  0  0  0  0  2  0  0  0  0  0  0
  1  4  1  6  0  0  0
  1 20  1  0  0  0  0
  2  9  1  0  0  0  0
  2  6  1  0  0  0  0
  3 18  1  0  0  0  0
  4 14  1  0  0  0  0
  5  2  1  0  0  0  0
  5 16  1  0  0  0  0
  5  1  1  0  0  0  0
  6 15  1  0  0  0  0
  7  3  1  0  0  0  0
  8 25  1  0  0  0  0
  9 20  1  0  0  0  0
  9 23  1  0  0  0  0
 10 25  1  0  0  0  0
 11 25  1  0  0  0  0
 12  6  1  0  0  0  0
 13  3  1  0  0  0  0
 13 30  1  0  0  0  0
 14 22  1  0  0  0  0
 15 11  1  0  0  0  0
 17 13  1  0  0  0  0
 17 14  1  0  0  0  0
 18 22  1  0  0  0  0
 19 18  1  0  0  0  0
 21 12  2  0  0  0  0
 22 20  1  0  0  0  0
 23 26  1  0  0  0  0
 23 11  1  0  0  0  0
 24 16  1  0  0  0  0
 24 12  1  0  0  0  0
 26  8  1  0  0  0  0
 27 24  1  0  0  0  0
 28 27  1  0  0  0  0
 29 28  1  0  0  0  0
 31 32  1  0  0  0  0
 32 30  1  0  0  0  0
M  END
>  <MODEL>
3

>  <REMARK>
 VINA RESULT:      -4.8      3.358      5.869
  Name = 
  4 active torsions:
  status: ('A' for Active; 'I' for Inactive)
    1  A    between atoms: C_14  and  C_21
    2  A    between atoms: C_14  and  N_29
    3  A    between atoms: C_15  and  S_19
    4  A    between atoms: S_19  and  C_26
                            x       y       z     vdW  Elec       q    Type
                         _______ _______ _______ _____ _____    ______ ____

>  <TORSDO>
F 4

$$$$
=
 OpenBabel10262421033D

 32 37  0  0  1  0  0  0  0  0999 V2000
  188.0010  174.3580  137.0020 C   0  0  1  0  0  3  0  0  0  0  0  0
  189.1650  175.7660  135.3920 C   0  0  2  0  0  3  0  0  0  0  0  0
  183.7680  175.9660  135.9230 C   0  0  1  0  0  3  0  0  0  0  0  0
  186.9380  173.3800  136.7790 N   0  0  0  0  0  2  0  0  0  0  0  0
  188.9930  174.3160  135.8600 C   0  0  1  0  0  3  0  0  0  0  0  0
  190.5670  176.3730  135.6300 C   0  0  2  0  0  3  0  0  0  0  0  0
  183.0160  176.4960  134.7140 C   0  0  0  0  0  1  0  0  0  0  0  0
  188.0380  178.7380  138.8270 O   0  0  0  0  0  0  0  0  0  0  0  0
  188.0310  176.5480  136.0660 C   0  0  1  0  0  3  0  0  0  0  0  0
  189.1950  176.7760  139.5650 C   0  0  0  0  0  1  0  0  0  0  0  0
  189.7390  177.9590  137.3750 C   0  0  1  0  0  3  0  0  0  0  0  0
  191.6310  175.3950  135.2480 C   0  0  0  0  0  0  0  0  0  0  0  0
  183.3670  174.5090  136.2200 C   0  0  1  0  0  3  0  0  0  0  0  0
  185.7050  174.0500  137.1380 C   0  0  2  0  0  3  0  0  0  0  0  0
  190.7140  176.8100  137.0830 C   0  0  0  0  0  2  0  0  0  0  0  0
  190.2750  173.6300  136.3490 C   0  0  0  0  0  2  0  0  0  0  0  0
  184.5600  173.5430  136.2520 C   0  0  0  0  0  2  0  0  0  0  0  0
  185.2800  176.1900  135.7930 C   0  0  2  0  0  3  0  0  0  0  0  0
  185.7530  175.6400  134.5940 O   0  0  0  0  0  1  0  0  0  0  0  0
  187.4370  175.7060  137.1130 N   0  0  1  0  0  0  0  0  0  0  0  0
  192.7060  175.8230  134.5950 C   0  0  0  0  0  2  0  0  0  0  0  0
  185.9790  175.5410  137.0110 C   0  0  2  0  0  3  0  0  0  0  0  0
  188.4490  177.9420  136.5930 C   0  0  2  0  0  3  0  0  0  0  0  0
  191.4190  174.0020  135.5280 N   0  0  0  0  0  0  0  0  0  0  0  0
  189.2950  178.1030  138.8200 C   0  0  1  0  0  3  0  0  0  0  0  0
  187.4390  178.5270  137.5650 C   0  0  0  0  0  2  0  0  0  0  0  0
  192.2390  172.9450  134.9500 C   0  0  0  0  0  2  0  0  0  0  0  0
  192.9240  172.1520  136.0480 C   0  0  0  0  0  2  0  0  0  0  0  0
  193.9910  173.0080  136.6950 C   0  0  0  0  0  1  0  0  0  0  0  0
  182.4470  174.4220  137.7870 S   0  0  0  0  0  0  0  0  0  0  0  0
  182.6080  176.4150  139.6360 C   0  0  0  0  0  1  0  0  0  0  0  0
  182.7170  176.1800  138.1450 C   0  0  0  0  0  2  0  0  0  0  0  0
  1  4  1  6  0  0  0
  1 20  1  0  0  0  0
  2  6  1  0  0  0  0
  2  5  1  0  0  0  0
  2  9  1  0  0  0  0
  3 13  1  0  0  0  0
  4 14  1  0  0  0  0
  5 16  1  0  0  0  0
  5  1  1  0  0  0  0
  6 15  1  0  0  0  0
  7  3  1  0  0  0  0
  9 23  1  0  0  0  0
  9 20  1  0  0  0  0
 11 25  1  0  0  0  0
 12 24  1  0  0  0  0
 12  6  1  0  0  0  0
 13 17  1  0  0  0  0
 13 30  1  0  0  0  0
 15 11  1  0  0  0  0
 17 14  1  0  0  0  0
 18  3  1  0  0  0  0
 18 22  1  0  0  0  0
 19 18  1  0  0  0  0
 21 12  2  0  0  0  0
 22 20  1  0  0  0  0
 22 14  1  0  0  0  0
 23 11  1  0  0  0  0
 23 26  1  0  0  0  0
 24 16  1  0  0  0  0
 25  8  1  0  0  0  0
 25 10  1  0  0  0  0
 26  8  1  0  0  0  0
 27 24  1  0  0  0  0
 27 28  1  0  0  0  0
 28 29  1  0  0  0  0
 30 32  1  0  0  0  0
 32 31  1  0  0  0  0
M  END
>  <MODEL>
4

>  <REMARK>
 VINA RESULT:      -4.5      5.791      9.670
  Name = 
  4 active torsions:
  status: ('A' for Active; 'I' for Inactive)
    1  A    between atoms: C_14  and  C_21
    2  A    between atoms: C_14  and  N_29
    3  A    between atoms: C_15  and  S_19
    4  A    between atoms: S_19  and  C_26
                            x       y       z     vdW  Elec       q    Type
                         _______ _______ _______ _____ _____    ______ ____

>  <TORSDO>
F 4

$$$$
=
 OpenBabel10262421033D

 32 37  0  0  1  0  0  0  0  0999 V2000
  189.7940  175.3340  137.6540 C   0  0  1  0  0  3  0  0  0  0  0  0
  188.7480  175.9350  135.5370 C   0  0  2  0  0  3  0  0  0  0  0  0
  193.9200  174.3050  135.7610 C   0  0  1  0  0  3  0  0  0  0  0  0
  190.9890  175.8880  138.2860 N   0  0  0  0  0  2  0  0  0  0  0  0
  189.0150  176.4330  136.9640 C   0  0  1  0  0  3  0  0  0  0  0  0
  187.2630  175.6670  135.2010 C   0  0  2  0  0  3  0  0  0  0  0  0
  194.7910  174.7480  134.5980 C   0  0  0  0  0  1  0  0  0  0  0  0
  188.9260  171.2610  135.3780 O   0  0  0  0  0  0  0  0  0  0  0  0
  189.6530  174.7090  135.3590 C   0  0  1  0  0  3  0  0  0  0  0  0
  187.9100  172.1390  137.3610 C   0  0  0  0  0  1  0  0  0  0  0  0
  187.5950  173.1930  135.0630 C   0  0  1  0  0  3  0  0  0  0  0  0
  186.4030  176.7760  135.7160 C   0  0  0  0  0  0  0  0  0  0  0  0
  194.4400  174.8910  137.0870 C   0  0  1  0  0  3  0  0  0  0  0  0
  192.0560  174.9500  137.9980 C   0  0  2  0  0  3  0  0  0  0  0  0
  186.8280  174.3200  135.7680 C   0  0  0  0  0  2  0  0  0  0  0  0
  187.7630  176.7440  137.7930 C   0  0  0  0  0  2  0  0  0  0  0  0
  193.3850  175.7030  137.8490 C   0  0  0  0  0  2  0  0  0  0  0  0
  192.4340  174.5760  135.4920 C   0  0  2  0  0  3  0  0  0  0  0  0
  192.2360  175.9240  135.1660 O   0  0  0  0  0  1  0  0  0  0  0  0
  190.1640  174.3060  136.6770 N   0  0  1  0  0  0  0  0  0  0  0  0
  185.4070  177.2310  134.9640 C   0  0  0  0  0  2  0  0  0  0  0  0
  191.6280  174.1880  136.7540 C   0  0  2  0  0  3  0  0  0  0  0  0
  188.9880  173.5360  134.5980 C   0  0  2  0  0  3  0  0  0  0  0  0
  186.7340  177.3740  136.9800 N   0  0  0  0  0  0  0  0  0  0  0  0
  187.7740  171.9130  135.8580 C   0  0  1  0  0  3  0  0  0  0  0  0
  189.7460  172.2310  134.7590 C   0  0  0  0  0  2  0  0  0  0  0  0
  186.1540  178.6320  137.4350 C   0  0  0  0  0  2  0  0  0  0  0  0
  185.3620  178.4120  138.7110 C   0  0  0  0  0  2  0  0  0  0  0  0
  184.0380  177.7600  138.3750 C   0  0  0  0  0  1  0  0  0  0  0  0
  195.0930  173.5620  138.1430 S   0  0  0  0  0  0  0  0  0  0  0  0
  197.4660  173.2650  136.8390 C   0  0  0  0  0  1  0  0  0  0  0  0
  196.8100  174.1050  137.9150 C   0  0  0  0  0  2  0  0  0  0  0  0
  1  4  1  6  0  0  0
  2  5  1  0  0  0  0
  3 13  1  0  0  0  0
  5  1  1  0  0  0  0
  5 16  1  0  0  0  0
  6  2  1  0  0  0  0
  6 12  1  0  0  0  0
  6 15  1  0  0  0  0
  7  3  1  0  0  0  0
  8 25  1  0  0  0  0
  9  2  1  0  0  0  0
  9 20  1  0  0  0  0
 11 15  1  0  0  0  0
 11 25  1  0  0  0  0
 12 24  1  0  0  0  0
 13 17  1  0  0  0  0
 13 30  1  0  0  0  0
 14  4  1  0  0  0  0
 17 14  1  0  0  0  0
 18  3  1  0  0  0  0
 18 22  1  0  0  0  0
 19 18  1  0  0  0  0
 20 22  1  0  0  0  0
 20  1  1  0  0  0  0
 21 12  2  0  0  0  0
 22 14  1  0  0  0  0
 23 26  1  0  0  0  0
 23 11  1  0  0  0  0
 23  9  1  0  0  0  0
 24 27  1  0  0  0  0
 24 16  1  0  0  0  0
 25 10  1  0  0  0  0
 26  8  1  0  0  0  0
 27 28  1  0  0  0  0
 29 28  1  0  0  0  0
 31 32  1  0  0  0  0
 32 30  1  0  0  0  0
M  END
>  <MODEL>
5

>  <REMARK>
 VINA RESULT:      -4.5      7.172      9.189
  Name = 
  4 active torsions:
  status: ('A' for Active; 'I' for Inactive)
    1  A    between atoms: C_14  and  C_21
    2  A    between atoms: C_14  and  N_29
    3  A    between atoms: C_15  and  S_19
    4  A    between atoms: S_19  and  C_26
                            x       y       z     vdW  Elec       q    Type
                         _______ _______ _______ _____ _____    ______ ____

>  <TORSDO>
F 4

$$$$
=
 OpenBabel10262421033D

 32 37  0  0  1  0  0  0  0  0999 V2000
  185.7720  176.5760  137.5360 C   0  0  1  0  0  3  0  0  0  0  0  0
  184.6890  176.6240  135.3540 C   0  0  2  0  0  3  0  0  0  0  0  0
  190.0730  176.1150  135.8140 C   0  0  1  0  0  3  0  0  0  0  0  0
  186.8160  177.4470  138.0700 N   0  0  0  0  0  2  0  0  0  0  0  0
  184.8110  177.3780  136.6840 C   0  0  1  0  0  3  0  0  0  0  0  0
  183.2960  176.0160  135.0680 C   0  0  2  0  0  3  0  0  0  0  0  0
  190.8710  176.5400  134.5940 C   0  0  0  0  0  1  0  0  0  0  0  0
  185.7930  172.1120  135.9250 O   0  0  0  0  0  0  0  0  0  0  0  0
  185.8230  175.5910  135.3660 C   0  0  1  0  0  3  0  0  0  0  0  0
  184.5670  173.0620  137.7490 C   0  0  0  0  0  1  0  0  0  0  0  0
  184.1150  173.6670  135.3160 C   0  0  1  0  0  3  0  0  0  0  0  0
  182.2200  176.9960  135.4060 C   0  0  0  0  0  0  0  0  0  0  0  0
  190.4280  176.9900  137.0310 C   0  0  1  0  0  3  0  0  0  0  0  0
  188.0550  176.7100  137.9290 C   0  0  2  0  0  3  0  0  0  0  0  0
  183.1200  174.7130  135.8390 C   0  0  0  0  0  2  0  0  0  0  0  0
  183.4990  177.5550  137.4590 C   0  0  0  0  0  2  0  0  0  0  0  0
  189.2120  177.6810  137.6610 C   0  0  0  0  0  2  0  0  0  0  0  0
  188.5710  176.0380  135.5100 C   0  0  2  0  0  3  0  0  0  0  0  0
  188.1180  177.2540  134.9790 O   0  0  0  0  0  1  0  0  0  0  0  0
  186.3660  175.5060  136.7290 N   0  0  1  0  0  0  0  0  0  0  0  0
  181.1750  177.1220  134.5950 C   0  0  0  0  0  2  0  0  0  0  0  0
  187.8210  175.6950  136.8200 C   0  0  2  0  0  3  0  0  0  0  0  0
  185.4260  174.2070  134.7990 C   0  0  2  0  0  3  0  0  0  0  0  0
  182.3890  177.8350  136.5600 N   0  0  0  0  0  0  0  0  0  0  0  0
  184.5220  172.5860  136.3000 C   0  0  1  0  0  3  0  0  0  0  0  0
  186.4220  173.1190  135.1590 C   0  0  0  0  0  2  0  0  0  0  0  0
  181.5600  179.0060  136.8160 C   0  0  0  0  0  2  0  0  0  0  0  0
  181.6490  179.4030  138.2780 C   0  0  0  0  0  2  0  0  0  0  0  0
  181.9300  180.8870  138.3800 C   0  0  0  0  0  1  0  0  0  0  0  0
  191.3010  175.9960  138.2800 S   0  0  0  0  0  0  0  0  0  0  0  0
  193.7780  175.1400  137.5390 C   0  0  0  0  0  1  0  0  0  0  0  0
  192.9300  176.3920  137.5840 C   0  0  0  0  0  2  0  0  0  0  0  0
  1  4  1  6  0  0  0
  2  9  1  0  0  0  0
  2  5  1  0  0  0  0
  3 13  1  0  0  0  0
  5 16  1  0  0  0  0
  5  1  1  0  0  0  0
  6  2  1  0  0  0  0
  6 12  1  0  0  0  0
  6 15  1  0  0  0  0
  7  3  1  0  0  0  0
  8 25  1  0  0  0  0
  9 20  1  0  0  0  0
 11 15  1  0  0  0  0
 11 25  1  0  0  0  0
 12 24  1  0  0  0  0
 13 17  1  0  0  0  0
 13 30  1  0  0  0  0
 14  4  1  0  0  0  0
 17 14  1  0  0  0  0
 18  3  1  0  0  0  0
 18 22  1  0  0  0  0
 19 18  1  0  0  0  0
 20 22  1  0  0  0  0
 20  1  1  0  0  0  0
 21 12  2  0  0  0  0
 22 14  1  0  0  0  0
 23 26  1  0  0  0  0
 23 11  1  0  0  0  0
 23  9  1  0  0  0  0
 24 27  1  0  0  0  0
 24 16  1  0  0  0  0
 25 10  1  0  0  0  0
 26  8  1  0  0  0  0
 27 28  1  0  0  0  0
 28 29  1  0  0  0  0
 31 32  1  0  0  0  0
 32 30  1  0  0  0  0
M  END
>  <MODEL>
6

>  <REMARK>
 VINA RESULT:      -4.5      4.485      6.031
  Name = 
  4 active torsions:
  status: ('A' for Active; 'I' for Inactive)
    1  A    between atoms: C_14  and  C_21
    2  A    between atoms: C_14  and  N_29
    3  A    between atoms: C_15  and  S_19
    4  A    between atoms: S_19  and  C_26
                            x       y       z     vdW  Elec       q    Type
                         _______ _______ _______ _____ _____    ______ ____

>  <TORSDO>
F 4

$$$$
=
 OpenBabel10262421033D

 32 37  0  0  1  0  0  0  0  0999 V2000
  189.0830  174.3860  137.2500 C   0  0  1  0  0  3  0  0  0  0  0  0
  190.4410  176.0620  136.1170 C   0  0  2  0  0  3  0  0  0  0  0  0
  185.0230  176.1480  135.8050 C   0  0  1  0  0  3  0  0  0  0  0  0
  188.1000  173.4610  136.6920 N   0  0  0  0  0  2  0  0  0  0  0  0
  190.2430  174.5510  136.2920 C   0  0  1  0  0  3  0  0  0  0  0  0
  191.7680  176.6220  136.6800 C   0  0  2  0  0  3  0  0  0  0  0  0
  184.4540  176.8810  134.6030 C   0  0  0  0  0  1  0  0  0  0  0  0
  188.6960  178.3740  139.7940 O   0  0  0  0  0  0  0  0  0  0  0  0
  189.1910  176.7080  136.7280 C   0  0  1  0  0  3  0  0  0  0  0  0
  189.7830  176.3150  140.3540 C   0  0  0  0  0  1  0  0  0  0  0  0
  190.6260  177.8700  138.5190 C   0  0  1  0  0  3  0  0  0  0  0  0
  192.9080  175.7300  136.3080 C   0  0  0  0  0  0  0  0  0  0  0  0
  184.6270  174.6590  135.7750 C   0  0  1  0  0  3  0  0  0  0  0  0
  186.8050  174.0530  136.9600 C   0  0  2  0  0  3  0  0  0  0  0  0
  191.6710  176.7940  138.1910 C   0  0  0  0  0  2  0  0  0  0  0  0
  191.4530  173.7930  136.8510 C   0  0  0  0  0  2  0  0  0  0  0  0
  185.8290  173.7080  135.8270 C   0  0  0  0  0  2  0  0  0  0  0  0
  186.5290  176.3960  135.9600 C   0  0  2  0  0  3  0  0  0  0  0  0
  187.2010  176.0690  134.7740 O   0  0  0  0  0  1  0  0  0  0  0  0
  188.4660  175.6920  137.5030 N   0  0  1  0  0  0  0  0  0  0  0  0
  194.0590  176.2700  135.9200 C   0  0  0  0  0  2  0  0  0  0  0  0
  187.0490  175.5430  137.1420 C   0  0  2  0  0  3  0  0  0  0  0  0
  189.4760  177.9880  137.5510 C   0  0  2  0  0  3  0  0  0  0  0  0
  192.6990  174.3090  136.3030 N   0  0  0  0  0  0  0  0  0  0  0  0
  189.9570  177.7540  139.8770 C   0  0  1  0  0  3  0  0  0  0  0  0
  188.3080  178.3880  138.4350 C   0  0  0  0  0  2  0  0  0  0  0  0
  193.6330  173.3730  135.6870 C   0  0  0  0  0  2  0  0  0  0  0  0
  194.2130  172.4440  136.7370 C   0  0  0  0  0  2  0  0  0  0  0  0
  195.5800  172.9450  137.1520 C   0  0  0  0  0  1  0  0  0  0  0  0
  183.4750  174.2930  137.1340 S   0  0  0  0  0  0  0  0  0  0  0  0
  183.0110  171.6250  136.8390 C   0  0  0  0  0  1  0  0  0  0  0  0
  182.6680  172.9580  136.2080 C   0  0  0  0  0  2  0  0  0  0  0  0
  1  4  1  6  0  0  0
  1 20  1  0  0  0  0
  2  5  1  0  0  0  0
  2  6  1  0  0  0  0
  2  9  1  0  0  0  0
  3 18  1  0  0  0  0
  4 14  1  0  0  0  0
  5 16  1  0  0  0  0
  5  1  1  0  0  0  0
  6 15  1  0  0  0  0
  7  3  1  0  0  0  0
  8 25  1  0  0  0  0
  9 20  1  0  0  0  0
  9 23  1  0  0  0  0
 11 25  1  0  0  0  0
 12  6  1  0  0  0  0
 13  3  1  0  0  0  0
 13 17  1  0  0  0  0
 13 30  1  0  0  0  0
 14 22  1  0  0  0  0
 15 11  1  0  0  0  0
 17 14  1  0  0  0  0
 18 22  1  0  0  0  0
 19 18  1  0  0  0  0
 21 12  2  0  0  0  0
 22 20  1  0  0  0  0
 23 26  1  0  0  0  0
 23 11  1  0  0  0  0
 24 12  1  0  0  0  0
 24 16  1  0  0  0  0
 25 10  1  0  0  0  0
 26  8  1  0  0  0  0
 27 24  1  0  0  0  0
 27 28  1  0  0  0  0
 28 29  1  0  0  0  0
 32 31  1  0  0  0  0
 32 30  1  0  0  0  0
M  END
>  <MODEL>
7

>  <REMARK>
 VINA RESULT:      -4.3      6.190     10.479
  Name = 
  4 active torsions:
  status: ('A' for Active; 'I' for Inactive)
    1  A    between atoms: C_14  and  C_21
    2  A    between atoms: C_14  and  N_29
    3  A    between atoms: C_15  and  S_19
    4  A    between atoms: S_19  and  C_26
                            x       y       z     vdW  Elec       q    Type
                         _______ _______ _______ _____ _____    ______ ____

>  <TORSDO>
F 4

$$$$
=
 OpenBabel10262421033D

 32 37  0  0  1  0  0  0  0  0999 V2000
  182.8030  177.5080  137.2410 C   0  0  1  0  0  3  0  0  0  0  0  0
  183.4250  175.4240  138.3380 C   0  0  2  0  0  3  0  0  0  0  0  0
  179.6870  178.7270  140.4780 C   0  0  1  0  0  3  0  0  0  0  0  0
  182.8550  178.8760  137.7540 N   0  0  0  0  0  2  0  0  0  0  0  0
  183.9930  176.7200  137.7450 C   0  0  1  0  0  3  0  0  0  0  0  0
  183.8070  174.1310  137.5810 C   0  0  2  0  0  3  0  0  0  0  0  0
  179.4690  178.5770  141.9730 C   0  0  0  0  0  1  0  0  0  0  0  0
  179.2390  174.4700  136.4730 O   0  0  0  0  0  0  0  0  0  0  0  0
  181.9120  175.6540  138.4420 C   0  0  1  0  0  3  0  0  0  0  0  0
  180.8220  175.3770  134.9220 C   0  0  0  0  0  1  0  0  0  0  0  0
  181.4740  173.7480  136.7700 C   0  0  1  0  0  3  0  0  0  0  0  0
  185.2580  174.1470  137.2220 C   0  0  0  0  0  0  0  0  0  0  0  0
  180.1990  180.1400  140.1390 C   0  0  1  0  0  3  0  0  0  0  0  0
  181.5000  179.1970  138.1550 C   0  0  2  0  0  3  0  0  0  0  0  0
  182.9330  173.9640  136.3440 C   0  0  0  0  0  2  0  0  0  0  0  0
  184.9820  176.5310  136.5880 C   0  0  0  0  0  2  0  0  0  0  0  0
  181.5250  180.1390  139.3660 C   0  0  0  0  0  2  0  0  0  0  0  0
  180.5520  177.5920  139.9140 C   0  0  2  0  0  3  0  0  0  0  0  0
  181.7600  177.5040  140.6190 O   0  0  0  0  0  1  0  0  0  0  0  0
  181.5630  176.8520  137.6650 N   0  0  1  0  0  0  0  0  0  0  0  0
  185.9740  173.0350  137.3550 C   0  0  0  0  0  2  0  0  0  0  0  0
  180.8070  177.8670  138.4130 C   0  0  2  0  0  3  0  0  0  0  0  0
  181.0560  174.4250  138.0510 C   0  0  2  0  0  3  0  0  0  0  0  0
  185.8550  175.3900  136.8210 N   0  0  0  0  0  0  0  0  0  0  0  0
  180.4180  174.1710  135.7650 C   0  0  1  0  0  3  0  0  0  0  0  0
  179.6000  174.7810  137.8040 C   0  0  0  0  0  2  0  0  0  0  0  0
  187.2980  175.5830  136.7320 C   0  0  0  0  0  2  0  0  0  0  0  0
  187.7420  176.6660  137.6970 C   0  0  0  0  0  2  0  0  0  0  0  0
  188.4000  177.7890  136.9230 C   0  0  0  0  0  1  0  0  0  0  0  0
  178.9320  181.0570  139.2110 S   0  0  0  0  0  0  0  0  0  0  0  0
  179.7040  182.9080  137.3690 C   0  0  0  0  0  1  0  0  0  0  0  0
  180.1040  182.3520  138.7180 C   0  0  0  0  0  2  0  0  0  0  0  0
  1 20  1  0  0  0  0
  1  5  1  0  0  0  0
  1  4  1  1  0  0  0
  2  9  1  0  0  0  0
  3  7  1  0  0  0  0
  4 14  1  0  0  0  0
  5  2  1  0  0  0  0
  6  2  1  0  0  0  0
  8 26  1  0  0  0  0
 10 25  1  0  0  0  0
 11 23  1  0  0  0  0
 12 21  2  0  0  0  0
 12  6  1  0  0  0  0
 13  3  1  0  0  0  0
 14 22  1  0  0  0  0
 14 17  1  0  0  0  0
 15 11  1  0  0  0  0
 15  6  1  0  0  0  0
 16 24  1  0  0  0  0
 16  5  1  0  0  0  0
 17 13  1  0  0  0  0
 18  3  1  0  0  0  0
 18 19  1  0  0  0  0
 20 22  1  0  0  0  0
 20  9  1  0  0  0  0
 22 18  1  0  0  0  0
 23  9  1  0  0  0  0
 24 12  1  0  0  0  0
 25  8  1  0  0  0  0
 25 11  1  0  0  0  0
 26 23  1  0  0  0  0
 27 24  1  0  0  0  0
 27 28  1  0  0  0  0
 29 28  1  0  0  0  0
 30 13  1  0  0  0  0
 31 32  1  0  0  0  0
 32 30  1  0  0  0  0
M  END
>  <MODEL>
8

>  <REMARK>
 VINA RESULT:      -4.2      3.672      6.527
  Name = 
  4 active torsions:
  status: ('A' for Active; 'I' for Inactive)
    1  A    between atoms: C_14  and  C_21
    2  A    between atoms: C_14  and  N_29
    3  A    between atoms: C_15  and  S_19
    4  A    between atoms: S_19  and  C_26
                            x       y       z     vdW  Elec       q    Type
                         _______ _______ _______ _____ _____    ______ ____

>  <TORSDO>
F 4

$$$$
=
 OpenBabel10262421033D

 32 37  0  0  1  0  0  0  0  0999 V2000
  185.0230  177.6340  138.2600 C   0  0  1  0  0  3  0  0  0  0  0  0
  183.6690  178.1130  136.2920 C   0  0  2  0  0  3  0  0  0  0  0  0
  188.9540  176.9550  135.8590 C   0  0  1  0  0  3  0  0  0  0  0  0
  186.2340  178.3000  138.7340 N   0  0  0  0  0  2  0  0  0  0  0  0
  184.0680  178.6500  137.6730 C   0  0  1  0  0  3  0  0  0  0  0  0
  182.1840  177.7080  136.1470 C   0  0  2  0  0  3  0  0  0  0  0  0
  189.6270  177.4600  134.5950 C   0  0  0  0  0  1  0  0  0  0  0  0
  184.2470  173.4710  136.1160 O   0  0  0  0  0  0  0  0  0  0  0  0
  184.6510  176.9700  136.0020 C   0  0  1  0  0  3  0  0  0  0  0  0
  183.4140  174.2790  138.2110 C   0  0  0  0  0  1  0  0  0  0  0  0
  182.7180  175.2730  135.9710 C   0  0  1  0  0  3  0  0  0  0  0  0
  181.2990  178.7420  136.7660 C   0  0  0  0  0  0  0  0  0  0  0  0
  189.5820  177.6020  137.1080 C   0  0  1  0  0  3  0  0  0  0  0  0
  187.3370  177.4580  138.3150 C   0  0  2  0  0  3  0  0  0  0  0  0
  181.9470  176.3360  136.7660 C   0  0  0  0  0  2  0  0  0  0  0  0
  182.9080  178.8580  138.6540 C   0  0  0  0  0  2  0  0  0  0  0  0
  188.5620  178.3250  137.9980 C   0  0  0  0  0  2  0  0  0  0  0  0
  187.4280  177.0880  135.7800 C   0  0  2  0  0  3  0  0  0  0  0  0
  187.0680  178.4090  135.4820 O   0  0  0  0  0  1  0  0  0  0  0  0
  185.3590  176.6310  137.2440 N   0  0  1  0  0  0  0  0  0  0  0  0
  180.1790  179.0970  136.1460 C   0  0  0  0  0  2  0  0  0  0  0  0
  186.8250  176.6450  137.1350 C   0  0  2  0  0  3  0  0  0  0  0  0
  184.0050  175.7340  135.3330 C   0  0  2  0  0  3  0  0  0  0  0  0
  181.7310  179.3830  137.9770 N   0  0  0  0  0  0  0  0  0  0  0  0
  183.1110  174.0240  136.7380 C   0  0  1  0  0  3  0  0  0  0  0  0
  184.8910  174.5030  135.3970 C   0  0  0  0  0  2  0  0  0  0  0  0
  181.1030  180.5900  138.5010 C   0  0  0  0  0  2  0  0  0  0  0  0
  180.4950  180.3140  139.8640 C   0  0  0  0  0  2  0  0  0  0  0  0
  179.4130  181.3350  140.1480 C   0  0  0  0  0  1  0  0  0  0  0  0
  190.4810  176.3500  138.0740 S   0  0  0  0  0  0  0  0  0  0  0  0
  190.4780  176.7290  140.7710 C   0  0  0  0  0  1  0  0  0  0  0  0
  190.7200  177.4760  139.4770 C   0  0  0  0  0  2  0  0  0  0  0  0
  1  4  1  6  0  0  0
  2  5  1  0  0  0  0
  3 13  1  0  0  0  0
  5  1  1  0  0  0  0
  5 16  1  0  0  0  0
  6  2  1  0  0  0  0
  6 12  1  0  0  0  0
  6 15  1  0  0  0  0
  7  3  1  0  0  0  0
  8 25  1  0  0  0  0
  9  2  1  0  0  0  0
  9 20  1  0  0  0  0
 11 25  1  0  0  0  0
 11 15  1  0  0  0  0
 12 24  1  0  0  0  0
 13 17  1  0  0  0  0
 13 30  1  0  0  0  0
 14  4  1  0  0  0  0
 17 14  1  0  0  0  0
 18  3  1  0  0  0  0
 18 22  1  0  0  0  0
 19 18  1  0  0  0  0
 20  1  1  0  0  0  0
 21 12  2  0  0  0  0
 22 20  1  0  0  0  0
 22 14  1  0  0  0  0
 23 26  1  0  0  0  0
 23 11  1  0  0  0  0
 23  9  1  0  0  0  0
 24 27  1  0  0  0  0
 24 16  1  0  0  0  0
 25 10  1  0  0  0  0
 26  8  1  0  0  0  0
 27 28  1  0  0  0  0
 28 29  1  0  0  0  0
 30 32  1  0  0  0  0
 32 31  1  0  0  0  0
M  END
>  <MODEL>
9

>  <REMARK>
 VINA RESULT:      -3.8      3.461      4.578
  Name = 
  4 active torsions:
  status: ('A' for Active; 'I' for Inactive)
    1  A    between atoms: C_14  and  C_21
    2  A    between atoms: C_14  and  N_29
    3  A    between atoms: C_15  and  S_19
    4  A    between atoms: S_19  and  C_26
                            x       y       z     vdW  Elec       q    Type
                         _______ _______ _______ _____ _____    ______ ____

>  <TORSDO>
F 4

$$$$
