=
 OpenBabel10262420283D

 55 59  0  0  1  0  0  0  0  0999 V2000
  183.7910  178.9700  144.0850 C   0  0  2  0  0  3  0  0  0  0  0  0
  184.4190  178.2940  145.2970 C   0  0  0  0  0  3  0  0  0  0  0  0
  185.9220  178.2140  145.1140 C   0  0  0  0  0  2  0  0  0  0  0  0
  185.3230  179.2730  146.0170 C   0  0  0  0  0  2  0  0  0  0  0  0
  182.2650  178.8950  144.1450 C   0  0  0  0  0  2  0  0  0  0  0  0
  181.6310  178.9940  142.7620 C   0  0  0  0  0  2  0  0  0  0  0  0
  180.1290  179.1800  142.8780 C   0  0  0  0  0  2  0  0  0  0  0  0
  179.4410  178.6740  141.6230 C   0  0  0  0  0  2  0  0  0  0  0  0
  179.9310  177.2810  141.2850 C   0  0  0  0  0  2  0  0  0  0  0  0
  180.1470  177.1890  139.7880 C   0  0  0  0  0  2  0  0  0  0  0  0
  181.5590  177.6140  139.4220 C   0  0  1  0  0  3  0  0  0  0  0  0
  182.3270  176.4570  138.9770 N   0  0  0  0  0  2  0  0  0  0  0  0
  182.1190  173.8910  137.2550 C   0  0  0  0  0  0  0  0  0  0  0  0
  184.2560  177.4490  137.2910 F   0  0  0  0  0  0  0  0  0  0  0  0
  182.1600  176.3360  137.5330 C   0  0  1  0  0  3  0  0  0  0  0  0
  185.6940  172.6690  137.3660 C   0  0  0  0  0  3  0  0  0  0  0  0
  183.3270  176.5160  135.4690 F   0  0  0  0  0  0  0  0  0  0  0  0
  183.5280  176.3640  136.8300 C   0  0  0  0  0  0  0  0  0  0  0  0
  181.4520  172.8210  137.2670 O   0  0  0  0  0  0  0  0  0  0  0  0
  186.3880  173.8660  137.1670 C   0  0  0  0  0  3  0  0  0  0  0  0
  185.6890  175.0640  137.0090 C   0  0  0  0  0  3  0  0  0  0  0  0
  183.5900  173.8670  137.2450 C   0  0  0  0  0  0  0  0  0  0  0  0
  184.2870  175.0790  137.0680 C   0  0  0  0  0  0  0  0  0  0  0  0
  184.2970  172.6680  137.4010 C   0  0  0  0  0  3  0  0  0  0  0  0
  181.4620  175.1240  137.2380 O   0  0  0  0  0  0  0  0  0  0  0  0
  181.5440  178.7130  138.3500 C   0  0  0  0  0  2  0  0  0  0  0  0
  183.5680  180.0340  138.9050 C   0  0  0  0  0  1  0  0  0  0  0  0
  182.0540  180.0590  138.8470 C   0  0  1  0  0  3  0  0  0  0  0  0
  181.6370  181.0840  137.9980 O   0  0  0  0  0  1  0  0  0  0  0  0
  184.3470  178.3780  142.7930 C   0  0  0  0  0  2  0  0  0  0  0  0
  185.3050  179.3550  142.1260 C   0  0  0  0  0  2  0  0  0  0  0  0
  186.1710  178.6500  141.0940 C   0  0  0  0  0  2  0  0  0  0  0  0
  187.6290  178.7000  141.5150 C   0  0  0  0  0  2  0  0  0  0  0  0
  188.4530  177.6570  140.7580 C   0  0  1  0  0  3  0  0  0  0  0  0
  190.3600  177.2580  139.1490 C   0  0  0  0  0  2  0  0  0  0  0  0
  189.3750  178.5550  137.4020 C   0  0  1  0  0  3  0  0  0  0  0  0
  189.3940  178.2800  139.7180 C   0  0  1  0  0  3  0  0  0  0  0  0
  188.6550  178.9020  138.6210 N   0  0  0  0  0  2  0  0  0  0  0  0
  190.1370  177.2750  137.6590 C   0  0  0  0  0  2  0  0  0  0  0  0
  188.4350  178.4100  136.2020 C   0  0  0  0  0  3  0  0  0  0  0  0
  188.7630  177.1970  135.3460 C   0  0  0  0  0  1  0  0  0  0  0  0
  186.9940  178.3350  136.6650 C   0  0  0  0  0  1  0  0  0  0  0  0
  189.2750  176.8280  141.7360 C   0  0  0  0  0  2  0  0  0  0  0  0
  191.5600  177.5060  145.2670 C   0  0  0  0  0  2  0  0  0  0  0  0
  191.6690  178.5630  144.1770 C   0  0  0  0  0  2  0  0  0  0  0  0
  188.2510  176.2640  144.3400 O   0  0  0  0  0  0  0  0  0  0  0  0
  189.6690  177.6360  142.9680 C   0  0  2  0  0  3  0  0  0  0  0  0
  191.1590  177.9630  142.8760 C   0  0  0  0  0  2  0  0  0  0  0  0
  189.3310  176.9140  144.2550 C   0  0  0  0  0  0  0  0  0  0  0  0
  190.1760  177.0590  145.4110 N   0  0  0  0  0  0  0  0  0  0  0  0
  189.7420  176.5530  146.7100 C   0  0  0  0  0  2  0  0  0  0  0  0
  190.0830  178.0910  148.6150 C   0  0  0  0  0  1  0  0  0  0  0  0
  187.8530  177.1080  148.2730 C   0  0  0  0  0  1  0  0  0  0  0  0
  188.7050  178.8340  146.7170 C   0  0  0  0  0  1  0  0  0  0  0  0
  189.0870  177.6370  147.5680 C   0  0  0  0  0  0  0  0  0  0  0  0
  1 30  1  6  0  0  0
  1  5  1  0  0  0  0
  1  2  1  0  0  0  0
  2  4  1  0  0  0  0
  3  2  1  0  0  0  0
  3  4  1  0  0  0  0
  6  7  1  0  0  0  0
  6  5  1  0  0  0  0
  8  7  1  0  0  0  0
  9  8  1  0  0  0  0
 10  9  1  0  0  0  0
 11 26  1  6  0  0  0
 11 10  1  0  0  0  0
 12 11  1  0  0  0  0
 13 19  2  0  0  0  0
 15 12  1  1  0  0  0
 16 24  1  0  0  0  0
 17 18  1  0  0  0  0
 18 23  1  0  0  0  0
 18 14  1  0  0  0  0
 18 15  1  0  0  0  0
 20 16  2  0  0  0  0
 21 23  2  0  0  0  0
 21 20  1  0  0  0  0
 22 13  1  0  0  0  0
 22 24  2  0  0  0  0
 23 22  1  0  0  0  0
 25 13  1  0  0  0  0
 25 15  1  0  0  0  0
 26 28  1  0  0  0  0
 28 27  1  6  0  0  0
 29 28  1  0  0  0  0
 31 30  1  0  0  0  0
 32 33  1  0  0  0  0
 32 31  1  0  0  0  0
 34 33  1  1  0  0  0
 34 43  1  0  0  0  0
 35 37  1  0  0  0  0
 36 40  1  6  0  0  0
 36 39  1  0  0  0  0
 36 38  1  0  0  0  0
 37 34  1  1  0  0  0
 38 37  1  0  0  0  0
 39 35  1  0  0  0  0
 40 42  1  0  0  0  0
 41 40  1  0  0  0  0
 44 50  1  0  0  0  0
 45 44  1  0  0  0  0
 47 43  1  6  0  0  0
 47 49  1  0  0  0  0
 48 47  1  0  0  0  0
 48 45  1  0  0  0  0
 49 46  2  0  0  0  0
 49 50  1  0  0  0  0
 50 51  1  0  0  0  0
 51 55  1  0  0  0  0
 54 55  1  0  0  0  0
 55 53  1  0  0  0  0
 55 52  1  0  0  0  0
M  END
>  <MODEL>
1

>  <REMARK>
 VINA RESULT:      -7.2      0.000      0.000
  Name = 
  23 active torsions:
  status: ('A' for Active; 'I' for Inactive)
    1  A    between atoms: C_2  and  C_28
    2  A    between atoms: C_2  and  C_44
    3  A    between atoms: C_6  and  N_46
    4  A    between atoms: C_8  and  C_20
    5  A    between atoms: C_8  and  C_22
    6  A    between atoms: C_10  and  C_32
    7  A    between atoms: C_17  and  C_36
    8  A    between atoms: C_19  and  C_40
    9  A    between atoms: C_19  and  N_45
   10  A    between atoms: C_22  and  C_35
   11  A    between atoms: C_22  and  N_46
   12  A    between atoms: C_24  and  C_44
   13  A    between atoms: C_27  and  C_31
   14  A    between atoms: C_27  and  C_54
   15  A    between atoms: C_28  and  C_49
   16  A    between atoms: C_31  and  C_44
   17  A    between atoms: C_33  and  C_49
   18  A    between atoms: C_33  and  C_52
   19  A    between atoms: C_34  and  C_52
   20  A    between atoms: C_35  and  C_43
   21  A    between atoms: C_36  and  C_52
   22  A    between atoms: C_43  and  C_51
   23  A    between atoms: C_51  and  C_54
                            x       y       z     vdW  Elec       q    Type
                         _______ _______ _______ _____ _____    ______ ____

>  <TORSDO>
F 23

$$$$
=
 OpenBabel10262420283D

 55 59  0  0  1  0  0  0  0  0999 V2000
  185.6900  178.1610  143.8030 C   0  0  2  0  0  3  0  0  0  0  0  0
  185.2950  179.0910  144.9430 C   0  0  0  0  0  3  0  0  0  0  0  0
  184.6450  178.2860  146.0530 C   0  0  0  0  0  2  0  0  0  0  0  0
  186.0850  178.7380  146.1870 C   0  0  0  0  0  2  0  0  0  0  0  0
  187.1930  177.8790  143.8230 C   0  0  0  0  0  2  0  0  0  0  0  0
  187.5030  176.4060  143.5840 C   0  0  0  0  0  2  0  0  0  0  0  0
  188.9240  176.2360  143.0760 C   0  0  0  0  0  2  0  0  0  0  0  0
  189.2030  177.2290  141.9630 C   0  0  0  0  0  2  0  0  0  0  0  0
  190.3600  176.7480  141.1110 C   0  0  0  0  0  2  0  0  0  0  0  0
  190.3040  177.4490  139.7700 C   0  0  0  0  0  2  0  0  0  0  0  0
  190.0900  176.4470  138.6480 C   0  0  1  0  0  3  0  0  0  0  0  0
  188.6950  176.4640  138.2260 N   0  0  0  0  0  2  0  0  0  0  0  0
  186.2880  178.3480  137.7270 C   0  0  0  0  0  0  0  0  0  0  0  0
  188.7490  175.8050  135.5590 F   0  0  0  0  0  0  0  0  0  0  0  0
  188.5440  177.5070  137.2180 C   0  0  1  0  0  3  0  0  0  0  0  0
  183.8020  175.9390  136.2100 C   0  0  0  0  0  3  0  0  0  0  0  0
  188.1160  177.8610  134.9060 F   0  0  0  0  0  0  0  0  0  0  0  0
  187.9960  176.9140  135.9090 C   0  0  0  0  0  0  0  0  0  0  0  0
  185.5590  179.1170  138.4100 O   0  0  0  0  0  0  0  0  0  0  0  0
  184.6250  175.2320  135.3290 C   0  0  0  0  0  3  0  0  0  0  0  0
  185.9840  175.5360  135.2410 C   0  0  0  0  0  3  0  0  0  0  0  0
  185.7020  177.2660  136.9210 C   0  0  0  0  0  0  0  0  0  0  0  0
  186.5380  176.5400  136.0510 C   0  0  0  0  0  0  0  0  0  0  0  0
  184.3380  176.9570  137.0020 C   0  0  0  0  0  3  0  0  0  0  0  0
  187.6740  178.5250  137.7180 O   0  0  0  0  0  0  0  0  0  0  0  0
  191.0290  176.7320  137.4670 C   0  0  0  0  0  2  0  0  0  0  0  0
  192.6430  175.8810  135.7880 C   0  0  0  0  0  1  0  0  0  0  0  0
  191.8070  175.5100  136.9960 C   0  0  1  0  0  3  0  0  0  0  0  0
  192.6380  175.0370  138.0110 O   0  0  0  0  0  1  0  0  0  0  0  0
  185.2290  178.7290  142.4630 C   0  0  0  0  0  2  0  0  0  0  0  0
  183.7110  178.6980  142.3640 C   0  0  0  0  0  2  0  0  0  0  0  0
  183.2540  178.9010  140.9280 C   0  0  0  0  0  2  0  0  0  0  0  0
  182.6630  177.6130  140.3820 C   0  0  0  0  0  2  0  0  0  0  0  0
  181.7050  177.8980  139.2250 C   0  0  1  0  0  3  0  0  0  0  0  0
  179.8320  176.5260  140.2220 C   0  0  0  0  0  2  0  0  0  0  0  0
  179.0540  178.3000  141.6190 C   0  0  1  0  0  3  0  0  0  0  0  0
  180.2310  177.8740  139.6510 C   0  0  1  0  0  3  0  0  0  0  0  0
  179.9320  178.9160  140.6310 N   0  0  0  0  0  2  0  0  0  0  0  0
  179.3110  176.8110  141.6070 C   0  0  0  0  0  2  0  0  0  0  0  0
  179.2640  178.8890  143.0170 C   0  0  0  0  0  3  0  0  0  0  0  0
  180.3730  178.1870  143.7850 C   0  0  0  0  0  1  0  0  0  0  0  0
  179.5610  180.3720  142.9280 C   0  0  0  0  0  1  0  0  0  0  0  0
  182.0200  179.2530  138.6050 C   0  0  0  0  0  2  0  0  0  0  0  0
  180.5430  181.6000  135.3700 C   0  0  0  0  0  2  0  0  0  0  0  0
  180.5280  180.0900  135.1740 C   0  0  0  0  0  2  0  0  0  0  0  0
  180.3980  181.5660  139.0210 O   0  0  0  0  0  0  0  0  0  0  0  0
  180.9380  179.6880  137.6210 C   0  0  2  0  0  3  0  0  0  0  0  0
  181.4570  179.4640  136.2020 C   0  0  0  0  0  2  0  0  0  0  0  0
  180.5100  181.1230  137.8440 C   0  0  0  0  0  0  0  0  0  0  0  0
  180.1220  181.9440  136.7270 N   0  0  0  0  0  0  0  0  0  0  0  0
  179.4990  183.2460  136.9490 C   0  0  0  0  0  2  0  0  0  0  0  0
  179.8080  185.6920  137.1390 C   0  0  0  0  0  1  0  0  0  0  0  0
  180.7640  184.5260  135.1930 C   0  0  0  0  0  1  0  0  0  0  0  0
  181.7550  184.2190  137.4400 C   0  0  0  0  0  1  0  0  0  0  0  0
  180.4590  184.4050  136.6740 C   0  0  0  0  0  0  0  0  0  0  0  0
  1 30  1  6  0  0  0
  1  5  1  0  0  0  0
  1  2  1  0  0  0  0
  2  3  1  0  0  0  0
  2  4  1  0  0  0  0
  3  4  1  0  0  0  0
  6  5  1  0  0  0  0
  7  6  1  0  0  0  0
  8  7  1  0  0  0  0
  9  8  1  0  0  0  0
 10  9  1  0  0  0  0
 11 26  1  6  0  0  0
 11 10  1  0  0  0  0
 12 11  1  0  0  0  0
 13 19  2  0  0  0  0
 14 18  1  0  0  0  0
 15 25  1  0  0  0  0
 15 12  1  1  0  0  0
 16 24  1  0  0  0  0
 17 18  1  0  0  0  0
 18 23  1  0  0  0  0
 18 15  1  0  0  0  0
 20 16  2  0  0  0  0
 21 20  1  0  0  0  0
 21 23  2  0  0  0  0
 22 24  2  0  0  0  0
 22 13  1  0  0  0  0
 23 22  1  0  0  0  0
 25 13  1  0  0  0  0
 28 27  1  6  0  0  0
 28 26  1  0  0  0  0
 28 29  1  0  0  0  0
 31 30  1  0  0  0  0
 32 31  1  0  0  0  0
 33 32  1  0  0  0  0
 34 43  1  1  0  0  0
 34 33  1  0  0  0  0
 35 39  1  0  0  0  0
 36 40  1  1  0  0  0
 37 34  1  1  0  0  0
 37 35  1  0  0  0  0
 37 38  1  0  0  0  0
 38 36  1  0  0  0  0
 39 36  1  0  0  0  0
 40 41  1  0  0  0  0
 42 40  1  0  0  0  0
 44 50  1  0  0  0  0
 45 44  1  0  0  0  0
 45 48  1  0  0  0  0
 47 49  1  0  0  0  0
 47 43  1  1  0  0  0
 48 47  1  0  0  0  0
 49 46  2  0  0  0  0
 50 51  1  0  0  0  0
 50 49  1  0  0  0  0
 53 55  1  0  0  0  0
 55 51  1  0  0  0  0
 55 52  1  0  0  0  0
 55 54  1  0  0  0  0
M  END
>  <MODEL>
2

>  <REMARK>
 VINA RESULT:      -7.1      2.975      9.370
  Name = 
  23 active torsions:
  status: ('A' for Active; 'I' for Inactive)
    1  A    between atoms: C_2  and  C_28
    2  A    between atoms: C_2  and  C_44
    3  A    between atoms: C_6  and  N_46
    4  A    between atoms: C_8  and  C_20
    5  A    between atoms: C_8  and  C_22
    6  A    between atoms: C_10  and  C_32
    7  A    between atoms: C_17  and  C_36
    8  A    between atoms: C_19  and  C_40
    9  A    between atoms: C_19  and  N_45
   10  A    between atoms: C_22  and  C_35
   11  A    between atoms: C_22  and  N_46
   12  A    between atoms: C_24  and  C_44
   13  A    between atoms: C_27  and  C_31
   14  A    between atoms: C_27  and  C_54
   15  A    between atoms: C_28  and  C_49
   16  A    between atoms: C_31  and  C_44
   17  A    between atoms: C_33  and  C_49
   18  A    between atoms: C_33  and  C_52
   19  A    between atoms: C_34  and  C_52
   20  A    between atoms: C_35  and  C_43
   21  A    between atoms: C_36  and  C_52
   22  A    between atoms: C_43  and  C_51
   23  A    between atoms: C_51  and  C_54
                            x       y       z     vdW  Elec       q    Type
                         _______ _______ _______ _____ _____    ______ ____

>  <TORSDO>
F 23

$$$$
=
 OpenBabel10262420283D

 55 59  0  0  1  0  0  0  0  0999 V2000
  186.3730  178.0750  144.7640 C   0  0  2  0  0  3  0  0  0  0  0  0
  185.7760  177.7210  146.1200 C   0  0  0  0  0  3  0  0  0  0  0  0
  185.9000  178.9070  147.0570 C   0  0  0  0  0  2  0  0  0  0  0  0
  184.5730  178.5990  146.3940 C   0  0  0  0  0  2  0  0  0  0  0  0
  185.3910  177.7640  143.6350 C   0  0  0  0  0  2  0  0  0  0  0  0
  185.1770  178.9590  142.7130 C   0  0  0  0  0  2  0  0  0  0  0  0
  183.8220  178.8730  142.0350 C   0  0  0  0  0  2  0  0  0  0  0  0
  182.7220  178.7730  143.0770 C   0  0  0  0  0  2  0  0  0  0  0  0
  181.3740  179.0470  142.4410 C   0  0  0  0  0  2  0  0  0  0  0  0
  181.4390  178.6710  140.9760 C   0  0  0  0  0  2  0  0  0  0  0  0
  180.0830  178.8510  140.3140 C   0  0  1  0  0  3  0  0  0  0  0  0
  180.0950  180.0430  139.4740 N   0  0  0  0  0  2  0  0  0  0  0  0
  182.1040  182.0480  138.2330 C   0  0  0  0  0  0  0  0  0  0  0  0
  179.2150  179.3510  136.9640 F   0  0  0  0  0  0  0  0  0  0  0  0
  181.0600  179.8260  138.4010 C   0  0  1  0  0  3  0  0  0  0  0  0
  179.7670  184.2610  136.2520 C   0  0  0  0  0  3  0  0  0  0  0  0
  181.2510  179.5970  136.0420 F   0  0  0  0  0  0  0  0  0  0  0  0
  180.4020  180.0630  137.0310 C   0  0  0  0  0  0  0  0  0  0  0  0
  182.9780  182.8560  138.6480 O   0  0  0  0  0  0  0  0  0  0  0  0
  178.9310  183.3050  135.6680 C   0  0  0  0  0  3  0  0  0  0  0  0
  179.1260  181.9480  135.9310 C   0  0  0  0  0  3  0  0  0  0  0  0
  181.0050  182.5000  137.3670 C   0  0  0  0  0  0  0  0  0  0  0  0
  180.1490  181.5350  136.7980 C   0  0  0  0  0  0  0  0  0  0  0  0
  180.8050  183.8590  137.0960 C   0  0  0  0  0  3  0  0  0  0  0  0
  182.1770  180.6980  138.5860 O   0  0  0  0  0  0  0  0  0  0  0  0
  179.6950  177.6070  139.5040 C   0  0  0  0  0  2  0  0  0  0  0  0
  180.3610  175.3450  140.2730 C   0  0  0  0  0  1  0  0  0  0  0  0
  179.2940  176.4170  140.3660 C   0  0  1  0  0  3  0  0  0  0  0  0
  179.1380  176.8060  141.6960 O   0  0  0  0  0  1  0  0  0  0  0  0
  187.7150  177.3750  144.5690 C   0  0  0  0  0  2  0  0  0  0  0  0
  187.6040  176.2930  143.5050 C   0  0  0  0  0  2  0  0  0  0  0  0
  188.7280  176.4090  142.4880 C   0  0  0  0  0  2  0  0  0  0  0  0
  189.0910  177.8680  142.2780 C   0  0  0  0  0  2  0  0  0  0  0  0
  190.5240  178.0070  141.7630 C   0  0  1  0  0  3  0  0  0  0  0  0
  191.2820  179.3150  143.7880 C   0  0  0  0  0  2  0  0  0  0  0  0
  191.7130  177.3640  145.0940 C   0  0  1  0  0  3  0  0  0  0  0  0
  191.5560  178.1210  142.8940 C   0  0  1  0  0  3  0  0  0  0  0  0
  191.6000  176.9110  143.7120 N   0  0  0  0  0  2  0  0  0  0  0  0
  191.1300  178.7550  145.1780 C   0  0  0  0  0  2  0  0  0  0  0  0
  191.0160  176.4090  146.0680 C   0  0  0  0  0  3  0  0  0  0  0  0
  191.9560  175.8830  147.1410 C   0  0  0  0  0  1  0  0  0  0  0  0
  189.8280  177.0900  146.7170 C   0  0  0  0  0  1  0  0  0  0  0  0
  190.8830  176.8160  140.8840 C   0  0  0  0  0  2  0  0  0  0  0  0
  191.2070  175.9500  136.7250 C   0  0  0  0  0  2  0  0  0  0  0  0
  189.9910  176.7580  137.1560 C   0  0  0  0  0  2  0  0  0  0  0  0
  193.3780  176.9170  139.5000 O   0  0  0  0  0  0  0  0  0  0  0  0
  190.9940  177.2130  139.4150 C   0  0  2  0  0  3  0  0  0  0  0  0
  189.8170  176.5990  138.6580 C   0  0  0  0  0  2  0  0  0  0  0  0
  192.3230  176.8060  138.8150 C   0  0  0  0  0  0  0  0  0  0  0  0
  192.4010  176.4030  137.4350 N   0  0  0  0  0  0  0  0  0  0  0  0
  193.7000  176.2260  136.7900 C   0  0  0  0  0  2  0  0  0  0  0  0
  194.3720  174.1340  137.9230 C   0  0  0  0  0  1  0  0  0  0  0  0
  195.2540  174.5970  135.6720 C   0  0  0  0  0  1  0  0  0  0  0  0
  192.8710  174.0060  135.9780 C   0  0  0  0  0  1  0  0  0  0  0  0
  194.0480  174.7520  136.5780 C   0  0  0  0  0  0  0  0  0  0  0  0
  1  5  1  6  0  0  0
  1  2  1  0  0  0  0
  2  4  1  0  0  0  0
  2  3  1  0  0  0  0
  4  3  1  0  0  0  0
  6  5  1  0  0  0  0
  7  6  1  0  0  0  0
  7  8  1  0  0  0  0
  9  8  1  0  0  0  0
 10  9  1  0  0  0  0
 11 26  1  6  0  0  0
 11 10  1  0  0  0  0
 12 11  1  0  0  0  0
 13 25  1  0  0  0  0
 13 19  2  0  0  0  0
 14 18  1  0  0  0  0
 15 25  1  0  0  0  0
 15 12  1  1  0  0  0
 16 24  1  0  0  0  0
 17 18  1  0  0  0  0
 18 15  1  0  0  0  0
 20 21  1  0  0  0  0
 20 16  2  0  0  0  0
 21 23  2  0  0  0  0
 22 13  1  0  0  0  0
 23 18  1  0  0  0  0
 23 22  1  0  0  0  0
 24 22  2  0  0  0  0
 26 28  1  0  0  0  0
 28 27  1  1  0  0  0
 28 29  1  0  0  0  0
 30  1  1  0  0  0  0
 31 30  1  0  0  0  0
 32 31  1  0  0  0  0
 33 32  1  0  0  0  0
 34 43  1  1  0  0  0
 34 33  1  0  0  0  0
 35 39  1  0  0  0  0
 36 39  1  0  0  0  0
 36 40  1  1  0  0  0
 37 34  1  6  0  0  0
 37 38  1  0  0  0  0
 37 35  1  0  0  0  0
 38 36  1  0  0  0  0
 40 42  1  0  0  0  0
 40 41  1  0  0  0  0
 44 45  1  0  0  0  0
 44 50  1  0  0  0  0
 45 48  1  0  0  0  0
 47 43  1  1  0  0  0
 48 47  1  0  0  0  0
 49 47  1  0  0  0  0
 49 46  2  0  0  0  0
 50 49  1  0  0  0  0
 51 50  1  0  0  0  0
 53 55  1  0  0  0  0
 54 55  1  0  0  0  0
 55 51  1  0  0  0  0
 55 52  1  0  0  0  0
M  END
>  <MODEL>
3

>  <REMARK>
 VINA RESULT:      -6.7      2.976      7.295
  Name = 
  23 active torsions:
  status: ('A' for Active; 'I' for Inactive)
    1  A    between atoms: C_2  and  C_28
    2  A    between atoms: C_2  and  C_44
    3  A    between atoms: C_6  and  N_46
    4  A    between atoms: C_8  and  C_20
    5  A    between atoms: C_8  and  C_22
    6  A    between atoms: C_10  and  C_32
    7  A    between atoms: C_17  and  C_36
    8  A    between atoms: C_19  and  C_40
    9  A    between atoms: C_19  and  N_45
   10  A    between atoms: C_22  and  C_35
   11  A    between atoms: C_22  and  N_46
   12  A    between atoms: C_24  and  C_44
   13  A    between atoms: C_27  and  C_31
   14  A    between atoms: C_27  and  C_54
   15  A    between atoms: C_28  and  C_49
   16  A    between atoms: C_31  and  C_44
   17  A    between atoms: C_33  and  C_49
   18  A    between atoms: C_33  and  C_52
   19  A    between atoms: C_34  and  C_52
   20  A    between atoms: C_35  and  C_43
   21  A    between atoms: C_36  and  C_52
   22  A    between atoms: C_43  and  C_51
   23  A    between atoms: C_51  and  C_54
                            x       y       z     vdW  Elec       q    Type
                         _______ _______ _______ _____ _____    ______ ____

>  <TORSDO>
F 23

$$$$
=
 OpenBabel10262420283D

 55 59  0  0  1  0  0  0  0  0999 V2000
  184.3850  178.9350  143.8860 C   0  0  2  0  0  3  0  0  0  0  0  0
  185.2010  178.2610  144.9810 C   0  0  0  0  0  3  0  0  0  0  0  0
  185.7140  179.3070  145.9520 C   0  0  0  0  0  2  0  0  0  0  0  0
  184.5180  178.4520  146.3190 C   0  0  0  0  0  2  0  0  0  0  0  0
  182.8870  178.8190  144.1700 C   0  0  0  0  0  2  0  0  0  0  0  0
  182.0550  178.8700  142.8930 C   0  0  0  0  0  2  0  0  0  0  0  0
  180.6620  179.3990  143.1860 C   0  0  0  0  0  2  0  0  0  0  0  0
  179.9000  179.6100  141.8910 C   0  0  0  0  0  2  0  0  0  0  0  0
  179.3470  178.2920  141.3890 C   0  0  0  0  0  2  0  0  0  0  0  0
  179.1040  178.4000  139.8980 C   0  0  0  0  0  2  0  0  0  0  0  0
  180.1870  179.2360  139.2360 C   0  0  1  0  0  3  0  0  0  0  0  0
  181.0520  178.3810  138.4320 N   0  0  0  0  0  2  0  0  0  0  0  0
  184.1480  178.3720  138.3310 C   0  0  0  0  0  0  0  0  0  0  0  0
  181.0390  175.6430  138.6630 F   0  0  0  0  0  0  0  0  0  0  0  0
  181.9950  177.7240  139.3310 C   0  0  1  0  0  3  0  0  0  0  0  0
  184.7560  176.1110  135.3650 C   0  0  0  0  0  3  0  0  0  0  0  0
  182.9280  175.6070  139.8820 F   0  0  0  0  0  0  0  0  0  0  0  0
  182.2520  176.2770  138.8770 C   0  0  0  0  0  0  0  0  0  0  0  0
  185.0710  179.2250  138.2330 O   0  0  0  0  0  0  0  0  0  0  0  0
  183.8340  175.0910  135.6170 C   0  0  0  0  0  3  0  0  0  0  0  0
  183.0130  175.1520  136.7440 C   0  0  0  0  0  3  0  0  0  0  0  0
  184.0410  177.2590  137.3760 C   0  0  0  0  0  0  0  0  0  0  0  0
  183.0940  176.2440  137.6210 C   0  0  0  0  0  0  0  0  0  0  0  0
  184.8630  177.1910  136.2450 C   0  0  0  0  0  3  0  0  0  0  0  0
  183.2130  178.4700  139.3650 O   0  0  0  0  0  0  0  0  0  0  0  0
  179.5760  180.3590  138.3880 C   0  0  0  0  0  2  0  0  0  0  0  0
  181.5970  181.7960  138.4120 C   0  0  0  0  0  1  0  0  0  0  0  0
  180.1160  181.7430  138.7250 C   0  0  1  0  0  3  0  0  0  0  0  0
  179.4480  182.7210  137.9880 O   0  0  0  0  0  1  0  0  0  0  0  0
  184.7560  178.3740  142.5160 C   0  0  0  0  0  2  0  0  0  0  0  0
  185.8700  179.1970  141.8860 C   0  0  0  0  0  2  0  0  0  0  0  0
  186.5390  178.4340  140.7540 C   0  0  0  0  0  2  0  0  0  0  0  0
  188.0290  178.7250  140.7380 C   0  0  0  0  0  2  0  0  0  0  0  0
  188.8160  177.5200  140.2200 C   0  0  1  0  0  3  0  0  0  0  0  0
  190.7790  176.8430  138.7790 C   0  0  0  0  0  2  0  0  0  0  0  0
  189.6180  177.2300  136.7280 C   0  0  1  0  0  3  0  0  0  0  0  0
  189.6570  177.8450  138.9780 C   0  0  1  0  0  3  0  0  0  0  0  0
  188.8390  177.8930  137.7670 N   0  0  0  0  0  2  0  0  0  0  0  0
  190.5710  176.2700  137.4020 C   0  0  0  0  0  2  0  0  0  0  0  0
  188.7250  176.5090  135.7150 C   0  0  0  0  0  3  0  0  0  0  0  0
  188.2570  177.4240  134.5950 C   0  0  0  0  0  1  0  0  0  0  0  0
  189.4480  175.3110  135.1310 C   0  0  0  0  0  1  0  0  0  0  0  0
  189.7340  176.9850  141.3120 C   0  0  0  0  0  2  0  0  0  0  0  0
  190.7040  177.8990  145.3580 C   0  0  0  0  0  2  0  0  0  0  0  0
  191.2550  178.8450  144.3000 C   0  0  0  0  0  2  0  0  0  0  0  0
  187.8400  176.7050  143.4300 O   0  0  0  0  0  0  0  0  0  0  0  0
  189.7340  177.8880  142.5410 C   0  0  2  0  0  3  0  0  0  0  0  0
  191.1830  178.1470  142.9500 C   0  0  0  0  0  2  0  0  0  0  0  0
  188.9250  177.3010  143.6780 C   0  0  0  0  0  0  0  0  0  0  0  0
  189.3290  177.5210  145.0420 N   0  0  0  0  0  0  0  0  0  0  0  0
  188.4410  177.1540  146.1430 C   0  0  0  0  0  2  0  0  0  0  0  0
  188.3650  176.2110  148.4270 C   0  0  0  0  0  1  0  0  0  0  0  0
  189.3420  178.4460  148.1020 C   0  0  0  0  0  1  0  0  0  0  0  0
  190.5420  176.4350  147.3030 C   0  0  0  0  0  1  0  0  0  0  0  0
  189.1770  177.0730  147.4810 C   0  0  0  0  0  0  0  0  0  0  0  0
  1 30  1  6  0  0  0
  1  5  1  0  0  0  0
  1  2  1  0  0  0  0
  2  3  1  0  0  0  0
  2  4  1  0  0  0  0
  3  4  1  0  0  0  0
  6  7  1  0  0  0  0
  6  5  1  0  0  0  0
  8  7  1  0  0  0  0
  9  8  1  0  0  0  0
 10  9  1  0  0  0  0
 11 26  1  6  0  0  0
 11 10  1  0  0  0  0
 12 11  1  0  0  0  0
 13 25  1  0  0  0  0
 14 18  1  0  0  0  0
 15 12  1  6  0  0  0
 15 25  1  0  0  0  0
 16 20  2  0  0  0  0
 16 24  1  0  0  0  0
 18 15  1  0  0  0  0
 18 17  1  0  0  0  0
 19 13  2  0  0  0  0
 20 21  1  0  0  0  0
 21 23  2  0  0  0  0
 22 23  1  0  0  0  0
 22 13  1  0  0  0  0
 23 18  1  0  0  0  0
 24 22  2  0  0  0  0
 26 28  1  0  0  0  0
 28 27  1  6  0  0  0
 29 28  1  0  0  0  0
 31 30  1  0  0  0  0
 32 31  1  0  0  0  0
 33 32  1  0  0  0  0
 34 33  1  1  0  0  0
 34 43  1  0  0  0  0
 35 37  1  0  0  0  0
 36 40  1  6  0  0  0
 36 39  1  0  0  0  0
 36 38  1  0  0  0  0
 37 34  1  1  0  0  0
 38 37  1  0  0  0  0
 39 35  1  0  0  0  0
 41 40  1  0  0  0  0
 42 40  1  0  0  0  0
 45 44  1  0  0  0  0
 46 49  2  0  0  0  0
 47 43  1  6  0  0  0
 47 48  1  0  0  0  0
 47 49  1  0  0  0  0
 48 45  1  0  0  0  0
 49 50  1  0  0  0  0
 50 44  1  0  0  0  0
 50 51  1  0  0  0  0
 51 55  1  0  0  0  0
 54 55  1  0  0  0  0
 55 53  1  0  0  0  0
 55 52  1  0  0  0  0
M  END
>  <MODEL>
4

>  <REMARK>
 VINA RESULT:      -6.7      1.852      2.430
  Name = 
  23 active torsions:
  status: ('A' for Active; 'I' for Inactive)
    1  A    between atoms: C_2  and  C_28
    2  A    between atoms: C_2  and  C_44
    3  A    between atoms: C_6  and  N_46
    4  A    between atoms: C_8  and  C_20
    5  A    between atoms: C_8  and  C_22
    6  A    between atoms: C_10  and  C_32
    7  A    between atoms: C_17  and  C_36
    8  A    between atoms: C_19  and  C_40
    9  A    between atoms: C_19  and  N_45
   10  A    between atoms: C_22  and  C_35
   11  A    between atoms: C_22  and  N_46
   12  A    between atoms: C_24  and  C_44
   13  A    between atoms: C_27  and  C_31
   14  A    between atoms: C_27  and  C_54
   15  A    between atoms: C_28  and  C_49
   16  A    between atoms: C_31  and  C_44
   17  A    between atoms: C_33  and  C_49
   18  A    between atoms: C_33  and  C_52
   19  A    between atoms: C_34  and  C_52
   20  A    between atoms: C_35  and  C_43
   21  A    between atoms: C_36  and  C_52
   22  A    between atoms: C_43  and  C_51
   23  A    between atoms: C_51  and  C_54
                            x       y       z     vdW  Elec       q    Type
                         _______ _______ _______ _____ _____    ______ ____

>  <TORSDO>
F 23

$$$$
=
 OpenBabel10262420283D

 55 59  0  0  1  0  0  0  0  0999 V2000
  186.3960  178.3520  144.9760 C   0  0  2  0  0  3  0  0  0  0  0  0
  186.0020  177.6690  146.2800 C   0  0  0  0  0  3  0  0  0  0  0  0
  186.5340  178.4680  147.4540 C   0  0  0  0  0  2  0  0  0  0  0  0
  185.0720  178.5690  147.0670 C   0  0  0  0  0  2  0  0  0  0  0  0
  185.3000  178.1930  143.9220 C   0  0  0  0  0  2  0  0  0  0  0  0
  183.9550  178.7210  144.4080 C   0  0  0  0  0  2  0  0  0  0  0  0
  183.2090  179.4000  143.2740 C   0  0  0  0  0  2  0  0  0  0  0  0
  182.2560  178.4200  142.6130 C   0  0  0  0  0  2  0  0  0  0  0  0
  181.1820  179.1680  141.8520 C   0  0  0  0  0  2  0  0  0  0  0  0
  181.0230  178.5390  140.4840 C   0  0  0  0  0  2  0  0  0  0  0  0
  181.4380  179.5120  139.3930 C   0  0  1  0  0  3  0  0  0  0  0  0
  182.2860  178.8340  138.4190 N   0  0  0  0  0  2  0  0  0  0  0  0
  185.2860  178.1920  138.8470 C   0  0  0  0  0  0  0  0  0  0  0  0
  181.8790  176.3140  137.4010 F   0  0  0  0  0  0  0  0  0  0  0  0
  182.8900  177.6800  139.0760 C   0  0  1  0  0  3  0  0  0  0  0  0
  186.3220  177.2620  135.3340 C   0  0  0  0  0  3  0  0  0  0  0  0
  183.3900  175.3750  138.7750 F   0  0  0  0  0  0  0  0  0  0  0  0
  183.0700  176.5260  138.0750 C   0  0  0  0  0  0  0  0  0  0  0  0
  186.3020  178.7870  139.2970 O   0  0  0  0  0  0  0  0  0  0  0  0
  185.2480  176.4570  134.9470 C   0  0  0  0  0  3  0  0  0  0  0  0
  184.1890  176.2300  135.8270 C   0  0  0  0  0  3  0  0  0  0  0  0
  185.2810  177.6170  137.4940 C   0  0  0  0  0  0  0  0  0  0  0  0
  184.1850  176.8240  137.0980 C   0  0  0  0  0  0  0  0  0  0  0  0
  186.3410  177.8390  136.6070 C   0  0  0  0  0  3  0  0  0  0  0  0
  184.1450  178.0620  139.6430 O   0  0  0  0  0  0  0  0  0  0  0  0
  180.2120  180.1390  138.7170 C   0  0  0  0  0  2  0  0  0  0  0  0
  181.6140  182.1380  138.2830 C   0  0  0  0  0  1  0  0  0  0  0  0
  180.5590  181.2200  137.7010 C   0  0  1  0  0  3  0  0  0  0  0  0
  181.0370  180.6480  136.5230 O   0  0  0  0  0  1  0  0  0  0  0  0
  187.7450  177.8340  144.4860 C   0  0  0  0  0  2  0  0  0  0  0  0
  187.5590  176.6110  143.6000 C   0  0  0  0  0  2  0  0  0  0  0  0
  188.4720  176.6730  142.3860 C   0  0  0  0  0  2  0  0  0  0  0  0
  189.1040  178.0490  142.2780 C   0  0  0  0  0  2  0  0  0  0  0  0
  190.4960  177.9640  141.6490 C   0  0  1  0  0  3  0  0  0  0  0  0
  191.5780  179.1370  143.6080 C   0  0  0  0  0  2  0  0  0  0  0  0
  191.8550  177.1290  144.8710 C   0  0  1  0  0  3  0  0  0  0  0  0
  191.6210  177.9290  142.6920 C   0  0  1  0  0  3  0  0  0  0  0  0
  191.5720  176.7130  143.5020 N   0  0  0  0  0  2  0  0  0  0  0  0
  191.4670  178.5830  145.0050 C   0  0  0  0  0  2  0  0  0  0  0  0
  191.1200  176.2610  145.8960 C   0  0  0  0  0  3  0  0  0  0  0  0
  192.0660  175.6090  146.8920 C   0  0  0  0  0  1  0  0  0  0  0  0
  190.0820  177.0800  146.6360 C   0  0  0  0  0  1  0  0  0  0  0  0
  190.5980  176.7260  140.7670 C   0  0  0  0  0  2  0  0  0  0  0  0
  191.0390  175.7820  136.6370 C   0  0  0  0  0  2  0  0  0  0  0  0
  189.7590  176.5050  137.0330 C   0  0  0  0  0  2  0  0  0  0  0  0
  193.0950  176.9840  139.4080 O   0  0  0  0  0  0  0  0  0  0  0  0
  190.6970  177.0930  139.2900 C   0  0  2  0  0  3  0  0  0  0  0  0
  189.5800  176.3720  138.5370 C   0  0  0  0  0  2  0  0  0  0  0  0
  192.0600  176.7740  138.7150 C   0  0  0  0  0  0  0  0  0  0  0  0
  192.1860  176.3440  137.3470 N   0  0  0  0  0  0  0  0  0  0  0  0
  193.5020  176.2510  136.7200 C   0  0  0  0  0  2  0  0  0  0  0  0
  193.1760  173.9410  137.5410 C   0  0  0  0  0  1  0  0  0  0  0  0
  195.4510  174.6820  136.9640 C   0  0  0  0  0  1  0  0  0  0  0  0
  193.7790  174.2930  135.1820 C   0  0  0  0  0  1  0  0  0  0  0  0
  193.9850  174.8050  136.5950 C   0  0  0  0  0  0  0  0  0  0  0  0
  1  5  1  6  0  0  0
  1  2  1  0  0  0  0
  2  4  1  0  0  0  0
  2  3  1  0  0  0  0
  4  3  1  0  0  0  0
  5  6  1  0  0  0  0
  7  6  1  0  0  0  0
  8  7  1  0  0  0  0
  9  8  1  0  0  0  0
 10  9  1  0  0  0  0
 11 26  1  6  0  0  0
 11 10  1  0  0  0  0
 12 11  1  0  0  0  0
 13 19  2  0  0  0  0
 13 25  1  0  0  0  0
 14 18  1  0  0  0  0
 15 12  1  6  0  0  0
 15 25  1  0  0  0  0
 16 24  1  0  0  0  0
 18 17  1  0  0  0  0
 18 15  1  0  0  0  0
 20 16  2  0  0  0  0
 20 21  1  0  0  0  0
 21 23  2  0  0  0  0
 22 13  1  0  0  0  0
 23 22  1  0  0  0  0
 23 18  1  0  0  0  0
 24 22  2  0  0  0  0
 28 27  1  1  0  0  0
 28 26  1  0  0  0  0
 29 28  1  0  0  0  0
 30  1  1  0  0  0  0
 31 30  1  0  0  0  0
 32 31  1  0  0  0  0
 33 32  1  0  0  0  0
 34 43  1  1  0  0  0
 34 33  1  0  0  0  0
 35 39  1  0  0  0  0
 36 39  1  0  0  0  0
 36 40  1  1  0  0  0
 37 34  1  6  0  0  0
 37 38  1  0  0  0  0
 37 35  1  0  0  0  0
 38 36  1  0  0  0  0
 40 42  1  0  0  0  0
 40 41  1  0  0  0  0
 44 45  1  0  0  0  0
 44 50  1  0  0  0  0
 45 48  1  0  0  0  0
 47 43  1  1  0  0  0
 48 47  1  0  0  0  0
 49 47  1  0  0  0  0
 49 46  2  0  0  0  0
 50 49  1  0  0  0  0
 51 50  1  0  0  0  0
 54 55  1  0  0  0  0
 55 51  1  0  0  0  0
 55 53  1  0  0  0  0
 55 52  1  0  0  0  0
M  END
>  <MODEL>
5

>  <REMARK>
 VINA RESULT:      -6.6      2.533      6.122
  Name = 
  23 active torsions:
  status: ('A' for Active; 'I' for Inactive)
    1  A    between atoms: C_2  and  C_28
    2  A    between atoms: C_2  and  C_44
    3  A    between atoms: C_6  and  N_46
    4  A    between atoms: C_8  and  C_20
    5  A    between atoms: C_8  and  C_22
    6  A    between atoms: C_10  and  C_32
    7  A    between atoms: C_17  and  C_36
    8  A    between atoms: C_19  and  C_40
    9  A    between atoms: C_19  and  N_45
   10  A    between atoms: C_22  and  C_35
   11  A    between atoms: C_22  and  N_46
   12  A    between atoms: C_24  and  C_44
   13  A    between atoms: C_27  and  C_31
   14  A    between atoms: C_27  and  C_54
   15  A    between atoms: C_28  and  C_49
   16  A    between atoms: C_31  and  C_44
   17  A    between atoms: C_33  and  C_49
   18  A    between atoms: C_33  and  C_52
   19  A    between atoms: C_34  and  C_52
   20  A    between atoms: C_35  and  C_43
   21  A    between atoms: C_36  and  C_52
   22  A    between atoms: C_43  and  C_51
   23  A    between atoms: C_51  and  C_54
                            x       y       z     vdW  Elec       q    Type
                         _______ _______ _______ _____ _____    ______ ____

>  <TORSDO>
F 23

$$$$
=
 OpenBabel10262420283D

 55 59  0  0  1  0  0  0  0  0999 V2000
  188.2910  177.6650  143.5760 C   0  0  2  0  0  3  0  0  0  0  0  0
  189.4800  176.8190  144.0120 C   0  0  0  0  0  3  0  0  0  0  0  0
  190.6740  177.7150  144.2770 C   0  0  0  0  0  2  0  0  0  0  0  0
  189.8630  177.1710  145.4350 C   0  0  0  0  0  2  0  0  0  0  0  0
  187.0200  177.2480  144.3160 C   0  0  0  0  0  2  0  0  0  0  0  0
  186.5560  178.3110  145.3040 C   0  0  0  0  0  2  0  0  0  0  0  0
  185.0390  178.3730  145.3460 C   0  0  0  0  0  2  0  0  0  0  0  0
  184.4820  178.5010  143.9400 C   0  0  0  0  0  2  0  0  0  0  0  0
  183.3170  179.4680  143.9260 C   0  0  0  0  0  2  0  0  0  0  0  0
  182.0510  178.7040  143.5960 C   0  0  0  0  0  2  0  0  0  0  0  0
  181.4140  179.2420  142.3260 C   0  0  1  0  0  3  0  0  0  0  0  0
  181.1450  178.1470  141.4020 N   0  0  0  0  0  2  0  0  0  0  0  0
  182.7910  179.5630  139.1920 C   0  0  0  0  0  0  0  0  0  0  0  0
  181.3120  175.7750  140.0240 F   0  0  0  0  0  0  0  0  0  0  0  0
  182.4130  177.7420  140.8040 C   0  0  1  0  0  3  0  0  0  0  0  0
  180.6550  178.8590  136.1550 C   0  0  0  0  0  3  0  0  0  0  0  0
  183.3770  176.2180  139.2550 F   0  0  0  0  0  0  0  0  0  0  0  0
  182.1710  176.7860  139.6240 C   0  0  0  0  0  0  0  0  0  0  0  0
  183.2310  180.7230  138.9690 O   0  0  0  0  0  0  0  0  0  0  0  0
  180.3420  177.5130  136.3580 C   0  0  0  0  0  3  0  0  0  0  0  0
  180.8190  176.8450  137.4880 C   0  0  0  0  0  3  0  0  0  0  0  0
  181.9320  178.8770  138.2150 C   0  0  0  0  0  0  0  0  0  0  0  0
  181.5990  177.5260  138.4360 C   0  0  0  0  0  0  0  0  0  0  0  0
  181.4520  179.5400  137.0790 C   0  0  0  0  0  3  0  0  0  0  0  0
  183.1270  178.9050  140.3780 O   0  0  0  0  0  0  0  0  0  0  0  0
  180.1330  180.0270  142.6410 C   0  0  0  0  0  2  0  0  0  0  0  0
  179.8780  181.1090  140.4240 C   0  0  0  0  0  1  0  0  0  0  0  0
  179.2130  180.2030  141.4400 C   0  0  1  0  0  3  0  0  0  0  0  0
  178.9330  178.9700  140.8530 O   0  0  0  0  0  1  0  0  0  0  0  0
  188.1200  177.6090  142.0600 C   0  0  0  0  0  2  0  0  0  0  0  0
  187.0480  178.5900  141.6060 C   0  0  0  0  0  2  0  0  0  0  0  0
  186.6730  178.3530  140.1520 C   0  0  0  0  0  2  0  0  0  0  0  0
  187.9260  178.1940  139.3090 C   0  0  0  0  0  2  0  0  0  0  0  0
  187.5960  177.5800  137.9490 C   0  0  1  0  0  3  0  0  0  0  0  0
  189.3370  176.7270  136.3280 C   0  0  0  0  0  2  0  0  0  0  0  0
  190.7370  175.8340  138.0450 C   0  0  1  0  0  3  0  0  0  0  0  0
  188.5290  176.4200  137.5740 C   0  0  1  0  0  3  0  0  0  0  0  0
  189.4410  176.0840  138.6650 N   0  0  0  0  0  2  0  0  0  0  0  0
  190.7810  176.5910  136.7380 C   0  0  0  0  0  2  0  0  0  0  0  0
  191.8970  176.2360  138.9590 C   0  0  0  0  0  3  0  0  0  0  0  0
  193.1000  176.7500  138.1840 C   0  0  0  0  0  1  0  0  0  0  0  0
  191.4450  177.2840  139.9570 C   0  0  0  0  0  1  0  0  0  0  0  0
  186.1560  177.0820  137.9330 C   0  0  0  0  0  2  0  0  0  0  0  0
  183.3130  175.6530  135.1010 C   0  0  0  0  0  2  0  0  0  0  0  0
  183.9860  176.9790  134.7750 C   0  0  0  0  0  2  0  0  0  0  0  0
  185.9740  174.3230  137.2220 O   0  0  0  0  0  0  0  0  0  0  0  0
  185.7350  176.6170  136.5430 C   0  0  2  0  0  3  0  0  0  0  0  0
  184.6110  177.5260  136.0490 C   0  0  0  0  0  2  0  0  0  0  0  0
  185.3270  175.1590  136.5310 C   0  0  0  0  0  0  0  0  0  0  0  0
  184.2820  174.7070  135.6490 N   0  0  0  0  0  0  0  0  0  0  0  0
  184.0360  173.2790  135.4680 C   0  0  0  0  0  2  0  0  0  0  0  0
  183.0420  171.4180  136.7550 C   0  0  0  0  0  1  0  0  0  0  0  0
  181.5870  172.7420  135.2760 C   0  0  0  0  0  1  0  0  0  0  0  0
  182.4670  173.7300  137.3680 C   0  0  0  0  0  1  0  0  0  0  0  0
  182.7830  172.8060  136.2070 C   0  0  0  0  0  0  0  0  0  0  0  0
  1 30  1  6  0  0  0
  1  2  1  0  0  0  0
  1  5  1  0  0  0  0
  2  3  1  0  0  0  0
  2  4  1  0  0  0  0
  3  4  1  0  0  0  0
  5  6  1  0  0  0  0
  6  7  1  0  0  0  0
  8  7  1  0  0  0  0
  9  8  1  0  0  0  0
 10  9  1  0  0  0  0
 11 26  1  1  0  0  0
 11 10  1  0  0  0  0
 12 11  1  0  0  0  0
 13 25  1  0  0  0  0
 15 12  1  6  0  0  0
 16 20  2  0  0  0  0
 16 24  1  0  0  0  0
 17 18  1  0  0  0  0
 18 14  1  0  0  0  0
 18 15  1  0  0  0  0
 19 13  2  0  0  0  0
 20 21  1  0  0  0  0
 21 23  2  0  0  0  0
 22 23  1  0  0  0  0
 22 13  1  0  0  0  0
 23 18  1  0  0  0  0
 24 22  2  0  0  0  0
 25 15  1  0  0  0  0
 28 27  1  6  0  0  0
 28 26  1  0  0  0  0
 29 28  1  0  0  0  0
 31 30  1  0  0  0  0
 32 31  1  0  0  0  0
 33 32  1  0  0  0  0
 34 43  1  1  0  0  0
 34 33  1  0  0  0  0
 35 39  1  0  0  0  0
 35 37  1  0  0  0  0
 36 38  1  0  0  0  0
 36 40  1  1  0  0  0
 37 34  1  1  0  0  0
 37 38  1  0  0  0  0
 39 36  1  0  0  0  0
 40 42  1  0  0  0  0
 41 40  1  0  0  0  0
 44 50  1  0  0  0  0
 45 44  1  0  0  0  0
 45 48  1  0  0  0  0
 47 43  1  1  0  0  0
 48 47  1  0  0  0  0
 49 47  1  0  0  0  0
 49 46  2  0  0  0  0
 50 49  1  0  0  0  0
 51 50  1  0  0  0  0
 51 55  1  0  0  0  0
 53 55  1  0  0  0  0
 55 52  1  0  0  0  0
 55 54  1  0  0  0  0
M  END
>  <MODEL>
6

>  <REMARK>
 VINA RESULT:      -6.5      2.323      6.993
  Name = 
  23 active torsions:
  status: ('A' for Active; 'I' for Inactive)
    1  A    between atoms: C_2  and  C_28
    2  A    between atoms: C_2  and  C_44
    3  A    between atoms: C_6  and  N_46
    4  A    between atoms: C_8  and  C_20
    5  A    between atoms: C_8  and  C_22
    6  A    between atoms: C_10  and  C_32
    7  A    between atoms: C_17  and  C_36
    8  A    between atoms: C_19  and  C_40
    9  A    between atoms: C_19  and  N_45
   10  A    between atoms: C_22  and  C_35
   11  A    between atoms: C_22  and  N_46
   12  A    between atoms: C_24  and  C_44
   13  A    between atoms: C_27  and  C_31
   14  A    between atoms: C_27  and  C_54
   15  A    between atoms: C_28  and  C_49
   16  A    between atoms: C_31  and  C_44
   17  A    between atoms: C_33  and  C_49
   18  A    between atoms: C_33  and  C_52
   19  A    between atoms: C_34  and  C_52
   20  A    between atoms: C_35  and  C_43
   21  A    between atoms: C_36  and  C_52
   22  A    between atoms: C_43  and  C_51
   23  A    between atoms: C_51  and  C_54
                            x       y       z     vdW  Elec       q    Type
                         _______ _______ _______ _____ _____    ______ ____

>  <TORSDO>
F 23

$$$$
=
 OpenBabel10262420283D

 55 59  0  0  1  0  0  0  0  0999 V2000
  183.5670  179.3470  143.7570 C   0  0  2  0  0  3  0  0  0  0  0  0
  184.8750  179.3730  142.9770 C   0  0  0  0  0  3  0  0  0  0  0  0
  185.2860  177.9560  142.6260 C   0  0  0  0  0  2  0  0  0  0  0  0
  184.6460  178.8430  141.5770 C   0  0  0  0  0  2  0  0  0  0  0  0
  183.8090  178.9800  145.2210 C   0  0  0  0  0  2  0  0  0  0  0  0
  185.2890  179.0120  145.5840 C   0  0  0  0  0  2  0  0  0  0  0  0
  185.5040  178.4730  146.9870 C   0  0  0  0  0  2  0  0  0  0  0  0
  186.7990  177.6830  147.0500 C   0  0  0  0  0  2  0  0  0  0  0  0
  187.4040  177.5600  145.6670 C   0  0  0  0  0  2  0  0  0  0  0  0
  188.8850  177.8660  145.7510 C   0  0  0  0  0  2  0  0  0  0  0  0
  189.7010  176.7550  145.1130 C   0  0  1  0  0  3  0  0  0  0  0  0
  189.5460  176.7930  143.6640 N   0  0  0  0  0  2  0  0  0  0  0  0
  188.7540  178.7470  141.3950 C   0  0  0  0  0  0  0  0  0  0  0  0
  192.0350  176.4810  142.5440 F   0  0  0  0  0  0  0  0  0  0  0  0
  190.2690  177.9590  143.1660 C   0  0  1  0  0  3  0  0  0  0  0  0
  189.3230  176.5750  138.3550 C   0  0  0  0  0  3  0  0  0  0  0  0
  192.1200  178.6090  141.8240 F   0  0  0  0  0  0  0  0  0  0  0  0
  191.2760  177.5430  142.0810 C   0  0  0  0  0  0  0  0  0  0  0  0
  187.7430  179.4280  141.0730 O   0  0  0  0  0  0  0  0  0  0  0  0
  190.5440  175.9790  138.6820 C   0  0  0  0  0  3  0  0  0  0  0  0
  191.1690  176.2800  139.8930 C   0  0  0  0  0  3  0  0  0  0  0  0
  189.3470  177.7830  140.4570 C   0  0  0  0  0  0  0  0  0  0  0  0
  190.5670  177.1660  140.8000 C   0  0  0  0  0  0  0  0  0  0  0  0
  188.7270  177.4780  139.2390 C   0  0  0  0  0  3  0  0  0  0  0  0
  189.3340  178.9120  142.6550 O   0  0  0  0  0  0  0  0  0  0  0  0
  191.1790  176.8550  145.5140 C   0  0  0  0  0  2  0  0  0  0  0  0
  192.3950  174.8380  146.2900 C   0  0  0  0  0  1  0  0  0  0  0  0
  191.5420  176.0110  146.7290 C   0  0  1  0  0  3  0  0  0  0  0  0
  192.2420  176.7730  147.6640 O   0  0  0  0  0  1  0  0  0  0  0  0
  182.5620  178.4140  143.0870 C   0  0  0  0  0  2  0  0  0  0  0  0
  181.4350  179.2110  142.4470 C   0  0  0  0  0  2  0  0  0  0  0  0
  180.4180  178.2900  141.7930 C   0  0  0  0  0  2  0  0  0  0  0  0
  180.5820  178.3180  140.2840 C   0  0  0  0  0  2  0  0  0  0  0  0
  182.0610  178.3180  139.8950 C   0  0  1  0  0  3  0  0  0  0  0  0
  181.4210  176.0660  138.9420 C   0  0  0  0  0  2  0  0  0  0  0  0
  183.2610  176.0010  137.4220 C   0  0  1  0  0  3  0  0  0  0  0  0
  182.5580  176.9390  139.4390 C   0  0  1  0  0  3  0  0  0  0  0  0
  183.5700  177.0470  138.3900 N   0  0  0  0  0  2  0  0  0  0  0  0
  181.7880  175.6860  137.5320 C   0  0  0  0  0  2  0  0  0  0  0  0
  183.6380  176.4100  135.9960 C   0  0  0  0  0  3  0  0  0  0  0  0
  185.0810  176.8770  135.8840 C   0  0  0  0  0  1  0  0  0  0  0  0
  183.3940  175.2650  135.0340 C   0  0  0  0  0  1  0  0  0  0  0  0
  182.3100  179.3280  138.7820 C   0  0  0  0  0  2  0  0  0  0  0  0
  180.0750  181.4570  135.8460 C   0  0  0  0  0  2  0  0  0  0  0  0
  180.0510  179.9380  135.7450 C   0  0  0  0  0  2  0  0  0  0  0  0
  180.7740  181.6460  139.4270 O   0  0  0  0  0  0  0  0  0  0  0  0
  181.0220  179.6910  138.0510 C   0  0  2  0  0  3  0  0  0  0  0  0
  181.2060  179.3850  136.5650 C   0  0  0  0  0  2  0  0  0  0  0  0
  180.6230  181.1330  138.2830 C   0  0  0  0  0  0  0  0  0  0  0  0
  179.9700  181.8800  137.2410 N   0  0  0  0  0  0  0  0  0  0  0  0
  179.3840  183.1870  137.5260 C   0  0  0  0  0  2  0  0  0  0  0  0
  179.7450  185.6320  137.5780 C   0  0  0  0  0  1  0  0  0  0  0  0
  180.0490  184.4370  135.4480 C   0  0  0  0  0  1  0  0  0  0  0  0
  181.6850  184.1480  137.2830 C   0  0  0  0  0  1  0  0  0  0  0  0
  180.2160  184.3350  136.9520 C   0  0  0  0  0  0  0  0  0  0  0  0
  1 30  1  6  0  0  0
  1  5  1  0  0  0  0
  2  1  1  0  0  0  0
  3  2  1  0  0  0  0
  4  3  1  0  0  0  0
  4  2  1  0  0  0  0
  5  6  1  0  0  0  0
  6  7  1  0  0  0  0
  7  8  1  0  0  0  0
  9 10  1  0  0  0  0
  9  8  1  0  0  0  0
 11 26  1  6  0  0  0
 11 10  1  0  0  0  0
 12 11  1  0  0  0  0
 13 25  1  0  0  0  0
 15 12  1  6  0  0  0
 16 20  2  0  0  0  0
 16 24  1  0  0  0  0
 17 18  1  0  0  0  0
 18 14  1  0  0  0  0
 18 15  1  0  0  0  0
 19 13  2  0  0  0  0
 20 21  1  0  0  0  0
 21 23  2  0  0  0  0
 22 23  1  0  0  0  0
 22 13  1  0  0  0  0
 23 18  1  0  0  0  0
 24 22  2  0  0  0  0
 25 15  1  0  0  0  0
 26 28  1  0  0  0  0
 28 27  1  6  0  0  0
 28 29  1  0  0  0  0
 31 30  1  0  0  0  0
 32 31  1  0  0  0  0
 33 32  1  0  0  0  0
 34 43  1  6  0  0  0
 34 33  1  0  0  0  0
 35 37  1  0  0  0  0
 36 40  1  6  0  0  0
 36 39  1  0  0  0  0
 36 38  1  0  0  0  0
 37 34  1  6  0  0  0
 38 37  1  0  0  0  0
 39 35  1  0  0  0  0
 41 40  1  0  0  0  0
 42 40  1  0  0  0  0
 44 50  1  0  0  0  0
 45 44  1  0  0  0  0
 45 48  1  0  0  0  0
 47 49  1  0  0  0  0
 47 43  1  1  0  0  0
 48 47  1  0  0  0  0
 49 46  2  0  0  0  0
 50 51  1  0  0  0  0
 50 49  1  0  0  0  0
 53 55  1  0  0  0  0
 55 54  1  0  0  0  0
 55 51  1  0  0  0  0
 55 52  1  0  0  0  0
M  END
>  <MODEL>
7

>  <REMARK>
 VINA RESULT:      -6.3      3.102      9.601
  Name = 
  23 active torsions:
  status: ('A' for Active; 'I' for Inactive)
    1  A    between atoms: C_2  and  C_28
    2  A    between atoms: C_2  and  C_44
    3  A    between atoms: C_6  and  N_46
    4  A    between atoms: C_8  and  C_20
    5  A    between atoms: C_8  and  C_22
    6  A    between atoms: C_10  and  C_32
    7  A    between atoms: C_17  and  C_36
    8  A    between atoms: C_19  and  C_40
    9  A    between atoms: C_19  and  N_45
   10  A    between atoms: C_22  and  C_35
   11  A    between atoms: C_22  and  N_46
   12  A    between atoms: C_24  and  C_44
   13  A    between atoms: C_27  and  C_31
   14  A    between atoms: C_27  and  C_54
   15  A    between atoms: C_28  and  C_49
   16  A    between atoms: C_31  and  C_44
   17  A    between atoms: C_33  and  C_49
   18  A    between atoms: C_33  and  C_52
   19  A    between atoms: C_34  and  C_52
   20  A    between atoms: C_35  and  C_43
   21  A    between atoms: C_36  and  C_52
   22  A    between atoms: C_43  and  C_51
   23  A    between atoms: C_51  and  C_54
                            x       y       z     vdW  Elec       q    Type
                         _______ _______ _______ _____ _____    ______ ____

>  <TORSDO>
F 23

$$$$
=
 OpenBabel10262420283D

 55 59  0  0  1  0  0  0  0  0999 V2000
  184.3320  178.3010  142.8590 C   0  0  2  0  0  3  0  0  0  0  0  0
  183.4720  179.3310  143.5790 C   0  0  0  0  0  3  0  0  0  0  0  0
  182.5280  178.6280  144.5340 C   0  0  0  0  0  2  0  0  0  0  0  0
  183.7770  179.3050  145.0620 C   0  0  0  0  0  2  0  0  0  0  0  0
  185.8110  178.4900  143.1970 C   0  0  0  0  0  2  0  0  0  0  0  0
  186.3680  177.3280  144.0110 C   0  0  0  0  0  2  0  0  0  0  0  0
  187.6330  177.7460  144.7400 C   0  0  0  0  0  2  0  0  0  0  0  0
  188.6800  176.6510  144.6390 C   0  0  0  0  0  2  0  0  0  0  0  0
  188.6560  176.0310  143.2570 C   0  0  0  0  0  2  0  0  0  0  0  0
  190.0770  175.7220  142.8360 C   0  0  0  0  0  2  0  0  0  0  0  0
  190.5490  176.7030  141.7760 C   0  0  1  0  0  3  0  0  0  0  0  0
  189.7230  176.5790  140.5810 N   0  0  0  0  0  2  0  0  0  0  0  0
  188.4020  177.9940  138.1620 C   0  0  0  0  0  0  0  0  0  0  0  0
  191.5330  175.3710  138.9020 F   0  0  0  0  0  0  0  0  0  0  0  0
  190.3540  177.3530  139.5170 C   0  0  1  0  0  3  0  0  0  0  0  0
  187.4720  175.0230  136.0210 C   0  0  0  0  0  3  0  0  0  0  0  0
  191.6270  177.1410  137.5190 F   0  0  0  0  0  0  0  0  0  0  0  0
  190.8060  176.4270  138.3750 C   0  0  0  0  0  0  0  0  0  0  0  0
  187.4480  178.7950  137.9690 O   0  0  0  0  0  0  0  0  0  0  0  0
  188.6320  174.2500  136.1230 C   0  0  0  0  0  3  0  0  0  0  0  0
  189.7050  174.6960  136.8960 C   0  0  0  0  0  3  0  0  0  0  0  0
  188.4570  176.6990  137.4680 C   0  0  0  0  0  0  0  0  0  0  0  0
  189.6200  175.9120  137.5920 C   0  0  0  0  0  0  0  0  0  0  0  0
  187.3850  176.2470  136.6890 C   0  0  0  0  0  3  0  0  0  0  0  0
  189.4350  178.3370  139.0390 O   0  0  0  0  0  0  0  0  0  0  0  0
  190.5370  178.1410  142.3100 C   0  0  0  0  0  2  0  0  0  0  0  0
  191.2760  179.5550  144.2090 C   0  0  0  0  0  1  0  0  0  0  0  0
  191.6900  178.4530  143.2550 C   0  0  1  0  0  3  0  0  0  0  0  0
  192.0470  177.3170  143.9830 O   0  0  0  0  0  1  0  0  0  0  0  0
  184.0760  178.3430  141.3550 C   0  0  0  0  0  2  0  0  0  0  0  0
  182.6020  178.5950  141.0710 C   0  0  0  0  0  2  0  0  0  0  0  0
  182.1170  177.7440  139.9090 C   0  0  0  0  0  2  0  0  0  0  0  0
  180.6490  178.0200  139.6360 C   0  0  0  0  0  2  0  0  0  0  0  0
  180.4630  178.7040  138.2810 C   0  0  1  0  0  3  0  0  0  0  0  0
  180.9510  181.1100  138.8790 C   0  0  0  0  0  2  0  0  0  0  0  0
  179.7580  181.9900  137.0070 C   0  0  1  0  0  3  0  0  0  0  0  0
  179.8990  180.1260  138.4020 C   0  0  1  0  0  3  0  0  0  0  0  0
  179.3430  180.5980  137.1360 N   0  0  0  0  0  2  0  0  0  0  0  0
  181.0200  182.1760  137.8180 C   0  0  0  0  0  2  0  0  0  0  0  0
  179.9730  182.3910  135.5450 C   0  0  0  0  0  3  0  0  0  0  0  0
  180.8580  183.6190  135.4010 C   0  0  0  0  0  1  0  0  0  0  0  0
  180.5660  181.2380  134.7610 C   0  0  0  0  0  1  0  0  0  0  0  0
  181.7900  178.7580  137.5350 C   0  0  0  0  0  2  0  0  0  0  0  0
  181.2360  175.1180  135.3930 C   0  0  0  0  0  2  0  0  0  0  0  0
  180.3270  176.2750  135.0070 C   0  0  0  0  0  2  0  0  0  0  0  0
  183.9870  177.1390  136.6960 O   0  0  0  0  0  0  0  0  0  0  0  0
  181.7550  177.9200  136.2610 C   0  0  2  0  0  3  0  0  0  0  0  0
  180.3620  177.3060  136.1240 C   0  0  0  0  0  2  0  0  0  0  0  0
  182.8400  176.8640  136.2460 C   0  0  0  0  0  0  0  0  0  0  0  0
  182.6010  175.5900  135.6180 N   0  0  0  0  0  0  0  0  0  0  0  0
  183.7020  174.6560  135.4010 C   0  0  0  0  0  2  0  0  0  0  0  0
  182.2380  173.3030  136.8620 C   0  0  0  0  0  1  0  0  0  0  0  0
  184.5610  173.7100  137.5660 C   0  0  0  0  0  1  0  0  0  0  0  0
  184.0820  172.1940  135.6690 C   0  0  0  0  0  1  0  0  0  0  0  0
  183.6600  173.4730  136.3690 C   0  0  0  0  0  0  0  0  0  0  0  0
  1 30  1  6  0  0  0
  1  5  1  0  0  0  0
  1  2  1  0  0  0  0
  2  3  1  0  0  0  0
  2  4  1  0  0  0  0
  3  4  1  0  0  0  0
  5  6  1  0  0  0  0
  6  7  1  0  0  0  0
  8  7  1  0  0  0  0
  9  8  1  0  0  0  0
 10  9  1  0  0  0  0
 11 26  1  1  0  0  0
 11 10  1  0  0  0  0
 12 11  1  0  0  0  0
 13 25  1  0  0  0  0
 15 12  1  1  0  0  0
 16 20  2  0  0  0  0
 16 24  1  0  0  0  0
 17 18  1  0  0  0  0
 18 14  1  0  0  0  0
 18 15  1  0  0  0  0
 19 13  2  0  0  0  0
 20 21  1  0  0  0  0
 21 23  2  0  0  0  0
 22 23  1  0  0  0  0
 22 13  1  0  0  0  0
 23 18  1  0  0  0  0
 24 22  2  0  0  0  0
 25 15  1  0  0  0  0
 26 28  1  0  0  0  0
 28 29  1  0  0  0  0
 28 27  1  1  0  0  0
 31 30  1  0  0  0  0
 32 31  1  0  0  0  0
 33 32  1  0  0  0  0
 34 43  1  1  0  0  0
 34 33  1  0  0  0  0
 36 40  1  6  0  0  0
 36 38  1  0  0  0  0
 36 39  1  0  0  0  0
 37 34  1  6  0  0  0
 37 35  1  0  0  0  0
 38 37  1  0  0  0  0
 39 35  1  0  0  0  0
 41 40  1  0  0  0  0
 42 40  1  0  0  0  0
 44 50  1  0  0  0  0
 45 44  1  0  0  0  0
 45 48  1  0  0  0  0
 47 43  1  1  0  0  0
 48 47  1  0  0  0  0
 49 47  1  0  0  0  0
 49 46  2  0  0  0  0
 50 49  1  0  0  0  0
 51 50  1  0  0  0  0
 51 55  1  0  0  0  0
 54 55  1  0  0  0  0
 55 52  1  0  0  0  0
 55 53  1  0  0  0  0
M  END
>  <MODEL>
8

>  <REMARK>
 VINA RESULT:      -6.2      2.874      9.050
  Name = 
  23 active torsions:
  status: ('A' for Active; 'I' for Inactive)
    1  A    between atoms: C_2  and  C_28
    2  A    between atoms: C_2  and  C_44
    3  A    between atoms: C_6  and  N_46
    4  A    between atoms: C_8  and  C_20
    5  A    between atoms: C_8  and  C_22
    6  A    between atoms: C_10  and  C_32
    7  A    between atoms: C_17  and  C_36
    8  A    between atoms: C_19  and  C_40
    9  A    between atoms: C_19  and  N_45
   10  A    between atoms: C_22  and  C_35
   11  A    between atoms: C_22  and  N_46
   12  A    between atoms: C_24  and  C_44
   13  A    between atoms: C_27  and  C_31
   14  A    between atoms: C_27  and  C_54
   15  A    between atoms: C_28  and  C_49
   16  A    between atoms: C_31  and  C_44
   17  A    between atoms: C_33  and  C_49
   18  A    between atoms: C_33  and  C_52
   19  A    between atoms: C_34  and  C_52
   20  A    between atoms: C_35  and  C_43
   21  A    between atoms: C_36  and  C_52
   22  A    between atoms: C_43  and  C_51
   23  A    between atoms: C_51  and  C_54
                            x       y       z     vdW  Elec       q    Type
                         _______ _______ _______ _____ _____    ______ ____

>  <TORSDO>
F 23

$$$$
=
 OpenBabel10262420283D

 55 59  0  0  1  0  0  0  0  0999 V2000
  183.2720  178.5750  142.8510 C   0  0  2  0  0  3  0  0  0  0  0  0
  184.1280  178.2700  141.6290 C   0  0  0  0  0  3  0  0  0  0  0  0
  183.3130  177.4840  140.6200 C   0  0  0  0  0  2  0  0  0  0  0  0
  183.5500  178.9660  140.4140 C   0  0  0  0  0  2  0  0  0  0  0  0
  181.9170  179.1510  142.4410 C   0  0  0  0  0  2  0  0  0  0  0  0
  180.7850  178.6420  143.3260 C   0  0  0  0  0  2  0  0  0  0  0  0
  179.5020  178.5070  142.5250 C   0  0  0  0  0  2  0  0  0  0  0  0
  179.7860  177.8410  141.1920 C   0  0  0  0  0  2  0  0  0  0  0  0
  179.3070  178.7210  140.0550 C   0  0  0  0  0  2  0  0  0  0  0  0
  179.4220  177.9490  138.7570 C   0  0  0  0  0  2  0  0  0  0  0  0
  180.7770  178.1820  138.1110 C   0  0  1  0  0  3  0  0  0  0  0  0
  181.4290  176.9050  137.8490 N   0  0  0  0  0  2  0  0  0  0  0  0
  181.4810  174.4580  135.9500 C   0  0  0  0  0  0  0  0  0  0  0  0
  183.9470  177.6220  137.0150 F   0  0  0  0  0  0  0  0  0  0  0  0
  181.7650  176.8550  136.4300 C   0  0  1  0  0  3  0  0  0  0  0  0
  184.5780  172.6730  137.1750 C   0  0  0  0  0  3  0  0  0  0  0  0
  183.5950  176.9050  134.9130 F   0  0  0  0  0  0  0  0  0  0  0  0
  183.2820  176.6830  136.2430 C   0  0  0  0  0  0  0  0  0  0  0  0
  180.7080  173.5100  135.6440 O   0  0  0  0  0  0  0  0  0  0  0  0
  185.4590  173.7480  137.3270 C   0  0  0  0  0  3  0  0  0  0  0  0
  185.0360  175.0470  137.0410 C   0  0  0  0  0  3  0  0  0  0  0  0
  182.8410  174.1970  136.4430 C   0  0  0  0  0  0  0  0  0  0  0  0
  183.7200  175.2850  136.6170 C   0  0  0  0  0  0  0  0  0  0  0  0
  183.2730  172.8960  136.7300 C   0  0  0  0  0  3  0  0  0  0  0  0
  181.0520  175.7810  135.8130 O   0  0  0  0  0  0  0  0  0  0  0  0
  180.6390  179.0070  136.8240 C   0  0  0  0  0  2  0  0  0  0  0  0
  180.0900  181.3990  136.4650 C   0  0  0  0  0  1  0  0  0  0  0  0
  181.1520  180.4360  136.9550 C   0  0  1  0  0  3  0  0  0  0  0  0
  181.4650  180.7230  138.2830 O   0  0  0  0  0  1  0  0  0  0  0  0
  184.0200  179.4930  143.8140 C   0  0  0  0  0  2  0  0  0  0  0  0
  183.8920  178.9870  145.2440 C   0  0  0  0  0  2  0  0  0  0  0  0
  185.1890  178.3500  145.7150 C   0  0  0  0  0  2  0  0  0  0  0  0
  186.3720  178.9930  145.0120 C   0  0  0  0  0  2  0  0  0  0  0  0
  187.5980  178.0820  145.0590 C   0  0  1  0  0  3  0  0  0  0  0  0
  187.9430  176.5240  147.0190 C   0  0  0  0  0  2  0  0  0  0  0  0
  190.1980  177.2190  147.3870 C   0  0  1  0  0  3  0  0  0  0  0  0
  188.1700  177.9220  146.4740 C   0  0  1  0  0  3  0  0  0  0  0  0
  189.5980  178.2270  146.5200 N   0  0  0  0  0  2  0  0  0  0  0  0
  189.3120  175.9960  147.3610 C   0  0  0  0  0  2  0  0  0  0  0  0
  191.6290  176.8790  146.9640 C   0  0  0  0  0  3  0  0  0  0  0  0
  192.2430  175.7780  147.8150 C   0  0  0  0  0  1  0  0  0  0  0  0
  191.6680  176.4770  145.5030 C   0  0  0  0  0  1  0  0  0  0  0  0
  187.2500  176.7050  144.5070 C   0  0  0  0  0  2  0  0  0  0  0  0
  190.2820  177.4670  141.6140 C   0  0  0  0  0  2  0  0  0  0  0  0
  190.3230  176.1060  142.2950 C   0  0  0  0  0  2  0  0  0  0  0  0
  186.7060  178.0700  142.0600 O   0  0  0  0  0  0  0  0  0  0  0  0
  188.0030  176.4080  143.2150 C   0  0  2  0  0  3  0  0  0  0  0  0
  189.4750  176.1750  143.5550 C   0  0  0  0  0  2  0  0  0  0  0  0
  187.8300  177.5090  142.1900 C   0  0  0  0  0  0  0  0  0  0  0  0
  188.9060  177.8370  141.2910 N   0  0  0  0  0  0  0  0  0  0  0  0
  188.6760  178.7340  140.1610 C   0  0  0  0  0  2  0  0  0  0  0  0
  186.9910  177.8770  138.5680 C   0  0  0  0  0  1  0  0  0  0  0  0
  189.0450  176.5720  138.9320 C   0  0  0  0  0  1  0  0  0  0  0  0
  189.1340  178.7150  137.6980 C   0  0  0  0  0  1  0  0  0  0  0  0
  188.4770  177.9750  138.8480 C   0  0  0  0  0  0  0  0  0  0  0  0
  1  5  1  6  0  0  0
  1 30  1  0  0  0  0
  2  1  1  0  0  0  0
  3  2  1  0  0  0  0
  4  3  1  0  0  0  0
  4  2  1  0  0  0  0
  5  6  1  0  0  0  0
  7  6  1  0  0  0  0
  8  7  1  0  0  0  0
  9  8  1  0  0  0  0
 10  9  1  0  0  0  0
 11 26  1  6  0  0  0
 11 10  1  0  0  0  0
 12 11  1  0  0  0  0
 13 22  1  0  0  0  0
 15 12  1  1  0  0  0
 16 20  1  0  0  0  0
 17 18  1  0  0  0  0
 18 15  1  0  0  0  0
 18 23  1  0  0  0  0
 18 14  1  0  0  0  0
 19 13  2  0  0  0  0
 21 20  2  0  0  0  0
 22 23  2  0  0  0  0
 22 24  1  0  0  0  0
 23 21  1  0  0  0  0
 24 16  2  0  0  0  0
 25 13  1  0  0  0  0
 25 15  1  0  0  0  0
 26 28  1  0  0  0  0
 28 27  1  1  0  0  0
 28 29  1  0  0  0  0
 30 31  1  0  0  0  0
 31 32  1  0  0  0  0
 33 34  1  0  0  0  0
 33 32  1  0  0  0  0
 34 43  1  1  0  0  0
 35 39  1  0  0  0  0
 36 40  1  6  0  0  0
 37 34  1  6  0  0  0
 37 38  1  0  0  0  0
 37 35  1  0  0  0  0
 38 36  1  0  0  0  0
 39 36  1  0  0  0  0
 40 41  1  0  0  0  0
 42 40  1  0  0  0  0
 44 45  1  0  0  0  0
 45 48  1  0  0  0  0
 46 49  2  0  0  0  0
 47 48  1  0  0  0  0
 47 43  1  1  0  0  0
 49 47  1  0  0  0  0
 50 44  1  0  0  0  0
 50 49  1  0  0  0  0
 51 50  1  0  0  0  0
 52 55  1  0  0  0  0
 54 55  1  0  0  0  0
 55 53  1  0  0  0  0
 55 51  1  0  0  0  0
M  END
>  <MODEL>
9

>  <REMARK>
 VINA RESULT:      -6.2      1.503      5.191
  Name = 
  23 active torsions:
  status: ('A' for Active; 'I' for Inactive)
    1  A    between atoms: C_2  and  C_28
    2  A    between atoms: C_2  and  C_44
    3  A    between atoms: C_6  and  N_46
    4  A    between atoms: C_8  and  C_20
    5  A    between atoms: C_8  and  C_22
    6  A    between atoms: C_10  and  C_32
    7  A    between atoms: C_17  and  C_36
    8  A    between atoms: C_19  and  C_40
    9  A    between atoms: C_19  and  N_45
   10  A    between atoms: C_22  and  C_35
   11  A    between atoms: C_22  and  N_46
   12  A    between atoms: C_24  and  C_44
   13  A    between atoms: C_27  and  C_31
   14  A    between atoms: C_27  and  C_54
   15  A    between atoms: C_28  and  C_49
   16  A    between atoms: C_31  and  C_44
   17  A    between atoms: C_33  and  C_49
   18  A    between atoms: C_33  and  C_52
   19  A    between atoms: C_34  and  C_52
   20  A    between atoms: C_35  and  C_43
   21  A    between atoms: C_36  and  C_52
   22  A    between atoms: C_43  and  C_51
   23  A    between atoms: C_51  and  C_54
                            x       y       z     vdW  Elec       q    Type
                         _______ _______ _______ _____ _____    ______ ____

>  <TORSDO>
F 23

$$$$
