=
 OpenBabel10262422463D

 37 42  0  0  1  0  0  0  0  0999 V2000
  185.8920  180.0850  142.2210 O   0  0  0  0  0  1  0  0  0  0  0  0
  190.9660  177.0190  141.0760 C   0  0  0  0  0  2  0  0  0  0  0  0
  187.1640  177.9900  138.7940 C   0  0  0  0  0  0  0  0  0  0  0  0
  184.0810  179.6080  139.8500 C   0  0  0  0  0  2  0  0  0  0  0  0
  189.7670  177.8760  139.0390 C   0  0  2  0  0  3  0  0  0  0  0  0
  186.1340  178.1560  139.7170 C   0  0  0  0  0  0  0  0  0  0  0  0
  188.3450  177.9760  139.5350 C   0  0  0  0  0  0  0  0  0  0  0  0
  184.6580  178.2700  139.4290 C   0  0  1  0  0  0  0  0  0  0  0  0
  189.8260  177.7550  137.6510 O   0  0  0  0  0  1  0  0  0  0  0  0
  187.9860  178.1540  140.8640 C   0  0  0  0  0  0  0  0  0  0  0  0
  188.3620  178.4800  143.2260 O   0  0  0  0  0  1  0  0  0  0  0  0
  185.8190  177.4060  136.7250 C   0  0  0  0  0  2  0  0  0  0  0  0
  187.1470  179.3980  136.8750 O   0  0  0  0  0  1  0  0  0  0  0  0
  188.9830  178.2620  141.9970 C   0  0  1  0  0  3  0  0  0  0  0  0
  183.7070  178.3420  140.6240 C   0  0  1  0  0  3  0  0  0  0  0  0
  187.0690  178.0690  137.2930 C   0  0  1  0  0  3  0  0  0  0  0  0
  186.6410  178.2690  140.9610 N   0  0  0  0  0  0  0  0  0  0  0  0
  190.4760  176.6880  139.6730 C   0  0  0  0  0  2  0  0  0  0  0  0
  184.1240  177.6000  138.1340 C   0  0  2  0  0  3  0  0  0  0  0  0
  189.8300  177.0010  142.0920 C   0  0  0  0  0  2  0  0  0  0  0  0
  184.4090  178.1800  141.9920 C   0  0  1  0  0  3  0  0  0  0  0  0
  185.8570  178.6920  142.1160 C   0  0  2  0  0  3  0  0  0  0  0  0
  184.6840  178.1780  136.9940 O   0  0  0  0  0  0  0  0  0  0  0  0
  182.2240  178.1560  136.7840 C   0  0  0  0  0  2  0  0  0  0  0  0
  182.6700  177.4070  137.9700 N   0  0  1  0  0  0  0  0  0  0  0  0
  182.2680  175.9850  137.9470 C   0  0  1  0  0  3  0  0  0  0  0  0
  182.1920  175.4440  139.3650 C   0  0  0  0  0  1  0  0  0  0  0  0
  180.1620  176.9890  137.3710 O   0  0  0  0  0  0  0  0  0  0  0  0
  180.9000  175.7990  137.2820 C   0  0  0  0  0  2  0  0  0  0  0  0
  180.7480  177.8790  136.4530 C   0  0  0  0  0  2  0  0  0  0  0  0
  183.4830  178.5110  143.1720 C   0  0  2  0  0  3  0  0  0  0  0  0
  182.1140  178.9880  142.7060 C   0  0  0  0  0  2  0  0  0  0  0  0
  181.0620  178.6840  143.7570 C   0  0  0  0  0  1  0  0  0  0  0  0
  184.1160  179.5330  144.1100 C   0  0  0  0  0  2  0  0  0  0  0  0
  184.1070  179.0550  145.4210 O   0  0  0  0  0  0  0  0  0  0  0  0
  186.0900  177.7960  145.7840 C   0  0  0  0  0  1  0  0  0  0  0  0
  185.4330  179.1610  145.8390 C   0  0  0  0  0  2  0  0  0  0  0  0
  2 20  1  0  0  0  0
  3  7  1  0  0  0  0
  3  6  2  0  0  0  0
  5  9  1  6  0  0  0
  5  7  1  0  0  0  0
  5 18  1  0  0  0  0
  6 17  1  0  0  0  0
  7 10  2  0  0  0  0
  8  6  1  0  0  0  0
  8  4  1  6  0  0  0
  8 15  1  0  0  0  0
 10 17  1  0  0  0  0
 10 14  1  0  0  0  0
 12 23  1  0  0  0  0
 12 16  1  0  0  0  0
 14 20  1  0  0  0  0
 14 11  1  1  0  0  0
 15  4  1  1  0  0  0
 15 21  1  0  0  0  0
 16 13  1  1  0  0  0
 16  3  1  0  0  0  0
 17 22  1  0  0  0  0
 18  2  1  0  0  0  0
 19 23  1  6  0  0  0
 19  8  1  0  0  0  0
 21 22  1  0  0  0  0
 21 31  1  1  0  0  0
 22  1  1  6  0  0  0
 25 24  1  6  0  0  0
 25 19  1  0  0  0  0
 26 25  1  0  0  0  0
 26 27  1  1  0  0  0
 29 28  1  0  0  0  0
 29 26  1  0  0  0  0
 30 24  1  0  0  0  0
 30 28  1  0  0  0  0
 31 32  1  6  0  0  0
 31 34  1  0  0  0  0
 32 33  1  0  0  0  0
 34 35  1  0  0  0  0
 35 37  1  0  0  0  0
 36 37  1  0  0  0  0
M  END
>  <MODEL>
1

>  <REMARK>
 VINA RESULT:      -7.5      0.000      0.000
  Name = 
  6 active torsions:
  status: ('A' for Active; 'I' for Inactive)
    1  A    between atoms: O_5  and  C_17
    2  A    between atoms: O_5  and  C_23
    3  A    between atoms: N_6  and  C_31
    4  A    between atoms: C_11  and  C_26
    5  A    between atoms: C_17  and  C_26
    6  A    between atoms: C_26  and  C_33
                            x       y       z     vdW  Elec       q    Type
                         _______ _______ _______ _____ _____    ______ ____

>  <TORSDO>
F 6

$$$$
=
 OpenBabel10262422463D

 37 42  0  0  1  0  0  0  0  0999 V2000
  186.2320  180.2090  141.6480 O   0  0  0  0  0  1  0  0  0  0  0  0
  191.0330  176.7690  140.3930 C   0  0  0  0  0  2  0  0  0  0  0  0
  187.1250  177.7860  138.3190 C   0  0  0  0  0  0  0  0  0  0  0  0
  184.2230  179.6610  139.4600 C   0  0  0  0  0  2  0  0  0  0  0  0
  189.7300  177.5370  138.3850 C   0  0  2  0  0  3  0  0  0  0  0  0
  186.1800  178.0830  139.2970 C   0  0  0  0  0  0  0  0  0  0  0  0
  188.3570  177.7580  138.9720 C   0  0  0  0  0  0  0  0  0  0  0  0
  184.6940  178.2620  139.1080 C   0  0  1  0  0  0  0  0  0  0  0  0
  189.6760  177.3070  137.0100 O   0  0  0  0  0  1  0  0  0  0  0  0
  188.1110  178.0590  140.3050 C   0  0  0  0  0  0  0  0  0  0  0  0
  188.6830  178.5420  142.5990 O   0  0  0  0  0  1  0  0  0  0  0  0
  185.5970  177.1260  136.4060 C   0  0  0  0  0  2  0  0  0  0  0  0
  187.0380  179.0420  136.2990 O   0  0  0  0  0  1  0  0  0  0  0  0
  189.1960  178.1930  141.3510 C   0  0  1  0  0  3  0  0  0  0  0  0
  183.8420  178.4810  140.3580 C   0  0  1  0  0  3  0  0  0  0  0  0
  186.9200  177.7550  136.8270 C   0  0  1  0  0  3  0  0  0  0  0  0
  186.7850  178.2600  140.4880 N   0  0  0  0  0  0  0  0  0  0  0  0
  190.4200  176.3610  139.0600 C   0  0  0  0  0  2  0  0  0  0  0  0
  184.0270  177.5280  137.9120 C   0  0  2  0  0  3  0  0  0  0  0  0
  189.9790  176.8950  141.4860 C   0  0  0  0  0  2  0  0  0  0  0  0
  184.6370  178.3840  141.6810 C   0  0  1  0  0  3  0  0  0  0  0  0
  186.1150  178.8170  141.6580 C   0  0  2  0  0  3  0  0  0  0  0  0
  184.5290  177.9830  136.6930 O   0  0  0  0  0  0  0  0  0  0  0  0
  182.0620  178.0990  136.6680 C   0  0  0  0  0  2  0  0  0  0  0  0
  182.5570  177.4100  137.8690 N   0  0  1  0  0  0  0  0  0  0  0  0
  182.0790  176.0160  137.9800 C   0  0  1  0  0  3  0  0  0  0  0  0
  182.0840  175.5800  139.4360 C   0  0  0  0  0  1  0  0  0  0  0  0
  179.9920  177.0990  137.4870 O   0  0  0  0  0  0  0  0  0  0  0  0
  180.6560  175.8640  137.4320 C   0  0  0  0  0  2  0  0  0  0  0  0
  180.5520  177.8870  136.4660 C   0  0  0  0  0  2  0  0  0  0  0  0
  183.8220  178.8580  142.8940 C   0  0  2  0  0  3  0  0  0  0  0  0
  184.2710  178.1810  144.1820 C   0  0  0  0  0  2  0  0  0  0  0  0
  184.8970  179.1950  145.1210 C   0  0  0  0  0  1  0  0  0  0  0  0
  182.3260  178.6560  142.6760 C   0  0  0  0  0  2  0  0  0  0  0  0
  181.6220  179.7880  143.0870 O   0  0  0  0  0  0  0  0  0  0  0  0
  180.0410  178.2770  144.0200 C   0  0  0  0  0  1  0  0  0  0  0  0
  180.2830  179.4030  143.0340 C   0  0  0  0  0  2  0  0  0  0  0  0
  2 20  1  0  0  0  0
  3  7  1  0  0  0  0
  3  6  2  0  0  0  0
  5  9  1  6  0  0  0
  5  7  1  0  0  0  0
  5 18  1  0  0  0  0
  6 17  1  0  0  0  0
  7 10  2  0  0  0  0
  8  6  1  0  0  0  0
  8  4  1  6  0  0  0
  8 15  1  0  0  0  0
 10 17  1  0  0  0  0
 10 14  1  0  0  0  0
 12 23  1  0  0  0  0
 12 16  1  0  0  0  0
 14 20  1  0  0  0  0
 14 11  1  1  0  0  0
 15  4  1  6  0  0  0
 15 21  1  0  0  0  0
 16 13  1  1  0  0  0
 16  3  1  0  0  0  0
 17 22  1  0  0  0  0
 18  2  1  0  0  0  0
 19 23  1  6  0  0  0
 19  8  1  0  0  0  0
 21 31  1  1  0  0  0
 22  1  1  6  0  0  0
 22 21  1  0  0  0  0
 25 24  1  6  0  0  0
 25 19  1  0  0  0  0
 25 26  1  0  0  0  0
 26 27  1  1  0  0  0
 29 28  1  0  0  0  0
 29 26  1  0  0  0  0
 30 24  1  0  0  0  0
 30 28  1  0  0  0  0
 31 34  1  6  0  0  0
 31 32  1  0  0  0  0
 32 33  1  0  0  0  0
 34 35  1  0  0  0  0
 37 35  1  0  0  0  0
 37 36  1  0  0  0  0
M  END
>  <MODEL>
2

>  <REMARK>
 VINA RESULT:      -6.8      0.872      1.839
  Name = 
  6 active torsions:
  status: ('A' for Active; 'I' for Inactive)
    1  A    between atoms: O_5  and  C_17
    2  A    between atoms: O_5  and  C_23
    3  A    between atoms: N_6  and  C_31
    4  A    between atoms: C_11  and  C_26
    5  A    between atoms: C_17  and  C_26
    6  A    between atoms: C_26  and  C_33
                            x       y       z     vdW  Elec       q    Type
                         _______ _______ _______ _____ _____    ______ ____

>  <TORSDO>
F 6

$$$$
=
 OpenBabel10262422463D

 37 42  0  0  1  0  0  0  0  0999 V2000
  189.3020  178.9900  138.3860 O   0  0  0  0  0  1  0  0  0  0  0  0
  185.2660  175.9780  135.0550 C   0  0  0  0  0  2  0  0  0  0  0  0
  185.2310  178.1330  139.0500 C   0  0  0  0  0  0  0  0  0  0  0  0
  187.9240  179.6070  141.0030 C   0  0  0  0  0  2  0  0  0  0  0  0
  184.2790  177.6400  136.6620 C   0  0  2  0  0  3  0  0  0  0  0  0
  186.5150  178.0730  139.5860 C   0  0  0  0  0  0  0  0  0  0  0  0
  185.3500  177.7180  137.7240 C   0  0  0  0  0  0  0  0  0  0  0  0
  186.9400  178.4520  140.9820 C   0  0  1  0  0  0  0  0  0  0  0  0
  183.0310  178.0200  137.1540 O   0  0  0  0  0  1  0  0  0  0  0  0
  186.6930  177.4470  137.5070 C   0  0  0  0  0  0  0  0  0  0  0  0
  188.6450  176.8590  136.2150 O   0  0  0  0  0  1  0  0  0  0  0  0
  183.8790  178.4880  141.1660 C   0  0  0  0  0  2  0  0  0  0  0  0
  183.9850  180.1280  139.4170 O   0  0  0  0  0  1  0  0  0  0  0  0
  187.2610  177.0260  136.1700 C   0  0  1  0  0  3  0  0  0  0  0  0
  188.3970  178.1980  141.3720 C   0  0  1  0  0  3  0  0  0  0  0  0
  184.0080  178.7550  139.6700 C   0  0  1  0  0  3  0  0  0  0  0  0
  187.3920  177.6730  138.6440 N   0  0  0  0  0  0  0  0  0  0  0  0
  184.1850  176.2310  136.0960 C   0  0  0  0  0  2  0  0  0  0  0  0
  185.8760  178.3570  142.1100 C   0  0  2  0  0  3  0  0  0  0  0  0
  186.6240  175.7270  135.6980 C   0  0  0  0  0  2  0  0  0  0  0  0
  189.2190  177.4770  140.2800 C   0  0  1  0  0  3  0  0  0  0  0  0
  188.8400  177.7410  138.8100 C   0  0  2  0  0  3  0  0  0  0  0  0
  184.8170  179.2370  141.8840 O   0  0  0  0  0  0  0  0  0  0  0  0
  185.3870  179.2640  144.2720 C   0  0  0  0  0  2  0  0  0  0  0  0
  186.3130  178.4050  143.5190 N   0  0  1  0  0  0  0  0  0  0  0  0
  186.4870  177.0660  144.1210 C   0  0  1  0  0  3  0  0  0  0  0  0
  187.8290  176.4840  143.7120 C   0  0  0  0  0  1  0  0  0  0  0  0
  186.7790  178.4150  146.0890 O   0  0  0  0  0  0  0  0  0  0  0  0
  186.4310  177.1280  145.6510 C   0  0  0  0  0  2  0  0  0  0  0  0
  185.6810  179.2390  145.7820 C   0  0  0  0  0  2  0  0  0  0  0  0
  190.7250  177.4660  140.5870 C   0  0  2  0  0  3  0  0  0  0  0  0
  191.5220  176.7490  139.5060 C   0  0  0  0  0  2  0  0  0  0  0  0
  192.9770  177.1750  139.5510 C   0  0  0  0  0  1  0  0  0  0  0  0
  191.0110  176.8580  141.9560 C   0  0  0  0  0  2  0  0  0  0  0  0
  191.9150  177.6560  142.6580 O   0  0  0  0  0  0  0  0  0  0  0  0
  190.9310  179.3780  143.9690 C   0  0  0  0  0  1  0  0  0  0  0  0
  191.2840  177.9070  143.8760 C   0  0  0  0  0  2  0  0  0  0  0  0
  2 20  1  0  0  0  0
  2 18  1  0  0  0  0
  3  6  2  0  0  0  0
  3 16  1  0  0  0  0
  5  9  1  1  0  0  0
  5  7  1  0  0  0  0
  6  8  1  0  0  0  0
  7  3  1  0  0  0  0
  8  4  1  6  0  0  0
  8 15  1  0  0  0  0
  8 19  1  0  0  0  0
 10  7  2  0  0  0  0
 10 17  1  0  0  0  0
 12 23  1  0  0  0  0
 14 11  1  1  0  0  0
 14 10  1  0  0  0  0
 15  4  1  6  0  0  0
 16 13  1  1  0  0  0
 16 12  1  0  0  0  0
 17 22  1  0  0  0  0
 17  6  1  0  0  0  0
 18  5  1  0  0  0  0
 19 23  1  6  0  0  0
 19 25  1  0  0  0  0
 20 14  1  0  0  0  0
 21 31  1  6  0  0  0
 21 15  1  0  0  0  0
 22  1  1  1  0  0  0
 22 21  1  0  0  0  0
 24 30  1  0  0  0  0
 25 26  1  0  0  0  0
 25 24  1  1  0  0  0
 26 27  1  1  0  0  0
 26 29  1  0  0  0  0
 29 28  1  0  0  0  0
 30 28  1  0  0  0  0
 31 32  1  6  0  0  0
 31 34  1  0  0  0  0
 32 33  1  0  0  0  0
 34 35  1  0  0  0  0
 35 37  1  0  0  0  0
 37 36  1  0  0  0  0
M  END
>  <MODEL>
3

>  <REMARK>
 VINA RESULT:      -6.6      2.098      6.758
  Name = 
  6 active torsions:
  status: ('A' for Active; 'I' for Inactive)
    1  A    between atoms: O_5  and  C_17
    2  A    between atoms: O_5  and  C_23
    3  A    between atoms: N_6  and  C_31
    4  A    between atoms: C_11  and  C_26
    5  A    between atoms: C_17  and  C_26
    6  A    between atoms: C_26  and  C_33
                            x       y       z     vdW  Elec       q    Type
                         _______ _______ _______ _____ _____    ______ ____

>  <TORSDO>
F 6

$$$$
=
 OpenBabel10262422463D

 37 42  0  0  1  0  0  0  0  0999 V2000
  180.6690  178.1340  141.1170 O   0  0  0  0  0  1  0  0  0  0  0  0
  178.9310  182.7890  137.6860 C   0  0  0  0  0  2  0  0  0  0  0  0
  181.1920  178.9120  137.0100 C   0  0  0  0  0  0  0  0  0  0  0  0
  182.4010  176.4010  139.3500 C   0  0  0  0  0  2  0  0  0  0  0  0
  179.3120  180.6410  136.4380 C   0  0  2  0  0  3  0  0  0  0  0  0
  181.8290  178.5680  138.1990 C   0  0  0  0  0  0  0  0  0  0  0  0
  180.2990  179.9320  137.3340 C   0  0  0  0  0  0  0  0  0  0  0  0
  182.8660  177.4920  138.4030 C   0  0  1  0  0  0  0  0  0  0  0  0
  179.3840  180.1840  135.1220 O   0  0  0  0  0  1  0  0  0  0  0  0
  180.4150  180.1470  138.7000 C   0  0  0  0  0  0  0  0  0  0  0  0
  179.8570  181.1260  140.8350 O   0  0  0  0  0  1  0  0  0  0  0  0
  182.6390  177.6550  135.3480 C   0  0  0  0  0  2  0  0  0  0  0  0
  180.3210  177.1360  135.6850 O   0  0  0  0  0  1  0  0  0  0  0  0
  179.5680  181.1360  139.4710 C   0  0  1  0  0  3  0  0  0  0  0  0
  183.5000  177.3720  139.7890 C   0  0  1  0  0  3  0  0  0  0  0  0
  181.2490  178.1780  135.6950 C   0  0  1  0  0  3  0  0  0  0  0  0
  181.3430  179.3080  139.2150 N   0  0  0  0  0  0  0  0  0  0  0  0
  179.5530  182.1430  136.4560 C   0  0  0  0  0  2  0  0  0  0  0  0
  183.7430  177.0970  137.1830 C   0  0  2  0  0  3  0  0  0  0  0  0
  179.7670  182.5480  138.9370 C   0  0  0  0  0  2  0  0  0  0  0  0
  183.0470  178.4680  140.7800 C   0  0  1  0  0  3  0  0  0  0  0  0
  181.6200  179.0290  140.6200 C   0  0  2  0  0  3  0  0  0  0  0  0
  182.9700  176.5600  136.1530 O   0  0  0  0  0  0  0  0  0  0  0  0
  184.7260  174.9290  136.9140 C   0  0  0  0  0  2  0  0  0  0  0  0
  184.9630  176.2970  137.4010 N   0  0  1  0  0  0  0  0  0  0  0  0
  186.1780  176.9160  136.8320 C   0  0  1  0  0  3  0  0  0  0  0  0
  186.7010  177.9920  137.7690 C   0  0  0  0  0  1  0  0  0  0  0  0
  187.0970  174.7920  137.4780 O   0  0  0  0  0  0  0  0  0  0  0  0
  187.2870  175.8810  136.6140 C   0  0  0  0  0  2  0  0  0  0  0  0
  186.0030  174.0740  136.9620 C   0  0  0  0  0  2  0  0  0  0  0  0
  183.4910  178.1790  142.2210 C   0  0  2  0  0  3  0  0  0  0  0  0
  182.8030  179.0950  143.2250 C   0  0  0  0  0  2  0  0  0  0  0  0
  183.4810  179.0000  144.5790 C   0  0  0  0  0  1  0  0  0  0  0  0
  185.0070  178.2680  142.3670 C   0  0  0  0  0  2  0  0  0  0  0  0
  185.5010  179.3390  141.6220 O   0  0  0  0  0  0  0  0  0  0  0  0
  187.3130  177.9940  142.3710 C   0  0  0  0  0  1  0  0  0  0  0  0
  186.8190  178.9850  141.3350 C   0  0  0  0  0  2  0  0  0  0  0  0
  2 20  1  0  0  0  0
  3  7  1  0  0  0  0
  3  6  2  0  0  0  0
  5  9  1  6  0  0  0
  5 18  1  0  0  0  0
  5  7  1  0  0  0  0
  6  8  1  0  0  0  0
  6 17  1  0  0  0  0
  7 10  2  0  0  0  0
  8  4  1  1  0  0  0
  8 15  1  0  0  0  0
 10 17  1  0  0  0  0
 10 14  1  0  0  0  0
 12 16  1  0  0  0  0
 12 23  1  0  0  0  0
 14 11  1  1  0  0  0
 15  4  1  1  0  0  0
 15 21  1  0  0  0  0
 16 13  1  1  0  0  0
 16  3  1  0  0  0  0
 17 22  1  0  0  0  0
 18  2  1  0  0  0  0
 19 23  1  6  0  0  0
 19 25  1  0  0  0  0
 19  8  1  0  0  0  0
 20 14  1  0  0  0  0
 21 31  1  1  0  0  0
 22 21  1  0  0  0  0
 22  1  1  6  0  0  0
 24 30  1  0  0  0  0
 25 24  1  6  0  0  0
 26 25  1  0  0  0  0
 26 27  1  1  0  0  0
 29 26  1  0  0  0  0
 29 28  1  0  0  0  0
 30 28  1  0  0  0  0
 31 34  1  6  0  0  0
 31 32  1  0  0  0  0
 32 33  1  0  0  0  0
 35 34  1  0  0  0  0
 37 35  1  0  0  0  0
 37 36  1  0  0  0  0
M  END
>  <MODEL>
4

>  <REMARK>
 VINA RESULT:      -6.6      2.716      6.605
  Name = 
  6 active torsions:
  status: ('A' for Active; 'I' for Inactive)
    1  A    between atoms: O_5  and  C_17
    2  A    between atoms: O_5  and  C_23
    3  A    between atoms: N_6  and  C_31
    4  A    between atoms: C_11  and  C_26
    5  A    between atoms: C_17  and  C_26
    6  A    between atoms: C_26  and  C_33
                            x       y       z     vdW  Elec       q    Type
                         _______ _______ _______ _____ _____    ______ ____

>  <TORSDO>
F 6

$$$$
=
 OpenBabel10262422463D

 37 42  0  0  1  0  0  0  0  0999 V2000
  191.0550  178.0510  140.6670 O   0  0  0  0  0  1  0  0  0  0  0  0
  191.2470  175.1490  135.3750 C   0  0  0  0  0  2  0  0  0  0  0  0
  188.1790  177.6310  137.6180 C   0  0  0  0  0  0  0  0  0  0  0  0
  188.2090  179.0120  140.9840 C   0  0  0  0  0  2  0  0  0  0  0  0
  189.5790  177.0260  135.4910 C   0  0  2  0  0  3  0  0  0  0  0  0
  188.4280  177.4990  138.9820 C   0  0  0  0  0  0  0  0  0  0  0  0
  189.2920  177.0950  136.9720 C   0  0  0  0  0  0  0  0  0  0  0  0
  187.5480  177.9550  140.1190 C   0  0  1  0  0  0  0  0  0  0  0  0
  188.5360  177.5590  134.7340 O   0  0  0  0  0  1  0  0  0  0  0  0
  190.1720  176.6840  137.9630 C   0  0  0  0  0  0  0  0  0  0  0  0
  192.2370  175.8120  138.8570 O   0  0  0  0  0  1  0  0  0  0  0  0
  185.7290  178.2880  137.6720 C   0  0  0  0  0  2  0  0  0  0  0  0
  187.4370  179.7560  136.8430 O   0  0  0  0  0  1  0  0  0  0  0  0
  191.5400  176.1010  137.6840 C   0  0  1  0  0  3  0  0  0  0  0  0
  187.9890  177.6030  141.5400 C   0  0  1  0  0  3  0  0  0  0  0  0
  187.0720  178.4130  136.9600 C   0  0  1  0  0  3  0  0  0  0  0  0
  189.6380  176.9420  139.1800 N   0  0  0  0  0  0  0  0  0  0  0  0
  189.8250  175.5880  135.0580 C   0  0  0  0  0  2  0  0  0  0  0  0
  186.0210  178.0550  139.8530 C   0  0  2  0  0  3  0  0  0  0  0  0
  191.4250  174.8300  136.8540 C   0  0  0  0  0  2  0  0  0  0  0  0
  189.2560  176.7190  141.6000 C   0  0  1  0  0  3  0  0  0  0  0  0
  190.2990  176.8900  140.4790 C   0  0  2  0  0  3  0  0  0  0  0  0
  185.7380  179.0060  138.8720 O   0  0  0  0  0  0  0  0  0  0  0  0
  185.5930  179.2400  141.8900 C   0  0  0  0  0  2  0  0  0  0  0  0
  185.0970  178.1820  140.9970 N   0  0  1  0  0  0  0  0  0  0  0  0
  183.6890  178.3730  140.5910 C   0  0  1  0  0  3  0  0  0  0  0  0
  183.0690  177.0360  140.2220 C   0  0  0  0  0  1  0  0  0  0  0  0
  183.4580  178.7240  142.9570 O   0  0  0  0  0  0  0  0  0  0  0  0
  182.8600  178.9990  141.7180 C   0  0  0  0  0  2  0  0  0  0  0  0
  184.6010  179.5430  143.0260 C   0  0  0  0  0  2  0  0  0  0  0  0
  189.8210  176.5960  143.0230 C   0  0  2  0  0  3  0  0  0  0  0  0
  190.5870  175.2950  143.2220 C   0  0  0  0  0  2  0  0  0  0  0  0
  191.7480  175.5040  144.1760 C   0  0  0  0  0  1  0  0  0  0  0  0
  188.7260  176.7390  144.0740 C   0  0  0  0  0  2  0  0  0  0  0  0
  188.9850  177.8380  144.8940 O   0  0  0  0  0  0  0  0  0  0  0  0
  186.6560  177.7230  145.3600 C   0  0  0  0  0  1  0  0  0  0  0  0
  188.0600  177.7230  145.9320 C   0  0  0  0  0  2  0  0  0  0  0  0
  2 20  1  0  0  0  0
  3  6  2  0  0  0  0
  5  9  1  6  0  0  0
  5  7  1  0  0  0  0
  6 17  1  0  0  0  0
  6  8  1  0  0  0  0
  7  3  1  0  0  0  0
  7 10  2  0  0  0  0
  8  4  1  6  0  0  0
  8 15  1  0  0  0  0
 10 17  1  0  0  0  0
 12 23  1  0  0  0  0
 14 10  1  0  0  0  0
 14 11  1  1  0  0  0
 15  4  1  1  0  0  0
 15 21  1  0  0  0  0
 16 13  1  1  0  0  0
 16  3  1  0  0  0  0
 16 12  1  0  0  0  0
 17 22  1  0  0  0  0
 18  2  1  0  0  0  0
 18  5  1  0  0  0  0
 19 23  1  6  0  0  0
 19  8  1  0  0  0  0
 19 25  1  0  0  0  0
 20 14  1  0  0  0  0
 21 31  1  1  0  0  0
 22  1  1  1  0  0  0
 22 21  1  0  0  0  0
 24 30  1  0  0  0  0
 25 24  1  6  0  0  0
 26 27  1  1  0  0  0
 26 25  1  0  0  0  0
 26 29  1  0  0  0  0
 28 30  1  0  0  0  0
 29 28  1  0  0  0  0
 31 32  1  6  0  0  0
 31 34  1  0  0  0  0
 32 33  1  0  0  0  0
 34 35  1  0  0  0  0
 35 37  1  0  0  0  0
 36 37  1  0  0  0  0
M  END
>  <MODEL>
5

>  <REMARK>
 VINA RESULT:      -6.3      2.251      4.964
  Name = 
  6 active torsions:
  status: ('A' for Active; 'I' for Inactive)
    1  A    between atoms: O_5  and  C_17
    2  A    between atoms: O_5  and  C_23
    3  A    between atoms: N_6  and  C_31
    4  A    between atoms: C_11  and  C_26
    5  A    between atoms: C_17  and  C_26
    6  A    between atoms: C_26  and  C_33
                            x       y       z     vdW  Elec       q    Type
                         _______ _______ _______ _____ _____    ______ ____

>  <TORSDO>
F 6

$$$$
=
 OpenBabel10262422463D

 37 42  0  0  1  0  0  0  0  0999 V2000
  188.7060  179.4410  142.0180 O   0  0  0  0  0  1  0  0  0  0  0  0
  191.8090  176.2490  137.9390 C   0  0  0  0  0  2  0  0  0  0  0  0
  187.6020  177.9260  138.2450 C   0  0  0  0  0  0  0  0  0  0  0  0
  185.8670  179.5590  140.9950 C   0  0  0  0  0  2  0  0  0  0  0  0
  189.8790  177.5620  137.0060 C   0  0  2  0  0  3  0  0  0  0  0  0
  187.2620  177.9990  139.5930 C   0  0  0  0  0  0  0  0  0  0  0  0
  188.9740  177.6800  138.2090 C   0  0  0  0  0  0  0  0  0  0  0  0
  185.9000  178.2810  140.1780 C   0  0  1  0  0  0  0  0  0  0  0  0
  189.1740  177.6970  135.8100 O   0  0  0  0  0  1  0  0  0  0  0  0
  189.4080  177.6360  139.5270 C   0  0  0  0  0  0  0  0  0  0  0  0
  191.0240  177.4860  141.3140 O   0  0  0  0  0  1  0  0  0  0  0  0
  185.2910  177.8460  137.2030 C   0  0  0  0  0  2  0  0  0  0  0  0
  186.8110  179.6640  136.8230 O   0  0  0  0  0  1  0  0  0  0  0  0
  190.8550  177.4510  139.9300 C   0  0  1  0  0  3  0  0  0  0  0  0
  185.7520  178.2040  141.6980 C   0  0  1  0  0  3  0  0  0  0  0  0
  186.7430  178.2900  137.0630 C   0  0  1  0  0  3  0  0  0  0  0  0
  188.3590  177.8370  140.3580 N   0  0  0  0  0  0  0  0  0  0  0  0
  190.6040  176.2240  137.0080 C   0  0  0  0  0  2  0  0  0  0  0  0
  184.6580  177.9090  139.3220 C   0  0  2  0  0  3  0  0  0  0  0  0
  191.3980  176.1320  139.4010 C   0  0  0  0  0  2  0  0  0  0  0  0
  187.0320  177.7360  142.4270 C   0  0  1  0  0  3  0  0  0  0  0  0
  188.3880  178.0990  141.7930 C   0  0  2  0  0  3  0  0  0  0  0  0
  184.6190  178.6430  138.1360 O   0  0  0  0  0  0  0  0  0  0  0  0
  182.8650  179.2450  140.1820 C   0  0  0  0  0  2  0  0  0  0  0  0
  183.3290  177.8660  139.9620 N   0  0  1  0  0  0  0  0  0  0  0  0
  182.3540  177.0330  139.2280 C   0  0  1  0  0  3  0  0  0  0  0  0
  182.5730  175.5660  139.5570 C   0  0  0  0  0  1  0  0  0  0  0  0
  180.8810  177.9970  140.8640 O   0  0  0  0  0  0  0  0  0  0  0  0
  180.9120  177.4020  139.5930 C   0  0  0  0  0  2  0  0  0  0  0  0
  181.4180  179.2870  140.7020 C   0  0  0  0  0  2  0  0  0  0  0  0
  186.9400  177.9130  143.9500 C   0  0  2  0  0  3  0  0  0  0  0  0
  187.7800  176.8850  144.6960 C   0  0  0  0  0  2  0  0  0  0  0  0
  188.1880  177.4210  146.0550 C   0  0  0  0  0  1  0  0  0  0  0  0
  185.4930  177.8730  144.4310 C   0  0  0  0  0  2  0  0  0  0  0  0
  185.1710  179.0610  145.0890 O   0  0  0  0  0  0  0  0  0  0  0  0
  183.0500  178.9660  144.0170 C   0  0  0  0  0  1  0  0  0  0  0  0
  183.8020  178.9620  145.3340 C   0  0  0  0  0  2  0  0  0  0  0  0
  2 20  1  0  0  0  0
  3  6  2  0  0  0  0
  5  9  1  6  0  0  0
  5 18  1  0  0  0  0
  5  7  1  0  0  0  0
  6  8  1  0  0  0  0
  6 17  1  0  0  0  0
  7  3  1  0  0  0  0
  7 10  2  0  0  0  0
  8  4  1  6  0  0  0
  8 15  1  0  0  0  0
 10 14  1  0  0  0  0
 10 17  1  0  0  0  0
 12 23  1  0  0  0  0
 14 11  1  1  0  0  0
 15  4  1  1  0  0  0
 15 21  1  0  0  0  0
 16 13  1  1  0  0  0
 16 12  1  0  0  0  0
 16  3  1  0  0  0  0
 17 22  1  0  0  0  0
 18  2  1  0  0  0  0
 19 23  1  6  0  0  0
 19 25  1  0  0  0  0
 19  8  1  0  0  0  0
 20 14  1  0  0  0  0
 21 31  1  1  0  0  0
 22  1  1  6  0  0  0
 22 21  1  0  0  0  0
 24 30  1  0  0  0  0
 25 24  1  6  0  0  0
 26 27  1  1  0  0  0
 26 29  1  0  0  0  0
 26 25  1  0  0  0  0
 29 28  1  0  0  0  0
 30 28  1  0  0  0  0
 31 34  1  1  0  0  0
 31 32  1  0  0  0  0
 32 33  1  0  0  0  0
 34 35  1  0  0  0  0
 35 37  1  0  0  0  0
 36 37  1  0  0  0  0
M  END
>  <MODEL>
6

>  <REMARK>
 VINA RESULT:      -6.3      1.679      2.868
  Name = 
  6 active torsions:
  status: ('A' for Active; 'I' for Inactive)
    1  A    between atoms: O_5  and  C_17
    2  A    between atoms: O_5  and  C_23
    3  A    between atoms: N_6  and  C_31
    4  A    between atoms: C_11  and  C_26
    5  A    between atoms: C_17  and  C_26
    6  A    between atoms: C_26  and  C_33
                            x       y       z     vdW  Elec       q    Type
                         _______ _______ _______ _____ _____    ______ ____

>  <TORSDO>
F 6

$$$$
=
 OpenBabel10262422463D

 37 42  0  0  1  0  0  0  0  0999 V2000
  184.9310  179.9590  139.3480 O   0  0  0  0  0  1  0  0  0  0  0  0
  179.9430  176.6160  138.7070 C   0  0  0  0  0  2  0  0  0  0  0  0
  182.2430  178.3990  142.1920 C   0  0  0  0  0  0  0  0  0  0  0  0
  185.4430  180.1250  142.3210 C   0  0  0  0  0  2  0  0  0  0  0  0
  180.0510  177.9570  140.8310 C   0  0  2  0  0  3  0  0  0  0  0  0
  183.5800  178.5050  141.8200 C   0  0  0  0  0  0  0  0  0  0  0  0
  181.5400  178.1200  141.0200 C   0  0  0  0  0  0  0  0  0  0  0  0
  184.7530  178.8310  142.7100 C   0  0  1  0  0  0  0  0  0  0  0  0
  179.3570  178.0870  142.0340 O   0  0  0  0  0  1  0  0  0  0  0  0
  182.4710  178.0900  139.9920 C   0  0  0  0  0  0  0  0  0  0  0  0
  183.2290  177.9360  137.7050 O   0  0  0  0  0  1  0  0  0  0  0  0
  182.4830  178.3540  144.7170 C   0  0  0  0  0  2  0  0  0  0  0  0
  181.3500  180.1280  143.5640 O   0  0  0  0  0  1  0  0  0  0  0  0
  182.1110  177.8790  138.5370 C   0  0  1  0  0  3  0  0  0  0  0  0
  186.1490  178.7860  142.0880 C   0  0  1  0  0  3  0  0  0  0  0  0
  181.6300  178.7610  143.5200 C   0  0  1  0  0  3  0  0  0  0  0  0
  183.7060  178.3320  140.4900 N   0  0  0  0  0  0  0  0  0  0  0  0
  179.7320  176.6030  140.2150 C   0  0  0  0  0  2  0  0  0  0  0  0
  184.6350  178.4720  144.2170 C   0  0  2  0  0  3  0  0  0  0  0  0
  181.4200  176.5370  138.3420 C   0  0  0  0  0  2  0  0  0  0  0  0
  186.1630  178.3010  140.6200 C   0  0  1  0  0  3  0  0  0  0  0  0
  184.9310  178.6200  139.7510 C   0  0  2  0  0  3  0  0  0  0  0  0
  183.6030  179.1840  144.8300 O   0  0  0  0  0  0  0  0  0  0  0  0
  185.5460  179.1480  146.3270 C   0  0  0  0  0  2  0  0  0  0  0  0
  185.8490  178.4730  145.0560 N   0  0  1  0  0  0  0  0  0  0  0  0
  186.4370  177.1290  145.2340 C   0  0  1  0  0  3  0  0  0  0  0  0
  187.2630  176.7570  144.0150 C   0  0  0  0  0  1  0  0  0  0  0  0
  187.8110  178.3570  146.7760 O   0  0  0  0  0  0  0  0  0  0  0  0
  187.3410  177.0710  146.4700 C   0  0  0  0  0  2  0  0  0  0  0  0
  186.7160  179.0510  147.3200 C   0  0  0  0  0  2  0  0  0  0  0  0
  187.5260  178.5100  139.9440 C   0  0  2  0  0  3  0  0  0  0  0  0
  187.6950  177.6260  138.7160 C   0  0  0  0  0  2  0  0  0  0  0  0
  188.3570  178.4010  137.5930 C   0  0  0  0  0  1  0  0  0  0  0  0
  188.6750  178.2910  140.9230 C   0  0  0  0  0  2  0  0  0  0  0  0
  189.0500  176.9470  140.9340 O   0  0  0  0  0  0  0  0  0  0  0  0
  191.2080  177.1310  139.9540 C   0  0  0  0  0  1  0  0  0  0  0  0
  190.4120  176.9690  141.2340 C   0  0  0  0  0  2  0  0  0  0  0  0
  2 18  1  0  0  0  0
  3 16  1  0  0  0  0
  5  7  1  0  0  0  0
  5  9  1  1  0  0  0
  6  3  2  0  0  0  0
  6  8  1  0  0  0  0
  7  3  1  0  0  0  0
  8  4  1  1  0  0  0
  8 19  1  0  0  0  0
 10 17  1  0  0  0  0
 10  7  2  0  0  0  0
 12 23  1  0  0  0  0
 14 11  1  6  0  0  0
 14 10  1  0  0  0  0
 15  4  1  6  0  0  0
 15  8  1  0  0  0  0
 16 13  1  6  0  0  0
 16 12  1  0  0  0  0
 17  6  1  0  0  0  0
 18  5  1  0  0  0  0
 19 23  1  1  0  0  0
 19 25  1  0  0  0  0
 20 14  1  0  0  0  0
 20  2  1  0  0  0  0
 21 31  1  6  0  0  0
 21 15  1  0  0  0  0
 22  1  1  1  0  0  0
 22 17  1  0  0  0  0
 22 21  1  0  0  0  0
 24 30  1  0  0  0  0
 25 26  1  0  0  0  0
 25 24  1  1  0  0  0
 26 27  1  6  0  0  0
 26 29  1  0  0  0  0
 28 30  1  0  0  0  0
 29 28  1  0  0  0  0
 31 32  1  6  0  0  0
 31 34  1  0  0  0  0
 33 32  1  0  0  0  0
 34 35  1  0  0  0  0
 35 37  1  0  0  0  0
 36 37  1  0  0  0  0
M  END
>  <MODEL>
7

>  <REMARK>
 VINA RESULT:      -6.3      2.043      7.810
  Name = 
  6 active torsions:
  status: ('A' for Active; 'I' for Inactive)
    1  A    between atoms: O_5  and  C_17
    2  A    between atoms: O_5  and  C_23
    3  A    between atoms: N_6  and  C_31
    4  A    between atoms: C_11  and  C_26
    5  A    between atoms: C_17  and  C_26
    6  A    between atoms: C_26  and  C_33
                            x       y       z     vdW  Elec       q    Type
                         _______ _______ _______ _____ _____    ______ ____

>  <TORSDO>
F 6

$$$$
=
 OpenBabel10262422463D

 37 42  0  0  1  0  0  0  0  0999 V2000
  186.2330  179.0030  138.3080 O   0  0  0  0  0  1  0  0  0  0  0  0
  185.0000  173.8200  135.4650 C   0  0  0  0  0  2  0  0  0  0  0  0
  182.5890  177.3520  136.9880 C   0  0  0  0  0  0  0  0  0  0  0  0
  183.5590  180.2360  138.9820 C   0  0  0  0  0  2  0  0  0  0  0  0
  183.2910  175.6360  135.1410 C   0  0  2  0  0  3  0  0  0  0  0  0
  183.2680  177.9070  138.0690 C   0  0  0  0  0  0  0  0  0  0  0  0
  183.4830  176.4680  136.3850 C   0  0  0  0  0  0  0  0  0  0  0  0
  182.7570  178.9490  139.0320 C   0  0  1  0  0  0  0  0  0  0  0  0
  182.0180  175.8010  134.5960 O   0  0  0  0  0  1  0  0  0  0  0  0
  184.6660  176.5400  137.1080 C   0  0  0  0  0  0  0  0  0  0  0  0
  186.9780  176.0620  137.6100 O   0  0  0  0  0  1  0  0  0  0  0  0
  180.2340  178.1570  137.4780 C   0  0  0  0  0  2  0  0  0  0  0  0
  181.4500  178.8490  135.5280 O   0  0  0  0  0  1  0  0  0  0  0  0
  185.9220  175.7790  136.7450 C   0  0  1  0  0  3  0  0  0  0  0  0
  183.6560  179.3270  140.2100 C   0  0  1  0  0  3  0  0  0  0  0  0
  181.2650  177.7880  136.4170 C   0  0  1  0  0  3  0  0  0  0  0  0
  184.5240  177.4230  138.1250 N   0  0  0  0  0  0  0  0  0  0  0  0
  183.5160  174.1610  135.4400 C   0  0  0  0  0  2  0  0  0  0  0  0
  181.2210  179.0340  139.2530 C   0  0  2  0  0  3  0  0  0  0  0  0
  185.6650  174.2790  136.7570 C   0  0  0  0  0  2  0  0  0  0  0  0
  184.9510  178.4880  140.3010 C   0  0  1  0  0  3  0  0  0  0  0  0
  185.5650  177.9770  138.9830 C   0  0  2  0  0  3  0  0  0  0  0  0
  180.5570  179.3790  138.0760 O   0  0  0  0  0  0  0  0  0  0  0  0
  179.7780  180.8320  139.9010 C   0  0  0  0  0  2  0  0  0  0  0  0
  180.7000  179.8010  140.4010 N   0  0  1  0  0  0  0  0  0  0  0  0
  180.1070  178.9490  141.4530 C   0  0  1  0  0  3  0  0  0  0  0  0
  181.2040  178.3640  142.3260 C   0  0  0  0  0  1  0  0  0  0  0  0
  179.4830  181.1060  142.3080 O   0  0  0  0  0  0  0  0  0  0  0  0
  179.1480  179.7440  142.3450 C   0  0  0  0  0  2  0  0  0  0  0  0
  179.0700  181.5730  141.0470 C   0  0  0  0  0  2  0  0  0  0  0  0
  185.9470  179.0520  141.3260 C   0  0  2  0  0  3  0  0  0  0  0  0
  187.0460  178.0540  141.6620 C   0  0  0  0  0  2  0  0  0  0  0  0
  188.4100  178.6520  141.3730 C   0  0  0  0  0  1  0  0  0  0  0  0
  185.2400  179.5180  142.5940 C   0  0  0  0  0  2  0  0  0  0  0  0
  185.2220  178.4920  143.5410 O   0  0  0  0  0  0  0  0  0  0  0  0
  185.1440  178.7860  145.8990 C   0  0  0  0  0  1  0  0  0  0  0  0
  184.4310  178.9880  144.5760 C   0  0  0  0  0  2  0  0  0  0  0  0
  2 20  1  0  0  0  0
  3  6  2  0  0  0  0
  5  9  1  1  0  0  0
  5 18  1  0  0  0  0
  5  7  1  0  0  0  0
  6 17  1  0  0  0  0
  6  8  1  0  0  0  0
  7  3  1  0  0  0  0
  7 10  2  0  0  0  0
  8  4  1  6  0  0  0
  8 19  1  0  0  0  0
  8 15  1  0  0  0  0
 10 17  1  0  0  0  0
 12 23  1  0  0  0  0
 14 20  1  0  0  0  0
 14 10  1  0  0  0  0
 14 11  1  1  0  0  0
 15  4  1  6  0  0  0
 15 21  1  0  0  0  0
 16 13  1  6  0  0  0
 16  3  1  0  0  0  0
 16 12  1  0  0  0  0
 17 22  1  0  0  0  0
 18  2  1  0  0  0  0
 19 23  1  6  0  0  0
 19 25  1  0  0  0  0
 21 31  1  6  0  0  0
 22  1  1  6  0  0  0
 22 21  1  0  0  0  0
 24 30  1  0  0  0  0
 25 24  1  6  0  0  0
 25 26  1  0  0  0  0
 26 27  1  1  0  0  0
 26 29  1  0  0  0  0
 28 29  1  0  0  0  0
 30 28  1  0  0  0  0
 31 32  1  1  0  0  0
 31 34  1  0  0  0  0
 33 32  1  0  0  0  0
 34 35  1  0  0  0  0
 35 37  1  0  0  0  0
 37 36  1  0  0  0  0
M  END
>  <MODEL>
8

>  <REMARK>
 VINA RESULT:      -6.3      2.470      5.248
  Name = 
  6 active torsions:
  status: ('A' for Active; 'I' for Inactive)
    1  A    between atoms: O_5  and  C_17
    2  A    between atoms: O_5  and  C_23
    3  A    between atoms: N_6  and  C_31
    4  A    between atoms: C_11  and  C_26
    5  A    between atoms: C_17  and  C_26
    6  A    between atoms: C_26  and  C_33
                            x       y       z     vdW  Elec       q    Type
                         _______ _______ _______ _____ _____    ______ ____

>  <TORSDO>
F 6

$$$$
=
 OpenBabel10262422463D

 37 42  0  0  1  0  0  0  0  0999 V2000
  187.9460  179.7480  140.4750 O   0  0  0  0  0  1  0  0  0  0  0  0
  182.0620  178.4640  140.9040 C   0  0  0  0  0  2  0  0  0  0  0  0
  185.6440  178.2860  143.6860 C   0  0  0  0  0  0  0  0  0  0  0  0
  189.1900  178.8200  143.0670 C   0  0  0  0  0  2  0  0  0  0  0  0
  183.1920  178.9810  143.0890 C   0  0  2  0  0  3  0  0  0  0  0  0
  186.7850  178.0870  142.9120 C   0  0  0  0  0  0  0  0  0  0  0  0
  184.6260  178.6120  142.7920 C   0  0  0  0  0  0  0  0  0  0  0  0
  188.1710  177.7460  143.3990 C   0  0  1  0  0  0  0  0  0  0  0  0
  182.9180  178.9370  144.4560 O   0  0  0  0  0  1  0  0  0  0  0  0
  185.1920  178.6190  141.5250 C   0  0  0  0  0  0  0  0  0  0  0  0
  185.2500  178.9570  139.1350 O   0  0  0  0  0  1  0  0  0  0  0  0
  186.4550  177.3900  145.9160 C   0  0  0  0  0  2  0  0  0  0  0  0
  185.8520  179.6900  145.5970 O   0  0  0  0  0  1  0  0  0  0  0  0
  184.4370  178.9900  140.2670 C   0  0  1  0  0  3  0  0  0  0  0  0
  189.2440  177.4710  142.3450 C   0  0  1  0  0  3  0  0  0  0  0  0
  185.5620  178.3880  145.1870 C   0  0  1  0  0  3  0  0  0  0  0  0
  186.5060  178.3050  141.6120 N   0  0  0  0  0  0  0  0  0  0  0  0
  182.2360  178.0500  142.3590 C   0  0  0  0  0  2  0  0  0  0  0  0
  188.2940  176.9920  144.7520 C   0  0  2  0  0  3  0  0  0  0  0  0
  183.2560  178.0540  140.0520 C   0  0  0  0  0  2  0  0  0  0  0  0
  188.7120  177.4850  140.8940 C   0  0  1  0  0  3  0  0  0  0  0  0
  187.5270  178.4180  140.5770 C   0  0  2  0  0  3  0  0  0  0  0  0
  187.8000  177.7590  145.8080 O   0  0  0  0  0  0  0  0  0  0  0  0
  190.3220  176.0650  143.8770 C   0  0  0  0  0  2  0  0  0  0  0  0
  189.5790  176.3610  145.1110 N   0  0  1  0  0  0  0  0  0  0  0  0
  190.3620  177.1470  146.0890 C   0  0  1  0  0  3  0  0  0  0  0  0
  189.8350  176.9020  147.4920 C   0  0  0  0  0  1  0  0  0  0  0  0
  191.9920  175.4650  145.5530 O   0  0  0  0  0  0  0  0  0  0  0  0
  191.8460  176.7680  146.0540 C   0  0  0  0  0  2  0  0  0  0  0  0
  191.7410  175.5500  144.1710 C   0  0  0  0  0  2  0  0  0  0  0  0
  189.8410  177.4650  139.8520 C   0  0  2  0  0  3  0  0  0  0  0  0
  189.4170  176.7690  138.5650 C   0  0  0  0  0  2  0  0  0  0  0  0
  189.4990  177.7290  137.3930 C   0  0  0  0  0  1  0  0  0  0  0  0
  191.1070  176.8280  140.4130 C   0  0  0  0  0  2  0  0  0  0  0  0
  192.1550  177.7500  140.4060 O   0  0  0  0  0  0  0  0  0  0  0  0
  193.0830  176.6240  138.5290 C   0  0  0  0  0  1  0  0  0  0  0  0
  193.2620  177.0150  139.9830 C   0  0  0  0  0  2  0  0  0  0  0  0
  2 18  1  0  0  0  0
  3 16  1  0  0  0  0
  5  9  1  1  0  0  0
  6  8  1  0  0  0  0
  6  3  2  0  0  0  0
  7  5  1  0  0  0  0
  7  3  1  0  0  0  0
  8  4  1  1  0  0  0
  8 19  1  0  0  0  0
 10 17  1  0  0  0  0
 10  7  2  0  0  0  0
 14 11  1  6  0  0  0
 14 10  1  0  0  0  0
 15  4  1  6  0  0  0
 15  8  1  0  0  0  0
 16 13  1  6  0  0  0
 16 12  1  0  0  0  0
 17  6  1  0  0  0  0
 18  5  1  0  0  0  0
 19 25  1  0  0  0  0
 19 23  1  1  0  0  0
 20 14  1  0  0  0  0
 20  2  1  0  0  0  0
 21 31  1  6  0  0  0
 21 15  1  0  0  0  0
 22  1  1  1  0  0  0
 22 21  1  0  0  0  0
 22 17  1  0  0  0  0
 23 12  1  0  0  0  0
 24 30  1  0  0  0  0
 25 24  1  6  0  0  0
 25 26  1  0  0  0  0
 26 27  1  1  0  0  0
 28 29  1  0  0  0  0
 29 26  1  0  0  0  0
 30 28  1  0  0  0  0
 31 32  1  6  0  0  0
 31 34  1  0  0  0  0
 33 32  1  0  0  0  0
 35 34  1  0  0  0  0
 36 37  1  0  0  0  0
 37 35  1  0  0  0  0
M  END
>  <MODEL>
9

>  <REMARK>
 VINA RESULT:      -6.3      2.461      8.497
  Name = 
  6 active torsions:
  status: ('A' for Active; 'I' for Inactive)
    1  A    between atoms: O_5  and  C_17
    2  A    between atoms: O_5  and  C_23
    3  A    between atoms: N_6  and  C_31
    4  A    between atoms: C_11  and  C_26
    5  A    between atoms: C_17  and  C_26
    6  A    between atoms: C_26  and  C_33
                            x       y       z     vdW  Elec       q    Type
                         _______ _______ _______ _____ _____    ______ ____

>  <TORSDO>
F 6

$$$$
