=
 OpenBabel10252415073D

 34 38  0  0  1  0  0  0  0  0999 V2000
  182.7150  178.6470  141.5650 C   0  0  0  0  0  0  0  0  0  0  0  0
  181.6310  178.8120  143.7250 C   0  0  0  0  0  3  0  0  0  0  0  0
  184.0930  178.7040  143.5810 C   0  0  0  0  0  0  0  0  0  0  0  0
  185.6060  178.5460  145.5920 N   0  0  0  0  0  0  0  0  0  0  0  0
  180.3010  178.7540  141.7030 C   0  0  0  0  0  3  0  0  0  0  0  0
  179.1440  178.9200  143.9100 C   0  0  0  0  0  1  0  0  0  0  0  0
  183.3760  179.1930  145.8120 O   0  0  0  0  0  0  0  0  0  0  0  0
  182.8140  178.7260  142.9730 C   0  0  0  0  0  0  0  0  0  0  0  0
  181.4650  178.6640  140.9390 C   0  0  0  0  0  3  0  0  0  0  0  0
  185.2320  178.5740  142.7530 C   0  0  0  0  0  0  0  0  0  0  0  0
  183.8720  178.5550  140.7970 C   0  0  0  0  0  3  0  0  0  0  0  0
  180.3830  178.8260  143.0960 C   0  0  0  0  0  0  0  0  0  0  0  0
  186.6340  177.9520  144.7440 C   0  0  0  0  0  2  0  0  0  0  0  0
  186.6210  178.6000  143.3600 C   0  0  1  0  0  3  0  0  0  0  0  0
  184.3050  178.8180  145.0490 C   0  0  0  0  0  0  0  0  0  0  0  0
  185.0870  178.5270  141.3990 N   0  0  0  0  0  0  0  0  0  0  0  0
  189.0640  177.9850  140.4990 C   0  0  0  0  0  0  0  0  0  0  0  0
  189.6100  176.7540  140.8760 C   0  0  0  0  0  3  0  0  0  0  0  0
  187.6590  177.9660  142.4800 C   0  0  0  0  0  0  0  0  0  0  0  0
  189.1830  176.1300  142.0510 C   0  0  0  0  0  3  0  0  0  0  0  0
  188.0900  178.5910  141.2990 C   0  0  0  0  0  3  0  0  0  0  0  0
  188.2100  176.7350  142.8520 C   0  0  0  0  0  3  0  0  0  0  0  0
  189.4770  178.5900  139.3610 F   0  0  0  0  0  0  0  0  0  0  0  0
  185.9220  178.8860  146.9750 C   0  0  0  0  0  2  0  0  0  0  0  0
  186.7940  177.8090  147.6100 C   0  0  0  0  0  2  0  0  0  0  0  0
  188.1710  178.3450  147.9700 C   0  0  0  0  0  2  0  0  0  0  0  0
  189.1820  177.2110  148.0450 C   0  0  0  0  0  2  0  0  0  0  0  0
  192.1900  176.7250  147.7870 N   0  0  0  0  0  1  0  0  0  0  0  0
  190.0380  177.2040  146.8680 N   0  0  0  0  0  0  0  0  0  0  0  0
  191.1870  176.2890  146.8300 C   0  0  1  0  0  3  0  0  0  0  0  0
  191.5600  177.1450  144.5270 C   0  0  0  0  0  3  0  0  0  0  0  0
  190.6090  178.2380  144.7790 C   0  0  0  0  0  3  0  0  0  0  0  0
  189.8850  178.2490  145.8970 C   0  0  0  0  0  3  0  0  0  0  0  0
  191.8070  176.2220  145.4590 C   0  0  0  0  0  3  0  0  0  0  0  0
  1  8  1  0  0  0  0
  3 15  1  0  0  0  0
  4 24  1  0  0  0  0
  5 12  2  0  0  0  0
  8  3  1  0  0  0  0
  8  2  2  0  0  0  0
  9  1  2  0  0  0  0
  9  5  1  0  0  0  0
 10 14  1  0  0  0  0
 10  3  2  0  0  0  0
 11 16  2  0  0  0  0
 11  1  1  0  0  0  0
 12  2  1  0  0  0  0
 12  6  1  0  0  0  0
 13  4  1  0  0  0  0
 14 19  1  6  0  0  0
 14 13  1  0  0  0  0
 15  4  1  0  0  0  0
 15  7  2  0  0  0  0
 16 10  1  0  0  0  0
 17 18  2  0  0  0  0
 17 21  1  0  0  0  0
 18 20  1  0  0  0  0
 19 22  1  0  0  0  0
 20 22  2  0  0  0  0
 21 19  2  0  0  0  0
 23 17  1  0  0  0  0
 24 25  1  0  0  0  0
 25 26  1  0  0  0  0
 26 27  1  0  0  0  0
 29 27  1  0  0  0  0
 30 29  1  0  0  0  0
 30 28  1  1  0  0  0
 31 32  1  0  0  0  0
 31 34  2  0  0  0  0
 32 33  2  0  0  0  0
 33 29  1  0  0  0  0
 34 30  1  0  0  0  0
M  END
>  <MODEL>
1

>  <REMARK>
 VINA RESULT:      -9.8      0.000      0.000
  Name = 
  6 active torsions:
  status: ('A' for Active; 'I' for Inactive)
    1  A    between atoms: C_3  and  N_13
    2  A    between atoms: C_3  and  C_17
    3  A    between atoms: N_5  and  C_18
    4  A    between atoms: C_12  and  C_28
    5  A    between atoms: C_17  and  C_29
    6  A    between atoms: C_18  and  C_29
                            x       y       z     vdW  Elec       q    Type
                         _______ _______ _______ _____ _____    ______ ____

>  <TORSDO>
F 6

$$$$
=
 OpenBabel10252415073D

 34 38  0  0  1  0  0  0  0  0999 V2000
  189.2030  177.5930  137.4080 C   0  0  0  0  0  0  0  0  0  0  0  0
  186.8630  177.9850  136.9200 C   0  0  0  0  0  3  0  0  0  0  0  0
  187.6970  178.1950  139.2340 C   0  0  0  0  0  0  0  0  0  0  0  0
  186.2060  178.6050  141.2260 N   0  0  0  0  0  0  0  0  0  0  0  0
  188.3880  177.3880  135.1380 C   0  0  0  0  0  3  0  0  0  0  0  0
  185.9830  177.7800  134.5940 C   0  0  0  0  0  1  0  0  0  0  0  0
  185.4380  178.9660  139.0540 O   0  0  0  0  0  0  0  0  0  0  0  0
  187.9060  177.9320  137.8590 C   0  0  0  0  0  0  0  0  0  0  0  0
  189.4380  177.3270  136.0560 C   0  0  0  0  0  3  0  0  0  0  0  0
  188.7940  178.0800  140.1190 C   0  0  0  0  0  0  0  0  0  0  0  0
  190.2530  177.5280  138.3180 C   0  0  0  0  0  3  0  0  0  0  0  0
  187.1010  177.7160  135.5690 C   0  0  0  0  0  0  0  0  0  0  0  0
  187.2300  178.0180  142.0840 C   0  0  0  0  0  2  0  0  0  0  0  0
  188.6230  178.4040  141.5900 C   0  0  1  0  0  3  0  0  0  0  0  0
  186.3800  178.5940  139.8010 C   0  0  0  0  0  0  0  0  0  0  0  0
  190.0300  177.7750  139.6330 N   0  0  0  0  0  0  0  0  0  0  0  0
  191.5410  177.9520  143.9990 C   0  0  0  0  0  0  0  0  0  0  0  0
  191.6120  176.5580  144.0730 C   0  0  0  0  0  3  0  0  0  0  0  0
  189.6750  177.7750  142.4560 C   0  0  0  0  0  0  0  0  0  0  0  0
  190.7170  175.7720  143.3420 C   0  0  0  0  0  3  0  0  0  0  0  0
  190.5760  178.5610  143.1930 C   0  0  0  0  0  3  0  0  0  0  0  0
  189.7500  176.3790  142.5360 C   0  0  0  0  0  3  0  0  0  0  0  0
  192.4090  178.7130  144.7080 F   0  0  0  0  0  0  0  0  0  0  0  0
  185.0300  179.2240  141.8280 C   0  0  0  0  0  2  0  0  0  0  0  0
  184.5670  178.4320  143.0450 C   0  0  0  0  0  2  0  0  0  0  0  0
  184.8970  179.1560  144.3420 C   0  0  0  0  0  2  0  0  0  0  0  0
  184.8380  178.1950  145.5190 C   0  0  0  0  0  2  0  0  0  0  0  0
  186.1350  180.0130  147.6080 N   0  0  0  0  0  1  0  0  0  0  0  0
  186.1330  178.1020  146.1750 N   0  0  0  0  0  0  0  0  0  0  0  0
  186.2630  178.5660  147.5630 C   0  0  1  0  0  3  0  0  0  0  0  0
  188.6130  177.7720  147.4180 C   0  0  0  0  0  3  0  0  0  0  0  0
  188.4790  177.6410  145.9600 C   0  0  0  0  0  3  0  0  0  0  0  0
  187.2890  177.7950  145.3820 C   0  0  0  0  0  3  0  0  0  0  0  0
  187.5820  178.1660  148.1700 C   0  0  0  0  0  3  0  0  0  0  0  0
  1  8  2  0  0  0  0
  1 11  1  0  0  0  0
  2  8  1  0  0  0  0
  3 15  1  0  0  0  0
  3 10  2  0  0  0  0
  4 24  1  0  0  0  0
  4 13  1  0  0  0  0
  5 12  1  0  0  0  0
  5  9  2  0  0  0  0
  6 12  1  0  0  0  0
  7 15  2  0  0  0  0
  8  3  1  0  0  0  0
  9  1  1  0  0  0  0
 10 14  1  0  0  0  0
 11 16  2  0  0  0  0
 12  2  2  0  0  0  0
 14 13  1  0  0  0  0
 14 19  1  1  0  0  0
 15  4  1  0  0  0  0
 16 10  1  0  0  0  0
 17 18  1  0  0  0  0
 17 23  1  0  0  0  0
 19 22  2  0  0  0  0
 19 21  1  0  0  0  0
 20 18  2  0  0  0  0
 21 17  2  0  0  0  0
 22 20  1  0  0  0  0
 24 25  1  0  0  0  0
 25 26  1  0  0  0  0
 26 27  1  0  0  0  0
 27 29  1  0  0  0  0
 29 30  1  0  0  0  0
 30 28  1  6  0  0  0
 30 34  1  0  0  0  0
 31 34  2  0  0  0  0
 32 31  1  0  0  0  0
 33 32  2  0  0  0  0
 33 29  1  0  0  0  0
M  END
>  <MODEL>
2

>  <REMARK>
 VINA RESULT:      -9.5      3.058      5.985
  Name = 
  6 active torsions:
  status: ('A' for Active; 'I' for Inactive)
    1  A    between atoms: C_3  and  N_13
    2  A    between atoms: C_3  and  C_17
    3  A    between atoms: N_5  and  C_18
    4  A    between atoms: C_12  and  C_28
    5  A    between atoms: C_17  and  C_29
    6  A    between atoms: C_18  and  C_29
                            x       y       z     vdW  Elec       q    Type
                         _______ _______ _______ _____ _____    ______ ____

>  <TORSDO>
F 6

$$$$
=
 OpenBabel10252415073D

 34 38  0  0  1  0  0  0  0  0999 V2000
  181.9590  179.1230  141.4960 C   0  0  0  0  0  0  0  0  0  0  0  0
  182.6680  179.5410  139.2180 C   0  0  0  0  0  3  0  0  0  0  0  0
  184.2970  178.7500  140.8960 C   0  0  0  0  0  0  0  0  0  0  0  0
  186.7690  178.5260  140.4490 N   0  0  0  0  0  0  0  0  0  0  0  0
  180.3600  179.8980  139.8530 C   0  0  0  0  0  3  0  0  0  0  0  0
  181.0510  180.3430  137.4950 C   0  0  0  0  0  1  0  0  0  0  0  0
  185.2440  178.7400  138.6970 O   0  0  0  0  0  0  0  0  0  0  0  0
  182.9860  179.1340  140.5240 C   0  0  0  0  0  0  0  0  0  0  0  0
  180.6560  179.5000  141.1580 C   0  0  0  0  0  3  0  0  0  0  0  0
  184.5400  178.3930  142.2430 C   0  0  0  0  0  0  0  0  0  0  0  0
  182.2480  178.7300  142.8000 C   0  0  0  0  0  3  0  0  0  0  0  0
  181.3650  179.9190  138.8830 C   0  0  0  0  0  0  0  0  0  0  0  0
  187.0150  178.6400  141.8830 C   0  0  0  0  0  2  0  0  0  0  0  0
  185.9170  177.9240  142.6690 C   0  0  1  0  0  3  0  0  0  0  0  0
  185.4360  178.6920  139.9410 C   0  0  0  0  0  0  0  0  0  0  0  0
  183.5120  178.3730  143.1370 N   0  0  0  0  0  0  0  0  0  0  0  0
  187.3490  177.4640  146.1710 C   0  0  0  0  0  0  0  0  0  0  0  0
  186.5800  178.3800  146.8950 C   0  0  0  0  0  3  0  0  0  0  0  0
  186.1570  178.0680  144.1440 C   0  0  0  0  0  0  0  0  0  0  0  0
  185.6020  179.1390  146.2470 C   0  0  0  0  0  3  0  0  0  0  0  0
  187.1390  177.3070  144.7980 C   0  0  0  0  0  3  0  0  0  0  0  0
  185.3910  178.9840  144.8750 C   0  0  0  0  0  3  0  0  0  0  0  0
  188.2970  176.7290  146.7990 F   0  0  0  0  0  0  0  0  0  0  0  0
  187.8750  178.2150  139.5510 C   0  0  0  0  0  2  0  0  0  0  0  0
  188.9160  177.3530  140.2550 C   0  0  0  0  0  2  0  0  0  0  0  0
  190.2490  178.0750  140.3820 C   0  0  0  0  0  2  0  0  0  0  0  0
  191.2790  177.1800  141.0530 C   0  0  0  0  0  2  0  0  0  0  0  0
  190.2660  175.1220  143.0760 N   0  0  0  0  0  1  0  0  0  0  0  0
  191.1660  177.2590  142.5020 N   0  0  0  0  0  0  0  0  0  0  0  0
  191.3690  176.0420  143.2990 C   0  0  1  0  0  3  0  0  0  0  0  0
  191.0680  177.5080  145.2820 C   0  0  0  0  0  3  0  0  0  0  0  0
  190.5640  178.5810  144.4130 C   0  0  0  0  0  3  0  0  0  0  0  0
  190.6230  178.4510  143.0880 C   0  0  0  0  0  3  0  0  0  0  0  0
  191.4730  176.3440  144.7710 C   0  0  0  0  0  3  0  0  0  0  0  0
  1 11  1  0  0  0  0
  2  8  1  0  0  0  0
  3 10  2  0  0  0  0
  4 13  1  0  0  0  0
  5  9  2  0  0  0  0
  6 12  1  0  0  0  0
  7 15  2  0  0  0  0
  8  3  1  0  0  0  0
  8  1  2  0  0  0  0
  9  1  1  0  0  0  0
 10 14  1  0  0  0  0
 10 16  1  0  0  0  0
 11 16  2  0  0  0  0
 12  2  2  0  0  0  0
 12  5  1  0  0  0  0
 13 14  1  0  0  0  0
 14 19  1  1  0  0  0
 15  4  1  0  0  0  0
 15  3  1  0  0  0  0
 17 23  1  0  0  0  0
 17 18  1  0  0  0  0
 19 21  1  0  0  0  0
 19 22  2  0  0  0  0
 20 18  2  0  0  0  0
 21 17  2  0  0  0  0
 22 20  1  0  0  0  0
 24 25  1  0  0  0  0
 24  4  1  0  0  0  0
 25 26  1  0  0  0  0
 26 27  1  0  0  0  0
 27 29  1  0  0  0  0
 29 33  1  0  0  0  0
 29 30  1  0  0  0  0
 30 28  1  1  0  0  0
 30 34  1  0  0  0  0
 32 31  1  0  0  0  0
 33 32  2  0  0  0  0
 34 31  2  0  0  0  0
M  END
>  <MODEL>
3

>  <REMARK>
 VINA RESULT:      -9.0      2.625      4.749
  Name = 
  6 active torsions:
  status: ('A' for Active; 'I' for Inactive)
    1  A    between atoms: C_3  and  N_13
    2  A    between atoms: C_3  and  C_17
    3  A    between atoms: N_5  and  C_18
    4  A    between atoms: C_12  and  C_28
    5  A    between atoms: C_17  and  C_29
    6  A    between atoms: C_18  and  C_29
                            x       y       z     vdW  Elec       q    Type
                         _______ _______ _______ _____ _____    ______ ____

>  <TORSDO>
F 6

$$$$
=
 OpenBabel10252415073D

 34 38  0  0  1  0  0  0  0  0999 V2000
  185.8520  177.9540  143.4440 C   0  0  0  0  0  0  0  0  0  0  0  0
  186.1470  178.6410  141.1410 C   0  0  0  0  0  3  0  0  0  0  0  0
  188.0580  177.7420  142.4180 C   0  0  0  0  0  0  0  0  0  0  0  0
  190.4190  177.6680  141.5360 N   0  0  0  0  0  0  0  0  0  0  0  0
  183.9760  178.8350  142.1940 C   0  0  0  0  0  3  0  0  0  0  0  0
  184.2390  179.5580  139.8190 C   0  0  0  0  0  1  0  0  0  0  0  0
  188.6100  178.0070  140.1040 O   0  0  0  0  0  0  0  0  0  0  0  0
  186.6950  178.1100  142.3200 C   0  0  0  0  0  0  0  0  0  0  0  0
  184.5020  178.3120  143.3760 C   0  0  0  0  0  3  0  0  0  0  0  0
  188.5380  177.2530  143.6550 C   0  0  0  0  0  0  0  0  0  0  0  0
  186.3710  177.4350  144.6270 C   0  0  0  0  0  3  0  0  0  0  0  0
  184.7980  179.0010  141.0770 C   0  0  0  0  0  0  0  0  0  0  0  0
  190.9070  177.6370  142.9110 C   0  0  0  0  0  2  0  0  0  0  0  0
  189.9780  176.7970  143.7860 C   0  0  1  0  0  3  0  0  0  0  0  0
  189.0160  177.8330  141.2830 C   0  0  0  0  0  0  0  0  0  0  0  0
  187.6820  177.0950  144.7030 N   0  0  0  0  0  0  0  0  0  0  0  0
  190.2790  177.5050  147.5190 C   0  0  0  0  0  0  0  0  0  0  0  0
  191.4030  176.7400  147.8450 C   0  0  0  0  0  3  0  0  0  0  0  0
  190.4660  176.7910  145.2060 C   0  0  0  0  0  0  0  0  0  0  0  0
  192.0580  176.0020  146.8560 C   0  0  0  0  0  3  0  0  0  0  0  0
  189.8100  177.5320  146.2020 C   0  0  0  0  0  3  0  0  0  0  0  0
  191.5900  176.0270  145.5390 C   0  0  0  0  0  3  0  0  0  0  0  0
  189.6440  178.2200  148.4780 F   0  0  0  0  0  0  0  0  0  0  0  0
  191.3600  177.5000  140.4340 C   0  0  0  0  0  2  0  0  0  0  0  0
  190.8640  176.4420  139.4560 C   0  0  0  0  0  2  0  0  0  0  0  0
  191.3270  176.7300  138.0360 C   0  0  0  0  0  2  0  0  0  0  0  0
  190.3630  176.1250  137.0280 C   0  0  0  0  0  2  0  0  0  0  0  0
  187.6190  175.2740  135.9790 N   0  0  0  0  0  1  0  0  0  0  0  0
  189.0880  176.8260  137.0480 N   0  0  0  0  0  0  0  0  0  0  0  0
  187.8500  176.0460  137.1890 C   0  0  1  0  0  3  0  0  0  0  0  0
  186.6860  178.2410  137.2140 C   0  0  0  0  0  3  0  0  0  0  0  0
  187.9170  178.9000  136.7550 C   0  0  0  0  0  3  0  0  0  0  0  0
  189.0560  178.2140  136.6870 C   0  0  0  0  0  3  0  0  0  0  0  0
  186.6560  176.9270  137.4490 C   0  0  0  0  0  3  0  0  0  0  0  0
  1 11  1  0  0  0  0
  2  8  1  0  0  0  0
  3 10  2  0  0  0  0
  4 13  1  0  0  0  0
  5  9  2  0  0  0  0
  6 12  1  0  0  0  0
  7 15  2  0  0  0  0
  8  3  1  0  0  0  0
  8  1  2  0  0  0  0
  9  1  1  0  0  0  0
 10 14  1  0  0  0  0
 10 16  1  0  0  0  0
 11 16  2  0  0  0  0
 12  2  2  0  0  0  0
 12  5  1  0  0  0  0
 13 14  1  0  0  0  0
 14 19  1  1  0  0  0
 15  4  1  0  0  0  0
 15  3  1  0  0  0  0
 17 18  1  0  0  0  0
 17 23  1  0  0  0  0
 19 22  2  0  0  0  0
 19 21  1  0  0  0  0
 20 18  2  0  0  0  0
 21 17  2  0  0  0  0
 22 20  1  0  0  0  0
 24  4  1  0  0  0  0
 25 24  1  0  0  0  0
 26 25  1  0  0  0  0
 27 29  1  0  0  0  0
 27 26  1  0  0  0  0
 29 30  1  0  0  0  0
 30 28  1  6  0  0  0
 30 34  1  0  0  0  0
 31 34  2  0  0  0  0
 32 31  1  0  0  0  0
 33 32  2  0  0  0  0
 33 29  1  0  0  0  0
M  END
>  <MODEL>
4

>  <REMARK>
 VINA RESULT:      -9.0      3.450      7.212
  Name = 
  6 active torsions:
  status: ('A' for Active; 'I' for Inactive)
    1  A    between atoms: C_3  and  N_13
    2  A    between atoms: C_3  and  C_17
    3  A    between atoms: N_5  and  C_18
    4  A    between atoms: C_12  and  C_28
    5  A    between atoms: C_17  and  C_29
    6  A    between atoms: C_18  and  C_29
                            x       y       z     vdW  Elec       q    Type
                         _______ _______ _______ _____ _____    ______ ____

>  <TORSDO>
F 6

$$$$
=
 OpenBabel10252415073D

 34 38  0  0  1  0  0  0  0  0999 V2000
  185.6770  178.1940  144.5420 C   0  0  0  0  0  0  0  0  0  0  0  0
  188.0500  177.7160  144.4390 C   0  0  0  0  0  3  0  0  0  0  0  0
  186.8150  178.3030  142.3840 C   0  0  0  0  0  0  0  0  0  0  0  0
  187.8330  178.2460  140.0770 N   0  0  0  0  0  0  0  0  0  0  0  0
  186.8850  177.6200  146.5590 C   0  0  0  0  0  3  0  0  0  0  0  0
  189.3300  177.1180  146.4960 C   0  0  0  0  0  1  0  0  0  0  0  0
  189.1740  178.2210  141.9850 O   0  0  0  0  0  0  0  0  0  0  0  0
  186.8620  178.0740  143.7800 C   0  0  0  0  0  0  0  0  0  0  0  0
  185.6940  177.9710  145.9220 C   0  0  0  0  0  3  0  0  0  0  0  0
  185.5700  178.6190  141.7920 C   0  0  0  0  0  0  0  0  0  0  0  0
  184.4860  178.5410  143.9120 C   0  0  0  0  0  3  0  0  0  0  0  0
  188.0620  177.4920  145.8190 C   0  0  0  0  0  0  0  0  0  0  0  0
  186.4950  178.0930  139.5150 C   0  0  0  0  0  2  0  0  0  0  0  0
  185.4870  178.9240  140.3090 C   0  0  1  0  0  3  0  0  0  0  0  0
  188.0120  178.2370  141.5010 C   0  0  0  0  0  0  0  0  0  0  0  0
  184.4600  178.7490  142.5720 N   0  0  0  0  0  0  0  0  0  0  0  0
  182.1170  177.3940  139.3970 C   0  0  0  0  0  0  0  0  0  0  0  0
  181.5270  178.4510  138.6960 C   0  0  0  0  0  3  0  0  0  0  0  0
  184.1070  178.7420  139.7480 C   0  0  0  0  0  0  0  0  0  0  0  0
  182.2230  179.6500  138.5210 C   0  0  0  0  0  3  0  0  0  0  0  0
  183.4050  177.5380  139.9220 C   0  0  0  0  0  3  0  0  0  0  0  0
  183.5100  179.7950  139.0460 C   0  0  0  0  0  3  0  0  0  0  0  0
  181.4430  176.2330  139.5660 F   0  0  0  0  0  0  0  0  0  0  0  0
  188.9710  178.4350  139.1840 C   0  0  0  0  0  2  0  0  0  0  0  0
  189.5490  177.0930  138.7540 C   0  0  0  0  0  2  0  0  0  0  0  0
  189.5090  176.9240  137.2430 C   0  0  0  0  0  2  0  0  0  0  0  0
  188.7320  175.6720  136.8670 C   0  0  0  0  0  2  0  0  0  0  0  0
  186.3990  173.8550  136.0870 N   0  0  0  0  0  1  0  0  0  0  0  0
  187.3150  175.9680  136.7220 N   0  0  0  0  0  0  0  0  0  0  0  0
  186.3330  174.9300  137.0630 C   0  0  1  0  0  3  0  0  0  0  0  0
  184.6100  176.6460  136.5490 C   0  0  0  0  0  3  0  0  0  0  0  0
  185.6390  177.4930  135.9290 C   0  0  0  0  0  3  0  0  0  0  0  0
  186.9250  177.1600  136.0250 C   0  0  0  0  0  3  0  0  0  0  0  0
  184.9290  175.4750  137.1050 C   0  0  0  0  0  3  0  0  0  0  0  0
  1  9  2  0  0  0  0
  2 12  1  0  0  0  0
  3  8  1  0  0  0  0
  4 15  1  0  0  0  0
  8  2  2  0  0  0  0
  8  1  1  0  0  0  0
  9  5  1  0  0  0  0
 10  3  2  0  0  0  0
 10 16  1  0  0  0  0
 11  1  1  0  0  0  0
 12  6  1  0  0  0  0
 12  5  2  0  0  0  0
 13  4  1  0  0  0  0
 13 14  1  0  0  0  0
 14 19  1  6  0  0  0
 14 10  1  0  0  0  0
 15  7  2  0  0  0  0
 15  3  1  0  0  0  0
 16 11  2  0  0  0  0
 17 23  1  0  0  0  0
 17 21  1  0  0  0  0
 18 17  2  0  0  0  0
 19 21  2  0  0  0  0
 20 18  1  0  0  0  0
 20 22  2  0  0  0  0
 22 19  1  0  0  0  0
 24  4  1  0  0  0  0
 25 24  1  0  0  0  0
 26 25  1  0  0  0  0
 27 26  1  0  0  0  0
 29 27  1  0  0  0  0
 29 30  1  0  0  0  0
 30 28  1  6  0  0  0
 30 34  1  0  0  0  0
 31 34  2  0  0  0  0
 32 33  2  0  0  0  0
 32 31  1  0  0  0  0
 33 29  1  0  0  0  0
M  END
>  <MODEL>
5

>  <REMARK>
 VINA RESULT:      -8.9      3.549      7.963
  Name = 
  6 active torsions:
  status: ('A' for Active; 'I' for Inactive)
    1  A    between atoms: C_3  and  N_13
    2  A    between atoms: C_3  and  C_17
    3  A    between atoms: N_5  and  C_18
    4  A    between atoms: C_12  and  C_28
    5  A    between atoms: C_17  and  C_29
    6  A    between atoms: C_18  and  C_29
                            x       y       z     vdW  Elec       q    Type
                         _______ _______ _______ _____ _____    ______ ____

>  <TORSDO>
F 6

$$$$
=
 OpenBabel10252415073D

 34 38  0  0  1  0  0  0  0  0999 V2000
  184.2320  178.6900  144.2610 C   0  0  0  0  0  0  0  0  0  0  0  0
  186.5930  178.2280  144.5360 C   0  0  0  0  0  3  0  0  0  0  0  0
  185.6680  178.6480  142.2870 C   0  0  0  0  0  0  0  0  0  0  0  0
  187.0080  178.4290  140.1610 N   0  0  0  0  0  0  0  0  0  0  0  0
  185.1360  178.2800  146.4680 C   0  0  0  0  0  3  0  0  0  0  0  0
  187.5640  177.7960  146.7940 C   0  0  0  0  0  1  0  0  0  0  0  0
  188.0600  178.5590  142.2370 O   0  0  0  0  0  0  0  0  0  0  0  0
  185.5140  178.5240  143.6880 C   0  0  0  0  0  0  0  0  0  0  0  0
  184.0490  178.5700  145.6420 C   0  0  0  0  0  3  0  0  0  0  0  0
  184.5220  178.9070  141.5000 C   0  0  0  0  0  0  0  0  0  0  0  0
  183.1440  178.9780  143.4420 C   0  0  0  0  0  3  0  0  0  0  0  0
  186.4070  178.1070  145.9160 C   0  0  0  0  0  0  0  0  0  0  0  0
  185.7640  178.2220  139.4260 C   0  0  0  0  0  2  0  0  0  0  0  0
  184.6530  179.1000  140.0020 C   0  0  1  0  0  3  0  0  0  0  0  0
  186.9790  178.5280  141.5920 C   0  0  0  0  0  0  0  0  0  0  0  0
  183.3120  179.0850  142.1000 N   0  0  0  0  0  0  0  0  0  0  0  0
  181.4450  179.6860  138.0300 C   0  0  0  0  0  0  0  0  0  0  0  0
  180.9820  178.3750  137.8800 C   0  0  0  0  0  3  0  0  0  0  0  0
  183.3680  178.8640  139.2640 C   0  0  0  0  0  0  0  0  0  0  0  0
  181.7090  177.3100  138.4190 C   0  0  0  0  0  3  0  0  0  0  0  0
  182.6350  179.9320  138.7210 C   0  0  0  0  0  3  0  0  0  0  0  0
  182.9000  177.5540  139.1090 C   0  0  0  0  0  3  0  0  0  0  0  0
  180.7400  180.7170  137.5080 F   0  0  0  0  0  0  0  0  0  0  0  0
  188.2620  178.5620  139.4290 C   0  0  0  0  0  2  0  0  0  0  0  0
  189.0690  177.2700  139.5000 C   0  0  0  0  0  2  0  0  0  0  0  0
  190.5110  177.5330  139.9030 C   0  0  0  0  0  2  0  0  0  0  0  0
  191.0170  176.4320  140.8220 C   0  0  0  0  0  2  0  0  0  0  0  0
  189.1050  175.8090  143.1270 N   0  0  0  0  0  1  0  0  0  0  0  0
  191.0310  176.8810  142.2060 N   0  0  0  0  0  0  0  0  0  0  0  0
  190.5430  175.9740  143.2540 C   0  0  1  0  0  3  0  0  0  0  0  0
  191.2110  177.7540  144.8530 C   0  0  0  0  0  3  0  0  0  0  0  0
  191.3670  178.6980  143.7380 C   0  0  0  0  0  3  0  0  0  0  0  0
  191.2850  178.2660  142.4810 C   0  0  0  0  0  3  0  0  0  0  0  0
  190.8630  176.4840  144.6350 C   0  0  0  0  0  3  0  0  0  0  0  0
  1  9  2  0  0  0  0
  2 12  1  0  0  0  0
  3  8  1  0  0  0  0
  4 15  1  0  0  0  0
  8  1  1  0  0  0  0
  8  2  2  0  0  0  0
  9  5  1  0  0  0  0
 10 16  1  0  0  0  0
 10  3  2  0  0  0  0
 11  1  1  0  0  0  0
 12  5  2  0  0  0  0
 12  6  1  0  0  0  0
 13 14  1  0  0  0  0
 13  4  1  0  0  0  0
 14 19  1  6  0  0  0
 14 10  1  0  0  0  0
 15  7  2  0  0  0  0
 15  3  1  0  0  0  0
 16 11  2  0  0  0  0
 17 21  1  0  0  0  0
 18 17  2  0  0  0  0
 18 20  1  0  0  0  0
 20 22  2  0  0  0  0
 21 19  2  0  0  0  0
 22 19  1  0  0  0  0
 23 17  1  0  0  0  0
 24 25  1  0  0  0  0
 24  4  1  0  0  0  0
 25 26  1  0  0  0  0
 26 27  1  0  0  0  0
 27 29  1  0  0  0  0
 29 33  1  0  0  0  0
 29 30  1  0  0  0  0
 30 28  1  1  0  0  0
 30 34  1  0  0  0  0
 32 31  1  0  0  0  0
 33 32  2  0  0  0  0
 34 31  2  0  0  0  0
M  END
>  <MODEL>
6

>  <REMARK>
 VINA RESULT:      -8.9      2.857      5.834
  Name = 
  6 active torsions:
  status: ('A' for Active; 'I' for Inactive)
    1  A    between atoms: C_3  and  N_13
    2  A    between atoms: C_3  and  C_17
    3  A    between atoms: N_5  and  C_18
    4  A    between atoms: C_12  and  C_28
    5  A    between atoms: C_17  and  C_29
    6  A    between atoms: C_18  and  C_29
                            x       y       z     vdW  Elec       q    Type
                         _______ _______ _______ _____ _____    ______ ____

>  <TORSDO>
F 6

$$$$
=
 OpenBabel10252415073D

 34 38  0  0  1  0  0  0  0  0999 V2000
  190.8670  177.1460  140.2150 C   0  0  0  0  0  0  0  0  0  0  0  0
  188.9270  177.5210  138.8130 C   0  0  0  0  0  3  0  0  0  0  0  0
  188.7720  177.8530  141.2540 C   0  0  0  0  0  0  0  0  0  0  0  0
  186.6200  178.3780  142.4590 N   0  0  0  0  0  0  0  0  0  0  0  0
  191.0220  176.8210  137.8220 C   0  0  0  0  0  3  0  0  0  0  0  0
  189.0460  177.1930  136.3410 C   0  0  0  0  0  1  0  0  0  0  0  0
  186.7940  178.6230  140.1460 O   0  0  0  0  0  0  0  0  0  0  0  0
  189.5070  177.5150  140.0920 C   0  0  0  0  0  0  0  0  0  0  0  0
  191.6150  176.8050  139.0850 C   0  0  0  0  0  3  0  0  0  0  0  0
  189.4210  177.7820  142.5080 C   0  0  0  0  0  0  0  0  0  0  0  0
  191.4630  177.1260  141.4720 C   0  0  0  0  0  3  0  0  0  0  0  0
  189.6790  177.1770  137.6850 C   0  0  0  0  0  0  0  0  0  0  0  0
  187.2000  177.8350  143.6830 C   0  0  0  0  0  2  0  0  0  0  0  0
  188.6850  178.1870  143.7700 C   0  0  1  0  0  3  0  0  0  0  0  0
  187.3490  178.2890  141.2260 C   0  0  0  0  0  0  0  0  0  0  0  0
  190.7400  177.4460  142.5740 N   0  0  0  0  0  0  0  0  0  0  0  0
  191.1520  176.6070  146.2080 C   0  0  0  0  0  0  0  0  0  0  0  0
  190.3700  176.5290  147.3650 C   0  0  0  0  0  3  0  0  0  0  0  0
  189.2850  177.6010  145.0150 C   0  0  0  0  0  0  0  0  0  0  0  0
  189.0490  176.9850  147.3480 C   0  0  0  0  0  3  0  0  0  0  0  0
  190.6120  177.1420  145.0350 C   0  0  0  0  0  3  0  0  0  0  0  0
  188.5080  177.5210  146.1760 C   0  0  0  0  0  3  0  0  0  0  0  0
  192.4310  176.1650  146.2250 F   0  0  0  0  0  0  0  0  0  0  0  0
  185.3180  179.0340  142.5090 C   0  0  0  0  0  2  0  0  0  0  0  0
  184.4580  178.4420  143.6190 C   0  0  0  0  0  2  0  0  0  0  0  0
  183.3230  179.3780  144.0080 C   0  0  0  0  0  2  0  0  0  0  0  0
  181.9900  178.6470  143.9630 C   0  0  0  0  0  2  0  0  0  0  0  0
  178.9490  178.8950  143.7560 N   0  0  0  0  0  1  0  0  0  0  0  0
  181.1570  179.1600  142.8850 N   0  0  0  0  0  0  0  0  0  0  0  0
  179.9050  179.8500  143.2200 C   0  0  1  0  0  3  0  0  0  0  0  0
  179.6740  180.2350  140.7760 C   0  0  0  0  0  3  0  0  0  0  0  0
  180.7490  179.2650  140.5220 C   0  0  0  0  0  3  0  0  0  0  0  0
  181.4520  178.7660  141.5370 C   0  0  0  0  0  3  0  0  0  0  0  0
  179.3010  180.5360  142.0220 C   0  0  0  0  0  3  0  0  0  0  0  0
  1 11  1  0  0  0  0
  2  8  1  0  0  0  0
  3 10  2  0  0  0  0
  4 24  1  0  0  0  0
  4 13  1  0  0  0  0
  5  9  2  0  0  0  0
  6 12  1  0  0  0  0
  7 15  2  0  0  0  0
  8  1  2  0  0  0  0
  8  3  1  0  0  0  0
  9  1  1  0  0  0  0
 10 16  1  0  0  0  0
 10 14  1  0  0  0  0
 11 16  2  0  0  0  0
 12  5  1  0  0  0  0
 12  2  2  0  0  0  0
 13 14  1  0  0  0  0
 14 19  1  1  0  0  0
 15  3  1  0  0  0  0
 15  4  1  0  0  0  0
 17 23  1  0  0  0  0
 17 18  1  0  0  0  0
 19 21  1  0  0  0  0
 19 22  2  0  0  0  0
 20 18  2  0  0  0  0
 21 17  2  0  0  0  0
 22 20  1  0  0  0  0
 24 25  1  0  0  0  0
 25 26  1  0  0  0  0
 27 26  1  0  0  0  0
 29 30  1  0  0  0  0
 29 27  1  0  0  0  0
 30 28  1  6  0  0  0
 31 34  2  0  0  0  0
 32 31  1  0  0  0  0
 32 33  2  0  0  0  0
 33 29  1  0  0  0  0
 34 30  1  0  0  0  0
M  END
>  <MODEL>
7

>  <REMARK>
 VINA RESULT:      -8.8      2.830      8.270
  Name = 
  6 active torsions:
  status: ('A' for Active; 'I' for Inactive)
    1  A    between atoms: C_3  and  N_13
    2  A    between atoms: C_3  and  C_17
    3  A    between atoms: N_5  and  C_18
    4  A    between atoms: C_12  and  C_28
    5  A    between atoms: C_17  and  C_29
    6  A    between atoms: C_18  and  C_29
                            x       y       z     vdW  Elec       q    Type
                         _______ _______ _______ _____ _____    ______ ____

>  <TORSDO>
F 6

$$$$
=
 OpenBabel10252415073D

 34 38  0  0  1  0  0  0  0  0999 V2000
  190.0270  176.9860  145.0840 C   0  0  0  0  0  0  0  0  0  0  0  0
  188.1500  177.7640  146.4020 C   0  0  0  0  0  3  0  0  0  0  0  0
  187.9560  177.6020  143.9460 C   0  0  0  0  0  0  0  0  0  0  0  0
  185.9470  178.4010  142.6470 N   0  0  0  0  0  0  0  0  0  0  0  0
  190.2200  177.1440  147.4910 C   0  0  0  0  0  3  0  0  0  0  0  0
  188.3100  177.9440  148.8860 C   0  0  0  0  0  1  0  0  0  0  0  0
  185.8370  178.0790  144.9540 O   0  0  0  0  0  0  0  0  0  0  0  0
  188.6940  177.4530  145.1450 C   0  0  0  0  0  0  0  0  0  0  0  0
  190.7800  176.8320  146.2510 C   0  0  0  0  0  3  0  0  0  0  0  0
  188.5920  177.3040  142.7190 C   0  0  0  0  0  0  0  0  0  0  0  0
  190.5920  176.6760  143.8500 C   0  0  0  0  0  3  0  0  0  0  0  0
  188.9060  177.6110  147.5670 C   0  0  0  0  0  0  0  0  0  0  0  0
  186.7930  178.5310  141.4650 C   0  0  0  0  0  2  0  0  0  0  0  0
  187.8200  177.4000  141.4180 C   0  0  1  0  0  3  0  0  0  0  0  0
  186.5370  178.0500  143.9070 C   0  0  0  0  0  0  0  0  0  0  0  0
  189.8710  176.8330  142.7130 N   0  0  0  0  0  0  0  0  0  0  0  0
  189.2780  178.6410  138.1220 C   0  0  0  0  0  0  0  0  0  0  0  0
  190.4000  177.8150  138.0000 C   0  0  0  0  0  3  0  0  0  0  0  0
  188.7080  177.5530  140.2170 C   0  0  0  0  0  0  0  0  0  0  0  0
  190.6770  176.8610  138.9830 C   0  0  0  0  0  3  0  0  0  0  0  0
  188.4320  178.5110  139.2280 C   0  0  0  0  0  3  0  0  0  0  0  0
  189.8330  176.7310  140.0890 C   0  0  0  0  0  3  0  0  0  0  0  0
  189.0100  179.5650  137.1700 F   0  0  0  0  0  0  0  0  0  0  0  0
  184.5070  178.6000  142.5270 C   0  0  0  0  0  2  0  0  0  0  0  0
  184.0850  178.6180  141.0620 C   0  0  0  0  0  2  0  0  0  0  0  0
  183.0650  177.5310  140.7600 C   0  0  0  0  0  2  0  0  0  0  0  0
  181.9290  178.0860  139.9150 C   0  0  0  0  0  2  0  0  0  0  0  0
  179.6110  177.2050  141.7050 N   0  0  0  0  0  1  0  0  0  0  0  0
  181.0160  178.8730  140.7310 N   0  0  0  0  0  0  0  0  0  0  0  0
  180.5180  178.3050  141.9900 C   0  0  1  0  0  3  0  0  0  0  0  0
  179.3750  180.4880  142.3120 C   0  0  0  0  0  3  0  0  0  0  0  0
  179.6520  180.8390  140.9120 C   0  0  0  0  0  3  0  0  0  0  0  0
  180.4410  180.0630  140.1720 C   0  0  0  0  0  3  0  0  0  0  0  0
  179.8020  179.3330  142.8270 C   0  0  0  0  0  3  0  0  0  0  0  0
  1  8  1  0  0  0  0
  1  9  2  0  0  0  0
  2 12  1  0  0  0  0
  3  8  1  0  0  0  0
  4 15  1  0  0  0  0
  5 12  2  0  0  0  0
  8  2  2  0  0  0  0
  9  5  1  0  0  0  0
 10  3  2  0  0  0  0
 11  1  1  0  0  0  0
 12  6  1  0  0  0  0
 13  4  1  0  0  0  0
 14 19  1  6  0  0  0
 14 13  1  0  0  0  0
 14 10  1  0  0  0  0
 15  3  1  0  0  0  0
 15  7  2  0  0  0  0
 16 10  1  0  0  0  0
 16 11  2  0  0  0  0
 17 21  1  0  0  0  0
 18 17  2  0  0  0  0
 18 20  1  0  0  0  0
 20 22  2  0  0  0  0
 21 19  2  0  0  0  0
 22 19  1  0  0  0  0
 23 17  1  0  0  0  0
 24  4  1  0  0  0  0
 25 24  1  0  0  0  0
 26 25  1  0  0  0  0
 27 29  1  0  0  0  0
 27 26  1  0  0  0  0
 29 30  1  0  0  0  0
 30 28  1  6  0  0  0
 30 34  1  0  0  0  0
 31 34  2  0  0  0  0
 32 31  1  0  0  0  0
 33 29  1  0  0  0  0
 33 32  2  0  0  0  0
M  END
>  <MODEL>
8

>  <REMARK>
 VINA RESULT:      -8.6      2.045      7.953
  Name = 
  6 active torsions:
  status: ('A' for Active; 'I' for Inactive)
    1  A    between atoms: C_3  and  N_13
    2  A    between atoms: C_3  and  C_17
    3  A    between atoms: N_5  and  C_18
    4  A    between atoms: C_12  and  C_28
    5  A    between atoms: C_17  and  C_29
    6  A    between atoms: C_18  and  C_29
                            x       y       z     vdW  Elec       q    Type
                         _______ _______ _______ _____ _____    ______ ____

>  <TORSDO>
F 6

$$$$
=
 OpenBabel10252415073D

 34 38  0  0  1  0  0  0  0  0999 V2000
  191.2250  177.1210  140.1460 C   0  0  0  0  0  0  0  0  0  0  0  0
  189.3710  177.4660  138.6260 C   0  0  0  0  0  3  0  0  0  0  0  0
  189.0830  177.8790  141.0420 C   0  0  0  0  0  0  0  0  0  0  0  0
  186.8720  178.4610  142.1080 N   0  0  0  0  0  0  0  0  0  0  0  0
  191.5100  176.7160  137.7770 C   0  0  0  0  0  3  0  0  0  0  0  0
  189.6240  177.0550  136.1770 C   0  0  0  0  0  1  0  0  0  0  0  0
  187.1780  178.6280  139.8020 O   0  0  0  0  0  0  0  0  0  0  0  0
  189.8780  177.4970  139.9350 C   0  0  0  0  0  0  0  0  0  0  0  0
  192.0320  176.7370  139.0720 C   0  0  0  0  0  3  0  0  0  0  0  0
  189.6600  177.8440  142.3330 C   0  0  0  0  0  0  0  0  0  0  0  0
  191.7510  177.1380  141.4350 C   0  0  0  0  0  3  0  0  0  0  0  0
  190.1800  177.0790  137.5540 C   0  0  0  0  0  0  0  0  0  0  0  0
  187.3780  177.9540  143.3790 C   0  0  0  0  0  2  0  0  0  0  0  0
  188.8590  178.2960  143.5380 C   0  0  1  0  0  3  0  0  0  0  0  0
  187.6680  178.3250  140.9210 C   0  0  0  0  0  0  0  0  0  0  0  0
  190.9700  177.5000  142.4830 N   0  0  0  0  0  0  0  0  0  0  0  0
  189.0350  176.9720  147.1070 C   0  0  0  0  0  0  0  0  0  0  0  0
  190.4030  176.7070  147.2260 C   0  0  0  0  0  3  0  0  0  0  0  0
  189.3830  177.7470  144.8330 C   0  0  0  0  0  0  0  0  0  0  0  0
  191.2600  176.9610  146.1510 C   0  0  0  0  0  3  0  0  0  0  0  0
  188.5240  177.4910  145.9140 C   0  0  0  0  0  3  0  0  0  0  0  0
  190.7510  177.4790  144.9570 C   0  0  0  0  0  3  0  0  0  0  0  0
  188.2050  176.7260  148.1480 F   0  0  0  0  0  0  0  0  0  0  0  0
  185.5760  179.1290  142.0630 C   0  0  0  0  0  2  0  0  0  0  0  0
  184.6140  178.5070  143.0690 C   0  0  0  0  0  2  0  0  0  0  0  0
  183.2210  178.3400  142.4810 C   0  0  0  0  0  2  0  0  0  0  0  0
  183.3050  177.9060  141.0260 C   0  0  0  0  0  2  0  0  0  0  0  0
  184.1170  180.1330  139.0940 N   0  0  0  0  0  1  0  0  0  0  0  0
  182.4880  178.7660  140.1840 N   0  0  0  0  0  0  0  0  0  0  0  0
  183.0200  179.2020  138.8850 C   0  0  1  0  0  3  0  0  0  0  0  0
  180.8180  180.3060  138.5590 C   0  0  0  0  0  3  0  0  0  0  0  0
  180.5050  180.1020  139.9800 C   0  0  0  0  0  3  0  0  0  0  0  0
  181.3070  179.3600  140.7410 C   0  0  0  0  0  3  0  0  0  0  0  0
  181.9650  179.8630  138.0380 C   0  0  0  0  0  3  0  0  0  0  0  0
  1 11  1  0  0  0  0
  2  8  1  0  0  0  0
  3 10  2  0  0  0  0
  4 13  1  0  0  0  0
  5  9  2  0  0  0  0
  6 12  1  0  0  0  0
  7 15  2  0  0  0  0
  8  1  2  0  0  0  0
  8  3  1  0  0  0  0
  9  1  1  0  0  0  0
 10 16  1  0  0  0  0
 10 14  1  0  0  0  0
 11 16  2  0  0  0  0
 12  5  1  0  0  0  0
 12  2  2  0  0  0  0
 13 14  1  0  0  0  0
 14 19  1  1  0  0  0
 15  3  1  0  0  0  0
 15  4  1  0  0  0  0
 17 18  1  0  0  0  0
 17 23  1  0  0  0  0
 19 22  2  0  0  0  0
 19 21  1  0  0  0  0
 20 18  2  0  0  0  0
 21 17  2  0  0  0  0
 22 20  1  0  0  0  0
 24  4  1  0  0  0  0
 24 25  1  0  0  0  0
 26 25  1  0  0  0  0
 27 26  1  0  0  0  0
 29 33  1  0  0  0  0
 29 27  1  0  0  0  0
 30 28  1  1  0  0  0
 30 29  1  0  0  0  0
 31 32  1  0  0  0  0
 32 33  2  0  0  0  0
 34 31  2  0  0  0  0
 34 30  1  0  0  0  0
M  END
>  <MODEL>
9

>  <REMARK>
 VINA RESULT:      -8.6      2.903      8.435
  Name = 
  6 active torsions:
  status: ('A' for Active; 'I' for Inactive)
    1  A    between atoms: C_3  and  N_13
    2  A    between atoms: C_3  and  C_17
    3  A    between atoms: N_5  and  C_18
    4  A    between atoms: C_12  and  C_28
    5  A    between atoms: C_17  and  C_29
    6  A    between atoms: C_18  and  C_29
                            x       y       z     vdW  Elec       q    Type
                         _______ _______ _______ _____ _____    ______ ____

>  <TORSDO>
F 6

$$$$
