=
 OpenBabel10262421483D

 30 33  0  0  1  0  0  0  0  0999 V2000
  187.2650  178.0470  138.7850 C   0  0  0  0  0  2  0  0  0  0  0  0
  186.2330  178.6980  141.6660 C   0  0  0  0  0  0  0  0  0  0  0  0
  181.6390  178.8970  136.9830 C   0  0  0  0  0  3  0  0  0  0  0  0
  187.4480  178.2660  137.2930 C   0  0  0  0  0  2  0  0  0  0  0  0
  185.9880  178.6180  139.1730 N   0  0  0  0  0  2  0  0  0  0  0  0
  188.4770  176.3130  134.7130 O   0  0  0  0  0  0  0  0  0  0  0  0
  183.1340  174.9040  135.6240 O   0  0  0  0  0  0  0  0  0  0  0  0
  188.4390  177.2890  136.6590 C   0  0  1  0  0  0  0  0  0  0  0  0
  187.8720  175.4450  135.6240 C   0  0  2  0  0  0  0  0  0  0  0  0
  182.3470  177.7680  136.7930 C   0  0  0  0  0  3  0  0  0  0  0  0
  181.0200  179.2860  138.2970 C   0  0  0  0  0  2  0  0  0  0  0  0
  188.0180  175.9810  136.9010 O   0  0  0  0  0  0  0  0  0  0  0  0
  188.4410  177.5080  135.2760 O   0  0  0  0  0  0  0  0  0  0  0  0
  185.6290  178.7480  142.8830 N   0  0  0  0  0  0  0  0  0  0  0  0
  184.0450  175.0850  136.4750 C   0  0  0  0  0  0  0  0  0  0  0  0
  183.8740  176.0170  137.5430 N   0  0  0  0  0  2  0  0  0  0  0  0
  188.5810  174.1030  135.5510 C   0  0  0  0  0  1  0  0  0  0  0  0
  187.7210  178.7370  141.6170 C   0  0  0  0  0  1  0  0  0  0  0  0
  184.0470  178.6810  140.6500 C   0  0  0  0  0  0  0  0  0  0  0  0
  184.2760  178.7540  143.0010 C   0  0  0  0  0  3  0  0  0  0  0  0
  186.3860  175.2920  135.2820 C   0  0  0  0  0  2  0  0  0  0  0  0
  185.4410  178.6570  140.5000 C   0  0  0  0  0  0  0  0  0  0  0  0
  182.6200  177.1440  139.2940 C   0  0  0  0  0  2  0  0  0  0  0  0
  182.0750  179.6130  139.3640 C   0  0  0  0  0  2  0  0  0  0  0  0
  182.6130  176.6880  137.8290 C   0  0  1  0  0  3  0  0  0  0  0  0
  185.5450  174.1150  136.3930 S   0  0  0  0  0  0  0  0  0  0  0  0
  183.4960  178.7150  141.8930 N   0  0  0  0  0  0  0  0  0  0  0  0
  183.1760  178.5530  139.4410 C   0  0  1  0  0  3  0  0  0  0  0  0
  189.8510  177.4790  137.2240 C   0  0  0  0  0  2  0  0  0  0  0  0
  190.2980  176.2980  138.0710 C   0  0  0  0  0  1  0  0  0  0  0  0
  1  5  1  0  0  0  0
  2 14  1  0  0  0  0
  3 11  1  0  0  0  0
  4  1  1  0  0  0  0
  5 22  1  0  0  0  0
  6 13  1  0  0  0  0
  6  9  1  0  0  0  0
  7 15  2  0  0  0  0
  8 12  1  0  0  0  0
  8 29  1  1  0  0  0
  8  4  1  0  0  0  0
  9 17  1  6  0  0  0
  9 12  1  0  0  0  0
 10  3  2  0  0  0  0
 11 24  1  0  0  0  0
 13  8  1  0  0  0  0
 14 20  2  0  0  0  0
 15 16  1  0  0  0  0
 16 25  1  0  0  0  0
 18  2  1  0  0  0  0
 19 27  2  0  0  0  0
 21  9  1  0  0  0  0
 21 26  1  0  0  0  0
 22 19  1  0  0  0  0
 22  2  2  0  0  0  0
 24 28  1  0  0  0  0
 25 10  1  6  0  0  0
 25 23  1  0  0  0  0
 26 15  1  0  0  0  0
 27 20  1  0  0  0  0
 28 23  1  1  0  0  0
 28 19  1  0  0  0  0
 29 30  1  0  0  0  0
M  END
>  <MODEL>
1

>  <REMARK>
 VINA RESULT:      -6.6      0.000      0.000
  Name = 
  1 active torsions:
  status: ('A' for Active; 'I' for Inactive)
    1  A    between atoms: C_8  and  C_27
                            x       y       z     vdW  Elec       q    Type
                         _______ _______ _______ _____ _____    ______ ____

>  <TORSDO>
F 1

$$$$
=
 OpenBabel10262421483D

 30 33  0  0  1  0  0  0  0  0999 V2000
  184.1950  177.8120  140.6090 C   0  0  0  0  0  2  0  0  0  0  0  0
  183.3280  176.2190  138.0600 C   0  0  0  0  0  0  0  0  0  0  0  0
  189.0550  179.3780  137.5190 C   0  0  0  0  0  3  0  0  0  0  0  0
  184.6860  179.0160  141.3930 C   0  0  0  0  0  2  0  0  0  0  0  0
  184.7570  177.8840  139.2720 N   0  0  0  0  0  2  0  0  0  0  0  0
  185.9490  179.4680  144.5130 O   0  0  0  0  0  0  0  0  0  0  0  0
  190.2110  177.5430  141.4330 O   0  0  0  0  0  0  0  0  0  0  0  0
  184.6320  178.8100  142.9080 C   0  0  1  0  0  0  0  0  0  0  0  0
  186.3330  178.1810  144.1340 C   0  0  2  0  0  0  0  0  0  0  0  0
  189.0680  178.7390  138.7030 C   0  0  0  0  0  3  0  0  0  0  0  0
  188.7370  178.7090  136.2100 C   0  0  0  0  0  2  0  0  0  0  0  0
  185.3810  177.6830  143.2480 O   0  0  0  0  0  0  0  0  0  0  0  0
  185.2100  179.9300  143.5200 O   0  0  0  0  0  0  0  0  0  0  0  0
  183.1850  175.3760  137.0030 N   0  0  0  0  0  0  0  0  0  0  0  0
  189.0220  177.1280  141.4580 C   0  0  0  0  0  0  0  0  0  0  0  0
  188.2520  177.0440  140.2580 N   0  0  0  0  0  2  0  0  0  0  0  0
  186.3760  177.3070  145.3780 C   0  0  0  0  0  1  0  0  0  0  0  0
  182.1880  176.3590  139.0080 C   0  0  0  0  0  1  0  0  0  0  0  0
  185.5130  176.7980  137.2220 C   0  0  0  0  0  0  0  0  0  0  0  0
  184.1680  175.2260  136.0790 C   0  0  0  0  0  3  0  0  0  0  0  0
  187.7070  178.2300  143.4590 C   0  0  0  0  0  2  0  0  0  0  0  0
  184.5210  176.9590  138.1990 C   0  0  0  0  0  0  0  0  0  0  0  0
  187.9050  176.5660  137.9010 C   0  0  0  0  0  2  0  0  0  0  0  0
  187.2710  178.2560  136.1290 C   0  0  0  0  0  2  0  0  0  0  0  0
  188.8080  177.2580  138.9300 C   0  0  1  0  0  3  0  0  0  0  0  0
  188.3050  176.5700  142.9980 S   0  0  0  0  0  0  0  0  0  0  0  0
  185.3230  175.9290  136.1930 N   0  0  0  0  0  0  0  0  0  0  0  0
  186.8230  177.5020  137.3820 C   0  0  1  0  0  3  0  0  0  0  0  0
  183.1910  178.6280  143.3960 C   0  0  0  0  0  2  0  0  0  0  0  0
  183.0270  179.0030  144.8610 C   0  0  0  0  0  1  0  0  0  0  0  0
  1  4  1  0  0  0  0
  2 22  1  0  0  0  0
  2 18  1  0  0  0  0
  3 10  2  0  0  0  0
  4  8  1  0  0  0  0
  5  1  1  0  0  0  0
  7 15  2  0  0  0  0
  8 12  1  0  0  0  0
  8 29  1  1  0  0  0
  8 13  1  0  0  0  0
  9  6  1  0  0  0  0
  9 17  1  1  0  0  0
 10 25  1  0  0  0  0
 11  3  1  0  0  0  0
 12  9  1  0  0  0  0
 13  6  1  0  0  0  0
 14  2  2  0  0  0  0
 15 26  1  0  0  0  0
 16 15  1  0  0  0  0
 19 28  1  0  0  0  0
 19 22  2  0  0  0  0
 20 27  2  0  0  0  0
 20 14  1  0  0  0  0
 21  9  1  0  0  0  0
 22  5  1  0  0  0  0
 24 11  1  0  0  0  0
 25 23  1  6  0  0  0
 25 16  1  0  0  0  0
 26 21  1  0  0  0  0
 27 19  1  0  0  0  0
 28 24  1  6  0  0  0
 28 23  1  0  0  0  0
 29 30  1  0  0  0  0
M  END
>  <MODEL>
2

>  <REMARK>
 VINA RESULT:      -6.1      3.464      7.266
  Name = 
  1 active torsions:
  status: ('A' for Active; 'I' for Inactive)
    1  A    between atoms: C_8  and  C_27
                            x       y       z     vdW  Elec       q    Type
                         _______ _______ _______ _____ _____    ______ ____

>  <TORSDO>
F 1

$$$$
=
 OpenBabel10262421483D

 30 33  0  0  1  0  0  0  0  0999 V2000
  186.3280  178.0960  139.1040 C   0  0  0  0  0  2  0  0  0  0  0  0
  185.6040  178.8230  142.0600 C   0  0  0  0  0  0  0  0  0  0  0  0
  180.4850  178.5230  137.9620 C   0  0  0  0  0  3  0  0  0  0  0  0
  186.3190  178.2530  137.5940 C   0  0  0  0  0  2  0  0  0  0  0  0
  185.0710  178.6080  139.6200 N   0  0  0  0  0  2  0  0  0  0  0  0
  187.1590  176.2410  134.9890 O   0  0  0  0  0  0  0  0  0  0  0  0
  182.0640  174.5650  136.5970 O   0  0  0  0  0  0  0  0  0  0  0  0
  187.2890  177.3070  136.8850 C   0  0  1  0  0  0  0  0  0  0  0  0
  186.7230  175.3850  136.0010 C   0  0  2  0  0  0  0  0  0  0  0  0
  181.2370  177.4310  137.7350 C   0  0  0  0  0  3  0  0  0  0  0  0
  180.0020  178.9380  139.3250 C   0  0  0  0  0  2  0  0  0  0  0  0
  186.9840  175.9890  137.2280 O   0  0  0  0  0  0  0  0  0  0  0  0
  187.1130  177.4580  135.5030 O   0  0  0  0  0  0  0  0  0  0  0  0
  185.1460  178.8960  143.3370 N   0  0  0  0  0  0  0  0  0  0  0  0
  183.0550  174.8400  137.3240 C   0  0  0  0  0  0  0  0  0  0  0  0
  182.9510  175.8110  138.3650 N   0  0  0  0  0  2  0  0  0  0  0  0
  187.5040  174.0850  135.8990 C   0  0  0  0  0  1  0  0  0  0  0  0
  187.0700  178.9470  141.8290 C   0  0  0  0  0  1  0  0  0  0  0  0
  183.3190  178.6280  141.3170 C   0  0  0  0  0  0  0  0  0  0  0  0
  183.8190  178.8270  143.6180 C   0  0  0  0  0  3  0  0  0  0  0  0
  185.2210  175.1280  135.8490 C   0  0  0  0  0  2  0  0  0  0  0  0
  184.6840  178.6790  141.0010 C   0  0  0  0  0  0  0  0  0  0  0  0
  181.8440  176.9450  140.2070 C   0  0  0  0  0  2  0  0  0  0  0  0
  181.1530  179.3780  140.2420 C   0  0  0  0  0  2  0  0  0  0  0  0
  181.6930  176.4190  138.7740 C   0  0  1  0  0  3  0  0  0  0  0  0
  184.5940  173.9580  137.1010 S   0  0  0  0  0  0  0  0  0  0  0  0
  182.9170  178.6890  142.6150 N   0  0  0  0  0  0  0  0  0  0  0  0
  182.3210  178.3900  140.2290 C   0  0  1  0  0  3  0  0  0  0  0  0
  188.7420  177.6070  137.2670 C   0  0  0  0  0  2  0  0  0  0  0  0
  189.0550  179.0950  137.2180 C   0  0  0  0  0  1  0  0  0  0  0  0
  1  5  1  0  0  0  0
  2 14  1  0  0  0  0
  3 11  1  0  0  0  0
  4  1  1  0  0  0  0
  5 22  1  0  0  0  0
  6 13  1  0  0  0  0
  6  9  1  0  0  0  0
  7 15  2  0  0  0  0
  8 12  1  0  0  0  0
  8 29  1  1  0  0  0
  8  4  1  0  0  0  0
  9 17  1  6  0  0  0
  9 12  1  0  0  0  0
 10  3  2  0  0  0  0
 11 24  1  0  0  0  0
 13  8  1  0  0  0  0
 14 20  2  0  0  0  0
 15 16  1  0  0  0  0
 16 25  1  0  0  0  0
 18  2  1  0  0  0  0
 19 27  2  0  0  0  0
 21  9  1  0  0  0  0
 21 26  1  0  0  0  0
 22 19  1  0  0  0  0
 22  2  2  0  0  0  0
 25 10  1  6  0  0  0
 25 23  1  0  0  0  0
 26 15  1  0  0  0  0
 27 20  1  0  0  0  0
 28 23  1  1  0  0  0
 28 24  1  0  0  0  0
 28 19  1  0  0  0  0
 30 29  1  0  0  0  0
M  END
>  <MODEL>
3

>  <REMARK>
 VINA RESULT:      -6.1      1.172      1.296
  Name = 
  1 active torsions:
  status: ('A' for Active; 'I' for Inactive)
    1  A    between atoms: C_8  and  C_27
                            x       y       z     vdW  Elec       q    Type
                         _______ _______ _______ _____ _____    ______ ____

>  <TORSDO>
F 1

$$$$
=
 OpenBabel10262421483D

 30 33  0  0  1  0  0  0  0  0999 V2000
  182.5370  175.2690  137.9910 C   0  0  0  0  0  2  0  0  0  0  0  0
  179.9380  176.9210  138.5430 C   0  0  0  0  0  0  0  0  0  0  0  0
  184.9540  178.2520  142.5620 C   0  0  0  0  0  3  0  0  0  0  0  0
  183.7230  174.3880  138.3430 C   0  0  0  0  0  2  0  0  0  0  0  0
  182.2240  176.0890  139.1480 N   0  0  0  0  0  2  0  0  0  0  0  0
  186.6060  173.5390  136.7620 O   0  0  0  0  0  0  0  0  0  0  0  0
  187.5180  178.6280  138.9140 O   0  0  0  0  0  0  0  0  0  0  0  0
  184.4850  173.8870  137.1160 C   0  0  1  0  0  0  0  0  0  0  0  0
  186.2940  174.8230  136.3120 C   0  0  2  0  0  0  0  0  0  0  0  0
  185.4470  178.2280  141.3100 C   0  0  0  0  0  3  0  0  0  0  0  0
  183.7600  179.0690  142.9760 C   0  0  0  0  0  2  0  0  0  0  0  0
  184.9110  174.9790  136.3580 O   0  0  0  0  0  0  0  0  0  0  0  0
  185.6140  173.1860  137.5610 O   0  0  0  0  0  0  0  0  0  0  0  0
  178.9700  177.8600  138.7150 N   0  0  0  0  0  0  0  0  0  0  0  0
  186.4990  178.2170  138.2970 C   0  0  0  0  0  0  0  0  0  0  0  0
  185.2010  178.3150  138.8830 N   0  0  0  0  0  2  0  0  0  0  0  0
  186.7730  174.9580  134.8760 C   0  0  0  0  0  1  0  0  0  0  0  0
  179.6520  175.7730  137.6380 C   0  0  0  0  0  1  0  0  0  0  0  0
  181.3020  178.1260  140.1240 C   0  0  0  0  0  0  0  0  0  0  0  0
  179.1480  178.9140  139.5530 C   0  0  0  0  0  3  0  0  0  0  0  0
  186.9720  175.8630  137.2100 C   0  0  0  0  0  2  0  0  0  0  0  0
  181.1510  177.0380  139.2530 C   0  0  0  0  0  0  0  0  0  0  0  0
  183.4460  179.4070  140.1600 C   0  0  0  0  0  2  0  0  0  0  0  0
  182.4590  178.5670  142.3320 C   0  0  0  0  0  2  0  0  0  0  0  0
  184.9310  179.0280  140.1240 C   0  0  1  0  0  3  0  0  0  0  0  0
  186.6640  177.5680  136.6390 S   0  0  0  0  0  0  0  0  0  0  0  0
  180.3070  179.0450  140.2460 N   0  0  0  0  0  0  0  0  0  0  0  0
  182.6050  178.3280  140.8290 C   0  0  1  0  0  3  0  0  0  0  0  0
  183.6090  172.9780  136.2470 C   0  0  0  0  0  2  0  0  0  0  0  0
  183.4420  171.5920  136.8490 C   0  0  0  0  0  1  0  0  0  0  0  0
  1  4  1  0  0  0  0
  1  5  1  0  0  0  0
  2 14  2  0  0  0  0
  2 22  1  0  0  0  0
  3 11  1  0  0  0  0
  5 22  1  0  0  0  0
  6 13  1  0  0  0  0
  8 29  1  6  0  0  0
  8 13  1  0  0  0  0
  8  4  1  0  0  0  0
  9 17  1  6  0  0  0
  9 12  1  0  0  0  0
  9  6  1  0  0  0  0
  9 21  1  0  0  0  0
 10  3  2  0  0  0  0
 12  8  1  0  0  0  0
 14 20  1  0  0  0  0
 15 16  1  0  0  0  0
 15  7  2  0  0  0  0
 16 25  1  0  0  0  0
 18  2  1  0  0  0  0
 19 27  1  0  0  0  0
 19 28  1  0  0  0  0
 20 27  2  0  0  0  0
 22 19  2  0  0  0  0
 24 11  1  0  0  0  0
 25 23  1  1  0  0  0
 25 10  1  0  0  0  0
 26 21  1  0  0  0  0
 26 15  1  0  0  0  0
 28 23  1  6  0  0  0
 28 24  1  0  0  0  0
 29 30  1  0  0  0  0
M  END
>  <MODEL>
4

>  <REMARK>
 VINA RESULT:      -5.9      2.361      5.225
  Name = 
  1 active torsions:
  status: ('A' for Active; 'I' for Inactive)
    1  A    between atoms: C_8  and  C_27
                            x       y       z     vdW  Elec       q    Type
                         _______ _______ _______ _____ _____    ______ ____

>  <TORSDO>
F 1

$$$$
=
 OpenBabel10262421483D

 30 33  0  0  1  0  0  0  0  0999 V2000
  182.0930  176.6520  139.2470 C   0  0  0  0  0  2  0  0  0  0  0  0
  180.1140  178.5040  140.8110 C   0  0  0  0  0  0  0  0  0  0  0  0
  185.9330  177.6140  143.7150 C   0  0  0  0  0  3  0  0  0  0  0  0
  183.0720  175.5050  139.0660 C   0  0  0  0  0  2  0  0  0  0  0  0
  182.1980  177.1250  140.6160 N   0  0  0  0  0  2  0  0  0  0  0  0
  185.3340  174.6660  136.6770 O   0  0  0  0  0  0  0  0  0  0  0  0
  187.8240  178.6050  139.7820 O   0  0  0  0  0  0  0  0  0  0  0  0
  183.4590  175.2710  137.6060 C   0  0  1  0  0  0  0  0  0  0  0  0
  185.2700  176.0600  136.6610 C   0  0  2  0  0  0  0  0  0  0  0  0
  186.1760  177.8820  142.4180 C   0  0  0  0  0  3  0  0  0  0  0  0
  185.0670  178.4690  144.5990 C   0  0  0  0  0  2  0  0  0  0  0  0
  183.9970  176.4440  137.0750 O   0  0  0  0  0  0  0  0  0  0  0  0
  184.4430  174.2740  137.5710 O   0  0  0  0  0  0  0  0  0  0  0  0
  179.4510  179.5060  141.4460 N   0  0  0  0  0  0  0  0  0  0  0  0
  186.6430  178.5940  139.3430 C   0  0  0  0  0  0  0  0  0  0  0  0
  185.5330  178.7440  140.2270 N   0  0  0  0  0  2  0  0  0  0  0  0
  185.5060  176.5350  135.2360 C   0  0  0  0  0  1  0  0  0  0  0  0
  179.4020  177.7570  139.7370 C   0  0  0  0  0  1  0  0  0  0  0  0
  181.9880  178.9010  142.2750 C   0  0  0  0  0  0  0  0  0  0  0  0
  180.0250  180.2050  142.4590 C   0  0  0  0  0  3  0  0  0  0  0  0
  186.3290  176.6360  137.6060 C   0  0  0  0  0  2  0  0  0  0  0  0
  181.4250  178.1760  141.2150 C   0  0  0  0  0  0  0  0  0  0  0  0
  184.3510  179.6980  142.1250 C   0  0  0  0  0  2  0  0  0  0  0  0
  183.5900  178.4320  144.1780 C   0  0  0  0  0  2  0  0  0  0  0  0
  185.6690  179.0830  141.6370 C   0  0  1  0  0  3  0  0  0  0  0  0
  186.3480  178.4600  137.5840 S   0  0  0  0  0  0  0  0  0  0  0  0
  181.2840  179.9060  142.8640 N   0  0  0  0  0  0  0  0  0  0  0  0
  183.4050  178.6390  142.6740 C   0  0  1  0  0  3  0  0  0  0  0  0
  182.2490  174.8440  136.7680 C   0  0  0  0  0  2  0  0  0  0  0  0
  182.3140  173.3790  136.3650 C   0  0  0  0  0  1  0  0  0  0  0  0
  1  5  1  0  0  0  0
  2 22  2  0  0  0  0
  2 14  1  0  0  0  0
  3 11  1  0  0  0  0
  4  1  1  0  0  0  0
  5 22  1  0  0  0  0
  6 13  1  0  0  0  0
  8 29  1  6  0  0  0
  8  4  1  0  0  0  0
  9 17  1  6  0  0  0
  9  6  1  0  0  0  0
  9 12  1  0  0  0  0
  9 21  1  0  0  0  0
 10  3  2  0  0  0  0
 12  8  1  0  0  0  0
 13  8  1  0  0  0  0
 14 20  2  0  0  0  0
 15  7  2  0  0  0  0
 15 16  1  0  0  0  0
 16 25  1  0  0  0  0
 18  2  1  0  0  0  0
 19 28  1  0  0  0  0
 19 27  2  0  0  0  0
 20 27  1  0  0  0  0
 22 19  1  0  0  0  0
 24 11  1  0  0  0  0
 25 23  1  1  0  0  0
 25 10  1  0  0  0  0
 26 21  1  0  0  0  0
 26 15  1  0  0  0  0
 28 23  1  1  0  0  0
 28 24  1  0  0  0  0
 30 29  1  0  0  0  0
M  END
>  <MODEL>
5

>  <REMARK>
 VINA RESULT:      -5.5      2.669      5.534
  Name = 
  1 active torsions:
  status: ('A' for Active; 'I' for Inactive)
    1  A    between atoms: C_8  and  C_27
                            x       y       z     vdW  Elec       q    Type
                         _______ _______ _______ _____ _____    ______ ____

>  <TORSDO>
F 1

$$$$
=
 OpenBabel10262421483D

 30 33  0  0  1  0  0  0  0  0999 V2000
  187.9310  177.7140  142.0090 C   0  0  0  0  0  2  0  0  0  0  0  0
  188.8590  178.6290  139.1650 C   0  0  0  0  0  0  0  0  0  0  0  0
  182.7190  176.3270  139.4530 C   0  0  0  0  0  3  0  0  0  0  0  0
  187.3230  176.7750  143.0360 C   0  0  0  0  0  2  0  0  0  0  0  0
  187.2840  177.4680  140.7330 N   0  0  0  0  0  2  0  0  0  0  0  0
  186.2010  177.1380  146.2210 O   0  0  0  0  0  0  0  0  0  0  0  0
  182.0760  179.0450  142.9490 O   0  0  0  0  0  0  0  0  0  0  0  0
  187.4970  177.2620  144.4750 C   0  0  1  0  0  0  0  0  0  0  0  0
  185.9810  178.3690  145.6010 C   0  0  2  0  0  0  0  0  0  0  0  0
  182.8690  177.1790  140.4840 C   0  0  0  0  0  3  0  0  0  0  0  0
  183.0490  176.6710  138.0270 C   0  0  0  0  0  2  0  0  0  0  0  0
  186.9380  178.5340  144.6040 O   0  0  0  0  0  0  0  0  0  0  0  0
  186.8060  176.3840  145.3190 O   0  0  0  0  0  0  0  0  0  0  0  0
  189.0550  179.2170  137.9550 N   0  0  0  0  0  0  0  0  0  0  0  0
  183.3110  179.2720  142.8530 C   0  0  0  0  0  0  0  0  0  0  0  0
  184.0110  179.0030  141.6380 N   0  0  0  0  0  2  0  0  0  0  0  0
  186.1380  179.4650  146.6430 C   0  0  0  0  0  1  0  0  0  0  0  0
  190.0230  178.5060  140.0860 C   0  0  0  0  0  1  0  0  0  0  0  0
  186.5670  178.2330  138.5300 C   0  0  0  0  0  0  0  0  0  0  0  0
  188.0490  179.3300  137.0510 C   0  0  0  0  0  3  0  0  0  0  0  0
  184.5750  178.3970  144.9940 C   0  0  0  0  0  2  0  0  0  0  0  0
  187.5840  178.1190  139.4880 C   0  0  0  0  0  0  0  0  0  0  0  0
  184.2770  178.9530  139.2230 C   0  0  0  0  0  2  0  0  0  0  0  0
  184.5570  176.8730  137.8110 C   0  0  0  0  0  2  0  0  0  0  0  0
  183.3500  178.6200  140.3980 C   0  0  1  0  0  3  0  0  0  0  0  0
  184.1920  180.0060  144.2250 S   0  0  0  0  0  0  0  0  0  0  0  0
  186.8150  178.8460  137.3420 N   0  0  0  0  0  0  0  0  0  0  0  0
  185.1830  177.7810  138.8710 C   0  0  1  0  0  3  0  0  0  0  0  0
  188.9770  177.3170  144.8710 C   0  0  0  0  0  2  0  0  0  0  0  0
  189.1810  177.1280  146.3660 C   0  0  0  0  0  1  0  0  0  0  0  0
  1  4  1  0  0  0  0
  2 22  1  0  0  0  0
  2 18  1  0  0  0  0
  3 10  2  0  0  0  0
  4  8  1  0  0  0  0
  5  1  1  0  0  0  0
  8 12  1  0  0  0  0
  8 29  1  1  0  0  0
  8 13  1  0  0  0  0
  9  6  1  0  0  0  0
  9 17  1  1  0  0  0
 11  3  1  0  0  0  0
 12  9  1  0  0  0  0
 13  6  1  0  0  0  0
 14  2  2  0  0  0  0
 15  7  2  0  0  0  0
 15 26  1  0  0  0  0
 16 15  1  0  0  0  0
 19 28  1  0  0  0  0
 19 22  2  0  0  0  0
 20 27  2  0  0  0  0
 20 14  1  0  0  0  0
 21  9  1  0  0  0  0
 22  5  1  0  0  0  0
 24 11  1  0  0  0  0
 25 23  1  6  0  0  0
 25 10  1  0  0  0  0
 25 16  1  0  0  0  0
 26 21  1  0  0  0  0
 27 19  1  0  0  0  0
 28 24  1  6  0  0  0
 28 23  1  0  0  0  0
 29 30  1  0  0  0  0
M  END
>  <MODEL>
6

>  <REMARK>
 VINA RESULT:      -5.5      4.396      6.874
  Name = 
  1 active torsions:
  status: ('A' for Active; 'I' for Inactive)
    1  A    between atoms: C_8  and  C_27
                            x       y       z     vdW  Elec       q    Type
                         _______ _______ _______ _____ _____    ______ ____

>  <TORSDO>
F 1

$$$$
=
 OpenBabel10262421483D

 30 33  0  0  1  0  0  0  0  0999 V2000
  185.8200  177.6740  138.5410 C   0  0  0  0  0  2  0  0  0  0  0  0
  183.9200  178.5530  140.8650 C   0  0  0  0  0  0  0  0  0  0  0  0
  180.8640  176.3710  135.4820 C   0  0  0  0  0  3  0  0  0  0  0  0
  186.3400  177.6280  137.1150 C   0  0  0  0  0  2  0  0  0  0  0  0
  184.3860  177.8930  138.4920 N   0  0  0  0  0  2  0  0  0  0  0  0
  188.4780  175.5990  135.4280 O   0  0  0  0  0  0  0  0  0  0  0  0
  183.6090  172.8390  135.5960 O   0  0  0  0  0  0  0  0  0  0  0  0
  187.6750  176.8930  136.9840 C   0  0  1  0  0  0  0  0  0  0  0  0
  187.8830  174.7940  136.4000 C   0  0  2  0  0  0  0  0  0  0  0  0
  181.8520  175.5000  135.7540 C   0  0  0  0  0  3  0  0  0  0  0  0
  179.8350  176.8120  136.4870 C   0  0  0  0  0  2  0  0  0  0  0  0
  187.5410  175.5980  137.4840 O   0  0  0  0  0  0  0  0  0  0  0  0
  187.9980  176.8140  135.6230 O   0  0  0  0  0  0  0  0  0  0  0  0
  183.0160  178.6630  141.8740 N   0  0  0  0  0  0  0  0  0  0  0  0
  184.1810  173.4600  136.5300 C   0  0  0  0  0  0  0  0  0  0  0  0
  183.5020  174.4930  137.2450 N   0  0  0  0  0  2  0  0  0  0  0  0
  188.8950  173.7480  136.8420 C   0  0  0  0  0  1  0  0  0  0  0  0
  185.3080  179.0350  141.1070 C   0  0  0  0  0  1  0  0  0  0  0  0
  182.1650  177.6590  139.4740 C   0  0  0  0  0  0  0  0  0  0  0  0
  181.7240  178.2790  141.7120 C   0  0  0  0  0  3  0  0  0  0  0  0
  186.6310  174.1260  135.8220 C   0  0  0  0  0  2  0  0  0  0  0  0
  183.5080  178.0330  139.6200 C   0  0  0  0  0  0  0  0  0  0  0  0
  181.5840  175.5150  138.3320 C   0  0  0  0  0  2  0  0  0  0  0  0
  180.4480  177.6580  137.6140 C   0  0  0  0  0  2  0  0  0  0  0  0
  182.0860  174.7890  137.0780 C   0  0  1  0  0  3  0  0  0  0  0  0
  185.8380  173.0020  137.0200 S   0  0  0  0  0  0  0  0  0  0  0  0
  181.3070  177.7760  140.5230 N   0  0  0  0  0  0  0  0  0  0  0  0
  181.7130  177.0260  138.1970 C   0  0  1  0  0  3  0  0  0  0  0  0
  188.7890  177.6190  137.7480 C   0  0  0  0  0  2  0  0  0  0  0  0
  189.0530  179.0120  137.1980 C   0  0  0  0  0  1  0  0  0  0  0  0
  2 18  1  0  0  0  0
  2 14  1  0  0  0  0
  3 10  2  0  0  0  0
  3 11  1  0  0  0  0
  4  1  1  0  0  0  0
  5  1  1  0  0  0  0
  5 22  1  0  0  0  0
  6 13  1  0  0  0  0
  6  9  1  0  0  0  0
  7 15  2  0  0  0  0
  8  4  1  0  0  0  0
  8 12  1  0  0  0  0
  8 29  1  1  0  0  0
  9 17  1  1  0  0  0
  9 12  1  0  0  0  0
 11 24  1  0  0  0  0
 13  8  1  0  0  0  0
 15 26  1  0  0  0  0
 15 16  1  0  0  0  0
 19 22  1  0  0  0  0
 19 27  2  0  0  0  0
 20 14  2  0  0  0  0
 21  9  1  0  0  0  0
 21 26  1  0  0  0  0
 22  2  2  0  0  0  0
 25 10  1  6  0  0  0
 25 16  1  0  0  0  0
 25 23  1  0  0  0  0
 27 20  1  0  0  0  0
 28 24  1  1  0  0  0
 28 23  1  0  0  0  0
 28 19  1  0  0  0  0
 30 29  1  0  0  0  0
M  END
>  <MODEL>
7

>  <REMARK>
 VINA RESULT:      -5.2      1.606      2.130
  Name = 
  1 active torsions:
  status: ('A' for Active; 'I' for Inactive)
    1  A    between atoms: C_8  and  C_27
                            x       y       z     vdW  Elec       q    Type
                         _______ _______ _______ _____ _____    ______ ____

>  <TORSDO>
F 1

$$$$
=
 OpenBabel10262421483D

 30 33  0  0  1  0  0  0  0  0999 V2000
  190.2050  176.9570  140.6980 C   0  0  0  0  0  2  0  0  0  0  0  0
  192.6680  176.8270  138.7730 C   0  0  0  0  0  0  0  0  0  0  0  0
  187.5050  173.2410  136.8880 C   0  0  0  0  0  3  0  0  0  0  0  0
  189.0810  176.4010  141.5540 C   0  0  0  0  0  2  0  0  0  0  0  0
  190.4400  176.0340  139.6030 N   0  0  0  0  0  2  0  0  0  0  0  0
  186.2930  177.7240  142.9720 O   0  0  0  0  0  0  0  0  0  0  0  0
  184.9790  176.8660  137.5970 O   0  0  0  0  0  0  0  0  0  0  0  0
  188.3770  177.4690  142.3920 C   0  0  1  0  0  0  0  0  0  0  0  0
  186.5180  178.4720  141.8150 C   0  0  2  0  0  0  0  0  0  0  0  0
  187.0350  174.4490  137.2500 C   0  0  0  0  0  3  0  0  0  0  0  0
  188.6290  173.0380  135.9090 C   0  0  0  0  0  2  0  0  0  0  0  0
  187.8850  178.4670  141.5500 O   0  0  0  0  0  0  0  0  0  0  0  0
  187.2960  176.8660  143.0470 O   0  0  0  0  0  0  0  0  0  0  0  0
  193.5620  176.8900  137.7510 N   0  0  0  0  0  0  0  0  0  0  0  0
  186.0350  177.3680  138.0670 C   0  0  0  0  0  0  0  0  0  0  0  0
  187.3130  176.8250  137.7340 N   0  0  0  0  0  2  0  0  0  0  0  0
  186.0540  179.8970  142.0670 C   0  0  0  0  0  1  0  0  0  0  0  0
  193.0510  177.4280  140.0810 C   0  0  0  0  0  1  0  0  0  0  0  0
  191.1950  175.5820  137.3270 C   0  0  0  0  0  0  0  0  0  0  0  0
  193.2950  176.3310  136.5430 C   0  0  0  0  0  3  0  0  0  0  0  0
  185.7520  177.8510  140.6430 C   0  0  0  0  0  2  0  0  0  0  0  0
  191.4380  176.1640  138.5790 C   0  0  0  0  0  0  0  0  0  0  0  0
  188.9640  175.8530  136.2380 C   0  0  0  0  0  2  0  0  0  0  0  0
  189.9730  173.5440  136.4540 C   0  0  0  0  0  2  0  0  0  0  0  0
  187.5100  175.7940  136.7250 C   0  0  1  0  0  3  0  0  0  0  0  0
  185.9450  178.8180  139.1080 S   0  0  0  0  0  0  0  0  0  0  0  0
  192.1190  175.6890  136.3340 N   0  0  0  0  0  0  0  0  0  0  0  0
  189.8690  174.9450  137.0590 C   0  0  1  0  0  3  0  0  0  0  0  0
  189.3310  178.0940  143.4160 C   0  0  0  0  0  2  0  0  0  0  0  0
  189.2420  177.4160  144.7750 C   0  0  0  0  0  1  0  0  0  0  0  0
  1  4  1  0  0  0  0
  2 18  1  0  0  0  0
  3 10  2  0  0  0  0
  4  8  1  0  0  0  0
  5  1  1  0  0  0  0
  6 13  1  0  0  0  0
  7 15  2  0  0  0  0
  8 13  1  0  0  0  0
  8 29  1  1  0  0  0
  9 17  1  1  0  0  0
  9  6  1  0  0  0  0
 11 24  1  0  0  0  0
 11  3  1  0  0  0  0
 12  9  1  0  0  0  0
 12  8  1  0  0  0  0
 14  2  2  0  0  0  0
 15 26  1  0  0  0  0
 16 15  1  0  0  0  0
 19 22  2  0  0  0  0
 20 14  1  0  0  0  0
 21  9  1  0  0  0  0
 22  2  1  0  0  0  0
 22  5  1  0  0  0  0
 24 28  1  0  0  0  0
 25 23  1  1  0  0  0
 25 10  1  0  0  0  0
 25 16  1  0  0  0  0
 26 21  1  0  0  0  0
 27 20  2  0  0  0  0
 27 19  1  0  0  0  0
 28 23  1  6  0  0  0
 28 19  1  0  0  0  0
 29 30  1  0  0  0  0
M  END
>  <MODEL>
8

>  <REMARK>
 VINA RESULT:      -5.1      3.631      7.237
  Name = 
  1 active torsions:
  status: ('A' for Active; 'I' for Inactive)
    1  A    between atoms: C_8  and  C_27
                            x       y       z     vdW  Elec       q    Type
                         _______ _______ _______ _____ _____    ______ ____

>  <TORSDO>
F 1

$$$$
=
 OpenBabel10262421483D

 30 33  0  0  1  0  0  0  0  0999 V2000
  183.1160  177.0020  139.3350 C   0  0  0  0  0  2  0  0  0  0  0  0
  181.7580  178.6120  141.6490 C   0  0  0  0  0  0  0  0  0  0  0  0
  187.9380  176.7520  142.8430 C   0  0  0  0  0  3  0  0  0  0  0  0
  183.8940  175.8570  138.7110 C   0  0  0  0  0  2  0  0  0  0  0  0
  183.5770  177.1700  140.7020 N   0  0  0  0  0  2  0  0  0  0  0  0
  185.4570  175.3890  135.7330 O   0  0  0  0  0  0  0  0  0  0  0  0
  189.0050  178.4180  138.8300 O   0  0  0  0  0  0  0  0  0  0  0  0
  183.9170  175.9080  137.1830 C   0  0  1  0  0  0  0  0  0  0  0  0
  185.5490  176.7560  135.9950 C   0  0  2  0  0  0  0  0  0  0  0  0
  187.9150  177.2690  141.6010 C   0  0  0  0  0  3  0  0  0  0  0  0
  187.3940  177.4590  144.0550 C   0  0  0  0  0  2  0  0  0  0  0  0
  184.4520  177.1280  136.7690 O   0  0  0  0  0  0  0  0  0  0  0  0
  184.7490  174.8780  136.7260 O   0  0  0  0  0  0  0  0  0  0  0  0
  181.3710  179.5010  142.6020 N   0  0  0  0  0  0  0  0  0  0  0  0
  187.7630  178.5770  138.6940 C   0  0  0  0  0  0  0  0  0  0  0  0
  186.9020  178.6110  139.8320 N   0  0  0  0  0  2  0  0  0  0  0  0
  185.5130  177.5020  134.6710 C   0  0  0  0  0  1  0  0  0  0  0  0
  180.7450  178.1550  140.6580 C   0  0  0  0  0  1  0  0  0  0  0  0
  183.9440  178.5700  142.6660 C   0  0  0  0  0  0  0  0  0  0  0  0
  182.2310  179.9320  143.5590 C   0  0  0  0  0  3  0  0  0  0  0  0
  186.8500  177.0510  136.7490 C   0  0  0  0  0  2  0  0  0  0  0  0
  183.0810  178.1210  141.6560 C   0  0  0  0  0  0  0  0  0  0  0  0
  186.2880  179.2230  142.1030 C   0  0  0  0  0  2  0  0  0  0  0  0
  185.8660  177.6080  144.0040 C   0  0  0  0  0  2  0  0  0  0  0  0
  187.3860  178.6380  141.2060 C   0  0  1  0  0  3  0  0  0  0  0  0
  187.0710  178.8330  137.0660 S   0  0  0  0  0  0  0  0  0  0  0  0
  183.5070  179.4730  143.5850 N   0  0  0  0  0  0  0  0  0  0  0  0
  185.3750  178.1370  142.6550 C   0  0  1  0  0  3  0  0  0  0  0  0
  182.5100  175.7460  136.5970 C   0  0  0  0  0  2  0  0  0  0  0  0
  181.9760  174.3320  136.7590 C   0  0  0  0  0  1  0  0  0  0  0  0
  1  5  1  0  0  0  0
  2 22  2  0  0  0  0
  2 14  1  0  0  0  0
  3 11  1  0  0  0  0
  4  1  1  0  0  0  0
  5 22  1  0  0  0  0
  6  9  1  0  0  0  0
  6 13  1  0  0  0  0
  8 29  1  6  0  0  0
  8  4  1  0  0  0  0
  9 17  1  6  0  0  0
  9 21  1  0  0  0  0
  9 12  1  0  0  0  0
 10  3  2  0  0  0  0
 12  8  1  0  0  0  0
 13  8  1  0  0  0  0
 14 20  2  0  0  0  0
 15  7  2  0  0  0  0
 15 16  1  0  0  0  0
 16 25  1  0  0  0  0
 18  2  1  0  0  0  0
 19 27  2  0  0  0  0
 20 27  1  0  0  0  0
 21 26  1  0  0  0  0
 22 19  1  0  0  0  0
 24 11  1  0  0  0  0
 25 10  1  1  0  0  0
 25 23  1  0  0  0  0
 26 15  1  0  0  0  0
 28 23  1  1  0  0  0
 28 19  1  0  0  0  0
 28 24  1  0  0  0  0
 29 30  1  0  0  0  0
M  END
>  <MODEL>
9

>  <REMARK>
 VINA RESULT:      -5.0      2.383      5.350
  Name = 
  1 active torsions:
  status: ('A' for Active; 'I' for Inactive)
    1  A    between atoms: C_8  and  C_27
                            x       y       z     vdW  Elec       q    Type
                         _______ _______ _______ _____ _____    ______ ____

>  <TORSDO>
F 1

$$$$
