=
 OpenBabel10262419563D

 25 28  0  0  1  0  0  0  0  0999 V2000
  185.7250  178.5250  144.5530 C   0  0  0  0  0  0  0  0  0  0  0  0
  187.0300  178.0300  144.5600 C   0  0  0  0  0  0  0  0  0  0  0  0
  185.5050  178.2900  146.9430 C   0  0  0  0  0  3  0  0  0  0  0  0
  184.9050  179.0410  143.4270 C   0  0  2  0  0  3  0  0  0  0  0  0
  188.7940  177.0140  143.1130 C   0  0  2  0  0  3  0  0  0  0  0  0
  182.2830  178.7970  142.2590 C   0  0  0  0  0  3  0  0  0  0  0  0
  186.8180  177.7970  146.9900 C   0  0  0  0  0  3  0  0  0  0  0  0
  183.6280  179.3430  144.1690 C   0  0  0  0  0  0  0  0  0  0  0  0
  182.3640  179.4360  143.4340 C   0  0  0  0  0  3  0  0  0  0  0  0
  189.0350  177.1960  145.9010 C   0  0  2  0  0  3  0  0  0  0  0  0
  189.5810  177.1440  147.3220 C   0  0  0  0  0  1  0  0  0  0  0  0
  187.7130  177.9160  143.3390 O   0  0  0  0  0  0  0  0  0  0  0  0
  183.4210  177.9840  141.7530 C   0  0  0  0  0  3  0  0  0  0  0  0
  184.9960  178.6680  145.7060 C   0  0  0  0  0  0  0  0  0  0  0  0
  183.6830  179.1390  145.4490 N   0  0  0  0  0  0  0  0  0  0  0  0
  189.8850  178.0670  145.0970 N   0  0  0  0  0  2  0  0  0  0  0  0
  184.6320  178.0420  142.3320 C   0  0  0  0  0  3  0  0  0  0  0  0
  190.0980  177.4640  143.7820 C   0  0  0  0  0  2  0  0  0  0  0  0
  187.6030  177.6760  145.8160 C   0  0  0  0  0  0  0  0  0  0  0  0
  189.0010  176.7360  141.6200 C   0  0  0  0  0  2  0  0  0  0  0  0
  190.8200  177.4830  140.1250 N   0  0  0  0  0  1  0  0  0  0  0  0
  189.5910  177.8860  140.7890 C   0  0  1  0  0  3  0  0  0  0  0  0
  188.6220  178.4850  139.8200 C   0  0  0  0  0  0  0  0  0  0  0  0
  187.2650  178.5370  140.1180 O   0  0  0  0  0  1  0  0  0  0  0  0
  189.0430  178.9770  138.7420 O   0  0  0  0  0  0  0  0  0  0  0  0
  1  2  2  0  0  0  0
  1 14  1  0  0  0  0
  2 19  1  0  0  0  0
  3  7  1  0  0  0  0
  4 17  1  6  0  0  0
  4  8  1  0  0  0  0
  4  1  1  0  0  0  0
  5 20  1  6  0  0  0
  5 12  1  0  0  0  0
  5 18  1  0  0  0  0
  6  9  2  0  0  0  0
  8 15  2  0  0  0  0
  9  8  1  0  0  0  0
 10 11  1  1  0  0  0
 12  2  1  0  0  0  0
 13  6  1  0  0  0  0
 13 17  2  0  0  0  0
 14  3  2  0  0  0  0
 15 14  1  0  0  0  0
 16 10  1  0  0  0  0
 18 16  1  0  0  0  0
 19 10  1  0  0  0  0
 19  7  2  0  0  0  0
 22 21  1  6  0  0  0
 22 20  1  0  0  0  0
 23 24  1  0  0  0  0
 23 22  1  0  0  0  0
 25 23  2  0  0  0  0
M  END
>  <MODEL>
1

>  <REMARK>
 VINA RESULT:      -9.6      0.000      0.000
  Name = 
  3 active torsions:
  status: ('A' for Active; 'I' for Inactive)
    1  A    between atoms: C_2  and  CA_25
    2  A    between atoms: C_6  and  C_15
    3  A    between atoms: C_15  and  CA_25
                            x       y       z     vdW  Elec       q    Type
                         _______ _______ _______ _____ _____    ______ ____

>  <TORSDO>
F 3

$$$$
=
 OpenBabel10262419563D

 25 28  0  0  1  0  0  0  0  0999 V2000
  187.4360  178.1430  145.5710 C   0  0  0  0  0  0  0  0  0  0  0  0
  188.6930  177.5700  145.3640 C   0  0  0  0  0  0  0  0  0  0  0  0
  187.5620  177.8230  147.9580 C   0  0  0  0  0  3  0  0  0  0  0  0
  186.4920  178.7520  144.6000 C   0  0  2  0  0  3  0  0  0  0  0  0
  190.1510  176.5120  143.6350 C   0  0  2  0  0  3  0  0  0  0  0  0
  183.7150  178.7130  143.8360 C   0  0  0  0  0  3  0  0  0  0  0  0
  188.8320  177.2510  147.7900 C   0  0  0  0  0  3  0  0  0  0  0  0
  185.3640  179.0990  145.5360 C   0  0  0  0  0  0  0  0  0  0  0  0
  184.0130  179.2970  145.0050 C   0  0  0  0  0  3  0  0  0  0  0  0
  190.8180  176.5640  146.3580 C   0  0  2  0  0  3  0  0  0  0  0  0
  191.5650  176.4220  147.6770 C   0  0  0  0  0  1  0  0  0  0  0  0
  189.1760  177.4660  144.0510 O   0  0  0  0  0  0  0  0  0  0  0  0
  184.7090  177.8550  143.1370 C   0  0  0  0  0  3  0  0  0  0  0  0
  186.8990  178.2810  146.8260 C   0  0  0  0  0  0  0  0  0  0  0  0
  185.5950  178.8400  146.7860 N   0  0  0  0  0  0  0  0  0  0  0  0
  191.5920  177.4150  145.4620 N   0  0  0  0  0  2  0  0  0  0  0  0
  185.9950  177.8170  143.5280 C   0  0  0  0  0  3  0  0  0  0  0  0
  191.5670  176.8560  144.1120 C   0  0  0  0  0  2  0  0  0  0  0  0
  189.4230  177.1320  146.5070 C   0  0  0  0  0  0  0  0  0  0  0  0
  190.1130  176.2840  142.1200 C   0  0  0  0  0  2  0  0  0  0  0  0
  191.3720  177.4590  140.3480 N   0  0  0  0  0  1  0  0  0  0  0  0
  190.2260  177.5380  141.2400 C   0  0  1  0  0  3  0  0  0  0  0  0
  188.9740  177.8570  140.4860 C   0  0  0  0  0  0  0  0  0  0  0  0
  188.6720  177.1920  139.3030 O   0  0  0  0  0  0  0  0  0  0  0  0
  188.1710  178.7100  140.9440 O   0  0  0  0  0  1  0  0  0  0  0  0
  1 14  1  0  0  0  0
  2  1  2  0  0  0  0
  2 19  1  0  0  0  0
  4 17  1  6  0  0  0
  4  8  1  0  0  0  0
  4  1  1  0  0  0  0
  5 20  1  6  0  0  0
  5 12  1  0  0  0  0
  5 18  1  0  0  0  0
  6  9  2  0  0  0  0
  7  3  1  0  0  0  0
  8 15  2  0  0  0  0
  9  8  1  0  0  0  0
 10 19  1  0  0  0  0
 10 11  1  1  0  0  0
 12  2  1  0  0  0  0
 13 17  2  0  0  0  0
 13  6  1  0  0  0  0
 14  3  2  0  0  0  0
 15 14  1  0  0  0  0
 16 10  1  0  0  0  0
 18 16  1  0  0  0  0
 19  7  2  0  0  0  0
 22 21  1  6  0  0  0
 22 20  1  0  0  0  0
 23 25  1  0  0  0  0
 23 22  1  0  0  0  0
 24 23  2  0  0  0  0
M  END
>  <MODEL>
2

>  <REMARK>
 VINA RESULT:      -9.6      1.307      1.918
  Name = 
  3 active torsions:
  status: ('A' for Active; 'I' for Inactive)
    1  A    between atoms: C_2  and  CA_25
    2  A    between atoms: C_6  and  C_15
    3  A    between atoms: C_15  and  CA_25
                            x       y       z     vdW  Elec       q    Type
                         _______ _______ _______ _____ _____    ______ ____

>  <TORSDO>
F 3

$$$$
=
 OpenBabel10262419563D

 25 28  0  0  1  0  0  0  0  0999 V2000
  187.7640  177.5870  145.3200 C   0  0  0  0  0  0  0  0  0  0  0  0
  186.9920  178.0520  144.2530 C   0  0  0  0  0  0  0  0  0  0  0  0
  186.1400  178.3020  146.9520 C   0  0  0  0  0  3  0  0  0  0  0  0
  189.0650  176.8700  145.3150 C   0  0  2  0  0  3  0  0  0  0  0  0
  187.0930  178.7270  141.8510 C   0  0  2  0  0  3  0  0  0  0  0  0
  191.6630  176.9170  146.5570 C   0  0  0  0  0  3  0  0  0  0  0  0
  185.3320  178.7720  145.9060 C   0  0  0  0  0  3  0  0  0  0  0  0
  189.2830  176.7440  146.8010 C   0  0  0  0  0  0  0  0  0  0  0  0
  190.6340  176.5270  147.3220 C   0  0  0  0  0  3  0  0  0  0  0  0
  184.8140  179.1050  143.4390 C   0  0  2  0  0  3  0  0  0  0  0  0
  183.4010  179.4320  143.9040 C   0  0  0  0  0  1  0  0  0  0  0  0
  187.4890  177.9070  142.9490 O   0  0  0  0  0  0  0  0  0  0  0  0
  191.4300  177.5930  145.2530 C   0  0  0  0  0  3  0  0  0  0  0  0
  187.3440  177.6920  146.6210 C   0  0  0  0  0  0  0  0  0  0  0  0
  188.3130  177.2000  147.5330 N   0  0  0  0  0  0  0  0  0  0  0  0
  184.7480  178.0770  142.4080 N   0  0  0  0  0  2  0  0  0  0  0  0
  190.2080  177.6320  144.6960 C   0  0  0  0  0  3  0  0  0  0  0  0
  185.6870  178.3990  141.3350 C   0  0  0  0  0  2  0  0  0  0  0  0
  185.7280  178.6420  144.5520 C   0  0  0  0  0  0  0  0  0  0  0  0
  188.1240  178.6960  140.7180 C   0  0  0  0  0  2  0  0  0  0  0  0
  188.4490  177.1080  138.8520 N   0  0  0  0  0  1  0  0  0  0  0  0
  188.6160  177.3060  140.2830 C   0  0  1  0  0  3  0  0  0  0  0  0
  190.0160  177.0030  140.7120 C   0  0  0  0  0  0  0  0  0  0  0  0
  190.2640  176.0660  141.7090 O   0  0  0  0  0  1  0  0  0  0  0  0
  190.9800  177.5770  140.1420 O   0  0  0  0  0  0  0  0  0  0  0  0
  1 14  1  0  0  0  0
  2 19  1  0  0  0  0
  2  1  2  0  0  0  0
  4 17  1  1  0  0  0
  4  1  1  0  0  0  0
  4  8  1  0  0  0  0
  5 20  1  6  0  0  0
  5 12  1  0  0  0  0
  6  9  2  0  0  0  0
  7  3  1  0  0  0  0
  8  9  1  0  0  0  0
  8 15  2  0  0  0  0
 10 11  1  1  0  0  0
 10 19  1  0  0  0  0
 12  2  1  0  0  0  0
 13  6  1  0  0  0  0
 14  3  2  0  0  0  0
 14 15  1  0  0  0  0
 16 10  1  0  0  0  0
 17 13  2  0  0  0  0
 18  5  1  0  0  0  0
 18 16  1  0  0  0  0
 19  7  2  0  0  0  0
 22 21  1  6  0  0  0
 22 23  1  0  0  0  0
 22 20  1  0  0  0  0
 23 24  1  0  0  0  0
 25 23  2  0  0  0  0
M  END
>  <MODEL>
3

>  <REMARK>
 VINA RESULT:      -9.4      1.728      5.039
  Name = 
  3 active torsions:
  status: ('A' for Active; 'I' for Inactive)
    1  A    between atoms: C_2  and  CA_25
    2  A    between atoms: C_6  and  C_15
    3  A    between atoms: C_15  and  CA_25
                            x       y       z     vdW  Elec       q    Type
                         _______ _______ _______ _____ _____    ______ ____

>  <TORSDO>
F 3

$$$$
=
 OpenBabel10262419563D

 25 28  0  0  1  0  0  0  0  0999 V2000
  186.7440  178.2940  144.7810 C   0  0  0  0  0  0  0  0  0  0  0  0
  187.9680  177.8880  144.2450 C   0  0  0  0  0  0  0  0  0  0  0  0
  187.3590  177.5930  147.0050 C   0  0  0  0  0  3  0  0  0  0  0  0
  185.5900  178.9640  144.1270 C   0  0  2  0  0  3  0  0  0  0  0  0
  189.1180  177.2800  142.1140 C   0  0  2  0  0  3  0  0  0  0  0  0
  182.7250  178.7860  143.8930 C   0  0  0  0  0  3  0  0  0  0  0  0
  188.6040  177.1830  146.5040 C   0  0  0  0  0  3  0  0  0  0  0  0
  184.6500  179.0380  145.3020 C   0  0  0  0  0  0  0  0  0  0  0  0
  183.2110  179.1910  145.0740 C   0  0  0  0  0  3  0  0  0  0  0  0
  190.3060  176.9390  144.6300 C   0  0  2  0  0  3  0  0  0  0  0  0
  191.3070  176.6510  145.7410 C   0  0  0  0  0  1  0  0  0  0  0  0
  188.1870  178.0520  142.8690 O   0  0  0  0  0  0  0  0  0  0  0  0
  183.6130  178.1560  142.8790 C   0  0  0  0  0  3  0  0  0  0  0  0
  186.4580  178.1680  146.1160 C   0  0  0  0  0  0  0  0  0  0  0  0
  185.1400  178.5980  146.4200 N   0  0  0  0  0  0  0  0  0  0  0  0
  190.8330  177.9990  143.7790 N   0  0  0  0  0  2  0  0  0  0  0  0
  184.9500  178.1780  143.0120 C   0  0  0  0  0  3  0  0  0  0  0  0
  190.5760  177.6730  142.3770 C   0  0  0  0  0  2  0  0  0  0  0  0
  188.9360  177.3370  145.1350 C   0  0  0  0  0  0  0  0  0  0  0  0
  188.7960  177.3050  140.6160 C   0  0  0  0  0  2  0  0  0  0  0  0
  190.5860  176.1190  139.3940 N   0  0  0  0  0  1  0  0  0  0  0  0
  189.9960  177.4200  139.6630 C   0  0  1  0  0  3  0  0  0  0  0  0
  189.6870  178.1480  138.3940 C   0  0  0  0  0  0  0  0  0  0  0  0
  190.0640  177.6180  137.1650 O   0  0  0  0  0  0  0  0  0  0  0  0
  189.0510  179.2320  138.4360 O   0  0  0  0  0  1  0  0  0  0  0  0
  1 14  1  0  0  0  0
  2  1  2  0  0  0  0
  2 19  1  0  0  0  0
  4 17  1  6  0  0  0
  4  1  1  0  0  0  0
  4  8  1  0  0  0  0
  5 20  1  6  0  0  0
  5 18  1  0  0  0  0
  5 12  1  0  0  0  0
  6  9  2  0  0  0  0
  7  3  1  0  0  0  0
  8 15  2  0  0  0  0
  9  8  1  0  0  0  0
 10 19  1  0  0  0  0
 10 11  1  1  0  0  0
 12  2  1  0  0  0  0
 13 17  2  0  0  0  0
 13  6  1  0  0  0  0
 14 15  1  0  0  0  0
 14  3  2  0  0  0  0
 16 10  1  0  0  0  0
 18 16  1  0  0  0  0
 19  7  2  0  0  0  0
 22 21  1  6  0  0  0
 22 20  1  0  0  0  0
 23 25  1  0  0  0  0
 23 22  1  0  0  0  0
 24 23  2  0  0  0  0
M  END
>  <MODEL>
4

>  <REMARK>
 VINA RESULT:      -9.2      1.232      1.693
  Name = 
  3 active torsions:
  status: ('A' for Active; 'I' for Inactive)
    1  A    between atoms: C_2  and  CA_25
    2  A    between atoms: C_6  and  C_15
    3  A    between atoms: C_15  and  CA_25
                            x       y       z     vdW  Elec       q    Type
                         _______ _______ _______ _____ _____    ______ ____

>  <TORSDO>
F 3

$$$$
=
 OpenBabel10262419563D

 25 28  0  0  1  0  0  0  0  0999 V2000
  188.7720  177.2440  143.6660 C   0  0  0  0  0  0  0  0  0  0  0  0
  187.8870  177.6970  144.6460 C   0  0  0  0  0  0  0  0  0  0  0  0
  190.5480  176.9150  145.2640 C   0  0  0  0  0  3  0  0  0  0  0  0
  188.5580  177.0260  142.2120 C   0  0  2  0  0  3  0  0  0  0  0  0
  185.7770  178.9860  144.9990 C   0  0  2  0  0  3  0  0  0  0  0  0
  189.7520  177.5940  139.6530 C   0  0  0  0  0  3  0  0  0  0  0  0
  189.6820  177.3550  146.2780 C   0  0  0  0  0  3  0  0  0  0  0  0
  189.9450  176.5850  141.8220 C   0  0  0  0  0  0  0  0  0  0  0  0
  190.3770  176.6950  140.4260 C   0  0  0  0  0  3  0  0  0  0  0  0
  187.4160  178.1480  147.1140 C   0  0  2  0  0  3  0  0  0  0  0  0
  187.9600  177.8520  148.5050 C   0  0  0  0  0  1  0  0  0  0  0  0
  186.5940  178.0800  144.2590 O   0  0  0  0  0  0  0  0  0  0  0  0
  188.6960  178.4790  140.2140 C   0  0  0  0  0  3  0  0  0  0  0  0
  190.0510  176.8500  143.9680 C   0  0  0  0  0  0  0  0  0  0  0  0
  190.7800  176.4800  142.8090 N   0  0  0  0  0  0  0  0  0  0  0  0
  186.1330  177.4730  146.9520 N   0  0  0  0  0  2  0  0  0  0  0  0
  188.1780  178.2600  141.4350 C   0  0  0  0  0  3  0  0  0  0  0  0
  185.1940  178.3630  146.2730 C   0  0  0  0  0  2  0  0  0  0  0  0
  188.3460  177.7320  145.9950 C   0  0  0  0  0  0  0  0  0  0  0  0
  184.6790  179.6040  144.1260 C   0  0  0  0  0  2  0  0  0  0  0  0
  182.4130  178.8410  143.5040 N   0  0  0  0  0  1  0  0  0  0  0  0
  183.8350  178.6210  143.2980 C   0  0  1  0  0  3  0  0  0  0  0  0
  184.1780  178.6160  141.8420 C   0  0  0  0  0  0  0  0  0  0  0  0
  183.5800  177.7040  140.9790 O   0  0  0  0  0  0  0  0  0  0  0  0
  184.9880  179.4650  141.3900 O   0  0  0  0  0  1  0  0  0  0  0  0
  1 14  2  0  0  0  0
  1  2  1  0  0  0  0
  2 19  2  0  0  0  0
  3  7  2  0  0  0  0
  4 17  1  6  0  0  0
  4  1  1  0  0  0  0
  5 20  1  6  0  0  0
  5 18  1  0  0  0  0
  6 13  1  0  0  0  0
  6  9  2  0  0  0  0
  8  4  1  0  0  0  0
  8 15  2  0  0  0  0
  9  8  1  0  0  0  0
 10 11  1  1  0  0  0
 12  2  1  0  0  0  0
 12  5  1  0  0  0  0
 13 17  2  0  0  0  0
 14  3  1  0  0  0  0
 15 14  1  0  0  0  0
 16 10  1  0  0  0  0
 18 16  1  0  0  0  0
 19  7  1  0  0  0  0
 19 10  1  0  0  0  0
 22 21  1  6  0  0  0
 22 20  1  0  0  0  0
 23 22  1  0  0  0  0
 24 23  2  0  0  0  0
 25 23  1  0  0  0  0
M  END
>  <MODEL>
5

>  <REMARK>
 VINA RESULT:      -9.1      1.720      5.313
  Name = 
  3 active torsions:
  status: ('A' for Active; 'I' for Inactive)
    1  A    between atoms: C_2  and  CA_25
    2  A    between atoms: C_6  and  C_15
    3  A    between atoms: C_15  and  CA_25
                            x       y       z     vdW  Elec       q    Type
                         _______ _______ _______ _____ _____    ______ ____

>  <TORSDO>
F 3

$$$$
=
 OpenBabel10262419563D

 25 28  0  0  1  0  0  0  0  0999 V2000
  187.2200  178.3420  142.3110 C   0  0  0  0  0  0  0  0  0  0  0  0
  186.5880  178.2850  143.5550 C   0  0  0  0  0  0  0  0  0  0  0  0
  185.1410  178.7130  141.1480 C   0  0  0  0  0  3  0  0  0  0  0  0
  188.6630  178.2590  141.9680 C   0  0  2  0  0  3  0  0  0  0  0  0
  186.8650  177.4950  145.9070 C   0  0  2  0  0  3  0  0  0  0  0  0
  190.4730  176.9280  140.1650 C   0  0  0  0  0  3  0  0  0  0  0  0
  184.4720  178.6710  142.3810 C   0  0  0  0  0  3  0  0  0  0  0  0
  188.5660  178.3530  140.4670 C   0  0  0  0  0  0  0  0  0  0  0  0
  189.6640  177.8560  139.6350 C   0  0  0  0  0  3  0  0  0  0  0  0
  184.4400  178.4930  144.9170 C   0  0  2  0  0  3  0  0  0  0  0  0
  183.0070  178.9980  144.8130 C   0  0  0  0  0  1  0  0  0  0  0  0
  187.3700  178.0540  144.6970 O   0  0  0  0  0  0  0  0  0  0  0  0
  190.2230  176.3900  141.5290 C   0  0  0  0  0  3  0  0  0  0  0  0
  186.5230  178.5670  141.1520 C   0  0  0  0  0  0  0  0  0  0  0  0
  187.3650  178.5320  140.0100 N   0  0  0  0  0  0  0  0  0  0  0  0
  185.1690  179.3260  145.8660 N   0  0  0  0  0  2  0  0  0  0  0  0
  189.3330  176.9660  142.3550 C   0  0  0  0  0  3  0  0  0  0  0  0
  186.0110  178.4810  146.7120 C   0  0  0  0  0  2  0  0  0  0  0  0
  185.1760  178.4780  143.5960 C   0  0  0  0  0  0  0  0  0  0  0  0
  187.9830  176.8950  146.7670 C   0  0  0  0  0  2  0  0  0  0  0  0
  189.2180  178.2780  148.4000 N   0  0  0  0  0  1  0  0  0  0  0  0
  189.1990  177.7980  147.0280 C   0  0  1  0  0  3  0  0  0  0  0  0
  190.5040  177.1700  146.6560 C   0  0  0  0  0  0  0  0  0  0  0  0
  191.5140  177.0240  147.6000 O   0  0  0  0  0  1  0  0  0  0  0  0
  190.6770  176.7390  145.4870 O   0  0  0  0  0  0  0  0  0  0  0  0
  1  2  1  0  0  0  0
  2 19  2  0  0  0  0
  2 12  1  0  0  0  0
  3 14  1  0  0  0  0
  3  7  2  0  0  0  0
  4  1  1  0  0  0  0
  4 17  1  6  0  0  0
  5 18  1  0  0  0  0
  5 20  1  1  0  0  0
  6 13  1  0  0  0  0
  7 19  1  0  0  0  0
  8  4  1  0  0  0  0
  9  6  2  0  0  0  0
  9  8  1  0  0  0  0
 10 11  1  6  0  0  0
 10 16  1  0  0  0  0
 12  5  1  0  0  0  0
 13 17  2  0  0  0  0
 14  1  2  0  0  0  0
 15  8  2  0  0  0  0
 15 14  1  0  0  0  0
 16 18  1  0  0  0  0
 19 10  1  0  0  0  0
 20 22  1  0  0  0  0
 22 21  1  1  0  0  0
 23 22  1  0  0  0  0
 23 24  1  0  0  0  0
 25 23  2  0  0  0  0
M  END
>  <MODEL>
6

>  <REMARK>
 VINA RESULT:      -8.9      2.139      5.941
  Name = 
  3 active torsions:
  status: ('A' for Active; 'I' for Inactive)
    1  A    between atoms: C_2  and  CA_25
    2  A    between atoms: C_6  and  C_15
    3  A    between atoms: C_15  and  CA_25
                            x       y       z     vdW  Elec       q    Type
                         _______ _______ _______ _____ _____    ______ ____

>  <TORSDO>
F 3

$$$$
=
 OpenBabel10262419563D

 25 28  0  0  1  0  0  0  0  0999 V2000
  187.2540  177.6540  145.0930 C   0  0  0  0  0  0  0  0  0  0  0  0
  186.4970  178.0680  143.9950 C   0  0  0  0  0  0  0  0  0  0  0  0
  185.5610  178.3500  146.6630 C   0  0  0  0  0  3  0  0  0  0  0  0
  188.5780  176.9820  145.1420 C   0  0  2  0  0  3  0  0  0  0  0  0
  186.6420  178.6890  141.5810 C   0  0  2  0  0  3  0  0  0  0  0  0
  191.1370  177.1490  146.4530 C   0  0  0  0  0  3  0  0  0  0  0  0
  184.7670  178.7680  145.5840 C   0  0  0  0  0  3  0  0  0  0  0  0
  188.7580  176.8990  146.6360 C   0  0  0  0  0  0  0  0  0  0  0  0
  190.1010  176.7410  147.1990 C   0  0  0  0  0  3  0  0  0  0  0  0
  184.3080  179.0250  143.0960 C   0  0  2  0  0  3  0  0  0  0  0  0
  182.8720  179.3130  143.5150 C   0  0  0  0  0  1  0  0  0  0  0  0
  187.0350  177.9100  142.7090 O   0  0  0  0  0  0  0  0  0  0  0  0
  190.9180  177.7860  145.1270 C   0  0  0  0  0  3  0  0  0  0  0  0
  186.7940  177.7740  146.3800 C   0  0  0  0  0  0  0  0  0  0  0  0
  187.7530  177.3380  147.3300 N   0  0  0  0  0  0  0  0  0  0  0  0
  184.3070  177.9710  142.0890 N   0  0  0  0  0  2  0  0  0  0  0  0
  189.7110  177.7700  144.5360 C   0  0  0  0  0  3  0  0  0  0  0  0
  185.2640  178.3010  141.0350 C   0  0  0  0  0  2  0  0  0  0  0  0
  185.2060  178.6190  144.2440 C   0  0  0  0  0  0  0  0  0  0  0  0
  187.7060  178.6680  140.4770 C   0  0  0  0  0  2  0  0  0  0  0  0
  186.8820  178.7270  138.1490 N   0  0  0  0  0  1  0  0  0  0  0  0
  187.3610  177.8620  139.2150 C   0  0  1  0  0  3  0  0  0  0  0  0
  188.4730  176.9820  138.7410 C   0  0  0  0  0  0  0  0  0  0  0  0
  189.6270  176.8300  139.5020 O   0  0  0  0  0  1  0  0  0  0  0  0
  188.3500  176.3490  137.6620 O   0  0  0  0  0  0  0  0  0  0  0  0
  1  4  1  0  0  0  0
  1 14  1  0  0  0  0
  2 19  1  0  0  0  0
  2  1  2  0  0  0  0
  4 17  1  6  0  0  0
  4  8  1  0  0  0  0
  5 20  1  6  0  0  0
  5 12  1  0  0  0  0
  6  9  2  0  0  0  0
  7  3  1  0  0  0  0
  8  9  1  0  0  0  0
  8 15  2  0  0  0  0
 10 11  1  1  0  0  0
 10 19  1  0  0  0  0
 12  2  1  0  0  0  0
 13  6  1  0  0  0  0
 14  3  2  0  0  0  0
 14 15  1  0  0  0  0
 16 10  1  0  0  0  0
 17 13  2  0  0  0  0
 18  5  1  0  0  0  0
 18 16  1  0  0  0  0
 19  7  2  0  0  0  0
 22 21  1  6  0  0  0
 22 20  1  0  0  0  0
 23 22  1  0  0  0  0
 23 24  1  0  0  0  0
 25 23  2  0  0  0  0
M  END
>  <MODEL>
7

>  <REMARK>
 VINA RESULT:      -8.9      1.861      4.987
  Name = 
  3 active torsions:
  status: ('A' for Active; 'I' for Inactive)
    1  A    between atoms: C_2  and  CA_25
    2  A    between atoms: C_6  and  C_15
    3  A    between atoms: C_15  and  CA_25
                            x       y       z     vdW  Elec       q    Type
                         _______ _______ _______ _____ _____    ______ ____

>  <TORSDO>
F 3

$$$$
=
 OpenBabel10262419563D

 25 28  0  0  1  0  0  0  0  0999 V2000
  187.0090  177.8280  143.0770 C   0  0  0  0  0  0  0  0  0  0  0  0
  187.9670  177.7140  142.0670 C   0  0  0  0  0  0  0  0  0  0  0  0
  185.4680  178.9970  141.6370 C   0  0  0  0  0  3  0  0  0  0  0  0
  187.0260  177.3140  144.4710 C   0  0  2  0  0  3  0  0  0  0  0  0
  190.3940  177.3110  141.6440 C   0  0  2  0  0  3  0  0  0  0  0  0
  186.5290  178.1520  147.1820 C   0  0  0  0  0  3  0  0  0  0  0  0
  186.4020  178.8920  140.5940 C   0  0  0  0  0  3  0  0  0  0  0  0
  185.7030  177.8550  144.9490 C   0  0  0  0  0  0  0  0  0  0  0  0
  185.4600  178.0190  146.3840 C   0  0  0  0  0  3  0  0  0  0  0  0
  188.6120  178.0910  139.6260 C   0  0  2  0  0  3  0  0  0  0  0  0
  188.0050  178.4370  138.2730 C   0  0  0  0  0  1  0  0  0  0  0  0
  189.1830  177.0800  142.3620 O   0  0  0  0  0  0  0  0  0  0  0  0
  187.9040  178.1820  146.6150 C   0  0  0  0  0  3  0  0  0  0  0  0
  185.7960  178.4310  142.8630 C   0  0  0  0  0  0  0  0  0  0  0  0
  185.0100  178.4760  144.0440 N   0  0  0  0  0  0  0  0  0  0  0  0
  189.1100  176.7210  139.5870 N   0  0  0  0  0  2  0  0  0  0  0  0
  188.1370  177.8540  145.3330 C   0  0  0  0  0  3  0  0  0  0  0  0
  190.4050  176.6520  140.2600 C   0  0  0  0  0  2  0  0  0  0  0  0
  187.6460  178.2400  140.7810 C   0  0  0  0  0  0  0  0  0  0  0  0
  191.6260  176.9080  142.4640 C   0  0  0  0  0  2  0  0  0  0  0  0
  192.0620  175.1750  144.1700 N   0  0  0  0  0  1  0  0  0  0  0  0
  191.3600  176.4180  143.8960 C   0  0  1  0  0  3  0  0  0  0  0  0
  191.6470  177.4450  144.9450 C   0  0  0  0  0  0  0  0  0  0  0  0
  191.8210  177.0700  146.2720 O   0  0  0  0  0  1  0  0  0  0  0  0
  191.7640  178.6530  144.6170 O   0  0  0  0  0  0  0  0  0  0  0  0
  1  4  1  0  0  0  0
  2 12  1  0  0  0  0
  2  1  2  0  0  0  0
  3 14  2  0  0  0  0
  4  8  1  0  0  0  0
  4 17  1  1  0  0  0
  5 12  1  0  0  0  0
  5 20  1  1  0  0  0
  7 19  2  0  0  0  0
  7  3  1  0  0  0  0
  8  9  1  0  0  0  0
  9  6  2  0  0  0  0
 10 11  1  6  0  0  0
 10 19  1  0  0  0  0
 13  6  1  0  0  0  0
 14  1  1  0  0  0  0
 14 15  1  0  0  0  0
 15  8  2  0  0  0  0
 16 10  1  0  0  0  0
 16 18  1  0  0  0  0
 17 13  2  0  0  0  0
 18  5  1  0  0  0  0
 19  2  1  0  0  0  0
 20 22  1  0  0  0  0
 22 21  1  1  0  0  0
 22 23  1  0  0  0  0
 23 24  1  0  0  0  0
 25 23  2  0  0  0  0
M  END
>  <MODEL>
8

>  <REMARK>
 VINA RESULT:      -8.8      2.107      5.023
  Name = 
  3 active torsions:
  status: ('A' for Active; 'I' for Inactive)
    1  A    between atoms: C_2  and  CA_25
    2  A    between atoms: C_6  and  C_15
    3  A    between atoms: C_15  and  CA_25
                            x       y       z     vdW  Elec       q    Type
                         _______ _______ _______ _____ _____    ______ ____

>  <TORSDO>
F 3

$$$$
=
 OpenBabel10262419563D

 25 28  0  0  1  0  0  0  0  0999 V2000
  186.8040  178.2240  144.0140 C   0  0  0  0  0  0  0  0  0  0  0  0
  187.9460  177.8180  143.3200 C   0  0  0  0  0  0  0  0  0  0  0  0
  187.6490  177.3920  146.1140 C   0  0  0  0  0  3  0  0  0  0  0  0
  185.6030  178.9530  143.5320 C   0  0  2  0  0  3  0  0  0  0  0  0
  188.8260  177.2960  141.0420 C   0  0  2  0  0  3  0  0  0  0  0  0
  182.7250  178.8550  143.6230 C   0  0  0  0  0  3  0  0  0  0  0  0
  188.8160  176.9800  145.4520 C   0  0  0  0  0  3  0  0  0  0  0  0
  184.8060  178.9880  144.8110 C   0  0  0  0  0  0  0  0  0  0  0  0
  183.3550  179.1860  144.7590 C   0  0  0  0  0  3  0  0  0  0  0  0
  190.2840  176.7960  143.3840 C   0  0  2  0  0  3  0  0  0  0  0  0
  191.3970  176.4270  144.3560 C   0  0  0  0  0  1  0  0  0  0  0  0
  188.0110  178.0490  141.9380 O   0  0  0  0  0  0  0  0  0  0  0  0
  183.4720  178.2590  142.4830 C   0  0  0  0  0  3  0  0  0  0  0  0
  186.6690  178.0340  145.3650 C   0  0  0  0  0  0  0  0  0  0  0  0
  185.4080  178.4780  145.8410 N   0  0  0  0  0  0  0  0  0  0  0  0
  190.7410  177.8860  142.5310 N   0  0  0  0  0  2  0  0  0  0  0  0
  184.8160  178.2430  142.4620 C   0  0  0  0  0  3  0  0  0  0  0  0
  190.3150  177.6410  141.1540 C   0  0  0  0  0  2  0  0  0  0  0  0
  188.9930  177.1990  144.0630 C   0  0  0  0  0  0  0  0  0  0  0  0
  188.3350  177.4080  139.5950 C   0  0  0  0  0  2  0  0  0  0  0  0
  189.5870  176.0720  137.9360 N   0  0  0  0  0  1  0  0  0  0  0  0
  189.4190  177.3990  138.5060 C   0  0  1  0  0  3  0  0  0  0  0  0
  189.2050  178.4240  137.4380 C   0  0  0  0  0  0  0  0  0  0  0  0
  189.0390  179.7640  137.7670 O   0  0  0  0  0  1  0  0  0  0  0  0
  189.2090  178.0740  136.2290 O   0  0  0  0  0  0  0  0  0  0  0  0
  1 14  1  0  0  0  0
  2  1  2  0  0  0  0
  2 19  1  0  0  0  0
  4 17  1  6  0  0  0
  4  1  1  0  0  0  0
  4  8  1  0  0  0  0
  5 20  1  6  0  0  0
  5 18  1  0  0  0  0
  5 12  1  0  0  0  0
  6  9  2  0  0  0  0
  7  3  1  0  0  0  0
  8 15  2  0  0  0  0
  9  8  1  0  0  0  0
 10 19  1  0  0  0  0
 10 11  1  1  0  0  0
 12  2  1  0  0  0  0
 13  6  1  0  0  0  0
 14 15  1  0  0  0  0
 14  3  2  0  0  0  0
 16 10  1  0  0  0  0
 17 13  2  0  0  0  0
 18 16  1  0  0  0  0
 19  7  2  0  0  0  0
 22 21  1  6  0  0  0
 22 20  1  0  0  0  0
 23 24  1  0  0  0  0
 23 22  1  0  0  0  0
 25 23  2  0  0  0  0
M  END
>  <MODEL>
9

>  <REMARK>
 VINA RESULT:      -8.6      1.438      2.198
  Name = 
  3 active torsions:
  status: ('A' for Active; 'I' for Inactive)
    1  A    between atoms: C_2  and  CA_25
    2  A    between atoms: C_6  and  C_15
    3  A    between atoms: C_15  and  CA_25
                            x       y       z     vdW  Elec       q    Type
                         _______ _______ _______ _____ _____    ______ ____

>  <TORSDO>
F 3

$$$$
