=
 OpenBabel10262419543D

 25 29  0  0  1  0  0  0  0  0999 V2000
  186.3790  178.2360  144.9040 N   0  0  0  0  0  0  0  0  0  0  0  0
  185.9730  177.6230  143.6400 C   0  0  2  0  0  3  0  0  0  0  0  0
  184.1890  179.0410  145.3410 N   0  0  0  0  0  0  0  0  0  0  0  0
  187.5110  177.8590  145.6750 C   0  0  0  0  0  0  0  0  0  0  0  0
  186.9860  178.6930  141.9020 N   0  0  0  0  0  0  0  0  0  0  0  0
  189.5750  177.1930  147.4190 C   0  0  0  0  0  3  0  0  0  0  0  0
  183.8620  178.8840  143.9490 C   0  0  0  0  0  3  0  0  0  0  0  0
  187.4030  178.1590  147.0250 C   0  0  0  0  0  0  0  0  0  0  0  0
  188.4270  177.8290  147.9130 C   0  0  0  0  0  3  0  0  0  0  0  0
  184.6050  178.3630  141.6300 C   0  0  2  0  0  0  0  0  0  0  0  0
  183.4260  177.8510  140.9100 C   0  0  0  0  0  2  0  0  0  0  0  0
  187.0340  177.5710  142.6880 O   0  0  0  0  0  0  0  0  0  0  0  0
  189.6850  176.8890  146.0520 C   0  0  0  0  0  3  0  0  0  0  0  0
  185.3840  178.7690  145.7760 C   0  0  0  0  0  0  0  0  0  0  0  0
  185.8580  178.9410  147.4990 S   0  0  0  0  0  0  0  0  0  0  0  0
  183.6010  179.2300  141.1690 O   0  0  0  0  0  0  0  0  0  0  0  0
  188.6460  177.2190  145.1700 C   0  0  0  0  0  3  0  0  0  0  0  0
  185.9240  178.5310  140.8980 C   0  0  0  0  0  2  0  0  0  0  0  0
  184.6940  178.2430  143.1150 C   0  0  0  0  0  0  0  0  0  0  0  0
  188.2740  178.8510  141.2220 C   0  0  0  0  0  2  0  0  0  0  0  0
  189.0490  177.5360  141.0730 C   0  0  2  0  0  3  0  0  0  0  0  0
  190.2560  177.5900  141.7820 O   0  0  0  0  0  1  0  0  0  0  0  0
  189.2650  177.2220  139.6550 N   0  0  0  0  0  0  0  0  0  0  0  0
  190.6230  176.7290  139.5040 C   0  0  0  0  0  1  0  0  0  0  0  0
  189.1460  178.4240  138.8370 C   0  0  0  0  0  1  0  0  0  0  0  0
  1  4  1  0  0  0  0
  1 14  1  0  0  0  0
  2 12  1  6  0  0  0
  2  1  1  0  0  0  0
  3 14  2  0  0  0  0
  4  8  1  0  0  0  0
  5 12  1  0  0  0  0
  6  9  1  0  0  0  0
  7  3  1  0  0  0  0
  8 15  1  0  0  0  0
  8  9  2  0  0  0  0
 10 18  1  6  0  0  0
 10 19  1  0  0  0  0
 11 16  1  0  0  0  0
 11 10  1  0  0  0  0
 13  6  2  0  0  0  0
 14 15  1  0  0  0  0
 16 10  1  0  0  0  0
 17  4  2  0  0  0  0
 17 13  1  0  0  0  0
 18  5  1  0  0  0  0
 19  2  1  0  0  0  0
 19  7  2  0  0  0  0
 20  5  1  0  0  0  0
 21 20  1  0  0  0  0
 21 22  1  1  0  0  0
 23 21  1  0  0  0  0
 24 23  1  0  0  0  0
 25 23  1  0  0  0  0
M  END
>  <MODEL>
1

>  <REMARK>
 VINA RESULT:      -8.4      0.000      0.000
  Name = 
  3 active torsions:
  status: ('A' for Active; 'I' for Inactive)
    1  A    between atoms: N_2  and  C_21
    2  A    between atoms: N_6  and  C_15
    3  A    between atoms: C_15  and  C_21
                            x       y       z     vdW  Elec       q    Type
                         _______ _______ _______ _____ _____    ______ ____

>  <TORSDO>
F 3

$$$$
=
 OpenBabel10262419543D

 25 29  0  0  1  0  0  0  0  0999 V2000
  188.2150  177.6540  145.2200 N   0  0  0  0  0  0  0  0  0  0  0  0
  187.3960  177.2560  144.0760 C   0  0  2  0  0  3  0  0  0  0  0  0
  186.3360  178.4620  146.4240 N   0  0  0  0  0  0  0  0  0  0  0  0
  189.4930  177.1230  145.5410 C   0  0  0  0  0  0  0  0  0  0  0  0
  187.9160  178.5410  142.2690 N   0  0  0  0  0  0  0  0  0  0  0  0
  191.9280  176.1250  146.4460 C   0  0  0  0  0  3  0  0  0  0  0  0
  185.5890  178.5310  145.1970 C   0  0  0  0  0  3  0  0  0  0  0  0
  189.8260  177.2180  146.8840 C   0  0  0  0  0  0  0  0  0  0  0  0
  191.0420  176.7190  147.3550 C   0  0  0  0  0  3  0  0  0  0  0  0
  185.5470  178.3430  142.7130 C   0  0  2  0  0  0  0  0  0  0  0  0
  184.1670  177.9910  142.3370 C   0  0  0  0  0  2  0  0  0  0  0  0
  188.1090  177.3120  142.8430 O   0  0  0  0  0  0  0  0  0  0  0  0
  191.5920  176.0290  145.0860 C   0  0  0  0  0  3  0  0  0  0  0  0
  187.5800  178.0830  146.4230 C   0  0  0  0  0  0  0  0  0  0  0  0
  188.5680  177.9740  147.9180 S   0  0  0  0  0  0  0  0  0  0  0  0
  184.5250  179.3070  142.7100 O   0  0  0  0  0  0  0  0  0  0  0  0
  190.3660  176.5270  144.6250 C   0  0  0  0  0  3  0  0  0  0  0  0
  186.5900  178.5740  141.6350 C   0  0  0  0  0  2  0  0  0  0  0  0
  186.0730  177.9950  144.0660 C   0  0  0  0  0  0  0  0  0  0  0  0
  188.9450  178.7550  141.2470 C   0  0  0  0  0  2  0  0  0  0  0  0
  189.6310  177.4600  140.7960 C   0  0  2  0  0  3  0  0  0  0  0  0
  190.9970  177.4890  141.1100 O   0  0  0  0  0  1  0  0  0  0  0  0
  189.4090  177.2310  139.3630 N   0  0  0  0  0  0  0  0  0  0  0  0
  190.6310  176.6860  138.7970 C   0  0  0  0  0  1  0  0  0  0  0  0
  189.1330  178.4880  138.6760 C   0  0  0  0  0  1  0  0  0  0  0  0
  1  4  1  0  0  0  0
  1 14  1  0  0  0  0
  2 12  1  6  0  0  0
  2  1  1  0  0  0  0
  4  8  1  0  0  0  0
  5 12  1  0  0  0  0
  6  9  1  0  0  0  0
  7  3  1  0  0  0  0
  8  9  2  0  0  0  0
  8 15  1  0  0  0  0
 10 18  1  6  0  0  0
 10 19  1  0  0  0  0
 11 16  1  0  0  0  0
 11 10  1  0  0  0  0
 13  6  2  0  0  0  0
 14  3  2  0  0  0  0
 14 15  1  0  0  0  0
 16 10  1  0  0  0  0
 17 13  1  0  0  0  0
 17  4  2  0  0  0  0
 18  5  1  0  0  0  0
 19  2  1  0  0  0  0
 19  7  2  0  0  0  0
 20  5  1  0  0  0  0
 21 22  1  6  0  0  0
 21 20  1  0  0  0  0
 23 21  1  0  0  0  0
 24 23  1  0  0  0  0
 25 23  1  0  0  0  0
M  END
>  <MODEL>
2

>  <REMARK>
 VINA RESULT:      -8.4      1.352      1.833
  Name = 
  3 active torsions:
  status: ('A' for Active; 'I' for Inactive)
    1  A    between atoms: N_2  and  C_21
    2  A    between atoms: N_6  and  C_15
    3  A    between atoms: C_15  and  C_21
                            x       y       z     vdW  Elec       q    Type
                         _______ _______ _______ _____ _____    ______ ____

>  <TORSDO>
F 3

$$$$
=
 OpenBabel10262419543D

 25 29  0  0  1  0  0  0  0  0999 V2000
  187.1830  178.1150  142.7100 N   0  0  0  0  0  0  0  0  0  0  0  0
  188.2210  177.1670  142.3090 C   0  0  2  0  0  3  0  0  0  0  0  0
  186.6790  178.6820  140.4610 N   0  0  0  0  0  0  0  0  0  0  0  0
  186.4880  178.0980  143.9490 C   0  0  0  0  0  0  0  0  0  0  0  0
  190.2610  177.9240  142.9830 N   0  0  0  0  0  0  0  0  0  0  0  0
  184.8980  178.1680  146.2320 C   0  0  0  0  0  3  0  0  0  0  0  0
  187.9510  178.1530  140.0500 C   0  0  0  0  0  3  0  0  0  0  0  0
  185.2360  178.6930  143.9050 C   0  0  0  0  0  0  0  0  0  0  0  0
  184.4240  178.7340  145.0400 C   0  0  0  0  0  3  0  0  0  0  0  0
  190.1680  177.2040  140.6750 C   0  0  2  0  0  0  0  0  0  0  0  0
  190.6100  176.3730  139.5420 C   0  0  0  0  0  2  0  0  0  0  0  0
  189.2570  177.0410  143.2810 O   0  0  0  0  0  0  0  0  0  0  0  0
  186.1660  177.5660  146.2770 C   0  0  0  0  0  3  0  0  0  0  0  0
  186.3390  178.6940  141.7160 C   0  0  0  0  0  0  0  0  0  0  0  0
  184.7670  179.3380  142.2960 S   0  0  0  0  0  0  0  0  0  0  0  0
  190.6880  177.7850  139.5070 O   0  0  0  0  0  0  0  0  0  0  0  0
  186.9690  177.5250  145.1290 C   0  0  0  0  0  3  0  0  0  0  0  0
  191.0710  177.3790  141.8820 C   0  0  0  0  0  2  0  0  0  0  0  0
  188.7150  177.4560  140.9050 C   0  0  0  0  0  0  0  0  0  0  0  0
  191.1080  178.0970  144.1660 C   0  0  0  0  0  2  0  0  0  0  0  0
  190.8060  177.0900  145.2820 C   0  0  2  0  0  3  0  0  0  0  0  0
  190.2880  177.7430  146.4100 O   0  0  0  0  0  1  0  0  0  0  0  0
  192.0050  176.3090  145.6100 N   0  0  0  0  0  0  0  0  0  0  0  0
  192.0150  175.1240  144.7700 C   0  0  0  0  0  1  0  0  0  0  0  0
  191.9640  175.8590  146.9970 C   0  0  0  0  0  1  0  0  0  0  0  0
  1  4  1  0  0  0  0
  2 19  1  6  0  0  0
  2  1  1  0  0  0  0
  2 12  1  0  0  0  0
  3 14  2  0  0  0  0
  4 17  1  0  0  0  0
  5 12  1  0  0  0  0
  5 20  1  0  0  0  0
  6 13  1  0  0  0  0
  7  3  1  0  0  0  0
  7 19  2  0  0  0  0
  8  4  2  0  0  0  0
  8  9  1  0  0  0  0
  9  6  2  0  0  0  0
 10 11  1  6  0  0  0
 10 19  1  0  0  0  0
 10 18  1  0  0  0  0
 14 15  1  0  0  0  0
 14  1  1  0  0  0  0
 15  8  1  0  0  0  0
 16 11  1  0  0  0  0
 16 10  1  0  0  0  0
 17 13  2  0  0  0  0
 18  5  1  0  0  0  0
 20 21  1  0  0  0  0
 21 23  1  0  0  0  0
 21 22  1  1  0  0  0
 23 25  1  0  0  0  0
 24 23  1  0  0  0  0
M  END
>  <MODEL>
3

>  <REMARK>
 VINA RESULT:      -8.3      2.502      5.037
  Name = 
  3 active torsions:
  status: ('A' for Active; 'I' for Inactive)
    1  A    between atoms: N_2  and  C_21
    2  A    between atoms: N_6  and  C_15
    3  A    between atoms: C_15  and  C_21
                            x       y       z     vdW  Elec       q    Type
                         _______ _______ _______ _____ _____    ______ ____

>  <TORSDO>
F 3

$$$$
=
 OpenBabel10262419543D

 25 29  0  0  1  0  0  0  0  0999 V2000
  185.4880  178.3970  144.2840 N   0  0  0  0  0  0  0  0  0  0  0  0
  186.7720  178.7070  144.9100 C   0  0  2  0  0  3  0  0  0  0  0  0
  184.3340  178.4810  146.3570 N   0  0  0  0  0  0  0  0  0  0  0  0
  185.1660  178.6090  142.9170 C   0  0  0  0  0  0  0  0  0  0  0  0
  188.1680  176.9150  144.7390 N   0  0  0  0  0  0  0  0  0  0  0  0
  184.2660  179.0760  140.3250 C   0  0  0  0  0  3  0  0  0  0  0  0
  185.5830  178.3170  147.0500 C   0  0  0  0  0  3  0  0  0  0  0  0
  183.8110  178.7670  142.6710 C   0  0  0  0  0  0  0  0  0  0  0  0
  183.3430  179.0050  141.3780 C   0  0  0  0  0  3  0  0  0  0  0  0
  188.0330  177.8770  146.9540 C   0  0  2  0  0  0  0  0  0  0  0  0
  188.6240  178.4970  148.1530 C   0  0  0  0  0  2  0  0  0  0  0  0
  187.8770  178.1430  144.2070 O   0  0  0  0  0  0  0  0  0  0  0  0
  185.6390  178.9170  140.5740 C   0  0  0  0  0  3  0  0  0  0  0  0
  184.2920  178.4810  145.0570 C   0  0  0  0  0  0  0  0  0  0  0  0
  182.7680  178.6820  144.1300 S   0  0  0  0  0  0  0  0  0  0  0  0
  187.9210  177.2710  148.2170 O   0  0  0  0  0  0  0  0  0  0  0  0
  186.0980  178.6840  141.8770 C   0  0  0  0  0  3  0  0  0  0  0  0
  188.9130  177.0980  145.9940 C   0  0  0  0  0  2  0  0  0  0  0  0
  186.7510  178.3920  146.3920 C   0  0  0  0  0  0  0  0  0  0  0  0
  188.9980  176.1700  143.7890 C   0  0  0  0  0  2  0  0  0  0  0  0
  189.6960  177.0660  142.7590 C   0  0  2  0  0  3  0  0  0  0  0  0
  189.3290  176.7000  141.4560 O   0  0  0  0  0  1  0  0  0  0  0  0
  191.1520  177.0280  142.9430 N   0  0  0  0  0  0  0  0  0  0  0  0
  191.4780  175.8460  143.7220 C   0  0  0  0  0  1  0  0  0  0  0  0
  191.6060  178.1880  143.7030 C   0  0  0  0  0  1  0  0  0  0  0  0
  1  2  1  0  0  0  0
  1 14  1  0  0  0  0
  2 12  1  6  0  0  0
  2 19  1  0  0  0  0
  3  7  1  0  0  0  0
  4  1  1  0  0  0  0
  5 18  1  0  0  0  0
  6 13  2  0  0  0  0
  6  9  1  0  0  0  0
  8  4  1  0  0  0  0
  8 15  1  0  0  0  0
  9  8  2  0  0  0  0
 10 18  1  6  0  0  0
 10 11  1  0  0  0  0
 10 16  1  0  0  0  0
 11 16  1  0  0  0  0
 12  5  1  0  0  0  0
 13 17  1  0  0  0  0
 14  3  2  0  0  0  0
 15 14  1  0  0  0  0
 17  4  2  0  0  0  0
 19 10  1  0  0  0  0
 19  7  2  0  0  0  0
 20  5  1  0  0  0  0
 21 22  1  6  0  0  0
 21 23  1  0  0  0  0
 21 20  1  0  0  0  0
 23 25  1  0  0  0  0
 23 24  1  0  0  0  0
M  END
>  <MODEL>
4

>  <REMARK>
 VINA RESULT:      -7.7      2.294      5.110
  Name = 
  3 active torsions:
  status: ('A' for Active; 'I' for Inactive)
    1  A    between atoms: N_2  and  C_21
    2  A    between atoms: N_6  and  C_15
    3  A    between atoms: C_15  and  C_21
                            x       y       z     vdW  Elec       q    Type
                         _______ _______ _______ _____ _____    ______ ____

>  <TORSDO>
F 3

$$$$
=
 OpenBabel10262419543D

 25 29  0  0  1  0  0  0  0  0999 V2000
  186.6180  178.4100  143.0140 N   0  0  0  0  0  0  0  0  0  0  0  0
  187.2420  177.5270  142.0290 C   0  0  2  0  0  3  0  0  0  0  0  0
  185.1720  179.3710  141.3970 N   0  0  0  0  0  0  0  0  0  0  0  0
  186.5930  178.1890  144.4170 C   0  0  0  0  0  0  0  0  0  0  0  0
  189.4230  178.1170  141.7360 N   0  0  0  0  0  0  0  0  0  0  0  0
  186.2870  177.8880  147.1670 C   0  0  0  0  0  3  0  0  0  0  0  0
  186.0380  178.8990  140.3510 C   0  0  0  0  0  3  0  0  0  0  0  0
  185.5360  178.8060  145.0690 C   0  0  0  0  0  0  0  0  0  0  0  0
  185.3660  178.6620  146.4470 C   0  0  0  0  0  3  0  0  0  0  0  0
  188.1790  177.8140  139.6840 C   0  0  2  0  0  0  0  0  0  0  0  0
  187.9470  177.1860  138.3710 C   0  0  0  0  0  2  0  0  0  0  0  0
  188.5960  177.2140  142.3510 O   0  0  0  0  0  0  0  0  0  0  0  0
  187.3580  177.2630  146.5070 C   0  0  0  0  0  3  0  0  0  0  0  0
  185.4680  179.1690  142.6470 C   0  0  0  0  0  0  0  0  0  0  0  0
  184.4310  179.7320  144.0000 S   0  0  0  0  0  0  0  0  0  0  0  0
  188.1400  178.5800  138.5080 O   0  0  0  0  0  0  0  0  0  0  0  0
  187.5150  177.4090  145.1210 C   0  0  0  0  0  3  0  0  0  0  0  0
  189.5570  177.7570  140.3160 C   0  0  0  0  0  2  0  0  0  0  0  0
  187.0410  178.0490  140.6200 C   0  0  0  0  0  0  0  0  0  0  0  0
  190.7410  178.0630  142.3740 C   0  0  0  0  0  2  0  0  0  0  0  0
  190.6940  178.3000  143.8880 C   0  0  2  0  0  3  0  0  0  0  0  0
  190.9980  179.6350  144.1890 O   0  0  0  0  0  1  0  0  0  0  0  0
  191.5900  177.3690  144.5840 N   0  0  0  0  0  0  0  0  0  0  0  0
  191.5660  176.1030  143.8730 C   0  0  0  0  0  1  0  0  0  0  0  0
  191.1170  177.1160  145.9410 C   0  0  0  0  0  1  0  0  0  0  0  0
  1  4  1  0  0  0  0
  2 19  1  6  0  0  0
  2 12  1  0  0  0  0
  2  1  1  0  0  0  0
  3 14  2  0  0  0  0
  4  8  2  0  0  0  0
  4 17  1  0  0  0  0
  5 12  1  0  0  0  0
  5 20  1  0  0  0  0
  7 19  2  0  0  0  0
  7  3  1  0  0  0  0
  8  9  1  0  0  0  0
  9  6  2  0  0  0  0
 10 11  1  6  0  0  0
 10 18  1  0  0  0  0
 10 19  1  0  0  0  0
 11 16  1  0  0  0  0
 13  6  1  0  0  0  0
 14  1  1  0  0  0  0
 14 15  1  0  0  0  0
 15  8  1  0  0  0  0
 16 10  1  0  0  0  0
 17 13  2  0  0  0  0
 18  5  1  0  0  0  0
 20 21  1  0  0  0  0
 21 22  1  6  0  0  0
 21 23  1  0  0  0  0
 23 25  1  0  0  0  0
 24 23  1  0  0  0  0
M  END
>  <MODEL>
5

>  <REMARK>
 VINA RESULT:      -7.5      2.229      3.747
  Name = 
  3 active torsions:
  status: ('A' for Active; 'I' for Inactive)
    1  A    between atoms: N_2  and  C_21
    2  A    between atoms: N_6  and  C_15
    3  A    between atoms: C_15  and  C_21
                            x       y       z     vdW  Elec       q    Type
                         _______ _______ _______ _____ _____    ______ ____

>  <TORSDO>
F 3

$$$$
=
 OpenBabel10262419543D

 25 29  0  0  1  0  0  0  0  0999 V2000
  187.3840  178.0290  139.8380 N   0  0  0  0  0  0  0  0  0  0  0  0
  187.2860  178.6860  141.1410 C   0  0  2  0  0  3  0  0  0  0  0  0
  185.2230  178.7630  139.1840 N   0  0  0  0  0  0  0  0  0  0  0  0
  188.5940  177.6770  139.1830 C   0  0  0  0  0  0  0  0  0  0  0  0
  187.2330  177.1190  142.7940 N   0  0  0  0  0  0  0  0  0  0  0  0
  190.8280  177.0390  137.6510 C   0  0  0  0  0  3  0  0  0  0  0  0
  184.8960  179.0050  140.5630 C   0  0  0  0  0  3  0  0  0  0  0  0
  188.4870  177.5870  137.8030 C   0  0  0  0  0  0  0  0  0  0  0  0
  189.5980  177.2710  137.0200 C   0  0  0  0  0  3  0  0  0  0  0  0
  185.5240  178.8230  142.9670 C   0  0  2  0  0  0  0  0  0  0  0  0
  184.8190  179.9070  143.6740 C   0  0  0  0  0  2  0  0  0  0  0  0
  188.0410  178.0200  142.1500 O   0  0  0  0  0  0  0  0  0  0  0  0
  190.9380  177.1310  139.0480 C   0  0  0  0  0  3  0  0  0  0  0  0
  186.3800  178.2710  138.8530 C   0  0  0  0  0  0  0  0  0  0  0  0
  186.8530  177.9460  137.1520 S   0  0  0  0  0  0  0  0  0  0  0  0
  184.1540  178.7280  143.2630 O   0  0  0  0  0  0  0  0  0  0  0  0
  189.8160  177.4550  139.8240 C   0  0  0  0  0  3  0  0  0  0  0  0
  186.3750  177.8380  143.7480 C   0  0  0  0  0  2  0  0  0  0  0  0
  185.8410  178.9500  141.5140 C   0  0  0  0  0  0  0  0  0  0  0  0
  188.0710  176.1650  143.5230 C   0  0  0  0  0  2  0  0  0  0  0  0
  189.5700  176.4750  143.4260 C   0  0  2  0  0  3  0  0  0  0  0  0
  190.2560  175.4150  142.8150 O   0  0  0  0  0  1  0  0  0  0  0  0
  190.1200  176.7850  144.7510 N   0  0  0  0  0  0  0  0  0  0  0  0
  189.9640  178.2100  144.9830 C   0  0  0  0  0  1  0  0  0  0  0  0
  191.5480  176.4890  144.7990 C   0  0  0  0  0  1  0  0  0  0  0  0
  1  2  1  0  0  0  0
  2 19  1  1  0  0  0
  2 12  1  0  0  0  0
  3  7  1  0  0  0  0
  4 17  1  0  0  0  0
  4  1  1  0  0  0  0
  5 20  1  0  0  0  0
  5 18  1  0  0  0  0
  6 13  1  0  0  0  0
  7 19  2  0  0  0  0
  8  4  2  0  0  0  0
  9  6  2  0  0  0  0
  9  8  1  0  0  0  0
 10 16  1  0  0  0  0
 10 11  1  1  0  0  0
 10 18  1  0  0  0  0
 12  5  1  0  0  0  0
 13 17  2  0  0  0  0
 14  3  2  0  0  0  0
 14  1  1  0  0  0  0
 15  8  1  0  0  0  0
 15 14  1  0  0  0  0
 16 11  1  0  0  0  0
 19 10  1  0  0  0  0
 21 22  1  1  0  0  0
 21 20  1  0  0  0  0
 21 23  1  0  0  0  0
 23 25  1  0  0  0  0
 23 24  1  0  0  0  0
M  END
>  <MODEL>
6

>  <REMARK>
 VINA RESULT:      -7.4      2.922      5.807
  Name = 
  3 active torsions:
  status: ('A' for Active; 'I' for Inactive)
    1  A    between atoms: N_2  and  C_21
    2  A    between atoms: N_6  and  C_15
    3  A    between atoms: C_15  and  C_21
                            x       y       z     vdW  Elec       q    Type
                         _______ _______ _______ _____ _____    ______ ____

>  <TORSDO>
F 3

$$$$
=
 OpenBabel10262419543D

 25 29  0  0  1  0  0  0  0  0999 V2000
  188.6840  177.9020  143.9460 N   0  0  0  0  0  0  0  0  0  0  0  0
  187.3520  177.4610  144.3580 C   0  0  2  0  0  3  0  0  0  0  0  0
  189.4240  178.1200  146.1900 N   0  0  0  0  0  0  0  0  0  0  0  0
  189.2830  177.6430  142.6840 C   0  0  0  0  0  0  0  0  0  0  0  0
  185.8050  179.0280  143.7730 N   0  0  0  0  0  0  0  0  0  0  0  0
  190.7100  177.1280  140.3510 C   0  0  0  0  0  3  0  0  0  0  0  0
  188.0550  178.1570  146.6300 C   0  0  0  0  0  3  0  0  0  0  0  0
  190.6700  177.6570  142.7010 C   0  0  0  0  0  0  0  0  0  0  0  0
  191.4010  177.3970  141.5410 C   0  0  0  0  0  3  0  0  0  0  0  0
  185.6330  178.2470  146.0570 C   0  0  2  0  0  0  0  0  0  0  0  0
  184.9060  177.6360  147.1820 C   0  0  0  0  0  2  0  0  0  0  0  0
  186.3400  177.8170  143.4180 O   0  0  0  0  0  0  0  0  0  0  0  0
  189.3060  177.1130  140.3330 C   0  0  0  0  0  3  0  0  0  0  0  0
  189.7120  178.0360  144.9250 C   0  0  0  0  0  0  0  0  0  0  0  0
  191.3980  177.9850  144.3090 S   0  0  0  0  0  0  0  0  0  0  0  0
  185.4290  178.9480  147.2570 O   0  0  0  0  0  0  0  0  0  0  0  0
  188.5820  177.3690  141.5060 C   0  0  0  0  0  3  0  0  0  0  0  0
  184.8630  178.8300  144.8860 C   0  0  0  0  0  2  0  0  0  0  0  0
  187.0530  177.8770  145.7840 C   0  0  0  0  0  0  0  0  0  0  0  0
  185.0850  179.5840  142.6250 C   0  0  0  0  0  2  0  0  0  0  0  0
  185.0720  178.6540  141.4060 C   0  0  2  0  0  3  0  0  0  0  0  0
  185.3040  179.3780  140.2280 O   0  0  0  0  0  1  0  0  0  0  0  0
  183.8120  177.9040  141.3430 N   0  0  0  0  0  0  0  0  0  0  0  0
  183.5040  177.6540  139.9450 C   0  0  0  0  0  1  0  0  0  0  0  0
  182.7150  178.6900  141.8970 C   0  0  0  0  0  1  0  0  0  0  0  0
  1  2  1  0  0  0  0
  1 14  1  0  0  0  0
  2 12  1  6  0  0  0
  2 19  1  0  0  0  0
  3  7  1  0  0  0  0
  4  8  1  0  0  0  0
  4  1  1  0  0  0  0
  5 18  1  0  0  0  0
  6  9  1  0  0  0  0
  8 15  1  0  0  0  0
  9  8  2  0  0  0  0
 10 18  1  6  0  0  0
 10 11  1  0  0  0  0
 10 16  1  0  0  0  0
 11 16  1  0  0  0  0
 12  5  1  0  0  0  0
 13  6  2  0  0  0  0
 13 17  1  0  0  0  0
 14  3  2  0  0  0  0
 15 14  1  0  0  0  0
 17  4  2  0  0  0  0
 19 10  1  0  0  0  0
 19  7  2  0  0  0  0
 20  5  1  0  0  0  0
 21 22  1  6  0  0  0
 21 20  1  0  0  0  0
 23 21  1  0  0  0  0
 23 25  1  0  0  0  0
 24 23  1  0  0  0  0
M  END
>  <MODEL>
7

>  <REMARK>
 VINA RESULT:      -7.3      2.307      5.092
  Name = 
  3 active torsions:
  status: ('A' for Active; 'I' for Inactive)
    1  A    between atoms: N_2  and  C_21
    2  A    between atoms: N_6  and  C_15
    3  A    between atoms: C_15  and  C_21
                            x       y       z     vdW  Elec       q    Type
                         _______ _______ _______ _____ _____    ______ ____

>  <TORSDO>
F 3

$$$$
=
 OpenBabel10262419543D

 25 29  0  0  1  0  0  0  0  0999 V2000
  187.2030  177.9250  141.9360 N   0  0  0  0  0  0  0  0  0  0  0  0
  187.3320  178.7200  140.7150 C   0  0  2  0  0  3  0  0  0  0  0  0
  189.3330  176.9230  141.6380 N   0  0  0  0  0  0  0  0  0  0  0  0
  186.3530  178.2330  143.0310 C   0  0  0  0  0  0  0  0  0  0  0  0
  185.7990  178.0290  139.1770 N   0  0  0  0  0  0  0  0  0  0  0  0
  184.8880  178.7150  145.3480 C   0  0  0  0  0  3  0  0  0  0  0  0
  189.3070  177.2960  140.2490 C   0  0  0  0  0  3  0  0  0  0  0  0
  186.7720  177.6990  144.2410 C   0  0  0  0  0  0  0  0  0  0  0  0
  186.0510  177.9340  145.4130 C   0  0  0  0  0  3  0  0  0  0  0  0
  188.0510  178.2530  138.3230 C   0  0  2  0  0  0  0  0  0  0  0  0
  189.0530  178.8070  137.3950 C   0  0  0  0  0  2  0  0  0  0  0  0
  186.0730  179.0000  140.1050 O   0  0  0  0  0  0  0  0  0  0  0  0
  184.4630  179.2550  144.1240 C   0  0  0  0  0  3  0  0  0  0  0  0
  188.3260  177.1900  142.4160 C   0  0  0  0  0  0  0  0  0  0  0  0
  188.2950  176.7530  144.1570 S   0  0  0  0  0  0  0  0  0  0  0  0
  188.8060  177.4180  137.4830 O   0  0  0  0  0  0  0  0  0  0  0  0
  185.1990  179.0180  142.9540 C   0  0  0  0  0  3  0  0  0  0  0  0
  186.5790  178.2950  137.9580 C   0  0  0  0  0  2  0  0  0  0  0  0
  188.3600  178.1210  139.7760 C   0  0  0  0  0  0  0  0  0  0  0  0
  184.3710  178.0700  138.8550 C   0  0  0  0  0  2  0  0  0  0  0  0
  183.4670  177.8200  140.0680 C   0  0  2  0  0  3  0  0  0  0  0  0
  182.6780  176.6780  139.8700 O   0  0  0  0  0  1  0  0  0  0  0  0
  182.6470  179.0030  140.3540 N   0  0  0  0  0  0  0  0  0  0  0  0
  181.6320  178.6270  141.3230 C   0  0  0  0  0  1  0  0  0  0  0  0
  181.9550  179.4540  139.1510 C   0  0  0  0  0  1  0  0  0  0  0  0
  1 14  1  0  0  0  0
  1  4  1  0  0  0  0
  2 19  1  6  0  0  0
  2  1  1  0  0  0  0
  3 14  2  0  0  0  0
  4  8  1  0  0  0  0
  5 12  1  0  0  0  0
  6  9  1  0  0  0  0
  7  3  1  0  0  0  0
  8  9  2  0  0  0  0
 10 11  1  6  0  0  0
 10 19  1  0  0  0  0
 11 16  1  0  0  0  0
 12  2  1  0  0  0  0
 13  6  2  0  0  0  0
 14 15  1  0  0  0  0
 15  8  1  0  0  0  0
 16 10  1  0  0  0  0
 17  4  2  0  0  0  0
 17 13  1  0  0  0  0
 18 10  1  0  0  0  0
 18  5  1  0  0  0  0
 19  7  2  0  0  0  0
 20  5  1  0  0  0  0
 20 21  1  0  0  0  0
 21 22  1  6  0  0  0
 21 23  1  0  0  0  0
 23 24  1  0  0  0  0
 25 23  1  0  0  0  0
M  END
>  <MODEL>
8

>  <REMARK>
 VINA RESULT:      -7.3      2.548      5.433
  Name = 
  3 active torsions:
  status: ('A' for Active; 'I' for Inactive)
    1  A    between atoms: N_2  and  C_21
    2  A    between atoms: N_6  and  C_15
    3  A    between atoms: C_15  and  C_21
                            x       y       z     vdW  Elec       q    Type
                         _______ _______ _______ _____ _____    ______ ____

>  <TORSDO>
F 3

$$$$
=
 OpenBabel10262419543D

 25 29  0  0  1  0  0  0  0  0999 V2000
  184.2490  178.5980  142.4730 N   0  0  0  0  0  0  0  0  0  0  0  0
  185.2690  179.0980  143.3940 C   0  0  2  0  0  3  0  0  0  0  0  0
  182.5180  178.8610  144.0760 N   0  0  0  0  0  0  0  0  0  0  0  0
  184.3490  178.5980  141.0560 C   0  0  0  0  0  0  0  0  0  0  0  0
  186.7220  177.4240  143.9190 N   0  0  0  0  0  0  0  0  0  0  0  0
  184.2600  178.6350  138.2750 C   0  0  0  0  0  3  0  0  0  0  0  0
  183.5030  178.8990  145.1230 C   0  0  0  0  0  3  0  0  0  0  0  0
  183.1270  178.6050  140.4020 C   0  0  0  0  0  0  0  0  0  0  0  0
  183.0640  178.6280  139.0070 C   0  0  0  0  0  3  0  0  0  0  0  0
  185.8820  178.6590  145.8210 C   0  0  2  0  0  0  0  0  0  0  0  0
  186.0560  179.4820  147.0310 C   0  0  0  0  0  2  0  0  0  0  0  0
  186.5570  178.5410  143.1420 O   0  0  0  0  0  0  0  0  0  0  0  0
  185.4980  178.6270  138.9380 C   0  0  0  0  0  3  0  0  0  0  0  0
  182.8720  178.6840  142.8380 C   0  0  0  0  0  0  0  0  0  0  0  0
  181.6950  178.6280  141.4840 S   0  0  0  0  0  0  0  0  0  0  0  0
  185.4170  178.2210  147.0720 O   0  0  0  0  0  0  0  0  0  0  0  0
  185.5480  178.6120  140.3390 C   0  0  0  0  0  3  0  0  0  0  0  0
  187.0430  177.8360  145.2940 C   0  0  0  0  0  2  0  0  0  0  0  0
  184.8110  178.9840  144.8340 C   0  0  0  0  0  0  0  0  0  0  0  0
  187.8310  176.6320  143.3810 C   0  0  0  0  0  2  0  0  0  0  0  0
  188.9030  177.4800  142.6840 C   0  0  2  0  0  3  0  0  0  0  0  0
  189.0090  177.1280  141.3310 O   0  0  0  0  0  1  0  0  0  0  0  0
  190.1900  177.3580  143.3790 N   0  0  0  0  0  0  0  0  0  0  0  0
  190.4740  178.6260  144.0290 C   0  0  0  0  0  1  0  0  0  0  0  0
  191.2670  177.1050  142.4290 C   0  0  0  0  0  1  0  0  0  0  0  0
  1 14  1  0  0  0  0
  1  2  1  0  0  0  0
  2 12  1  1  0  0  0
  2 19  1  0  0  0  0
  3  7  1  0  0  0  0
  4  1  1  0  0  0  0
  5 18  1  0  0  0  0
  6 13  2  0  0  0  0
  6  9  1  0  0  0  0
  8  4  1  0  0  0  0
  8 15  1  0  0  0  0
  9  8  2  0  0  0  0
 10 18  1  6  0  0  0
 10 11  1  0  0  0  0
 10 16  1  0  0  0  0
 11 16  1  0  0  0  0
 12  5  1  0  0  0  0
 13 17  1  0  0  0  0
 14  3  2  0  0  0  0
 15 14  1  0  0  0  0
 17  4  2  0  0  0  0
 19  7  2  0  0  0  0
 19 10  1  0  0  0  0
 20  5  1  0  0  0  0
 21 22  1  6  0  0  0
 21 23  1  0  0  0  0
 21 20  1  0  0  0  0
 23 24  1  0  0  0  0
 25 23  1  0  0  0  0
M  END
>  <MODEL>
9

>  <REMARK>
 VINA RESULT:      -7.2      2.593      5.368
  Name = 
  3 active torsions:
  status: ('A' for Active; 'I' for Inactive)
    1  A    between atoms: N_2  and  C_21
    2  A    between atoms: N_6  and  C_15
    3  A    between atoms: C_15  and  C_21
                            x       y       z     vdW  Elec       q    Type
                         _______ _______ _______ _____ _____    ______ ____

>  <TORSDO>
F 3

$$$$
