=
 OpenBabel10252414483D

 34 39  0  0  1  0  0  0  0  0999 V2000
  190.2780  176.9800  146.7840 C   0  0  1  0  0  3  0  0  0  0  0  0
  191.3820  175.3940  145.3490 C   0  0  1  0  0  3  0  0  0  0  0  0
  189.6590  177.1040  144.3290 C   0  0  0  0  0  0  0  0  0  0  0  0
  188.9520  177.4880  142.0380 C   0  0  0  0  0  0  0  0  0  0  0  0
  192.4390  176.0040  147.4630 C   0  0  0  0  0  3  0  0  0  0  0  0
  192.4310  175.2860  146.3750 N   0  0  0  0  0  0  0  0  0  0  0  0
  191.1080  177.0500  142.2480 C   0  0  0  0  0  3  0  0  0  0  0  0
  190.7720  176.8180  145.3460 C   0  0  1  0  0  3  0  0  0  0  0  0
  189.5140  177.5220  140.7830 C   0  0  0  0  0  3  0  0  0  0  0  0
  191.4060  176.9680  147.6990 N   0  0  0  0  0  2  0  0  0  0  0  0
  188.3600  177.5400  144.7510 C   0  0  0  0  0  0  0  0  0  0  0  0
  189.3700  178.1670  146.9650 C   0  0  0  0  0  2  0  0  0  0  0  0
  191.9520  174.9310  144.0250 C   0  0  0  0  0  1  0  0  0  0  0  0
  187.6540  177.7840  142.4150 C   0  0  0  0  0  3  0  0  0  0  0  0
  187.3360  177.8040  143.7860 C   0  0  0  0  0  0  0  0  0  0  0  0
  190.8290  177.2470  140.9420 N   0  0  0  0  0  0  0  0  0  0  0  0
  189.9250  177.1760  142.9520 C   0  0  0  0  0  0  0  0  0  0  0  0
  188.0940  177.8240  146.2120 C   0  0  0  0  0  2  0  0  0  0  0  0
  183.6440  178.6660  143.5530 C   0  0  0  0  0  0  0  0  0  0  0  0
  183.3210  178.8500  144.9000 C   0  0  0  0  0  3  0  0  0  0  0  0
  185.9410  178.1410  144.1660 C   0  0  0  0  0  0  0  0  0  0  0  0
  184.3010  178.6890  145.8810 C   0  0  0  0  0  3  0  0  0  0  0  0
  184.9480  178.3190  143.1890 C   0  0  0  0  0  3  0  0  0  0  0  0
  185.6050  178.3410  145.5160 C   0  0  0  0  0  3  0  0  0  0  0  0
  182.6950  178.8290  142.6010 F   0  0  0  0  0  0  0  0  0  0  0  0
  191.6390  176.4450  138.8720 C   0  0  0  0  0  3  0  0  0  0  0  0
  191.7920  177.1880  139.9210 N   0  0  0  0  0  0  0  0  0  0  0  0
  194.3630  175.6480  139.3300 F   0  0  0  0  0  0  0  0  0  0  0  0
  192.6840  176.4120  137.8090 C   0  0  1  0  0  3  0  0  0  0  0  0
  193.7320  175.3440  138.1380 C   0  0  1  0  0  3  0  0  0  0  0  0
  194.1130  174.9650  135.6880 C   0  0  0  0  0  2  0  0  0  0  0  0
  193.0890  176.0470  135.3600 C   0  0  0  0  0  2  0  0  0  0  0  0
  192.0320  176.1150  136.4570 C   0  0  0  0  0  2  0  0  0  0  0  0
  194.7780  175.2650  137.0280 C   0  0  0  0  0  2  0  0  0  0  0  0
  1 12  1  6  0  0  0
  1 10  1  0  0  0  0
  2 13  1  6  0  0  0
  2  6  1  0  0  0  0
  3 11  2  0  0  0  0
  4 14  1  0  0  0  0
  4 17  1  0  0  0  0
  5 10  1  0  0  0  0
  6  5  2  0  0  0  0
  7 17  2  0  0  0  0
  8  3  1  6  0  0  0
  8  2  1  0  0  0  0
  8  1  1  0  0  0  0
  9 16  1  0  0  0  0
  9  4  2  0  0  0  0
 11 18  1  0  0  0  0
 14 15  2  0  0  0  0
 15 21  1  0  0  0  0
 15 11  1  0  0  0  0
 16  7  1  0  0  0  0
 17  3  1  0  0  0  0
 18 12  1  0  0  0  0
 19 20  1  0  0  0  0
 20 22  2  0  0  0  0
 21 24  2  0  0  0  0
 23 19  2  0  0  0  0
 23 21  1  0  0  0  0
 24 22  1  0  0  0  0
 25 19  1  0  0  0  0
 26 27  2  0  0  0  0
 27 16  1  0  0  0  0
 29 30  1  0  0  0  0
 29 26  1  1  0  0  0
 30 28  1  1  0  0  0
 31 34  1  0  0  0  0
 32 31  1  0  0  0  0
 32 33  1  0  0  0  0
 33 29  1  0  0  0  0
 34 30  1  0  0  0  0
M  END
>  <MODEL>
1

>  <REMARK>
 VINA RESULT:     -10.9      0.000      0.000
  Name = 
  3 active torsions:
  status: ('A' for Active; 'I' for Inactive)
    1  A    between atoms: C_3  and  C_13
    2  A    between atoms: C_12  and  C_28
    3  A    between atoms: N_17  and  N_29
                            x       y       z     vdW  Elec       q    Type
                         _______ _______ _______ _____ _____    ______ ____

>  <TORSDO>
F 3

$$$$
=
 OpenBabel10252414483D

 34 39  0  0  1  0  0  0  0  0999 V2000
  185.9110  178.3420  146.0200 C   0  0  1  0  0  3  0  0  0  0  0  0
  187.2530  176.8110  144.7350 C   0  0  1  0  0  3  0  0  0  0  0  0
  185.4640  178.3180  143.5250 C   0  0  0  0  0  0  0  0  0  0  0  0
  184.8950  178.5490  141.1750 C   0  0  0  0  0  0  0  0  0  0  0  0
  188.0950  177.5940  146.8890 C   0  0  0  0  0  3  0  0  0  0  0  0
  188.2300  176.8380  145.8350 N   0  0  0  0  0  0  0  0  0  0  0  0
  187.0600  178.3180  141.5540 C   0  0  0  0  0  3  0  0  0  0  0  0
  186.5210  178.1720  144.6270 C   0  0  1  0  0  3  0  0  0  0  0  0
  185.5410  178.5870  139.9620 C   0  0  0  0  0  3  0  0  0  0  0  0
  186.9660  178.4680  147.0100 N   0  0  0  0  0  2  0  0  0  0  0  0
  184.1040  178.6480  143.8360 C   0  0  0  0  0  0  0  0  0  0  0  0
  184.8900  179.4470  146.0850 C   0  0  0  0  0  2  0  0  0  0  0  0
  187.9570  176.3540  143.4760 C   0  0  0  0  0  1  0  0  0  0  0  0
  183.5520  178.7390  141.4480 C   0  0  0  0  0  3  0  0  0  0  0  0
  183.1340  178.7800  142.7920 C   0  0  0  0  0  0  0  0  0  0  0  0
  186.8610  178.4400  140.2240 N   0  0  0  0  0  0  0  0  0  0  0  0
  185.8230  178.3610  142.1670 C   0  0  0  0  0  0  0  0  0  0  0  0
  183.7090  178.9610  145.2610 C   0  0  0  0  0  2  0  0  0  0  0  0
  179.6170  180.2080  142.6410 C   0  0  0  0  0  0  0  0  0  0  0  0
  178.9750  179.4580  143.6290 C   0  0  0  0  0  3  0  0  0  0  0  0
  181.6900  179.0020  143.0600 C   0  0  0  0  0  0  0  0  0  0  0  0
  179.6840  178.4870  144.3400 C   0  0  0  0  0  3  0  0  0  0  0  0
  180.9680  179.9850  142.3620 C   0  0  0  0  0  3  0  0  0  0  0  0
  181.0350  178.2640  144.0590 C   0  0  0  0  0  3  0  0  0  0  0  0
  178.9310  181.1540  141.9570 F   0  0  0  0  0  0  0  0  0  0  0  0
  188.5140  177.3440  138.9390 C   0  0  0  0  0  3  0  0  0  0  0  0
  187.8970  178.4310  139.2750 N   0  0  0  0  0  0  0  0  0  0  0  0
  191.3070  177.1460  139.5920 F   0  0  0  0  0  0  0  0  0  0  0  0
  189.6080  177.3780  137.9260 C   0  0  1  0  0  3  0  0  0  0  0  0
  190.8130  176.5790  138.4310 C   0  0  1  0  0  3  0  0  0  0  0  0
  191.4010  175.9740  136.0690 C   0  0  0  0  0  2  0  0  0  0  0  0
  190.2160  176.7920  135.5640 C   0  0  0  0  0  2  0  0  0  0  0  0
  189.1020  176.7950  136.6050 C   0  0  0  0  0  2  0  0  0  0  0  0
  191.9200  176.5620  137.3780 C   0  0  0  0  0  2  0  0  0  0  0  0
  1 12  1  6  0  0  0
  1 10  1  0  0  0  0
  2 13  1  6  0  0  0
  2  6  1  0  0  0  0
  3 11  2  0  0  0  0
  4 14  1  0  0  0  0
  4 17  1  0  0  0  0
  5 10  1  0  0  0  0
  6  5  2  0  0  0  0
  7 17  2  0  0  0  0
  8  3  1  6  0  0  0
  8  2  1  0  0  0  0
  8  1  1  0  0  0  0
  9 16  1  0  0  0  0
  9  4  2  0  0  0  0
 11 18  1  0  0  0  0
 14 15  2  0  0  0  0
 15 21  1  0  0  0  0
 15 11  1  0  0  0  0
 16  7  1  0  0  0  0
 17  3  1  0  0  0  0
 18 12  1  0  0  0  0
 19 20  1  0  0  0  0
 20 22  2  0  0  0  0
 21 24  2  0  0  0  0
 23 19  2  0  0  0  0
 23 21  1  0  0  0  0
 24 22  1  0  0  0  0
 25 19  1  0  0  0  0
 26 27  2  0  0  0  0
 27 16  1  0  0  0  0
 29 30  1  0  0  0  0
 29 26  1  1  0  0  0
 30 28  1  1  0  0  0
 31 34  1  0  0  0  0
 32 31  1  0  0  0  0
 32 33  1  0  0  0  0
 33 29  1  0  0  0  0
 34 30  1  0  0  0  0
M  END
>  <MODEL>
2

>  <REMARK>
 VINA RESULT:     -10.4      2.634      4.200
  Name = 
  3 active torsions:
  status: ('A' for Active; 'I' for Inactive)
    1  A    between atoms: C_3  and  C_13
    2  A    between atoms: C_12  and  C_28
    3  A    between atoms: N_17  and  N_29
                            x       y       z     vdW  Elec       q    Type
                         _______ _______ _______ _____ _____    ______ ____

>  <TORSDO>
F 3

$$$$
=
 OpenBabel10252414483D

 34 39  0  0  1  0  0  0  0  0999 V2000
  191.2650  177.3240  141.2140 C   0  0  1  0  0  3  0  0  0  0  0  0
  189.7680  176.5010  139.5180 C   0  0  1  0  0  3  0  0  0  0  0  0
  188.8010  177.7550  141.6210 C   0  0  0  0  0  0  0  0  0  0  0  0
  186.5250  178.3650  142.2120 C   0  0  0  0  0  0  0  0  0  0  0  0
  192.0900  176.9590  138.9180 C   0  0  0  0  0  3  0  0  0  0  0  0
  190.9090  176.5180  138.5870 N   0  0  0  0  0  0  0  0  0  0  0  0
  186.9840  178.5940  140.0630 C   0  0  0  0  0  3  0  0  0  0  0  0
  189.9110  177.6290  140.5700 C   0  0  1  0  0  3  0  0  0  0  0  0
  185.3930  178.8340  141.5880 C   0  0  0  0  0  3  0  0  0  0  0  0
  192.3250  177.4780  140.2330 N   0  0  0  0  0  2  0  0  0  0  0  0
  189.0880  177.6620  143.0220 C   0  0  0  0  0  0  0  0  0  0  0  0
  191.5030  178.1000  142.4820 C   0  0  0  0  0  2  0  0  0  0  0  0
  188.4870  176.5280  138.7100 C   0  0  0  0  0  1  0  0  0  0  0  0
  186.7460  178.1520  143.5620 C   0  0  0  0  0  3  0  0  0  0  0  0
  188.0360  177.7850  143.9870 C   0  0  0  0  0  0  0  0  0  0  0  0
  185.7020  178.9600  140.2760 N   0  0  0  0  0  0  0  0  0  0  0  0
  187.5110  178.1910  141.2750 C   0  0  0  0  0  0  0  0  0  0  0  0
  190.5180  177.5370  143.4950 C   0  0  0  0  0  2  0  0  0  0  0  0
  189.6230  176.7850  147.2900 C   0  0  0  0  0  0  0  0  0  0  0  0
  188.6150  177.1290  148.1930 C   0  0  0  0  0  3  0  0  0  0  0  0
  188.2520  177.5780  145.4410 C   0  0  0  0  0  0  0  0  0  0  0  0
  187.4230  177.6890  147.7280 C   0  0  0  0  0  3  0  0  0  0  0  0
  189.4400  177.0040  145.9220 C   0  0  0  0  0  3  0  0  0  0  0  0
  187.2410  177.9080  146.3600 C   0  0  0  0  0  3  0  0  0  0  0  0
  190.7760  176.2360  147.7400 F   0  0  0  0  0  0  0  0  0  0  0  0
  183.5540  179.3650  139.3780 C   0  0  0  0  0  3  0  0  0  0  0  0
  184.8430  179.4210  139.2650 N   0  0  0  0  0  0  0  0  0  0  0  0
  182.9470  177.8670  137.0000 F   0  0  0  0  0  0  0  0  0  0  0  0
  182.6770  179.8670  138.2810 C   0  0  1  0  0  3  0  0  0  0  0  0
  181.9970  178.6910  137.5750 C   0  0  1  0  0  3  0  0  0  0  0  0
  180.0100  180.1380  137.0780 C   0  0  0  0  0  2  0  0  0  0  0  0
  180.6980  181.3180  137.7570 C   0  0  0  0  0  2  0  0  0  0  0  0
  181.6260  180.8170  138.8590 C   0  0  0  0  0  2  0  0  0  0  0  0
  181.0540  179.1960  136.4850 C   0  0  0  0  0  2  0  0  0  0  0  0
  1 12  1  1  0  0  0
  2 13  1  6  0  0  0
  2  8  1  0  0  0  0
  3 11  2  0  0  0  0
  4 14  1  0  0  0  0
  5 10  1  0  0  0  0
  6  5  2  0  0  0  0
  6  2  1  0  0  0  0
  7 16  1  0  0  0  0
  7 17  2  0  0  0  0
  8  1  1  0  0  0  0
  8  3  1  1  0  0  0
  9  4  2  0  0  0  0
 10  1  1  0  0  0  0
 11 18  1  0  0  0  0
 11 15  1  0  0  0  0
 12 18  1  0  0  0  0
 14 15  2  0  0  0  0
 15 21  1  0  0  0  0
 16  9  1  0  0  0  0
 17  3  1  0  0  0  0
 17  4  1  0  0  0  0
 19 25  1  0  0  0  0
 19 20  1  0  0  0  0
 21 23  1  0  0  0  0
 21 24  2  0  0  0  0
 22 20  2  0  0  0  0
 23 19  2  0  0  0  0
 24 22  1  0  0  0  0
 27 26  2  0  0  0  0
 27 16  1  0  0  0  0
 29 33  1  0  0  0  0
 29 26  1  1  0  0  0
 30 28  1  6  0  0  0
 30 29  1  0  0  0  0
 31 32  1  0  0  0  0
 32 33  1  0  0  0  0
 34 31  1  0  0  0  0
 34 30  1  0  0  0  0
M  END
>  <MODEL>
3

>  <REMARK>
 VINA RESULT:     -10.1      3.876      7.684
  Name = 
  3 active torsions:
  status: ('A' for Active; 'I' for Inactive)
    1  A    between atoms: C_3  and  C_13
    2  A    between atoms: C_12  and  C_28
    3  A    between atoms: N_17  and  N_29
                            x       y       z     vdW  Elec       q    Type
                         _______ _______ _______ _____ _____    ______ ____

>  <TORSDO>
F 3

$$$$
=
 OpenBabel10252414483D

 34 39  0  0  1  0  0  0  0  0999 V2000
  190.8250  176.7730  139.2060 C   0  0  1  0  0  3  0  0  0  0  0  0
  188.7590  176.1980  138.1140 C   0  0  1  0  0  3  0  0  0  0  0  0
  188.7120  177.4840  140.4110 C   0  0  0  0  0  0  0  0  0  0  0  0
  186.8590  178.3410  141.7270 C   0  0  0  0  0  0  0  0  0  0  0  0
  190.7870  176.3940  136.7690 C   0  0  0  0  0  3  0  0  0  0  0  0
  189.5170  176.1110  136.8560 N   0  0  0  0  0  0  0  0  0  0  0  0
  186.6000  178.5900  139.5460 C   0  0  0  0  0  3  0  0  0  0  0  0
  189.3840  177.2620  139.0510 C   0  0  1  0  0  3  0  0  0  0  0  0
  185.6520  178.9660  141.5140 C   0  0  0  0  0  3  0  0  0  0  0  0
  191.5090  176.8340  137.9260 N   0  0  0  0  0  2  0  0  0  0  0  0
  189.4350  177.3070  141.6370 C   0  0  0  0  0  0  0  0  0  0  0  0
  191.5670  177.4690  140.3160 C   0  0  0  0  0  2  0  0  0  0  0  0
  187.2960  176.4080  137.7820 C   0  0  0  0  0  1  0  0  0  0  0  0
  187.4870  178.0560  142.9260 C   0  0  0  0  0  3  0  0  0  0  0  0
  188.7890  177.5210  142.8960 C   0  0  0  0  0  0  0  0  0  0  0  0
  185.5200  179.1000  140.1740 N   0  0  0  0  0  0  0  0  0  0  0  0
  187.4460  178.0840  140.5140 C   0  0  0  0  0  0  0  0  0  0  0  0
  190.9140  176.9940  141.6040 C   0  0  0  0  0  2  0  0  0  0  0  0
  189.3490  176.9940  146.6170 C   0  0  0  0  0  0  0  0  0  0  0  0
  190.7270  176.7720  146.6570 C   0  0  0  0  0  3  0  0  0  0  0  0
  189.4490  177.2380  144.1970 C   0  0  0  0  0  0  0  0  0  0  0  0
  191.4720  176.7890  145.4760 C   0  0  0  0  0  3  0  0  0  0  0  0
  188.7150  177.2310  145.3940 C   0  0  0  0  0  3  0  0  0  0  0  0
  190.8370  177.0250  144.2530 C   0  0  0  0  0  3  0  0  0  0  0  0
  188.6280  176.9840  147.7620 F   0  0  0  0  0  0  0  0  0  0  0  0
  183.2740  179.1350  139.4390 C   0  0  0  0  0  3  0  0  0  0  0  0
  184.4380  179.6970  139.5050 N   0  0  0  0  0  0  0  0  0  0  0  0
  180.5710  178.1540  139.4300 F   0  0  0  0  0  0  0  0  0  0  0  0
  182.1500  179.8030  138.7210 C   0  0  1  0  0  3  0  0  0  0  0  0
  180.8270  179.5130  139.4350 C   0  0  1  0  0  3  0  0  0  0  0  0
  179.9400  181.7380  138.6930 C   0  0  0  0  0  2  0  0  0  0  0  0
  181.2480  182.0170  137.9600 C   0  0  0  0  0  2  0  0  0  0  0  0
  182.4020  181.3110  138.6640 C   0  0  0  0  0  2  0  0  0  0  0  0
  179.6760  180.2360  138.7380 C   0  0  0  0  0  2  0  0  0  0  0  0
  1 12  1  1  0  0  0
  2 13  1  6  0  0  0
  2  8  1  0  0  0  0
  3 17  1  0  0  0  0
  3 11  2  0  0  0  0
  4 14  1  0  0  0  0
  5  6  2  0  0  0  0
  5 10  1  0  0  0  0
  6  2  1  0  0  0  0
  7 16  1  0  0  0  0
  7 17  2  0  0  0  0
  8  1  1  0  0  0  0
  8  3  1  1  0  0  0
  9  4  2  0  0  0  0
 10  1  1  0  0  0  0
 11 15  1  0  0  0  0
 12 18  1  0  0  0  0
 15 14  2  0  0  0  0
 15 21  1  0  0  0  0
 16  9  1  0  0  0  0
 17  4  1  0  0  0  0
 18 11  1  0  0  0  0
 19 20  1  0  0  0  0
 19 25  1  0  0  0  0
 21 24  2  0  0  0  0
 21 23  1  0  0  0  0
 22 20  2  0  0  0  0
 23 19  2  0  0  0  0
 24 22  1  0  0  0  0
 26 27  2  0  0  0  0
 27 16  1  0  0  0  0
 29 30  1  0  0  0  0
 29 26  1  1  0  0  0
 30 28  1  6  0  0  0
 31 34  1  0  0  0  0
 32 33  1  0  0  0  0
 32 31  1  0  0  0  0
 33 29  1  0  0  0  0
 34 30  1  0  0  0  0
M  END
>  <MODEL>
4

>  <REMARK>
 VINA RESULT:      -9.6      3.750      8.569
  Name = 
  3 active torsions:
  status: ('A' for Active; 'I' for Inactive)
    1  A    between atoms: C_3  and  C_13
    2  A    between atoms: C_12  and  C_28
    3  A    between atoms: N_17  and  N_29
                            x       y       z     vdW  Elec       q    Type
                         _______ _______ _______ _____ _____    ______ ____

>  <TORSDO>
F 3

$$$$
=
 OpenBabel10252414483D

 34 39  0  0  1  0  0  0  0  0999 V2000
  184.7470  178.8760  145.0410 C   0  0  1  0  0  3  0  0  0  0  0  0
  186.5010  177.3240  144.4850 C   0  0  1  0  0  3  0  0  0  0  0  0
  185.1430  178.5070  142.5650 C   0  0  0  0  0  0  0  0  0  0  0  0
  185.3630  178.3970  140.1480 C   0  0  0  0  0  0  0  0  0  0  0  0
  186.5570  178.4370  146.6570 C   0  0  0  0  0  3  0  0  0  0  0  0
  187.0630  177.5720  145.8220 N   0  0  0  0  0  0  0  0  0  0  0  0
  187.2940  178.4070  141.2250 C   0  0  0  0  0  3  0  0  0  0  0  0
  185.7860  178.5920  143.9540 C   0  0  1  0  0  3  0  0  0  0  0  0
  186.3690  178.3440  139.2110 C   0  0  0  0  0  3  0  0  0  0  0  0
  185.4140  179.2160  146.2860 N   0  0  0  0  0  2  0  0  0  0  0  0
  183.7420  178.7520  142.3760 C   0  0  0  0  0  0  0  0  0  0  0  0
  183.7140  179.8870  144.6180 C   0  0  0  0  0  2  0  0  0  0  0  0
  187.5980  176.7800  143.5950 C   0  0  0  0  0  1  0  0  0  0  0  0
  183.9980  178.5000  139.9500 C   0  0  0  0  0  3  0  0  0  0  0  0
  183.1620  178.6690  141.0700 C   0  0  0  0  0  0  0  0  0  0  0  0
  187.5350  178.3460  139.8980 N   0  0  0  0  0  0  0  0  0  0  0  0
  185.9230  178.4150  141.4000 C   0  0  0  0  0  0  0  0  0  0  0  0
  182.8890  179.2010  143.5400 C   0  0  0  0  0  2  0  0  0  0  0  0
  179.8190  179.8740  139.7270 C   0  0  0  0  0  0  0  0  0  0  0  0
  178.9310  179.0650  140.4400 C   0  0  0  0  0  3  0  0  0  0  0  0
  181.7020  178.7940  140.8300 C   0  0  0  0  0  0  0  0  0  0  0  0
  179.4190  178.1270  141.3520 C   0  0  0  0  0  3  0  0  0  0  0  0
  181.1970  179.7420  139.9250 C   0  0  0  0  0  3  0  0  0  0  0  0
  180.7970  177.9960  141.5490 C   0  0  0  0  0  3  0  0  0  0  0  0
  179.3460  180.7870  138.8480 F   0  0  0  0  0  0  0  0  0  0  0  0
  189.3880  177.2070  138.9740 C   0  0  0  0  0  3  0  0  0  0  0  0
  188.8240  178.3130  139.3390 N   0  0  0  0  0  0  0  0  0  0  0  0
  191.7780  177.7350  140.4820 F   0  0  0  0  0  0  0  0  0  0  0  0
  190.7570  177.2150  138.3840 C   0  0  1  0  0  3  0  0  0  0  0  0
  191.7870  176.8190  139.4450 C   0  0  1  0  0  3  0  0  0  0  0  0
  193.2270  175.7950  137.6660 C   0  0  0  0  0  2  0  0  0  0  0  0
  192.2150  176.2130  136.6040 C   0  0  0  0  0  2  0  0  0  0  0  0
  190.8130  176.2430  137.2030 C   0  0  0  0  0  2  0  0  0  0  0  0
  193.1880  176.7720  138.8380 C   0  0  0  0  0  2  0  0  0  0  0  0
  1 12  1  6  0  0  0
  1 10  1  0  0  0  0
  2 13  1  6  0  0  0
  2  6  1  0  0  0  0
  4 17  1  0  0  0  0
  6  5  2  0  0  0  0
  7 17  2  0  0  0  0
  8  3  1  6  0  0  0
  8  2  1  0  0  0  0
  8  1  1  0  0  0  0
  9 16  1  0  0  0  0
  9  4  2  0  0  0  0
 10  5  1  0  0  0  0
 11  3  2  0  0  0  0
 11 18  1  0  0  0  0
 14  4  1  0  0  0  0
 14 15  2  0  0  0  0
 15 11  1  0  0  0  0
 16  7  1  0  0  0  0
 17  3  1  0  0  0  0
 18 12  1  0  0  0  0
 19 23  2  0  0  0  0
 19 20  1  0  0  0  0
 20 22  2  0  0  0  0
 21 15  1  0  0  0  0
 21 24  2  0  0  0  0
 22 24  1  0  0  0  0
 23 21  1  0  0  0  0
 25 19  1  0  0  0  0
 26 27  2  0  0  0  0
 27 16  1  0  0  0  0
 29 26  1  1  0  0  0
 29 30  1  0  0  0  0
 30 28  1  1  0  0  0
 31 34  1  0  0  0  0
 32 33  1  0  0  0  0
 32 31  1  0  0  0  0
 33 29  1  0  0  0  0
 34 30  1  0  0  0  0
M  END
>  <MODEL>
5

>  <REMARK>
 VINA RESULT:      -9.5      3.082      4.823
  Name = 
  3 active torsions:
  status: ('A' for Active; 'I' for Inactive)
    1  A    between atoms: C_3  and  C_13
    2  A    between atoms: C_12  and  C_28
    3  A    between atoms: N_17  and  N_29
                            x       y       z     vdW  Elec       q    Type
                         _______ _______ _______ _____ _____    ______ ____

>  <TORSDO>
F 3

$$$$
=
 OpenBabel10252414483D

 34 39  0  0  1  0  0  0  0  0999 V2000
  186.6420  177.0880  136.2710 C   0  0  1  0  0  3  0  0  0  0  0  0
  188.5450  178.2630  137.1620 C   0  0  1  0  0  3  0  0  0  0  0  0
  186.3570  178.0300  138.6070 C   0  0  0  0  0  0  0  0  0  0  0  0
  185.8490  178.7550  140.8690 C   0  0  0  0  0  0  0  0  0  0  0  0
  188.9000  176.6070  135.4030 C   0  0  0  0  0  3  0  0  0  0  0  0
  189.3770  177.5220  136.2000 N   0  0  0  0  0  0  0  0  0  0  0  0
  187.9030  177.9790  140.6170 C   0  0  0  0  0  3  0  0  0  0  0  0
  187.3310  177.4060  137.6000 C   0  0  1  0  0  3  0  0  0  0  0  0
  186.4790  178.8250  142.0900 C   0  0  0  0  0  3  0  0  0  0  0  0
  187.5100  176.2630  135.4490 N   0  0  0  0  0  2  0  0  0  0  0  0
  184.9670  178.1930  138.2960 C   0  0  0  0  0  0  0  0  0  0  0  0
  185.2600  176.5170  136.4460 C   0  0  0  0  0  2  0  0  0  0  0  0
  189.4300  178.7540  138.2880 C   0  0  0  0  0  1  0  0  0  0  0  0
  184.5330  179.0450  140.5550 C   0  0  0  0  0  3  0  0  0  0  0  0
  184.0740  178.7760  139.2520 C   0  0  0  0  0  0  0  0  0  0  0  0
  187.7320  178.3490  141.9040 N   0  0  0  0  0  0  0  0  0  0  0  0
  186.7280  178.2530  139.9440 C   0  0  0  0  0  0  0  0  0  0  0  0
  184.4140  177.6550  136.9950 C   0  0  0  0  0  2  0  0  0  0  0  0
  180.9440  180.5940  138.1000 C   0  0  0  0  0  0  0  0  0  0  0  0
  179.9520  179.6680  138.4320 C   0  0  0  0  0  3  0  0  0  0  0  0
  182.6530  179.0800  138.9430 C   0  0  0  0  0  0  0  0  0  0  0  0
  180.3020  178.4530  139.0260 C   0  0  0  0  0  3  0  0  0  0  0  0
  182.2860  180.3030  138.3590 C   0  0  0  0  0  3  0  0  0  0  0  0
  181.6450  178.1630  139.2840 C   0  0  0  0  0  3  0  0  0  0  0  0
  180.6040  181.7740  137.5300 F   0  0  0  0  0  0  0  0  0  0  0  0
  188.4470  177.8790  144.1070 C   0  0  0  0  0  3  0  0  0  0  0  0
  188.7250  178.2250  142.8910 N   0  0  0  0  0  0  0  0  0  0  0  0
  188.0410  178.2480  146.9290 F   0  0  0  0  0  0  0  0  0  0  0  0
  189.5310  177.7580  145.1250 C   0  0  1  0  0  3  0  0  0  0  0  0
  188.9420  177.3070  146.4650 C   0  0  1  0  0  3  0  0  0  0  0  0
  191.0840  176.1200  147.0050 C   0  0  0  0  0  2  0  0  0  0  0  0
  191.6810  176.5910  145.6830 C   0  0  0  0  0  2  0  0  0  0  0  0
  190.5780  176.7530  144.6420 C   0  0  0  0  0  2  0  0  0  0  0  0
  190.0500  177.1280  147.5000 C   0  0  0  0  0  2  0  0  0  0  0  0
  1 12  1  1  0  0  0
  1  8  1  0  0  0  0
  2  8  1  0  0  0  0
  2 13  1  1  0  0  0
  3 17  1  0  0  0  0
  4  9  2  0  0  0  0
  5 10  1  0  0  0  0
  5  6  2  0  0  0  0
  6  2  1  0  0  0  0
  7 16  1  0  0  0  0
  8  3  1  1  0  0  0
 10  1  1  0  0  0  0
 11  3  2  0  0  0  0
 11 15  1  0  0  0  0
 12 18  1  0  0  0  0
 14  4  1  0  0  0  0
 15 14  2  0  0  0  0
 16  9  1  0  0  0  0
 16 27  1  0  0  0  0
 17  7  2  0  0  0  0
 17  4  1  0  0  0  0
 18 11  1  0  0  0  0
 19 23  2  0  0  0  0
 19 20  1  0  0  0  0
 20 22  2  0  0  0  0
 21 15  1  0  0  0  0
 21 24  2  0  0  0  0
 22 24  1  0  0  0  0
 23 21  1  0  0  0  0
 25 19  1  0  0  0  0
 27 26  2  0  0  0  0
 29 26  1  6  0  0  0
 29 30  1  0  0  0  0
 30 28  1  1  0  0  0
 30 34  1  0  0  0  0
 31 34  1  0  0  0  0
 32 31  1  0  0  0  0
 33 29  1  0  0  0  0
 33 32  1  0  0  0  0
M  END
>  <MODEL>
6

>  <REMARK>
 VINA RESULT:      -9.5      4.195      8.263
  Name = 
  3 active torsions:
  status: ('A' for Active; 'I' for Inactive)
    1  A    between atoms: C_3  and  C_13
    2  A    between atoms: C_12  and  C_28
    3  A    between atoms: N_17  and  N_29
                            x       y       z     vdW  Elec       q    Type
                         _______ _______ _______ _____ _____    ______ ____

>  <TORSDO>
F 3

$$$$
=
 OpenBabel10252414483D

 34 39  0  0  1  0  0  0  0  0999 V2000
  188.7470  177.9000  139.4200 C   0  0  1  0  0  3  0  0  0  0  0  0
  187.0580  177.1350  137.8840 C   0  0  1  0  0  3  0  0  0  0  0  0
  186.3500  178.3450  140.1120 C   0  0  0  0  0  0  0  0  0  0  0  0
  184.1630  178.9620  140.9710 C   0  0  0  0  0  0  0  0  0  0  0  0
  189.3040  177.5850  137.0380 C   0  0  0  0  0  3  0  0  0  0  0  0
  188.0870  177.1640  136.8320 N   0  0  0  0  0  0  0  0  0  0  0  0
  184.3790  179.2400  138.7890 C   0  0  0  0  0  3  0  0  0  0  0  0
  187.3330  178.2340  138.9400 C   0  0  1  0  0  3  0  0  0  0  0  0
  182.9740  179.4570  140.4900 C   0  0  0  0  0  3  0  0  0  0  0  0
  189.6910  178.0690  138.3290 N   0  0  0  0  0  2  0  0  0  0  0  0
  186.7910  178.2150  141.4700 C   0  0  0  0  0  0  0  0  0  0  0  0
  189.1350  178.6430  140.6710 C   0  0  0  0  0  2  0  0  0  0  0  0
  185.6950  177.1940  137.2280 C   0  0  0  0  0  1  0  0  0  0  0  0
  184.5310  178.7130  142.2820 C   0  0  0  0  0  3  0  0  0  0  0  0
  185.8570  178.3230  142.5490 C   0  0  0  0  0  0  0  0  0  0  0  0
  183.1340  179.6130  139.1550 N   0  0  0  0  0  0  0  0  0  0  0  0
  185.0340  178.8030  139.9250 C   0  0  0  0  0  0  0  0  0  0  0  0
  188.2640  178.0640  141.7750 C   0  0  0  0  0  2  0  0  0  0  0  0
  185.8560  178.4140  146.3470 C   0  0  0  0  0  0  0  0  0  0  0  0
  186.9990  177.6650  146.6390 C   0  0  0  0  0  3  0  0  0  0  0  0
  186.2330  178.0790  143.9650 C   0  0  0  0  0  0  0  0  0  0  0  0
  187.7650  177.1290  145.6020 C   0  0  0  0  0  3  0  0  0  0  0  0
  185.4780  178.6230  145.0170 C   0  0  0  0  0  3  0  0  0  0  0  0
  187.3870  177.3380  144.2730 C   0  0  0  0  0  3  0  0  0  0  0  0
  185.1160  178.9390  147.3520 F   0  0  0  0  0  0  0  0  0  0  0  0
  181.6830  181.3020  138.3630 C   0  0  0  0  0  3  0  0  0  0  0  0
  182.1720  180.1080  138.2580 N   0  0  0  0  0  0  0  0  0  0  0  0
  181.3790  184.0600  137.6120 F   0  0  0  0  0  0  0  0  0  0  0  0
  180.6640  181.7900  137.3890 C   0  0  1  0  0  3  0  0  0  0  0  0
  181.1730  183.0520  136.6880 C   0  0  1  0  0  3  0  0  0  0  0  0
  179.8810  182.4290  134.6310 C   0  0  0  0  0  2  0  0  0  0  0  0
  179.3520  181.1860  135.3380 C   0  0  0  0  0  2  0  0  0  0  0  0
  180.3700  180.6950  136.3620 C   0  0  0  0  0  2  0  0  0  0  0  0
  180.1600  183.5310  135.6500 C   0  0  0  0  0  2  0  0  0  0  0  0
  1 12  1  1  0  0  0
  2 13  1  6  0  0  0
  2  8  1  0  0  0  0
  3 11  2  0  0  0  0
  4 14  1  0  0  0  0
  5 10  1  0  0  0  0
  6  5  2  0  0  0  0
  6  2  1  0  0  0  0
  7 16  1  0  0  0  0
  7 17  2  0  0  0  0
  8  1  1  0  0  0  0
  8  3  1  1  0  0  0
  9  4  2  0  0  0  0
 10  1  1  0  0  0  0
 11 18  1  0  0  0  0
 11 15  1  0  0  0  0
 12 18  1  0  0  0  0
 14 15  2  0  0  0  0
 15 21  1  0  0  0  0
 16  9  1  0  0  0  0
 17  3  1  0  0  0  0
 17  4  1  0  0  0  0
 19 20  1  0  0  0  0
 19 25  1  0  0  0  0
 21 24  2  0  0  0  0
 21 23  1  0  0  0  0
 22 20  2  0  0  0  0
 23 19  2  0  0  0  0
 24 22  1  0  0  0  0
 27 26  2  0  0  0  0
 27 16  1  0  0  0  0
 29 26  1  1  0  0  0
 30 29  1  0  0  0  0
 30 28  1  1  0  0  0
 31 32  1  0  0  0  0
 31 34  1  0  0  0  0
 32 33  1  0  0  0  0
 33 29  1  0  0  0  0
 34 30  1  0  0  0  0
M  END
>  <MODEL>
7

>  <REMARK>
 VINA RESULT:      -9.4      5.237      9.114
  Name = 
  3 active torsions:
  status: ('A' for Active; 'I' for Inactive)
    1  A    between atoms: C_3  and  C_13
    2  A    between atoms: C_12  and  C_28
    3  A    between atoms: N_17  and  N_29
                            x       y       z     vdW  Elec       q    Type
                         _______ _______ _______ _____ _____    ______ ____

>  <TORSDO>
F 3

$$$$
=
 OpenBabel10252414483D

 34 39  0  0  1  0  0  0  0  0999 V2000
  187.2780  177.6520  137.6640 C   0  0  1  0  0  3  0  0  0  0  0  0
  188.6540  178.6270  139.3810 C   0  0  1  0  0  3  0  0  0  0  0  0
  186.0660  178.3520  139.7770 C   0  0  0  0  0  0  0  0  0  0  0  0
  184.6800  178.8570  141.7060 C   0  0  0  0  0  0  0  0  0  0  0  0
  189.6930  177.1530  137.7360 C   0  0  0  0  0  3  0  0  0  0  0  0
  189.8050  177.9520  138.7600 N   0  0  0  0  0  0  0  0  0  0  0  0
  186.6560  178.0090  142.2190 C   0  0  0  0  0  3  0  0  0  0  0  0
  187.3650  177.7910  139.1850 C   0  0  1  0  0  3  0  0  0  0  0  0
  184.7560  178.7640  143.0770 C   0  0  0  0  0  3  0  0  0  0  0  0
  188.4040  176.8760  137.1730 N   0  0  0  0  0  2  0  0  0  0  0  0
  184.9250  178.6180  138.9500 C   0  0  0  0  0  0  0  0  0  0  0  0
  185.9440  177.1360  137.1940 C   0  0  0  0  0  2  0  0  0  0  0  0
  189.0030  178.9490  140.8190 C   0  0  0  0  0  1  0  0  0  0  0  0
  183.6080  179.2450  140.9220 C   0  0  0  0  0  3  0  0  0  0  0  0
  183.7210  179.1400  139.5230 C   0  0  0  0  0  0  0  0  0  0  0  0
  185.9740  178.2470  143.3600 N   0  0  0  0  0  0  0  0  0  0  0  0
  185.8590  178.4120  141.1650 C   0  0  0  0  0  0  0  0  0  0  0  0
  184.9510  178.2510  137.4840 C   0  0  0  0  0  2  0  0  0  0  0  0
  181.1810  181.2760  137.6750 C   0  0  0  0  0  0  0  0  0  0  0  0
  180.2920  180.3040  137.2110 C   0  0  0  0  0  3  0  0  0  0  0  0
  182.5510  179.5460  138.7030 C   0  0  0  0  0  0  0  0  0  0  0  0
  180.5220  178.9560  137.4940 C   0  0  0  0  0  3  0  0  0  0  0  0
  182.3010  180.8990  138.4220 C   0  0  0  0  0  3  0  0  0  0  0  0
  181.6420  178.5800  138.2400 C   0  0  0  0  0  3  0  0  0  0  0  0
  180.9550  182.5830  137.4060 F   0  0  0  0  0  0  0  0  0  0  0  0
  187.6890  177.5560  144.8320 C   0  0  0  0  0  3  0  0  0  0  0  0
  186.4770  177.9690  144.6420 N   0  0  0  0  0  0  0  0  0  0  0  0
  190.3820  176.7470  145.4300 F   0  0  0  0  0  0  0  0  0  0  0  0
  188.1840  177.2730  146.2100 C   0  0  1  0  0  3  0  0  0  0  0  0
  189.6850  177.5670  146.2970 C   0  0  1  0  0  3  0  0  0  0  0  0
  189.4190  178.1970  148.7100 C   0  0  0  0  0  2  0  0  0  0  0  0
  187.9300  177.8770  148.6320 C   0  0  0  0  0  2  0  0  0  0  0  0
  187.4160  178.1300  147.2180 C   0  0  0  0  0  2  0  0  0  0  0  0
  190.1920  177.3320  147.7190 C   0  0  0  0  0  2  0  0  0  0  0  0
  1 12  1  1  0  0  0
  1  8  1  0  0  0  0
  2 13  1  1  0  0  0
  3 17  1  0  0  0  0
  4  9  2  0  0  0  0
  5  6  2  0  0  0  0
  6  2  1  0  0  0  0
  7 16  1  0  0  0  0
  8  2  1  0  0  0  0
  8  3  1  6  0  0  0
  9 16  1  0  0  0  0
 10  1  1  0  0  0  0
 10  5  1  0  0  0  0
 11 15  1  0  0  0  0
 11  3  2  0  0  0  0
 12 18  1  0  0  0  0
 14  4  1  0  0  0  0
 15 14  2  0  0  0  0
 16 27  1  0  0  0  0
 17  4  1  0  0  0  0
 17  7  2  0  0  0  0
 18 11  1  0  0  0  0
 19 23  1  0  0  0  0
 20 22  1  0  0  0  0
 20 19  2  0  0  0  0
 21 15  1  0  0  0  0
 22 24  2  0  0  0  0
 23 21  2  0  0  0  0
 24 21  1  0  0  0  0
 25 19  1  0  0  0  0
 27 26  2  0  0  0  0
 29 26  1  6  0  0  0
 29 30  1  0  0  0  0
 29 33  1  0  0  0  0
 30 28  1  6  0  0  0
 30 34  1  0  0  0  0
 32 31  1  0  0  0  0
 33 32  1  0  0  0  0
 34 31  1  0  0  0  0
M  END
>  <MODEL>
8

>  <REMARK>
 VINA RESULT:      -9.4      4.163      8.402
  Name = 
  3 active torsions:
  status: ('A' for Active; 'I' for Inactive)
    1  A    between atoms: C_3  and  C_13
    2  A    between atoms: C_12  and  C_28
    3  A    between atoms: N_17  and  N_29
                            x       y       z     vdW  Elec       q    Type
                         _______ _______ _______ _____ _____    ______ ____

>  <TORSDO>
F 3

$$$$
=
 OpenBabel10252414483D

 34 39  0  0  1  0  0  0  0  0999 V2000
  191.8350  174.8720  136.5920 C   0  0  1  0  0  3  0  0  0  0  0  0
  193.0950  176.3960  137.9650 C   0  0  1  0  0  3  0  0  0  0  0  0
  190.4790  176.2530  138.2280 C   0  0  0  0  0  0  0  0  0  0  0  0
  188.9600  177.3860  139.7480 C   0  0  0  0  0  0  0  0  0  0  0  0
  194.2270  174.4500  137.0220 C   0  0  0  0  0  3  0  0  0  0  0  0
  194.2760  175.5570  137.7090 N   0  0  0  0  0  0  0  0  0  0  0  0
  190.8740  176.7870  140.6760 C   0  0  0  0  0  3  0  0  0  0  0  0
  191.8080  175.5330  137.9720 C   0  0  1  0  0  3  0  0  0  0  0  0
  188.9300  177.7770  141.0660 C   0  0  0  0  0  3  0  0  0  0  0  0
  192.9810  173.9840  136.4920 N   0  0  0  0  0  2  0  0  0  0  0  0
  189.4090  176.2050  137.2740 C   0  0  0  0  0  0  0  0  0  0  0  0
  190.5310  174.2130  136.2290 C   0  0  0  0  0  2  0  0  0  0  0  0
  193.3390  177.2020  139.2240 C   0  0  0  0  0  1  0  0  0  0  0  0
  187.9580  177.4670  138.7960 C   0  0  0  0  0  3  0  0  0  0  0  0
  188.1760  176.8830  137.5340 C   0  0  0  0  0  0  0  0  0  0  0  0
  190.1130  177.4020  141.6060 N   0  0  0  0  0  0  0  0  0  0  0  0
  190.1680  176.7910  139.4880 C   0  0  0  0  0  0  0  0  0  0  0  0
  189.5400  175.3500  136.0340 C   0  0  0  0  0  2  0  0  0  0  0  0
  185.0380  176.0840  135.5480 C   0  0  0  0  0  0  0  0  0  0  0  0
  185.0510  177.1040  134.5940 C   0  0  0  0  0  3  0  0  0  0  0  0
  187.0800  176.9680  136.5360 C   0  0  0  0  0  0  0  0  0  0  0  0
  186.0770  178.0520  134.5990 C   0  0  0  0  0  3  0  0  0  0  0  0
  186.0490  176.0140  136.5100 C   0  0  0  0  0  3  0  0  0  0  0  0
  187.0880  177.9810  135.5620 C   0  0  0  0  0  3  0  0  0  0  0  0
  184.0470  175.1620  135.5380 F   0  0  0  0  0  0  0  0  0  0  0  0
  189.7270  177.3290  143.9360 C   0  0  0  0  0  3  0  0  0  0  0  0
  190.5100  177.5920  142.9400 N   0  0  0  0  0  0  0  0  0  0  0  0
  188.0230  178.2620  146.0560 F   0  0  0  0  0  0  0  0  0  0  0  0
  190.1880  177.5430  145.3380 C   0  0  1  0  0  3  0  0  0  0  0  0
  189.0210  177.3390  146.3100 C   0  0  1  0  0  3  0  0  0  0  0  0
  190.6230  176.5220  148.0580 C   0  0  0  0  0  2  0  0  0  0  0  0
  191.7880  176.7510  147.1010 C   0  0  0  0  0  2  0  0  0  0  0  0
  191.3220  176.5690  145.6600 C   0  0  0  0  0  2  0  0  0  0  0  0
  189.4950  177.5030  147.7530 C   0  0  0  0  0  2  0  0  0  0  0  0
  1 12  1  1  0  0  0
  1  8  1  0  0  0  0
  2  8  1  0  0  0  0
  2 13  1  1  0  0  0
  3 17  1  0  0  0  0
  4  9  2  0  0  0  0
  5  6  2  0  0  0  0
  6  2  1  0  0  0  0
  7 16  1  0  0  0  0
  8  3  1  6  0  0  0
  9 16  1  0  0  0  0
 10  1  1  0  0  0  0
 10  5  1  0  0  0  0
 11 15  1  0  0  0  0
 11  3  2  0  0  0  0
 14  4  1  0  0  0  0
 15 14  2  0  0  0  0
 16 27  1  0  0  0  0
 17  4  1  0  0  0  0
 17  7  2  0  0  0  0
 18 12  1  0  0  0  0
 18 11  1  0  0  0  0
 19 23  1  0  0  0  0
 20 22  1  0  0  0  0
 20 19  2  0  0  0  0
 21 15  1  0  0  0  0
 22 24  2  0  0  0  0
 23 21  2  0  0  0  0
 24 21  1  0  0  0  0
 25 19  1  0  0  0  0
 27 26  2  0  0  0  0
 29 26  1  6  0  0  0
 29 33  1  0  0  0  0
 29 30  1  0  0  0  0
 30 28  1  6  0  0  0
 30 34  1  0  0  0  0
 32 31  1  0  0  0  0
 33 32  1  0  0  0  0
 34 31  1  0  0  0  0
M  END
>  <MODEL>
9

>  <REMARK>
 VINA RESULT:      -9.0      3.604      8.453
  Name = 
  3 active torsions:
  status: ('A' for Active; 'I' for Inactive)
    1  A    between atoms: C_3  and  C_13
    2  A    between atoms: C_12  and  C_28
    3  A    between atoms: N_17  and  N_29
                            x       y       z     vdW  Elec       q    Type
                         _______ _______ _______ _____ _____    ______ ____

>  <TORSDO>
F 3

$$$$
