=
 OpenBabel10262420493D

 28 32  0  0  1  0  0  0  0  0999 V2000
  184.4860  178.1810  142.2550 C   0  0  0  0  0  3  0  0  0  0  0  0
  189.0840  177.7270  146.3650 O   0  0  0  0  0  1  0  0  0  0  0  0
  184.3570  178.5790  144.6480 C   0  0  0  0  0  0  0  0  0  0  0  0
  186.5080  177.6360  143.6650 C   0  0  1  0  0  3  0  0  0  0  0  0
  182.4420  179.0280  143.2310 C   0  0  0  0  0  0  0  0  0  0  0  0
  185.1080  178.1900  143.5130 C   0  0  0  0  0  0  0  0  0  0  0  0
  186.1970  177.7250  146.1340 C   0  0  0  0  0  2  0  0  0  0  0  0
  183.0370  179.0140  144.4930 C   0  0  0  0  0  3  0  0  0  0  0  0
  189.4360  177.6270  143.9940 C   0  0  2  0  0  3  0  0  0  0  0  0
  187.4270  178.0640  142.5280 C   0  0  0  0  0  2  0  0  0  0  0  0
  184.9670  178.6220  146.0220 C   0  0  0  0  0  2  0  0  0  0  0  0
  188.4890  177.3210  145.1670 C   0  0  2  0  0  3  0  0  0  0  0  0
  180.7870  179.5690  143.0500 Cl  0  0  0  0  0  0  0  0  0  0  0  0
  183.1630  178.6050  142.1130 C   0  0  0  0  0  3  0  0  0  0  0  0
  187.1530  178.0450  144.9920 C   0  0  1  0  0  3  0  0  0  0  0  0
  188.7630  177.3280  142.6350 C   0  0  1  0  0  3  0  0  0  0  0  0
  189.6490  177.7510  141.4670 C   0  0  2  0  0  3  0  0  0  0  0  0
  189.2800  176.9500  140.2300 C   0  0  2  0  0  3  0  0  0  0  0  0
  190.5130  176.5870  141.0250 C   0  0  0  0  0  2  0  0  0  0  0  0
  189.6870  177.7370  138.9940 C   0  0  2  0  0  3  0  0  0  0  0  0
  188.4540  178.4310  138.4160 C   0  0  2  0  0  3  0  0  0  0  0  0
  189.8860  177.4140  136.4530 C   0  0  0  0  0  1  0  0  0  0  0  0
  189.0480  177.2230  137.7100 C   0  0  1  0  0  0  0  0  0  0  0  0
  188.8430  179.6200  137.7950 O   0  0  0  0  0  1  0  0  0  0  0  0
  188.2770  175.9910  137.8270 N   0  0  0  0  0  2  0  0  0  0  0  0
  187.0310  176.2450  137.3610 O   0  0  0  0  0  1  0  0  0  0  0  0
  191.8150  177.6470  144.2490 O   0  0  0  0  0  1  0  0  0  0  0  0
  190.7080  176.8030  144.1660 C   0  0  0  0  0  2  0  0  0  0  0  0
  1  6  1  0  0  0  0
  3 11  1  0  0  0  0
  4 10  1  6  0  0  0
  4 15  1  0  0  0  0
  5  8  2  0  0  0  0
  6  4  1  0  0  0  0
  6  3  2  0  0  0  0
  8  3  1  0  0  0  0
  9 28  1  1  0  0  0
  9 12  1  0  0  0  0
 11  7  1  0  0  0  0
 12  2  1  1  0  0  0
 13  5  1  0  0  0  0
 14  1  2  0  0  0  0
 14  5  1  0  0  0  0
 15 12  1  0  0  0  0
 15  7  1  1  0  0  0
 16 10  1  1  0  0  0
 16  9  1  0  0  0  0
 17 19  1  1  0  0  0
 17 16  1  0  0  0  0
 18 19  1  1  0  0  0
 18 17  1  0  0  0  0
 20 18  1  1  0  0  0
 21 24  1  6  0  0  0
 21 20  1  0  0  0  0
 23 22  1  6  0  0  0
 23 25  1  0  0  0  0
 23 21  1  0  0  0  0
 23 20  1  0  0  0  0
 26 25  1  0  0  0  0
 28 27  1  0  0  0  0
M  END
>  <MODEL>
1

>  <REMARK>
 VINA RESULT:      -9.9      0.000      0.000
  Name = 
  4 active torsions:
  status: ('A' for Active; 'I' for Inactive)
    1  A    between atoms: C_1  and  C_27
    2  A    between atoms: C_2  and  C_3
    3  A    between atoms: N_6  and  C_11
    4  A    between atoms: C_16  and  C_21
                            x       y       z     vdW  Elec       q    Type
                         _______ _______ _______ _____ _____    ______ ____

>  <TORSDO>
F 4

$$$$
=
 OpenBabel10262420493D

 28 32  0  0  1  0  0  0  0  0999 V2000
  190.6530  177.0910  144.9930 C   0  0  0  0  0  3  0  0  0  0  0  0
  184.6090  178.3840  145.1660 O   0  0  0  0  0  1  0  0  0  0  0  0
  189.2130  177.1070  146.9500 C   0  0  0  0  0  0  0  0  0  0  0  0
  188.2870  177.9310  144.7260 C   0  0  1  0  0  3  0  0  0  0  0  0
  191.5140  176.3640  147.1330 C   0  0  0  0  0  0  0  0  0  0  0  0
  189.3900  177.3170  145.5610 C   0  0  0  0  0  0  0  0  0  0  0  0
  186.9820  178.2590  146.8220 C   0  0  0  0  0  2  0  0  0  0  0  0
  190.2710  176.6120  147.7190 C   0  0  0  0  0  3  0  0  0  0  0  0
  185.8220  178.0840  143.1200 C   0  0  2  0  0  3  0  0  0  0  0  0
  188.2270  177.3410  143.3230 C   0  0  0  0  0  2  0  0  0  0  0  0
  187.8830  177.3200  147.6180 C   0  0  0  0  0  2  0  0  0  0  0  0
  185.8660  178.5590  144.5820 C   0  0  2  0  0  3  0  0  0  0  0  0
  192.8330  175.7500  148.1060 Cl  0  0  0  0  0  0  0  0  0  0  0  0
  191.7070  176.6080  145.7720 C   0  0  0  0  0  3  0  0  0  0  0  0
  186.9110  177.7760  145.3780 C   0  0  1  0  0  3  0  0  0  0  0  0
  187.2260  178.1240  142.4730 C   0  0  1  0  0  3  0  0  0  0  0  0
  187.2110  177.5320  141.0670 C   0  0  2  0  0  3  0  0  0  0  0  0
  188.2800  178.2020  140.2200 C   0  0  2  0  0  3  0  0  0  0  0  0
  186.8310  178.6010  140.0610 C   0  0  0  0  0  2  0  0  0  0  0  0
  188.6750  177.2620  139.0910 C   0  0  2  0  0  3  0  0  0  0  0  0
  190.1660  177.4280  138.8030 C   0  0  2  0  0  3  0  0  0  0  0  0
  188.8500  177.2560  136.5280 C   0  0  0  0  0  1  0  0  0  0  0  0
  189.1380  177.9850  137.8330 C   0  0  1  0  0  0  0  0  0  0  0  0
  190.6850  176.2150  138.3460 O   0  0  0  0  0  1  0  0  0  0  0  0
  188.9970  179.4370  137.8410 N   0  0  0  0  0  2  0  0  0  0  0  0
  188.0070  179.7540  136.9730 O   0  0  0  0  0  1  0  0  0  0  0  0
  183.7920  178.1880  141.8570 O   0  0  0  0  0  1  0  0  0  0  0  0
  184.8420  178.9630  142.3500 C   0  0  0  0  0  2  0  0  0  0  0  0
  1  6  2  0  0  0  0
  1 14  1  0  0  0  0
  3 11  1  0  0  0  0
  3  8  2  0  0  0  0
  4 10  1  6  0  0  0
  4 15  1  0  0  0  0
  4  6  1  0  0  0  0
  5  8  1  0  0  0  0
  5 13  1  0  0  0  0
  6  3  1  0  0  0  0
  7 11  1  0  0  0  0
  9 28  1  6  0  0  0
  9 12  1  0  0  0  0
 12  2  1  1  0  0  0
 12 15  1  0  0  0  0
 14  5  2  0  0  0  0
 15  7  1  1  0  0  0
 16  9  1  0  0  0  0
 16 10  1  1  0  0  0
 17 19  1  6  0  0  0
 17 16  1  0  0  0  0
 18 19  1  6  0  0  0
 18 17  1  0  0  0  0
 20 18  1  1  0  0  0
 21 24  1  6  0  0  0
 21 20  1  0  0  0  0
 23 22  1  6  0  0  0
 23 25  1  0  0  0  0
 23 21  1  0  0  0  0
 23 20  1  0  0  0  0
 26 25  1  0  0  0  0
 27 28  1  0  0  0  0
M  END
>  <MODEL>
2

>  <REMARK>
 VINA RESULT:      -9.3      3.402      5.366
  Name = 
  4 active torsions:
  status: ('A' for Active; 'I' for Inactive)
    1  A    between atoms: C_1  and  C_27
    2  A    between atoms: C_2  and  C_3
    3  A    between atoms: N_6  and  C_11
    4  A    between atoms: C_16  and  C_21
                            x       y       z     vdW  Elec       q    Type
                         _______ _______ _______ _____ _____    ______ ____

>  <TORSDO>
F 4

$$$$
=
 OpenBabel10262420493D

 28 32  0  0  1  0  0  0  0  0999 V2000
  188.9480  178.0320  141.0130 C   0  0  0  0  0  3  0  0  0  0  0  0
  187.7240  177.0830  146.9990 O   0  0  0  0  0  1  0  0  0  0  0  0
  190.4390  177.0840  142.6820 C   0  0  0  0  0  0  0  0  0  0  0  0
  188.2010  178.0430  143.4240 C   0  0  1  0  0  3  0  0  0  0  0  0
  191.1040  177.1580  140.3510 C   0  0  0  0  0  0  0  0  0  0  0  0
  189.1930  177.6670  142.3460 C   0  0  0  0  0  0  0  0  0  0  0  0
  189.9050  177.3930  145.1190 C   0  0  0  0  0  2  0  0  0  0  0  0
  191.3750  176.8160  141.6780 C   0  0  0  0  0  3  0  0  0  0  0  0
  186.0460  177.7160  145.4070 C   0  0  2  0  0  3  0  0  0  0  0  0
  186.7580  177.8210  142.9860 C   0  0  0  0  0  2  0  0  0  0  0  0
  190.7590  176.6610  144.0880 C   0  0  0  0  0  2  0  0  0  0  0  0
  187.5220  177.8140  145.8260 C   0  0  2  0  0  3  0  0  0  0  0  0
  192.2850  176.8240  139.1040 Cl  0  0  0  0  0  0  0  0  0  0  0  0
  189.8950  177.7710  140.0200 C   0  0  0  0  0  3  0  0  0  0  0  0
  188.4380  177.2730  144.7260 C   0  0  1  0  0  3  0  0  0  0  0  0
  185.8030  178.3900  144.0370 C   0  0  1  0  0  3  0  0  0  0  0  0
  184.3700  178.1820  143.5570 C   0  0  2  0  0  3  0  0  0  0  0  0
  184.1160  179.0330  142.3240 C   0  0  2  0  0  3  0  0  0  0  0  0
  183.5950  179.4800  143.6710 C   0  0  0  0  0  2  0  0  0  0  0  0
  182.9830  178.4120  141.5220 C   0  0  2  0  0  3  0  0  0  0  0  0
  183.5760  177.5400  140.4150 C   0  0  2  0  0  3  0  0  0  0  0  0
  181.5510  178.9220  139.4510 C   0  0  0  0  0  1  0  0  0  0  0  0
  182.9400  178.8780  140.0720 C   0  0  1  0  0  0  0  0  0  0  0  0
  182.7040  176.4840  140.1440 O   0  0  0  0  0  1  0  0  0  0  0  0
  183.8750  179.9380  139.7130 N   0  0  0  0  0  2  0  0  0  0  0  0
  184.8310  179.3870  138.9270 O   0  0  0  0  0  1  0  0  0  0  0  0
  185.6430  179.6500  146.7580 O   0  0  0  0  0  1  0  0  0  0  0  0
  185.1870  178.3590  146.4910 C   0  0  0  0  0  2  0  0  0  0  0  0
  1  6  1  0  0  0  0
  3 11  1  0  0  0  0
  4 10  1  6  0  0  0
  4 15  1  0  0  0  0
  5  8  2  0  0  0  0
  6  3  2  0  0  0  0
  6  4  1  0  0  0  0
  8  3  1  0  0  0  0
  9 12  1  0  0  0  0
  9 28  1  1  0  0  0
 11  7  1  0  0  0  0
 12  2  1  1  0  0  0
 13  5  1  0  0  0  0
 14  5  1  0  0  0  0
 14  1  2  0  0  0  0
 15  7  1  1  0  0  0
 15 12  1  0  0  0  0
 16 10  1  6  0  0  0
 16  9  1  0  0  0  0
 17 19  1  1  0  0  0
 17 16  1  0  0  0  0
 18 17  1  0  0  0  0
 18 19  1  1  0  0  0
 20 18  1  1  0  0  0
 21 24  1  6  0  0  0
 21 20  1  0  0  0  0
 23 22  1  6  0  0  0
 23 21  1  0  0  0  0
 23 20  1  0  0  0  0
 25 23  1  0  0  0  0
 26 25  1  0  0  0  0
 28 27  1  0  0  0  0
M  END
>  <MODEL>
3

>  <REMARK>
 VINA RESULT:      -9.2      3.248      6.218
  Name = 
  4 active torsions:
  status: ('A' for Active; 'I' for Inactive)
    1  A    between atoms: C_1  and  C_27
    2  A    between atoms: C_2  and  C_3
    3  A    between atoms: N_6  and  C_11
    4  A    between atoms: C_16  and  C_21
                            x       y       z     vdW  Elec       q    Type
                         _______ _______ _______ _____ _____    ______ ____

>  <TORSDO>
F 4

$$$$
=
 OpenBabel10262420493D

 28 32  0  0  1  0  0  0  0  0999 V2000
  187.7030  177.8780  143.6310 C   0  0  0  0  0  3  0  0  0  0  0  0
  181.6130  178.9420  143.7720 O   0  0  0  0  0  1  0  0  0  0  0  0
  186.2730  177.9500  145.5930 C   0  0  0  0  0  0  0  0  0  0  0  0
  185.3050  178.6090  143.3330 C   0  0  1  0  0  3  0  0  0  0  0  0
  188.6020  177.3090  145.8020 C   0  0  0  0  0  0  0  0  0  0  0  0
  186.4350  178.0870  144.1940 C   0  0  0  0  0  0  0  0  0  0  0  0
  183.9970  179.0050  145.4150 C   0  0  0  0  0  2  0  0  0  0  0  0
  187.3530  177.5410  146.3820 C   0  0  0  0  0  3  0  0  0  0  0  0
  182.8280  178.5740  141.7370 C   0  0  2  0  0  3  0  0  0  0  0  0
  185.2620  177.9380  141.9650 C   0  0  0  0  0  2  0  0  0  0  0  0
  184.9390  178.1480  146.2570 C   0  0  0  0  0  2  0  0  0  0  0  0
  182.8600  179.1320  143.1690 C   0  0  2  0  0  3  0  0  0  0  0  0
  189.9490  176.8040  146.8000 Cl  0  0  0  0  0  0  0  0  0  0  0  0
  188.7790  177.4830  144.4280 C   0  0  0  0  0  3  0  0  0  0  0  0
  183.9390  178.4380  144.0020 C   0  0  1  0  0  3  0  0  0  0  0  0
  184.2260  178.6310  141.0800 C   0  0  1  0  0  3  0  0  0  0  0  0
  184.2280  177.9600  139.7090 C   0  0  2  0  0  3  0  0  0  0  0  0
  185.3720  178.5090  138.8740 C   0  0  2  0  0  3  0  0  0  0  0  0
  183.9600  178.9900  138.6290 C   0  0  0  0  0  2  0  0  0  0  0  0
  185.7480  177.4820  137.8180 C   0  0  2  0  0  3  0  0  0  0  0  0
  187.2130  177.0890  138.0030 C   0  0  2  0  0  3  0  0  0  0  0  0
  186.7080  177.3930  135.4360 C   0  0  0  0  0  1  0  0  0  0  0  0
  186.8050  177.9770  136.8390 C   0  0  1  0  0  0  0  0  0  0  0  0
  187.3920  175.7670  137.5910 O   0  0  0  0  0  1  0  0  0  0  0  0
  187.1850  179.3800  136.9620 N   0  0  0  0  0  2  0  0  0  0  0  0
  188.5140  179.4200  137.2180 O   0  0  0  0  0  1  0  0  0  0  0  0
  180.7520  178.5420  140.5480 O   0  0  0  0  0  1  0  0  0  0  0  0
  181.8100  179.3680  140.9260 C   0  0  0  0  0  2  0  0  0  0  0  0
  1  6  2  0  0  0  0
  1 14  1  0  0  0  0
  3 11  1  0  0  0  0
  3  8  2  0  0  0  0
  4 10  1  6  0  0  0
  4 15  1  0  0  0  0
  4  6  1  0  0  0  0
  5  8  1  0  0  0  0
  5 13  1  0  0  0  0
  6  3  1  0  0  0  0
  7 11  1  0  0  0  0
  9 28  1  6  0  0  0
  9 12  1  0  0  0  0
 12  2  1  1  0  0  0
 12 15  1  0  0  0  0
 14  5  2  0  0  0  0
 15  7  1  1  0  0  0
 16  9  1  0  0  0  0
 16 10  1  1  0  0  0
 17 19  1  6  0  0  0
 17 16  1  0  0  0  0
 18 19  1  6  0  0  0
 18 17  1  0  0  0  0
 20 21  1  0  0  0  0
 20 18  1  1  0  0  0
 21 24  1  6  0  0  0
 23 22  1  6  0  0  0
 23 25  1  0  0  0  0
 23 20  1  0  0  0  0
 23 21  1  0  0  0  0
 25 26  1  0  0  0  0
 27 28  1  0  0  0  0
M  END
>  <MODEL>
4

>  <REMARK>
 VINA RESULT:      -8.8      3.378      5.539
  Name = 
  4 active torsions:
  status: ('A' for Active; 'I' for Inactive)
    1  A    between atoms: C_1  and  C_27
    2  A    between atoms: C_2  and  C_3
    3  A    between atoms: N_6  and  C_11
    4  A    between atoms: C_16  and  C_21
                            x       y       z     vdW  Elec       q    Type
                         _______ _______ _______ _____ _____    ______ ____

>  <TORSDO>
F 4

$$$$
=
 OpenBabel10262420493D

 28 32  0  0  1  0  0  0  0  0999 V2000
  189.9020  177.1100  144.8660 C   0  0  0  0  0  3  0  0  0  0  0  0
  184.3680  178.7030  147.1170 O   0  0  0  0  0  1  0  0  0  0  0  0
  189.2190  177.1300  147.1970 C   0  0  0  0  0  0  0  0  0  0  0  0
  187.6420  178.0790  145.4380 C   0  0  1  0  0  3  0  0  0  0  0  0
  191.3950  176.2650  146.5690 C   0  0  0  0  0  0  0  0  0  0  0  0
  188.9240  177.3800  145.8350 C   0  0  0  0  0  0  0  0  0  0  0  0
  187.1510  178.3990  147.8580 C   0  0  0  0  0  2  0  0  0  0  0  0
  190.4440  176.5550  147.5490 C   0  0  0  0  0  3  0  0  0  0  0  0
  184.7910  178.4150  144.7740 C   0  0  2  0  0  3  0  0  0  0  0  0
  187.0720  177.5430  144.1300 C   0  0  0  0  0  2  0  0  0  0  0  0
  188.2110  177.3870  148.2830 C   0  0  0  0  0  2  0  0  0  0  0  0
  185.3590  178.8340  146.1400 C   0  0  2  0  0  3  0  0  0  0  0  0
  192.9280  175.5510  147.0230 Cl  0  0  0  0  0  0  0  0  0  0  0  0
  191.1270  176.5480  145.2290 C   0  0  0  0  0  3  0  0  0  0  0  0
  186.5630  177.9710  146.5190 C   0  0  1  0  0  3  0  0  0  0  0  0
  185.8900  178.4060  143.6870 C   0  0  1  0  0  3  0  0  0  0  0  0
  185.3620  177.8660  142.3610 C   0  0  2  0  0  3  0  0  0  0  0  0
  185.8660  178.7330  141.2200 C   0  0  2  0  0  3  0  0  0  0  0  0
  184.4460  178.8880  141.7160 C   0  0  0  0  0  2  0  0  0  0  0  0
  185.8700  177.9100  139.9410 C   0  0  2  0  0  3  0  0  0  0  0  0
  186.7770  178.5880  138.9150 C   0  0  2  0  0  3  0  0  0  0  0  0
  184.5850  177.7450  137.7230 C   0  0  0  0  0  1  0  0  0  0  0  0
  185.2670  178.6400  138.7470 C   0  0  1  0  0  0  0  0  0  0  0  0
  187.3430  177.6160  138.0870 O   0  0  0  0  0  1  0  0  0  0  0  0
  184.6530  179.9320  139.0310 N   0  0  0  0  0  2  0  0  0  0  0  0
  183.3590  179.8620  138.6390 O   0  0  0  0  0  1  0  0  0  0  0  0
  182.4390  178.6990  144.4370 O   0  0  0  0  0  1  0  0  0  0  0  0
  183.6620  179.3690  144.4000 C   0  0  0  0  0  2  0  0  0  0  0  0
  1 14  2  0  0  0  0
  1  6  1  0  0  0  0
  3  8  1  0  0  0  0
  3 11  1  0  0  0  0
  4 10  1  6  0  0  0
  4  6  1  0  0  0  0
  4 15  1  0  0  0  0
  5 13  1  0  0  0  0
  5  8  2  0  0  0  0
  6  3  2  0  0  0  0
  7 11  1  0  0  0  0
  9 28  1  6  0  0  0
  9 12  1  0  0  0  0
 12 15  1  0  0  0  0
 12  2  1  1  0  0  0
 14  5  1  0  0  0  0
 15  7  1  1  0  0  0
 16 10  1  1  0  0  0
 16  9  1  0  0  0  0
 17 19  1  1  0  0  0
 17 16  1  0  0  0  0
 18 19  1  6  0  0  0
 18 17  1  0  0  0  0
 20 18  1  1  0  0  0
 21 24  1  6  0  0  0
 21 20  1  0  0  0  0
 23 22  1  6  0  0  0
 23 21  1  0  0  0  0
 23 25  1  0  0  0  0
 23 20  1  0  0  0  0
 26 25  1  0  0  0  0
 28 27  1  0  0  0  0
M  END
>  <MODEL>
5

>  <REMARK>
 VINA RESULT:      -8.8      3.760      5.890
  Name = 
  4 active torsions:
  status: ('A' for Active; 'I' for Inactive)
    1  A    between atoms: C_1  and  C_27
    2  A    between atoms: C_2  and  C_3
    3  A    between atoms: N_6  and  C_11
    4  A    between atoms: C_16  and  C_21
                            x       y       z     vdW  Elec       q    Type
                         _______ _______ _______ _____ _____    ______ ____

>  <TORSDO>
F 4

$$$$
=
 OpenBabel10262420493D

 28 32  0  0  1  0  0  0  0  0999 V2000
  190.4290  177.7600  144.0230 C   0  0  0  0  0  3  0  0  0  0  0  0
  184.5380  177.9400  142.1520 O   0  0  0  0  0  1  0  0  0  0  0  0
  188.4470  177.4510  145.3920 C   0  0  0  0  0  0  0  0  0  0  0  0
  188.1740  178.1700  142.9660 C   0  0  1  0  0  3  0  0  0  0  0  0
  190.6520  177.1270  146.3460 C   0  0  0  0  0  0  0  0  0  0  0  0
  189.0310  177.7360  144.1350 C   0  0  0  0  0  0  0  0  0  0  0  0
  186.2140  178.1870  144.5020 C   0  0  0  0  0  2  0  0  0  0  0  0
  189.2630  177.1280  146.4810 C   0  0  0  0  0  3  0  0  0  0  0  0
  186.3920  177.9330  140.6300 C   0  0  2  0  0  3  0  0  0  0  0  0
  188.6880  177.6270  141.6380 C   0  0  0  0  0  2  0  0  0  0  0  0
  186.9560  177.3980  145.5770 C   0  0  0  0  0  2  0  0  0  0  0  0
  185.8650  178.3580  142.0110 C   0  0  2  0  0  3  0  0  0  0  0  0
  191.6640  176.7280  147.7170 Cl  0  0  0  0  0  0  0  0  0  0  0  0
  191.2360  177.4490  145.1190 C   0  0  0  0  0  3  0  0  0  0  0  0
  186.7110  177.7490  143.1300 C   0  0  1  0  0  3  0  0  0  0  0  0
  187.8990  178.2460  140.4830 C   0  0  1  0  0  3  0  0  0  0  0  0
  188.4570  177.7100  139.1680 C   0  0  2  0  0  3  0  0  0  0  0  0
  189.9470  177.9940  139.0920 C   0  0  2  0  0  3  0  0  0  0  0  0
  188.9740  178.8560  138.3210 C   0  0  0  0  0  2  0  0  0  0  0  0
  190.5930  176.9900  138.1500 C   0  0  2  0  0  3  0  0  0  0  0  0
  190.7760  175.6630  138.8840 C   0  0  2  0  0  3  0  0  0  0  0  0
  192.9330  176.1820  137.4650 C   0  0  0  0  0  1  0  0  0  0  0  0
  191.9800  176.5440  138.5950 C   0  0  1  0  0  0  0  0  0  0  0  0
  190.6880  174.6120  137.9690 O   0  0  0  0  0  1  0  0  0  0  0  0
  192.5350  177.2400  139.7500 N   0  0  0  0  0  2  0  0  0  0  0  0
  193.8830  177.1310  139.6810 O   0  0  0  0  0  1  0  0  0  0  0  0
  184.9310  179.7530  140.1030 O   0  0  0  0  0  1  0  0  0  0  0  0
  185.5790  178.6460  139.5560 C   0  0  0  0  0  2  0  0  0  0  0  0
  1  6  2  0  0  0  0
  1 14  1  0  0  0  0
  3 11  1  0  0  0  0
  3  8  2  0  0  0  0
  4 10  1  6  0  0  0
  4 15  1  0  0  0  0
  4  6  1  0  0  0  0
  5  8  1  0  0  0  0
  5 13  1  0  0  0  0
  6  3  1  0  0  0  0
  7 11  1  0  0  0  0
  9 28  1  6  0  0  0
  9 12  1  0  0  0  0
 12  2  1  1  0  0  0
 12 15  1  0  0  0  0
 14  5  2  0  0  0  0
 15  7  1  1  0  0  0
 16  9  1  0  0  0  0
 16 10  1  1  0  0  0
 17 19  1  6  0  0  0
 17 16  1  0  0  0  0
 18 19  1  6  0  0  0
 18 17  1  0  0  0  0
 20 23  1  0  0  0  0
 20 21  1  0  0  0  0
 20 18  1  1  0  0  0
 21 24  1  6  0  0  0
 23 22  1  6  0  0  0
 23 21  1  0  0  0  0
 23 25  1  0  0  0  0
 26 25  1  0  0  0  0
 28 27  1  0  0  0  0
M  END
>  <MODEL>
6

>  <REMARK>
 VINA RESULT:      -8.5      3.466      5.385
  Name = 
  4 active torsions:
  status: ('A' for Active; 'I' for Inactive)
    1  A    between atoms: C_1  and  C_27
    2  A    between atoms: C_2  and  C_3
    3  A    between atoms: N_6  and  C_11
    4  A    between atoms: C_16  and  C_21
                            x       y       z     vdW  Elec       q    Type
                         _______ _______ _______ _____ _____    ______ ____

>  <TORSDO>
F 4

$$$$
=
 OpenBabel10262420493D

 28 32  0  0  1  0  0  0  0  0999 V2000
  187.2350  177.5040  143.8810 C   0  0  0  0  0  3  0  0  0  0  0  0
  192.3040  177.5030  140.3390 O   0  0  0  0  0  1  0  0  0  0  0  0
  189.5450  177.6160  144.6270 C   0  0  0  0  0  0  0  0  0  0  0  0
  189.0600  177.2080  142.1610 C   0  0  1  0  0  3  0  0  0  0  0  0
  187.7330  177.8380  146.2230 C   0  0  0  0  0  0  0  0  0  0  0  0
  188.6050  177.4990  143.5750 C   0  0  0  0  0  0  0  0  0  0  0  0
  191.3810  176.9750  143.0330 C   0  0  0  0  0  2  0  0  0  0  0  0
  189.1000  177.8050  145.9390 C   0  0  0  0  0  3  0  0  0  0  0  0
  190.0870  177.7220  139.4480 C   0  0  2  0  0  3  0  0  0  0  0  0
  188.2050  177.9210  141.1200 C   0  0  0  0  0  2  0  0  0  0  0  0
  191.0250  177.6290  144.3650 C   0  0  0  0  0  2  0  0  0  0  0  0
  190.9760  177.1200  140.5490 C   0  0  2  0  0  3  0  0  0  0  0  0
  187.1880  178.0700  147.8710 Cl  0  0  0  0  0  0  0  0  0  0  0  0
  186.8010  177.6810  145.1960 C   0  0  0  0  0  3  0  0  0  0  0  0
  190.5240  177.5900  141.9330 C   0  0  1  0  0  3  0  0  0  0  0  0
  188.5910  177.4460  139.7190 C   0  0  1  0  0  3  0  0  0  0  0  0
  187.6980  178.1510  138.7020 C   0  0  2  0  0  3  0  0  0  0  0  0
  186.3140  177.5250  138.7160 C   0  0  2  0  0  3  0  0  0  0  0  0
  187.2880  177.1790  137.6130 C   0  0  0  0  0  2  0  0  0  0  0  0
  185.3070  178.5430  138.2040 C   0  0  2  0  0  3  0  0  0  0  0  0
  184.5480  179.1340  139.3900 C   0  0  2  0  0  3  0  0  0  0  0  0
  182.8610  178.6480  137.4270 C   0  0  0  0  0  1  0  0  0  0  0  0
  183.8590  178.1480  138.4620 C   0  0  1  0  0  0  0  0  0  0  0  0
  184.1790  180.4480  139.0930 O   0  0  0  0  0  1  0  0  0  0  0  0
  183.6490  176.8150  139.0150 N   0  0  0  0  0  2  0  0  0  0  0  0
  183.0520  176.9650  140.2220 O   0  0  0  0  0  1  0  0  0  0  0  0
  190.5590  175.7510  138.1760 O   0  0  0  0  0  1  0  0  0  0  0  0
  190.5150  177.1430  138.1040 C   0  0  0  0  0  2  0  0  0  0  0  0
  1 14  1  0  0  0  0
  3  8  2  0  0  0  0
  4 10  1  6  0  0  0
  4  6  1  0  0  0  0
  5 13  1  0  0  0  0
  6  1  2  0  0  0  0
  6  3  1  0  0  0  0
  7 11  1  0  0  0  0
  8  5  1  0  0  0  0
  9 28  1  6  0  0  0
  9 16  1  0  0  0  0
  9 12  1  0  0  0  0
 11  3  1  0  0  0  0
 12  2  1  6  0  0  0
 12 15  1  0  0  0  0
 14  5  2  0  0  0  0
 15  4  1  0  0  0  0
 15  7  1  1  0  0  0
 16 10  1  1  0  0  0
 17 19  1  6  0  0  0
 17 18  1  0  0  0  0
 17 16  1  0  0  0  0
 18 19  1  6  0  0  0
 20 23  1  0  0  0  0
 20 18  1  1  0  0  0
 20 21  1  0  0  0  0
 21 24  1  6  0  0  0
 23 22  1  6  0  0  0
 23 25  1  0  0  0  0
 23 21  1  0  0  0  0
 25 26  1  0  0  0  0
 28 27  1  0  0  0  0
M  END
>  <MODEL>
7

>  <REMARK>
 VINA RESULT:      -8.5      3.114      5.168
  Name = 
  4 active torsions:
  status: ('A' for Active; 'I' for Inactive)
    1  A    between atoms: C_1  and  C_27
    2  A    between atoms: C_2  and  C_3
    3  A    between atoms: N_6  and  C_11
    4  A    between atoms: C_16  and  C_21
                            x       y       z     vdW  Elec       q    Type
                         _______ _______ _______ _____ _____    ______ ____

>  <TORSDO>
F 4

$$$$
=
 OpenBabel10262420493D

 28 32  0  0  1  0  0  0  0  0999 V2000
  185.8360  177.6220  143.6080 C   0  0  0  0  0  3  0  0  0  0  0  0
  189.5880  178.2910  148.4770 O   0  0  0  0  0  1  0  0  0  0  0  0
  185.3380  178.7590  145.6960 C   0  0  0  0  0  0  0  0  0  0  0  0
  187.5190  177.4640  145.4820 C   0  0  1  0  0  3  0  0  0  0  0  0
  183.7500  178.8180  143.8650 C   0  0  0  0  0  0  0  0  0  0  0  0
  186.2300  178.0010  144.9000 C   0  0  0  0  0  0  0  0  0  0  0  0
  186.7980  178.3390  147.7000 C   0  0  0  0  0  2  0  0  0  0  0  0
  184.1150  179.1780  145.1630 C   0  0  0  0  0  3  0  0  0  0  0  0
  190.3310  177.4360  146.3630 C   0  0  2  0  0  3  0  0  0  0  0  0
  188.6590  177.4730  144.4710 C   0  0  0  0  0  2  0  0  0  0  0  0
  185.7030  179.2050  147.0850 C   0  0  0  0  0  2  0  0  0  0  0  0
  189.1700  177.5540  147.3650 C   0  0  2  0  0  3  0  0  0  0  0  0
  182.2140  179.3440  143.2100 Cl  0  0  0  0  0  0  0  0  0  0  0  0
  184.6070  178.0360  143.0890 C   0  0  0  0  0  3  0  0  0  0  0  0
  187.9640  178.2420  146.7230 C   0  0  1  0  0  3  0  0  0  0  0  0
  189.8760  176.7530  145.0530 C   0  0  1  0  0  3  0  0  0  0  0  0
  190.9870  176.7500  144.0080 C   0  0  2  0  0  3  0  0  0  0  0  0
  190.6050  175.8330  142.8580 C   0  0  2  0  0  3  0  0  0  0  0  0
  191.5930  175.3640  143.9020 C   0  0  0  0  0  2  0  0  0  0  0  0
  191.3550  176.2690  141.6090 C   0  0  2  0  0  3  0  0  0  0  0  0
  191.3510  177.7950  141.5330 C   0  0  2  0  0  3  0  0  0  0  0  0
  190.8890  176.7980  139.1390 C   0  0  0  0  0  1  0  0  0  0  0  0
  190.4750  176.9840  140.5920 C   0  0  1  0  0  0  0  0  0  0  0  0
  192.5140  178.2270  140.8920 O   0  0  0  0  0  1  0  0  0  0  0  0
  189.0480  177.0150  140.8890 N   0  0  0  0  0  2  0  0  0  0  0  0
  188.6810  178.3150  140.9900 O   0  0  0  0  0  1  0  0  0  0  0  0
  191.0030  175.4120  147.4500 O   0  0  0  0  0  1  0  0  0  0  0  0
  191.4650  176.6560  147.0190 C   0  0  0  0  0  2  0  0  0  0  0  0
  1  6  1  0  0  0  0
  3 11  1  0  0  0  0
  4 10  1  6  0  0  0
  4 15  1  0  0  0  0
  5  8  2  0  0  0  0
  6  4  1  0  0  0  0
  6  3  2  0  0  0  0
  8  3  1  0  0  0  0
  9 28  1  1  0  0  0
  9 12  1  0  0  0  0
 11  7  1  0  0  0  0
 12  2  1  1  0  0  0
 13  5  1  0  0  0  0
 14  1  2  0  0  0  0
 14  5  1  0  0  0  0
 15 12  1  0  0  0  0
 15  7  1  1  0  0  0
 16 10  1  6  0  0  0
 16  9  1  0  0  0  0
 17 19  1  1  0  0  0
 17 16  1  0  0  0  0
 18 19  1  1  0  0  0
 18 17  1  0  0  0  0
 20 18  1  1  0  0  0
 21 24  1  6  0  0  0
 21 20  1  0  0  0  0
 23 22  1  6  0  0  0
 23 25  1  0  0  0  0
 23 21  1  0  0  0  0
 23 20  1  0  0  0  0
 25 26  1  0  0  0  0
 28 27  1  0  0  0  0
M  END
>  <MODEL>
8

>  <REMARK>
 VINA RESULT:      -8.4      2.001      2.815
  Name = 
  4 active torsions:
  status: ('A' for Active; 'I' for Inactive)
    1  A    between atoms: C_1  and  C_27
    2  A    between atoms: C_2  and  C_3
    3  A    between atoms: N_6  and  C_11
    4  A    between atoms: C_16  and  C_21
                            x       y       z     vdW  Elec       q    Type
                         _______ _______ _______ _____ _____    ______ ____

>  <TORSDO>
F 4

$$$$
=
 OpenBabel10262420493D

 28 32  0  0  1  0  0  0  0  0999 V2000
  186.6600  177.7260  145.1690 C   0  0  0  0  0  3  0  0  0  0  0  0
  189.8210  178.0070  139.8620 O   0  0  0  0  0  1  0  0  0  0  0  0
  189.0730  177.6960  144.8980 C   0  0  0  0  0  0  0  0  0  0  0  0
  187.5950  177.5850  142.8280 C   0  0  1  0  0  3  0  0  0  0  0  0
  188.0940  177.7780  147.1140 C   0  0  0  0  0  0  0  0  0  0  0  0
  187.7800  177.7230  144.3240 C   0  0  0  0  0  0  0  0  0  0  0  0
  190.0470  177.1980  142.6340 C   0  0  0  0  0  2  0  0  0  0  0  0
  189.2190  177.7450  146.2880 C   0  0  0  0  0  3  0  0  0  0  0  0
  187.4550  178.3800  139.9950 C   0  0  2  0  0  3  0  0  0  0  0  0
  186.4410  178.4320  142.3070 C   0  0  0  0  0  2  0  0  0  0  0  0
  190.3140  177.7030  144.0490 C   0  0  0  0  0  2  0  0  0  0  0  0
  188.6720  177.6350  140.5670 C   0  0  2  0  0  3  0  0  0  0  0  0
  188.2890  177.8340  148.8530 Cl  0  0  0  0  0  0  0  0  0  0  0  0
  186.8150  177.7620  146.5560 C   0  0  0  0  0  3  0  0  0  0  0  0
  188.8610  177.9550  142.0500 C   0  0  1  0  0  3  0  0  0  0  0  0
  186.1850  178.1110  140.8340 C   0  0  1  0  0  3  0  0  0  0  0  0
  185.0060  178.9500  140.3490 C   0  0  2  0  0  3  0  0  0  0  0  0
  183.7280  178.1330  140.4390 C   0  0  2  0  0  3  0  0  0  0  0  0
  184.4080  178.3280  139.1030 C   0  0  0  0  0  2  0  0  0  0  0  0
  182.5440  179.0810  140.5490 C   0  0  2  0  0  3  0  0  0  0  0  0
  181.7200  178.7080  141.7800 C   0  0  2  0  0  3  0  0  0  0  0  0
  180.1000  179.2490  139.7740 C   0  0  0  0  0  1  0  0  0  0  0  0
  181.1960  178.3900  140.3890 C   0  0  1  0  0  0  0  0  0  0  0  0
  181.1150  179.8570  142.2950 O   0  0  0  0  0  1  0  0  0  0  0  0
  181.2400  176.9810  140.0150 N   0  0  0  0  0  2  0  0  0  0  0  0
  180.8600  176.8930  138.7180 O   0  0  0  0  0  1  0  0  0  0  0  0
  187.6140  178.9830  137.6840 O   0  0  0  0  0  1  0  0  0  0  0  0
  187.2540  177.9480  138.5460 C   0  0  0  0  0  2  0  0  0  0  0  0
  1 14  1  0  0  0  0
  3  8  2  0  0  0  0
  4 10  1  6  0  0  0
  4  6  1  0  0  0  0
  5 13  1  0  0  0  0
  6  3  1  0  0  0  0
  6  1  2  0  0  0  0
  7 11  1  0  0  0  0
  8  5  1  0  0  0  0
  9 28  1  6  0  0  0
  9 12  1  0  0  0  0
  9 16  1  0  0  0  0
 11  3  1  0  0  0  0
 12  2  1  6  0  0  0
 12 15  1  0  0  0  0
 14  5  2  0  0  0  0
 15  7  1  1  0  0  0
 15  4  1  0  0  0  0
 16 10  1  1  0  0  0
 17 19  1  6  0  0  0
 17 18  1  0  0  0  0
 17 16  1  0  0  0  0
 18 19  1  6  0  0  0
 20 18  1  1  0  0  0
 20 21  1  0  0  0  0
 21 24  1  6  0  0  0
 23 22  1  6  0  0  0
 23 20  1  0  0  0  0
 23 21  1  0  0  0  0
 25 23  1  0  0  0  0
 26 25  1  0  0  0  0
 27 28  1  0  0  0  0
M  END
>  <MODEL>
9

>  <REMARK>
 VINA RESULT:      -8.3      3.483      6.294
  Name = 
  4 active torsions:
  status: ('A' for Active; 'I' for Inactive)
    1  A    between atoms: C_1  and  C_27
    2  A    between atoms: C_2  and  C_3
    3  A    between atoms: N_6  and  C_11
    4  A    between atoms: C_16  and  C_21
                            x       y       z     vdW  Elec       q    Type
                         _______ _______ _______ _____ _____    ______ ____

>  <TORSDO>
F 4

$$$$
