=
 OpenBabel10262423393D

 34 34  0  0  1  0  0  0  0  0999 V2000
  182.9080  178.9930  142.7200 O   0  0  0  0  0  0  0  0  0  0  0  0
  184.2130  178.4940  142.7150 C   0  0  0  0  0  2  0  0  0  0  0  0
  184.7150  178.3000  144.1380 C   0  0  2  0  0  3  0  0  0  0  0  0
  183.7250  178.9640  145.0810 C   0  0  0  0  0  2  0  0  0  0  0  0
  184.2240  178.9610  146.3830 O   0  0  0  0  0  1  0  0  0  0  0  0
  185.9760  178.9020  144.2720 O   0  0  0  0  0  0  0  0  0  0  0  0
  186.6770  176.9600  145.5400 C   0  0  0  0  0  2  0  0  0  0  0  0
  187.8800  177.8920  145.5440 C   0  0  0  0  0  2  0  0  0  0  0  0
  186.9320  177.8720  144.3600 C   0  0  0  0  0  0  0  0  0  0  0  0
  187.3710  177.1430  143.0940 C   0  0  0  0  0  2  0  0  0  0  0  0
  188.7940  176.6170  143.2160 C   0  0  0  0  0  2  0  0  0  0  0  0
  189.8880  177.4350  142.0180 S   0  0  0  0  0  0  0  0  0  0  0  0
  191.2610  177.5280  143.2150 C   0  0  1  0  0  3  0  0  0  0  0  0
  191.2840  178.9010  143.8560 C   0  0  0  0  0  1  0  0  0  0  0  0
  191.1680  176.4450  144.2910 C   0  0  1  0  0  3  0  0  0  0  0  0
  191.9870  175.3570  143.9840 O   0  0  0  0  0  1  0  0  0  0  0  0
  191.5280  176.9980  145.6550 C   0  0  0  0  0  1  0  0  0  0  0  0
  182.2480  178.2890  141.7100 C   0  0  0  0  0  2  0  0  0  0  0  0
  181.2610  179.1930  140.9890 C   0  0  2  0  0  3  0  0  0  0  0  0
  180.0860  179.5110  141.8570 C   0  0  0  0  0  0  0  0  0  0  0  0
  179.4460  178.5750  142.4020 O   0  0  0  0  0  0  0  0  0  0  0  0
  179.6980  180.8610  142.0900 N   0  0  0  0  0  1  0  0  0  0  0  0
  180.7020  178.3940  139.4540 S   0  0  0  0  0  0  0  0  0  0  0  0
  182.2830  177.5270  139.2040 C   0  0  1  0  0  3  0  0  0  0  0  0
  183.2290  175.3830  138.7080 O   0  0  0  0  0  1  0  0  0  0  0  0
  182.0240  176.0830  138.7910 C   0  0  0  0  0  2  0  0  0  0  0  0
  182.4890  179.3160  137.6240 O   0  0  0  0  0  1  0  0  0  0  0  0
  183.2030  178.2800  138.2290 C   0  0  1  0  0  3  0  0  0  0  0  0
  184.4830  178.8280  138.8910 C   0  0  2  0  0  3  0  0  0  0  0  0
  184.2910  180.1200  139.4000 O   0  0  0  0  0  1  0  0  0  0  0  0
  185.6140  178.7730  138.0460 O   0  0  0  0  0  0  0  0  0  0  0  0
  185.7720  177.4510  137.5910 C   0  0  0  0  0  2  0  0  0  0  0  0
  187.2450  177.1030  137.5040 C   0  0  0  0  0  2  0  0  0  0  0  0
  188.0130  177.7720  138.6280 C   0  0  0  0  0  1  0  0  0  0  0  0
  2  1  1  0  0  0  0
  3  2  1  6  0  0  0
  3  6  1  0  0  0  0
  3  4  1  0  0  0  0
  4  5  1  0  0  0  0
  6  9  1  0  0  0  0
  7  8  1  0  0  0  0
  9  7  1  0  0  0  0
  9  8  1  0  0  0  0
 10 11  1  0  0  0  0
 10  9  1  0  0  0  0
 12 13  1  0  0  0  0
 12 11  1  0  0  0  0
 13 14  1  1  0  0  0
 13 15  1  0  0  0  0
 15 17  1  1  0  0  0
 16 15  1  0  0  0  0
 18  1  1  0  0  0  0
 19 18  1  1  0  0  0
 19 20  1  0  0  0  0
 20 22  1  0  0  0  0
 20 21  2  0  0  0  0
 23 19  1  0  0  0  0
 24 26  1  6  0  0  0
 24 23  1  0  0  0  0
 25 26  1  0  0  0  0
 28 27  1  1  0  0  0
 28 29  1  0  0  0  0
 28 24  1  0  0  0  0
 29 30  1  6  0  0  0
 31 29  1  0  0  0  0
 32 31  1  0  0  0  0
 33 32  1  0  0  0  0
 33 34  1  0  0  0  0
M  END
>  <MODEL>
1

>  <REMARK>
 VINA RESULT:      -5.5      0.000      0.000
  Name = 
  21 active torsions:
  status: ('A' for Active; 'I' for Inactive)
    1  A    between atoms: O_2  and  C_23
    2  A    between atoms: O_2  and  C_32
    3  A    between atoms: C_3  and  C_25
    4  A    between atoms: C_4  and  C_30
    5  A    between atoms: C_7  and  O_16
    6  A    between atoms: C_7  and  C_29
    7  A    between atoms: C_8  and  C_10
    8  A    between atoms: C_10  and  S_17
    9  A    between atoms: C_11  and  C_26
   10  A    between atoms: C_12  and  S_17
   11  A    between atoms: C_12  and  C_22
   12  A    between atoms: O_16  and  C_30
   13  A    between atoms: C_19  and  C_22
   14  A    between atoms: C_19  and  O_28
   15  A    between atoms: C_23  and  C_25
   16  A    between atoms: C_25  and  S_27
   17  A    between atoms: C_26  and  O_28
   18  A    between atoms: C_26  and  C_32
   19  A    between atoms: S_27  and  C_33
   20  A    between atoms: C_29  and  C_33
   21  A    between atoms: C_33  and  C_34
                            x       y       z     vdW  Elec       q    Type
                         _______ _______ _______ _____ _____    ______ ____

>  <TORSDO>
F 21

$$$$
=
 OpenBabel10262423393D

 34 34  0  0  1  0  0  0  0  0999 V2000
  186.7370  178.2400  138.5020 O   0  0  0  0  0  0  0  0  0  0  0  0
  185.3510  178.0920  138.4090 C   0  0  0  0  0  2  0  0  0  0  0  0
  184.6680  178.6840  139.6340 C   0  0  2  0  0  3  0  0  0  0  0  0
  183.5030  179.5350  139.1580 C   0  0  0  0  0  2  0  0  0  0  0  0
  183.9370  180.8290  138.8750 O   0  0  0  0  0  1  0  0  0  0  0  0
  185.5850  179.4820  140.3370 O   0  0  0  0  0  0  0  0  0  0  0  0
  184.5860  178.0320  142.0020 C   0  0  0  0  0  2  0  0  0  0  0  0
  184.8110  179.3580  142.7130 C   0  0  0  0  0  2  0  0  0  0  0  0
  185.7550  178.9110  141.6130 C   0  0  0  0  0  0  0  0  0  0  0  0
  187.1160  178.3480  142.0110 C   0  0  0  0  0  2  0  0  0  0  0  0
  187.0090  177.4300  143.2190 C   0  0  0  0  0  2  0  0  0  0  0  0
  188.5000  176.4040  143.3820 S   0  0  0  0  0  0  0  0  0  0  0  0
  189.3210  177.6280  144.4560 C   0  0  1  0  0  3  0  0  0  0  0  0
  188.7050  177.5830  145.8400 C   0  0  0  0  0  1  0  0  0  0  0  0
  190.8310  177.4050  144.5430 C   0  0  1  0  0  3  0  0  0  0  0  0
  191.2200  176.2890  143.7990 O   0  0  0  0  0  1  0  0  0  0  0  0
  191.5930  178.6300  144.0790 C   0  0  0  0  0  1  0  0  0  0  0  0
  187.1430  178.6320  137.2250 C   0  0  0  0  0  2  0  0  0  0  0  0
  188.4430  177.9400  136.8450 C   0  0  2  0  0  3  0  0  0  0  0  0
  188.4570  177.5730  135.3960 C   0  0  0  0  0  0  0  0  0  0  0  0
  187.4060  177.6960  134.7150 O   0  0  0  0  0  0  0  0  0  0  0  0
  189.6520  177.1080  134.7750 N   0  0  0  0  0  1  0  0  0  0  0  0
  188.6690  176.4510  137.8660 S   0  0  0  0  0  0  0  0  0  0  0  0
  190.2620  177.0230  138.5370 C   0  0  1  0  0  3  0  0  0  0  0  0
  191.2700  177.3320  140.6860 O   0  0  0  0  0  1  0  0  0  0  0  0
  190.0810  177.4910  139.9760 C   0  0  0  0  0  2  0  0  0  0  0  0
  190.7850  174.7320  138.0650 O   0  0  0  0  0  1  0  0  0  0  0  0
  191.3640  175.9620  138.3790 C   0  0  1  0  0  3  0  0  0  0  0  0
  192.4300  176.3350  137.3290 C   0  0  2  0  0  3  0  0  0  0  0  0
  192.2440  175.6330  136.1300 O   0  0  0  0  0  1  0  0  0  0  0  0
  193.7530  176.1970  137.8050 O   0  0  0  0  0  0  0  0  0  0  0  0
  194.4350  175.2860  136.9800 C   0  0  0  0  0  2  0  0  0  0  0  0
  194.7460  174.0170  137.7520 C   0  0  0  0  0  2  0  0  0  0  0  0
  194.3410  172.7970  136.9460 C   0  0  0  0  0  1  0  0  0  0  0  0
  2  1  1  0  0  0  0
  3  2  1  6  0  0  0
  3  6  1  0  0  0  0
  4  3  1  0  0  0  0
  5  4  1  0  0  0  0
  6  9  1  0  0  0  0
  7  8  1  0  0  0  0
  9  7  1  0  0  0  0
  9 10  1  0  0  0  0
  9  8  1  0  0  0  0
 10 11  1  0  0  0  0
 11 12  1  0  0  0  0
 12 13  1  0  0  0  0
 13 15  1  0  0  0  0
 13 14  1  1  0  0  0
 15 17  1  6  0  0  0
 16 15  1  0  0  0  0
 18  1  1  0  0  0  0
 19 18  1  1  0  0  0
 19 23  1  0  0  0  0
 20 19  1  0  0  0  0
 21 20  2  0  0  0  0
 22 20  1  0  0  0  0
 23 24  1  0  0  0  0
 24 26  1  1  0  0  0
 26 25  1  0  0  0  0
 28 27  1  6  0  0  0
 28 24  1  0  0  0  0
 29 30  1  6  0  0  0
 29 31  1  0  0  0  0
 29 28  1  0  0  0  0
 32 33  1  0  0  0  0
 32 31  1  0  0  0  0
 34 33  1  0  0  0  0
M  END
>  <MODEL>
2

>  <REMARK>
 VINA RESULT:      -5.5      4.254      7.026
  Name = 
  21 active torsions:
  status: ('A' for Active; 'I' for Inactive)
    1  A    between atoms: O_2  and  C_23
    2  A    between atoms: O_2  and  C_32
    3  A    between atoms: C_3  and  C_25
    4  A    between atoms: C_4  and  C_30
    5  A    between atoms: C_7  and  O_16
    6  A    between atoms: C_7  and  C_29
    7  A    between atoms: C_8  and  C_10
    8  A    between atoms: C_10  and  S_17
    9  A    between atoms: C_11  and  C_26
   10  A    between atoms: C_12  and  S_17
   11  A    between atoms: C_12  and  C_22
   12  A    between atoms: O_16  and  C_30
   13  A    between atoms: C_19  and  C_22
   14  A    between atoms: C_19  and  O_28
   15  A    between atoms: C_23  and  C_25
   16  A    between atoms: C_25  and  S_27
   17  A    between atoms: C_26  and  O_28
   18  A    between atoms: C_26  and  C_32
   19  A    between atoms: S_27  and  C_33
   20  A    between atoms: C_29  and  C_33
   21  A    between atoms: C_33  and  C_34
                            x       y       z     vdW  Elec       q    Type
                         _______ _______ _______ _____ _____    ______ ____

>  <TORSDO>
F 21

$$$$
=
 OpenBabel10262423393D

 34 34  0  0  1  0  0  0  0  0999 V2000
  187.8420  177.7510  141.4640 O   0  0  0  0  0  0  0  0  0  0  0  0
  187.1270  178.9350  141.2660 C   0  0  0  0  0  2  0  0  0  0  0  0
  185.6290  178.6680  141.3140 C   0  0  2  0  0  3  0  0  0  0  0  0
  185.0940  178.7310  139.8940 C   0  0  0  0  0  2  0  0  0  0  0  0
  184.1490  179.7490  139.7800 O   0  0  0  0  0  1  0  0  0  0  0  0
  185.0070  179.6490  142.1010 O   0  0  0  0  0  0  0  0  0  0  0  0
  183.0400  178.6170  143.0690 C   0  0  0  0  0  2  0  0  0  0  0  0
  183.4110  179.7390  144.0270 C   0  0  0  0  0  2  0  0  0  0  0  0
  184.4900  179.0130  143.2450 C   0  0  0  0  0  0  0  0  0  0  0  0
  185.3340  177.9710  143.9740 C   0  0  0  0  0  2  0  0  0  0  0  0
  186.4160  178.6230  144.8220 C   0  0  0  0  0  2  0  0  0  0  0  0
  186.4460  177.9050  146.4910 S   0  0  0  0  0  0  0  0  0  0  0  0
  188.1600  177.3150  146.2930 C   0  0  1  0  0  3  0  0  0  0  0  0
  188.7240  177.8240  144.9810 C   0  0  0  0  0  1  0  0  0  0  0  0
  189.0590  177.7420  147.4540 C   0  0  1  0  0  3  0  0  0  0  0  0
  188.4150  177.5690  148.6810 O   0  0  0  0  0  1  0  0  0  0  0  0
  190.3680  176.9770  147.4420 C   0  0  0  0  0  1  0  0  0  0  0  0
  189.1470  178.0480  141.0680 C   0  0  0  0  0  2  0  0  0  0  0  0
  189.9460  176.7690  140.8680 C   0  0  2  0  0  3  0  0  0  0  0  0
  190.7530  176.4400  142.0810 C   0  0  0  0  0  0  0  0  0  0  0  0
  191.7680  177.1300  142.3570 O   0  0  0  0  0  0  0  0  0  0  0  0
  190.3720  175.3690  142.9400 N   0  0  0  0  0  1  0  0  0  0  0  0
  191.0380  176.9450  139.4230 S   0  0  0  0  0  0  0  0  0  0  0  0
  189.6560  176.8920  138.2390 C   0  0  1  0  0  3  0  0  0  0  0  0
  188.2190  178.7580  137.8050 O   0  0  0  0  0  1  0  0  0  0  0  0
  189.4970  178.2510  137.5660 C   0  0  0  0  0  2  0  0  0  0  0  0
  190.3930  174.6410  137.8750 O   0  0  0  0  0  1  0  0  0  0  0  0
  189.8030  175.7340  137.2380 C   0  0  1  0  0  3  0  0  0  0  0  0
  188.4710  175.3160  136.5830 C   0  0  2  0  0  3  0  0  0  0  0  0
  188.2020  176.0670  135.4310 O   0  0  0  0  0  1  0  0  0  0  0  0
  187.3790  175.3400  137.4790 O   0  0  0  0  0  0  0  0  0  0  0  0
  186.2360  174.8700  136.8080 C   0  0  0  0  0  2  0  0  0  0  0  0
  186.1780  173.3560  136.8760 C   0  0  0  0  0  2  0  0  0  0  0  0
  185.0540  172.9110  137.7920 C   0  0  0  0  0  1  0  0  0  0  0  0
  2  3  1  0  0  0  0
  2  1  1  0  0  0  0
  3  4  1  6  0  0  0
  3  6  1  0  0  0  0
  5  4  1  0  0  0  0
  6  9  1  0  0  0  0
  7  9  1  0  0  0  0
  7  8  1  0  0  0  0
  9 10  1  0  0  0  0
  9  8  1  0  0  0  0
 10 11  1  0  0  0  0
 11 12  1  0  0  0  0
 13 14  1  6  0  0  0
 13 12  1  0  0  0  0
 13 15  1  0  0  0  0
 15 17  1  1  0  0  0
 15 16  1  0  0  0  0
 18  1  1  0  0  0  0
 19 18  1  1  0  0  0
 19 20  1  0  0  0  0
 20 21  2  0  0  0  0
 20 22  1  0  0  0  0
 23 19  1  0  0  0  0
 24 26  1  6  0  0  0
 24 23  1  0  0  0  0
 26 25  1  0  0  0  0
 28 27  1  1  0  0  0
 28 24  1  0  0  0  0
 29 30  1  6  0  0  0
 29 28  1  0  0  0  0
 29 31  1  0  0  0  0
 32 33  1  0  0  0  0
 32 31  1  0  0  0  0
 33 34  1  0  0  0  0
M  END
>  <MODEL>
3

>  <REMARK>
 VINA RESULT:      -5.4      3.631      6.472
  Name = 
  21 active torsions:
  status: ('A' for Active; 'I' for Inactive)
    1  A    between atoms: O_2  and  C_23
    2  A    between atoms: O_2  and  C_32
    3  A    between atoms: C_3  and  C_25
    4  A    between atoms: C_4  and  C_30
    5  A    between atoms: C_7  and  O_16
    6  A    between atoms: C_7  and  C_29
    7  A    between atoms: C_8  and  C_10
    8  A    between atoms: C_10  and  S_17
    9  A    between atoms: C_11  and  C_26
   10  A    between atoms: C_12  and  S_17
   11  A    between atoms: C_12  and  C_22
   12  A    between atoms: O_16  and  C_30
   13  A    between atoms: C_19  and  C_22
   14  A    between atoms: C_19  and  O_28
   15  A    between atoms: C_23  and  C_25
   16  A    between atoms: C_25  and  S_27
   17  A    between atoms: C_26  and  O_28
   18  A    between atoms: C_26  and  C_32
   19  A    between atoms: S_27  and  C_33
   20  A    between atoms: C_29  and  C_33
   21  A    between atoms: C_33  and  C_34
                            x       y       z     vdW  Elec       q    Type
                         _______ _______ _______ _____ _____    ______ ____

>  <TORSDO>
F 21

$$$$
=
 OpenBabel10262423393D

 34 34  0  0  1  0  0  0  0  0999 V2000
  188.3260  177.4820  139.3540 O   0  0  0  0  0  0  0  0  0  0  0  0
  189.5380  178.1710  139.2660 C   0  0  0  0  0  2  0  0  0  0  0  0
  190.6450  177.3940  139.9650 C   0  0  2  0  0  3  0  0  0  0  0  0
  191.3360  176.5240  138.9290 C   0  0  0  0  0  2  0  0  0  0  0  0
  190.6100  175.3530  138.7220 O   0  0  0  0  0  1  0  0  0  0  0  0
  190.0850  176.5870  140.9680 O   0  0  0  0  0  0  0  0  0  0  0  0
  191.9540  177.3660  142.2980 C   0  0  0  0  0  2  0  0  0  0  0  0
  191.3080  176.2650  143.1260 C   0  0  0  0  0  2  0  0  0  0  0  0
  190.4620  177.1290  142.2110 C   0  0  0  0  0  0  0  0  0  0  0  0
  189.6180  178.2360  142.8360 C   0  0  0  0  0  2  0  0  0  0  0  0
  188.1390  177.8810  142.8330 C   0  0  0  0  0  2  0  0  0  0  0  0
  187.7810  176.6000  144.0710 S   0  0  0  0  0  0  0  0  0  0  0  0
  188.0020  177.7640  145.4560 C   0  0  1  0  0  3  0  0  0  0  0  0
  186.6480  178.1410  146.0240 C   0  0  0  0  0  1  0  0  0  0  0  0
  188.8950  177.1940  146.5580 C   0  0  1  0  0  3  0  0  0  0  0  0
  190.2320  177.1600  146.1580 O   0  0  0  0  0  1  0  0  0  0  0  0
  188.7580  177.9910  147.8410 C   0  0  0  0  0  1  0  0  0  0  0  0
  187.4900  178.1020  138.4240 C   0  0  0  0  0  2  0  0  0  0  0  0
  186.5230  177.0940  137.8220 C   0  0  2  0  0  3  0  0  0  0  0  0
  187.2510  176.0470  137.0420 C   0  0  0  0  0  0  0  0  0  0  0  0
  188.1850  176.3850  136.2700 O   0  0  0  0  0  0  0  0  0  0  0  0
  186.9120  174.6700  137.1810 N   0  0  0  0  0  1  0  0  0  0  0  0
  185.3290  177.9500  136.7500 S   0  0  0  0  0  0  0  0  0  0  0  0
  183.9490  177.7070  137.9130 C   0  0  1  0  0  3  0  0  0  0  0  0
  182.5120  175.7940  138.0010 O   0  0  0  0  0  1  0  0  0  0  0  0
  183.8130  176.2280  138.2550 C   0  0  0  0  0  2  0  0  0  0  0  0
  184.5150  179.8740  138.7660 O   0  0  0  0  0  1  0  0  0  0  0  0
  184.0800  178.6060  139.1540 C   0  0  1  0  0  3  0  0  0  0  0  0
  182.7780  178.7150  139.9740 C   0  0  2  0  0  3  0  0  0  0  0  0
  181.9480  179.7370  139.4940 O   0  0  0  0  0  1  0  0  0  0  0  0
  183.0040  178.8460  141.3620 O   0  0  0  0  0  0  0  0  0  0  0  0
  184.2730  178.3200  141.6640 C   0  0  0  0  0  2  0  0  0  0  0  0
  184.4550  178.2300  143.1670 C   0  0  0  0  0  2  0  0  0  0  0  0
  183.6950  179.3470  143.8580 C   0  0  0  0  0  1  0  0  0  0  0  0
  2  1  1  0  0  0  0
  2  3  1  0  0  0  0
  3  4  1  6  0  0  0
  3  6  1  0  0  0  0
  5  4  1  0  0  0  0
  6  9  1  0  0  0  0
  7  8  1  0  0  0  0
  9  7  1  0  0  0  0
  9 10  1  0  0  0  0
  9  8  1  0  0  0  0
 11 10  1  0  0  0  0
 11 12  1  0  0  0  0
 12 13  1  0  0  0  0
 13 14  1  1  0  0  0
 13 15  1  0  0  0  0
 15 17  1  1  0  0  0
 16 15  1  0  0  0  0
 18  1  1  0  0  0  0
 19 18  1  6  0  0  0
 20 22  1  0  0  0  0
 20 19  1  0  0  0  0
 21 20  2  0  0  0  0
 23 19  1  0  0  0  0
 23 24  1  0  0  0  0
 24 26  1  1  0  0  0
 24 28  1  0  0  0  0
 25 26  1  0  0  0  0
 28 27  1  6  0  0  0
 28 29  1  0  0  0  0
 29 30  1  6  0  0  0
 29 31  1  0  0  0  0
 31 32  1  0  0  0  0
 32 33  1  0  0  0  0
 33 34  1  0  0  0  0
M  END
>  <MODEL>
4

>  <REMARK>
 VINA RESULT:      -5.1      2.959      5.787
  Name = 
  21 active torsions:
  status: ('A' for Active; 'I' for Inactive)
    1  A    between atoms: O_2  and  C_23
    2  A    between atoms: O_2  and  C_32
    3  A    between atoms: C_3  and  C_25
    4  A    between atoms: C_4  and  C_30
    5  A    between atoms: C_7  and  O_16
    6  A    between atoms: C_7  and  C_29
    7  A    between atoms: C_8  and  C_10
    8  A    between atoms: C_10  and  S_17
    9  A    between atoms: C_11  and  C_26
   10  A    between atoms: C_12  and  S_17
   11  A    between atoms: C_12  and  C_22
   12  A    between atoms: O_16  and  C_30
   13  A    between atoms: C_19  and  C_22
   14  A    between atoms: C_19  and  O_28
   15  A    between atoms: C_23  and  C_25
   16  A    between atoms: C_25  and  S_27
   17  A    between atoms: C_26  and  O_28
   18  A    between atoms: C_26  and  C_32
   19  A    between atoms: S_27  and  C_33
   20  A    between atoms: C_29  and  C_33
   21  A    between atoms: C_33  and  C_34
                            x       y       z     vdW  Elec       q    Type
                         _______ _______ _______ _____ _____    ______ ____

>  <TORSDO>
F 21

$$$$
=
 OpenBabel10262423393D

 34 34  0  0  1  0  0  0  0  0999 V2000
  185.6520  178.5550  139.0410 O   0  0  0  0  0  0  0  0  0  0  0  0
  184.4440  179.1080  139.4730 C   0  0  0  0  0  2  0  0  0  0  0  0
  183.9260  178.3680  140.6980 C   0  0  2  0  0  3  0  0  0  0  0  0
  182.6590  177.6300  140.3010 C   0  0  0  0  0  2  0  0  0  0  0  0
  182.9770  176.3940  139.7400 O   0  0  0  0  0  1  0  0  0  0  0  0
  183.6410  179.2930  141.7140 O   0  0  0  0  0  0  0  0  0  0  0  0
  183.5270  178.7270  144.0670 C   0  0  0  0  0  2  0  0  0  0  0  0
  184.4670  179.9220  143.9900 C   0  0  0  0  0  2  0  0  0  0  0  0
  184.3960  178.9300  142.8450 C   0  0  0  0  0  0  0  0  0  0  0  0
  185.5190  177.9060  142.7030 C   0  0  0  0  0  2  0  0  0  0  0  0
  186.7170  178.2670  143.5680 C   0  0  0  0  0  2  0  0  0  0  0  0
  187.0400  176.9670  144.7960 S   0  0  0  0  0  0  0  0  0  0  0  0
  187.2830  178.1800  146.1350 C   0  0  1  0  0  3  0  0  0  0  0  0
  185.9940  178.3370  146.9180 C   0  0  0  0  0  1  0  0  0  0  0  0
  188.4250  177.7900  147.0730 C   0  0  1  0  0  3  0  0  0  0  0  0
  187.9510  177.0780  148.1770 O   0  0  0  0  0  1  0  0  0  0  0  0
  189.4780  176.9780  146.3450 C   0  0  0  0  0  1  0  0  0  0  0  0
  185.4370  178.2190  137.7030 C   0  0  0  0  0  2  0  0  0  0  0  0
  186.7300  177.7380  137.0610 C   0  0  2  0  0  3  0  0  0  0  0  0
  186.4630  177.0340  135.7710 C   0  0  0  0  0  0  0  0  0  0  0  0
  187.0910  177.3760  134.7360 O   0  0  0  0  0  0  0  0  0  0  0  0
  185.5230  175.9660  135.7060 N   0  0  0  0  0  1  0  0  0  0  0  0
  187.6090  176.6300  138.2050 S   0  0  0  0  0  0  0  0  0  0  0  0
  189.2010  177.4850  137.9790 C   0  0  1  0  0  3  0  0  0  0  0  0
  189.0660  179.8270  137.4980 O   0  0  0  0  0  1  0  0  0  0  0  0
  189.1130  178.9000  138.5390 C   0  0  0  0  0  2  0  0  0  0  0  0
  191.4860  176.8120  137.7230 O   0  0  0  0  0  1  0  0  0  0  0  0
  190.3740  176.6760  138.5560 C   0  0  1  0  0  3  0  0  0  0  0  0
  190.7380  177.0690  140.0020 C   0  0  2  0  0  3  0  0  0  0  0  0
  192.1140  177.2910  140.1480 O   0  0  0  0  0  1  0  0  0  0  0  0
  190.2620  176.1500  140.9650 O   0  0  0  0  0  0  0  0  0  0  0  0
  190.6870  176.5700  142.2370 C   0  0  0  0  0  2  0  0  0  0  0  0
  190.0920  177.9270  142.5630 C   0  0  0  0  0  2  0  0  0  0  0  0
  191.0280  178.7120  143.4630 C   0  0  0  0  0  1  0  0  0  0  0  0
  1  2  1  0  0  0  0
  3  2  1  6  0  0  0
  3  6  1  0  0  0  0
  4  3  1  0  0  0  0
  5  4  1  0  0  0  0
  6  9  1  0  0  0  0
  8  7  1  0  0  0  0
  9  8  1  0  0  0  0
  9  7  1  0  0  0  0
 10  9  1  0  0  0  0
 10 11  1  0  0  0  0
 11 12  1  0  0  0  0
 12 13  1  0  0  0  0
 13 14  1  1  0  0  0
 13 15  1  0  0  0  0
 15 17  1  6  0  0  0
 15 16  1  0  0  0  0
 18  1  1  0  0  0  0
 19 18  1  1  0  0  0
 19 23  1  0  0  0  0
 20 19  1  0  0  0  0
 21 20  2  0  0  0  0
 22 20  1  0  0  0  0
 24 23  1  0  0  0  0
 24 26  1  1  0  0  0
 24 28  1  0  0  0  0
 25 26  1  0  0  0  0
 28 27  1  6  0  0  0
 28 29  1  0  0  0  0
 29 30  1  6  0  0  0
 29 31  1  0  0  0  0
 31 32  1  0  0  0  0
 32 33  1  0  0  0  0
 33 34  1  0  0  0  0
M  END
>  <MODEL>
5

>  <REMARK>
 VINA RESULT:      -5.1      3.036      6.237
  Name = 
  21 active torsions:
  status: ('A' for Active; 'I' for Inactive)
    1  A    between atoms: O_2  and  C_23
    2  A    between atoms: O_2  and  C_32
    3  A    between atoms: C_3  and  C_25
    4  A    between atoms: C_4  and  C_30
    5  A    between atoms: C_7  and  O_16
    6  A    between atoms: C_7  and  C_29
    7  A    between atoms: C_8  and  C_10
    8  A    between atoms: C_10  and  S_17
    9  A    between atoms: C_11  and  C_26
   10  A    between atoms: C_12  and  S_17
   11  A    between atoms: C_12  and  C_22
   12  A    between atoms: O_16  and  C_30
   13  A    between atoms: C_19  and  C_22
   14  A    between atoms: C_19  and  O_28
   15  A    between atoms: C_23  and  C_25
   16  A    between atoms: C_25  and  S_27
   17  A    between atoms: C_26  and  O_28
   18  A    between atoms: C_26  and  C_32
   19  A    between atoms: S_27  and  C_33
   20  A    between atoms: C_29  and  C_33
   21  A    between atoms: C_33  and  C_34
                            x       y       z     vdW  Elec       q    Type
                         _______ _______ _______ _____ _____    ______ ____

>  <TORSDO>
F 21

$$$$
=
 OpenBabel10262423393D

 34 34  0  0  1  0  0  0  0  0999 V2000
  190.4970  176.2260  139.3860 O   0  0  0  0  0  0  0  0  0  0  0  0
  190.3510  177.4690  140.0050 C   0  0  0  0  0  2  0  0  0  0  0  0
  189.7420  177.3060  141.3900 C   0  0  2  0  0  3  0  0  0  0  0  0
  188.3050  177.7980  141.3340 C   0  0  0  0  0  2  0  0  0  0  0  0
  188.2050  178.8930  140.4770 O   0  0  0  0  0  1  0  0  0  0  0  0
  190.4710  178.0730  142.3130 O   0  0  0  0  0  0  0  0  0  0  0  0
  191.6440  176.1370  143.1770 C   0  0  0  0  0  2  0  0  0  0  0  0
  190.1700  175.8510  143.4210 C   0  0  0  0  0  2  0  0  0  0  0  0
  190.6870  177.2760  143.4530 C   0  0  0  0  0  0  0  0  0  0  0  0
  190.8890  177.9440  144.8100 C   0  0  0  0  0  2  0  0  0  0  0  0
  189.5820  178.0420  145.5840 C   0  0  0  0  0  2  0  0  0  0  0  0
  189.5500  176.8420  146.9490 S   0  0  0  0  0  0  0  0  0  0  0  0
  187.8760  177.3520  147.4620 C   0  0  1  0  0  3  0  0  0  0  0  0
  187.9740  178.3080  148.6350 C   0  0  0  0  0  1  0  0  0  0  0  0
  187.0890  177.9970  146.3220 C   0  0  1  0  0  3  0  0  0  0  0  0
  186.5160  177.0300  145.4930 O   0  0  0  0  0  1  0  0  0  0  0  0
  186.0170  178.9270  146.8540 C   0  0  0  0  0  1  0  0  0  0  0  0
  189.5960  176.2460  138.3190 C   0  0  0  0  0  2  0  0  0  0  0  0
  190.1420  177.0890  137.1780 C   0  0  2  0  0  3  0  0  0  0  0  0
  189.1550  178.1280  136.7530 C   0  0  0  0  0  0  0  0  0  0  0  0
  189.1280  179.2370  137.3460 O   0  0  0  0  0  0  0  0  0  0  0  0
  188.2620  177.8830  135.6710 N   0  0  0  0  0  1  0  0  0  0  0  0
  190.5630  176.0180  135.7680 S   0  0  0  0  0  0  0  0  0  0  0  0
  191.5430  174.8760  136.7930 C   0  0  1  0  0  3  0  0  0  0  0  0
  189.7600  173.3010  136.5220 O   0  0  0  0  0  1  0  0  0  0  0  0
  191.1480  173.4360  136.4880 C   0  0  0  0  0  2  0  0  0  0  0  0
  193.2710  176.1090  135.6810 O   0  0  0  0  0  1  0  0  0  0  0  0
  193.0530  175.1320  136.6530 C   0  0  1  0  0  3  0  0  0  0  0  0
  193.7320  175.5360  137.9780 C   0  0  2  0  0  3  0  0  0  0  0  0
  193.5630  176.8990  138.2520 O   0  0  0  0  0  1  0  0  0  0  0  0
  195.0940  175.1640  138.0400 O   0  0  0  0  0  0  0  0  0  0  0  0
  195.1880  173.8970  138.6420 C   0  0  0  0  0  2  0  0  0  0  0  0
  196.0080  172.9660  137.7690 C   0  0  0  0  0  2  0  0  0  0  0  0
  196.8280  173.7620  136.7720 C   0  0  0  0  0  1  0  0  0  0  0  0
  1  2  1  0  0  0  0
  3  2  1  6  0  0  0
  3  6  1  0  0  0  0
  4  3  1  0  0  0  0
  5  4  1  0  0  0  0
  6  9  1  0  0  0  0
  7  8  1  0  0  0  0
  7  9  1  0  0  0  0
  8  9  1  0  0  0  0
  9 10  1  0  0  0  0
 10 11  1  0  0  0  0
 11 12  1  0  0  0  0
 12 13  1  0  0  0  0
 13 14  1  1  0  0  0
 15 17  1  1  0  0  0
 15 13  1  0  0  0  0
 16 15  1  0  0  0  0
 18  1  1  0  0  0  0
 19 18  1  1  0  0  0
 20 19  1  0  0  0  0
 20 21  2  0  0  0  0
 22 20  1  0  0  0  0
 23 24  1  0  0  0  0
 23 19  1  0  0  0  0
 24 26  1  6  0  0  0
 26 25  1  0  0  0  0
 28 27  1  6  0  0  0
 28 24  1  0  0  0  0
 28 29  1  0  0  0  0
 29 31  1  0  0  0  0
 29 30  1  6  0  0  0
 31 32  1  0  0  0  0
 33 32  1  0  0  0  0
 34 33  1  0  0  0  0
M  END
>  <MODEL>
6

>  <REMARK>
 VINA RESULT:      -5.1      5.049      8.133
  Name = 
  21 active torsions:
  status: ('A' for Active; 'I' for Inactive)
    1  A    between atoms: O_2  and  C_23
    2  A    between atoms: O_2  and  C_32
    3  A    between atoms: C_3  and  C_25
    4  A    between atoms: C_4  and  C_30
    5  A    between atoms: C_7  and  O_16
    6  A    between atoms: C_7  and  C_29
    7  A    between atoms: C_8  and  C_10
    8  A    between atoms: C_10  and  S_17
    9  A    between atoms: C_11  and  C_26
   10  A    between atoms: C_12  and  S_17
   11  A    between atoms: C_12  and  C_22
   12  A    between atoms: O_16  and  C_30
   13  A    between atoms: C_19  and  C_22
   14  A    between atoms: C_19  and  O_28
   15  A    between atoms: C_23  and  C_25
   16  A    between atoms: C_25  and  S_27
   17  A    between atoms: C_26  and  O_28
   18  A    between atoms: C_26  and  C_32
   19  A    between atoms: S_27  and  C_33
   20  A    between atoms: C_29  and  C_33
   21  A    between atoms: C_33  and  C_34
                            x       y       z     vdW  Elec       q    Type
                         _______ _______ _______ _____ _____    ______ ____

>  <TORSDO>
F 21

$$$$
=
 OpenBabel10262423393D

 34 34  0  0  1  0  0  0  0  0999 V2000
  188.6630  177.2340  139.6310 O   0  0  0  0  0  0  0  0  0  0  0  0
  189.7220  177.5530  138.7770 C   0  0  0  0  0  2  0  0  0  0  0  0
  189.6570  176.7130  137.5100 C   0  0  2  0  0  3  0  0  0  0  0  0
  191.0710  176.2840  137.1560 C   0  0  0  0  0  2  0  0  0  0  0  0
  191.9650  176.7250  138.1290 O   0  0  0  0  0  1  0  0  0  0  0  0
  189.1180  177.4850  136.4680 O   0  0  0  0  0  0  0  0  0  0  0  0
  187.6310  175.5970  136.7810 C   0  0  0  0  0  2  0  0  0  0  0  0
  187.7850  175.7370  135.2730 C   0  0  0  0  0  2  0  0  0  0  0  0
  187.8460  176.9620  136.1650 C   0  0  0  0  0  0  0  0  0  0  0  0
  186.6240  177.8730  136.2300 C   0  0  0  0  0  2  0  0  0  0  0  0
  186.0020  177.8760  137.6190 C   0  0  0  0  0  2  0  0  0  0  0  0
  184.2750  177.3150  137.5530 S   0  0  0  0  0  0  0  0  0  0  0  0
  183.8700  178.1210  139.1370 C   0  0  1  0  0  3  0  0  0  0  0  0
  183.1760  179.4420  138.8730 C   0  0  0  0  0  1  0  0  0  0  0  0
  182.9990  177.2380  140.0320 C   0  0  1  0  0  3  0  0  0  0  0  0
  181.8560  177.9210  140.4560 O   0  0  0  0  0  1  0  0  0  0  0  0
  182.6040  175.9590  139.3210 C   0  0  0  0  0  1  0  0  0  0  0  0
  188.5750  178.3120  140.5140 C   0  0  0  0  0  2  0  0  0  0  0  0
  188.3570  177.8180  141.9360 C   0  0  2  0  0  3  0  0  0  0  0  0
  186.9640  178.1000  142.3990 C   0  0  0  0  0  0  0  0  0  0  0  0
  186.5110  177.4960  143.4050 O   0  0  0  0  0  0  0  0  0  0  0  0
  186.1550  179.0600  141.7270 N   0  0  0  0  0  1  0  0  0  0  0  0
  189.5560  178.6090  143.0530 S   0  0  0  0  0  0  0  0  0  0  0  0
  190.0520  177.0290  143.8110 C   0  0  1  0  0  3  0  0  0  0  0  0
  190.7240  174.8080  143.2220 O   0  0  0  0  0  1  0  0  0  0  0  0
  190.0120  175.9180  142.7680 C   0  0  0  0  0  2  0  0  0  0  0  0
  191.9680  178.3910  144.2750 O   0  0  0  0  0  1  0  0  0  0  0  0
  191.4070  177.1380  144.5290 C   0  0  1  0  0  3  0  0  0  0  0  0
  191.3190  176.8900  146.0480 C   0  0  2  0  0  3  0  0  0  0  0  0
  192.1240  175.8140  146.4440 O   0  0  0  0  0  1  0  0  0  0  0  0
  189.9930  176.7370  146.5110 O   0  0  0  0  0  0  0  0  0  0  0  0
  189.8710  177.3900  147.7500 C   0  0  0  0  0  2  0  0  0  0  0  0
  188.4690  177.9470  147.9090 C   0  0  0  0  0  2  0  0  0  0  0  0
  187.6270  177.6120  146.6920 C   0  0  0  0  0  1  0  0  0  0  0  0
  1 18  1  0  0  0  0
  2  1  1  0  0  0  0
  3  4  1  6  0  0  0
  3  2  1  0  0  0  0
  4  5  1  0  0  0  0
  6  3  1  0  0  0  0
  8  9  1  0  0  0  0
  8  7  1  0  0  0  0
  9 10  1  0  0  0  0
  9  6  1  0  0  0  0
  9  7  1  0  0  0  0
 10 11  1  0  0  0  0
 12 11  1  0  0  0  0
 12 13  1  0  0  0  0
 13 14  1  6  0  0  0
 13 15  1  0  0  0  0
 15 17  1  6  0  0  0
 15 16  1  0  0  0  0
 19 18  1  6  0  0  0
 19 20  1  0  0  0  0
 19 23  1  0  0  0  0
 20 21  2  0  0  0  0
 22 20  1  0  0  0  0
 23 24  1  0  0  0  0
 24 26  1  6  0  0  0
 24 28  1  0  0  0  0
 26 25  1  0  0  0  0
 28 27  1  1  0  0  0
 28 29  1  0  0  0  0
 29 30  1  6  0  0  0
 29 31  1  0  0  0  0
 31 32  1  0  0  0  0
 32 33  1  0  0  0  0
 34 33  1  0  0  0  0
M  END
>  <MODEL>
7

>  <REMARK>
 VINA RESULT:      -5.0      2.675      9.105
  Name = 
  21 active torsions:
  status: ('A' for Active; 'I' for Inactive)
    1  A    between atoms: O_2  and  C_23
    2  A    between atoms: O_2  and  C_32
    3  A    between atoms: C_3  and  C_25
    4  A    between atoms: C_4  and  C_30
    5  A    between atoms: C_7  and  O_16
    6  A    between atoms: C_7  and  C_29
    7  A    between atoms: C_8  and  C_10
    8  A    between atoms: C_10  and  S_17
    9  A    between atoms: C_11  and  C_26
   10  A    between atoms: C_12  and  S_17
   11  A    between atoms: C_12  and  C_22
   12  A    between atoms: O_16  and  C_30
   13  A    between atoms: C_19  and  C_22
   14  A    between atoms: C_19  and  O_28
   15  A    between atoms: C_23  and  C_25
   16  A    between atoms: C_25  and  S_27
   17  A    between atoms: C_26  and  O_28
   18  A    between atoms: C_26  and  C_32
   19  A    between atoms: S_27  and  C_33
   20  A    between atoms: C_29  and  C_33
   21  A    between atoms: C_33  and  C_34
                            x       y       z     vdW  Elec       q    Type
                         _______ _______ _______ _____ _____    ______ ____

>  <TORSDO>
F 21

$$$$
=
 OpenBabel10262423393D

 34 34  0  0  1  0  0  0  0  0999 V2000
  184.3470  177.8910  141.5230 O   0  0  0  0  0  0  0  0  0  0  0  0
  184.2060  179.0210  142.3320 C   0  0  0  0  0  2  0  0  0  0  0  0
  184.1150  178.6190  143.7970 C   0  0  2  0  0  3  0  0  0  0  0  0
  182.6830  178.8390  144.2570 C   0  0  0  0  0  2  0  0  0  0  0  0
  181.9780  179.5720  143.3040 O   0  0  0  0  0  1  0  0  0  0  0  0
  184.9860  179.4190  144.5540 O   0  0  0  0  0  0  0  0  0  0  0  0
  184.9150  178.2530  146.6760 C   0  0  0  0  0  2  0  0  0  0  0  0
  186.1480  179.1420  146.7520 C   0  0  0  0  0  2  0  0  0  0  0  0
  185.6980  178.5700  145.4210 C   0  0  0  0  0  0  0  0  0  0  0  0
  186.4640  177.3800  144.8490 C   0  0  0  0  0  2  0  0  0  0  0  0
  187.6220  177.8310  143.9720 C   0  0  0  0  0  2  0  0  0  0  0  0
  189.2120  177.5260  144.7980 S   0  0  0  0  0  0  0  0  0  0  0  0
  190.1560  178.2870  143.4370 C   0  0  1  0  0  3  0  0  0  0  0  0
  191.0040  179.4200  143.9780 C   0  0  0  0  0  1  0  0  0  0  0  0
  191.0360  177.2750  142.7020 C   0  0  1  0  0  3  0  0  0  0  0  0
  191.6730  176.4150  143.5990 O   0  0  0  0  0  1  0  0  0  0  0  0
  190.2290  176.4740  141.7000 C   0  0  0  0  0  1  0  0  0  0  0  0
  183.2060  177.8780  140.7190 C   0  0  0  0  0  2  0  0  0  0  0  0
  183.5850  178.0380  139.2550 C   0  0  2  0  0  3  0  0  0  0  0  0
  183.3810  179.4460  138.7950 C   0  0  0  0  0  0  0  0  0  0  0  0
  184.2380  180.3220  139.0800 O   0  0  0  0  0  0  0  0  0  0  0  0
  182.2400  179.8000  138.0200 N   0  0  0  0  0  1  0  0  0  0  0  0
  182.5950  176.9020  138.2350 S   0  0  0  0  0  0  0  0  0  0  0  0
  184.0580  176.0030  137.6290 C   0  0  1  0  0  3  0  0  0  0  0  0
  184.9300  173.7960  137.3080 O   0  0  0  0  0  1  0  0  0  0  0  0
  183.7590  174.5100  137.5600 C   0  0  0  0  0  2  0  0  0  0  0  0
  183.6050  177.4150  135.7460 O   0  0  0  0  0  1  0  0  0  0  0  0
  184.5760  176.5790  136.3000 C   0  0  1  0  0  3  0  0  0  0  0  0
  185.9140  177.3320  136.4360 C   0  0  2  0  0  3  0  0  0  0  0  0
  186.5060  177.5680  135.1880 O   0  0  0  0  0  1  0  0  0  0  0  0
  186.8180  176.7030  137.3220 O   0  0  0  0  0  0  0  0  0  0  0  0
  188.0630  177.3510  137.2300 C   0  0  0  0  0  2  0  0  0  0  0  0
  189.0450  176.7330  138.2070 C   0  0  0  0  0  2  0  0  0  0  0  0
  190.4650  177.1260  137.8480 C   0  0  0  0  0  1  0  0  0  0  0  0
  1  2  1  0  0  0  0
  3  2  1  6  0  0  0
  3  4  1  0  0  0  0
  3  6  1  0  0  0  0
  5  4  1  0  0  0  0
  6  9  1  0  0  0  0
  7  8  1  0  0  0  0
  9  7  1  0  0  0  0
  9  8  1  0  0  0  0
 10  9  1  0  0  0  0
 11 12  1  0  0  0  0
 11 10  1  0  0  0  0
 13 14  1  1  0  0  0
 13 12  1  0  0  0  0
 15 17  1  6  0  0  0
 15 13  1  0  0  0  0
 15 16  1  0  0  0  0
 18  1  1  0  0  0  0
 19 18  1  1  0  0  0
 20 21  2  0  0  0  0
 20 19  1  0  0  0  0
 22 20  1  0  0  0  0
 23 19  1  0  0  0  0
 24 26  1  6  0  0  0
 24 23  1  0  0  0  0
 25 26  1  0  0  0  0
 28 27  1  1  0  0  0
 28 29  1  0  0  0  0
 28 24  1  0  0  0  0
 29 30  1  6  0  0  0
 29 31  1  0  0  0  0
 32 31  1  0  0  0  0
 32 33  1  0  0  0  0
 34 33  1  0  0  0  0
M  END
>  <MODEL>
8

>  <REMARK>
 VINA RESULT:      -4.9      2.013      2.873
  Name = 
  21 active torsions:
  status: ('A' for Active; 'I' for Inactive)
    1  A    between atoms: O_2  and  C_23
    2  A    between atoms: O_2  and  C_32
    3  A    between atoms: C_3  and  C_25
    4  A    between atoms: C_4  and  C_30
    5  A    between atoms: C_7  and  O_16
    6  A    between atoms: C_7  and  C_29
    7  A    between atoms: C_8  and  C_10
    8  A    between atoms: C_10  and  S_17
    9  A    between atoms: C_11  and  C_26
   10  A    between atoms: C_12  and  S_17
   11  A    between atoms: C_12  and  C_22
   12  A    between atoms: O_16  and  C_30
   13  A    between atoms: C_19  and  C_22
   14  A    between atoms: C_19  and  O_28
   15  A    between atoms: C_23  and  C_25
   16  A    between atoms: C_25  and  S_27
   17  A    between atoms: C_26  and  O_28
   18  A    between atoms: C_26  and  C_32
   19  A    between atoms: S_27  and  C_33
   20  A    between atoms: C_29  and  C_33
   21  A    between atoms: C_33  and  C_34
                            x       y       z     vdW  Elec       q    Type
                         _______ _______ _______ _____ _____    ______ ____

>  <TORSDO>
F 21

$$$$
=
 OpenBabel10262423393D

 34 34  0  0  1  0  0  0  0  0999 V2000
  188.6660  177.3490  140.5620 O   0  0  0  0  0  0  0  0  0  0  0  0
  189.4220  177.7130  139.4460 C   0  0  0  0  0  2  0  0  0  0  0  0
  188.6800  177.3660  138.1630 C   0  0  2  0  0  3  0  0  0  0  0  0
  187.3450  178.0910  138.1810 C   0  0  0  0  0  2  0  0  0  0  0  0
  187.3040  179.0510  137.1720 O   0  0  0  0  0  1  0  0  0  0  0  0
  188.4690  175.9790  138.1090 O   0  0  0  0  0  0  0  0  0  0  0  0
  189.8030  176.5890  136.1790 C   0  0  0  0  0  2  0  0  0  0  0  0
  188.6640  175.7450  135.6250 C   0  0  0  0  0  2  0  0  0  0  0  0
  189.2040  175.4790  137.0170 C   0  0  0  0  0  0  0  0  0  0  0  0
  190.1310  174.2840  137.2190 C   0  0  0  0  0  2  0  0  0  0  0  0
  191.5530  174.7250  137.5300 C   0  0  0  0  0  2  0  0  0  0  0  0
  192.7290  173.9840  136.3590 S   0  0  0  0  0  0  0  0  0  0  0  0
  194.0360  175.1790  136.7920 C   0  0  1  0  0  3  0  0  0  0  0  0
  193.5330  176.1120  137.8740 C   0  0  0  0  0  1  0  0  0  0  0  0
  195.3240  174.4920  137.2460 C   0  0  1  0  0  3  0  0  0  0  0  0
  196.4450  175.2660  136.9380 O   0  0  0  0  0  1  0  0  0  0  0  0
  195.2910  174.1940  138.7320 C   0  0  0  0  0  1  0  0  0  0  0  0
  188.9140  178.3470  141.5070 C   0  0  0  0  0  2  0  0  0  0  0  0
  189.3150  177.7300  142.8390 C   0  0  2  0  0  3  0  0  0  0  0  0
  190.7200  177.2230  142.7990 C   0  0  0  0  0  0  0  0  0  0  0  0
  191.5810  177.8340  142.1140 O   0  0  0  0  0  0  0  0  0  0  0  0
  191.0980  176.0700  143.5440 N   0  0  0  0  0  1  0  0  0  0  0  0
  188.1760  176.3740  143.2560 S   0  0  0  0  0  0  0  0  0  0  0  0
  187.3800  177.3130  144.5980 C   0  0  1  0  0  3  0  0  0  0  0  0
  188.9480  176.8570  146.3490 O   0  0  0  0  0  1  0  0  0  0  0  0
  188.4400  177.8720  145.5390 C   0  0  0  0  0  2  0  0  0  0  0  0
  185.6720  177.8550  143.0070 O   0  0  0  0  0  1  0  0  0  0  0  0
  186.4230  178.3870  144.0560 C   0  0  1  0  0  3  0  0  0  0  0  0
  185.4910  178.9790  145.1330 C   0  0  2  0  0  3  0  0  0  0  0  0
  185.0520  177.9990  146.0340 O   0  0  0  0  0  1  0  0  0  0  0  0
  184.4050  179.7020  144.5930 O   0  0  0  0  0  0  0  0  0  0  0  0
  183.2180  178.9950  144.8540 C   0  0  0  0  0  2  0  0  0  0  0  0
  182.3490  178.9600  143.6110 C   0  0  0  0  0  2  0  0  0  0  0  0
  180.9110  178.6470  143.9810 C   0  0  0  0  0  1  0  0  0  0  0  0
  1 18  1  0  0  0  0
  2  1  1  0  0  0  0
  3  4  1  1  0  0  0
  3  2  1  0  0  0  0
  5  4  1  0  0  0  0
  6  3  1  0  0  0  0
  7  9  1  0  0  0  0
  8  7  1  0  0  0  0
  8  9  1  0  0  0  0
  9 10  1  0  0  0  0
  9  6  1  0  0  0  0
 10 11  1  0  0  0  0
 12 13  1  0  0  0  0
 12 11  1  0  0  0  0
 13 15  1  0  0  0  0
 13 14  1  1  0  0  0
 15 17  1  1  0  0  0
 16 15  1  0  0  0  0
 19 18  1  6  0  0  0
 19 23  1  0  0  0  0
 20 19  1  0  0  0  0
 20 22  1  0  0  0  0
 21 20  2  0  0  0  0
 23 24  1  0  0  0  0
 24 26  1  6  0  0  0
 26 25  1  0  0  0  0
 28 27  1  6  0  0  0
 28 24  1  0  0  0  0
 28 29  1  0  0  0  0
 29 30  1  6  0  0  0
 31 32  1  0  0  0  0
 31 29  1  0  0  0  0
 33 34  1  0  0  0  0
 33 32  1  0  0  0  0
M  END
>  <MODEL>
9

>  <REMARK>
 VINA RESULT:      -4.9      4.309      8.297
  Name = 
  21 active torsions:
  status: ('A' for Active; 'I' for Inactive)
    1  A    between atoms: O_2  and  C_23
    2  A    between atoms: O_2  and  C_32
    3  A    between atoms: C_3  and  C_25
    4  A    between atoms: C_4  and  C_30
    5  A    between atoms: C_7  and  O_16
    6  A    between atoms: C_7  and  C_29
    7  A    between atoms: C_8  and  C_10
    8  A    between atoms: C_10  and  S_17
    9  A    between atoms: C_11  and  C_26
   10  A    between atoms: C_12  and  S_17
   11  A    between atoms: C_12  and  C_22
   12  A    between atoms: O_16  and  C_30
   13  A    between atoms: C_19  and  C_22
   14  A    between atoms: C_19  and  O_28
   15  A    between atoms: C_23  and  C_25
   16  A    between atoms: C_25  and  S_27
   17  A    between atoms: C_26  and  O_28
   18  A    between atoms: C_26  and  C_32
   19  A    between atoms: S_27  and  C_33
   20  A    between atoms: C_29  and  C_33
   21  A    between atoms: C_33  and  C_34
                            x       y       z     vdW  Elec       q    Type
                         _______ _______ _______ _____ _____    ______ ____

>  <TORSDO>
F 21

$$$$
