=
 OpenBabel10262422413D

 43 47  0  0  1  0  0  0  0  0999 V2000
  191.5070  176.7690  139.0610 N   0  0  0  0  0  0  0  0  0  0  0  0
  192.9070  176.8520  138.7270 C   0  0  0  0  0  0  0  0  0  0  0  0
  193.7010  177.4560  139.4990 O   0  0  0  0  0  0  0  0  0  0  0  0
  187.4940  177.5710  135.7710 C   0  0  0  0  0  0  0  0  0  0  0  0
  188.8800  175.9000  136.7800 C   0  0  0  0  0  0  0  0  0  0  0  0
  188.2240  178.5690  136.4540 C   0  0  0  0  0  3  0  0  0  0  0  0
  186.3690  177.9610  134.8820 C   0  0  0  0  0  1  0  0  0  0  0  0
  189.6000  176.8680  137.4230 C   0  0  0  0  0  0  0  0  0  0  0  0
  187.8160  176.2110  135.9370 C   0  0  0  0  0  3  0  0  0  0  0  0
  189.2920  178.2210  137.3010 C   0  0  0  0  0  3  0  0  0  0  0  0
  190.5350  176.1950  138.1760 C   0  0  0  0  0  0  0  0  0  0  0  0
  190.3740  174.8960  138.0070 O   0  0  0  0  0  0  0  0  0  0  0  0
  189.3820  174.6710  137.1600 C   0  0  0  0  0  3  0  0  0  0  0  0
  193.4610  176.1300  137.5320 C   0  0  0  0  0  2  0  0  0  0  0  0
  195.4430  173.1930  138.6700 C   0  0  0  0  0  2  0  0  0  0  0  0
  195.2480  172.2730  137.4610 C   0  0  0  0  0  0  0  0  0  0  0  0
  195.3130  170.8350  137.9310 C   0  0  0  0  0  1  0  0  0  0  0  0
  193.6400  174.0060  136.5740 C   0  0  0  0  0  2  0  0  0  0  0  0
  195.1040  174.6420  138.3190 C   0  0  0  0  0  2  0  0  0  0  0  0
  193.7260  174.7320  137.8380 N   0  0  0  0  0  0  0  0  0  0  0  0
  196.3590  172.4960  136.4480 C   0  0  0  0  0  1  0  0  0  0  0  0
  193.8830  172.5130  136.8100 C   0  0  0  0  0  2  0  0  0  0  0  0
  191.0580  177.1480  140.3970 C   0  0  0  0  0  2  0  0  0  0  0  0
  190.6090  176.0120  141.0970 O   0  0  0  0  0  0  0  0  0  0  0  0
  189.9710  176.4140  142.2940 C   0  0  2  0  0  3  0  0  0  0  0  0
  189.1250  177.6710  142.1260 C   0  0  0  0  0  1  0  0  0  0  0  0
  190.9270  176.5300  143.4830 C   0  0  0  0  0  2  0  0  0  0  0  0
  190.1060  178.1760  145.2410 N   0  0  0  0  0  2  0  0  0  0  0  0
  190.9170  177.8990  144.0980 C   0  0  0  0  0  0  0  0  0  0  0  0
  191.5820  178.8340  143.5800 O   0  0  0  0  0  0  0  0  0  0  0  0
  189.1980  177.1990  145.8290 C   0  0  1  0  0  3  0  0  0  0  0  0
  187.2590  177.9650  147.3490 C   0  0  0  0  0  2  0  0  0  0  0  0
  189.7310  176.7400  147.1890 C   0  0  0  0  0  2  0  0  0  0  0  0
  189.6390  177.8440  148.2500 C   0  0  0  0  0  2  0  0  0  0  0  0
  187.7730  177.7840  145.9190 C   0  0  2  0  0  3  0  0  0  0  0  0
  188.3270  178.6400  148.2050 C   0  0  0  0  0  2  0  0  0  0  0  0
  186.7750  177.0180  145.0490 C   0  0  0  0  0  2  0  0  0  0  0  0
  185.6650  177.8760  144.5330 C   0  0  0  0  0  0  0  0  0  0  0  0
  183.5770  179.4650  143.5580 C   0  0  0  0  0  3  0  0  0  0  0  0
  184.5510  178.9770  142.6830 C   0  0  0  0  0  3  0  0  0  0  0  0
  183.6450  179.1610  144.9210 C   0  0  0  0  0  3  0  0  0  0  0  0
  185.5940  178.1830  143.1680 C   0  0  0  0  0  3  0  0  0  0  0  0
  184.6890  178.3670  145.4080 C   0  0  0  0  0  3  0  0  0  0  0  0
  1 23  1  0  0  0  0
  2  1  1  0  0  0  0
  2  3  2  0  0  0  0
  4  9  2  0  0  0  0
  4  6  1  0  0  0  0
  5 13  2  0  0  0  0
  5  8  1  0  0  0  0
  6 10  2  0  0  0  0
  7  4  1  0  0  0  0
  8 11  2  0  0  0  0
  9  5  1  0  0  0  0
 10  8  1  0  0  0  0
 11  1  1  0  0  0  0
 12 11  1  0  0  0  0
 13 12  1  0  0  0  0
 14 20  1  0  0  0  0
 14  2  1  0  0  0  0
 16 17  1  0  0  0  0
 16 15  1  0  0  0  0
 18 22  1  0  0  0  0
 18 20  1  0  0  0  0
 19 15  1  0  0  0  0
 20 19  1  0  0  0  0
 21 16  1  0  0  0  0
 22 16  1  0  0  0  0
 23 24  1  0  0  0  0
 24 25  1  0  0  0  0
 25 26  1  6  0  0  0
 25 27  1  0  0  0  0
 27 29  1  0  0  0  0
 29 28  1  0  0  0  0
 30 29  2  0  0  0  0
 31 28  1  1  0  0  0
 31 35  1  0  0  0  0
 31 33  1  0  0  0  0
 32 36  1  0  0  0  0
 33 34  1  0  0  0  0
 35 37  1  6  0  0  0
 35 32  1  0  0  0  0
 36 34  1  0  0  0  0
 38 37  1  0  0  0  0
 38 43  1  0  0  0  0
 39 41  1  0  0  0  0
 40 42  1  0  0  0  0
 40 39  2  0  0  0  0
 41 43  2  0  0  0  0
 42 38  2  0  0  0  0
M  END
>  <MODEL>
1

>  <REMARK>
 VINA RESULT:      -9.9      0.000      0.000
  Name = 
  11 active torsions:
  status: ('A' for Active; 'I' for Inactive)
    1  A    between atoms: C_1  and  C_34
    2  A    between atoms: C_1  and  N_35
    3  A    between atoms: C_2  and  C_6
    4  A    between atoms: C_2  and  O_13
    5  A    between atoms: N_3  and  C_4
    6  A    between atoms: C_6  and  C_12
    7  A    between atoms: N_8  and  C_27
    8  A    between atoms: N_8  and  C_30
    9  A    between atoms: C_11  and  C_14
   10  A    between atoms: O_13  and  C_27
   11  A    between atoms: C_14  and  C_41
                            x       y       z     vdW  Elec       q    Type
                         _______ _______ _______ _____ _____    ______ ____

>  <TORSDO>
F 11

$$$$
=
 OpenBabel10262422413D

 43 47  0  0  1  0  0  0  0  0999 V2000
  190.2120  177.0780  138.8810 N   0  0  0  0  0  0  0  0  0  0  0  0
  189.4380  178.1190  138.2540 C   0  0  0  0  0  0  0  0  0  0  0  0
  189.0360  179.1000  138.9380 O   0  0  0  0  0  0  0  0  0  0  0  0
  194.0280  174.4360  136.4270 C   0  0  0  0  0  0  0  0  0  0  0  0
  191.7280  174.3670  137.0880 C   0  0  0  0  0  0  0  0  0  0  0  0
  194.1500  175.7060  137.0320 C   0  0  0  0  0  3  0  0  0  0  0  0
  195.2030  173.8250  135.7540 C   0  0  0  0  0  1  0  0  0  0  0  0
  191.8540  175.5870  137.6940 C   0  0  0  0  0  0  0  0  0  0  0  0
  192.7980  173.7520  136.4440 C   0  0  0  0  0  3  0  0  0  0  0  0
  193.0490  176.3020  137.6730 C   0  0  0  0  0  3  0  0  0  0  0  0
  190.6050  175.8840  138.1900 C   0  0  0  0  0  0  0  0  0  0  0  0
  189.7740  174.9060  137.8860 O   0  0  0  0  0  0  0  0  0  0  0  0
  190.4160  173.9580  137.2200 C   0  0  0  0  0  3  0  0  0  0  0  0
  189.1970  178.1170  136.7720 C   0  0  0  0  0  2  0  0  0  0  0  0
  185.6040  177.2190  137.1330 C   0  0  0  0  0  2  0  0  0  0  0  0
  185.2950  176.8220  135.6870 C   0  0  0  0  0  0  0  0  0  0  0  0
  183.8350  177.1090  135.4070 C   0  0  0  0  0  1  0  0  0  0  0  0
  187.6240  177.6130  135.1180 C   0  0  0  0  0  2  0  0  0  0  0  0
  187.1100  177.2260  137.3940 C   0  0  0  0  0  2  0  0  0  0  0  0
  187.7730  178.1450  136.4690 N   0  0  0  0  0  0  0  0  0  0  0  0
  185.5380  175.3340  135.4900 C   0  0  0  0  0  1  0  0  0  0  0  0
  186.1500  177.6310  134.7070 C   0  0  0  0  0  2  0  0  0  0  0  0
  190.7480  177.2830  140.2240 C   0  0  0  0  0  2  0  0  0  0  0  0
  190.3770  176.2140  141.0620 O   0  0  0  0  0  0  0  0  0  0  0  0
  189.8980  176.7210  142.2930 C   0  0  2  0  0  3  0  0  0  0  0  0
  189.1420  178.0370  142.1430 C   0  0  0  0  0  1  0  0  0  0  0  0
  190.9750  176.8070  143.3760 C   0  0  0  0  0  2  0  0  0  0  0  0
  190.1420  178.2930  145.2660 N   0  0  0  0  0  2  0  0  0  0  0  0
  190.9560  178.1190  144.1040 C   0  0  0  0  0  0  0  0  0  0  0  0
  191.6140  179.0990  143.6670 O   0  0  0  0  0  0  0  0  0  0  0  0
  189.2420  177.2630  145.7690 C   0  0  1  0  0  3  0  0  0  0  0  0
  187.2360  177.8970  147.2620 C   0  0  0  0  0  2  0  0  0  0  0  0
  189.7420  176.7420  147.1180 C   0  0  0  0  0  2  0  0  0  0  0  0
  189.5880  177.7830  148.2340 C   0  0  0  0  0  2  0  0  0  0  0  0
  187.8000  177.8090  145.8420 C   0  0  2  0  0  3  0  0  0  0  0  0
  188.2580  178.5490  148.1890 C   0  0  0  0  0  2  0  0  0  0  0  0
  186.8510  177.0680  144.8990 C   0  0  0  0  0  2  0  0  0  0  0  0
  185.6730  177.8920  144.4850 C   0  0  0  0  0  0  0  0  0  0  0  0
  183.4590  179.4150  143.7010 C   0  0  0  0  0  3  0  0  0  0  0  0
  184.4110  179.0270  142.7540 C   0  0  0  0  0  3  0  0  0  0  0  0
  183.6130  179.0430  145.0400 C   0  0  0  0  0  3  0  0  0  0  0  0
  185.5170  178.2660  143.1450 C   0  0  0  0  0  3  0  0  0  0  0  0
  184.7180  178.2830  145.4320 C   0  0  0  0  0  3  0  0  0  0  0  0
  1 23  1  0  0  0  0
  2  1  1  0  0  0  0
  2  3  2  0  0  0  0
  4  9  2  0  0  0  0
  4  6  1  0  0  0  0
  5 13  2  0  0  0  0
  5  8  1  0  0  0  0
  6 10  2  0  0  0  0
  7  4  1  0  0  0  0
  8 11  2  0  0  0  0
  9  5  1  0  0  0  0
 10  8  1  0  0  0  0
 11  1  1  0  0  0  0
 12 11  1  0  0  0  0
 13 12  1  0  0  0  0
 14  2  1  0  0  0  0
 15 19  1  0  0  0  0
 16 15  1  0  0  0  0
 17 16  1  0  0  0  0
 18 20  1  0  0  0  0
 20 14  1  0  0  0  0
 20 19  1  0  0  0  0
 21 16  1  0  0  0  0
 22 18  1  0  0  0  0
 22 16  1  0  0  0  0
 23 24  1  0  0  0  0
 24 25  1  0  0  0  0
 25 26  1  6  0  0  0
 25 27  1  0  0  0  0
 27 29  1  0  0  0  0
 29 28  1  0  0  0  0
 30 29  2  0  0  0  0
 31 28  1  1  0  0  0
 31 35  1  0  0  0  0
 31 33  1  0  0  0  0
 32 36  1  0  0  0  0
 33 34  1  0  0  0  0
 35 37  1  6  0  0  0
 35 32  1  0  0  0  0
 36 34  1  0  0  0  0
 38 37  1  0  0  0  0
 38 43  1  0  0  0  0
 39 41  1  0  0  0  0
 40 42  1  0  0  0  0
 40 39  2  0  0  0  0
 41 43  2  0  0  0  0
 42 38  2  0  0  0  0
M  END
>  <MODEL>
2

>  <REMARK>
 VINA RESULT:      -9.9      1.450      5.124
  Name = 
  11 active torsions:
  status: ('A' for Active; 'I' for Inactive)
    1  A    between atoms: C_1  and  C_34
    2  A    between atoms: C_1  and  N_35
    3  A    between atoms: C_2  and  C_6
    4  A    between atoms: C_2  and  O_13
    5  A    between atoms: N_3  and  C_4
    6  A    between atoms: C_6  and  C_12
    7  A    between atoms: N_8  and  C_27
    8  A    between atoms: N_8  and  C_30
    9  A    between atoms: C_11  and  C_14
   10  A    between atoms: O_13  and  C_27
   11  A    between atoms: C_14  and  C_41
                            x       y       z     vdW  Elec       q    Type
                         _______ _______ _______ _____ _____    ______ ____

>  <TORSDO>
F 11

$$$$
=
 OpenBabel10262422413D

 43 47  0  0  1  0  0  0  0  0999 V2000
  189.1520  177.0710  138.3090 N   0  0  0  0  0  0  0  0  0  0  0  0
  189.3390  177.6240  139.6270 C   0  0  0  0  0  0  0  0  0  0  0  0
  188.8120  178.7310  139.9220 O   0  0  0  0  0  0  0  0  0  0  0  0
  193.6740  174.7100  137.0640 C   0  0  0  0  0  0  0  0  0  0  0  0
  191.3050  174.4120  137.2340 C   0  0  0  0  0  0  0  0  0  0  0  0
  193.5250  176.0410  137.5140 C   0  0  0  0  0  3  0  0  0  0  0  0
  195.0260  174.1920  136.7350 C   0  0  0  0  0  1  0  0  0  0  0  0
  191.1640  175.6920  137.6910 C   0  0  0  0  0  0  0  0  0  0  0  0
  192.5490  173.8780  136.9110 C   0  0  0  0  0  3  0  0  0  0  0  0
  192.2530  176.5510  137.8300 C   0  0  0  0  0  3  0  0  0  0  0  0
  189.8120  175.8740  137.8740 C   0  0  0  0  0  0  0  0  0  0  0  0
  189.1760  174.7700  137.5300 O   0  0  0  0  0  0  0  0  0  0  0  0
  190.0460  173.8510  137.1400 C   0  0  0  0  0  3  0  0  0  0  0  0
  190.0550  176.8500  140.6970 C   0  0  0  0  0  2  0  0  0  0  0  0
  190.4590  178.5550  143.9800 C   0  0  0  0  0  2  0  0  0  0  0  0
  190.0650  177.4060  144.9120 C   0  0  0  0  0  0  0  0  0  0  0  0
  189.4610  177.9890  146.1720 C   0  0  0  0  0  1  0  0  0  0  0  0
  189.4610  176.1080  142.8320 C   0  0  0  0  0  2  0  0  0  0  0  0
  190.8050  178.0380  142.5830 C   0  0  0  0  0  2  0  0  0  0  0  0
  189.6690  177.3060  142.0240 N   0  0  0  0  0  0  0  0  0  0  0  0
  191.2950  176.6000  145.2990 C   0  0  0  0  0  1  0  0  0  0  0  0
  189.0260  176.4980  144.2460 C   0  0  0  0  0  2  0  0  0  0  0  0
  188.1540  177.6510  137.4160 C   0  0  0  0  0  2  0  0  0  0  0  0
  186.8620  177.4520  137.9390 O   0  0  0  0  0  0  0  0  0  0  0  0
  186.1270  176.6030  137.0790 C   0  0  2  0  0  3  0  0  0  0  0  0
  186.6990  176.5440  135.6680 C   0  0  0  0  0  1  0  0  0  0  0  0
  184.6260  176.9000  137.0710 C   0  0  0  0  0  2  0  0  0  0  0  0
  183.0530  176.4620  139.0220 N   0  0  0  0  0  2  0  0  0  0  0  0
  183.8480  175.9610  137.9470 C   0  0  0  0  0  0  0  0  0  0  0  0
  183.9340  174.7160  137.7780 O   0  0  0  0  0  0  0  0  0  0  0  0
  182.9990  177.8730  139.3830 C   0  0  1  0  0  3  0  0  0  0  0  0
  181.7780  178.6290  141.5260 C   0  0  0  0  0  2  0  0  0  0  0  0
  181.7610  178.5260  138.7650 C   0  0  0  0  0  2  0  0  0  0  0  0
  180.4620  178.0450  139.4250 C   0  0  0  0  0  2  0  0  0  0  0  0
  183.0490  178.0310  140.9170 C   0  0  2  0  0  3  0  0  0  0  0  0
  180.5480  177.9310  140.9540 C   0  0  0  0  0  2  0  0  0  0  0  0
  184.3040  178.7700  141.3840 C   0  0  0  0  0  2  0  0  0  0  0  0
  184.5240  178.6780  142.8610 C   0  0  0  0  0  0  0  0  0  0  0  0
  184.9510  178.5240  145.6230 C   0  0  0  0  0  3  0  0  0  0  0  0
  185.9650  178.1490  144.7370 C   0  0  0  0  0  3  0  0  0  0  0  0
  183.7230  178.9770  145.1290 C   0  0  0  0  0  3  0  0  0  0  0  0
  185.7530  178.2250  143.3580 C   0  0  0  0  0  3  0  0  0  0  0  0
  183.5100  179.0530  143.7500 C   0  0  0  0  0  3  0  0  0  0  0  0
  1  2  1  0  0  0  0
  2  3  2  0  0  0  0
  2 14  1  0  0  0  0
  4  6  1  0  0  0  0
  5  8  1  0  0  0  0
  6 10  2  0  0  0  0
  7  4  1  0  0  0  0
  8 10  1  0  0  0  0
  8 11  2  0  0  0  0
  9  4  2  0  0  0  0
  9  5  1  0  0  0  0
 11  1  1  0  0  0  0
 12 11  1  0  0  0  0
 13  5  2  0  0  0  0
 13 12  1  0  0  0  0
 14 20  1  0  0  0  0
 15 16  1  0  0  0  0
 16 21  1  0  0  0  0
 16 17  1  0  0  0  0
 18 22  1  0  0  0  0
 19 15  1  0  0  0  0
 20 19  1  0  0  0  0
 20 18  1  0  0  0  0
 22 16  1  0  0  0  0
 23 24  1  0  0  0  0
 23  1  1  0  0  0  0
 25 26  1  6  0  0  0
 25 24  1  0  0  0  0
 27 25  1  0  0  0  0
 27 29  1  0  0  0  0
 29 28  1  0  0  0  0
 30 29  2  0  0  0  0
 31 28  1  1  0  0  0
 31 35  1  0  0  0  0
 33 31  1  0  0  0  0
 33 34  1  0  0  0  0
 34 36  1  0  0  0  0
 35 37  1  6  0  0  0
 35 32  1  0  0  0  0
 36 32  1  0  0  0  0
 37 38  1  0  0  0  0
 38 42  2  0  0  0  0
 38 43  1  0  0  0  0
 40 39  2  0  0  0  0
 41 39  1  0  0  0  0
 42 40  1  0  0  0  0
 43 41  2  0  0  0  0
M  END
>  <MODEL>
3

>  <REMARK>
 VINA RESULT:      -9.0      2.769      7.103
  Name = 
  11 active torsions:
  status: ('A' for Active; 'I' for Inactive)
    1  A    between atoms: C_1  and  C_34
    2  A    between atoms: C_1  and  N_35
    3  A    between atoms: C_2  and  C_6
    4  A    between atoms: C_2  and  O_13
    5  A    between atoms: N_3  and  C_4
    6  A    between atoms: C_6  and  C_12
    7  A    between atoms: N_8  and  C_27
    8  A    between atoms: N_8  and  C_30
    9  A    between atoms: C_11  and  C_14
   10  A    between atoms: O_13  and  C_27
   11  A    between atoms: C_14  and  C_41
                            x       y       z     vdW  Elec       q    Type
                         _______ _______ _______ _____ _____    ______ ____

>  <TORSDO>
F 11

$$$$
=
 OpenBabel10262422413D

 43 47  0  0  1  0  0  0  0  0999 V2000
  180.8830  178.6460  141.5440 N   0  0  0  0  0  0  0  0  0  0  0  0
  180.1700  179.8750  141.2970 C   0  0  0  0  0  0  0  0  0  0  0  0
  180.0720  180.7370  142.2120 O   0  0  0  0  0  0  0  0  0  0  0  0
  183.2600  176.5890  137.3380 C   0  0  0  0  0  0  0  0  0  0  0  0
  181.4740  176.2910  138.9050 C   0  0  0  0  0  0  0  0  0  0  0  0
  183.6320  177.7760  138.0090 C   0  0  0  0  0  3  0  0  0  0  0  0
  184.0280  176.1460  136.1470 C   0  0  0  0  0  1  0  0  0  0  0  0
  181.8490  177.4280  139.5660 C   0  0  0  0  0  0  0  0  0  0  0  0
  182.1590  175.8330  137.7820 C   0  0  0  0  0  3  0  0  0  0  0  0
  182.9170  178.2130  139.1380 C   0  0  0  0  0  3  0  0  0  0  0  0
  180.9380  177.5790  140.5870 C   0  0  0  0  0  0  0  0  0  0  0  0
  180.0570  176.5990  140.5310 O   0  0  0  0  0  0  0  0  0  0  0  0
  180.3490  175.7870  139.5260 C   0  0  0  0  0  3  0  0  0  0  0  0
  179.6400  180.1990  139.9300 C   0  0  0  0  0  2  0  0  0  0  0  0
  179.4520  183.4780  138.1790 C   0  0  0  0  0  2  0  0  0  0  0  0
  180.7490  183.4070  137.3700 C   0  0  0  0  0  0  0  0  0  0  0  0
  181.2660  184.8150  137.1590 C   0  0  0  0  0  1  0  0  0  0  0  0
  181.2500  181.2700  138.6170 C   0  0  0  0  0  2  0  0  0  0  0  0
  179.0330  182.0920  138.6710 C   0  0  0  0  0  2  0  0  0  0  0  0
  180.0990  181.5060  139.4830 N   0  0  0  0  0  0  0  0  0  0  0  0
  180.4850  182.7850  136.0080 C   0  0  0  0  0  1  0  0  0  0  0  0
  181.8150  182.6020  138.1200 C   0  0  0  0  0  2  0  0  0  0  0  0
  181.7030  178.5140  142.7450 C   0  0  0  0  0  2  0  0  0  0  0  0
  182.8540  179.3180  142.6360 O   0  0  0  0  0  0  0  0  0  0  0  0
  183.9540  178.6530  143.2270 C   0  0  2  0  0  3  0  0  0  0  0  0
  184.7970  179.5650  144.1110 C   0  0  0  0  0  1  0  0  0  0  0  0
  184.8140  177.8880  142.2190 C   0  0  0  0  0  2  0  0  0  0  0  0
  187.2050  178.4820  141.5850 N   0  0  0  0  0  2  0  0  0  0  0  0
  185.8080  178.7710  141.5230 C   0  0  0  0  0  0  0  0  0  0  0  0
  185.4250  179.8090  140.9220 O   0  0  0  0  0  0  0  0  0  0  0  0
  187.7580  177.3840  142.3690 C   0  0  1  0  0  3  0  0  0  0  0  0
  189.6170  177.8220  144.1030 C   0  0  0  0  0  2  0  0  0  0  0  0
  188.9520  176.7660  141.6380 C   0  0  0  0  0  2  0  0  0  0  0  0
  190.1670  177.7020  141.6180 C   0  0  0  0  0  2  0  0  0  0  0  0
  188.1200  177.8730  143.7860 C   0  0  2  0  0  3  0  0  0  0  0  0
  190.4140  178.4250  142.9510 C   0  0  0  0  0  2  0  0  0  0  0  0
  187.2860  177.1850  144.8690 C   0  0  0  0  0  2  0  0  0  0  0  0
  187.7180  177.5390  146.2560 C   0  0  0  0  0  0  0  0  0  0  0  0
  188.5110  178.1850  148.8610 C   0  0  0  0  0  3  0  0  0  0  0  0
  187.2480  178.5670  148.4010 C   0  0  0  0  0  3  0  0  0  0  0  0
  189.3790  177.4800  148.0210 C   0  0  0  0  0  3  0  0  0  0  0  0
  186.8510  178.2450  147.1000 C   0  0  0  0  0  3  0  0  0  0  0  0
  188.9830  177.1580  146.7200 C   0  0  0  0  0  3  0  0  0  0  0  0
  1 23  1  0  0  0  0
  2  1  1  0  0  0  0
  2  3  2  0  0  0  0
  4  9  2  0  0  0  0
  4  6  1  0  0  0  0
  5 13  2  0  0  0  0
  5  8  1  0  0  0  0
  6 10  2  0  0  0  0
  7  4  1  0  0  0  0
  8 11  2  0  0  0  0
  9  5  1  0  0  0  0
 10  8  1  0  0  0  0
 11  1  1  0  0  0  0
 12 11  1  0  0  0  0
 13 12  1  0  0  0  0
 14  2  1  0  0  0  0
 15 19  1  0  0  0  0
 16 22  1  0  0  0  0
 16 15  1  0  0  0  0
 17 16  1  0  0  0  0
 18 20  1  0  0  0  0
 19 20  1  0  0  0  0
 20 14  1  0  0  0  0
 21 16  1  0  0  0  0
 22 18  1  0  0  0  0
 24 23  1  0  0  0  0
 24 25  1  0  0  0  0
 25 26  1  6  0  0  0
 27 25  1  0  0  0  0
 29 28  1  0  0  0  0
 29 27  1  0  0  0  0
 30 29  2  0  0  0  0
 31 28  1  6  0  0  0
 31 35  1  0  0  0  0
 33 31  1  0  0  0  0
 34 33  1  0  0  0  0
 34 36  1  0  0  0  0
 35 32  1  0  0  0  0
 35 37  1  1  0  0  0
 36 32  1  0  0  0  0
 37 38  1  0  0  0  0
 38 43  2  0  0  0  0
 38 42  1  0  0  0  0
 40 39  1  0  0  0  0
 41 39  2  0  0  0  0
 42 40  2  0  0  0  0
 43 41  1  0  0  0  0
M  END
>  <MODEL>
4

>  <REMARK>
 VINA RESULT:      -8.9      5.462     10.166
  Name = 
  11 active torsions:
  status: ('A' for Active; 'I' for Inactive)
    1  A    between atoms: C_1  and  C_34
    2  A    between atoms: C_1  and  N_35
    3  A    between atoms: C_2  and  C_6
    4  A    between atoms: C_2  and  O_13
    5  A    between atoms: N_3  and  C_4
    6  A    between atoms: C_6  and  C_12
    7  A    between atoms: N_8  and  C_27
    8  A    between atoms: N_8  and  C_30
    9  A    between atoms: C_11  and  C_14
   10  A    between atoms: O_13  and  C_27
   11  A    between atoms: C_14  and  C_41
                            x       y       z     vdW  Elec       q    Type
                         _______ _______ _______ _____ _____    ______ ____

>  <TORSDO>
F 11

$$$$
=
 OpenBabel10262422413D

 43 47  0  0  1  0  0  0  0  0999 V2000
  188.2950  178.0430  138.4700 N   0  0  0  0  0  0  0  0  0  0  0  0
  186.8800  178.2310  138.6710 C   0  0  0  0  0  0  0  0  0  0  0  0
  186.4500  178.5920  139.8010 O   0  0  0  0  0  0  0  0  0  0  0  0
  190.7500  174.0950  136.0310 C   0  0  0  0  0  0  0  0  0  0  0  0
  189.8230  176.2830  135.7450 C   0  0  0  0  0  0  0  0  0  0  0  0
  190.3610  174.1220  137.3890 C   0  0  0  0  0  3  0  0  0  0  0  0
  191.4550  172.9040  135.4910 C   0  0  0  0  0  1  0  0  0  0  0  0
  189.4270  176.3000  137.0530 C   0  0  0  0  0  0  0  0  0  0  0  0
  190.4880  175.1930  135.1900 C   0  0  0  0  0  3  0  0  0  0  0  0
  189.6940  175.2410  137.9180 C   0  0  0  0  0  3  0  0  0  0  0  0
  188.8390  177.5290  137.2470 C   0  0  0  0  0  0  0  0  0  0  0  0
  188.8940  178.2180  136.1230 O   0  0  0  0  0  0  0  0  0  0  0  0
  189.4790  177.4950  135.1800 C   0  0  0  0  0  3  0  0  0  0  0  0
  185.9150  178.1190  137.5270 C   0  0  0  0  0  2  0  0  0  0  0  0
  184.9560  174.9690  135.7920 C   0  0  0  0  0  2  0  0  0  0  0  0
  183.5180  174.8290  136.2980 C   0  0  0  0  0  0  0  0  0  0  0  0
  183.1630  173.3580  136.3480 C   0  0  0  0  0  1  0  0  0  0  0  0
  183.9940  176.8130  137.7850 C   0  0  0  0  0  2  0  0  0  0  0  0
  185.4730  176.3940  135.9880 C   0  0  0  0  0  2  0  0  0  0  0  0
  185.4010  176.7630  137.4020 N   0  0  0  0  0  0  0  0  0  0  0  0
  182.5570  175.5220  135.3440 C   0  0  0  0  0  1  0  0  0  0  0  0
  183.3780  175.4150  137.7060 C   0  0  0  0  0  2  0  0  0  0  0  0
  189.2380  178.5150  139.4800 C   0  0  0  0  0  2  0  0  0  0  0  0
  189.1790  177.6910  140.6200 O   0  0  0  0  0  0  0  0  0  0  0  0
  190.4090  177.7560  141.3160 C   0  0  2  0  0  3  0  0  0  0  0  0
  191.5480  177.0590  140.5800 C   0  0  0  0  0  1  0  0  0  0  0  0
  190.3090  177.2940  142.7710 C   0  0  0  0  0  2  0  0  0  0  0  0
  190.2880  178.3000  145.1090 N   0  0  0  0  0  2  0  0  0  0  0  0
  190.7040  178.3670  143.7440 C   0  0  0  0  0  0  0  0  0  0  0  0
  191.3610  179.3680  143.3550 O   0  0  0  0  0  0  0  0  0  0  0  0
  189.4120  177.2550  145.6240 C   0  0  1  0  0  3  0  0  0  0  0  0
  187.4600  177.8460  147.2040 C   0  0  0  0  0  2  0  0  0  0  0  0
  189.9640  176.7090  146.9420 C   0  0  0  0  0  2  0  0  0  0  0  0
  189.8470  177.7260  148.0850 C   0  0  0  0  0  2  0  0  0  0  0  0
  187.9710  177.7900  145.7620 C   0  0  2  0  0  3  0  0  0  0  0  0
  188.5120  178.4850  148.1050 C   0  0  0  0  0  2  0  0  0  0  0  0
  186.9910  177.0630  144.8390 C   0  0  0  0  0  2  0  0  0  0  0  0
  185.8010  177.8940  144.4750 C   0  0  0  0  0  0  0  0  0  0  0  0
  183.5670  179.4300  143.7810 C   0  0  0  0  0  3  0  0  0  0  0  0
  184.5250  179.1140  142.8140 C   0  0  0  0  0  3  0  0  0  0  0  0
  183.7250  178.9790  145.0960 C   0  0  0  0  0  3  0  0  0  0  0  0
  185.6410  178.3470  143.1590 C   0  0  0  0  0  3  0  0  0  0  0  0
  184.8410  178.2130  145.4420 C   0  0  0  0  0  3  0  0  0  0  0  0
  1  2  1  0  0  0  0
  1 23  1  0  0  0  0
  2  3  2  0  0  0  0
  4  6  1  0  0  0  0
  5  8  1  0  0  0  0
  6 10  2  0  0  0  0
  7  4  1  0  0  0  0
  8 11  2  0  0  0  0
  8 10  1  0  0  0  0
  9  5  1  0  0  0  0
  9  4  2  0  0  0  0
 11  1  1  0  0  0  0
 12 11  1  0  0  0  0
 13  5  2  0  0  0  0
 13 12  1  0  0  0  0
 14  2  1  0  0  0  0
 15 19  1  0  0  0  0
 15 16  1  0  0  0  0
 16 17  1  0  0  0  0
 16 22  1  0  0  0  0
 19 20  1  0  0  0  0
 20 14  1  0  0  0  0
 20 18  1  0  0  0  0
 21 16  1  0  0  0  0
 22 18  1  0  0  0  0
 23 24  1  0  0  0  0
 24 25  1  0  0  0  0
 25 26  1  6  0  0  0
 25 27  1  0  0  0  0
 27 29  1  0  0  0  0
 29 28  1  0  0  0  0
 30 29  2  0  0  0  0
 31 28  1  1  0  0  0
 31 35  1  0  0  0  0
 31 33  1  0  0  0  0
 32 36  1  0  0  0  0
 33 34  1  0  0  0  0
 34 36  1  0  0  0  0
 35 37  1  6  0  0  0
 35 32  1  0  0  0  0
 38 37  1  0  0  0  0
 38 43  1  0  0  0  0
 39 41  1  0  0  0  0
 40 42  1  0  0  0  0
 40 39  2  0  0  0  0
 41 43  2  0  0  0  0
 42 38  2  0  0  0  0
M  END
>  <MODEL>
5

>  <REMARK>
 VINA RESULT:      -8.7      2.524      5.638
  Name = 
  11 active torsions:
  status: ('A' for Active; 'I' for Inactive)
    1  A    between atoms: C_1  and  C_34
    2  A    between atoms: C_1  and  N_35
    3  A    between atoms: C_2  and  C_6
    4  A    between atoms: C_2  and  O_13
    5  A    between atoms: N_3  and  C_4
    6  A    between atoms: C_6  and  C_12
    7  A    between atoms: N_8  and  C_27
    8  A    between atoms: N_8  and  C_30
    9  A    between atoms: C_11  and  C_14
   10  A    between atoms: O_13  and  C_27
   11  A    between atoms: C_14  and  C_41
                            x       y       z     vdW  Elec       q    Type
                         _______ _______ _______ _____ _____    ______ ____

>  <TORSDO>
F 11

$$$$
=
 OpenBabel10262422413D

 43 47  0  0  1  0  0  0  0  0999 V2000
  191.3130  176.6300  138.7940 N   0  0  0  0  0  0  0  0  0  0  0  0
  192.7150  176.7160  138.4700 C   0  0  0  0  0  0  0  0  0  0  0  0
  193.5680  176.7970  139.3970 O   0  0  0  0  0  0  0  0  0  0  0  0
  188.3140  173.8730  135.4810 C   0  0  0  0  0  0  0  0  0  0  0  0
  188.8360  176.0760  136.2600 C   0  0  0  0  0  0  0  0  0  0  0  0
  189.2620  173.3430  136.3850 C   0  0  0  0  0  3  0  0  0  0  0  0
  187.5520  172.9570  134.5940 C   0  0  0  0  0  1  0  0  0  0  0  0
  189.7370  175.5600  137.1500 C   0  0  0  0  0  0  0  0  0  0  0  0
  188.0980  175.2610  135.4050 C   0  0  0  0  0  3  0  0  0  0  0  0
  189.9940  174.1940  137.2330 C   0  0  0  0  0  3  0  0  0  0  0  0
  190.2870  176.6470  137.7920 C   0  0  0  0  0  0  0  0  0  0  0  0
  189.7580  177.7520  137.3020 O   0  0  0  0  0  0  0  0  0  0  0  0
  188.8650  177.4510  136.3710 C   0  0  0  0  0  3  0  0  0  0  0  0
  193.1900  176.5920  137.0510 C   0  0  0  0  0  2  0  0  0  0  0  0
  195.5410  174.2880  135.3150 C   0  0  0  0  0  2  0  0  0  0  0  0
  195.2060  172.9860  136.0470 C   0  0  0  0  0  0  0  0  0  0  0  0
  196.4400  172.1090  136.0670 C   0  0  0  0  0  1  0  0  0  0  0  0
  193.7250  174.3720  137.5510 C   0  0  0  0  0  2  0  0  0  0  0  0
  194.4380  175.3280  135.5080 C   0  0  0  0  0  2  0  0  0  0  0  0
  194.2400  175.5910  136.9330 N   0  0  0  0  0  0  0  0  0  0  0  0
  194.1020  172.2410  135.3130 C   0  0  0  0  0  1  0  0  0  0  0  0
  194.7830  173.2680  137.4920 C   0  0  0  0  0  2  0  0  0  0  0  0
  190.9020  176.3770  140.1710 C   0  0  0  0  0  2  0  0  0  0  0  0
  190.6580  177.5940  140.8360 O   0  0  0  0  0  0  0  0  0  0  0  0
  190.6710  177.3820  142.2340 C   0  0  2  0  0  3  0  0  0  0  0  0
  190.5160  175.9140  142.6170 C   0  0  0  0  0  1  0  0  0  0  0  0
  189.6850  178.2720  142.9930 C   0  0  0  0  0  2  0  0  0  0  0  0
  190.2170  178.5430  145.4670 N   0  0  0  0  0  2  0  0  0  0  0  0
  190.3340  179.0170  144.1240 C   0  0  0  0  0  0  0  0  0  0  0  0
  190.9430  180.0980  143.9080 O   0  0  0  0  0  0  0  0  0  0  0  0
  189.4190  177.3810  145.8350 C   0  0  1  0  0  3  0  0  0  0  0  0
  187.3690  177.6370  147.3790 C   0  0  0  0  0  2  0  0  0  0  0  0
  189.9720  176.7500  147.1150 C   0  0  0  0  0  2  0  0  0  0  0  0
  189.7250  177.6290  148.3480 C   0  0  0  0  0  2  0  0  0  0  0  0
  187.9330  177.7750  145.9630 C   0  0  2  0  0  3  0  0  0  0  0  0
  188.3280  178.2650  148.3850 C   0  0  0  0  0  2  0  0  0  0  0  0
  187.0540  177.0680  144.9290 C   0  0  0  0  0  2  0  0  0  0  0  0
  185.8560  177.8690  144.5300 C   0  0  0  0  0  0  0  0  0  0  0  0
  183.6240  179.3880  143.7940 C   0  0  0  0  0  3  0  0  0  0  0  0
  183.8020  179.0080  145.1270 C   0  0  0  0  0  3  0  0  0  0  0  0
  184.5610  179.0100  142.8280 C   0  0  0  0  0  3  0  0  0  0  0  0
  184.9160  178.2500  145.4960 C   0  0  0  0  0  3  0  0  0  0  0  0
  185.6760  178.2510  143.1950 C   0  0  0  0  0  3  0  0  0  0  0  0
  1 23  1  0  0  0  0
  2  1  1  0  0  0  0
  2  3  2  0  0  0  0
  4  6  1  0  0  0  0
  5 13  2  0  0  0  0
  5  8  1  0  0  0  0
  6 10  2  0  0  0  0
  7  4  1  0  0  0  0
  8 10  1  0  0  0  0
  8 11  2  0  0  0  0
  9  4  2  0  0  0  0
  9  5  1  0  0  0  0
 11  1  1  0  0  0  0
 12 11  1  0  0  0  0
 13 12  1  0  0  0  0
 14  2  1  0  0  0  0
 15 19  1  0  0  0  0
 15 16  1  0  0  0  0
 16 17  1  0  0  0  0
 16 22  1  0  0  0  0
 19 20  1  0  0  0  0
 20 14  1  0  0  0  0
 20 18  1  0  0  0  0
 21 16  1  0  0  0  0
 22 18  1  0  0  0  0
 23 24  1  0  0  0  0
 24 25  1  0  0  0  0
 25 26  1  6  0  0  0
 25 27  1  0  0  0  0
 27 29  1  0  0  0  0
 29 28  1  0  0  0  0
 30 29  2  0  0  0  0
 31 28  1  1  0  0  0
 31 35  1  0  0  0  0
 31 33  1  0  0  0  0
 32 36  1  0  0  0  0
 33 34  1  0  0  0  0
 34 36  1  0  0  0  0
 35 37  1  6  0  0  0
 35 32  1  0  0  0  0
 38 37  1  0  0  0  0
 38 42  1  0  0  0  0
 39 40  1  0  0  0  0
 40 42  2  0  0  0  0
 41 43  1  0  0  0  0
 41 39  2  0  0  0  0
 43 38  2  0  0  0  0
M  END
>  <MODEL>
6

>  <REMARK>
 VINA RESULT:      -8.7      1.216      2.119
  Name = 
  11 active torsions:
  status: ('A' for Active; 'I' for Inactive)
    1  A    between atoms: C_1  and  C_34
    2  A    between atoms: C_1  and  N_35
    3  A    between atoms: C_2  and  C_6
    4  A    between atoms: C_2  and  O_13
    5  A    between atoms: N_3  and  C_4
    6  A    between atoms: C_6  and  C_12
    7  A    between atoms: N_8  and  C_27
    8  A    between atoms: N_8  and  C_30
    9  A    between atoms: C_11  and  C_14
   10  A    between atoms: O_13  and  C_27
   11  A    between atoms: C_14  and  C_41
                            x       y       z     vdW  Elec       q    Type
                         _______ _______ _______ _____ _____    ______ ____

>  <TORSDO>
F 11

$$$$
=
 OpenBabel10262422413D

 43 47  0  0  1  0  0  0  0  0999 V2000
  187.3840  177.8960  138.5050 N   0  0  0  0  0  0  0  0  0  0  0  0
  187.7250  178.2430  139.8620 C   0  0  0  0  0  0  0  0  0  0  0  0
  186.8420  178.7170  140.6280 O   0  0  0  0  0  0  0  0  0  0  0  0
  189.5370  173.8770  135.9020 C   0  0  0  0  0  0  0  0  0  0  0  0
  189.6250  176.2450  136.2450 C   0  0  0  0  0  0  0  0  0  0  0  0
  188.4610  173.7990  136.8130 C   0  0  0  0  0  3  0  0  0  0  0  0
  190.0460  172.6400  135.2550 C   0  0  0  0  0  1  0  0  0  0  0  0
  188.5690  176.1710  137.1090 C   0  0  0  0  0  0  0  0  0  0  0  0
  190.1400  175.1160  135.6130 C   0  0  0  0  0  3  0  0  0  0  0  0
  187.9660  174.9580  137.4360 C   0  0  0  0  0  3  0  0  0  0  0  0
  188.3610  177.4570  137.5520 C   0  0  0  0  0  0  0  0  0  0  0  0
  189.2530  178.2560  136.9970 O   0  0  0  0  0  0  0  0  0  0  0  0
  190.0390  177.5610  136.1880 C   0  0  0  0  0  3  0  0  0  0  0  0
  189.0860  177.9410  140.4190 C   0  0  0  0  0  2  0  0  0  0  0  0
  190.1400  178.4780  143.9480 C   0  0  0  0  0  2  0  0  0  0  0  0
  190.2660  177.0200  144.3990 C   0  0  0  0  0  0  0  0  0  0  0  0
  189.9730  176.9450  145.8820 C   0  0  0  0  0  1  0  0  0  0  0  0
  189.3140  176.3850  142.1480 C   0  0  0  0  0  2  0  0  0  0  0  0
  190.1380  178.5850  142.4230 C   0  0  0  0  0  2  0  0  0  0  0  0
  189.0420  177.7920  141.8660 N   0  0  0  0  0  0  0  0  0  0  0  0
  191.6820  176.5190  144.1630 C   0  0  0  0  0  1  0  0  0  0  0  0
  189.2610  176.1330  143.6560 C   0  0  0  0  0  2  0  0  0  0  0  0
  185.9820  177.8460  138.1010 C   0  0  0  0  0  2  0  0  0  0  0  0
  185.3740  179.0990  138.3080 O   0  0  0  0  0  0  0  0  0  0  0  0
  184.0400  178.9140  138.7400 C   0  0  2  0  0  3  0  0  0  0  0  0
  183.2220  180.2010  138.7200 C   0  0  0  0  0  1  0  0  0  0  0  0
  183.9310  178.1940  140.0850 C   0  0  0  0  0  2  0  0  0  0  0  0
  181.5790  177.8030  140.9740 N   0  0  0  0  0  2  0  0  0  0  0  0
  182.6890  177.3580  140.1920 C   0  0  0  0  0  0  0  0  0  0  0  0
  182.6330  176.2280  139.6380 O   0  0  0  0  0  0  0  0  0  0  0  0
  181.6010  179.0280  141.7630 C   0  0  1  0  0  3  0  0  0  0  0  0
  181.2890  178.9410  144.3220 C   0  0  0  0  0  2  0  0  0  0  0  0
  180.1870  179.6030  141.8770 C   0  0  0  0  0  2  0  0  0  0  0  0
  179.2810  178.7430  142.7670 C   0  0  0  0  0  2  0  0  0  0  0  0
  182.2440  178.7620  143.1400 C   0  0  2  0  0  3  0  0  0  0  0  0
  179.9700  178.2290  144.0390 C   0  0  0  0  0  2  0  0  0  0  0  0
  183.5430  179.5470  143.3350 C   0  0  0  0  0  2  0  0  0  0  0  0
  184.4940  178.8840  144.2790 C   0  0  0  0  0  0  0  0  0  0  0  0
  186.2580  177.6270  146.0520 C   0  0  0  0  0  3  0  0  0  0  0  0
  185.1810  178.3680  146.5460 C   0  0  0  0  0  3  0  0  0  0  0  0
  186.4550  177.5130  144.6720 C   0  0  0  0  0  3  0  0  0  0  0  0
  184.2990  178.9960  145.6610 C   0  0  0  0  0  3  0  0  0  0  0  0
  185.5740  178.1410  143.7870 C   0  0  0  0  0  3  0  0  0  0  0  0
  1  2  1  0  0  0  0
  2 14  1  0  0  0  0
  2  3  2  0  0  0  0
  4  6  1  0  0  0  0
  5  8  1  0  0  0  0
  6 10  2  0  0  0  0
  7  4  1  0  0  0  0
  8 10  1  0  0  0  0
  8 11  2  0  0  0  0
  9  4  2  0  0  0  0
  9  5  1  0  0  0  0
 11  1  1  0  0  0  0
 12 11  1  0  0  0  0
 13  5  2  0  0  0  0
 13 12  1  0  0  0  0
 14 20  1  0  0  0  0
 15 16  1  0  0  0  0
 16 17  1  0  0  0  0
 18 22  1  0  0  0  0
 19 15  1  0  0  0  0
 20 18  1  0  0  0  0
 20 19  1  0  0  0  0
 21 16  1  0  0  0  0
 22 16  1  0  0  0  0
 23 24  1  0  0  0  0
 23  1  1  0  0  0  0
 24 25  1  0  0  0  0
 25 26  1  1  0  0  0
 25 27  1  0  0  0  0
 27 29  1  0  0  0  0
 29 28  1  0  0  0  0
 30 29  2  0  0  0  0
 31 28  1  6  0  0  0
 31 33  1  0  0  0  0
 31 35  1  0  0  0  0
 33 34  1  0  0  0  0
 34 36  1  0  0  0  0
 35 37  1  1  0  0  0
 35 32  1  0  0  0  0
 36 32  1  0  0  0  0
 37 38  1  0  0  0  0
 38 42  1  0  0  0  0
 39 40  1  0  0  0  0
 41 39  2  0  0  0  0
 42 40  2  0  0  0  0
 43 38  2  0  0  0  0
 43 41  1  0  0  0  0
M  END
>  <MODEL>
7

>  <REMARK>
 VINA RESULT:      -8.6      3.347      6.866
  Name = 
  11 active torsions:
  status: ('A' for Active; 'I' for Inactive)
    1  A    between atoms: C_1  and  C_34
    2  A    between atoms: C_1  and  N_35
    3  A    between atoms: C_2  and  C_6
    4  A    between atoms: C_2  and  O_13
    5  A    between atoms: N_3  and  C_4
    6  A    between atoms: C_6  and  C_12
    7  A    between atoms: N_8  and  C_27
    8  A    between atoms: N_8  and  C_30
    9  A    between atoms: C_11  and  C_14
   10  A    between atoms: O_13  and  C_27
   11  A    between atoms: C_14  and  C_41
                            x       y       z     vdW  Elec       q    Type
                         _______ _______ _______ _____ _____    ______ ____

>  <TORSDO>
F 11

$$$$
=
 OpenBabel10262422413D

 43 47  0  0  1  0  0  0  0  0999 V2000
  187.6260  178.3050  141.5160 N   0  0  0  0  0  0  0  0  0  0  0  0
  187.9680  178.1920  140.1210 C   0  0  0  0  0  0  0  0  0  0  0  0
  187.1010  178.4470  139.2400 O   0  0  0  0  0  0  0  0  0  0  0  0
  188.3200  177.3830  146.6380 C   0  0  0  0  0  0  0  0  0  0  0  0
  189.4090  177.4460  144.5070 C   0  0  0  0  0  0  0  0  0  0  0  0
  187.1060  177.7440  146.0130 C   0  0  0  0  0  3  0  0  0  0  0  0
  188.3580  177.1720  148.1080 C   0  0  0  0  0  1  0  0  0  0  0  0
  188.2280  177.7720  143.9000 C   0  0  0  0  0  0  0  0  0  0  0  0
  189.4980  177.2370  145.8810 C   0  0  0  0  0  3  0  0  0  0  0  0
  187.0500  177.9500  144.6240 C   0  0  0  0  0  3  0  0  0  0  0  0
  188.5270  177.9250  142.5650 C   0  0  0  0  0  0  0  0  0  0  0  0
  189.8170  177.7180  142.3840 O   0  0  0  0  0  0  0  0  0  0  0  0
  190.3920  177.4170  143.5390 C   0  0  0  0  0  3  0  0  0  0  0  0
  189.3750  177.8890  139.6920 C   0  0  0  0  0  2  0  0  0  0  0  0
  190.4920  175.0150  137.6070 C   0  0  0  0  0  2  0  0  0  0  0  0
  190.7680  175.7490  136.2920 C   0  0  0  0  0  0  0  0  0  0  0  0
  190.5340  174.7910  135.1440 C   0  0  0  0  0  1  0  0  0  0  0  0
  189.8040  177.8060  137.3960 C   0  0  0  0  0  2  0  0  0  0  0  0
  190.4290  175.9930  138.7810 C   0  0  0  0  0  2  0  0  0  0  0  0
  189.3940  176.9980  138.5410 N   0  0  0  0  0  0  0  0  0  0  0  0
  192.2160  176.2110  136.2430 C   0  0  0  0  0  1  0  0  0  0  0  0
  189.8270  176.9470  136.1300 C   0  0  0  0  0  2  0  0  0  0  0  0
  186.3780  178.9560  141.9050 C   0  0  0  0  0  2  0  0  0  0  0  0
  185.3130  178.0370  141.8460 O   0  0  0  0  0  0  0  0  0  0  0  0
  184.0850  178.7360  141.7910 C   0  0  2  0  0  3  0  0  0  0  0  0
  183.3150  178.6920  143.1060 C   0  0  0  0  0  1  0  0  0  0  0  0
  183.2070  178.3310  140.6060 C   0  0  0  0  0  2  0  0  0  0  0  0
  182.9950  178.7110  138.0980 N   0  0  0  0  0  2  0  0  0  0  0  0
  183.5170  179.1170  139.3650 C   0  0  0  0  0  0  0  0  0  0  0  0
  184.2870  180.1120  139.4170 O   0  0  0  0  0  0  0  0  0  0  0  0
  182.2100  177.4980  137.9130 C   0  0  1  0  0  3  0  0  0  0  0  0
  182.3450  176.1770  135.7000 C   0  0  0  0  0  2  0  0  0  0  0  0
  180.8440  177.8430  137.3150 C   0  0  0  0  0  2  0  0  0  0  0  0
  180.9500  178.3030  135.8550 C   0  0  0  0  0  2  0  0  0  0  0  0
  182.9930  176.4840  137.0530 C   0  0  2  0  0  3  0  0  0  0  0  0
  181.9330  177.4760  135.0140 C   0  0  0  0  0  2  0  0  0  0  0  0
  183.3290  175.2060  137.8250 C   0  0  0  0  0  2  0  0  0  0  0  0
  184.6670  174.6400  137.4690 C   0  0  0  0  0  0  0  0  0  0  0  0
  187.1610  173.5710  136.7850 C   0  0  0  0  0  3  0  0  0  0  0  0
  186.1460  172.7320  137.2530 C   0  0  0  0  0  3  0  0  0  0  0  0
  186.9310  174.9440  136.6580 C   0  0  0  0  0  3  0  0  0  0  0  0
  184.9000  173.2650  137.5950 C   0  0  0  0  0  3  0  0  0  0  0  0
  185.6850  175.4780  137.0010 C   0  0  0  0  0  3  0  0  0  0  0  0
  1 23  1  0  0  0  0
  1 11  1  0  0  0  0
  2  1  1  0  0  0  0
  3  2  2  0  0  0  0
  4  7  1  0  0  0  0
  5  9  1  0  0  0  0
  6  4  1  0  0  0  0
  8  5  1  0  0  0  0
  8 10  1  0  0  0  0
  9  4  2  0  0  0  0
 10  6  2  0  0  0  0
 11  8  2  0  0  0  0
 12 11  1  0  0  0  0
 12 13  1  0  0  0  0
 13  5  2  0  0  0  0
 14  2  1  0  0  0  0
 15 19  1  0  0  0  0
 16 15  1  0  0  0  0
 17 16  1  0  0  0  0
 18 20  1  0  0  0  0
 20 19  1  0  0  0  0
 20 14  1  0  0  0  0
 21 16  1  0  0  0  0
 22 16  1  0  0  0  0
 22 18  1  0  0  0  0
 24 23  1  0  0  0  0
 25 24  1  0  0  0  0
 25 26  1  1  0  0  0
 27 25  1  0  0  0  0
 28 29  1  0  0  0  0
 29 30  2  0  0  0  0
 29 27  1  0  0  0  0
 31 28  1  6  0  0  0
 32 35  1  0  0  0  0
 33 31  1  0  0  0  0
 34 33  1  0  0  0  0
 35 37  1  1  0  0  0
 35 31  1  0  0  0  0
 36 32  1  0  0  0  0
 36 34  1  0  0  0  0
 38 42  1  0  0  0  0
 38 37  1  0  0  0  0
 39 40  1  0  0  0  0
 40 42  2  0  0  0  0
 41 39  2  0  0  0  0
 41 43  1  0  0  0  0
 43 38  2  0  0  0  0
M  END
>  <MODEL>
8

>  <REMARK>
 VINA RESULT:      -8.6      3.489      8.525
  Name = 
  11 active torsions:
  status: ('A' for Active; 'I' for Inactive)
    1  A    between atoms: C_1  and  C_34
    2  A    between atoms: C_1  and  N_35
    3  A    between atoms: C_2  and  C_6
    4  A    between atoms: C_2  and  O_13
    5  A    between atoms: N_3  and  C_4
    6  A    between atoms: C_6  and  C_12
    7  A    between atoms: N_8  and  C_27
    8  A    between atoms: N_8  and  C_30
    9  A    between atoms: C_11  and  C_14
   10  A    between atoms: O_13  and  C_27
   11  A    between atoms: C_14  and  C_41
                            x       y       z     vdW  Elec       q    Type
                         _______ _______ _______ _____ _____    ______ ____

>  <TORSDO>
F 11

$$$$
=
 OpenBabel10262422413D

 43 47  0  0  1  0  0  0  0  0999 V2000
  184.1320  179.0380  140.7770 N   0  0  0  0  0  0  0  0  0  0  0  0
  182.9160  179.0810  140.0050 C   0  0  0  0  0  0  0  0  0  0  0  0
  182.9710  179.2940  138.7620 O   0  0  0  0  0  0  0  0  0  0  0  0
  186.8540  177.8680  145.1130 C   0  0  0  0  0  0  0  0  0  0  0  0
  184.7100  178.5360  144.2810 C   0  0  0  0  0  0  0  0  0  0  0  0
  187.3540  177.8770  143.7920 C   0  0  0  0  0  3  0  0  0  0  0  0
  187.7510  177.4980  146.2370 C   0  0  0  0  0  1  0  0  0  0  0  0
  185.2010  178.5650  143.0060 C   0  0  0  0  0  0  0  0  0  0  0  0
  185.5090  178.1940  145.3700 C   0  0  0  0  0  3  0  0  0  0  0  0
  186.5200  178.2240  142.7140 C   0  0  0  0  0  3  0  0  0  0  0  0
  184.1350  178.9100  142.2060 C   0  0  0  0  0  0  0  0  0  0  0  0
  183.0620  179.0620  142.9580 O   0  0  0  0  0  0  0  0  0  0  0  0
  183.3670  178.8500  144.2290 C   0  0  0  0  0  3  0  0  0  0  0  0
  181.5900  178.7620  140.6320 C   0  0  0  0  0  2  0  0  0  0  0  0
  178.9310  176.2480  139.9550 C   0  0  0  0  0  2  0  0  0  0  0  0
  179.7890  174.9820  139.8960 C   0  0  0  0  0  0  0  0  0  0  0  0
  179.1260  173.9900  138.9640 C   0  0  0  0  0  1  0  0  0  0  0  0
  181.7980  176.4990  140.0850 C   0  0  0  0  0  2  0  0  0  0  0  0
  179.6790  177.3890  140.6440 C   0  0  0  0  0  2  0  0  0  0  0  0
  180.9310  177.6650  139.9390 N   0  0  0  0  0  0  0  0  0  0  0  0
  179.8870  174.3500  141.2760 C   0  0  0  0  0  1  0  0  0  0  0  0
  181.1880  175.2980  139.3590 C   0  0  0  0  0  2  0  0  0  0  0  0
  185.4220  178.9780  140.0950 C   0  0  0  0  0  2  0  0  0  0  0  0
  185.3650  178.0560  139.0320 O   0  0  0  0  0  0  0  0  0  0  0  0
  186.4740  178.2500  138.1760 C   0  0  2  0  0  3  0  0  0  0  0  0
  186.4180  177.3850  136.9220 C   0  0  0  0  0  1  0  0  0  0  0  0
  187.8210  178.1270  138.8900 C   0  0  0  0  0  2  0  0  0  0  0  0
  190.2130  177.9430  138.0390 N   0  0  0  0  0  2  0  0  0  0  0  0
  188.9620  178.6350  138.0570 C   0  0  0  0  0  0  0  0  0  0  0  0
  188.8480  179.7070  137.4070 O   0  0  0  0  0  0  0  0  0  0  0  0
  190.4870  176.7730  138.8630 C   0  0  1  0  0  3  0  0  0  0  0  0
  192.4500  176.7830  140.5370 C   0  0  0  0  0  2  0  0  0  0  0  0
  191.4580  175.8380  138.1380 C   0  0  0  0  0  2  0  0  0  0  0  0
  192.8730  176.4250  138.0510 C   0  0  0  0  0  2  0  0  0  0  0  0
  191.0080  177.2080  140.2480 C   0  0  2  0  0  3  0  0  0  0  0  0
  193.3390  177.1120  139.3420 C   0  0  0  0  0  2  0  0  0  0  0  0
  190.0590  176.8040  141.3780 C   0  0  0  0  0  2  0  0  0  0  0  0
  190.5800  177.1530  142.7360 C   0  0  0  0  0  0  0  0  0  0  0  0
  191.5750  177.7990  145.2710 C   0  0  0  0  0  3  0  0  0  0  0  0
  191.3640  176.4620  144.9230 C   0  0  0  0  0  3  0  0  0  0  0  0
  191.2880  178.8150  144.3530 C   0  0  0  0  0  3  0  0  0  0  0  0
  190.8670  176.1380  143.6570 C   0  0  0  0  0  3  0  0  0  0  0  0
  190.7910  178.4920  143.0870 C   0  0  0  0  0  3  0  0  0  0  0  0
  1 11  1  0  0  0  0
  2 14  1  0  0  0  0
  2  1  1  0  0  0  0
  3  2  2  0  0  0  0
  4  9  2  0  0  0  0
  4  7  1  0  0  0  0
  5  9  1  0  0  0  0
  6  4  1  0  0  0  0
  8  5  1  0  0  0  0
 10  8  1  0  0  0  0
 10  6  2  0  0  0  0
 11 12  1  0  0  0  0
 11  8  2  0  0  0  0
 12 13  1  0  0  0  0
 13  5  2  0  0  0  0
 15 19  1  0  0  0  0
 16 15  1  0  0  0  0
 16 21  1  0  0  0  0
 17 16  1  0  0  0  0
 20 18  1  0  0  0  0
 20 14  1  0  0  0  0
 20 19  1  0  0  0  0
 22 16  1  0  0  0  0
 22 18  1  0  0  0  0
 23  1  1  0  0  0  0
 24 23  1  0  0  0  0
 25 26  1  6  0  0  0
 25 27  1  0  0  0  0
 25 24  1  0  0  0  0
 28 29  1  0  0  0  0
 29 27  1  0  0  0  0
 30 29  2  0  0  0  0
 31 28  1  6  0  0  0
 31 35  1  0  0  0  0
 33 31  1  0  0  0  0
 34 33  1  0  0  0  0
 34 36  1  0  0  0  0
 35 32  1  0  0  0  0
 35 37  1  1  0  0  0
 36 32  1  0  0  0  0
 37 38  1  0  0  0  0
 38 43  2  0  0  0  0
 38 42  1  0  0  0  0
 40 39  1  0  0  0  0
 41 39  2  0  0  0  0
 42 40  2  0  0  0  0
 43 41  1  0  0  0  0
M  END
>  <MODEL>
9

>  <REMARK>
 VINA RESULT:      -8.5      4.132      9.908
  Name = 
  11 active torsions:
  status: ('A' for Active; 'I' for Inactive)
    1  A    between atoms: C_1  and  C_34
    2  A    between atoms: C_1  and  N_35
    3  A    between atoms: C_2  and  C_6
    4  A    between atoms: C_2  and  O_13
    5  A    between atoms: N_3  and  C_4
    6  A    between atoms: C_6  and  C_12
    7  A    between atoms: N_8  and  C_27
    8  A    between atoms: N_8  and  C_30
    9  A    between atoms: C_11  and  C_14
   10  A    between atoms: O_13  and  C_27
   11  A    between atoms: C_14  and  C_41
                            x       y       z     vdW  Elec       q    Type
                         _______ _______ _______ _____ _____    ______ ____

>  <TORSDO>
F 11

$$$$
