=
 OpenBabel10262423133D

 34 38  0  0  1  0  0  0  0  0999 V2000
  188.8250  176.8020  144.5810 C   0  0  1  0  0  3  0  0  0  0  0  0
  188.4670  176.6680  147.6520 O   0  0  0  0  0  0  0  0  0  0  0  0
  191.6810  177.1500  144.3880 C   0  0  0  0  0  3  0  0  0  0  0  0
  189.5110  177.0490  143.3010 N   0  0  0  0  0  0  0  0  0  0  0  0
  191.0900  177.1830  145.5760 C   0  0  0  0  0  0  0  0  0  0  0  0
  191.7350  176.9690  146.8270 N   0  0  0  0  0  0  0  0  0  0  0  0
  190.8080  177.1790  143.1930 C   0  0  0  0  0  0  0  0  0  0  0  0
  189.5620  176.8820  147.0690 C   0  0  0  0  0  0  0  0  0  0  0  0
  189.6810  177.2070  145.6930 N   0  0  0  0  0  0  0  0  0  0  0  0
  190.8330  176.7920  147.7090 N   0  0  0  0  0  0  0  0  0  0  0  0
  186.0380  178.7370  146.2330 C   0  0  0  0  0  3  0  0  0  0  0  0
  184.7830  178.1420  145.6910 C   0  0  0  0  0  2  0  0  0  0  0  0
  184.5860  178.4930  144.2540 C   0  0  0  0  0  0  0  0  0  0  0  0
  185.4440  178.1080  143.3070 C   0  0  0  0  0  3  0  0  0  0  0  0
  187.2460  178.4240  145.7670 C   0  0  0  0  0  3  0  0  0  0  0  0
  186.7390  177.4360  143.5340 C   0  0  0  0  0  3  0  0  0  0  0  0
  187.5190  177.5260  144.6210 C   0  0  0  0  0  0  0  0  0  0  0  0
  181.9960  178.5610  144.5210 O   0  0  0  0  0  1  0  0  0  0  0  0
  182.8730  178.8950  142.1540 O   0  0  0  0  0  1  0  0  0  0  0  0
  183.0900  179.3250  143.7870 S   0  0  0  0  0  3  0  0  0  0  0  0
  191.4230  177.3400  141.8400 C   0  0  0  0  0  2  0  0  0  0  0  0
  190.3970  176.0770  138.3310 C   0  0  0  0  0  2  0  0  0  0  0  0
  189.3500  177.5190  140.5780 O   0  0  0  0  0  0  0  0  0  0  0  0
  187.0970  177.4410  137.0190 C   0  0  0  0  0  0  0  0  0  0  0  0
  188.3380  176.7860  137.0900 C   0  0  0  0  0  3  0  0  0  0  0  0
  189.0920  176.8140  138.2650 C   0  0  0  0  0  0  0  0  0  0  0  0
  187.3680  178.1390  139.3370 C   0  0  0  0  0  3  0  0  0  0  0  0
  188.5990  177.4830  139.3990 C   0  0  0  0  0  0  0  0  0  0  0  0
  186.6220  178.1180  138.1560 C   0  0  0  0  0  3  0  0  0  0  0  0
  190.5510  176.7590  140.7300 C   0  0  1  0  0  3  0  0  0  0  0  0
  191.3120  176.6640  139.4060 C   0  0  0  0  0  2  0  0  0  0  0  0
  186.3240  177.4160  135.8050 N   0  0  0  0  0  0  0  0  0  0  0  0
  186.7920  178.0820  134.5990 C   0  0  0  0  0  1  0  0  0  0  0  0
  185.0470  176.7230  135.7380 C   0  0  0  0  0  1  0  0  0  0  0  0
  1 17  1  6  0  0  0
  1  9  1  0  0  0  0
  3  5  2  0  0  0  0
  4  1  1  0  0  0  0
  5  9  1  0  0  0  0
  5  6  1  0  0  0  0
  6 10  2  0  0  0  0
  7  4  2  0  0  0  0
  7  3  1  0  0  0  0
  8  2  2  0  0  0  0
  8 10  1  0  0  0  0
  9  8  1  0  0  0  0
 12 11  1  0  0  0  0
 13 12  1  0  0  0  0
 14 16  1  0  0  0  0
 14 13  2  0  0  0  0
 15 11  2  0  0  0  0
 16 17  2  0  0  0  0
 17 15  1  0  0  0  0
 19 20  1  0  0  0  0
 20 13  1  0  0  0  0
 20 18  1  0  0  0  0
 21  7  1  0  0  0  0
 22 31  1  0  0  0  0
 23 30  1  0  0  0  0
 24 25  2  0  0  0  0
 24 29  1  0  0  0  0
 25 26  1  0  0  0  0
 26 22  1  0  0  0  0
 26 28  2  0  0  0  0
 27 28  1  0  0  0  0
 28 23  1  0  0  0  0
 29 27  2  0  0  0  0
 30 21  1  1  0  0  0
 31 30  1  0  0  0  0
 32 24  1  0  0  0  0
 33 32  1  0  0  0  0
 34 32  1  0  0  0  0
M  END
>  <MODEL>
1

>  <REMARK>
 VINA RESULT:      -9.9      0.000      0.000
  Name = 
  5 active torsions:
  status: ('A' for Active; 'I' for Inactive)
    1  A    between atoms: C_1  and  C_34
    2  A    between atoms: C_7  and  N_11
    3  A    between atoms: C_17  and  C_18
    4  A    between atoms: C_18  and  C_30
    5  A    between atoms: S_24  and  C_25
                            x       y       z     vdW  Elec       q    Type
                         _______ _______ _______ _____ _____    ______ ____

>  <TORSDO>
F 5

$$$$
=
 OpenBabel10262423133D

 34 38  0  0  1  0  0  0  0  0999 V2000
  189.1430  178.2440  144.3300 C   0  0  1  0  0  3  0  0  0  0  0  0
  192.1600  177.5570  144.2870 O   0  0  0  0  0  0  0  0  0  0  0  0
  188.4080  177.2750  146.9430 C   0  0  0  0  0  3  0  0  0  0  0  0
  187.7500  178.2220  144.8060 N   0  0  0  0  0  0  0  0  0  0  0  0
  189.6260  177.0410  146.4710 C   0  0  0  0  0  0  0  0  0  0  0  0
  190.7690  176.7140  147.2540 N   0  0  0  0  0  0  0  0  0  0  0  0
  187.4030  177.8130  145.9990 C   0  0  0  0  0  0  0  0  0  0  0  0
  191.3730  177.2590  145.2230 C   0  0  0  0  0  0  0  0  0  0  0  0
  189.9590  177.3330  145.1280 N   0  0  0  0  0  0  0  0  0  0  0  0
  191.8000  176.8410  146.5180 N   0  0  0  0  0  0  0  0  0  0  0  0
  190.3880  176.3160  141.3350 C   0  0  0  0  0  3  0  0  0  0  0  0
  190.5830  177.3420  140.2700 C   0  0  0  0  0  2  0  0  0  0  0  0
  189.2790  177.8680  139.7720 C   0  0  0  0  0  0  0  0  0  0  0  0
  188.4310  178.5260  140.5650 C   0  0  0  0  0  3  0  0  0  0  0  0
  189.8050  176.5860  142.5010 C   0  0  0  0  0  3  0  0  0  0  0  0
  188.5700  178.7000  142.0240 C   0  0  0  0  0  3  0  0  0  0  0  0
  189.2050  177.8860  142.8800 C   0  0  0  0  0  0  0  0  0  0  0  0
  190.2140  177.1980  137.4350 O   0  0  0  0  0  1  0  0  0  0  0  0
  188.8530  179.3490  137.5050 O   0  0  0  0  0  1  0  0  0  0  0  0
  188.9230  177.7330  138.0390 S   0  0  0  0  0  3  0  0  0  0  0  0
  185.9740  177.9090  146.4260 C   0  0  0  0  0  2  0  0  0  0  0  0
  182.8000  179.2790  144.6910 C   0  0  0  0  0  2  0  0  0  0  0  0
  185.3760  178.1740  144.0820 O   0  0  0  0  0  0  0  0  0  0  0  0
  182.6140  178.6700  140.9400 C   0  0  0  0  0  0  0  0  0  0  0  0
  182.2670  179.0250  142.2540 C   0  0  0  0  0  3  0  0  0  0  0  0
  183.1760  178.8580  143.3010 C   0  0  0  0  0  0  0  0  0  0  0  0
  184.8130  177.9900  141.7360 C   0  0  0  0  0  3  0  0  0  0  0  0
  184.4610  178.3500  143.0390 C   0  0  0  0  0  0  0  0  0  0  0  0
  183.8970  178.1490  140.6940 C   0  0  0  0  0  3  0  0  0  0  0  0
  185.1090  178.6450  145.4050 C   0  0  1  0  0  3  0  0  0  0  0  0
  183.6200  178.5280  145.7390 C   0  0  0  0  0  2  0  0  0  0  0  0
  181.6730  178.8380  139.8630 N   0  0  0  0  0  0  0  0  0  0  0  0
  180.2430  178.6740  140.0790 C   0  0  0  0  0  1  0  0  0  0  0  0
  182.1160  179.1790  138.5210 C   0  0  0  0  0  1  0  0  0  0  0  0
  1 17  1  6  0  0  0
  1  4  1  0  0  0  0
  1  9  1  0  0  0  0
  2  8  2  0  0  0  0
  4  7  2  0  0  0  0
  5  3  2  0  0  0  0
  5  6  1  0  0  0  0
  7 21  1  0  0  0  0
  7  3  1  0  0  0  0
  8 10  1  0  0  0  0
  9  8  1  0  0  0  0
  9  5  1  0  0  0  0
 10  6  2  0  0  0  0
 11 15  2  0  0  0  0
 12 11  1  0  0  0  0
 13 12  1  0  0  0  0
 13 14  2  0  0  0  0
 14 16  1  0  0  0  0
 15 17  1  0  0  0  0
 16 17  2  0  0  0  0
 18 20  1  0  0  0  0
 19 20  1  0  0  0  0
 20 13  1  0  0  0  0
 22 31  1  0  0  0  0
 23 30  1  0  0  0  0
 24 25  1  0  0  0  0
 25 26  2  0  0  0  0
 26 22  1  0  0  0  0
 27 28  2  0  0  0  0
 28 26  1  0  0  0  0
 28 23  1  0  0  0  0
 29 24  2  0  0  0  0
 29 27  1  0  0  0  0
 30 31  1  0  0  0  0
 30 21  1  1  0  0  0
 32 33  1  0  0  0  0
 32 24  1  0  0  0  0
 34 32  1  0  0  0  0
M  END
>  <MODEL>
2

>  <REMARK>
 VINA RESULT:      -9.9      2.959      6.055
  Name = 
  5 active torsions:
  status: ('A' for Active; 'I' for Inactive)
    1  A    between atoms: C_1  and  C_34
    2  A    between atoms: C_7  and  N_11
    3  A    between atoms: C_17  and  C_18
    4  A    between atoms: C_18  and  C_30
    5  A    between atoms: S_24  and  C_25
                            x       y       z     vdW  Elec       q    Type
                         _______ _______ _______ _____ _____    ______ ____

>  <TORSDO>
F 5

$$$$
=
 OpenBabel10262423133D

 34 38  0  0  1  0  0  0  0  0999 V2000
  185.1880  178.6040  138.1050 C   0  0  1  0  0  3  0  0  0  0  0  0
  183.1210  177.3440  136.1780 O   0  0  0  0  0  0  0  0  0  0  0  0
  187.4580  176.8840  137.6590 C   0  0  0  0  0  3  0  0  0  0  0  0
  186.4290  178.7060  138.8920 N   0  0  0  0  0  0  0  0  0  0  0  0
  186.2880  176.5910  137.1050 C   0  0  0  0  0  0  0  0  0  0  0  0
  186.0960  175.7430  135.9770 N   0  0  0  0  0  0  0  0  0  0  0  0
  187.4780  177.9530  138.6830 C   0  0  0  0  0  0  0  0  0  0  0  0
  184.2760  176.8870  136.3860 C   0  0  0  0  0  0  0  0  0  0  0  0
  185.1150  177.3000  137.4520 N   0  0  0  0  0  0  0  0  0  0  0  0
  184.9070  175.9170  135.5530 N   0  0  0  0  0  0  0  0  0  0  0  0
  182.9230  177.9210  141.0450 C   0  0  0  0  0  3  0  0  0  0  0  0
  181.5400  178.0130  140.4950 C   0  0  0  0  0  2  0  0  0  0  0  0
  181.1780  179.4190  140.1530 C   0  0  0  0  0  0  0  0  0  0  0  0
  181.8360  180.1130  139.2220 C   0  0  0  0  0  3  0  0  0  0  0  0
  184.0040  178.2580  140.3430 C   0  0  0  0  0  3  0  0  0  0  0  0
  183.0610  179.6770  138.5220 C   0  0  0  0  0  3  0  0  0  0  0  0
  183.9970  178.8330  138.9780 C   0  0  0  0  0  0  0  0  0  0  0  0
  179.6120  181.4970  140.2580 O   0  0  0  0  0  1  0  0  0  0  0  0
  180.2390  180.4720  142.5020 O   0  0  0  0  0  1  0  0  0  0  0  0
  179.7390  180.1270  140.9120 S   0  0  0  0  0  3  0  0  0  0  0  0
  188.7240  178.1870  139.4740 C   0  0  0  0  0  2  0  0  0  0  0  0
  187.6180  177.4650  143.1090 C   0  0  0  0  0  2  0  0  0  0  0  0
  189.9650  177.5370  141.4640 O   0  0  0  0  0  0  0  0  0  0  0  0
  190.4480  177.1390  145.6300 C   0  0  0  0  0  0  0  0  0  0  0  0
  189.1650  177.2490  145.0700 C   0  0  0  0  0  3  0  0  0  0  0  0
  188.9980  177.3870  143.6900 C   0  0  0  0  0  0  0  0  0  0  0  0
  191.4030  177.2890  143.3940 C   0  0  0  0  0  3  0  0  0  0  0  0
  190.1230  177.3940  142.8460 C   0  0  0  0  0  0  0  0  0  0  0  0
  191.5650  177.1620  144.7760 C   0  0  0  0  0  3  0  0  0  0  0  0
  188.6760  177.5200  140.8470 C   0  0  1  0  0  3  0  0  0  0  0  0
  187.6260  178.1670  141.7520 C   0  0  0  0  0  2  0  0  0  0  0  0
  190.6180  177.0020  147.0530 N   0  0  0  0  0  0  0  0  0  0  0  0
  191.7670  176.3060  147.6120 C   0  0  0  0  0  1  0  0  0  0  0  0
  189.6470  177.5560  147.9850 C   0  0  0  0  0  1  0  0  0  0  0  0
  1  4  1  0  0  0  0
  1 17  1  1  0  0  0
  2  8  2  0  0  0  0
  3  7  1  0  0  0  0
  5  9  1  0  0  0  0
  5  3  2  0  0  0  0
  6  5  1  0  0  0  0
  7  4  2  0  0  0  0
  7 21  1  0  0  0  0
  8  9  1  0  0  0  0
  9  1  1  0  0  0  0
 10  6  2  0  0  0  0
 10  8  1  0  0  0  0
 12 11  1  0  0  0  0
 13 12  1  0  0  0  0
 13 20  1  0  0  0  0
 14 13  2  0  0  0  0
 15 11  2  0  0  0  0
 16 17  2  0  0  0  0
 16 14  1  0  0  0  0
 17 15  1  0  0  0  0
 18 20  1  0  0  0  0
 20 19  1  0  0  0  0
 22 26  1  0  0  0  0
 23 28  1  0  0  0  0
 24 32  1  0  0  0  0
 25 24  1  0  0  0  0
 26 25  2  0  0  0  0
 27 29  1  0  0  0  0
 28 27  2  0  0  0  0
 28 26  1  0  0  0  0
 29 24  2  0  0  0  0
 30 21  1  6  0  0  0
 30 23  1  0  0  0  0
 30 31  1  0  0  0  0
 31 22  1  0  0  0  0
 32 33  1  0  0  0  0
 32 34  1  0  0  0  0
M  END
>  <MODEL>
3

>  <REMARK>
 VINA RESULT:      -9.5      2.784      8.080
  Name = 
  5 active torsions:
  status: ('A' for Active; 'I' for Inactive)
    1  A    between atoms: C_1  and  C_34
    2  A    between atoms: C_7  and  N_11
    3  A    between atoms: C_17  and  C_18
    4  A    between atoms: C_18  and  C_30
    5  A    between atoms: S_24  and  C_25
                            x       y       z     vdW  Elec       q    Type
                         _______ _______ _______ _____ _____    ______ ____

>  <TORSDO>
F 5

$$$$
=
 OpenBabel10262423133D

 34 38  0  0  1  0  0  0  0  0999 V2000
  190.6250  175.1580  137.3250 C   0  0  1  0  0  3  0  0  0  0  0  0
  190.1670  173.4620  134.7780 O   0  0  0  0  0  0  0  0  0  0  0  0
  188.3370  176.9080  137.2260 C   0  0  0  0  0  3  0  0  0  0  0  0
  190.4330  176.2690  138.2720 N   0  0  0  0  0  0  0  0  0  0  0  0
  188.5890  176.0920  136.2090 C   0  0  0  0  0  0  0  0  0  0  0  0
  187.6450  175.6720  135.2300 N   0  0  0  0  0  0  0  0  0  0  0  0
  189.3860  177.0530  138.2590 C   0  0  0  0  0  0  0  0  0  0  0  0
  189.4420  174.4280  135.1330 C   0  0  0  0  0  0  0  0  0  0  0  0
  189.7990  175.3630  136.1390 N   0  0  0  0  0  0  0  0  0  0  0  0
  188.1480  174.6900  134.5940 N   0  0  0  0  0  0  0  0  0  0  0  0
  193.9650  173.4110  137.1380 C   0  0  0  0  0  3  0  0  0  0  0  0
  194.9680  174.4600  137.4790 C   0  0  0  0  0  2  0  0  0  0  0  0
  195.0930  175.4730  136.3910 C   0  0  0  0  0  0  0  0  0  0  0  0
  194.0720  176.2500  136.0250 C   0  0  0  0  0  3  0  0  0  0  0  0
  192.6750  173.6800  136.9430 C   0  0  0  0  0  3  0  0  0  0  0  0
  192.6820  176.1360  136.5090 C   0  0  0  0  0  3  0  0  0  0  0  0
  192.0680  175.0310  136.9560 C   0  0  0  0  0  0  0  0  0  0  0  0
  197.6550  175.6140  136.8410 O   0  0  0  0  0  1  0  0  0  0  0  0
  196.7040  177.4020  135.2980 O   0  0  0  0  0  1  0  0  0  0  0  0
  196.6920  175.7400  135.6680 S   0  0  0  0  0  3  0  0  0  0  0  0
  189.2350  178.1000  139.3150 C   0  0  0  0  0  2  0  0  0  0  0  0
  187.8140  177.6520  142.8840 C   0  0  0  0  0  2  0  0  0  0  0  0
  190.2630  177.4150  141.4110 O   0  0  0  0  0  0  0  0  0  0  0  0
  190.4170  177.1500  145.6130 C   0  0  0  0  0  0  0  0  0  0  0  0
  189.1930  177.3650  144.9580 C   0  0  0  0  0  3  0  0  0  0  0  0
  189.1360  177.4600  143.5660 C   0  0  0  0  0  0  0  0  0  0  0  0
  191.5320  177.1060  143.4480 C   0  0  0  0  0  3  0  0  0  0  0  0
  190.3110  177.3160  142.8050 C   0  0  0  0  0  0  0  0  0  0  0  0
  191.5850  177.0230  144.8410 C   0  0  0  0  0  3  0  0  0  0  0  0
  189.0240  177.5020  140.7040 C   0  0  1  0  0  3  0  0  0  0  0  0
  187.9870  178.2900  141.5070 C   0  0  0  0  0  2  0  0  0  0  0  0
  190.4740  177.0580  147.0490 N   0  0  0  0  0  0  0  0  0  0  0  0
  189.3960  177.5720  147.8800 C   0  0  0  0  0  1  0  0  0  0  0  0
  191.6090  176.4470  147.7210 C   0  0  0  0  0  1  0  0  0  0  0  0
  1 17  1  6  0  0  0
  1  4  1  0  0  0  0
  2  8  2  0  0  0  0
  3  7  1  0  0  0  0
  5  3  2  0  0  0  0
  6  5  1  0  0  0  0
  7  4  2  0  0  0  0
  7 21  1  0  0  0  0
  8  9  1  0  0  0  0
  9  5  1  0  0  0  0
  9  1  1  0  0  0  0
 10  8  1  0  0  0  0
 10  6  2  0  0  0  0
 11 12  1  0  0  0  0
 13 12  1  0  0  0  0
 14 13  2  0  0  0  0
 14 16  1  0  0  0  0
 15 17  1  0  0  0  0
 15 11  2  0  0  0  0
 16 17  2  0  0  0  0
 19 20  1  0  0  0  0
 20 13  1  0  0  0  0
 20 18  1  0  0  0  0
 22 26  1  0  0  0  0
 23 28  1  0  0  0  0
 24 32  1  0  0  0  0
 25 24  1  0  0  0  0
 26 25  2  0  0  0  0
 27 29  1  0  0  0  0
 28 27  2  0  0  0  0
 28 26  1  0  0  0  0
 29 24  2  0  0  0  0
 30 21  1  6  0  0  0
 30 23  1  0  0  0  0
 30 31  1  0  0  0  0
 31 22  1  0  0  0  0
 32 34  1  0  0  0  0
 32 33  1  0  0  0  0
M  END
>  <MODEL>
4

>  <REMARK>
 VINA RESULT:      -9.3      4.507     10.422
  Name = 
  5 active torsions:
  status: ('A' for Active; 'I' for Inactive)
    1  A    between atoms: C_1  and  C_34
    2  A    between atoms: C_7  and  N_11
    3  A    between atoms: C_17  and  C_18
    4  A    between atoms: C_18  and  C_30
    5  A    between atoms: S_24  and  C_25
                            x       y       z     vdW  Elec       q    Type
                         _______ _______ _______ _____ _____    ______ ____

>  <TORSDO>
F 5

$$$$
=
 OpenBabel10262423133D

 34 38  0  0  1  0  0  0  0  0999 V2000
  181.9340  178.0890  140.9280 C   0  0  1  0  0  3  0  0  0  0  0  0
  178.9310  177.6800  141.5530 O   0  0  0  0  0  0  0  0  0  0  0  0
  182.9210  178.8760  143.5190 C   0  0  0  0  0  3  0  0  0  0  0  0
  183.3220  178.5280  141.1490 N   0  0  0  0  0  0  0  0  0  0  0  0
  181.6150  178.7340  143.3250 C   0  0  0  0  0  0  0  0  0  0  0  0
  180.6440  178.5290  144.3450 N   0  0  0  0  0  0  0  0  0  0  0  0
  183.7930  178.8600  142.3240 C   0  0  0  0  0  0  0  0  0  0  0  0
  179.7830  178.0990  142.3800 C   0  0  0  0  0  0  0  0  0  0  0  0
  181.0850  178.5370  142.0290 N   0  0  0  0  0  0  0  0  0  0  0  0
  179.5620  178.1550  143.7880 N   0  0  0  0  0  0  0  0  0  0  0  0
  180.9080  177.8010  137.3080 C   0  0  0  0  0  3  0  0  0  0  0  0
  181.4930  179.0010  136.6450 C   0  0  0  0  0  2  0  0  0  0  0  0
  180.7940  180.2520  137.0600 C   0  0  0  0  0  0  0  0  0  0  0  0
  180.7900  180.6750  138.3260 C   0  0  0  0  0  3  0  0  0  0  0  0
  180.9190  177.6260  138.6280 C   0  0  0  0  0  3  0  0  0  0  0  0
  181.3210  179.9330  139.4870 C   0  0  0  0  0  3  0  0  0  0  0  0
  181.4270  178.6030  139.6190 C   0  0  0  0  0  0  0  0  0  0  0  0
  180.9840  181.0760  134.5960 O   0  0  0  0  0  1  0  0  0  0  0  0
  180.4030  182.8600  136.3170 O   0  0  0  0  0  1  0  0  0  0  0  0
  180.0720  181.2720  135.8000 S   0  0  0  0  0  3  0  0  0  0  0  0
  185.2400  179.2100  142.4670 C   0  0  0  0  0  2  0  0  0  0  0  0
  186.5400  177.6610  145.7630 C   0  0  0  0  0  2  0  0  0  0  0  0
  187.3680  178.1970  143.0710 O   0  0  0  0  0  0  0  0  0  0  0  0
  190.2710  176.9190  145.8440 C   0  0  0  0  0  0  0  0  0  0  0  0
  188.9350  177.0910  146.2410 C   0  0  0  0  0  3  0  0  0  0  0  0
  187.9690  177.5200  145.3280 C   0  0  0  0  0  0  0  0  0  0  0  0
  189.6550  177.5980  143.5870 C   0  0  0  0  0  3  0  0  0  0  0  0
  188.3280  177.7630  143.9900 C   0  0  0  0  0  0  0  0  0  0  0  0
  190.6190  177.1790  144.5060 C   0  0  0  0  0  3  0  0  0  0  0  0
  185.9800  178.2570  143.4030 C   0  0  1  0  0  3  0  0  0  0  0  0
  185.7820  178.6420  144.8710 C   0  0  0  0  0  2  0  0  0  0  0  0
  191.2660  176.4820  146.7880 N   0  0  0  0  0  0  0  0  0  0  0  0
  192.1810  175.3960  146.4710 C   0  0  0  0  0  1  0  0  0  0  0  0
  191.3940  177.1110  148.0930 C   0  0  0  0  0  1  0  0  0  0  0  0
  1 17  1  6  0  0  0
  1  4  1  0  0  0  0
  1  9  1  0  0  0  0
  2  8  2  0  0  0  0
  4  7  2  0  0  0  0
  5  3  2  0  0  0  0
  5  6  1  0  0  0  0
  7 21  1  0  0  0  0
  7  3  1  0  0  0  0
  8 10  1  0  0  0  0
  9  8  1  0  0  0  0
  9  5  1  0  0  0  0
 10  6  2  0  0  0  0
 11 15  2  0  0  0  0
 12 13  1  0  0  0  0
 12 11  1  0  0  0  0
 13 14  2  0  0  0  0
 14 16  1  0  0  0  0
 15 17  1  0  0  0  0
 16 17  2  0  0  0  0
 18 20  1  0  0  0  0
 20 19  1  0  0  0  0
 20 13  1  0  0  0  0
 23 30  1  0  0  0  0
 23 28  1  0  0  0  0
 24 25  1  0  0  0  0
 24 32  1  0  0  0  0
 26 22  1  0  0  0  0
 26 25  2  0  0  0  0
 27 28  2  0  0  0  0
 27 29  1  0  0  0  0
 28 26  1  0  0  0  0
 29 24  2  0  0  0  0
 30 21  1  6  0  0  0
 30 31  1  0  0  0  0
 31 22  1  0  0  0  0
 32 34  1  0  0  0  0
 33 32  1  0  0  0  0
M  END
>  <MODEL>
5

>  <REMARK>
 VINA RESULT:      -9.2      4.849      9.045
  Name = 
  5 active torsions:
  status: ('A' for Active; 'I' for Inactive)
    1  A    between atoms: C_1  and  C_34
    2  A    between atoms: C_7  and  N_11
    3  A    between atoms: C_17  and  C_18
    4  A    between atoms: C_18  and  C_30
    5  A    between atoms: S_24  and  C_25
                            x       y       z     vdW  Elec       q    Type
                         _______ _______ _______ _____ _____    ______ ____

>  <TORSDO>
F 5

$$$$
=
 OpenBabel10262423133D

 34 38  0  0  1  0  0  0  0  0999 V2000
  184.0200  178.3970  139.8480 C   0  0  1  0  0  3  0  0  0  0  0  0
  181.4490  176.7650  140.4000 O   0  0  0  0  0  0  0  0  0  0  0  0
  184.9510  177.1340  137.4300 C   0  0  0  0  0  3  0  0  0  0  0  0
  185.3100  178.7320  139.2230 N   0  0  0  0  0  0  0  0  0  0  0  0
  183.9150  176.6240  138.0850 C   0  0  0  0  0  0  0  0  0  0  0  0
  182.9340  175.7520  137.5330 N   0  0  0  0  0  0  0  0  0  0  0  0
  185.7340  178.1900  138.1100 C   0  0  0  0  0  0  0  0  0  0  0  0
  182.2540  176.5340  139.4600 C   0  0  0  0  0  0  0  0  0  0  0  0
  183.5520  177.1010  139.3660 N   0  0  0  0  0  0  0  0  0  0  0  0
  181.9540  175.6980  138.3440 N   0  0  0  0  0  0  0  0  0  0  0  0
  182.9180  179.1840  143.3700 C   0  0  0  0  0  3  0  0  0  0  0  0
  184.1510  179.6570  144.0630 C   0  0  0  0  0  2  0  0  0  0  0  0
  185.1140  178.5410  144.2880 C   0  0  0  0  0  0  0  0  0  0  0  0
  185.6690  177.8680  143.2770 C   0  0  0  0  0  3  0  0  0  0  0  0
  182.9320  178.6600  142.1450 C   0  0  0  0  0  3  0  0  0  0  0  0
  185.3220  178.0120  141.8500 C   0  0  0  0  0  3  0  0  0  0  0  0
  184.1460  178.4000  141.3370 C   0  0  0  0  0  0  0  0  0  0  0  0
  185.5400  179.5500  146.6510 O   0  0  0  0  0  1  0  0  0  0  0  0
  187.3140  177.9320  145.8060 O   0  0  0  0  0  1  0  0  0  0  0  0
  185.6390  178.2020  145.9490 S   0  0  0  0  0  3  0  0  0  0  0  0
  187.0180  178.6560  137.5030 C   0  0  0  0  0  2  0  0  0  0  0  0
  189.7160  176.4650  139.1980 C   0  0  0  0  0  2  0  0  0  0  0  0
  188.0780  178.7670  139.6900 O   0  0  0  0  0  0  0  0  0  0  0  0
  190.2330  177.1140  142.9110 C   0  0  0  0  0  0  0  0  0  0  0  0
  190.3080  176.5360  141.6340 C   0  0  0  0  0  3  0  0  0  0  0  0
  189.5920  177.0750  140.5630 C   0  0  0  0  0  0  0  0  0  0  0  0
  188.7190  178.8030  142.0230 C   0  0  0  0  0  3  0  0  0  0  0  0
  188.8030  178.2230  140.7560 C   0  0  0  0  0  0  0  0  0  0  0  0
  189.4290  178.2530  143.0930 C   0  0  0  0  0  3  0  0  0  0  0  0
  188.2320  178.2880  138.3530 C   0  0  1  0  0  3  0  0  0  0  0  0
  188.4950  176.7800  138.3360 C   0  0  0  0  0  2  0  0  0  0  0  0
  190.9680  176.5530  144.0150 N   0  0  0  0  0  0  0  0  0  0  0  0
  190.9010  177.1420  145.3430 C   0  0  0  0  0  1  0  0  0  0  0  0
  191.8030  175.3750  143.8420 C   0  0  0  0  0  1  0  0  0  0  0  0
  1 17  1  1  0  0  0
  3  5  2  0  0  0  0
  3  7  1  0  0  0  0
  4  1  1  0  0  0  0
  5  9  1  0  0  0  0
  6  5  1  0  0  0  0
  6 10  2  0  0  0  0
  7  4  2  0  0  0  0
  8  2  2  0  0  0  0
  9  8  1  0  0  0  0
  9  1  1  0  0  0  0
 10  8  1  0  0  0  0
 11 12  1  0  0  0  0
 12 13  1  0  0  0  0
 13 20  1  0  0  0  0
 14 13  2  0  0  0  0
 15 11  2  0  0  0  0
 16 14  1  0  0  0  0
 17 16  2  0  0  0  0
 17 15  1  0  0  0  0
 19 20  1  0  0  0  0
 20 18  1  0  0  0  0
 21  7  1  0  0  0  0
 22 26  1  0  0  0  0
 23 28  1  0  0  0  0
 24 29  1  0  0  0  0
 24 32  1  0  0  0  0
 25 24  2  0  0  0  0
 26 28  2  0  0  0  0
 26 25  1  0  0  0  0
 27 29  2  0  0  0  0
 28 27  1  0  0  0  0
 30 21  1  6  0  0  0
 30 23  1  0  0  0  0
 31 30  1  0  0  0  0
 31 22  1  0  0  0  0
 32 33  1  0  0  0  0
 34 32  1  0  0  0  0
M  END
>  <MODEL>
6

>  <REMARK>
 VINA RESULT:      -9.2      2.548      6.933
  Name = 
  5 active torsions:
  status: ('A' for Active; 'I' for Inactive)
    1  A    between atoms: C_1  and  C_34
    2  A    between atoms: C_7  and  N_11
    3  A    between atoms: C_17  and  C_18
    4  A    between atoms: C_18  and  C_30
    5  A    between atoms: S_24  and  C_25
                            x       y       z     vdW  Elec       q    Type
                         _______ _______ _______ _____ _____    ______ ____

>  <TORSDO>
F 5

$$$$
=
 OpenBabel10262423133D

 34 38  0  0  1  0  0  0  0  0999 V2000
  181.5280  178.3380  139.5430 C   0  0  1  0  0  3  0  0  0  0  0  0
  180.3290  179.5370  136.9540 O   0  0  0  0  0  0  0  0  0  0  0  0
  180.4320  180.1260  141.5210 C   0  0  0  0  0  3  0  0  0  0  0  0
  181.9020  178.2740  140.9660 N   0  0  0  0  0  0  0  0  0  0  0  0
  180.2610  180.3850  140.2310 C   0  0  0  0  0  0  0  0  0  0  0  0
  179.2530  181.2260  139.6820 N   0  0  0  0  0  0  0  0  0  0  0  0
  181.3920  179.0580  141.8810 C   0  0  0  0  0  0  0  0  0  0  0  0
  180.1820  180.0290  138.1040 C   0  0  0  0  0  0  0  0  0  0  0  0
  180.9400  179.6400  139.2390 N   0  0  0  0  0  0  0  0  0  0  0  0
  179.2070  181.0170  138.4260 N   0  0  0  0  0  0  0  0  0  0  0  0
  183.4270  176.6140  136.7760 C   0  0  0  0  0  3  0  0  0  0  0  0
  184.7800  176.3470  137.3450 C   0  0  0  0  0  2  0  0  0  0  0  0
  185.5620  177.6070  137.5110 C   0  0  0  0  0  0  0  0  0  0  0  0
  185.1640  178.5850  138.3270 C   0  0  0  0  0  3  0  0  0  0  0  0
  182.5130  177.3550  137.4000 C   0  0  0  0  0  3  0  0  0  0  0  0
  183.8760  178.6420  139.0450 C   0  0  0  0  0  3  0  0  0  0  0  0
  182.7180  178.0740  138.6790 C   0  0  0  0  0  0  0  0  0  0  0  0
  188.0980  177.0300  137.6540 O   0  0  0  0  0  1  0  0  0  0  0  0
  187.5430  179.3800  136.8480 O   0  0  0  0  0  1  0  0  0  0  0  0
  187.1370  177.7330  136.7040 S   0  0  0  0  0  3  0  0  0  0  0  0
  181.7670  178.8610  143.3140 C   0  0  0  0  0  2  0  0  0  0  0  0
  185.5850  178.3490  142.9710 C   0  0  0  0  0  2  0  0  0  0  0  0
  183.5750  178.8930  144.9430 O   0  0  0  0  0  0  0  0  0  0  0  0
  187.4700  177.9660  146.2530 C   0  0  0  0  0  0  0  0  0  0  0  0
  187.1680  177.9910  144.8810 C   0  0  0  0  0  3  0  0  0  0  0  0
  185.8770  178.2910  144.4410 C   0  0  0  0  0  0  0  0  0  0  0  0
  185.1610  178.5700  146.7410 C   0  0  0  0  0  3  0  0  0  0  0  0
  184.8710  178.5960  145.3750 C   0  0  0  0  0  0  0  0  0  0  0  0
  186.4510  178.2580  147.1770 C   0  0  0  0  0  3  0  0  0  0  0  0
  183.2620  179.0560  143.5580 C   0  0  1  0  0  3  0  0  0  0  0  0
  184.1010  178.1150  142.6900 C   0  0  0  0  0  2  0  0  0  0  0  0
  188.8000  177.6500  146.7050 N   0  0  0  0  0  0  0  0  0  0  0  0
  189.1900  177.8410  148.0940 C   0  0  0  0  0  1  0  0  0  0  0  0
  189.8030  177.1280  145.7900 C   0  0  0  0  0  1  0  0  0  0  0  0
  1 17  1  6  0  0  0
  1  4  1  0  0  0  0
  2  8  2  0  0  0  0
  3  7  1  0  0  0  0
  4  7  2  0  0  0  0
  5  3  2  0  0  0  0
  6  5  1  0  0  0  0
  7 21  1  0  0  0  0
  8 10  1  0  0  0  0
  8  9  1  0  0  0  0
  9  1  1  0  0  0  0
  9  5  1  0  0  0  0
 10  6  2  0  0  0  0
 11 12  1  0  0  0  0
 11 15  2  0  0  0  0
 12 13  1  0  0  0  0
 13 14  2  0  0  0  0
 14 16  1  0  0  0  0
 15 17  1  0  0  0  0
 17 16  2  0  0  0  0
 20 19  1  0  0  0  0
 20 13  1  0  0  0  0
 20 18  1  0  0  0  0
 22 26  1  0  0  0  0
 23 28  1  0  0  0  0
 24 32  1  0  0  0  0
 24 29  1  0  0  0  0
 25 24  2  0  0  0  0
 26 25  1  0  0  0  0
 26 28  2  0  0  0  0
 27 29  2  0  0  0  0
 28 27  1  0  0  0  0
 30 21  1  1  0  0  0
 30 23  1  0  0  0  0
 31 22  1  0  0  0  0
 31 30  1  0  0  0  0
 32 33  1  0  0  0  0
 34 32  1  0  0  0  0
M  END
>  <MODEL>
7

>  <REMARK>
 VINA RESULT:      -9.1      4.196      9.838
  Name = 
  5 active torsions:
  status: ('A' for Active; 'I' for Inactive)
    1  A    between atoms: C_1  and  C_34
    2  A    between atoms: C_7  and  N_11
    3  A    between atoms: C_17  and  C_18
    4  A    between atoms: C_18  and  C_30
    5  A    between atoms: S_24  and  C_25
                            x       y       z     vdW  Elec       q    Type
                         _______ _______ _______ _____ _____    ______ ____

>  <TORSDO>
F 5

$$$$
=
 OpenBabel10262423133D

 34 38  0  0  1  0  0  0  0  0999 V2000
  187.1420  177.4520  144.4580 C   0  0  1  0  0  3  0  0  0  0  0  0
  185.7220  177.6310  147.2020 O   0  0  0  0  0  0  0  0  0  0  0  0
  189.8600  178.0340  145.2210 C   0  0  0  0  0  3  0  0  0  0  0  0
  188.2260  177.6150  143.4740 N   0  0  0  0  0  0  0  0  0  0  0  0
  188.8850  178.1470  146.1140 C   0  0  0  0  0  0  0  0  0  0  0  0
  189.0520  178.1340  147.5280 N   0  0  0  0  0  0  0  0  0  0  0  0
  189.4690  177.8500  143.8050 C   0  0  0  0  0  0  0  0  0  0  0  0
  186.9420  177.8780  147.0110 C   0  0  0  0  0  0  0  0  0  0  0  0
  187.5270  178.0550  145.7310 N   0  0  0  0  0  0  0  0  0  0  0  0
  187.9050  177.9760  148.0580 N   0  0  0  0  0  0  0  0  0  0  0  0
  183.9360  179.4230  144.7310 C   0  0  0  0  0  3  0  0  0  0  0  0
  182.9290  178.6270  143.9710 C   0  0  0  0  0  2  0  0  0  0  0  0
  183.1900  178.6730  142.5030 C   0  0  0  0  0  0  0  0  0  0  0  0
  184.3110  178.1860  141.9670 C   0  0  0  0  0  3  0  0  0  0  0  0
  185.2350  179.1310  144.7330 C   0  0  0  0  0  3  0  0  0  0  0  0
  185.4810  177.6860  142.7150 C   0  0  0  0  0  3  0  0  0  0  0  0
  185.8750  178.0540  143.9430 C   0  0  0  0  0  0  0  0  0  0  0  0
  180.9570  178.0770  141.3010 O   0  0  0  0  0  1  0  0  0  0  0  0
  182.6480  179.3760  139.9100 O   0  0  0  0  0  1  0  0  0  0  0  0
  181.9010  179.2650  141.4360 S   0  0  0  0  0  3  0  0  0  0  0  0
  190.5170  177.9140  142.7410 C   0  0  0  0  0  2  0  0  0  0  0  0
  190.7560  176.4100  139.1860 C   0  0  0  0  0  2  0  0  0  0  0  0
  188.9430  177.8390  140.8870 O   0  0  0  0  0  0  0  0  0  0  0  0
  187.9460  177.3940  136.8180 C   0  0  0  0  0  0  0  0  0  0  0  0
  189.1470  176.8660  137.3180 C   0  0  0  0  0  3  0  0  0  0  0  0
  189.4870  177.0150  138.6640 C   0  0  0  0  0  0  0  0  0  0  0  0
  187.4140  178.2130  139.0500 C   0  0  0  0  0  3  0  0  0  0  0  0
  188.6090  177.6810  139.5380 C   0  0  0  0  0  0  0  0  0  0  0  0
  187.0840  178.0700  137.7000 C   0  0  0  0  0  3  0  0  0  0  0  0
  190.0890  177.2040  141.4580 C   0  0  1  0  0  3  0  0  0  0  0  0
  191.2350  177.1270  140.4470 C   0  0  0  0  0  2  0  0  0  0  0  0
  187.6010  177.2440  135.4280 N   0  0  0  0  0  0  0  0  0  0  0  0
  188.0360  176.0840  134.6650 C   0  0  0  0  0  1  0  0  0  0  0  0
  186.8040  178.2450  134.7370 C   0  0  0  0  0  1  0  0  0  0  0  0
  1 17  1  6  0  0  0
  1  9  1  0  0  0  0
  3  5  2  0  0  0  0
  4  7  2  0  0  0  0
  4  1  1  0  0  0  0
  5  6  1  0  0  0  0
  6 10  2  0  0  0  0
  7  3  1  0  0  0  0
  8  2  2  0  0  0  0
  8 10  1  0  0  0  0
  9  5  1  0  0  0  0
  9  8  1  0  0  0  0
 11 15  2  0  0  0  0
 12 11  1  0  0  0  0
 13 12  1  0  0  0  0
 14 13  2  0  0  0  0
 14 16  1  0  0  0  0
 16 17  2  0  0  0  0
 17 15  1  0  0  0  0
 18 20  1  0  0  0  0
 19 20  1  0  0  0  0
 20 13  1  0  0  0  0
 21  7  1  0  0  0  0
 22 31  1  0  0  0  0
 23 30  1  0  0  0  0
 24 25  2  0  0  0  0
 24 29  1  0  0  0  0
 25 26  1  0  0  0  0
 26 22  1  0  0  0  0
 26 28  2  0  0  0  0
 27 28  1  0  0  0  0
 28 23  1  0  0  0  0
 29 27  2  0  0  0  0
 30 21  1  1  0  0  0
 31 30  1  0  0  0  0
 32 24  1  0  0  0  0
 33 32  1  0  0  0  0
 34 32  1  0  0  0  0
M  END
>  <MODEL>
8

>  <REMARK>
 VINA RESULT:      -9.0      1.626      2.020
  Name = 
  5 active torsions:
  status: ('A' for Active; 'I' for Inactive)
    1  A    between atoms: C_1  and  C_34
    2  A    between atoms: C_7  and  N_11
    3  A    between atoms: C_17  and  C_18
    4  A    between atoms: C_18  and  C_30
    5  A    between atoms: S_24  and  C_25
                            x       y       z     vdW  Elec       q    Type
                         _______ _______ _______ _____ _____    ______ ____

>  <TORSDO>
F 5

$$$$
=
 OpenBabel10262423133D

 34 38  0  0  1  0  0  0  0  0999 V2000
  186.0780  178.9700  141.7460 C   0  0  1  0  0  3  0  0  0  0  0  0
  184.9820  179.2610  144.6250 O   0  0  0  0  0  0  0  0  0  0  0  0
  183.6440  178.4490  140.2930 C   0  0  0  0  0  3  0  0  0  0  0  0
  186.0660  178.6280  140.3140 N   0  0  0  0  0  0  0  0  0  0  0  0
  183.6230  178.5030  141.6190 C   0  0  0  0  0  0  0  0  0  0  0  0
  182.4690  178.7350  142.4200 N   0  0  0  0  0  0  0  0  0  0  0  0
  184.9680  178.4180  139.6330 C   0  0  0  0  0  0  0  0  0  0  0  0
  184.2840  178.9580  143.6220 C   0  0  0  0  0  0  0  0  0  0  0  0
  184.8210  178.5660  142.3680 N   0  0  0  0  0  0  0  0  0  0  0  0
  182.8590  179.0030  143.6030 N   0  0  0  0  0  0  0  0  0  0  0  0
  187.7440  176.7590  144.3100 C   0  0  0  0  0  3  0  0  0  0  0  0
  188.9190  177.5420  144.7890 C   0  0  0  0  0  2  0  0  0  0  0  0
  189.9760  177.6420  143.7420 C   0  0  0  0  0  0  0  0  0  0  0  0
  189.7610  178.2530  142.5740 C   0  0  0  0  0  3  0  0  0  0  0  0
  186.9920  177.1410  143.2790 C   0  0  0  0  0  3  0  0  0  0  0  0
  188.4640  178.7690  142.0940 C   0  0  0  0  0  3  0  0  0  0  0  0
  187.2430  178.3260  142.4260 C   0  0  0  0  0  0  0  0  0  0  0  0
  191.5540  175.5710  143.7880 O   0  0  0  0  0  1  0  0  0  0  0  0
  191.6620  177.0880  145.8300 O   0  0  0  0  0  1  0  0  0  0  0  0
  191.6050  177.0540  144.1280 S   0  0  0  0  0  3  0  0  0  0  0  0
  185.0490  178.1610  138.1630 C   0  0  0  0  0  2  0  0  0  0  0  0
  188.0560  177.7180  135.7710 C   0  0  0  0  0  2  0  0  0  0  0  0
  187.4010  177.6840  138.5630 O   0  0  0  0  0  0  0  0  0  0  0  0
  191.2210  176.3550  137.3830 C   0  0  0  0  0  0  0  0  0  0  0  0
  190.2910  176.7880  136.4240 C   0  0  0  0  0  3  0  0  0  0  0  0
  189.0210  177.2240  136.8080 C   0  0  0  0  0  0  0  0  0  0  0  0
  189.5890  176.8210  139.1310 C   0  0  0  0  0  3  0  0  0  0  0  0
  188.6730  177.2530  138.1700 C   0  0  0  0  0  0  0  0  0  0  0  0
  190.8550  176.3760  138.7410 C   0  0  0  0  0  3  0  0  0  0  0  0
  186.4780  178.2530  137.6330 C   0  0  1  0  0  3  0  0  0  0  0  0
  186.6120  177.5990  136.2560 C   0  0  0  0  0  2  0  0  0  0  0  0
  192.5280  175.9010  136.9840 N   0  0  0  0  0  0  0  0  0  0  0  0
  193.5640  175.6270  137.9680 C   0  0  0  0  0  1  0  0  0  0  0  0
  192.8600  175.6970  135.5830 C   0  0  0  0  0  1  0  0  0  0  0  0
  1  9  1  0  0  0  0
  1 17  1  1  0  0  0
  3  5  2  0  0  0  0
  4  1  1  0  0  0  0
  5  9  1  0  0  0  0
  5  6  1  0  0  0  0
  6 10  2  0  0  0  0
  7  3  1  0  0  0  0
  7  4  2  0  0  0  0
  8  2  2  0  0  0  0
  9  8  1  0  0  0  0
 10  8  1  0  0  0  0
 11 12  1  0  0  0  0
 13 20  1  0  0  0  0
 13 12  1  0  0  0  0
 14 13  2  0  0  0  0
 15 11  2  0  0  0  0
 16 17  2  0  0  0  0
 16 14  1  0  0  0  0
 17 15  1  0  0  0  0
 18 20  1  0  0  0  0
 20 19  1  0  0  0  0
 21  7  1  0  0  0  0
 22 31  1  0  0  0  0
 22 26  1  0  0  0  0
 24 29  1  0  0  0  0
 25 26  1  0  0  0  0
 25 24  2  0  0  0  0
 26 28  2  0  0  0  0
 28 23  1  0  0  0  0
 28 27  1  0  0  0  0
 29 27  2  0  0  0  0
 30 21  1  1  0  0  0
 30 23  1  0  0  0  0
 31 30  1  0  0  0  0
 32 24  1  0  0  0  0
 32 33  1  0  0  0  0
 34 32  1  0  0  0  0
M  END
>  <MODEL>
9

>  <REMARK>
 VINA RESULT:      -8.9      3.437      6.141
  Name = 
  5 active torsions:
  status: ('A' for Active; 'I' for Inactive)
    1  A    between atoms: C_1  and  C_34
    2  A    between atoms: C_7  and  N_11
    3  A    between atoms: C_17  and  C_18
    4  A    between atoms: C_18  and  C_30
    5  A    between atoms: S_24  and  C_25
                            x       y       z     vdW  Elec       q    Type
                         _______ _______ _______ _____ _____    ______ ____

>  <TORSDO>
F 5

$$$$
