=
 OpenBabel10262421533D

 30 33  0  0  0  0  0  0  0  0999 V2000
  186.7460  178.4550  139.2380 N   0  0  0  0  0  0  0  0  0  0  0  0
  188.2770  178.2090  137.3920 C   0  0  0  0  0  0  0  0  0  0  0  0
  189.3920  177.0350  141.9870 N   0  0  0  0  0  0  0  0  0  0  0  0
  186.4340  178.3440  140.5640 C   0  0  0  0  0  0  0  0  0  0  0  0
  183.0900  179.5660  140.2530 O   0  0  0  0  0  0  0  0  0  0  0  0
  183.9710  178.6650  140.2100 C   0  0  0  0  0  0  0  0  0  0  0  0
  188.5840  177.1260  143.0680 C   0  0  0  0  0  0  0  0  0  0  0  0
  185.1450  178.7760  141.0380 N   0  0  0  0  0  0  0  0  0  0  0  0
  189.5430  177.8350  136.9260 C   0  0  0  0  0  3  0  0  0  0  0  0
  187.2720  178.7240  136.4190 C   0  0  0  0  0  1  0  0  0  0  0  0
  188.6080  177.4950  140.9930 C   0  0  0  0  0  0  0  0  0  0  0  0
  190.5100  177.3460  137.8110 C   0  0  0  0  0  3  0  0  0  0  0  0
  187.9750  178.0920  138.7600 C   0  0  0  0  0  0  0  0  0  0  0  0
  187.3850  177.8600  141.4110 N   0  0  0  0  0  0  0  0  0  0  0  0
  188.9990  176.7290  144.4390 C   0  0  0  0  0  1  0  0  0  0  0  0
  187.3370  177.6280  142.7340 C   0  0  0  0  0  3  0  0  0  0  0  0
  190.2200  177.2250  139.1730 C   0  0  0  0  0  3  0  0  0  0  0  0
  188.9590  177.5950  139.6490 C   0  0  0  0  0  0  0  0  0  0  0  0
  182.9870  176.3890  139.6300 C   0  0  0  0  0  3  0  0  0  0  0  0
  184.2390  177.4060  138.1230 O   0  0  0  0  0  0  0  0  0  0  0  0
  183.7460  177.5020  139.3320 C   0  0  0  0  0  0  0  0  0  0  0  0
  183.0620  175.5910  138.5020 C   0  0  0  0  0  3  0  0  0  0  0  0
  183.8540  176.2710  137.5920 C   0  0  0  0  0  3  0  0  0  0  0  0
  185.0590  179.5460  142.2800 C   0  0  0  0  0  2  0  0  0  0  0  0
  184.1670  178.8500  143.3040 C   0  0  0  0  0  2  0  0  0  0  0  0
  183.9440  179.7150  144.5350 C   0  0  0  0  0  2  0  0  0  0  0  0
  184.0450  178.9060  145.7410 N   0  0  0  0  0  2  0  0  0  0  0  0
  186.0360  177.5950  146.1100 O   0  0  0  0  0  0  0  0  0  0  0  0
  185.2750  178.7090  146.3820 N   0  0  0  0  0  0  0  0  0  0  0  0
  185.6610  179.5250  147.2410 O   0  0  0  0  0  0  0  0  0  0  0  0
  1  4  2  0  0  0  0
  2 13  1  0  0  0  0
  3  7  1  0  0  0  0
  4  8  1  0  0  0  0
  4 14  1  0  0  0  0
  6  5  2  0  0  0  0
  6  8  1  0  0  0  0
  7 15  1  0  0  0  0
  8 24  1  0  0  0  0
  9  2  2  0  0  0  0
  9 12  1  0  0  0  0
 10  2  1  0  0  0  0
 11 14  1  0  0  0  0
 11  3  2  0  0  0  0
 12 17  2  0  0  0  0
 13  1  1  0  0  0  0
 13 18  2  0  0  0  0
 14 16  1  0  0  0  0
 16  7  2  0  0  0  0
 17 18  1  0  0  0  0
 18 11  1  0  0  0  0
 20 21  1  0  0  0  0
 21 19  2  0  0  0  0
 21  6  1  0  0  0  0
 22 19  1  0  0  0  0
 23 20  1  0  0  0  0
 23 22  2  0  0  0  0
 24 25  1  0  0  0  0
 25 26  1  0  0  0  0
 26 27  1  0  0  0  0
 27 29  1  0  0  0  0
 28 29  2  0  0  0  0
 29 30  2  0  0  0  0
M  END
>  <MODEL>
1

>  <REMARK>
 VINA RESULT:      -7.4      0.000      0.000
  Name = 
  6 active torsions:
  status: ('A' for Active; 'I' for Inactive)
    1  A    between atoms: N_7  and  N_15
    2  A    between atoms: N_7  and  C_16
    3  A    between atoms: C_8  and  C_12
    4  A    between atoms: N_13  and  C_27
    5  A    between atoms: C_16  and  C_30
    6  A    between atoms: C_27  and  C_30
                            x       y       z     vdW  Elec       q    Type
                         _______ _______ _______ _____ _____    ______ ____

>  <TORSDO>
F 6

$$$$
=
 OpenBabel10262421533D

 30 33  0  0  0  0  0  0  0  0999 V2000
  181.9070  178.4550  141.2280 N   0  0  0  0  0  0  0  0  0  0  0  0
  182.4640  178.9700  143.5160 C   0  0  0  0  0  0  0  0  0  0  0  0
  185.7650  178.6710  139.9460 N   0  0  0  0  0  0  0  0  0  0  0  0
  182.2570  178.2440  139.9250 C   0  0  0  0  0  0  0  0  0  0  0  0
  178.9350  177.6520  138.7480 O   0  0  0  0  0  0  0  0  0  0  0  0
  179.9040  178.3930  139.0660 C   0  0  0  0  0  0  0  0  0  0  0  0
  185.5290  178.4070  138.6410 C   0  0  0  0  0  0  0  0  0  0  0  0
  181.2500  177.8910  138.9570 N   0  0  0  0  0  0  0  0  0  0  0  0
  183.4390  179.2690  144.4750 C   0  0  0  0  0  3  0  0  0  0  0  0
  181.0360  178.8920  143.9380 C   0  0  0  0  0  1  0  0  0  0  0  0
  184.5320  178.6190  140.4860 C   0  0  0  0  0  0  0  0  0  0  0  0
  184.7870  179.3520  144.1140 C   0  0  0  0  0  3  0  0  0  0  0  0
  182.8430  178.7520  142.1810 C   0  0  0  0  0  0  0  0  0  0  0  0
  183.5740  178.3360  139.5880 N   0  0  0  0  0  0  0  0  0  0  0  0
  186.5960  178.3500  137.6090 C   0  0  0  0  0  1  0  0  0  0  0  0
  184.1810  178.2020  138.3970 C   0  0  0  0  0  3  0  0  0  0  0  0
  185.1760  179.1380  142.7890 C   0  0  0  0  0  3  0  0  0  0  0  0
  184.2100  178.8390  141.8230 C   0  0  0  0  0  0  0  0  0  0  0  0
  178.9360  180.1390  140.6480 C   0  0  0  0  0  3  0  0  0  0  0  0
  180.0230  180.8330  138.8570 O   0  0  0  0  0  0  0  0  0  0  0  0
  179.6210  179.7710  139.5080 C   0  0  0  0  0  0  0  0  0  0  0  0
  178.9420  181.5220  140.6390 C   0  0  0  0  0  3  0  0  0  0  0  0
  179.6320  181.9050  139.5020 C   0  0  0  0  0  3  0  0  0  0  0  0
  181.5290  176.8330  137.9860 C   0  0  0  0  0  2  0  0  0  0  0  0
  181.7830  175.4960  138.6780 C   0  0  0  0  0  2  0  0  0  0  0  0
  180.7260  174.4650  138.3140 C   0  0  0  0  0  2  0  0  0  0  0  0
  179.5220  174.6810  139.1010 N   0  0  0  0  0  2  0  0  0  0  0  0
  179.3440  175.6320  141.3110 O   0  0  0  0  0  0  0  0  0  0  0  0
  179.5300  174.5400  140.4950 N   0  0  0  0  0  0  0  0  0  0  0  0
  179.7530  173.4230  141.0010 O   0  0  0  0  0  0  0  0  0  0  0  0
  1 13  1  0  0  0  0
  2 10  1  0  0  0  0
  2  9  1  0  0  0  0
  3 11  2  0  0  0  0
  4  1  2  0  0  0  0
  5  6  2  0  0  0  0
  6 21  1  0  0  0  0
  7  3  1  0  0  0  0
  8  6  1  0  0  0  0
  8  4  1  0  0  0  0
 11 18  1  0  0  0  0
 12  9  2  0  0  0  0
 13  2  2  0  0  0  0
 14  4  1  0  0  0  0
 14 11  1  0  0  0  0
 15  7  1  0  0  0  0
 16  7  2  0  0  0  0
 16 14  1  0  0  0  0
 17 12  1  0  0  0  0
 18 13  1  0  0  0  0
 18 17  2  0  0  0  0
 20 23  1  0  0  0  0
 20 21  1  0  0  0  0
 21 19  2  0  0  0  0
 22 19  1  0  0  0  0
 23 22  2  0  0  0  0
 24 25  1  0  0  0  0
 24  8  1  0  0  0  0
 26 25  1  0  0  0  0
 26 27  1  0  0  0  0
 27 29  1  0  0  0  0
 29 30  2  0  0  0  0
 29 28  2  0  0  0  0
M  END
>  <MODEL>
2

>  <REMARK>
 VINA RESULT:      -6.6      3.808      6.890
  Name = 
  6 active torsions:
  status: ('A' for Active; 'I' for Inactive)
    1  A    between atoms: N_7  and  N_15
    2  A    between atoms: N_7  and  C_16
    3  A    between atoms: C_8  and  C_12
    4  A    between atoms: N_13  and  C_27
    5  A    between atoms: C_16  and  C_30
    6  A    between atoms: C_27  and  C_30
                            x       y       z     vdW  Elec       q    Type
                         _______ _______ _______ _____ _____    ______ ____

>  <TORSDO>
F 6

$$$$
=
 OpenBabel10262421533D

 30 33  0  0  0  0  0  0  0  0999 V2000
  183.4870  178.8900  140.2820 N   0  0  0  0  0  0  0  0  0  0  0  0
  185.6220  178.5890  141.3600 C   0  0  0  0  0  0  0  0  0  0  0  0
  181.4060  178.9110  143.7810 N   0  0  0  0  0  0  0  0  0  0  0  0
  182.1290  179.0370  140.3240 C   0  0  0  0  0  0  0  0  0  0  0  0
  181.6780  179.2600  136.7860 O   0  0  0  0  0  0  0  0  0  0  0  0
  181.8140  178.6280  137.8680 C   0  0  0  0  0  0  0  0  0  0  0  0
  180.1730  179.0600  143.2480 C   0  0  0  0  0  0  0  0  0  0  0  0
  181.3880  179.2330  139.1050 N   0  0  0  0  0  0  0  0  0  0  0  0
  186.3580  178.4430  142.5410 C   0  0  0  0  0  3  0  0  0  0  0  0
  186.3410  178.5760  140.0530 C   0  0  0  0  0  1  0  0  0  0  0  0
  182.1990  178.8960  142.6910 C   0  0  0  0  0  0  0  0  0  0  0  0
  185.7170  178.4490  143.7830 C   0  0  0  0  0  3  0  0  0  0  0  0
  184.2260  178.7430  141.4230 C   0  0  0  0  0  0  0  0  0  0  0  0
  181.5190  179.0330  141.5420 N   0  0  0  0  0  0  0  0  0  0  0  0
  178.9310  179.1330  144.0600 C   0  0  0  0  0  1  0  0  0  0  0  0
  180.2180  179.1320  141.8650 C   0  0  0  0  0  3  0  0  0  0  0  0
  184.3290  178.6000  143.8580 C   0  0  0  0  0  3  0  0  0  0  0  0
  183.5830  178.7460  142.6850 C   0  0  0  0  0  0  0  0  0  0  0  0
  183.6270  176.9140  137.3520 C   0  0  0  0  0  3  0  0  0  0  0  0
  181.7410  176.2080  138.2590 O   0  0  0  0  0  0  0  0  0  0  0  0
  182.3770  177.2660  137.8220 C   0  0  0  0  0  0  0  0  0  0  0  0
  183.7030  175.5450  137.5280 C   0  0  0  0  0  3  0  0  0  0  0  0
  182.5030  175.1540  138.0970 C   0  0  0  0  0  3  0  0  0  0  0  0
  180.3260  180.2390  139.0650 C   0  0  0  0  0  2  0  0  0  0  0  0
  180.9020  181.6520  139.0030 C   0  0  0  0  0  2  0  0  0  0  0  0
  180.0670  182.5610  138.1150 C   0  0  0  0  0  2  0  0  0  0  0  0
  180.7130  182.7290  136.8220 N   0  0  0  0  0  2  0  0  0  0  0  0
  182.0870  184.6500  137.3150 O   0  0  0  0  0  0  0  0  0  0  0  0
  181.2770  183.9550  136.4460 N   0  0  0  0  0  0  0  0  0  0  0  0
  181.0060  184.4440  135.3320 O   0  0  0  0  0  0  0  0  0  0  0  0
  1  4  2  0  0  0  0
  1 13  1  0  0  0  0
  2 13  2  0  0  0  0
  2  9  1  0  0  0  0
  4 14  1  0  0  0  0
  5  6  2  0  0  0  0
  6  8  1  0  0  0  0
  7  3  1  0  0  0  0
  7 15  1  0  0  0  0
  8  4  1  0  0  0  0
  9 12  2  0  0  0  0
 10  2  1  0  0  0  0
 11  3  2  0  0  0  0
 12 17  1  0  0  0  0
 13 18  1  0  0  0  0
 14 16  1  0  0  0  0
 14 11  1  0  0  0  0
 16  7  2  0  0  0  0
 18 11  1  0  0  0  0
 18 17  2  0  0  0  0
 19 22  1  0  0  0  0
 19 21  2  0  0  0  0
 21  6  1  0  0  0  0
 21 20  1  0  0  0  0
 22 23  2  0  0  0  0
 23 20  1  0  0  0  0
 24  8  1  0  0  0  0
 25 24  1  0  0  0  0
 26 25  1  0  0  0  0
 27 26  1  0  0  0  0
 29 27  1  0  0  0  0
 29 28  2  0  0  0  0
 30 29  2  0  0  0  0
M  END
>  <MODEL>
3

>  <REMARK>
 VINA RESULT:      -6.6      3.925      6.963
  Name = 
  6 active torsions:
  status: ('A' for Active; 'I' for Inactive)
    1  A    between atoms: N_7  and  N_15
    2  A    between atoms: N_7  and  C_16
    3  A    between atoms: C_8  and  C_12
    4  A    between atoms: N_13  and  C_27
    5  A    between atoms: C_16  and  C_30
    6  A    between atoms: C_27  and  C_30
                            x       y       z     vdW  Elec       q    Type
                         _______ _______ _______ _____ _____    ______ ____

>  <TORSDO>
F 6

$$$$
=
 OpenBabel10262421533D

 30 33  0  0  0  0  0  0  0  0999 V2000
  181.9830  178.3780  141.1610 N   0  0  0  0  0  0  0  0  0  0  0  0
  182.5340  178.8610  143.4580 C   0  0  0  0  0  0  0  0  0  0  0  0
  185.8340  178.6900  139.8780 N   0  0  0  0  0  0  0  0  0  0  0  0
  182.3340  178.1970  139.8540 C   0  0  0  0  0  0  0  0  0  0  0  0
  179.0220  177.5640  138.6720 O   0  0  0  0  0  0  0  0  0  0  0  0
  179.9770  178.3170  139.0020 C   0  0  0  0  0  0  0  0  0  0  0  0
  185.6000  178.4460  138.5680 C   0  0  0  0  0  0  0  0  0  0  0  0
  181.3330  177.8430  138.8810 N   0  0  0  0  0  0  0  0  0  0  0  0
  183.5050  179.1600  144.4200 C   0  0  0  0  0  3  0  0  0  0  0  0
  181.1090  178.7480  143.8810 C   0  0  0  0  0  1  0  0  0  0  0  0
  184.6030  178.6050  140.4180 C   0  0  0  0  0  0  0  0  0  0  0  0
  184.8510  179.2760  144.0590 C   0  0  0  0  0  3  0  0  0  0  0  0
  182.9150  178.6740  142.1180 C   0  0  0  0  0  0  0  0  0  0  0  0
  183.6490  178.3200  139.5170 N   0  0  0  0  0  0  0  0  0  0  0  0
  186.6670  178.4280  137.5330 C   0  0  0  0  0  1  0  0  0  0  0  0
  184.2560  178.2200  138.3220 C   0  0  0  0  0  3  0  0  0  0  0  0
  185.2410  179.0930  142.7290 C   0  0  0  0  0  3  0  0  0  0  0  0
  184.2800  178.7940  141.7600 C   0  0  0  0  0  0  0  0  0  0  0  0
  178.9750  180.0150  140.6150 C   0  0  0  0  0  3  0  0  0  0  0  0
  180.0540  180.7630  138.8400 O   0  0  0  0  0  0  0  0  0  0  0  0
  179.6690  179.6810  139.4690 C   0  0  0  0  0  0  0  0  0  0  0  0
  178.9570  181.3980  140.6330 C   0  0  0  0  0  3  0  0  0  0  0  0
  179.6420  181.8150  139.5050 C   0  0  0  0  0  3  0  0  0  0  0  0
  181.6300  176.8080  137.8900 C   0  0  0  0  0  2  0  0  0  0  0  0
  181.9120  175.4650  138.5580 C   0  0  0  0  0  2  0  0  0  0  0  0
  182.4660  174.4510  137.5690 C   0  0  0  0  0  2  0  0  0  0  0  0
  183.9040  174.3160  137.7420 N   0  0  0  0  0  2  0  0  0  0  0  0
  183.8400  171.9540  137.2540 O   0  0  0  0  0  0  0  0  0  0  0  0
  184.5270  173.0620  137.6970 N   0  0  0  0  0  0  0  0  0  0  0  0
  185.6980  172.9390  138.1050 O   0  0  0  0  0  0  0  0  0  0  0  0
  1 13  1  0  0  0  0
  2 10  1  0  0  0  0
  2  9  1  0  0  0  0
  3 11  2  0  0  0  0
  4  1  2  0  0  0  0
  5  6  2  0  0  0  0
  6 21  1  0  0  0  0
  7  3  1  0  0  0  0
  8  6  1  0  0  0  0
  8  4  1  0  0  0  0
 11 18  1  0  0  0  0
 12  9  2  0  0  0  0
 13  2  2  0  0  0  0
 14  4  1  0  0  0  0
 14 11  1  0  0  0  0
 15  7  1  0  0  0  0
 16  7  2  0  0  0  0
 16 14  1  0  0  0  0
 17 12  1  0  0  0  0
 18 13  1  0  0  0  0
 18 17  2  0  0  0  0
 19 22  1  0  0  0  0
 20 21  1  0  0  0  0
 20 23  1  0  0  0  0
 21 19  2  0  0  0  0
 23 22  2  0  0  0  0
 24 25  1  0  0  0  0
 24  8  1  0  0  0  0
 26 27  1  0  0  0  0
 26 25  1  0  0  0  0
 28 29  2  0  0  0  0
 29 27  1  0  0  0  0
 29 30  2  0  0  0  0
M  END
>  <MODEL>
4

>  <REMARK>
 VINA RESULT:      -6.6      3.887      7.056
  Name = 
  6 active torsions:
  status: ('A' for Active; 'I' for Inactive)
    1  A    between atoms: N_7  and  N_15
    2  A    between atoms: N_7  and  C_16
    3  A    between atoms: C_8  and  C_12
    4  A    between atoms: N_13  and  C_27
    5  A    between atoms: C_16  and  C_30
    6  A    between atoms: C_27  and  C_30
                            x       y       z     vdW  Elec       q    Type
                         _______ _______ _______ _____ _____    ______ ____

>  <TORSDO>
F 6

$$$$
=
 OpenBabel10262421533D

 30 33  0  0  0  0  0  0  0  0999 V2000
  186.8160  178.4860  139.2620 N   0  0  0  0  0  0  0  0  0  0  0  0
  188.2640  178.1500  137.3650 C   0  0  0  0  0  0  0  0  0  0  0  0
  189.5060  177.0030  141.9340 N   0  0  0  0  0  0  0  0  0  0  0  0
  186.5510  178.4090  140.6000 C   0  0  0  0  0  0  0  0  0  0  0  0
  183.2490  179.7610  140.3940 O   0  0  0  0  0  0  0  0  0  0  0  0
  184.0900  178.8240  140.3330 C   0  0  0  0  0  0  0  0  0  0  0  0
  188.7440  177.1440  143.0420 C   0  0  0  0  0  0  0  0  0  0  0  0
  185.2990  178.9000  141.1150 N   0  0  0  0  0  0  0  0  0  0  0  0
  189.4950  177.7180  136.8580 C   0  0  0  0  0  3  0  0  0  0  0  0
  187.2440  178.6900  136.4210 C   0  0  0  0  0  1  0  0  0  0  0  0
  188.7030  177.4790  140.9620 C   0  0  0  0  0  0  0  0  0  0  0  0
  190.4750  177.2040  137.7130 C   0  0  0  0  0  3  0  0  0  0  0  0
  188.0100  178.0670  138.7440 C   0  0  0  0  0  0  0  0  0  0  0  0
  187.5130  177.8990  141.4190 N   0  0  0  0  0  0  0  0  0  0  0  0
  189.1950  176.7520  144.4030 C   0  0  0  0  0  1  0  0  0  0  0  0
  187.5070  177.6900  142.7470 C   0  0  0  0  0  3  0  0  0  0  0  0
  190.2330  177.1160  139.0870 C   0  0  0  0  0  3  0  0  0  0  0  0
  189.0070  177.5440  139.6040 C   0  0  0  0  0  0  0  0  0  0  0  0
  183.0350  176.5570  139.8470 C   0  0  0  0  0  3  0  0  0  0  0  0
  184.1870  177.5450  138.2430 O   0  0  0  0  0  0  0  0  0  0  0  0
  183.7860  177.6580  139.4840 C   0  0  0  0  0  0  0  0  0  0  0  0
  183.0170  175.7500  138.7240 C   0  0  0  0  0  3  0  0  0  0  0  0
  183.7490  176.4120  137.7520 C   0  0  0  0  0  3  0  0  0  0  0  0
  185.2910  179.6920  142.3460 C   0  0  0  0  0  2  0  0  0  0  0  0
  184.6840  178.9080  143.5070 C   0  0  0  0  0  2  0  0  0  0  0  0
  183.3640  179.5100  143.9620 C   0  0  0  0  0  2  0  0  0  0  0  0
  182.2550  178.6790  143.5210 N   0  0  0  0  0  2  0  0  0  0  0  0
  179.9710  178.5050  144.2780 O   0  0  0  0  0  0  0  0  0  0  0  0
  180.9370  179.1540  143.5430 N   0  0  0  0  0  0  0  0  0  0  0  0
  180.6260  180.1440  142.8540 O   0  0  0  0  0  0  0  0  0  0  0  0
  1  4  2  0  0  0  0
  2 13  1  0  0  0  0
  3  7  1  0  0  0  0
  4  8  1  0  0  0  0
  4 14  1  0  0  0  0
  6  5  2  0  0  0  0
  6  8  1  0  0  0  0
  7 15  1  0  0  0  0
  8 24  1  0  0  0  0
  9  2  2  0  0  0  0
  9 12  1  0  0  0  0
 10  2  1  0  0  0  0
 11 14  1  0  0  0  0
 11  3  2  0  0  0  0
 12 17  2  0  0  0  0
 13  1  1  0  0  0  0
 13 18  2  0  0  0  0
 14 16  1  0  0  0  0
 16  7  2  0  0  0  0
 17 18  1  0  0  0  0
 18 11  1  0  0  0  0
 20 21  1  0  0  0  0
 21 19  2  0  0  0  0
 21  6  1  0  0  0  0
 22 19  1  0  0  0  0
 23 20  1  0  0  0  0
 23 22  2  0  0  0  0
 24 25  1  0  0  0  0
 25 26  1  0  0  0  0
 27 29  1  0  0  0  0
 27 26  1  0  0  0  0
 29 28  2  0  0  0  0
 30 29  2  0  0  0  0
M  END
>  <MODEL>
5

>  <REMARK>
 VINA RESULT:      -6.5      1.919      2.025
  Name = 
  6 active torsions:
  status: ('A' for Active; 'I' for Inactive)
    1  A    between atoms: N_7  and  N_15
    2  A    between atoms: N_7  and  C_16
    3  A    between atoms: C_8  and  C_12
    4  A    between atoms: N_13  and  C_27
    5  A    between atoms: C_16  and  C_30
    6  A    between atoms: C_27  and  C_30
                            x       y       z     vdW  Elec       q    Type
                         _______ _______ _______ _____ _____    ______ ____

>  <TORSDO>
F 6

$$$$
=
 OpenBabel10262421533D

 30 33  0  0  0  0  0  0  0  0999 V2000
  185.1760  178.4070  138.6690 N   0  0  0  0  0  0  0  0  0  0  0  0
  187.5780  178.2520  138.5400 C   0  0  0  0  0  0  0  0  0  0  0  0
  185.1370  178.7830  142.7220 N   0  0  0  0  0  0  0  0  0  0  0  0
  184.0170  178.5390  139.3790 C   0  0  0  0  0  0  0  0  0  0  0  0
  181.8370  178.3680  136.5520 O   0  0  0  0  0  0  0  0  0  0  0  0
  182.5400  177.8600  137.4670 C   0  0  0  0  0  0  0  0  0  0  0  0
  183.7950  178.8570  142.8760 C   0  0  0  0  0  0  0  0  0  0  0  0
  182.7520  178.5920  138.6910 N   0  0  0  0  0  0  0  0  0  0  0  0
  188.8160  178.2460  139.1930 C   0  0  0  0  0  3  0  0  0  0  0  0
  187.5430  178.1050  137.0560 C   0  0  0  0  0  1  0  0  0  0  0  0
  185.2740  178.6600  141.3870 C   0  0  0  0  0  0  0  0  0  0  0  0
  188.8860  178.3790  140.5830 C   0  0  0  0  0  3  0  0  0  0  0  0
  186.3960  178.3940  139.2860 C   0  0  0  0  0  0  0  0  0  0  0  0
  184.1010  178.6610  140.7330 N   0  0  0  0  0  0  0  0  0  0  0  0
  183.1270  179.0030  144.1950 C   0  0  0  0  0  1  0  0  0  0  0  0
  183.1360  178.7780  141.6600 C   0  0  0  0  0  3  0  0  0  0  0  0
  187.7170  178.5200  141.3360 C   0  0  0  0  0  3  0  0  0  0  0  0
  186.4750  178.5280  140.6940 C   0  0  0  0  0  0  0  0  0  0  0  0
  183.9210  176.1130  136.2320 C   0  0  0  0  0  3  0  0  0  0  0  0
  182.8690  175.5080  138.0770 O   0  0  0  0  0  0  0  0  0  0  0  0
  183.0920  176.5090  137.2630 C   0  0  0  0  0  0  0  0  0  0  0  0
  184.1820  174.7770  136.4760 C   0  0  0  0  0  3  0  0  0  0  0  0
  183.5040  174.4490  137.6380 C   0  0  0  0  0  3  0  0  0  0  0  0
  181.7500  179.5740  139.1060 C   0  0  0  0  0  2  0  0  0  0  0  0
  182.1060  180.9730  138.6110 C   0  0  0  0  0  2  0  0  0  0  0  0
  181.0670  181.5070  137.6380 C   0  0  0  0  0  2  0  0  0  0  0  0
  180.8300  182.9210  137.8830 N   0  0  0  0  0  2  0  0  0  0  0  0
  181.1230  184.0300  135.7600 O   0  0  0  0  0  0  0  0  0  0  0  0
  181.4380  183.9070  137.0940 N   0  0  0  0  0  0  0  0  0  0  0  0
  182.3060  184.6490  137.5930 O   0  0  0  0  0  0  0  0  0  0  0  0
  1 13  1  0  0  0  0
  1  4  2  0  0  0  0
  2  9  2  0  0  0  0
  2 13  1  0  0  0  0
  3  7  1  0  0  0  0
  4 14  1  0  0  0  0
  5  6  2  0  0  0  0
  6  8  1  0  0  0  0
  7 15  1  0  0  0  0
  8 24  1  0  0  0  0
  8  4  1  0  0  0  0
  9 12  1  0  0  0  0
 10  2  1  0  0  0  0
 11  3  2  0  0  0  0
 12 17  2  0  0  0  0
 13 18  2  0  0  0  0
 14 11  1  0  0  0  0
 14 16  1  0  0  0  0
 16  7  2  0  0  0  0
 18 17  1  0  0  0  0
 18 11  1  0  0  0  0
 19 22  1  0  0  0  0
 19 21  2  0  0  0  0
 21  6  1  0  0  0  0
 21 20  1  0  0  0  0
 22 23  2  0  0  0  0
 23 20  1  0  0  0  0
 25 24  1  0  0  0  0
 26 27  1  0  0  0  0
 26 25  1  0  0  0  0
 28 29  2  0  0  0  0
 29 30  2  0  0  0  0
 29 27  1  0  0  0  0
M  END
>  <MODEL>
6

>  <REMARK>
 VINA RESULT:      -6.5      3.261      5.438
  Name = 
  6 active torsions:
  status: ('A' for Active; 'I' for Inactive)
    1  A    between atoms: N_7  and  N_15
    2  A    between atoms: N_7  and  C_16
    3  A    between atoms: C_8  and  C_12
    4  A    between atoms: N_13  and  C_27
    5  A    between atoms: C_16  and  C_30
    6  A    between atoms: C_27  and  C_30
                            x       y       z     vdW  Elec       q    Type
                         _______ _______ _______ _____ _____    ______ ____

>  <TORSDO>
F 6

$$$$
=
 OpenBabel10262421533D

 30 33  0  0  0  0  0  0  0  0999 V2000
  185.7990  178.0490  137.8340 N   0  0  0  0  0  0  0  0  0  0  0  0
  188.1170  177.7140  137.2600 C   0  0  0  0  0  0  0  0  0  0  0  0
  186.5880  178.7960  141.7570 N   0  0  0  0  0  0  0  0  0  0  0  0
  184.8130  178.3270  138.7370 C   0  0  0  0  0  0  0  0  0  0  0  0
  182.1080  178.0520  136.4180 O   0  0  0  0  0  0  0  0  0  0  0  0
  182.9520  177.5820  137.2280 C   0  0  0  0  0  0  0  0  0  0  0  0
  185.3090  178.9780  142.1590 C   0  0  0  0  0  0  0  0  0  0  0  0
  183.4420  178.4060  138.3050 N   0  0  0  0  0  0  0  0  0  0  0  0
  189.4570  177.6800  137.6590 C   0  0  0  0  0  3  0  0  0  0  0  0
  187.7790  177.4350  135.8340 C   0  0  0  0  0  1  0  0  0  0  0  0
  186.4500  178.5420  140.4410 C   0  0  0  0  0  0  0  0  0  0  0  0
  189.8100  177.9350  138.9880 C   0  0  0  0  0  3  0  0  0  0  0  0
  187.1160  178.0070  138.2020 C   0  0  0  0  0  0  0  0  0  0  0  0
  185.1720  178.5660  140.0300 N   0  0  0  0  0  0  0  0  0  0  0  0
  184.9260  179.2910  143.5600 C   0  0  0  0  0  1  0  0  0  0  0  0
  184.4180  178.8350  141.1090 C   0  0  0  0  0  3  0  0  0  0  0  0
  188.8230  178.2260  139.9340 C   0  0  0  0  0  3  0  0  0  0  0  0
  187.4800  178.2620  139.5470 C   0  0  0  0  0  0  0  0  0  0  0  0
  183.9070  175.6200  135.9150 C   0  0  0  0  0  3  0  0  0  0  0  0
  183.3360  175.2940  138.0230 O   0  0  0  0  0  0  0  0  0  0  0  0
  183.3830  176.1820  137.0620 C   0  0  0  0  0  0  0  0  0  0  0  0
  184.1710  174.3040  136.2500 C   0  0  0  0  0  3  0  0  0  0  0  0
  183.7980  174.1530  137.5740 C   0  0  0  0  0  3  0  0  0  0  0  0
  182.5940  179.4900  138.8020 C   0  0  0  0  0  2  0  0  0  0  0  0
  181.2680  178.9570  139.3370 C   0  0  0  0  0  2  0  0  0  0  0  0
  180.7950  179.7420  140.5510 C   0  0  0  0  0  2  0  0  0  0  0  0
  179.9360  178.9110  141.3810 N   0  0  0  0  0  2  0  0  0  0  0  0
  181.4040  179.1040  143.2870 O   0  0  0  0  0  0  0  0  0  0  0  0
  180.1870  178.7470  142.7500 N   0  0  0  0  0  0  0  0  0  0  0  0
  179.3190  178.2320  143.4800 O   0  0  0  0  0  0  0  0  0  0  0  0
  1 13  1  0  0  0  0
  1  4  2  0  0  0  0
  2  9  2  0  0  0  0
  2 13  1  0  0  0  0
  3  7  1  0  0  0  0
  4 14  1  0  0  0  0
  5  6  2  0  0  0  0
  6  8  1  0  0  0  0
  7 15  1  0  0  0  0
  8  4  1  0  0  0  0
  8 24  1  0  0  0  0
  9 12  1  0  0  0  0
 10  2  1  0  0  0  0
 11  3  2  0  0  0  0
 12 17  2  0  0  0  0
 13 18  2  0  0  0  0
 14 11  1  0  0  0  0
 14 16  1  0  0  0  0
 16  7  2  0  0  0  0
 18 17  1  0  0  0  0
 18 11  1  0  0  0  0
 19 22  1  0  0  0  0
 19 21  2  0  0  0  0
 21  6  1  0  0  0  0
 21 20  1  0  0  0  0
 22 23  2  0  0  0  0
 23 20  1  0  0  0  0
 24 25  1  0  0  0  0
 25 26  1  0  0  0  0
 26 27  1  0  0  0  0
 27 29  1  0  0  0  0
 29 28  2  0  0  0  0
 29 30  2  0  0  0  0
M  END
>  <MODEL>
7

>  <REMARK>
 VINA RESULT:      -6.0      2.645      3.687
  Name = 
  6 active torsions:
  status: ('A' for Active; 'I' for Inactive)
    1  A    between atoms: N_7  and  N_15
    2  A    between atoms: N_7  and  C_16
    3  A    between atoms: C_8  and  C_12
    4  A    between atoms: N_13  and  C_27
    5  A    between atoms: C_16  and  C_30
    6  A    between atoms: C_27  and  C_30
                            x       y       z     vdW  Elec       q    Type
                         _______ _______ _______ _____ _____    ______ ____

>  <TORSDO>
F 6

$$$$
=
 OpenBabel10262421533D

 30 33  0  0  0  0  0  0  0  0999 V2000
  185.4900  177.8720  138.0330 N   0  0  0  0  0  0  0  0  0  0  0  0
  183.1780  178.3520  138.5190 C   0  0  0  0  0  0  0  0  0  0  0  0
  184.6990  174.1670  136.5430 N   0  0  0  0  0  0  0  0  0  0  0  0
  186.4730  177.0480  137.5630 C   0  0  0  0  0  0  0  0  0  0  0  0
  189.1760  179.2870  138.2360 O   0  0  0  0  0  0  0  0  0  0  0  0
  188.3440  178.3950  138.5540 C   0  0  0  0  0  0  0  0  0  0  0  0
  185.9750  173.8180  136.2600 C   0  0  0  0  0  0  0  0  0  0  0  0
  187.8410  177.4980  137.5440 N   0  0  0  0  0  0  0  0  0  0  0  0
  181.8400  177.9450  138.5000 C   0  0  0  0  0  3  0  0  0  0  0  0
  183.5160  179.6970  139.0670 C   0  0  0  0  0  1  0  0  0  0  0  0
  184.8380  175.4080  137.0490 C   0  0  0  0  0  0  0  0  0  0  0  0
  181.4860  176.6890  137.9950 C   0  0  0  0  0  3  0  0  0  0  0  0
  184.1760  177.4930  138.0270 C   0  0  0  0  0  0  0  0  0  0  0  0
  186.1130  175.8260  137.0810 N   0  0  0  0  0  0  0  0  0  0  0  0
  186.3560  172.5090  135.6700 C   0  0  0  0  0  1  0  0  0  0  0  0
  186.8650  174.8260  136.5900 C   0  0  0  0  0  3  0  0  0  0  0  0
  182.4700  175.8260  137.5040 C   0  0  0  0  0  3  0  0  0  0  0  0
  183.8110  176.2230  137.5190 C   0  0  0  0  0  0  0  0  0  0  0  0
  188.5930  177.5540  140.9450 C   0  0  0  0  0  3  0  0  0  0  0  0
  186.9000  178.8910  140.4730 O   0  0  0  0  0  0  0  0  0  0  0  0
  187.9420  178.2790  139.9670 C   0  0  0  0  0  0  0  0  0  0  0  0
  187.8560  177.7640  142.0970 C   0  0  0  0  0  3  0  0  0  0  0  0
  186.8130  178.6040  141.7490 C   0  0  0  0  0  3  0  0  0  0  0  0
  188.6680  177.2300  136.3670 C   0  0  0  0  0  2  0  0  0  0  0  0
  190.1000  176.8800  136.7620 C   0  0  0  0  0  2  0  0  0  0  0  0
  190.1840  175.5080  137.4130 C   0  0  0  0  0  2  0  0  0  0  0  0
  190.8470  175.6050  138.7050 N   0  0  0  0  0  2  0  0  0  0  0  0
  193.0490  176.4490  138.1930 O   0  0  0  0  0  0  0  0  0  0  0  0
  191.8840  176.5230  138.9220 N   0  0  0  0  0  0  0  0  0  0  0  0
  191.7680  177.3840  139.8150 O   0  0  0  0  0  0  0  0  0  0  0  0
  2 10  1  0  0  0  0
  3 11  2  0  0  0  0
  4  1  2  0  0  0  0
  5  6  2  0  0  0  0
  6 21  1  0  0  0  0
  7  3  1  0  0  0  0
  7 16  2  0  0  0  0
  8  4  1  0  0  0  0
  8  6  1  0  0  0  0
  9  2  1  0  0  0  0
 11 14  1  0  0  0  0
 11 18  1  0  0  0  0
 12  9  2  0  0  0  0
 13  1  1  0  0  0  0
 13  2  2  0  0  0  0
 14  4  1  0  0  0  0
 15  7  1  0  0  0  0
 16 14  1  0  0  0  0
 17 18  2  0  0  0  0
 17 12  1  0  0  0  0
 18 13  1  0  0  0  0
 19 22  1  0  0  0  0
 20 23  1  0  0  0  0
 21 20  1  0  0  0  0
 21 19  2  0  0  0  0
 23 22  2  0  0  0  0
 24 25  1  0  0  0  0
 24  8  1  0  0  0  0
 25 26  1  0  0  0  0
 26 27  1  0  0  0  0
 27 29  1  0  0  0  0
 28 29  2  0  0  0  0
 29 30  2  0  0  0  0
M  END
>  <MODEL>
8

>  <REMARK>
 VINA RESULT:      -6.0      3.451      7.160
  Name = 
  6 active torsions:
  status: ('A' for Active; 'I' for Inactive)
    1  A    between atoms: N_7  and  N_15
    2  A    between atoms: N_7  and  C_16
    3  A    between atoms: C_8  and  C_12
    4  A    between atoms: N_13  and  C_27
    5  A    between atoms: C_16  and  C_30
    6  A    between atoms: C_27  and  C_30
                            x       y       z     vdW  Elec       q    Type
                         _______ _______ _______ _____ _____    ______ ____

>  <TORSDO>
F 6

$$$$
=
 OpenBabel10262421533D

 30 33  0  0  0  0  0  0  0  0999 V2000
  189.3970  177.8890  144.9600 N   0  0  0  0  0  0  0  0  0  0  0  0
  189.3520  177.8710  147.3710 C   0  0  0  0  0  0  0  0  0  0  0  0
  185.3440  177.9910  144.6040 N   0  0  0  0  0  0  0  0  0  0  0  0
  188.7710  177.9130  143.7470 C   0  0  0  0  0  0  0  0  0  0  0  0
  191.7610  177.8160  141.7920 O   0  0  0  0  0  0  0  0  0  0  0  0
  190.8290  177.2860  142.4540 C   0  0  0  0  0  0  0  0  0  0  0  0
  185.2880  177.9830  143.2530 C   0  0  0  0  0  0  0  0  0  0  0  0
  189.5490  177.9440  142.5350 N   0  0  0  0  0  0  0  0  0  0  0  0
  188.6080  177.8860  148.5550 C   0  0  0  0  0  3  0  0  0  0  0  0
  190.8400  177.8220  147.4530 C   0  0  0  0  0  1  0  0  0  0  0  0
  186.6690  177.9650  144.8450 C   0  0  0  0  0  0  0  0  0  0  0  0
  187.2100  177.9300  148.5160 C   0  0  0  0  0  3  0  0  0  0  0  0
  188.6900  177.9000  146.1310 C   0  0  0  0  0  0  0  0  0  0  0  0
  187.4090  177.9480  143.7250 N   0  0  0  0  0  0  0  0  0  0  0  0
  184.0170  178.0050  142.4830 C   0  0  0  0  0  1  0  0  0  0  0  0
  186.5530  177.9510  142.6900 C   0  0  0  0  0  3  0  0  0  0  0  0
  186.5410  177.9580  147.2890 C   0  0  0  0  0  3  0  0  0  0  0  0
  187.2750  177.9430  146.0990 C   0  0  0  0  0  0  0  0  0  0  0  0
  192.0550  175.7040  144.0290 C   0  0  0  0  0  3  0  0  0  0  0  0
  190.3520  174.9160  142.8650 O   0  0  0  0  0  0  0  0  0  0  0  0
  191.0750  175.9830  143.0980 C   0  0  0  0  0  0  0  0  0  0  0  0
  191.8790  174.3690  144.3450 C   0  0  0  0  0  3  0  0  0  0  0  0
  190.8050  173.9250  143.5930 C   0  0  0  0  0  3  0  0  0  0  0  0
  189.1510  178.8420  141.4500 C   0  0  0  0  0  2  0  0  0  0  0  0
  188.7060  178.0600  140.2180 C   0  0  0  0  0  2  0  0  0  0  0  0
  189.4320  178.5240  138.9650 C   0  0  0  0  0  2  0  0  0  0  0  0
  188.4730  178.9450  137.9550 N   0  0  0  0  0  2  0  0  0  0  0  0
  186.0720  178.7130  138.0030 O   0  0  0  0  0  0  0  0  0  0  0  0
  187.3130  178.2010  137.7000 N   0  0  0  0  0  0  0  0  0  0  0  0
  187.4080  177.0470  137.2390 O   0  0  0  0  0  0  0  0  0  0  0  0
  1 13  1  0  0  0  0
  2 10  1  0  0  0  0
  2  9  1  0  0  0  0
  3 11  2  0  0  0  0
  4  1  2  0  0  0  0
  5  6  2  0  0  0  0
  6  8  1  0  0  0  0
  6 21  1  0  0  0  0
  7  3  1  0  0  0  0
  8  4  1  0  0  0  0
 11 18  1  0  0  0  0
 12  9  2  0  0  0  0
 13  2  2  0  0  0  0
 14  4  1  0  0  0  0
 14 11  1  0  0  0  0
 15  7  1  0  0  0  0
 16  7  2  0  0  0  0
 16 14  1  0  0  0  0
 17 12  1  0  0  0  0
 18 13  1  0  0  0  0
 18 17  2  0  0  0  0
 19 22  1  0  0  0  0
 20 21  1  0  0  0  0
 20 23  1  0  0  0  0
 21 19  2  0  0  0  0
 23 22  2  0  0  0  0
 24  8  1  0  0  0  0
 25 24  1  0  0  0  0
 26 25  1  0  0  0  0
 27 26  1  0  0  0  0
 29 27  1  0  0  0  0
 29 28  2  0  0  0  0
 30 29  2  0  0  0  0
M  END
>  <MODEL>
9

>  <REMARK>
 VINA RESULT:      -5.6      3.082      7.895
  Name = 
  6 active torsions:
  status: ('A' for Active; 'I' for Inactive)
    1  A    between atoms: N_7  and  N_15
    2  A    between atoms: N_7  and  C_16
    3  A    between atoms: C_8  and  C_12
    4  A    between atoms: N_13  and  C_27
    5  A    between atoms: C_16  and  C_30
    6  A    between atoms: C_27  and  C_30
                            x       y       z     vdW  Elec       q    Type
                         _______ _______ _______ _____ _____    ______ ____

>  <TORSDO>
F 6

$$$$
