=
 OpenBabel10262419563D

 25 28  0  0  1  0  0  0  0  0999 V2000
  187.5310  177.7800  145.2130 C   0  0  0  0  0  0  0  0  0  0  0  0
  188.8550  177.4830  144.8710 C   0  0  0  0  0  0  0  0  0  0  0  0
  187.9480  177.6990  147.5840 C   0  0  0  0  0  3  0  0  0  0  0  0
  186.4030  178.0290  144.4600 C   0  0  0  0  0  0  0  0  0  0  0  0
  190.2880  177.3680  142.8150 C   0  0  0  0  0  0  0  0  0  0  0  0
  183.9670  179.0130  143.4300 C   0  0  0  0  0  2  0  0  0  0  0  0
  189.2840  177.3860  147.2940 C   0  0  0  0  0  3  0  0  0  0  0  0
  185.3800  178.2680  145.3000 N   0  0  0  0  0  0  0  0  0  0  0  0
  183.9980  178.4260  144.8540 C   0  0  0  0  0  2  0  0  0  0  0  0
  191.2420  176.9390  145.8430 C   0  0  1  0  0  3  0  0  0  0  0  0
  191.6570  176.0850  146.8680 O   0  0  0  0  0  1  0  0  0  0  0  0
  190.2780  177.3040  141.3860 N   0  0  0  0  0  2  0  0  0  0  0  0
  189.1610  177.4100  143.4640 N   0  0  0  0  0  0  0  0  0  0  0  0
  185.0340  178.4260  142.5270 C   0  0  0  0  0  3  0  0  0  0  0  0
  187.0940  177.8860  146.5110 C   0  0  0  0  0  0  0  0  0  0  0  0
  185.7760  178.1710  146.5620 N   0  0  0  0  0  0  0  0  0  0  0  0
  191.6680  176.3430  144.5270 C   0  0  0  0  0  2  0  0  0  0  0  0
  186.2100  178.0070  143.0090 C   0  0  0  0  0  3  0  0  0  0  0  0
  191.6050  177.4280  143.4910 C   0  0  0  0  0  2  0  0  0  0  0  0
  189.7630  177.2450  145.9650 C   0  0  0  0  0  0  0  0  0  0  0  0
  189.2550  176.3460  139.3870 C   0  0  0  0  0  1  0  0  0  0  0  0
  189.0520  177.2360  140.6010 C   0  0  2  0  0  3  0  0  0  0  0  0
  188.6450  178.6050  140.1690 C   0  0  0  0  0  0  0  0  0  0  0  0
  188.9740  179.0490  138.8970 O   0  0  0  0  0  0  0  0  0  0  0  0
  188.0160  179.3640  140.9540 O   0  0  0  0  0  1  0  0  0  0  0  0
  1 15  1  0  0  0  0
  2  1  1  0  0  0  0
  2 20  2  0  0  0  0
  4  1  2  0  0  0  0
  4  8  1  0  0  0  0
  5 13  2  0  0  0  0
  5 19  1  0  0  0  0
  6  9  1  0  0  0  0
  7  3  2  0  0  0  0
  8 16  1  0  0  0  0
  9  8  1  0  0  0  0
 10 20  1  0  0  0  0
 10 11  1  1  0  0  0
 12  5  1  0  0  0  0
 13  2  1  0  0  0  0
 14 18  2  0  0  0  0
 14  6  1  0  0  0  0
 15 16  2  0  0  0  0
 15  3  1  0  0  0  0
 17 10  1  0  0  0  0
 18  4  1  0  0  0  0
 19 17  1  0  0  0  0
 20  7  1  0  0  0  0
 22 21  1  6  0  0  0
 22 12  1  0  0  0  0
 23 22  1  0  0  0  0
 23 25  1  0  0  0  0
 24 23  2  0  0  0  0
M  END
>  <MODEL>
1

>  <REMARK>
 VINA RESULT:      -9.8      0.000      0.000
  Name = 
  2 active torsions:
  status: ('A' for Active; 'I' for Inactive)
    1  A    between atoms: C_2  and  CA_25
    2  A    between atoms: N_15  and  CA_25
                            x       y       z     vdW  Elec       q    Type
                         _______ _______ _______ _____ _____    ______ ____

>  <TORSDO>
F 2

$$$$
=
 OpenBabel10262419563D

 25 28  0  0  1  0  0  0  0  0999 V2000
  189.7560  177.3620  143.7930 C   0  0  0  0  0  0  0  0  0  0  0  0
  188.7170  177.5220  144.7170 C   0  0  0  0  0  0  0  0  0  0  0  0
  191.4410  177.0600  145.4880 C   0  0  0  0  0  3  0  0  0  0  0  0
  189.7930  177.3730  142.4150 C   0  0  0  0  0  0  0  0  0  0  0  0
  186.2160  177.7250  144.7220 C   0  0  0  0  0  0  0  0  0  0  0  0
  190.3430  176.8770  139.6920 C   0  0  0  0  0  2  0  0  0  0  0  0
  190.4380  177.2270  146.4540 C   0  0  0  0  0  3  0  0  0  0  0  0
  191.0640  177.1620  142.0260 N   0  0  0  0  0  0  0  0  0  0  0  0
  191.5010  177.2530  140.6360 C   0  0  0  0  0  2  0  0  0  0  0  0
  188.1350  177.6010  147.2840 C   0  0  1  0  0  3  0  0  0  0  0  0
  188.7540  178.2430  148.3610 O   0  0  0  0  0  1  0  0  0  0  0  0
  185.0640  177.9850  143.9150 N   0  0  0  0  0  2  0  0  0  0  0  0
  187.3990  177.7470  144.1780 N   0  0  0  0  0  0  0  0  0  0  0  0
  189.0080  177.4330  140.1470 C   0  0  0  0  0  3  0  0  0  0  0  0
  191.0610  177.1390  144.1590 C   0  0  0  0  0  0  0  0  0  0  0  0
  191.8610  177.0300  143.0770 N   0  0  0  0  0  0  0  0  0  0  0  0
  186.8370  178.3100  146.9920 C   0  0  0  0  0  2  0  0  0  0  0  0
  188.7280  177.6200  141.4420 C   0  0  0  0  0  3  0  0  0  0  0  0
  185.9960  177.3970  146.1490 C   0  0  0  0  0  2  0  0  0  0  0  0
  189.0840  177.4840  146.1100 C   0  0  0  0  0  0  0  0  0  0  0  0
  185.7000  179.7270  142.3260 C   0  0  0  0  0  1  0  0  0  0  0  0
  185.1430  178.3250  142.5000 C   0  0  2  0  0  3  0  0  0  0  0  0
  183.7910  178.2310  141.8760 C   0  0  0  0  0  0  0  0  0  0  0  0
  182.7170  178.8860  142.4640 O   0  0  0  0  0  1  0  0  0  0  0  0
  183.6120  177.5540  140.8290 O   0  0  0  0  0  0  0  0  0  0  0  0
  1 15  1  0  0  0  0
  1  2  1  0  0  0  0
  2 20  2  0  0  0  0
  3  7  2  0  0  0  0
  4  1  2  0  0  0  0
  5 19  1  0  0  0  0
  6 14  1  0  0  0  0
  6  9  1  0  0  0  0
  8  4  1  0  0  0  0
  8 16  1  0  0  0  0
  9  8  1  0  0  0  0
 10 11  1  1  0  0  0
 12  5  1  0  0  0  0
 13  2  1  0  0  0  0
 13  5  2  0  0  0  0
 14 18  2  0  0  0  0
 15  3  1  0  0  0  0
 16 15  2  0  0  0  0
 17 10  1  0  0  0  0
 18  4  1  0  0  0  0
 19 17  1  0  0  0  0
 20  7  1  0  0  0  0
 20 10  1  0  0  0  0
 22 21  1  1  0  0  0
 22 12  1  0  0  0  0
 23 24  1  0  0  0  0
 23 22  1  0  0  0  0
 25 23  2  0  0  0  0
M  END
>  <MODEL>
2

>  <REMARK>
 VINA RESULT:      -9.2      2.070      5.047
  Name = 
  2 active torsions:
  status: ('A' for Active; 'I' for Inactive)
    1  A    between atoms: C_2  and  CA_25
    2  A    between atoms: N_15  and  CA_25
                            x       y       z     vdW  Elec       q    Type
                         _______ _______ _______ _____ _____    ______ ____

>  <TORSDO>
F 2

$$$$
=
 OpenBabel10262419563D

 25 28  0  0  1  0  0  0  0  0999 V2000
  185.9230  178.4160  142.3420 C   0  0  0  0  0  0  0  0  0  0  0  0
  186.9910  178.2240  141.4570 C   0  0  0  0  0  0  0  0  0  0  0  0
  184.3020  178.7140  140.5850 C   0  0  0  0  0  3  0  0  0  0  0  0
  185.8380  178.4270  143.7180 C   0  0  0  0  0  0  0  0  0  0  0  0
  189.4120  177.5720  141.5420 C   0  0  0  0  0  0  0  0  0  0  0  0
  185.0480  178.1220  146.4090 C   0  0  0  0  0  2  0  0  0  0  0  0
  185.3400  178.5410  139.6580 C   0  0  0  0  0  3  0  0  0  0  0  0
  184.5570  178.6530  144.0590 N   0  0  0  0  0  0  0  0  0  0  0  0
  184.1210  178.8750  145.4350 C   0  0  0  0  0  2  0  0  0  0  0  0
  187.6660  178.1240  138.9130 C   0  0  1  0  0  3  0  0  0  0  0  0
  187.3410  178.9460  137.8310 O   0  0  0  0  0  1  0  0  0  0  0  0
  190.5520  177.4210  142.3920 N   0  0  0  0  0  2  0  0  0  0  0  0
  188.2860  177.9860  142.0460 N   0  0  0  0  0  0  0  0  0  0  0  0
  186.5090  178.2000  146.0130 C   0  0  0  0  0  3  0  0  0  0  0  0
  184.6350  178.6480  141.9270 C   0  0  0  0  0  0  0  0  0  0  0  0
  183.8030  178.8060  142.9790 N   0  0  0  0  0  0  0  0  0  0  0  0
  189.1130  178.3510  139.2640 C   0  0  0  0  0  2  0  0  0  0  0  0
  186.8850  178.2920  144.7320 C   0  0  0  0  0  3  0  0  0  0  0  0
  189.5640  177.2010  140.1160 C   0  0  0  0  0  2  0  0  0  0  0  0
  186.6870  178.3230  140.0520 C   0  0  0  0  0  0  0  0  0  0  0  0
  191.0140  179.1830  144.0190 C   0  0  0  0  0  1  0  0  0  0  0  0
  190.5380  177.7560  143.8110 C   0  0  2  0  0  3  0  0  0  0  0  0
  191.4080  176.8100  144.5680 C   0  0  0  0  0  0  0  0  0  0  0  0
  191.8020  177.1260  145.8600 O   0  0  0  0  0  1  0  0  0  0  0  0
  191.7980  175.7350  144.0400 O   0  0  0  0  0  0  0  0  0  0  0  0
  1  4  2  0  0  0  0
  2 13  1  0  0  0  0
  2  1  1  0  0  0  0
  3 15  1  0  0  0  0
  4  8  1  0  0  0  0
  4 18  1  0  0  0  0
  5 13  2  0  0  0  0
  5 12  1  0  0  0  0
  7 20  1  0  0  0  0
  7  3  2  0  0  0  0
  8  9  1  0  0  0  0
  9  6  1  0  0  0  0
 10 11  1  6  0  0  0
 10 17  1  0  0  0  0
 10 20  1  0  0  0  0
 12 22  1  0  0  0  0
 14  6  1  0  0  0  0
 15  1  1  0  0  0  0
 15 16  2  0  0  0  0
 16  8  1  0  0  0  0
 17 19  1  0  0  0  0
 18 14  2  0  0  0  0
 19  5  1  0  0  0  0
 20  2  2  0  0  0  0
 22 21  1  6  0  0  0
 22 23  1  0  0  0  0
 23 24  1  0  0  0  0
 25 23  2  0  0  0  0
M  END
>  <MODEL>
3

>  <REMARK>
 VINA RESULT:      -9.1      1.657      5.263
  Name = 
  2 active torsions:
  status: ('A' for Active; 'I' for Inactive)
    1  A    between atoms: C_2  and  CA_25
    2  A    between atoms: N_15  and  CA_25
                            x       y       z     vdW  Elec       q    Type
                         _______ _______ _______ _____ _____    ______ ____

>  <TORSDO>
F 2

$$$$
=
 OpenBabel10262419563D

 25 28  0  0  1  0  0  0  0  0999 V2000
  186.6470  178.3820  142.4970 C   0  0  0  0  0  0  0  0  0  0  0  0
  186.9730  178.2050  143.8470 C   0  0  0  0  0  0  0  0  0  0  0  0
  184.4490  179.2480  142.9700 C   0  0  0  0  0  3  0  0  0  0  0  0
  187.3390  178.1460  141.3280 C   0  0  0  0  0  0  0  0  0  0  0  0
  188.9690  177.5840  145.2360 C   0  0  0  0  0  0  0  0  0  0  0  0
  188.4370  178.2640  138.7320 C   0  0  0  0  0  2  0  0  0  0  0  0
  184.7220  179.0770  144.3350 C   0  0  0  0  0  3  0  0  0  0  0  0
  186.5540  178.5030  140.2950 N   0  0  0  0  0  0  0  0  0  0  0  0
  186.9050  178.2540  138.9000 C   0  0  0  0  0  2  0  0  0  0  0  0
  186.0820  178.4610  146.3120 C   0  0  1  0  0  3  0  0  0  0  0  0
  184.8590  178.1250  146.9000 O   0  0  0  0  0  1  0  0  0  0  0  0
  190.2740  177.0000  145.2090 N   0  0  0  0  0  2  0  0  0  0  0  0
  188.2820  177.6730  144.1330 N   0  0  0  0  0  0  0  0  0  0  0  0
  189.1590  177.5730  139.8720 C   0  0  0  0  0  3  0  0  0  0  0  0
  185.4400  178.8830  142.0750 C   0  0  0  0  0  0  0  0  0  0  0  0
  185.3800  178.9430  140.7280 N   0  0  0  0  0  0  0  0  0  0  0  0
  187.1300  177.5030  146.8160 C   0  0  0  0  0  2  0  0  0  0  0  0
  188.6630  177.5620  141.1140 C   0  0  0  0  0  3  0  0  0  0  0  0
  188.4750  178.1050  146.5310 C   0  0  0  0  0  2  0  0  0  0  0  0
  185.9500  178.5400  144.8050 C   0  0  0  0  0  0  0  0  0  0  0  0
  191.7490  175.2540  144.3500 C   0  0  0  0  0  1  0  0  0  0  0  0
  190.8740  176.4450  144.0020 C   0  0  2  0  0  3  0  0  0  0  0  0
  191.6820  177.4880  143.3080 C   0  0  0  0  0  0  0  0  0  0  0  0
  192.0160  178.6570  143.9790 O   0  0  0  0  0  1  0  0  0  0  0  0
  192.0540  177.3250  142.1150 O   0  0  0  0  0  0  0  0  0  0  0  0
  1  2  1  0  0  0  0
  2 13  1  0  0  0  0
  2 20  2  0  0  0  0
  3  7  2  0  0  0  0
  4  1  2  0  0  0  0
  5 19  1  0  0  0  0
  6  9  1  0  0  0  0
  6 14  1  0  0  0  0
  7 20  1  0  0  0  0
  8 16  1  0  0  0  0
  8  4  1  0  0  0  0
  9  8  1  0  0  0  0
 10 17  1  0  0  0  0
 10 11  1  1  0  0  0
 12  5  1  0  0  0  0
 13  5  2  0  0  0  0
 14 18  2  0  0  0  0
 15  1  1  0  0  0  0
 15  3  1  0  0  0  0
 16 15  2  0  0  0  0
 18  4  1  0  0  0  0
 19 17  1  0  0  0  0
 20 10  1  0  0  0  0
 22 21  1  1  0  0  0
 22 12  1  0  0  0  0
 23 24  1  0  0  0  0
 23 22  1  0  0  0  0
 25 23  2  0  0  0  0
M  END
>  <MODEL>
4

>  <REMARK>
 VINA RESULT:      -8.9      2.437      4.862
  Name = 
  2 active torsions:
  status: ('A' for Active; 'I' for Inactive)
    1  A    between atoms: C_2  and  CA_25
    2  A    between atoms: N_15  and  CA_25
                            x       y       z     vdW  Elec       q    Type
                         _______ _______ _______ _____ _____    ______ ____

>  <TORSDO>
F 2

$$$$
=
 OpenBabel10262419563D

 25 28  0  0  1  0  0  0  0  0999 V2000
  188.2810  177.6170  146.0850 C   0  0  0  0  0  0  0  0  0  0  0  0
  187.3670  177.9060  145.0650 C   0  0  0  0  0  0  0  0  0  0  0  0
  186.7330  178.1530  147.8520 C   0  0  0  0  0  3  0  0  0  0  0  0
  189.5890  177.1810  146.0750 C   0  0  0  0  0  0  0  0  0  0  0  0
  187.2070  177.7060  142.5690 C   0  0  0  0  0  0  0  0  0  0  0  0
  192.0510  175.9120  146.6140 C   0  0  0  0  0  2  0  0  0  0  0  0
  185.7860  178.4690  146.8670 C   0  0  0  0  0  3  0  0  0  0  0  0
  190.0010  177.0550  147.3490 N   0  0  0  0  0  0  0  0  0  0  0  0
  191.3810  176.7530  147.7180 C   0  0  0  0  0  2  0  0  0  0  0  0
  184.9170  178.7300  144.5620 C   0  0  1  0  0  3  0  0  0  0  0  0
  184.1590  179.7770  145.0940 O   0  0  0  0  0  1  0  0  0  0  0  0
  187.9490  177.5040  141.3640 N   0  0  0  0  0  2  0  0  0  0  0  0
  187.8320  177.7330  143.7110 N   0  0  0  0  0  0  0  0  0  0  0  0
  191.6800  176.3710  145.2180 C   0  0  0  0  0  3  0  0  0  0  0  0
  187.9790  177.7320  147.4210 C   0  0  0  0  0  0  0  0  0  0  0  0
  189.0370  177.4010  148.1910 N   0  0  0  0  0  0  0  0  0  0  0  0
  185.3030  179.0920  143.1510 C   0  0  0  0  0  2  0  0  0  0  0  0
  190.4920  176.9260  144.9520 C   0  0  0  0  0  3  0  0  0  0  0  0
  185.7360  177.8330  142.4580 C   0  0  0  0  0  2  0  0  0  0  0  0
  186.0720  178.3840  145.4790 C   0  0  0  0  0  0  0  0  0  0  0  0
  190.0550  178.6060  141.9260 C   0  0  0  0  0  1  0  0  0  0  0  0
  189.4000  177.3700  141.3350 C   0  0  2  0  0  3  0  0  0  0  0  0
  189.8660  177.1660  139.9320 C   0  0  0  0  0  0  0  0  0  0  0  0
  190.5550  176.0080  139.6000 O   0  0  0  0  0  1  0  0  0  0  0  0
  189.6510  178.0400  139.0510 O   0  0  0  0  0  0  0  0  0  0  0  0
  1 15  1  0  0  0  0
  2 20  2  0  0  0  0
  2  1  1  0  0  0  0
  4  1  2  0  0  0  0
  4  8  1  0  0  0  0
  5 13  2  0  0  0  0
  6  9  1  0  0  0  0
  7  3  2  0  0  0  0
  8  9  1  0  0  0  0
  8 16  1  0  0  0  0
 10 11  1  1  0  0  0
 10 20  1  0  0  0  0
 12  5  1  0  0  0  0
 13  2  1  0  0  0  0
 14  6  1  0  0  0  0
 15  3  1  0  0  0  0
 15 16  2  0  0  0  0
 17 10  1  0  0  0  0
 18 14  2  0  0  0  0
 18  4  1  0  0  0  0
 19  5  1  0  0  0  0
 19 17  1  0  0  0  0
 20  7  1  0  0  0  0
 22 12  1  0  0  0  0
 22 21  1  6  0  0  0
 23 22  1  0  0  0  0
 24 23  1  0  0  0  0
 25 23  2  0  0  0  0
M  END
>  <MODEL>
5

>  <REMARK>
 VINA RESULT:      -8.9      2.154      4.805
  Name = 
  2 active torsions:
  status: ('A' for Active; 'I' for Inactive)
    1  A    between atoms: C_2  and  CA_25
    2  A    between atoms: N_15  and  CA_25
                            x       y       z     vdW  Elec       q    Type
                         _______ _______ _______ _____ _____    ______ ____

>  <TORSDO>
F 2

$$$$
=
 OpenBabel10262419563D

 25 28  0  0  1  0  0  0  0  0999 V2000
  186.5510  178.1880  144.4000 C   0  0  0  0  0  0  0  0  0  0  0  0
  186.7760  178.1820  143.0180 C   0  0  0  0  0  0  0  0  0  0  0  0
  184.2290  178.7940  144.1880 C   0  0  0  0  0  3  0  0  0  0  0  0
  187.3670  177.9360  145.4820 C   0  0  0  0  0  0  0  0  0  0  0  0
  188.5980  177.5570  141.4100 C   0  0  0  0  0  0  0  0  0  0  0  0
  188.4500  177.1140  147.9540 C   0  0  0  0  0  2  0  0  0  0  0  0
  184.4060  178.8150  142.7970 C   0  0  0  0  0  3  0  0  0  0  0  0
  186.6350  178.0760  146.6030 N   0  0  0  0  0  0  0  0  0  0  0  0
  187.2090  178.0270  147.9450 C   0  0  0  0  0  2  0  0  0  0  0  0
  185.6520  178.5770  140.6690 C   0  0  1  0  0  3  0  0  0  0  0  0
  184.8070  179.5850  140.1990 O   0  0  0  0  0  1  0  0  0  0  0  0
  189.9910  177.2610  141.2810 N   0  0  0  0  0  2  0  0  0  0  0  0
  188.1100  177.8530  142.5800 N   0  0  0  0  0  0  0  0  0  0  0  0
  189.3170  177.2850  146.7220 C   0  0  0  0  0  3  0  0  0  0  0  0
  185.3320  178.4790  144.9620 C   0  0  0  0  0  0  0  0  0  0  0  0
  185.3900  178.4230  146.3100 N   0  0  0  0  0  0  0  0  0  0  0  0
  187.0040  178.7510  140.0260 C   0  0  0  0  0  2  0  0  0  0  0  0
  188.7960  177.6240  145.5380 C   0  0  0  0  0  3  0  0  0  0  0  0
  187.7600  177.4660  140.1920 C   0  0  0  0  0  2  0  0  0  0  0  0
  185.6580  178.5430  142.1840 C   0  0  0  0  0  0  0  0  0  0  0  0
  192.3250  177.6280  141.8990 C   0  0  0  0  0  1  0  0  0  0  0  0
  190.9240  177.3200  142.3990 C   0  0  2  0  0  3  0  0  0  0  0  0
  190.9180  176.0240  143.1370 C   0  0  0  0  0  0  0  0  0  0  0  0
  191.7650  175.8490  144.2230 O   0  0  0  0  0  1  0  0  0  0  0  0
  190.1610  175.0830  142.7770 O   0  0  0  0  0  0  0  0  0  0  0  0
  1 15  1  0  0  0  0
  1  4  2  0  0  0  0
  2  1  1  0  0  0  0
  3 15  1  0  0  0  0
  4 18  1  0  0  0  0
  4  8  1  0  0  0  0
  5 13  2  0  0  0  0
  7  3  2  0  0  0  0
  8  9  1  0  0  0  0
  9  6  1  0  0  0  0
 10 11  1  1  0  0  0
 10 20  1  0  0  0  0
 12  5  1  0  0  0  0
 12 22  1  0  0  0  0
 13  2  1  0  0  0  0
 14  6  1  0  0  0  0
 15 16  2  0  0  0  0
 16  8  1  0  0  0  0
 17 19  1  0  0  0  0
 17 10  1  0  0  0  0
 18 14  2  0  0  0  0
 19  5  1  0  0  0  0
 20  7  1  0  0  0  0
 20  2  2  0  0  0  0
 22 21  1  6  0  0  0
 22 23  1  0  0  0  0
 23 24  1  0  0  0  0
 25 23  2  0  0  0  0
M  END
>  <MODEL>
6

>  <REMARK>
 VINA RESULT:      -8.8      1.590      4.915
  Name = 
  2 active torsions:
  status: ('A' for Active; 'I' for Inactive)
    1  A    between atoms: C_2  and  CA_25
    2  A    between atoms: N_15  and  CA_25
                            x       y       z     vdW  Elec       q    Type
                         _______ _______ _______ _____ _____    ______ ____

>  <TORSDO>
F 2

$$$$
=
 OpenBabel10262419563D

 25 28  0  0  1  0  0  0  0  0999 V2000
  187.9060  177.7760  142.9880 C   0  0  0  0  0  0  0  0  0  0  0  0
  186.6180  178.1410  143.3960 C   0  0  0  0  0  0  0  0  0  0  0  0
  188.7230  177.5040  145.2370 C   0  0  0  0  0  3  0  0  0  0  0  0
  188.4870  177.6260  141.7470 C   0  0  0  0  0  0  0  0  0  0  0  0
  184.3730  178.5870  142.3690 C   0  0  0  0  0  0  0  0  0  0  0  0
  189.9980  176.7720  139.5220 C   0  0  0  0  0  2  0  0  0  0  0  0
  187.4530  177.8780  145.6980 C   0  0  0  0  0  3  0  0  0  0  0  0
  189.7660  177.2480  141.9230 N   0  0  0  0  0  0  0  0  0  0  0  0
  190.7270  177.1380  140.8290 C   0  0  0  0  0  2  0  0  0  0  0  0
  185.0820  178.5680  145.4930 C   0  0  1  0  0  3  0  0  0  0  0  0
  185.3060  179.2640  146.6850 O   0  0  0  0  0  1  0  0  0  0  0  0
  183.6810  178.8660  141.1490 N   0  0  0  0  0  2  0  0  0  0  0  0
  185.6650  178.4310  142.3540 N   0  0  0  0  0  0  0  0  0  0  0  0
  188.6820  177.5050  139.3560 C   0  0  0  0  0  3  0  0  0  0  0  0
  188.9150  177.4680  143.8670 C   0  0  0  0  0  0  0  0  0  0  0  0
  190.0560  177.1590  143.2140 N   0  0  0  0  0  0  0  0  0  0  0  0
  184.1160  179.3630  144.6530 C   0  0  0  0  0  2  0  0  0  0  0  0
  187.9390  177.8640  140.4100 C   0  0  0  0  0  3  0  0  0  0  0  0
  183.5630  178.4460  143.6010 C   0  0  0  0  0  2  0  0  0  0  0  0
  186.3940  178.2250  144.8180 C   0  0  0  0  0  0  0  0  0  0  0  0
  183.7420  180.1840  139.0930 C   0  0  0  0  0  1  0  0  0  0  0  0
  184.3600  179.0340  139.8690 C   0  0  2  0  0  3  0  0  0  0  0  0
  184.2700  177.7740  139.0750 C   0  0  0  0  0  0  0  0  0  0  0  0
  185.1440  177.5670  138.0160 O   0  0  0  0  0  0  0  0  0  0  0  0
  183.4010  176.9040  139.3470 O   0  0  0  0  0  1  0  0  0  0  0  0
  1  2  1  0  0  0  0
  1 15  1  0  0  0  0
  2 20  2  0  0  0  0
  3  7  2  0  0  0  0
  4  8  1  0  0  0  0
  4  1  2  0  0  0  0
  5 19  1  0  0  0  0
  6  9  1  0  0  0  0
  8 16  1  0  0  0  0
  9  8  1  0  0  0  0
 10 11  1  1  0  0  0
 12  5  1  0  0  0  0
 13  5  2  0  0  0  0
 13  2  1  0  0  0  0
 14  6  1  0  0  0  0
 14 18  2  0  0  0  0
 15  3  1  0  0  0  0
 16 15  2  0  0  0  0
 17 10  1  0  0  0  0
 18  4  1  0  0  0  0
 19 17  1  0  0  0  0
 20 10  1  0  0  0  0
 20  7  1  0  0  0  0
 22 21  1  6  0  0  0
 22 12  1  0  0  0  0
 23 25  1  0  0  0  0
 23 22  1  0  0  0  0
 24 23  2  0  0  0  0
M  END
>  <MODEL>
7

>  <REMARK>
 VINA RESULT:      -8.7      2.626      5.429
  Name = 
  2 active torsions:
  status: ('A' for Active; 'I' for Inactive)
    1  A    between atoms: C_2  and  CA_25
    2  A    between atoms: N_15  and  CA_25
                            x       y       z     vdW  Elec       q    Type
                         _______ _______ _______ _____ _____    ______ ____

>  <TORSDO>
F 2

$$$$
=
 OpenBabel10262419563D

 25 28  0  0  1  0  0  0  0  0999 V2000
  189.3180  177.4270  144.2100 C   0  0  0  0  0  0  0  0  0  0  0  0
  189.1420  177.5820  142.8300 C   0  0  0  0  0  0  0  0  0  0  0  0
  191.6810  176.9950  144.0290 C   0  0  0  0  0  3  0  0  0  0  0  0
  188.4490  177.4990  145.2790 C   0  0  0  0  0  0  0  0  0  0  0  0
  187.3400  178.2790  141.2280 C   0  0  0  0  0  0  0  0  0  0  0  0
  187.2270  177.9550  147.7800 C   0  0  0  0  0  2  0  0  0  0  0  0
  191.5540  177.1280  142.6390 C   0  0  0  0  0  3  0  0  0  0  0  0
  189.1490  177.2730  146.4060 N   0  0  0  0  0  0  0  0  0  0  0  0
  188.5260  177.1290  147.7180 C   0  0  0  0  0  2  0  0  0  0  0  0
  190.3710  177.5380  140.5010 C   0  0  1  0  0  3  0  0  0  0  0  0
  191.2970  176.6460  139.9540 O   0  0  0  0  0  1  0  0  0  0  0  0
  185.9360  178.5000  141.0750 N   0  0  0  0  0  2  0  0  0  0  0  0
  187.8050  177.8770  142.3760 N   0  0  0  0  0  0  0  0  0  0  0  0
  186.4180  177.8780  146.5010 C   0  0  0  0  0  3  0  0  0  0  0  0
  190.5330  177.1480  144.7870 C   0  0  0  0  0  0  0  0  0  0  0  0
  190.4240  177.0410  146.1280 N   0  0  0  0  0  0  0  0  0  0  0  0
  189.0570  177.3560  139.7850 C   0  0  0  0  0  2  0  0  0  0  0  0
  187.0020  177.7130  145.3080 C   0  0  0  0  0  3  0  0  0  0  0  0
  188.2120  178.5650  140.0660 C   0  0  0  0  0  2  0  0  0  0  0  0
  190.3100  177.3920  142.0080 C   0  0  0  0  0  0  0  0  0  0  0  0
  183.6040  177.9500  141.5470 C   0  0  0  0  0  1  0  0  0  0  0  0
  184.9690  178.2530  142.1380 C   0  0  2  0  0  3  0  0  0  0  0  0
  184.8860  179.4390  143.0380 C   0  0  0  0  0  0  0  0  0  0  0  0
  183.9820  179.4390  144.0920 O   0  0  0  0  0  1  0  0  0  0  0  0
  185.6180  180.4460  142.8440 O   0  0  0  0  0  0  0  0  0  0  0  0
  1 15  1  0  0  0  0
  1  4  2  0  0  0  0
  2  1  1  0  0  0  0
  3 15  1  0  0  0  0
  4 18  1  0  0  0  0
  4  8  1  0  0  0  0
  5 13  2  0  0  0  0
  7  3  2  0  0  0  0
  8  9  1  0  0  0  0
  9  6  1  0  0  0  0
 10 11  1  6  0  0  0
 10 20  1  0  0  0  0
 12  5  1  0  0  0  0
 12 22  1  0  0  0  0
 13  2  1  0  0  0  0
 14  6  1  0  0  0  0
 15 16  2  0  0  0  0
 16  8  1  0  0  0  0
 17 19  1  0  0  0  0
 17 10  1  0  0  0  0
 18 14  2  0  0  0  0
 19  5  1  0  0  0  0
 20  7  1  0  0  0  0
 20  2  2  0  0  0  0
 22 21  1  6  0  0  0
 22 23  1  0  0  0  0
 23 24  1  0  0  0  0
 25 23  2  0  0  0  0
M  END
>  <MODEL>
8

>  <REMARK>
 VINA RESULT:      -8.5      2.268      4.634
  Name = 
  2 active torsions:
  status: ('A' for Active; 'I' for Inactive)
    1  A    between atoms: C_2  and  CA_25
    2  A    between atoms: N_15  and  CA_25
                            x       y       z     vdW  Elec       q    Type
                         _______ _______ _______ _____ _____    ______ ____

>  <TORSDO>
F 2

$$$$
=
 OpenBabel10262419563D

 25 28  0  0  1  0  0  0  0  0999 V2000
  185.7140  178.1820  143.0780 C   0  0  0  0  0  0  0  0  0  0  0  0
  187.0820  177.8870  143.1150 C   0  0  0  0  0  0  0  0  0  0  0  0
  185.5120  178.3370  145.4740 C   0  0  0  0  0  3  0  0  0  0  0  0
  184.8160  178.3310  142.0430 C   0  0  0  0  0  0  0  0  0  0  0  0
  188.9920  177.6120  141.5120 C   0  0  0  0  0  0  0  0  0  0  0  0
  182.7240  179.1510  140.3360 C   0  0  0  0  0  2  0  0  0  0  0  0
  186.8770  178.0310  145.5650 C   0  0  0  0  0  3  0  0  0  0  0  0
  183.6120  178.6220  142.5670 N   0  0  0  0  0  0  0  0  0  0  0  0
  182.3900  178.7040  141.7720 C   0  0  0  0  0  2  0  0  0  0  0  0
  189.1400  177.4970  144.7110 C   0  0  1  0  0  3  0  0  0  0  0  0
  189.2800  176.7550  145.8870 O   0  0  0  0  0  1  0  0  0  0  0  0
  189.3470  177.4130  140.1420 N   0  0  0  0  0  2  0  0  0  0  0  0
  187.7360  177.6880  141.8460 N   0  0  0  0  0  0  0  0  0  0  0  0
  183.9860  178.5080  139.7960 C   0  0  0  0  0  3  0  0  0  0  0  0
  184.9600  178.4000  144.2060 C   0  0  0  0  0  0  0  0  0  0  0  0
  183.6730  178.6560  143.8910 N   0  0  0  0  0  0  0  0  0  0  0  0
  189.8890  176.7890  143.6110 C   0  0  0  0  0  2  0  0  0  0  0  0
  185.0000  178.1660  140.6000 C   0  0  0  0  0  3  0  0  0  0  0  0
  190.0920  177.7680  142.4920 C   0  0  0  0  0  2  0  0  0  0  0  0
  187.6800  177.7760  144.4220 C   0  0  0  0  0  0  0  0  0  0  0  0
  188.8120  176.1550  138.1180 C   0  0  0  0  0  1  0  0  0  0  0  0
  188.3630  177.2400  139.0810 C   0  0  2  0  0  3  0  0  0  0  0  0
  188.1690  178.5250  138.3490 C   0  0  0  0  0  0  0  0  0  0  0  0
  187.0070  178.7300  137.6180 O   0  0  0  0  0  0  0  0  0  0  0  0
  189.0560  179.4200  138.3780 O   0  0  0  0  0  1  0  0  0  0  0  0
  1  2  1  0  0  0  0
  1 15  1  0  0  0  0
  2 20  2  0  0  0  0
  3  7  2  0  0  0  0
  4  8  1  0  0  0  0
  4  1  2  0  0  0  0
  5 13  2  0  0  0  0
  5 19  1  0  0  0  0
  6  9  1  0  0  0  0
  8 16  1  0  0  0  0
  9  8  1  0  0  0  0
 10 11  1  1  0  0  0
 12  5  1  0  0  0  0
 13  2  1  0  0  0  0
 14  6  1  0  0  0  0
 14 18  2  0  0  0  0
 15  3  1  0  0  0  0
 16 15  2  0  0  0  0
 17 10  1  0  0  0  0
 18  4  1  0  0  0  0
 19 17  1  0  0  0  0
 20 10  1  0  0  0  0
 20  7  1  0  0  0  0
 22 21  1  6  0  0  0
 22 12  1  0  0  0  0
 23 25  1  0  0  0  0
 23 22  1  0  0  0  0
 24 23  2  0  0  0  0
M  END
>  <MODEL>
9

>  <REMARK>
 VINA RESULT:      -8.5      1.787      2.641
  Name = 
  2 active torsions:
  status: ('A' for Active; 'I' for Inactive)
    1  A    between atoms: C_2  and  CA_25
    2  A    between atoms: N_15  and  CA_25
                            x       y       z     vdW  Elec       q    Type
                         _______ _______ _______ _____ _____    ______ ____

>  <TORSDO>
F 2

$$$$
