=
 OpenBabel10262423253D

 34 37  0  0  1  0  0  0  0  0999 V2000
  183.6720  177.8490  138.7210 N   0  0  0  0  0  0  0  0  0  0  0  0
  186.4310  176.4080  136.5500 C   0  0  0  0  0  3  0  0  0  0  0  0
  184.2600  175.4640  137.0110 C   0  0  0  0  0  2  0  0  0  0  0  0
  181.6680  176.4400  139.3770 C   0  0  0  0  0  3  0  0  0  0  0  0
  181.2650  175.2020  139.0040 N   0  0  0  0  0  2  0  0  0  0  0  0
  183.1020  175.5900  137.9460 C   0  0  0  0  0  0  0  0  0  0  0  0
  182.8400  176.6890  138.6980 C   0  0  0  0  0  0  0  0  0  0  0  0
  182.1270  174.6870  138.1340 N   0  0  0  0  0  0  0  0  0  0  0  0
  185.2500  176.5990  137.1600 C   0  0  0  0  0  0  0  0  0  0  0  0
  185.6110  178.8580  137.9130 O   0  0  0  0  0  0  0  0  0  0  0  0
  184.8820  177.8310  137.9380 C   0  0  0  0  0  0  0  0  0  0  0  0
  187.6150  177.3260  136.5100 C   0  0  2  0  0  3  0  0  0  0  0  0
  188.2330  177.2990  135.2710 F   0  0  0  0  0  0  0  0  0  0  0  0
  188.5910  177.0330  137.6400 C   0  0  0  0  0  2  0  0  0  0  0  0
  188.9950  178.2950  138.3200 C   0  0  0  0  0  0  0  0  0  0  0  0
  189.3040  178.2870  139.6740 O   0  0  0  0  0  1  0  0  0  0  0  0
  189.0270  179.3760  137.6750 O   0  0  0  0  0  0  0  0  0  0  0  0
  183.3420  178.9850  139.5760 C   0  0  0  0  0  2  0  0  0  0  0  0
  184.2650  179.0310  140.7450 C   0  0  0  0  0  0  0  0  0  0  0  0
  185.3050  179.7400  140.6840 O   0  0  0  0  0  0  0  0  0  0  0  0
  183.9300  178.3010  141.9310 N   0  0  0  0  0  2  0  0  0  0  0  0
  184.7070  178.7100  145.5560 C   0  0  0  0  0  3  0  0  0  0  0  0
  185.9980  177.8440  143.2240 C   0  0  0  0  0  3  0  0  0  0  0  0
  188.0580  177.8300  146.8590 C   0  0  0  0  0  0  0  0  0  0  0  0
  186.7290  178.2680  146.8210 C   0  0  0  0  0  3  0  0  0  0  0  0
  186.0330  178.2760  145.6130 C   0  0  0  0  0  0  0  0  0  0  0  0
  187.9760  177.4200  144.4970 N   0  0  0  0  0  0  0  0  0  0  0  0
  186.6840  177.8400  144.4410 C   0  0  0  0  0  0  0  0  0  0  0  0
  188.6670  177.4060  145.6700 C   0  0  0  0  0  3  0  0  0  0  0  0
  184.6640  178.2800  143.1630 C   0  0  0  0  0  0  0  0  0  0  0  0
  184.0280  178.7110  144.3330 C   0  0  0  0  0  3  0  0  0  0  0  0
  188.8090  177.8140  148.1250 C   0  0  0  0  0  0  0  0  0  0  0  0
  190.1530  177.4560  148.1370 O   0  0  0  0  0  0  0  0  0  0  0  0
  188.2430  178.1250  149.2070 O   0  0  0  0  0  1  0  0  0  0  0  0
  1 18  1  0  0  0  0
  2  9  2  0  0  0  0
  3  9  1  0  0  0  0
  3  6  1  0  0  0  0
  5  4  1  0  0  0  0
  6  8  2  0  0  0  0
  6  7  1  0  0  0  0
  7  1  1  0  0  0  0
  7  4  2  0  0  0  0
  8  5  1  0  0  0  0
  9 11  1  0  0  0  0
 10 11  2  0  0  0  0
 11  1  1  0  0  0  0
 12 13  1  6  0  0  0
 12  2  1  0  0  0  0
 12 14  1  0  0  0  0
 14 15  1  0  0  0  0
 15 16  1  0  0  0  0
 17 15  2  0  0  0  0
 18 19  1  0  0  0  0
 19 21  1  0  0  0  0
 20 19  2  0  0  0  0
 21 30  1  0  0  0  0
 22 26  1  0  0  0  0
 23 28  1  0  0  0  0
 24 32  1  0  0  0  0
 25 24  1  0  0  0  0
 26 25  2  0  0  0  0
 27 29  1  0  0  0  0
 28 27  2  0  0  0  0
 28 26  1  0  0  0  0
 29 24  2  0  0  0  0
 30 23  2  0  0  0  0
 30 31  1  0  0  0  0
 31 22  2  0  0  0  0
 32 33  2  0  0  0  0
 32 34  1  0  0  0  0
M  END
>  <MODEL>
1

>  <REMARK>
 VINA RESULT:      -8.9      0.000      0.000
  Name = 
  7 active torsions:
  status: ('A' for Active; 'I' for Inactive)
    1  A    between atoms: N_1  and  C_9
    2  A    between atoms: C_2  and  C_23
    3  A    between atoms: C_3  and  C_27
    4  A    between atoms: C_7  and  C_11
    5  A    between atoms: C_8  and  C_9
    6  A    between atoms: N_18  and  C_30
    7  A    between atoms: C_23  and  C_27
                            x       y       z     vdW  Elec       q    Type
                         _______ _______ _______ _____ _____    ______ ____

>  <TORSDO>
F 7

$$$$
=
 OpenBabel10262423253D

 34 37  0  0  1  0  0  0  0  0999 V2000
  182.2720  177.9100  139.5600 N   0  0  0  0  0  0  0  0  0  0  0  0
  182.9750  174.5640  137.9130 C   0  0  0  0  0  3  0  0  0  0  0  0
  180.9900  175.2440  139.1030 C   0  0  0  0  0  2  0  0  0  0  0  0
  180.2880  178.2000  141.1120 C   0  0  0  0  0  3  0  0  0  0  0  0
  179.2570  177.3830  141.4350 N   0  0  0  0  0  2  0  0  0  0  0  0
  180.4880  176.2930  140.0410 C   0  0  0  0  0  0  0  0  0  0  0  0
  181.0720  177.5050  140.2190 C   0  0  0  0  0  0  0  0  0  0  0  0
  179.3730  176.2290  140.7840 N   0  0  0  0  0  0  0  0  0  0  0  0
  182.3560  175.5770  138.5410 C   0  0  0  0  0  0  0  0  0  0  0  0
  183.9640  177.3080  138.0740 O   0  0  0  0  0  0  0  0  0  0  0  0
  182.9250  176.9590  138.6960 C   0  0  0  0  0  0  0  0  0  0  0  0
  184.3230  174.5630  137.2570 C   0  0  2  0  0  3  0  0  0  0  0  0
  184.2270  174.8420  135.9040 F   0  0  0  0  0  0  0  0  0  0  0  0
  185.0730  173.2650  137.5180 C   0  0  0  0  0  2  0  0  0  0  0  0
  186.5360  173.4600  137.3190 C   0  0  0  0  0  0  0  0  0  0  0  0
  187.0570  174.7420  137.2030 O   0  0  0  0  0  0  0  0  0  0  0  0
  187.2970  172.4610  137.2250 O   0  0  0  0  0  1  0  0  0  0  0  0
  182.8590  179.2200  139.8210 C   0  0  0  0  0  2  0  0  0  0  0  0
  183.9530  179.1020  140.8240 C   0  0  0  0  0  0  0  0  0  0  0  0
  185.1030  179.5310  140.5390 O   0  0  0  0  0  0  0  0  0  0  0  0
  183.6680  178.5380  142.1100 N   0  0  0  0  0  2  0  0  0  0  0  0
  185.0200  178.7150  145.5810 C   0  0  0  0  0  3  0  0  0  0  0  0
  185.8630  177.8630  143.0470 C   0  0  0  0  0  3  0  0  0  0  0  0
  188.4460  177.5190  146.3140 C   0  0  0  0  0  0  0  0  0  0  0  0
  187.1680  178.0590  146.4990 C   0  0  0  0  0  3  0  0  0  0  0  0
  186.2980  178.1780  145.4150 C   0  0  0  0  0  0  0  0  0  0  0  0
  187.9700  177.2280  143.9810 N   0  0  0  0  0  0  0  0  0  0  0  0
  186.7240  177.7490  144.1420 C   0  0  0  0  0  0  0  0  0  0  0  0
  188.8280  177.1060  145.0310 C   0  0  0  0  0  3  0  0  0  0  0  0
  184.5770  178.4020  143.2110 C   0  0  0  0  0  0  0  0  0  0  0  0
  184.1650  178.8250  144.4800 C   0  0  0  0  0  3  0  0  0  0  0  0
  189.3770  177.3860  147.4460 C   0  0  0  0  0  0  0  0  0  0  0  0
  189.2610  178.2230  148.5510 O   0  0  0  0  0  1  0  0  0  0  0  0
  190.2870  176.5150  147.4250 O   0  0  0  0  0  0  0  0  0  0  0  0
  1 18  1  0  0  0  0
  1  7  1  0  0  0  0
  2  9  2  0  0  0  0
  3  6  1  0  0  0  0
  4  5  1  0  0  0  0
  6  7  1  0  0  0  0
  6  8  2  0  0  0  0
  7  4  2  0  0  0  0
  8  5  1  0  0  0  0
  9 11  1  0  0  0  0
  9  3  1  0  0  0  0
 10 11  2  0  0  0  0
 11  1  1  0  0  0  0
 12 13  1  6  0  0  0
 12 14  1  0  0  0  0
 12  2  1  0  0  0  0
 15 14  1  0  0  0  0
 16 15  2  0  0  0  0
 17 15  1  0  0  0  0
 18 19  1  0  0  0  0
 19 21  1  0  0  0  0
 20 19  2  0  0  0  0
 21 30  1  0  0  0  0
 23 30  2  0  0  0  0
 23 28  1  0  0  0  0
 24 25  1  0  0  0  0
 24 32  1  0  0  0  0
 26 22  1  0  0  0  0
 26 25  2  0  0  0  0
 27 28  2  0  0  0  0
 27 29  1  0  0  0  0
 28 26  1  0  0  0  0
 29 24  2  0  0  0  0
 30 31  1  0  0  0  0
 31 22  2  0  0  0  0
 32 33  1  0  0  0  0
 34 32  2  0  0  0  0
M  END
>  <MODEL>
2

>  <REMARK>
 VINA RESULT:      -8.6      2.347      2.984
  Name = 
  7 active torsions:
  status: ('A' for Active; 'I' for Inactive)
    1  A    between atoms: N_1  and  C_9
    2  A    between atoms: C_2  and  C_23
    3  A    between atoms: C_3  and  C_27
    4  A    between atoms: C_7  and  C_11
    5  A    between atoms: C_8  and  C_9
    6  A    between atoms: N_18  and  C_30
    7  A    between atoms: C_23  and  C_27
                            x       y       z     vdW  Elec       q    Type
                         _______ _______ _______ _____ _____    ______ ____

>  <TORSDO>
F 7

$$$$
=
 OpenBabel10262423253D

 34 37  0  0  1  0  0  0  0  0999 V2000
  190.0950  176.3670  137.1690 N   0  0  0  0  0  0  0  0  0  0  0  0
  192.9090  173.8250  137.3100 C   0  0  0  0  0  3  0  0  0  0  0  0
  190.5800  173.4340  136.8190 C   0  0  0  0  0  2  0  0  0  0  0  0
  187.6750  175.6180  137.0590 C   0  0  0  0  0  3  0  0  0  0  0  0
  187.1060  174.3970  136.9160 N   0  0  0  0  0  0  0  0  0  0  0  0
  189.2370  174.0800  136.9210 C   0  0  0  0  0  0  0  0  0  0  0  0
  189.0370  175.4150  137.0580 C   0  0  1  0  0  3  0  0  0  0  0  0
  188.0480  173.4640  136.8280 N   0  0  0  0  0  0  0  0  0  0  0  0
  191.7090  174.3970  137.1210 C   0  0  0  0  0  0  0  0  0  0  0  0
  192.4010  176.7010  137.2410 O   0  0  0  0  0  0  0  0  0  0  0  0
  191.4500  175.8760  137.1840 C   0  0  0  0  0  0  0  0  0  0  0  0
  194.2150  174.4890  137.6270 C   0  0  2  0  0  3  0  0  0  0  0  0
  194.8640  174.9020  136.4760 F   0  0  0  0  0  0  0  0  0  0  0  0
  195.0990  173.6040  138.4940 C   0  0  0  0  0  2  0  0  0  0  0  0
  196.1890  174.4060  139.1160 C   0  0  0  0  0  0  0  0  0  0  0  0
  195.8990  175.2990  140.1390 O   0  0  0  0  0  1  0  0  0  0  0  0
  197.3700  174.2980  138.6930 O   0  0  0  0  0  0  0  0  0  0  0  0
  189.8040  177.7860  137.3420 C   0  0  0  0  0  2  0  0  0  0  0  0
  189.4940  178.0760  138.7700 C   0  0  0  0  0  0  0  0  0  0  0  0
  188.6930  179.0060  139.0530 O   0  0  0  0  0  0  0  0  0  0  0  0
  190.0840  177.2640  139.7930 N   0  0  0  0  0  2  0  0  0  0  0  0
  190.7720  177.6370  143.4390 C   0  0  0  0  0  3  0  0  0  0  0  0
  188.5630  177.2720  141.7530 C   0  0  0  0  0  3  0  0  0  0  0  0
  187.9930  177.5510  145.8830 C   0  0  0  0  0  0  0  0  0  0  0  0
  189.2870  177.6410  145.3580 C   0  0  0  0  0  3  0  0  0  0  0  0
  189.4880  177.5500  143.9810 C   0  0  0  0  0  0  0  0  0  0  0  0
  187.1260  177.2790  143.6630 N   0  0  0  0  0  0  0  0  0  0  0  0
  188.3760  177.3660  143.1340 C   0  0  0  0  0  0  0  0  0  0  0  0
  186.9160  177.3680  145.0050 C   0  0  0  0  0  3  0  0  0  0  0  0
  189.8530  177.3600  141.2050 C   0  0  0  0  0  0  0  0  0  0  0  0
  190.9510  177.5420  142.0550 C   0  0  0  0  0  3  0  0  0  0  0  0
  187.7610  177.6450  147.3340 C   0  0  0  0  0  0  0  0  0  0  0  0
  186.9860  178.6770  147.8530 O   0  0  0  0  0  0  0  0  0  0  0  0
  188.2610  176.7940  148.1160 O   0  0  0  0  0  1  0  0  0  0  0  0
  1 11  1  0  0  0  0
  1 18  1  0  0  0  0
  2 12  1  0  0  0  0
  3  6  1  0  0  0  0
  3  9  1  0  0  0  0
  5  4  2  0  0  0  0
  6  7  1  0  0  0  0
  7  4  1  6  0  0  0
  7  1  1  0  0  0  0
  8  5  1  0  0  0  0
  8  6  2  0  0  0  0
  9 11  1  0  0  0  0
  9  2  2  0  0  0  0
 11 10  2  0  0  0  0
 12 13  1  6  0  0  0
 12 14  1  0  0  0  0
 14 15  1  0  0  0  0
 15 16  1  0  0  0  0
 17 15  2  0  0  0  0
 18 19  1  0  0  0  0
 19 20  2  0  0  0  0
 19 21  1  0  0  0  0
 21 30  1  0  0  0  0
 22 26  1  0  0  0  0
 23 28  1  0  0  0  0
 24 32  1  0  0  0  0
 25 24  1  0  0  0  0
 26 25  2  0  0  0  0
 27 29  1  0  0  0  0
 28 27  2  0  0  0  0
 28 26  1  0  0  0  0
 29 24  2  0  0  0  0
 30 23  2  0  0  0  0
 30 31  1  0  0  0  0
 31 22  2  0  0  0  0
 32 33  2  0  0  0  0
 32 34  1  0  0  0  0
M  END
>  <MODEL>
3

>  <REMARK>
 VINA RESULT:      -8.4      4.399      5.917
  Name = 
  7 active torsions:
  status: ('A' for Active; 'I' for Inactive)
    1  A    between atoms: N_1  and  C_9
    2  A    between atoms: C_2  and  C_23
    3  A    between atoms: C_3  and  C_27
    4  A    between atoms: C_7  and  C_11
    5  A    between atoms: C_8  and  C_9
    6  A    between atoms: N_18  and  C_30
    7  A    between atoms: C_23  and  C_27
                            x       y       z     vdW  Elec       q    Type
                         _______ _______ _______ _____ _____    ______ ____

>  <TORSDO>
F 7

$$$$
=
 OpenBabel10262423253D

 34 37  0  0  1  0  0  0  0  0999 V2000
  179.4380  179.1420  141.0460 N   0  0  0  0  0  0  0  0  0  0  0  0
  180.2750  180.8960  137.7880 C   0  0  0  0  0  3  0  0  0  0  0  0
  179.7690  178.5620  138.1290 C   0  0  0  0  0  2  0  0  0  0  0  0
  179.3780  176.6100  141.1790 C   0  0  0  0  0  3  0  0  0  0  0  0
  179.4810  175.6470  140.2330 N   0  0  0  0  0  0  0  0  0  0  0  0
  179.6610  177.5320  139.2050 C   0  0  0  0  0  0  0  0  0  0  0  0
  179.4890  177.8150  140.5220 C   0  0  1  0  0  3  0  0  0  0  0  0
  179.6470  176.2020  139.0360 N   0  0  0  0  0  0  0  0  0  0  0  0
  179.9060  179.9650  138.6820 C   0  0  0  0  0  0  0  0  0  0  0  0
  179.5470  181.4200  140.5670 O   0  0  0  0  0  0  0  0  0  0  0  0
  179.6270  180.2400  140.1330 C   0  0  0  0  0  0  0  0  0  0  0  0
  180.5010  182.3610  138.0100 C   0  0  2  0  0  3  0  0  0  0  0  0
  179.3240  183.0080  138.3450 F   0  0  0  0  0  0  0  0  0  0  0  0
  181.1890  183.0110  136.8190 C   0  0  0  0  0  2  0  0  0  0  0  0
  181.4120  184.4610  137.0730 C   0  0  0  0  0  0  0  0  0  0  0  0
  180.5350  185.4020  136.5480 O   0  0  0  0  0  0  0  0  0  0  0  0
  182.4120  184.8370  137.7390 O   0  0  0  0  0  1  0  0  0  0  0  0
  179.2780  179.3700  142.4790 C   0  0  0  0  0  2  0  0  0  0  0  0
  180.4880  178.9030  143.2110 C   0  0  0  0  0  0  0  0  0  0  0  0
  180.3610  178.0810  144.1570 O   0  0  0  0  0  0  0  0  0  0  0  0
  181.7790  179.3670  142.7980 N   0  0  0  0  0  2  0  0  0  0  0  0
  185.2600  178.0420  142.9750 C   0  0  0  0  0  3  0  0  0  0  0  0
  183.3430  179.1240  144.7090 C   0  0  0  0  0  3  0  0  0  0  0  0
  187.0640  177.9530  146.2060 C   0  0  0  0  0  0  0  0  0  0  0  0
  186.7900  177.8000  144.8420 C   0  0  0  0  0  3  0  0  0  0  0  0
  185.5510  178.1880  144.3320 C   0  0  0  0  0  0  0  0  0  0  0  0
  184.8710  178.8720  146.5280 N   0  0  0  0  0  0  0  0  0  0  0  0
  184.5880  178.7320  145.2060 C   0  0  0  0  0  0  0  0  0  0  0  0
  186.0770  178.4980  147.0390 C   0  0  0  0  0  3  0  0  0  0  0  0
  183.0470  178.9790  143.3430 C   0  0  0  0  0  0  0  0  0  0  0  0
  184.0120  178.4370  142.4850 C   0  0  0  0  0  3  0  0  0  0  0  0
  188.3650  177.5490  146.7620 C   0  0  0  0  0  0  0  0  0  0  0  0
  189.3930  177.1440  145.9170 O   0  0  0  0  0  0  0  0  0  0  0  0
  188.5610  177.5660  148.0060 O   0  0  0  0  0  1  0  0  0  0  0  0
  1 18  1  0  0  0  0
  2 12  1  0  0  0  0
  2  9  2  0  0  0  0
  3  9  1  0  0  0  0
  3  6  1  0  0  0  0
  5  4  2  0  0  0  0
  6  7  1  0  0  0  0
  7  1  1  0  0  0  0
  7  4  1  6  0  0  0
  8  6  2  0  0  0  0
  8  5  1  0  0  0  0
  9 11  1  0  0  0  0
 11 10  2  0  0  0  0
 11  1  1  0  0  0  0
 12 13  1  6  0  0  0
 14 15  1  0  0  0  0
 14 12  1  0  0  0  0
 15 17  1  0  0  0  0
 16 15  2  0  0  0  0
 18 19  1  0  0  0  0
 19 20  2  0  0  0  0
 21 19  1  0  0  0  0
 21 30  1  0  0  0  0
 22 26  1  0  0  0  0
 23 28  1  0  0  0  0
 24 32  1  0  0  0  0
 24 29  1  0  0  0  0
 25 24  2  0  0  0  0
 26 25  1  0  0  0  0
 26 28  2  0  0  0  0
 27 29  2  0  0  0  0
 28 27  1  0  0  0  0
 30 23  2  0  0  0  0
 31 22  2  0  0  0  0
 31 30  1  0  0  0  0
 32 34  1  0  0  0  0
 33 32  2  0  0  0  0
M  END
>  <MODEL>
4

>  <REMARK>
 VINA RESULT:      -8.3      4.485      5.598
  Name = 
  7 active torsions:
  status: ('A' for Active; 'I' for Inactive)
    1  A    between atoms: N_1  and  C_9
    2  A    between atoms: C_2  and  C_23
    3  A    between atoms: C_3  and  C_27
    4  A    between atoms: C_7  and  C_11
    5  A    between atoms: C_8  and  C_9
    6  A    between atoms: N_18  and  C_30
    7  A    between atoms: C_23  and  C_27
                            x       y       z     vdW  Elec       q    Type
                         _______ _______ _______ _____ _____    ______ ____

>  <TORSDO>
F 7

$$$$
=
 OpenBabel10262423253D

 34 37  0  0  1  0  0  0  0  0999 V2000
  184.4880  178.1040  138.6210 N   0  0  0  0  0  0  0  0  0  0  0  0
  186.7560  176.2920  136.1770 C   0  0  0  0  0  3  0  0  0  0  0  0
  184.4020  175.9330  136.5630 C   0  0  0  0  0  2  0  0  0  0  0  0
  182.1630  177.2280  139.1280 C   0  0  0  0  0  3  0  0  0  0  0  0
  181.4330  176.2210  138.5910 N   0  0  0  0  0  2  0  0  0  0  0  0
  183.3160  176.2350  137.5440 C   0  0  0  0  0  0  0  0  0  0  0  0
  183.3650  177.2380  138.4560 C   0  0  0  0  0  0  0  0  0  0  0  0
  182.1260  175.6220  137.6280 N   0  0  0  0  0  0  0  0  0  0  0  0
  185.6700  176.7110  136.8460 C   0  0  0  0  0  0  0  0  0  0  0  0
  186.6410  178.6420  137.9080 O   0  0  0  0  0  0  0  0  0  0  0  0
  185.6530  177.8670  137.8060 C   0  0  0  0  0  0  0  0  0  0  0  0
  188.1500  176.8390  136.2340 C   0  0  2  0  0  3  0  0  0  0  0  0
  188.3530  177.8070  135.2650 F   0  0  0  0  0  0  0  0  0  0  0  0
  189.1910  175.7320  136.1590 C   0  0  0  0  0  2  0  0  0  0  0  0
  189.7980  175.4950  137.4980 C   0  0  0  0  0  0  0  0  0  0  0  0
  189.7270  176.4780  138.4780 O   0  0  0  0  0  1  0  0  0  0  0  0
  190.4030  174.4170  137.7340 O   0  0  0  0  0  0  0  0  0  0  0  0
  184.4810  179.1460  139.6440 C   0  0  0  0  0  2  0  0  0  0  0  0
  185.1050  178.6390  140.8970 C   0  0  0  0  0  0  0  0  0  0  0  0
  184.4020  177.9930  141.7210 O   0  0  0  0  0  0  0  0  0  0  0  0
  186.5020  178.8600  141.1240 N   0  0  0  0  0  2  0  0  0  0  0  0
  187.3300  177.5960  144.5330 C   0  0  0  0  0  3  0  0  0  0  0  0
  188.6750  178.2770  142.1710 C   0  0  0  0  0  3  0  0  0  0  0  0
  190.8460  176.9200  145.4730 C   0  0  0  0  0  0  0  0  0  0  0  0
  189.4530  177.0280  145.5610 C   0  0  0  0  0  3  0  0  0  0  0  0
  188.7190  177.4800  144.4640 C   0  0  0  0  0  0  0  0  0  0  0  0
  190.7510  177.7120  143.2110 N   0  0  0  0  0  0  0  0  0  0  0  0
  189.3970  177.8230  143.2760 C   0  0  0  0  0  0  0  0  0  0  0  0
  191.4790  177.2710  144.2730 C   0  0  0  0  0  3  0  0  0  0  0  0
  187.2770  178.3940  142.2370 C   0  0  0  0  0  0  0  0  0  0  0  0
  186.6130  178.0510  143.4220 C   0  0  0  0  0  3  0  0  0  0  0  0
  191.6370  176.4450  146.6200 C   0  0  0  0  0  0  0  0  0  0  0  0
  192.3430  175.2500  146.5360 O   0  0  0  0  0  0  0  0  0  0  0  0
  191.6820  177.1160  147.6850 O   0  0  0  0  0  1  0  0  0  0  0  0
  1 18  1  0  0  0  0
  2 12  1  0  0  0  0
  2  9  2  0  0  0  0
  3  9  1  0  0  0  0
  3  6  1  0  0  0  0
  5  4  1  0  0  0  0
  6  8  2  0  0  0  0
  6  7  1  0  0  0  0
  7  1  1  0  0  0  0
  7  4  2  0  0  0  0
  8  5  1  0  0  0  0
  9 11  1  0  0  0  0
 11 10  2  0  0  0  0
 11  1  1  0  0  0  0
 12 13  1  6  0  0  0
 14 12  1  0  0  0  0
 14 15  1  0  0  0  0
 15 17  2  0  0  0  0
 15 16  1  0  0  0  0
 18 19  1  0  0  0  0
 19 21  1  0  0  0  0
 19 20  2  0  0  0  0
 21 30  1  0  0  0  0
 23 30  2  0  0  0  0
 23 28  1  0  0  0  0
 24 25  1  0  0  0  0
 24 32  1  0  0  0  0
 26 22  1  0  0  0  0
 26 25  2  0  0  0  0
 27 28  2  0  0  0  0
 27 29  1  0  0  0  0
 28 26  1  0  0  0  0
 29 24  2  0  0  0  0
 30 31  1  0  0  0  0
 31 22  2  0  0  0  0
 32 34  1  0  0  0  0
 33 32  2  0  0  0  0
M  END
>  <MODEL>
5

>  <REMARK>
 VINA RESULT:      -8.0      1.935      2.422
  Name = 
  7 active torsions:
  status: ('A' for Active; 'I' for Inactive)
    1  A    between atoms: N_1  and  C_9
    2  A    between atoms: C_2  and  C_23
    3  A    between atoms: C_3  and  C_27
    4  A    between atoms: C_7  and  C_11
    5  A    between atoms: C_8  and  C_9
    6  A    between atoms: N_18  and  C_30
    7  A    between atoms: C_23  and  C_27
                            x       y       z     vdW  Elec       q    Type
                         _______ _______ _______ _____ _____    ______ ____

>  <TORSDO>
F 7

$$$$
=
 OpenBabel10262423253D

 34 37  0  0  1  0  0  0  0  0999 V2000
  190.7830  177.3190  144.9780 N   0  0  0  0  0  0  0  0  0  0  0  0
  187.3020  177.9710  146.3420 C   0  0  0  0  0  3  0  0  0  0  0  0
  189.1840  176.9900  147.4870 C   0  0  0  0  0  2  0  0  0  0  0  0
  192.4300  175.8810  146.2620 C   0  0  0  0  0  3  0  0  0  0  0  0
  192.3850  175.3260  147.4970 N   0  0  0  0  0  2  0  0  0  0  0  0
  190.5220  176.3760  147.2300 C   0  0  0  0  0  0  0  0  0  0  0  0
  191.2410  176.5550  146.0940 C   0  0  0  0  0  0  0  0  0  0  0  0
  191.2330  175.6280  148.0880 N   0  0  0  0  0  0  0  0  0  0  0  0
  188.6010  177.6430  146.2520 C   0  0  0  0  0  0  0  0  0  0  0  0
  189.0520  178.6020  144.0890 O   0  0  0  0  0  0  0  0  0  0  0  0
  189.4620  177.8920  145.0460 C   0  0  0  0  0  0  0  0  0  0  0  0
  186.4340  178.6210  145.3070 C   0  0  2  0  0  3  0  0  0  0  0  0
  185.3810  179.3070  145.8880 F   0  0  0  0  0  0  0  0  0  0  0  0
  185.9550  177.6190  144.2670 C   0  0  0  0  0  2  0  0  0  0  0  0
  185.2630  178.3180  143.1490 C   0  0  0  0  0  0  0  0  0  0  0  0
  185.9930  178.7950  142.0680 O   0  0  0  0  0  0  0  0  0  0  0  0
  184.0190  178.5060  143.1980 O   0  0  0  0  0  1  0  0  0  0  0  0
  191.6000  177.4450  143.7760 C   0  0  0  0  0  2  0  0  0  0  0  0
  190.8640  176.9090  142.5970 C   0  0  0  0  0  0  0  0  0  0  0  0
  190.3440  175.7640  142.6610 O   0  0  0  0  0  0  0  0  0  0  0  0
  190.7280  177.7240  141.4260 N   0  0  0  0  0  2  0  0  0  0  0  0
  189.8890  176.1110  138.1710 C   0  0  0  0  0  3  0  0  0  0  0  0
  188.7750  177.9960  139.9200 C   0  0  0  0  0  3  0  0  0  0  0  0
  186.7550  176.9860  136.4050 C   0  0  0  0  0  0  0  0  0  0  0  0
  187.9820  176.3770  136.6950 C   0  0  0  0  0  3  0  0  0  0  0  0
  188.6640  176.7070  137.8660 C   0  0  0  0  0  0  0  0  0  0  0  0
  186.9100  178.2370  138.4460 N   0  0  0  0  0  0  0  0  0  0  0  0
  188.1020  177.6560  138.7450 C   0  0  0  0  0  0  0  0  0  0  0  0
  186.2330  177.9240  137.3070 C   0  0  0  0  0  3  0  0  0  0  0  0
  190.0080  177.3970  140.2300 C   0  0  0  0  0  0  0  0  0  0  0  0
  190.5560  176.4570  139.3500 C   0  0  0  0  0  3  0  0  0  0  0  0
  186.0210  176.6500  135.1740 C   0  0  0  0  0  0  0  0  0  0  0  0
  186.1430  175.3850  134.6090 O   0  0  0  0  0  0  0  0  0  0  0  0
  185.2760  177.5030  134.6230 O   0  0  0  0  0  1  0  0  0  0  0  0
  1 11  1  0  0  0  0
  1  7  1  0  0  0  0
  4  5  1  0  0  0  0
  5  8  1  0  0  0  0
  6  3  1  0  0  0  0
  6  8  2  0  0  0  0
  7  4  2  0  0  0  0
  7  6  1  0  0  0  0
  9  2  2  0  0  0  0
  9  3  1  0  0  0  0
 10 11  2  0  0  0  0
 11  9  1  0  0  0  0
 12 13  1  1  0  0  0
 12  2  1  0  0  0  0
 14 12  1  0  0  0  0
 15 17  1  0  0  0  0
 15 14  1  0  0  0  0
 16 15  2  0  0  0  0
 18  1  1  0  0  0  0
 19 20  2  0  0  0  0
 19 18  1  0  0  0  0
 21 19  1  0  0  0  0
 22 31  1  0  0  0  0
 23 30  1  0  0  0  0
 24 25  2  0  0  0  0
 24 29  1  0  0  0  0
 25 26  1  0  0  0  0
 26 22  2  0  0  0  0
 26 28  1  0  0  0  0
 27 28  1  0  0  0  0
 28 23  2  0  0  0  0
 29 27  2  0  0  0  0
 30 21  1  0  0  0  0
 31 30  2  0  0  0  0
 32 24  1  0  0  0  0
 33 32  2  0  0  0  0
 34 32  1  0  0  0  0
M  END
>  <MODEL>
6

>  <REMARK>
 VINA RESULT:      -7.9      3.654      9.712
  Name = 
  7 active torsions:
  status: ('A' for Active; 'I' for Inactive)
    1  A    between atoms: N_1  and  C_9
    2  A    between atoms: C_2  and  C_23
    3  A    between atoms: C_3  and  C_27
    4  A    between atoms: C_7  and  C_11
    5  A    between atoms: C_8  and  C_9
    6  A    between atoms: N_18  and  C_30
    7  A    between atoms: C_23  and  C_27
                            x       y       z     vdW  Elec       q    Type
                         _______ _______ _______ _____ _____    ______ ____

>  <TORSDO>
F 7

$$$$
=
 OpenBabel10262423253D

 34 37  0  0  1  0  0  0  0  0999 V2000
  183.6120  177.5960  138.6160 N   0  0  0  0  0  0  0  0  0  0  0  0
  181.6510  174.4380  137.8560 C   0  0  0  0  0  3  0  0  0  0  0  0
  183.9660  174.9020  137.3630 C   0  0  0  0  0  2  0  0  0  0  0  0
  185.9040  177.9770  137.5990 C   0  0  0  0  0  3  0  0  0  0  0  0
  186.7140  177.1830  136.8580 N   0  0  0  0  0  0  0  0  0  0  0  0
  184.9420  176.0290  137.2720 C   0  0  0  0  0  0  0  0  0  0  0  0
  184.7730  177.2380  137.8660 C   0  0  1  0  0  3  0  0  0  0  0  0
  186.1370  176.0020  136.6630 N   0  0  0  0  0  0  0  0  0  0  0  0
  182.6530  175.3210  137.9900 C   0  0  0  0  0  0  0  0  0  0  0  0
  181.5230  176.9170  139.3950 O   0  0  0  0  0  0  0  0  0  0  0  0
  182.5410  176.6370  138.7060 C   0  0  0  0  0  0  0  0  0  0  0  0
  180.2410  174.5510  138.3530 C   0  0  2  0  0  3  0  0  0  0  0  0
  180.0840  173.9180  139.5740 F   0  0  0  0  0  0  0  0  0  0  0  0
  179.2410  174.0520  137.3200 C   0  0  0  0  0  2  0  0  0  0  0  0
  179.7390  172.8080  136.6700 C   0  0  0  0  0  0  0  0  0  0  0  0
  179.8420  171.6330  137.4040 O   0  0  0  0  0  1  0  0  0  0  0  0
  180.0960  172.8280  135.4630 O   0  0  0  0  0  0  0  0  0  0  0  0
  183.4880  178.9260  139.2040 C   0  0  0  0  0  2  0  0  0  0  0  0
  184.2890  179.0100  140.4570 C   0  0  0  0  0  0  0  0  0  0  0  0
  185.3080  179.7510  140.4910 O   0  0  0  0  0  0  0  0  0  0  0  0
  183.8620  178.2780  141.6120 N   0  0  0  0  0  2  0  0  0  0  0  0
  184.2800  178.7760  145.2840 C   0  0  0  0  0  3  0  0  0  0  0  0
  185.7940  177.8580  143.1110 C   0  0  0  0  0  3  0  0  0  0  0  0
  187.4870  177.9370  146.9310 C   0  0  0  0  0  0  0  0  0  0  0  0
  186.1680  178.3700  146.7520 C   0  0  0  0  0  3  0  0  0  0  0  0
  185.5940  178.3470  145.4810 C   0  0  0  0  0  0  0  0  0  0  0  0
  187.6370  177.4690  144.5830 N   0  0  0  0  0  0  0  0  0  0  0  0
  186.3570  177.8850  144.3900 C   0  0  0  0  0  0  0  0  0  0  0  0
  188.2100  177.4850  145.8170 C   0  0  0  0  0  3  0  0  0  0  0  0
  184.4720  178.2880  142.9100 C   0  0  0  0  0  0  0  0  0  0  0  0
  183.7240  178.7460  144.0010 C   0  0  0  0  0  3  0  0  0  0  0  0
  188.1100  177.9530  148.2640 C   0  0  0  0  0  0  0  0  0  0  0  0
  189.3130  178.6230  148.4660 O   0  0  0  0  0  0  0  0  0  0  0  0
  187.5620  177.3640  149.2320 O   0  0  0  0  0  1  0  0  0  0  0  0
  1 11  1  0  0  0  0
  1 18  1  0  0  0  0
  2  9  2  0  0  0  0
  2 12  1  0  0  0  0
  3  9  1  0  0  0  0
  5  4  2  0  0  0  0
  6  3  1  0  0  0  0
  6  7  1  0  0  0  0
  7  4  1  1  0  0  0
  7  1  1  0  0  0  0
  8  5  1  0  0  0  0
  8  6  2  0  0  0  0
  9 11  1  0  0  0  0
 11 10  2  0  0  0  0
 12 13  1  1  0  0  0
 14 12  1  0  0  0  0
 15 14  1  0  0  0  0
 15 16  1  0  0  0  0
 17 15  2  0  0  0  0
 18 19  1  0  0  0  0
 19 20  2  0  0  0  0
 19 21  1  0  0  0  0
 21 30  1  0  0  0  0
 22 26  1  0  0  0  0
 23 28  1  0  0  0  0
 24 32  1  0  0  0  0
 25 24  1  0  0  0  0
 26 25  2  0  0  0  0
 27 29  1  0  0  0  0
 28 27  2  0  0  0  0
 28 26  1  0  0  0  0
 29 24  2  0  0  0  0
 30 23  2  0  0  0  0
 30 31  1  0  0  0  0
 31 22  2  0  0  0  0
 32 33  2  0  0  0  0
 32 34  1  0  0  0  0
M  END
>  <MODEL>
7

>  <REMARK>
 VINA RESULT:      -7.9      3.253      4.875
  Name = 
  7 active torsions:
  status: ('A' for Active; 'I' for Inactive)
    1  A    between atoms: N_1  and  C_9
    2  A    between atoms: C_2  and  C_23
    3  A    between atoms: C_3  and  C_27
    4  A    between atoms: C_7  and  C_11
    5  A    between atoms: C_8  and  C_9
    6  A    between atoms: N_18  and  C_30
    7  A    between atoms: C_23  and  C_27
                            x       y       z     vdW  Elec       q    Type
                         _______ _______ _______ _____ _____    ______ ____

>  <TORSDO>
F 7

$$$$
=
 OpenBabel10262423253D

 34 37  0  0  1  0  0  0  0  0999 V2000
  189.3700  177.5420  145.5060 N   0  0  0  0  0  0  0  0  0  0  0  0
  190.7740  176.7870  142.0630 C   0  0  0  0  0  3  0  0  0  0  0  0
  191.6350  176.0830  144.2030 C   0  0  0  0  0  2  0  0  0  0  0  0
  190.7180  177.0430  147.5950 C   0  0  0  0  0  3  0  0  0  0  0  0
  191.8980  176.4050  147.7860 N   0  0  0  0  0  2  0  0  0  0  0  0
  191.5240  176.3750  145.6640 C   0  0  0  0  0  0  0  0  0  0  0  0
  190.4780  177.0200  146.2400 C   0  0  0  0  0  0  0  0  0  0  0  0
  192.3860  175.9950  146.6200 N   0  0  0  0  0  0  0  0  0  0  0  0
  190.5700  176.7890  143.3900 C   0  0  0  0  0  0  0  0  0  0  0  0
  188.4030  177.8380  143.4070 O   0  0  0  0  0  0  0  0  0  0  0  0
  189.3880  177.4190  144.0710 C   0  0  0  0  0  0  0  0  0  0  0  0
  189.9200  177.3960  140.9910 C   0  0  2  0  0  3  0  0  0  0  0  0
  188.6970  176.7540  140.8950 F   0  0  0  0  0  0  0  0  0  0  0  0
  190.6460  177.4420  139.6550 C   0  0  0  0  0  2  0  0  0  0  0  0
  189.7680  178.0320  138.6060 C   0  0  0  0  0  0  0  0  0  0  0  0
  189.8020  177.5340  137.3100 O   0  0  0  0  0  0  0  0  0  0  0  0
  189.0170  179.0030  138.8860 O   0  0  0  0  0  1  0  0  0  0  0  0
  188.2920  178.2490  146.1910 C   0  0  0  0  0  2  0  0  0  0  0  0
  186.9860  177.9460  145.5420 C   0  0  0  0  0  0  0  0  0  0  0  0
  186.5380  176.7690  145.5740 O   0  0  0  0  0  0  0  0  0  0  0  0
  186.2450  179.0080  144.9280 N   0  0  0  0  0  2  0  0  0  0  0  0
  182.5350  178.9070  144.5690 C   0  0  0  0  0  3  0  0  0  0  0  0
  184.8010  178.7260  142.9300 C   0  0  0  0  0  3  0  0  0  0  0  0
  180.9920  178.4440  141.2370 C   0  0  0  0  0  0  0  0  0  0  0  0
  181.1200  178.6280  142.6180 C   0  0  0  0  0  3  0  0  0  0  0  0
  182.3870  178.7240  143.1930 C   0  0  0  0  0  0  0  0  0  0  0  0
  183.3810  178.4520  141.0270 N   0  0  0  0  0  0  0  0  0  0  0  0
  183.5260  178.6320  142.3670 C   0  0  0  0  0  0  0  0  0  0  0  0
  182.1510  178.3580  140.4530 C   0  0  0  0  0  3  0  0  0  0  0  0
  184.9530  178.9110  144.3140 C   0  0  0  0  0  0  0  0  0  0  0  0
  183.8150  179.0000  145.1250 C   0  0  0  0  0  3  0  0  0  0  0  0
  179.6630  178.3400  140.6120 C   0  0  0  0  0  0  0  0  0  0  0  0
  179.1180  177.0920  140.3280 O   0  0  0  0  0  0  0  0  0  0  0  0
  179.0080  179.3780  140.3300 O   0  0  0  0  0  1  0  0  0  0  0  0
  1 18  1  0  0  0  0
  1  7  1  0  0  0  0
  2  9  2  0  0  0  0
  3  6  1  0  0  0  0
  4  5  1  0  0  0  0
  6  7  1  0  0  0  0
  6  8  2  0  0  0  0
  7  4  2  0  0  0  0
  8  5  1  0  0  0  0
  9 11  1  0  0  0  0
  9  3  1  0  0  0  0
 10 11  2  0  0  0  0
 11  1  1  0  0  0  0
 12 13  1  6  0  0  0
 12  2  1  0  0  0  0
 14 12  1  0  0  0  0
 15 17  1  0  0  0  0
 15 14  1  0  0  0  0
 16 15  2  0  0  0  0
 19 20  2  0  0  0  0
 19 18  1  0  0  0  0
 21 19  1  0  0  0  0
 22 31  1  0  0  0  0
 23 30  1  0  0  0  0
 24 25  2  0  0  0  0
 25 26  1  0  0  0  0
 26 22  2  0  0  0  0
 27 28  1  0  0  0  0
 28 23  2  0  0  0  0
 28 26  1  0  0  0  0
 29 27  2  0  0  0  0
 29 24  1  0  0  0  0
 30 21  1  0  0  0  0
 30 31  2  0  0  0  0
 32 24  1  0  0  0  0
 33 32  2  0  0  0  0
 34 32  1  0  0  0  0
M  END
>  <MODEL>
8

>  <REMARK>
 VINA RESULT:      -7.7      3.148      7.970
  Name = 
  7 active torsions:
  status: ('A' for Active; 'I' for Inactive)
    1  A    between atoms: N_1  and  C_9
    2  A    between atoms: C_2  and  C_23
    3  A    between atoms: C_3  and  C_27
    4  A    between atoms: C_7  and  C_11
    5  A    between atoms: C_8  and  C_9
    6  A    between atoms: N_18  and  C_30
    7  A    between atoms: C_23  and  C_27
                            x       y       z     vdW  Elec       q    Type
                         _______ _______ _______ _____ _____    ______ ____

>  <TORSDO>
F 7

$$$$
=
 OpenBabel10262423253D

 34 37  0  0  1  0  0  0  0  0999 V2000
  189.1790  176.2050  137.2220 N   0  0  0  0  0  0  0  0  0  0  0  0
  186.4710  173.6040  136.6790 C   0  0  0  0  0  3  0  0  0  0  0  0
  188.8530  173.2570  136.8250 C   0  0  0  0  0  2  0  0  0  0  0  0
  191.6250  175.6190  136.8980 C   0  0  0  0  0  3  0  0  0  0  0  0
  192.2550  174.4450  136.6560 N   0  0  0  0  0  0  0  0  0  0  0  0
  190.1500  173.9960  136.7700 C   0  0  0  0  0  0  0  0  0  0  0  0
  190.2810  175.3310  136.9740 C   0  0  1  0  0  3  0  0  0  0  0  0
  191.3660  173.4590  136.5830 N   0  0  0  0  0  0  0  0  0  0  0  0
  187.6600  174.1870  136.8980 C   0  0  0  0  0  0  0  0  0  0  0  0
  186.8680  176.3900  137.4610 O   0  0  0  0  0  0  0  0  0  0  0  0
  187.8520  175.6450  137.2060 C   0  0  0  0  0  0  0  0  0  0  0  0
  185.1130  174.2380  136.6760 C   0  0  2  0  0  3  0  0  0  0  0  0
  184.6160  174.3750  137.9610 F   0  0  0  0  0  0  0  0  0  0  0  0
  184.1460  173.4900  135.7690 C   0  0  0  0  0  2  0  0  0  0  0  0
  183.2910  172.5680  136.5670 C   0  0  0  0  0  0  0  0  0  0  0  0
  181.9580  172.8820  136.8010 O   0  0  0  0  0  0  0  0  0  0  0  0
  183.7830  171.5170  137.0570 O   0  0  0  0  0  1  0  0  0  0  0  0
  189.3930  177.6380  137.4050 C   0  0  0  0  0  2  0  0  0  0  0  0
  189.3210  177.9860  138.8520 C   0  0  0  0  0  0  0  0  0  0  0  0
  188.6900  179.0160  139.2090 O   0  0  0  0  0  0  0  0  0  0  0  0
  189.9370  177.1200  139.8130 N   0  0  0  0  0  2  0  0  0  0  0  0
  191.1550  177.5730  143.3080 C   0  0  0  0  0  3  0  0  0  0  0  0
  188.7160  177.2410  141.9690 C   0  0  0  0  0  3  0  0  0  0  0  0
  188.7570  177.6620  146.1260 C   0  0  0  0  0  0  0  0  0  0  0  0
  189.9640  177.6890  145.4180 C   0  0  0  0  0  3  0  0  0  0  0  0
  189.9610  177.5490  144.0300 C   0  0  0  0  0  0  0  0  0  0  0  0
  187.5710  177.3580  144.0630 N   0  0  0  0  0  0  0  0  0  0  0  0
  188.7330  177.3830  143.3580 C   0  0  0  0  0  0  0  0  0  0  0  0
  187.5590  177.4930  145.4180 C   0  0  0  0  0  3  0  0  0  0  0  0
  189.9160  177.2650  141.2390 C   0  0  0  0  0  0  0  0  0  0  0  0
  191.1300  177.4310  141.9170 C   0  0  0  0  0  3  0  0  0  0  0  0
  188.7400  177.8070  147.5900 C   0  0  0  0  0  0  0  0  0  0  0  0
  187.5300  177.8810  148.2730 O   0  0  0  0  0  1  0  0  0  0  0  0
  189.8190  177.8650  148.2380 O   0  0  0  0  0  0  0  0  0  0  0  0
  1 18  1  0  0  0  0
  2  9  2  0  0  0  0
  3  9  1  0  0  0  0
  5  4  2  0  0  0  0
  6  3  1  0  0  0  0
  6  7  1  0  0  0  0
  7  4  1  1  0  0  0
  7  1  1  0  0  0  0
  8  5  1  0  0  0  0
  8  6  2  0  0  0  0
  9 11  1  0  0  0  0
 11  1  1  0  0  0  0
 11 10  2  0  0  0  0
 12  2  1  0  0  0  0
 12 13  1  1  0  0  0
 14 15  1  0  0  0  0
 14 12  1  0  0  0  0
 15 16  2  0  0  0  0
 15 17  1  0  0  0  0
 18 19  1  0  0  0  0
 19 20  2  0  0  0  0
 19 21  1  0  0  0  0
 21 30  1  0  0  0  0
 22 26  1  0  0  0  0
 23 28  1  0  0  0  0
 24 32  1  0  0  0  0
 25 24  1  0  0  0  0
 26 25  2  0  0  0  0
 27 29  1  0  0  0  0
 28 26  1  0  0  0  0
 28 27  2  0  0  0  0
 29 24  2  0  0  0  0
 30 31  1  0  0  0  0
 30 23  2  0  0  0  0
 31 22  2  0  0  0  0
 32 34  2  0  0  0  0
 32 33  1  0  0  0  0
M  END
>  <MODEL>
9

>  <REMARK>
 VINA RESULT:      -7.7      3.932      5.931
  Name = 
  7 active torsions:
  status: ('A' for Active; 'I' for Inactive)
    1  A    between atoms: N_1  and  C_9
    2  A    between atoms: C_2  and  C_23
    3  A    between atoms: C_3  and  C_27
    4  A    between atoms: C_7  and  C_11
    5  A    between atoms: C_8  and  C_9
    6  A    between atoms: N_18  and  C_30
    7  A    between atoms: C_23  and  C_27
                            x       y       z     vdW  Elec       q    Type
                         _______ _______ _______ _____ _____    ______ ____

>  <TORSDO>
F 7

$$$$
