=
 OpenBabel10262420453D

 28 31  0  0  1  0  0  0  0  0999 V2000
  190.8610  175.8080  143.4270 C   0  0  1  0  0  3  0  0  0  0  0  0
  191.7180  176.3960  142.4510 O   0  0  0  0  0  0  0  0  0  0  0  0
  191.4280  177.6050  141.8290 C   0  0  0  0  0  0  0  0  0  0  0  0
  192.6030  176.4640  147.8810 C   0  0  0  0  0  1  0  0  0  0  0  0
  192.0330  177.9250  140.7740 O   0  0  0  0  0  0  0  0  0  0  0  0
  190.7350  178.5750  144.2390 S   0  0  0  0  0  0  0  0  0  0  0  0
  190.4540  178.5470  142.4390 C   0  0  2  0  0  3  0  0  0  0  0  0
  191.4010  176.2950  145.7040 C   0  0  0  0  0  0  0  0  0  0  0  0
  191.9310  175.0100  145.3030 C   0  0  0  0  0  0  0  0  0  0  0  0
  191.6770  176.9670  146.8280 C   0  0  0  0  0  3  0  0  0  0  0  0
  192.6370  174.2450  146.0120 O   0  0  0  0  0  0  0  0  0  0  0  0
  191.5460  174.7100  144.0180 O   0  0  0  0  0  0  0  0  0  0  0  0
  190.4770  176.7680  144.6040 C   0  0  2  0  0  0  0  0  0  0  0  0
  189.0120  178.2030  142.0910 C   0  0  0  0  0  3  0  0  0  0  0  0
  188.4110  179.3050  141.5120 F   0  0  0  0  0  0  0  0  0  0  0  0
  188.9720  177.1530  141.1910 F   0  0  0  0  0  0  0  0  0  0  0  0
  189.1190  176.4820  144.9160 O   0  0  0  0  0  0  0  0  0  0  0  0
  186.6050  177.3500  144.1880 C   0  0  0  0  0  2  0  0  0  0  0  0
  186.2240  178.1090  146.5020 C   0  0  2  0  0  3  0  0  0  0  0  0
  188.6070  177.4020  145.8530 C   0  0  1  0  0  3  0  0  0  0  0  0
  184.6370  178.7850  144.6900 C   0  0  0  0  0  0  0  0  0  0  0  0
  187.2710  178.0330  145.3860 C   0  0  1  0  0  3  0  0  0  0  0  0
  187.9950  177.7800  148.2740 C   0  0  0  0  0  2  0  0  0  0  0  0
  185.0870  178.9000  146.0480 N   0  0  0  0  0  2  0  0  0  0  0  0
  186.8340  178.6630  147.7830 C   0  0  0  0  0  2  0  0  0  0  0  0
  183.2030  179.6460  144.1750 Cl  0  0  0  0  0  0  0  0  0  0  0  0
  185.3550  178.0970  143.7920 C   0  0  0  0  0  3  0  0  0  0  0  0
  188.4790  176.7540  147.2370 C   0  0  0  0  0  2  0  0  0  0  0  0
  1  2  1  6  0  0  0
  1 12  1  0  0  0  0
  1 13  1  0  0  0  0
  3  7  1  0  0  0  0
  3  2  1  0  0  0  0
  5  3  2  0  0  0  0
  6 13  1  0  0  0  0
  7 14  1  1  0  0  0
  7  6  1  0  0  0  0
  8 10  2  0  0  0  0
  9  8  1  0  0  0  0
  9 11  2  0  0  0  0
 10  4  1  0  0  0  0
 12  9  1  0  0  0  0
 13 17  1  1  0  0  0
 13  8  1  0  0  0  0
 15 14  1  0  0  0  0
 16 14  1  0  0  0  0
 19 25  1  1  0  0  0
 20 17  1  6  0  0  0
 20 28  1  0  0  0  0
 21 24  1  0  0  0  0
 22 18  1  6  0  0  0
 22 20  1  0  0  0  0
 22 19  1  0  0  0  0
 24 19  1  0  0  0  0
 25 23  1  0  0  0  0
 26 21  1  0  0  0  0
 27 18  1  0  0  0  0
 27 21  2  0  0  0  0
 28 23  1  0  0  0  0
M  END
>  <MODEL>
1

>  <REMARK>
 VINA RESULT:      -8.0      0.000      0.000
  Name = 
  3 active torsions:
  status: ('A' for Active; 'I' for Inactive)
    1  A    between atoms: C_6  and  C_11
    2  A    between atoms: C_10  and  O_17
    3  A    between atoms: O_17  and  C_27
                            x       y       z     vdW  Elec       q    Type
                         _______ _______ _______ _____ _____    ______ ____

>  <TORSDO>
F 3

$$$$
=
 OpenBabel10262420453D

 28 31  0  0  1  0  0  0  0  0999 V2000
  189.4520  176.3800  141.4370 C   0  0  1  0  0  3  0  0  0  0  0  0
  190.1510  176.8290  140.2790 O   0  0  0  0  0  0  0  0  0  0  0  0
  189.6120  177.7490  139.3880 C   0  0  0  0  0  0  0  0  0  0  0  0
  191.1450  178.5240  145.4180 C   0  0  0  0  0  1  0  0  0  0  0  0
  190.1140  177.8780  138.2420 O   0  0  0  0  0  0  0  0  0  0  0  0
  188.8030  179.1920  141.5090 S   0  0  0  0  0  0  0  0  0  0  0  0
  188.4870  178.6260  139.8050 C   0  0  2  0  0  3  0  0  0  0  0  0
  189.9440  177.5550  143.4600 C   0  0  0  0  0  0  0  0  0  0  0  0
  190.7080  176.3290  143.3670 C   0  0  0  0  0  0  0  0  0  0  0  0
  190.1100  178.5450  144.3460 C   0  0  0  0  0  3  0  0  0  0  0  0
  191.5680  175.9280  144.1940 O   0  0  0  0  0  0  0  0  0  0  0  0
  190.3560  175.6280  142.2380 O   0  0  0  0  0  0  0  0  0  0  0  0
  188.9170  177.5340  142.3500 C   0  0  2  0  0  0  0  0  0  0  0  0
  187.1330  177.9420  139.6720 C   0  0  0  0  0  3  0  0  0  0  0  0
  186.1350  178.8540  139.9590 F   0  0  0  0  0  0  0  0  0  0  0  0
  186.9530  177.4800  138.3800 F   0  0  0  0  0  0  0  0  0  0  0  0
  187.6500  177.0990  142.8300 O   0  0  0  0  0  0  0  0  0  0  0  0
  184.9930  177.7900  142.5750 C   0  0  0  0  0  2  0  0  0  0  0  0
  184.9220  178.3090  144.9840 C   0  0  2  0  0  3  0  0  0  0  0  0
  187.2210  177.8840  143.9200 C   0  0  1  0  0  3  0  0  0  0  0  0
  183.0220  178.9880  143.5050 C   0  0  0  0  0  0  0  0  0  0  0  0
  185.7840  178.4260  143.7220 C   0  0  1  0  0  3  0  0  0  0  0  0
  186.9700  177.9950  146.4300 C   0  0  0  0  0  2  0  0  0  0  0  0
  183.6700  179.0270  144.7850 N   0  0  0  0  0  2  0  0  0  0  0  0
  185.6800  178.8050  146.2080 C   0  0  0  0  0  2  0  0  0  0  0  0
  181.4620  179.7530  143.2980 Cl  0  0  0  0  0  0  0  0  0  0  0  0
  183.6420  178.4480  142.4460 C   0  0  0  0  0  3  0  0  0  0  0  0
  187.3640  177.1110  145.2360 C   0  0  0  0  0  2  0  0  0  0  0  0
  1  2  1  6  0  0  0
  1 12  1  0  0  0  0
  1 13  1  0  0  0  0
  3  7  1  0  0  0  0
  3  2  1  0  0  0  0
  5  3  2  0  0  0  0
  6 13  1  0  0  0  0
  7 14  1  1  0  0  0
  7  6  1  0  0  0  0
  8 10  2  0  0  0  0
  9  8  1  0  0  0  0
  9 11  2  0  0  0  0
 10  4  1  0  0  0  0
 12  9  1  0  0  0  0
 13 17  1  1  0  0  0
 13  8  1  0  0  0  0
 14 15  1  0  0  0  0
 16 14  1  0  0  0  0
 19 25  1  1  0  0  0
 20 17  1  6  0  0  0
 20 28  1  0  0  0  0
 21 24  1  0  0  0  0
 22 18  1  6  0  0  0
 22 20  1  0  0  0  0
 22 19  1  0  0  0  0
 24 19  1  0  0  0  0
 25 23  1  0  0  0  0
 26 21  1  0  0  0  0
 27 18  1  0  0  0  0
 27 21  2  0  0  0  0
 28 23  1  0  0  0  0
M  END
>  <MODEL>
2

>  <REMARK>
 VINA RESULT:      -7.0      2.042      2.687
  Name = 
  3 active torsions:
  status: ('A' for Active; 'I' for Inactive)
    1  A    between atoms: C_6  and  C_11
    2  A    between atoms: C_10  and  O_17
    3  A    between atoms: O_17  and  C_27
                            x       y       z     vdW  Elec       q    Type
                         _______ _______ _______ _____ _____    ______ ____

>  <TORSDO>
F 3

$$$$
=
 OpenBabel10262420453D

 28 31  0  0  1  0  0  0  0  0999 V2000
  188.9160  178.3030  145.0280 C   0  0  1  0  0  3  0  0  0  0  0  0
  187.8610  177.8820  145.8900 O   0  0  0  0  0  0  0  0  0  0  0  0
  186.5980  177.5450  145.4180 C   0  0  0  0  0  0  0  0  0  0  0  0
  192.0970  174.7410  144.3210 C   0  0  0  0  0  1  0  0  0  0  0  0
  185.6280  177.4850  146.2170 O   0  0  0  0  0  0  0  0  0  0  0  0
  187.8010  176.1550  143.4550 S   0  0  0  0  0  0  0  0  0  0  0  0
  186.4010  177.1930  143.9880 C   0  0  2  0  0  3  0  0  0  0  0  0
  190.4190  176.5840  144.3200 C   0  0  0  0  0  0  0  0  0  0  0  0
  190.9570  177.3200  145.4440 C   0  0  0  0  0  0  0  0  0  0  0  0
  190.8910  175.4450  143.8010 C   0  0  0  0  0  3  0  0  0  0  0  0
  192.0430  177.0820  146.0350 O   0  0  0  0  0  0  0  0  0  0  0  0
  190.1180  178.3530  145.7890 O   0  0  0  0  0  0  0  0  0  0  0  0
  189.1950  177.3290  143.8340 C   0  0  2  0  0  0  0  0  0  0  0  0
  186.2300  178.4200  143.1030 C   0  0  0  0  0  3  0  0  0  0  0  0
  185.4820  178.0770  141.9930 F   0  0  0  0  0  0  0  0  0  0  0  0
  185.5680  179.4210  143.7910 F   0  0  0  0  0  0  0  0  0  0  0  0
  189.5060  178.1550  142.7180 O   0  0  0  0  0  0  0  0  0  0  0  0
  188.1940  178.3100  140.2990 C   0  0  0  0  0  2  0  0  0  0  0  0
  190.2620  177.6020  139.1600 C   0  0  2  0  0  3  0  0  0  0  0  0
  190.1890  177.4300  141.7210 C   0  0  1  0  0  3  0  0  0  0  0  0
  188.1010  177.6630  137.8990 C   0  0  0  0  0  0  0  0  0  0  0  0
  189.3900  177.3590  140.3960 C   0  0  1  0  0  3  0  0  0  0  0  0
  192.3700  177.1530  140.4780 C   0  0  0  0  0  2  0  0  0  0  0  0
  189.4910  177.3090  137.9580 N   0  0  0  0  0  0  0  0  0  0  0  0
  191.5450  176.7860  139.2310 C   0  0  0  0  0  2  0  0  0  0  0  0
  187.2040  177.4180  136.4170 Cl  0  0  0  0  0  0  0  0  0  0  0  0
  187.4640  178.0960  138.9960 C   0  0  0  0  0  2  0  0  0  0  0  0
  191.5990  177.9930  141.5080 C   0  0  0  0  0  2  0  0  0  0  0  0
  1 12  1  1  0  0  0
  1  2  1  0  0  0  0
  3  2  1  0  0  0  0
  3  5  2  0  0  0  0
  6 13  1  0  0  0  0
  6  7  1  0  0  0  0
  7 14  1  6  0  0  0
  7  3  1  0  0  0  0
  8  9  1  0  0  0  0
  9 12  1  0  0  0  0
  9 11  2  0  0  0  0
 10  8  2  0  0  0  0
 10  4  1  0  0  0  0
 13 17  1  6  0  0  0
 13  8  1  0  0  0  0
 13  1  1  0  0  0  0
 14 16  1  0  0  0  0
 15 14  1  0  0  0  0
 19 25  1  1  0  0  0
 19 22  1  0  0  0  0
 20 17  1  1  0  0  0
 21 24  2  0  0  0  0
 21 27  1  0  0  0  0
 22 18  1  1  0  0  0
 22 20  1  0  0  0  0
 23 28  1  0  0  0  0
 24 19  1  0  0  0  0
 25 23  1  0  0  0  0
 26 21  1  0  0  0  0
 27 18  1  0  0  0  0
 28 20  1  0  0  0  0
M  END
>  <MODEL>
3

>  <REMARK>
 VINA RESULT:      -6.8      3.359      5.727
  Name = 
  3 active torsions:
  status: ('A' for Active; 'I' for Inactive)
    1  A    between atoms: C_6  and  C_11
    2  A    between atoms: C_10  and  O_17
    3  A    between atoms: O_17  and  C_27
                            x       y       z     vdW  Elec       q    Type
                         _______ _______ _______ _____ _____    ______ ____

>  <TORSDO>
F 3

$$$$
=
 OpenBabel10262420453D

 28 31  0  0  1  0  0  0  0  0999 V2000
  188.8570  178.5790  141.5640 C   0  0  1  0  0  3  0  0  0  0  0  0
  189.2350  177.7150  140.4950 O   0  0  0  0  0  0  0  0  0  0  0  0
  190.0100  176.5760  140.6900 C   0  0  0  0  0  0  0  0  0  0  0  0
  184.2560  177.8480  142.8300 C   0  0  0  0  0  1  0  0  0  0  0  0
  190.5730  176.0290  139.7080 O   0  0  0  0  0  0  0  0  0  0  0  0
  188.4780  176.0100  142.8270 S   0  0  0  0  0  0  0  0  0  0  0  0
  190.1220  175.9690  142.0410 C   0  0  2  0  0  3  0  0  0  0  0  0
  186.7110  178.1500  142.5270 C   0  0  0  0  0  0  0  0  0  0  0  0
  186.6450  179.2190  141.5550 C   0  0  0  0  0  0  0  0  0  0  0  0
  185.6820  177.5200  143.1070 C   0  0  0  0  0  3  0  0  0  0  0  0
  185.6040  179.8290  141.1940 O   0  0  0  0  0  0  0  0  0  0  0  0
  187.8980  179.5050  141.0680 O   0  0  0  0  0  0  0  0  0  0  0  0
  188.1730  177.8460  142.7680 C   0  0  2  0  0  0  0  0  0  0  0  0
  191.1830  176.6440  142.8990 C   0  0  0  0  0  3  0  0  0  0  0  0
  192.0320  175.6810  143.4120 F   0  0  0  0  0  0  0  0  0  0  0  0
  191.9260  177.5290  142.1380 F   0  0  0  0  0  0  0  0  0  0  0  0
  188.6460  178.4970  143.9420 O   0  0  0  0  0  0  0  0  0  0  0  0
  190.7840  177.7040  145.4920 C   0  0  0  0  0  2  0  0  0  0  0  0
  189.2650  177.4600  147.4180 C   0  0  2  0  0  3  0  0  0  0  0  0
  188.2120  177.8280  145.1050 C   0  0  1  0  0  3  0  0  0  0  0  0
  191.5970  176.5620  147.5460 C   0  0  0  0  0  0  0  0  0  0  0  0
  189.3900  177.2250  145.9090 C   0  0  1  0  0  3  0  0  0  0  0  0
  186.8060  177.9970  147.1960 C   0  0  0  0  0  2  0  0  0  0  0  0
  190.2850  176.6880  148.1160 N   0  0  0  0  0  2  0  0  0  0  0  0
  187.8610  177.1290  147.9060 C   0  0  0  0  0  2  0  0  0  0  0  0
  192.8540  175.7330  148.4370 Cl  0  0  0  0  0  0  0  0  0  0  0  0
  191.8420  176.9950  146.3020 C   0  0  0  0  0  3  0  0  0  0  0  0
  187.3430  178.7500  145.9690 C   0  0  0  0  0  2  0  0  0  0  0  0
  1  2  1  6  0  0  0
  1 13  1  0  0  0  0
  2  3  1  0  0  0  0
  3  7  1  0  0  0  0
  4 10  1  0  0  0  0
  5  3  2  0  0  0  0
  7  6  1  0  0  0  0
  7 14  1  1  0  0  0
  8 13  1  0  0  0  0
  8 10  2  0  0  0  0
  9  8  1  0  0  0  0
 11  9  2  0  0  0  0
 12  9  1  0  0  0  0
 12  1  1  0  0  0  0
 13  6  1  0  0  0  0
 13 17  1  1  0  0  0
 14 15  1  0  0  0  0
 16 14  1  0  0  0  0
 18 27  1  0  0  0  0
 19 25  1  1  0  0  0
 19 24  1  0  0  0  0
 20 17  1  6  0  0  0
 20 22  1  0  0  0  0
 20 28  1  0  0  0  0
 21 24  1  0  0  0  0
 21 26  1  0  0  0  0
 22 18  1  6  0  0  0
 22 19  1  0  0  0  0
 23 25  1  0  0  0  0
 27 21  2  0  0  0  0
 28 23  1  0  0  0  0
M  END
>  <MODEL>
4

>  <REMARK>
 VINA RESULT:      -6.4      3.333      5.462
  Name = 
  3 active torsions:
  status: ('A' for Active; 'I' for Inactive)
    1  A    between atoms: C_6  and  C_11
    2  A    between atoms: C_10  and  O_17
    3  A    between atoms: O_17  and  C_27
                            x       y       z     vdW  Elec       q    Type
                         _______ _______ _______ _____ _____    ______ ____

>  <TORSDO>
F 3

$$$$
=
 OpenBabel10262420453D

 28 31  0  0  1  0  0  0  0  0999 V2000
  188.7310  175.8230  138.3860 C   0  0  1  0  0  3  0  0  0  0  0  0
  188.1260  176.4860  137.2800 O   0  0  0  0  0  0  0  0  0  0  0  0
  187.4610  177.7010  137.4060 C   0  0  0  0  0  0  0  0  0  0  0  0
  193.5230  176.4030  138.3410 C   0  0  0  0  0  1  0  0  0  0  0  0
  186.6890  178.0890  136.4920 O   0  0  0  0  0  0  0  0  0  0  0  0
  189.4940  178.5490  138.9480 S   0  0  0  0  0  0  0  0  0  0  0  0
  187.7090  178.5720  138.5840 C   0  0  2  0  0  3  0  0  0  0  0  0
  191.0620  176.2530  138.7000 C   0  0  0  0  0  0  0  0  0  0  0  0
  190.8490  175.0110  137.9890 C   0  0  0  0  0  0  0  0  0  0  0  0
  192.2220  176.8970  138.8730 C   0  0  0  0  0  3  0  0  0  0  0  0
  191.7470  174.2570  137.5310 O   0  0  0  0  0  0  0  0  0  0  0  0
  189.5050  174.7390  137.8860 O   0  0  0  0  0  0  0  0  0  0  0  0
  189.7160  176.7190  139.2110 C   0  0  2  0  0  0  0  0  0  0  0  0
  186.8740  178.1700  139.7920 C   0  0  0  0  0  3  0  0  0  0  0  0
  187.1620  179.0190  140.8450 F   0  0  0  0  0  0  0  0  0  0  0  0
  185.5250  178.2690  139.5000 F   0  0  0  0  0  0  0  0  0  0  0  0
  189.5290  176.3560  140.5740 O   0  0  0  0  0  0  0  0  0  0  0  0
  188.0280  176.5260  142.8800 C   0  0  0  0  0  2  0  0  0  0  0  0
  189.8940  177.7030  143.9790 C   0  0  2  0  0  3  0  0  0  0  0  0
  190.0360  177.3470  141.4390 C   0  0  1  0  0  3  0  0  0  0  0  0
  187.6480  177.6240  145.0790 C   0  0  0  0  0  0  0  0  0  0  0  0
  189.1170  177.5810  142.6640 C   0  0  1  0  0  3  0  0  0  0  0  0
  192.0510  178.1400  142.7370 C   0  0  0  0  0  2  0  0  0  0  0  0
  188.9900  178.1310  145.0390 N   0  0  0  0  0  2  0  0  0  0  0  0
  191.0820  178.6430  143.8230 C   0  0  0  0  0  2  0  0  0  0  0  0
  186.6000  178.0470  146.4140 Cl  0  0  0  0  0  0  0  0  0  0  0  0
  187.1640  176.9030  144.0580 C   0  0  0  0  0  3  0  0  0  0  0  0
  191.4740  177.0200  141.8580 C   0  0  0  0  0  2  0  0  0  0  0  0
  1  2  1  6  0  0  0
  1 13  1  0  0  0  0
  2  3  1  0  0  0  0
  3  7  1  0  0  0  0
  4 10  1  0  0  0  0
  5  3  2  0  0  0  0
  6 13  1  0  0  0  0
  7  6  1  0  0  0  0
  7 14  1  1  0  0  0
  8 10  2  0  0  0  0
  8 13  1  0  0  0  0
  9  8  1  0  0  0  0
 11  9  2  0  0  0  0
 12  9  1  0  0  0  0
 12  1  1  0  0  0  0
 13 17  1  1  0  0  0
 14 15  1  0  0  0  0
 16 14  1  0  0  0  0
 18 27  1  0  0  0  0
 19 25  1  6  0  0  0
 19 24  1  0  0  0  0
 20 17  1  1  0  0  0
 20 28  1  0  0  0  0
 20 22  1  0  0  0  0
 21 26  1  0  0  0  0
 22 18  1  1  0  0  0
 22 19  1  0  0  0  0
 23 25  1  0  0  0  0
 24 21  1  0  0  0  0
 27 21  2  0  0  0  0
 28 23  1  0  0  0  0
M  END
>  <MODEL>
5

>  <REMARK>
 VINA RESULT:      -6.2      3.629      5.610
  Name = 
  3 active torsions:
  status: ('A' for Active; 'I' for Inactive)
    1  A    between atoms: C_6  and  C_11
    2  A    between atoms: C_10  and  O_17
    3  A    between atoms: O_17  and  C_27
                            x       y       z     vdW  Elec       q    Type
                         _______ _______ _______ _____ _____    ______ ____

>  <TORSDO>
F 3

$$$$
=
 OpenBabel10262420453D

 28 31  0  0  1  0  0  0  0  0999 V2000
  191.5770  177.8790  141.9310 C   0  0  1  0  0  3  0  0  0  0  0  0
  192.0560  177.0910  143.0180 O   0  0  0  0  0  0  0  0  0  0  0  0
  191.2200  176.6110  144.0210 C   0  0  0  0  0  0  0  0  0  0  0  0
  191.2340  175.2400  137.9030 C   0  0  0  0  0  1  0  0  0  0  0  0
  191.7140  176.1990  145.1020 O   0  0  0  0  0  0  0  0  0  0  0  0
  189.4690  175.9140  142.1030 S   0  0  0  0  0  0  0  0  0  0  0  0
  189.7540  176.5240  143.7970 C   0  0  2  0  0  3  0  0  0  0  0  0
  191.0540  176.6730  139.9340 C   0  0  0  0  0  0  0  0  0  0  0  0
  192.3740  177.2590  139.8610 C   0  0  0  0  0  0  0  0  0  0  0  0
  190.5190  175.7790  139.0940 C   0  0  0  0  0  3  0  0  0  0  0  0
  193.1920  177.1280  138.9130 O   0  0  0  0  0  0  0  0  0  0  0  0
  192.6290  178.0130  140.9820 O   0  0  0  0  0  0  0  0  0  0  0  0
  190.3720  177.2420  141.1590 C   0  0  2  0  0  0  0  0  0  0  0  0
  189.0440  177.8450  144.0560 C   0  0  0  0  0  3  0  0  0  0  0  0
  187.8210  177.5930  144.6510 F   0  0  0  0  0  0  0  0  0  0  0  0
  189.7950  178.6370  144.9060 F   0  0  0  0  0  0  0  0  0  0  0  0
  189.5120  178.3210  140.8150 O   0  0  0  0  0  0  0  0  0  0  0  0
  186.9310  178.7990  141.6570 C   0  0  0  0  0  2  0  0  0  0  0  0
  186.1680  178.6620  139.3170 C   0  0  2  0  0  3  0  0  0  0  0  0
  188.5770  177.9350  139.8340 C   0  0  1  0  0  3  0  0  0  0  0  0
  184.4940  178.6770  141.1760 C   0  0  0  0  0  0  0  0  0  0  0  0
  187.1170  178.0340  140.3430 C   0  0  1  0  0  3  0  0  0  0  0  0
  187.8170  178.2530  137.4470 C   0  0  0  0  0  2  0  0  0  0  0  0
  184.7930  178.5250  139.7810 N   0  0  0  0  0  0  0  0  0  0  0  0
  186.3730  178.0460  137.9390 C   0  0  0  0  0  2  0  0  0  0  0  0
  182.8310  178.6280  141.7180 Cl  0  0  0  0  0  0  0  0  0  0  0  0
  185.4820  178.7670  142.0770 C   0  0  0  0  0  2  0  0  0  0  0  0
  188.7860  178.7300  138.5400 C   0  0  0  0  0  2  0  0  0  0  0  0
  1 12  1  6  0  0  0
  1  2  1  0  0  0  0
  2  3  1  0  0  0  0
  3  5  2  0  0  0  0
  4 10  1  0  0  0  0
  6  7  1  0  0  0  0
  7  3  1  0  0  0  0
  7 14  1  6  0  0  0
  8 13  1  0  0  0  0
  9  8  1  0  0  0  0
  9 12  1  0  0  0  0
 10  8  2  0  0  0  0
 11  9  2  0  0  0  0
 13 17  1  6  0  0  0
 13  1  1  0  0  0  0
 13  6  1  0  0  0  0
 14 15  1  0  0  0  0
 14 16  1  0  0  0  0
 18 27  1  0  0  0  0
 19 25  1  6  0  0  0
 19 24  1  0  0  0  0
 19 22  1  0  0  0  0
 20 22  1  0  0  0  0
 20 17  1  1  0  0  0
 21 26  1  0  0  0  0
 21 27  1  0  0  0  0
 22 18  1  1  0  0  0
 23 25  1  0  0  0  0
 23 28  1  0  0  0  0
 24 21  2  0  0  0  0
 28 20  1  0  0  0  0
M  END
>  <MODEL>
6

>  <REMARK>
 VINA RESULT:      -6.2      3.034      5.718
  Name = 
  3 active torsions:
  status: ('A' for Active; 'I' for Inactive)
    1  A    between atoms: C_6  and  C_11
    2  A    between atoms: C_10  and  O_17
    3  A    between atoms: O_17  and  C_27
                            x       y       z     vdW  Elec       q    Type
                         _______ _______ _______ _____ _____    ______ ____

>  <TORSDO>
F 3

$$$$
=
 OpenBabel10262420453D

 28 31  0  0  1  0  0  0  0  0999 V2000
  181.3800  179.7010  139.9830 C   0  0  1  0  0  3  0  0  0  0  0  0
  180.7400  178.9740  138.9370 O   0  0  0  0  0  0  0  0  0  0  0  0
  181.3330  177.8830  138.3120 C   0  0  0  0  0  0  0  0  0  0  0  0
  179.5460  178.5130  144.2880 C   0  0  0  0  0  1  0  0  0  0  0  0
  180.8840  177.4750  137.2100 O   0  0  0  0  0  0  0  0  0  0  0  0
  182.0690  177.0030  140.7440 S   0  0  0  0  0  0  0  0  0  0  0  0
  182.4520  177.1590  138.9690 C   0  0  2  0  0  3  0  0  0  0  0  0
  180.8170  179.0240  142.2060 C   0  0  0  0  0  0  0  0  0  0  0  0
  180.0390  180.1730  141.7950 C   0  0  0  0  0  0  0  0  0  0  0  0
  180.6280  178.2670  143.2930 C   0  0  0  0  0  3  0  0  0  0  0  0
  179.1370  180.7360  142.4680 O   0  0  0  0  0  0  0  0  0  0  0  0
  180.4290  180.5970  140.5470 O   0  0  0  0  0  0  0  0  0  0  0  0
  181.8920  178.8090  141.1640 C   0  0  2  0  0  0  0  0  0  0  0  0
  183.7990  177.8260  138.7310 C   0  0  0  0  0  3  0  0  0  0  0  0
  184.6250  176.9510  138.0500 F   0  0  0  0  0  0  0  0  0  0  0  0
  183.6420  178.9700  137.9690 F   0  0  0  0  0  0  0  0  0  0  0  0
  183.1290  179.3770  141.5770 O   0  0  0  0  0  0  0  0  0  0  0  0
  185.8240  178.9370  141.1970 C   0  0  0  0  0  2  0  0  0  0  0  0
  186.0640  178.4780  143.6070 C   0  0  2  0  0  3  0  0  0  0  0  0
  183.6850  178.6600  142.6560 C   0  0  1  0  0  3  0  0  0  0  0  0
  187.9450  177.9510  142.0440 C   0  0  0  0  0  0  0  0  0  0  0  0
  185.1560  178.2520  142.3940 C   0  0  1  0  0  3  0  0  0  0  0  0
  184.0690  178.6280  145.1510 C   0  0  0  0  0  2  0  0  0  0  0  0
  187.3680  177.8780  143.3570 N   0  0  0  0  0  2  0  0  0  0  0  0
  185.4180  177.9390  144.8770 C   0  0  0  0  0  2  0  0  0  0  0  0
  189.5580  177.3330  141.7700 Cl  0  0  0  0  0  0  0  0  0  0  0  0
  187.2240  178.4060  141.0100 C   0  0  0  0  0  3  0  0  0  0  0  0
  183.5340  179.4450  143.9650 C   0  0  0  0  0  2  0  0  0  0  0  0
  1  2  1  6  0  0  0
  1 12  1  0  0  0  0
  1 13  1  0  0  0  0
  3  2  1  0  0  0  0
  3  7  1  0  0  0  0
  5  3  2  0  0  0  0
  6 13  1  0  0  0  0
  7 14  1  1  0  0  0
  7  6  1  0  0  0  0
  8 10  2  0  0  0  0
  9  8  1  0  0  0  0
  9 11  2  0  0  0  0
 10  4  1  0  0  0  0
 12  9  1  0  0  0  0
 13 17  1  1  0  0  0
 13  8  1  0  0  0  0
 15 14  1  0  0  0  0
 16 14  1  0  0  0  0
 19 25  1  1  0  0  0
 20 17  1  6  0  0  0
 20 28  1  0  0  0  0
 21 24  1  0  0  0  0
 22 18  1  6  0  0  0
 22 20  1  0  0  0  0
 22 19  1  0  0  0  0
 24 19  1  0  0  0  0
 25 23  1  0  0  0  0
 26 21  1  0  0  0  0
 27 18  1  0  0  0  0
 27 21  2  0  0  0  0
 28 23  1  0  0  0  0
M  END
>  <MODEL>
7

>  <REMARK>
 VINA RESULT:      -6.1      6.066      8.906
  Name = 
  3 active torsions:
  status: ('A' for Active; 'I' for Inactive)
    1  A    between atoms: C_6  and  C_11
    2  A    between atoms: C_10  and  O_17
    3  A    between atoms: O_17  and  C_27
                            x       y       z     vdW  Elec       q    Type
                         _______ _______ _______ _____ _____    ______ ____

>  <TORSDO>
F 3

$$$$
=
 OpenBabel10262420453D

 28 31  0  0  1  0  0  0  0  0999 V2000
  189.0770  178.5830  145.8100 C   0  0  1  0  0  3  0  0  0  0  0  0
  189.0000  178.0140  147.1150 O   0  0  0  0  0  0  0  0  0  0  0  0
  187.7910  177.7010  147.7260 C   0  0  0  0  0  0  0  0  0  0  0  0
  190.3440  175.2580  142.5480 C   0  0  0  0  0  1  0  0  0  0  0  0
  187.7510  177.5020  148.9670 O   0  0  0  0  0  0  0  0  0  0  0  0
  186.9930  176.6300  145.3920 S   0  0  0  0  0  0  0  0  0  0  0  0
  186.5590  177.5390  146.9110 C   0  0  2  0  0  3  0  0  0  0  0  0
  189.3920  177.0270  144.0230 C   0  0  0  0  0  0  0  0  0  0  0  0
  190.6470  177.6230  144.4260 C   0  0  0  0  0  0  0  0  0  0  0  0
  189.2190  175.9840  143.2020 C   0  0  0  0  0  3  0  0  0  0  0  0
  191.7830  177.3440  143.9610 O   0  0  0  0  0  0  0  0  0  0  0  0
  190.4390  178.5710  145.4000 O   0  0  0  0  0  0  0  0  0  0  0  0
  188.2850  177.7880  144.7170 C   0  0  2  0  0  0  0  0  0  0  0  0
  185.8800  178.8680  146.6080 C   0  0  0  0  0  3  0  0  0  0  0  0
  184.5220  178.6590  146.4540 F   0  0  0  0  0  0  0  0  0  0  0  0
  186.0770  179.7570  147.6490 F   0  0  0  0  0  0  0  0  0  0  0  0
  187.7160  178.7680  143.8560 O   0  0  0  0  0  0  0  0  0  0  0  0
  185.0700  179.0230  143.1250 C   0  0  0  0  0  2  0  0  0  0  0  0
  185.7150  178.7000  140.7680 C   0  0  2  0  0  3  0  0  0  0  0  0
  187.4910  178.2430  142.5670 C   0  0  1  0  0  3  0  0  0  0  0  0
  183.3000  178.6350  141.4220 C   0  0  0  0  0  0  0  0  0  0  0  0
  185.9860  178.2200  142.1980 C   0  0  1  0  0  3  0  0  0  0  0  0
  188.1370  178.3710  140.1290 C   0  0  0  0  0  2  0  0  0  0  0  0
  184.3200  178.4480  140.4290 N   0  0  0  0  0  0  0  0  0  0  0  0
  186.6730  178.0440  139.7830 C   0  0  0  0  0  2  0  0  0  0  0  0
  181.6170  178.4450  140.9840 Cl  0  0  0  0  0  0  0  0  0  0  0  0
  183.6310  178.8650  142.7000 C   0  0  0  0  0  2  0  0  0  0  0  0
  188.3240  178.9940  141.5210 C   0  0  0  0  0  2  0  0  0  0  0  0
  1 12  1  6  0  0  0
  1  2  1  0  0  0  0
  2  3  1  0  0  0  0
  3  5  2  0  0  0  0
  4 10  1  0  0  0  0
  6  7  1  0  0  0  0
  7 14  1  6  0  0  0
  7  3  1  0  0  0  0
  8  9  1  0  0  0  0
  8 13  1  0  0  0  0
  9 12  1  0  0  0  0
 10  8  2  0  0  0  0
 11  9  2  0  0  0  0
 13 17  1  6  0  0  0
 13  6  1  0  0  0  0
 13  1  1  0  0  0  0
 14 16  1  0  0  0  0
 15 14  1  0  0  0  0
 19 25  1  6  0  0  0
 19 22  1  0  0  0  0
 20 17  1  1  0  0  0
 21 27  1  0  0  0  0
 22 20  1  0  0  0  0
 22 18  1  1  0  0  0
 23 28  1  0  0  0  0
 24 19  1  0  0  0  0
 24 21  2  0  0  0  0
 25 23  1  0  0  0  0
 26 21  1  0  0  0  0
 27 18  1  0  0  0  0
 28 20  1  0  0  0  0
M  END
>  <MODEL>
8

>  <REMARK>
 VINA RESULT:      -5.8      3.076      5.279
  Name = 
  3 active torsions:
  status: ('A' for Active; 'I' for Inactive)
    1  A    between atoms: C_6  and  C_11
    2  A    between atoms: C_10  and  O_17
    3  A    between atoms: O_17  and  C_27
                            x       y       z     vdW  Elec       q    Type
                         _______ _______ _______ _____ _____    ______ ____

>  <TORSDO>
F 3

$$$$
=
 OpenBabel10262420453D

 28 31  0  0  1  0  0  0  0  0999 V2000
  190.6070  176.9190  135.6920 C   0  0  1  0  0  3  0  0  0  0  0  0
  191.3050  175.9470  134.9180 O   0  0  0  0  0  0  0  0  0  0  0  0
  192.3220  175.1590  135.4460 C   0  0  0  0  0  0  0  0  0  0  0  0
  186.2440  175.2990  136.9750 C   0  0  0  0  0  1  0  0  0  0  0  0
  193.1080  174.5530  134.6720 O   0  0  0  0  0  0  0  0  0  0  0  0
  190.7740  174.7670  137.6090 S   0  0  0  0  0  0  0  0  0  0  0  0
  192.4460  174.9800  136.9150 C   0  0  2  0  0  3  0  0  0  0  0  0
  188.5560  176.1790  136.6730 C   0  0  0  0  0  0  0  0  0  0  0  0
  188.3180  176.8970  135.4390 C   0  0  0  0  0  0  0  0  0  0  0  0
  187.6700  175.4630  137.3750 C   0  0  0  0  0  3  0  0  0  0  0  0
  187.1990  177.0800  134.8920 O   0  0  0  0  0  0  0  0  0  0  0  0
  189.4990  177.3820  134.9290 O   0  0  0  0  0  0  0  0  0  0  0  0
  190.0140  176.3660  137.0320 C   0  0  2  0  0  0  0  0  0  0  0  0
  193.2010  176.1210  137.5820 C   0  0  0  0  0  3  0  0  0  0  0  0
  194.1010  175.6000  138.4920 F   0  0  0  0  0  0  0  0  0  0  0  0
  193.8990  176.8530  136.6380 F   0  0  0  0  0  0  0  0  0  0  0  0
  190.1780  177.4040  137.9910 O   0  0  0  0  0  0  0  0  0  0  0  0
  191.3320  177.4280  140.4950 C   0  0  0  0  0  2  0  0  0  0  0  0
  189.1540  178.0470  141.4670 C   0  0  2  0  0  3  0  0  0  0  0  0
  189.2000  177.3210  139.0040 C   0  0  1  0  0  3  0  0  0  0  0  0
  191.0320  177.3420  142.9620 C   0  0  0  0  0  0  0  0  0  0  0  0
  189.8260  177.1630  140.4120 C   0  0  1  0  0  3  0  0  0  0  0  0
  187.1330  178.3850  139.9890 C   0  0  0  0  0  2  0  0  0  0  0  0
  189.6500  177.6870  142.7890 N   0  0  0  0  0  2  0  0  0  0  0  0
  187.6370  177.9450  141.3760 C   0  0  0  0  0  2  0  0  0  0  0  0
  191.6540  177.0230  144.5660 Cl  0  0  0  0  0  0  0  0  0  0  0  0
  191.8290  177.1760  141.8970 C   0  0  0  0  0  3  0  0  0  0  0  0
  188.2430  178.5170  138.9350 C   0  0  0  0  0  2  0  0  0  0  0  0
  1  2  1  6  0  0  0
  1 13  1  0  0  0  0
  2  3  1  0  0  0  0
  3  7  1  0  0  0  0
  4 10  1  0  0  0  0
  5  3  2  0  0  0  0
  7 14  1  1  0  0  0
  7  6  1  0  0  0  0
  8 13  1  0  0  0  0
  8 10  2  0  0  0  0
  9  8  1  0  0  0  0
 11  9  2  0  0  0  0
 12  9  1  0  0  0  0
 12  1  1  0  0  0  0
 13  6  1  0  0  0  0
 13 17  1  1  0  0  0
 14 15  1  0  0  0  0
 16 14  1  0  0  0  0
 18 27  1  0  0  0  0
 19 25  1  1  0  0  0
 19 24  1  0  0  0  0
 20 17  1  6  0  0  0
 20 22  1  0  0  0  0
 21 26  1  0  0  0  0
 22 18  1  6  0  0  0
 22 19  1  0  0  0  0
 23 25  1  0  0  0  0
 24 21  1  0  0  0  0
 27 21  2  0  0  0  0
 28 20  1  0  0  0  0
 28 23  1  0  0  0  0
M  END
>  <MODEL>
9

>  <REMARK>
 VINA RESULT:      -5.7      5.388      8.096
  Name = 
  3 active torsions:
  status: ('A' for Active; 'I' for Inactive)
    1  A    between atoms: C_6  and  C_11
    2  A    between atoms: C_10  and  O_17
    3  A    between atoms: O_17  and  C_27
                            x       y       z     vdW  Elec       q    Type
                         _______ _______ _______ _____ _____    ______ ____

>  <TORSDO>
F 3

$$$$
