=
 OpenBabel10262420273D

 55 59  0  0  1  0  0  0  0  0999 V2000
  186.2850  178.4230  145.1250 C   0  0  0  0  0  3  0  0  0  0  0  0
  183.5850  178.6240  144.3860 C   0  0  0  0  0  0  0  0  0  0  0  0
  184.5870  178.5420  143.4130 C   0  0  0  0  0  3  0  0  0  0  0  0
  185.2940  178.5090  146.1060 C   0  0  0  0  0  3  0  0  0  0  0  0
  185.9360  178.4240  143.7720 C   0  0  0  0  0  0  0  0  0  0  0  0
  183.9460  178.5980  145.7350 C   0  0  0  0  0  3  0  0  0  0  0  0
  182.2370  178.7390  144.0320 O   0  0  0  0  0  0  0  0  0  0  0  0
  181.8150  179.3710  142.8340 C   0  0  0  0  0  2  0  0  0  0  0  0
  181.2280  178.3440  141.8920 C   0  0  0  0  0  2  0  0  0  0  0  0
  182.1060  178.2560  140.6550 C   0  0  0  0  0  2  0  0  0  0  0  0
  181.9050  176.9420  139.9080 C   0  0  0  0  0  2  0  0  0  0  0  0
  180.6090  176.9400  139.1230 C   0  0  0  0  0  2  0  0  0  0  0  0
  180.8520  176.3170  137.7520 C   0  0  0  0  0  2  0  0  0  0  0  0
  181.7710  175.0960  137.8080 C   0  0  1  0  0  3  0  0  0  0  0  0
  181.0350  173.9140  137.9340 O   0  0  0  0  0  1  0  0  0  0  0  0
  182.5320  173.0610  135.2730 O   0  0  0  0  0  1  0  0  0  0  0  0
  182.8450  175.0180  136.7040 C   0  0  1  0  0  0  0  0  0  0  0  0
  187.3690  173.9510  136.9970 C   0  0  0  0  0  3  0  0  0  0  0  0
  183.2580  172.7300  137.4000 F   0  0  0  0  0  0  0  0  0  0  0  0
  183.3010  173.5900  136.3110 C   0  0  1  0  0  0  0  0  0  0  0  0
  186.8380  172.6660  136.5030 C   0  0  0  0  0  3  0  0  0  0  0  0
  185.6100  172.5740  135.9890 C   0  0  0  0  0  3  0  0  0  0  0  0
  185.2250  174.9320  136.5910 N   0  0  0  0  0  0  0  0  0  0  0  0
  184.7330  173.7890  135.8390 C   0  0  2  0  0  3  0  0  0  0  0  0
  182.3690  175.6710  135.5580 O   0  0  0  0  0  1  0  0  0  0  0  0
  186.5780  175.0270  137.0520 C   0  0  0  0  0  3  0  0  0  0  0  0
  184.1420  175.6920  137.1900 C   0  0  1  0  0  3  0  0  0  0  0  0
  184.2450  177.1540  136.8490 C   0  0  0  0  0  3  0  0  0  0  0  0
  184.5450  177.9650  137.7060 O   0  0  0  0  0  0  0  0  0  0  0  0
  187.0240  178.3560  142.7460 C   0  0  0  0  0  2  0  0  0  0  0  0
  187.6590  176.9950  142.6650 C   0  0  0  0  0  3  0  0  0  0  0  0
  188.7550  176.7330  141.9500 C   0  0  0  0  0  3  0  0  0  0  0  0
  189.5040  177.7480  141.1360 C   0  0  2  0  0  3  0  0  0  0  0  0
  188.9770  178.8290  139.0010 O   0  0  0  0  0  0  0  0  0  0  0  0
  189.1320  177.5900  139.6550 C   0  0  2  0  0  0  0  0  0  0  0  0
  187.8030  178.0580  139.1900 C   0  0  0  0  0  2  0  0  0  0  0  0
  189.8230  176.4880  138.8180 C   0  0  0  0  0  2  0  0  0  0  0  0
  190.6890  176.9950  137.6560 C   0  0  0  0  0  2  0  0  0  0  0  0
  191.1000  174.7100  137.7120 C   0  0  0  0  0  1  0  0  0  0  0  0
  191.4050  175.9190  136.9610 N   0  0  0  0  0  0  0  0  0  0  0  0
  192.8450  176.1390  137.0950 C   0  0  0  0  0  2  0  0  0  0  0  0
  194.1140  174.3650  135.8470 C   0  0  0  0  0  1  0  0  0  0  0  0
  194.7400  176.7490  135.6400 C   0  0  0  0  0  1  0  0  0  0  0  0
  192.6690  175.9310  134.6070 C   0  0  0  0  0  1  0  0  0  0  0  0
  193.5870  175.7900  135.8030 C   0  0  0  0  0  0  0  0  0  0  0  0
  190.9440  177.5910  141.3490 N   0  0  0  0  0  2  0  0  0  0  0  0
  191.1120  176.6390  142.3620 N   0  0  0  0  0  2  0  0  0  0  0  0
  190.9290  178.6650  143.7450 C   0  0  0  0  0  2  0  0  0  0  0  0
  190.1920  177.1630  145.4850 C   0  0  2  0  0  3  0  0  0  0  0  0
  191.6340  177.3270  143.5390 C   0  0  1  0  0  3  0  0  0  0  0  0
  191.3530  176.4950  144.7740 C   0  0  0  0  0  2  0  0  0  0  0  0
  190.2640  178.6240  145.1030 C   0  0  0  0  0  2  0  0  0  0  0  0
  190.2510  176.9780  146.9980 C   0  0  0  0  0  3  0  0  0  0  0  0
  188.9940  176.6280  147.5050 O   0  0  0  0  0  1  0  0  0  0  0  0
  191.2090  176.0350  147.3690 O   0  0  0  0  0  1  0  0  0  0  0  0
  1  4  1  0  0  0  0
  2  6  1  0  0  0  0
  3  5  1  0  0  0  0
  3  2  2  0  0  0  0
  5  1  2  0  0  0  0
  6  4  2  0  0  0  0
  7  2  1  0  0  0  0
  8  7  1  0  0  0  0
  9  8  1  0  0  0  0
 10  9  1  0  0  0  0
 11 10  1  0  0  0  0
 12 11  1  0  0  0  0
 13 14  1  0  0  0  0
 13 12  1  0  0  0  0
 14 15  1  6  0  0  0
 17 25  1  6  0  0  0
 17 27  1  0  0  0  0
 17 14  1  0  0  0  0
 18 26  2  0  0  0  0
 20 16  1  6  0  0  0
 20 17  1  0  0  0  0
 20 19  1  0  0  0  0
 21 18  1  0  0  0  0
 22 21  2  0  0  0  0
 23 26  1  0  0  0  0
 23 27  1  0  0  0  0
 24 22  1  1  0  0  0
 24 20  1  0  0  0  0
 24 23  1  0  0  0  0
 27 28  1  6  0  0  0
 28 29  2  0  0  0  0
 30  5  1  0  0  0  0
 31 30  1  0  0  0  0
 32 31  2  0  0  0  0
 33 46  1  0  0  0  0
 33 32  1  1  0  0  0
 34 36  1  0  0  0  0
 34 35  1  0  0  0  0
 35 37  1  6  0  0  0
 35 33  1  0  0  0  0
 36 35  1  0  0  0  0
 38 37  1  0  0  0  0
 40 41  1  0  0  0  0
 40 38  1  0  0  0  0
 40 39  1  0  0  0  0
 43 45  1  0  0  0  0
 44 45  1  0  0  0  0
 45 42  1  0  0  0  0
 45 41  1  0  0  0  0
 46 47  1  0  0  0  0
 48 52  1  0  0  0  0
 49 53  1  1  0  0  0
 50 47  1  6  0  0  0
 50 48  1  0  0  0  0
 50 51  1  0  0  0  0
 51 49  1  0  0  0  0
 52 49  1  0  0  0  0
 53 55  1  0  0  0  0
 53 54  1  0  0  0  0
M  END
>  <MODEL>
1

>  <REMARK>
 VINA RESULT:      -7.0      0.000      0.000
  Name = 
  23 active torsions:
  status: ('A' for Active; 'I' for Inactive)
    1  A    between atoms: C_1  and  C_53
    2  A    between atoms: C_2  and  C_28
    3  A    between atoms: C_2  and  C_44
    4  A    between atoms: C_6  and  C_20
    5  A    between atoms: C_7  and  C_20
    6  A    between atoms: C_7  and  C_22
    7  A    between atoms: C_8  and  C_22
    8  A    between atoms: C_8  and  C_35
    9  A    between atoms: C_10  and  C_32
   10  A    between atoms: C_16  and  C_17
   11  A    between atoms: C_16  and  C_26
   12  A    between atoms: C_17  and  C_33
   13  A    between atoms: C_19  and  C_40
   14  A    between atoms: C_19  and  N_45
   15  A    between atoms: C_26  and  N_45
   16  A    between atoms: C_27  and  O_54
   17  A    between atoms: C_33  and  N_36
   18  A    between atoms: C_33  and  C_49
   19  A    between atoms: C_34  and  N_52
   20  A    between atoms: C_35  and  C_43
   21  A    between atoms: N_36  and  N_52
   22  A    between atoms: C_43  and  C_51
   23  A    between atoms: C_51  and  O_54
                            x       y       z     vdW  Elec       q    Type
                         _______ _______ _______ _____ _____    ______ ____

>  <TORSDO>
F 23

$$$$
=
 OpenBabel10262420273D

 55 59  0  0  1  0  0  0  0  0999 V2000
  191.0720  176.6390  143.8460 C   0  0  0  0  0  3  0  0  0  0  0  0
  188.7060  177.4910  145.0940 C   0  0  0  0  0  0  0  0  0  0  0  0
  188.7650  177.3380  143.7050 C   0  0  0  0  0  3  0  0  0  0  0  0
  191.0270  176.7930  145.2350 C   0  0  0  0  0  3  0  0  0  0  0  0
  189.9360  176.8960  143.0750 C   0  0  0  0  0  0  0  0  0  0  0  0
  189.8430  177.2080  145.8560 C   0  0  0  0  0  3  0  0  0  0  0  0
  187.5390  177.9290  145.7270 O   0  0  0  0  0  0  0  0  0  0  0  0
  186.2480  177.4940  145.3310 C   0  0  0  0  0  2  0  0  0  0  0  0
  185.4360  178.6740  144.8490 C   0  0  0  0  0  2  0  0  0  0  0  0
  184.7620  178.3030  143.5380 C   0  0  0  0  0  2  0  0  0  0  0  0
  184.9960  179.3560  142.4600 C   0  0  0  0  0  2  0  0  0  0  0  0
  185.6330  178.7530  141.2230 C   0  0  0  0  0  2  0  0  0  0  0  0
  184.5370  178.3550  140.2390 C   0  0  0  0  0  2  0  0  0  0  0  0
  183.6020  179.5120  139.8890 C   0  0  1  0  0  3  0  0  0  0  0  0
  184.2060  180.3990  138.9930 O   0  0  0  0  0  1  0  0  0  0  0  0
  180.4890  179.9960  140.9960 O   0  0  0  0  0  1  0  0  0  0  0  0
  182.1750  179.1100  139.4630 C   0  0  1  0  0  0  0  0  0  0  0  0
  180.0390  174.9770  139.6680 C   0  0  0  0  0  3  0  0  0  0  0  0
  181.8260  178.3110  141.7280 F   0  0  0  0  0  0  0  0  0  0  0  0
  181.1790  178.8420  140.6200 C   0  0  1  0  0  0  0  0  0  0  0  0
  179.4490  175.6240  140.8560 C   0  0  0  0  0  3  0  0  0  0  0  0
  179.5430  176.9420  141.0460 C   0  0  0  0  0  3  0  0  0  0  0  0
  180.9830  177.0860  139.0510 N   0  0  0  0  0  0  0  0  0  0  0  0
  180.2080  177.8330  140.0290 C   0  0  2  0  0  3  0  0  0  0  0  0
  181.6460  180.1120  138.6370 O   0  0  0  0  0  1  0  0  0  0  0  0
  180.7890  175.6860  138.8200 C   0  0  0  0  0  3  0  0  0  0  0  0
  182.2150  177.7710  138.7020 C   0  0  1  0  0  3  0  0  0  0  0  0
  182.3590  177.9110  137.2100 C   0  0  0  0  0  3  0  0  0  0  0  0
  181.4250  177.6520  136.4750 O   0  0  0  0  0  0  0  0  0  0  0  0
  190.0260  176.7460  141.5870 C   0  0  0  0  0  2  0  0  0  0  0  0
  191.3180  177.2770  141.0300 C   0  0  0  0  0  3  0  0  0  0  0  0
  191.6520  177.2020  139.7400 C   0  0  0  0  0  3  0  0  0  0  0  0
  190.7930  176.5890  138.6720 C   0  0  2  0  0  3  0  0  0  0  0  0
  191.0940  175.4130  136.5430 O   0  0  0  0  0  0  0  0  0  0  0  0
  191.6400  175.6300  137.8240 C   0  0  2  0  0  0  0  0  0  0  0  0
  191.0750  174.3140  137.4380 C   0  0  0  0  0  2  0  0  0  0  0  0
  193.1820  175.7470  137.8680 C   0  0  0  0  0  2  0  0  0  0  0  0
  193.8470  176.1420  136.5430 C   0  0  0  0  0  2  0  0  0  0  0  0
  194.3650  174.6620  134.8290 C   0  0  0  0  0  1  0  0  0  0  0  0
  194.8600  175.1770  136.0980 N   0  0  0  0  0  0  0  0  0  0  0  0
  194.8810  174.0440  137.0250 C   0  0  0  0  0  2  0  0  0  0  0  0
  196.2560  174.2820  139.1140 C   0  0  0  0  0  1  0  0  0  0  0  0
  197.2510  174.7120  136.8910 C   0  0  0  0  0  1  0  0  0  0  0  0
  196.7030  172.4170  137.5660 C   0  0  0  0  0  1  0  0  0  0  0  0
  196.2640  173.8620  137.6530 C   0  0  0  0  0  0  0  0  0  0  0  0
  190.1900  177.6410  137.8530 N   0  0  0  0  0  2  0  0  0  0  0  0
  189.2500  177.0260  137.0150 N   0  0  0  0  0  2  0  0  0  0  0  0
  187.1100  178.1350  137.5060 C   0  0  0  0  0  2  0  0  0  0  0  0
  186.1090  176.2480  136.3830 C   0  0  2  0  0  3  0  0  0  0  0  0
  187.9970  176.9170  137.7550 C   0  0  1  0  0  3  0  0  0  0  0  0
  187.2240  175.7110  137.2600 C   0  0  0  0  0  2  0  0  0  0  0  0
  185.8180  177.6390  136.8950 C   0  0  0  0  0  2  0  0  0  0  0  0
  184.8640  175.3670  136.4190 C   0  0  0  0  0  3  0  0  0  0  0  0
  184.9360  174.3650  135.4430 O   0  0  0  0  0  1  0  0  0  0  0  0
  184.6600  174.8080  137.6800 O   0  0  0  0  0  1  0  0  0  0  0  0
  1  4  1  0  0  0  0
  2  7  1  0  0  0  0
  2  6  1  0  0  0  0
  3  2  2  0  0  0  0
  4  6  2  0  0  0  0
  5  3  1  0  0  0  0
  5  1  2  0  0  0  0
  8  7  1  0  0  0  0
  9  8  1  0  0  0  0
 10  9  1  0  0  0  0
 11 10  1  0  0  0  0
 12 11  1  0  0  0  0
 13 12  1  0  0  0  0
 14 15  1  6  0  0  0
 14 13  1  0  0  0  0
 17 25  1  6  0  0  0
 17 14  1  0  0  0  0
 17 20  1  0  0  0  0
 18 21  1  0  0  0  0
 20 16  1  1  0  0  0
 20 19  1  0  0  0  0
 21 22  2  0  0  0  0
 23 24  1  0  0  0  0
 24 20  1  0  0  0  0
 24 22  1  1  0  0  0
 26 23  1  0  0  0  0
 26 18  2  0  0  0  0
 27 28  1  6  0  0  0
 27 23  1  0  0  0  0
 27 17  1  0  0  0  0
 29 28  2  0  0  0  0
 30  5  1  0  0  0  0
 31 30  1  0  0  0  0
 32 31  2  0  0  0  0
 33 32  1  1  0  0  0
 34 36  1  0  0  0  0
 34 35  1  0  0  0  0
 35 37  1  1  0  0  0
 35 33  1  0  0  0  0
 36 35  1  0  0  0  0
 38 37  1  0  0  0  0
 39 40  1  0  0  0  0
 40 38  1  0  0  0  0
 40 41  1  0  0  0  0
 41 45  1  0  0  0  0
 43 45  1  0  0  0  0
 44 45  1  0  0  0  0
 45 42  1  0  0  0  0
 46 33  1  0  0  0  0
 47 46  1  0  0  0  0
 48 50  1  0  0  0  0
 49 53  1  1  0  0  0
 49 52  1  0  0  0  0
 49 51  1  0  0  0  0
 50 47  1  6  0  0  0
 51 50  1  0  0  0  0
 52 48  1  0  0  0  0
 53 55  1  0  0  0  0
 54 53  1  0  0  0  0
M  END
>  <MODEL>
2

>  <REMARK>
 VINA RESULT:      -6.9      2.440      6.266
  Name = 
  23 active torsions:
  status: ('A' for Active; 'I' for Inactive)
    1  A    between atoms: C_1  and  C_53
    2  A    between atoms: C_2  and  C_28
    3  A    between atoms: C_2  and  C_44
    4  A    between atoms: C_6  and  C_20
    5  A    between atoms: C_7  and  C_20
    6  A    between atoms: C_7  and  C_22
    7  A    between atoms: C_8  and  C_22
    8  A    between atoms: C_8  and  C_35
    9  A    between atoms: C_10  and  C_32
   10  A    between atoms: C_16  and  C_17
   11  A    between atoms: C_16  and  C_26
   12  A    between atoms: C_17  and  C_33
   13  A    between atoms: C_19  and  C_40
   14  A    between atoms: C_19  and  N_45
   15  A    between atoms: C_26  and  N_45
   16  A    between atoms: C_27  and  O_54
   17  A    between atoms: C_33  and  N_36
   18  A    between atoms: C_33  and  C_49
   19  A    between atoms: C_34  and  N_52
   20  A    between atoms: C_35  and  C_43
   21  A    between atoms: N_36  and  N_52
   22  A    between atoms: C_43  and  C_51
   23  A    between atoms: C_51  and  O_54
                            x       y       z     vdW  Elec       q    Type
                         _______ _______ _______ _____ _____    ______ ____

>  <TORSDO>
F 23

$$$$
=
 OpenBabel10262420273D

 55 59  0  0  1  0  0  0  0  0999 V2000
  182.5320  178.6280  141.3990 C   0  0  0  0  0  3  0  0  0  0  0  0
  183.2840  178.9400  144.0860 C   0  0  0  0  0  0  0  0  0  0  0  0
  184.2500  178.7630  143.0900 C   0  0  0  0  0  3  0  0  0  0  0  0
  181.5560  178.7990  142.3860 C   0  0  0  0  0  3  0  0  0  0  0  0
  183.8850  178.6240  141.7440 C   0  0  0  0  0  0  0  0  0  0  0  0
  181.9340  178.9660  143.7240 C   0  0  0  0  0  3  0  0  0  0  0  0
  183.6440  179.0830  145.4290 O   0  0  0  0  0  0  0  0  0  0  0  0
  184.9930  179.2160  145.8470 C   0  0  0  0  0  2  0  0  0  0  0  0
  185.5070  177.8880  146.3540 C   0  0  0  0  0  2  0  0  0  0  0  0
  186.9770  178.0340  146.7070 C   0  0  0  0  0  2  0  0  0  0  0  0
  187.8660  177.1830  145.8070 C   0  0  0  0  0  2  0  0  0  0  0  0
  187.2690  177.0270  144.4220 C   0  0  0  0  0  2  0  0  0  0  0  0
  187.6400  178.2400  143.5760 C   0  0  0  0  0  2  0  0  0  0  0  0
  188.4910  177.8800  142.3590 C   0  0  1  0  0  3  0  0  0  0  0  0
  188.2850  178.7820  141.3110 O   0  0  0  0  0  1  0  0  0  0  0  0
  190.8240  175.6930  141.3990 O   0  0  0  0  0  1  0  0  0  0  0  0
  189.9860  177.6230  142.6420 C   0  0  1  0  0  0  0  0  0  0  0  0
  192.0650  175.9390  146.4540 C   0  0  0  0  0  3  0  0  0  0  0  0
  189.3990  175.3190  143.1280 F   0  0  0  0  0  0  0  0  0  0  0  0
  190.4190  176.1350  142.6590 C   0  0  1  0  0  0  0  0  0  0  0  0
  192.0670  174.7280  145.6110 C   0  0  0  0  0  3  0  0  0  0  0  0
  191.8300  174.7970  144.2990 C   0  0  0  0  0  3  0  0  0  0  0  0
  191.3500  177.2000  144.5520 N   0  0  0  0  0  0  0  0  0  0  0  0
  191.6030  176.1190  143.6140 C   0  0  2  0  0  3  0  0  0  0  0  0
  190.7550  178.3060  141.6890 O   0  0  0  0  0  1  0  0  0  0  0  0
  191.7000  177.1160  145.9380 C   0  0  0  0  0  3  0  0  0  0  0  0
  190.3410  178.1210  144.0560 C   0  0  1  0  0  3  0  0  0  0  0  0
  190.8260  179.5440  144.1080 C   0  0  0  0  0  3  0  0  0  0  0  0
  192.0060  179.7860  144.2750 O   0  0  0  0  0  0  0  0  0  0  0  0
  184.9030  178.4120  140.6660 C   0  0  0  0  0  2  0  0  0  0  0  0
  184.5800  179.1710  139.4090 C   0  0  0  0  0  3  0  0  0  0  0  0
  184.7590  178.6780  138.1820 C   0  0  0  0  0  3  0  0  0  0  0  0
  185.2980  177.3090  137.8850 C   0  0  2  0  0  3  0  0  0  0  0  0
  187.6420  178.0180  137.9820 O   0  0  0  0  0  0  0  0  0  0  0  0
  186.6490  177.4370  137.1670 C   0  0  2  0  0  0  0  0  0  0  0  0
  187.1900  178.7890  136.8810 C   0  0  0  0  0  2  0  0  0  0  0  0
  187.1370  176.2790  136.2650 C   0  0  0  0  0  2  0  0  0  0  0  0
  187.8810  175.1510  136.9930 C   0  0  0  0  0  2  0  0  0  0  0  0
  188.7720  173.4800  135.6490 C   0  0  0  0  0  1  0  0  0  0  0  0
  189.1090  174.7350  136.3050 N   0  0  0  0  0  0  0  0  0  0  0  0
  190.1320  174.4200  137.3030 C   0  0  0  0  0  2  0  0  0  0  0  0
  192.6070  174.1420  136.9650 C   0  0  0  0  0  1  0  0  0  0  0  0
  191.7000  176.1640  138.0630 C   0  0  0  0  0  1  0  0  0  0  0  0
  191.3790  175.8300  135.6530 C   0  0  0  0  0  1  0  0  0  0  0  0
  191.4520  175.1300  136.9930 C   0  0  0  0  0  0  0  0  0  0  0  0
  184.3320  176.5570  137.0820 N   0  0  0  0  0  2  0  0  0  0  0  0
  183.0860  176.6810  137.7090 N   0  0  0  0  0  2  0  0  0  0  0  0
  182.7480  175.4110  135.6300 C   0  0  0  0  0  2  0  0  0  0  0  0
  182.2320  173.5580  137.0890 C   0  0  2  0  0  3  0  0  0  0  0  0
  182.1030  175.9740  136.8940 C   0  0  1  0  0  3  0  0  0  0  0  0
  181.5650  174.7890  137.6710 C   0  0  0  0  0  2  0  0  0  0  0  0
  182.5630  173.9090  135.6570 C   0  0  0  0  0  2  0  0  0  0  0  0
  181.3430  172.3200  137.1680 C   0  0  0  0  0  3  0  0  0  0  0  0
  180.1580  172.6050  137.8580 O   0  0  0  0  0  1  0  0  0  0  0  0
  181.0620  171.8010  135.9050 O   0  0  0  0  0  1  0  0  0  0  0  0
  1  5  2  0  0  0  0
  1  4  1  0  0  0  0
  2  7  1  0  0  0  0
  3  2  2  0  0  0  0
  4  6  2  0  0  0  0
  5  3  1  0  0  0  0
  6  2  1  0  0  0  0
  7  8  1  0  0  0  0
  8  9  1  0  0  0  0
  9 10  1  0  0  0  0
 11 10  1  0  0  0  0
 12 11  1  0  0  0  0
 13 12  1  0  0  0  0
 14 15  1  6  0  0  0
 14 17  1  0  0  0  0
 14 13  1  0  0  0  0
 17 25  1  6  0  0  0
 17 20  1  0  0  0  0
 17 27  1  0  0  0  0
 20 16  1  6  0  0  0
 20 19  1  0  0  0  0
 20 24  1  0  0  0  0
 21 18  1  0  0  0  0
 22 21  2  0  0  0  0
 23 26  1  0  0  0  0
 24 22  1  1  0  0  0
 24 23  1  0  0  0  0
 26 18  2  0  0  0  0
 27 28  1  6  0  0  0
 27 23  1  0  0  0  0
 28 29  2  0  0  0  0
 30  5  1  0  0  0  0
 31 30  1  0  0  0  0
 32 31  2  0  0  0  0
 33 32  1  6  0  0  0
 35 37  1  6  0  0  0
 35 33  1  0  0  0  0
 35 34  1  0  0  0  0
 36 35  1  0  0  0  0
 36 34  1  0  0  0  0
 37 38  1  0  0  0  0
 39 40  1  0  0  0  0
 40 38  1  0  0  0  0
 40 41  1  0  0  0  0
 42 45  1  0  0  0  0
 44 45  1  0  0  0  0
 45 41  1  0  0  0  0
 45 43  1  0  0  0  0
 46 47  1  0  0  0  0
 46 33  1  0  0  0  0
 48 52  1  0  0  0  0
 48 50  1  0  0  0  0
 49 53  1  6  0  0  0
 49 51  1  0  0  0  0
 50 51  1  0  0  0  0
 50 47  1  1  0  0  0
 52 49  1  0  0  0  0
 53 54  1  0  0  0  0
 55 53  1  0  0  0  0
M  END
>  <MODEL>
3

>  <REMARK>
 VINA RESULT:      -6.3      2.414      8.289
  Name = 
  23 active torsions:
  status: ('A' for Active; 'I' for Inactive)
    1  A    between atoms: C_1  and  C_53
    2  A    between atoms: C_2  and  C_28
    3  A    between atoms: C_2  and  C_44
    4  A    between atoms: C_6  and  C_20
    5  A    between atoms: C_7  and  C_20
    6  A    between atoms: C_7  and  C_22
    7  A    between atoms: C_8  and  C_22
    8  A    between atoms: C_8  and  C_35
    9  A    between atoms: C_10  and  C_32
   10  A    between atoms: C_16  and  C_17
   11  A    between atoms: C_16  and  C_26
   12  A    between atoms: C_17  and  C_33
   13  A    between atoms: C_19  and  C_40
   14  A    between atoms: C_19  and  N_45
   15  A    between atoms: C_26  and  N_45
   16  A    between atoms: C_27  and  O_54
   17  A    between atoms: C_33  and  N_36
   18  A    between atoms: C_33  and  C_49
   19  A    between atoms: C_34  and  N_52
   20  A    between atoms: C_35  and  C_43
   21  A    between atoms: N_36  and  N_52
   22  A    between atoms: C_43  and  C_51
   23  A    between atoms: C_51  and  O_54
                            x       y       z     vdW  Elec       q    Type
                         _______ _______ _______ _____ _____    ______ ____

>  <TORSDO>
F 23

$$$$
=
 OpenBabel10262420273D

 55 59  0  0  1  0  0  0  0  0999 V2000
  189.5360  177.7940  142.7370 C   0  0  0  0  0  3  0  0  0  0  0  0
  190.9400  177.2460  140.3680 C   0  0  0  0  0  0  0  0  0  0  0  0
  189.5420  177.3130  140.3710 C   0  0  0  0  0  3  0  0  0  0  0  0
  190.9330  177.7250  142.7480 C   0  0  0  0  0  3  0  0  0  0  0  0
  188.8340  177.6040  141.5440 C   0  0  0  0  0  0  0  0  0  0  0  0
  191.6310  177.4620  141.5640 C   0  0  0  0  0  3  0  0  0  0  0  0
  191.6500  176.9600  139.1990 O   0  0  0  0  0  0  0  0  0  0  0  0
  191.3810  175.8160  138.4040 C   0  0  0  0  0  2  0  0  0  0  0  0
  192.5790  175.5020  137.5370 C   0  0  0  0  0  2  0  0  0  0  0  0
  192.0900  175.0620  136.1670 C   0  0  0  0  0  2  0  0  0  0  0  0
  190.7880  175.7540  135.7780 C   0  0  0  0  0  2  0  0  0  0  0  0
  190.0760  175.0150  134.6640 C   0  0  0  0  0  2  0  0  0  0  0  0
  188.6080  175.4290  134.6440 C   0  0  0  0  0  2  0  0  0  0  0  0
  187.6810  174.3690  135.2380 C   0  0  1  0  0  3  0  0  0  0  0  0
  188.3930  173.2240  135.6080 O   0  0  0  0  0  1  0  0  0  0  0  0
  186.1300  173.0680  137.8930 O   0  0  0  0  0  1  0  0  0  0  0  0
  186.7250  174.8620  136.3440 C   0  0  1  0  0  0  0  0  0  0  0  0
  182.2180  176.0140  136.1110 C   0  0  0  0  0  3  0  0  0  0  0  0
  185.2750  172.9960  135.7900 F   0  0  0  0  0  0  0  0  0  0  0  0
  185.6680  173.8360  136.8230 C   0  0  1  0  0  0  0  0  0  0  0  0
  182.1030  174.6590  136.6840 C   0  0  0  0  0  3  0  0  0  0  0  0
  183.1610  174.0340  137.2040 C   0  0  0  0  0  3  0  0  0  0  0  0
  184.5820  175.9030  136.4580 N   0  0  0  0  0  0  0  0  0  0  0  0
  184.5070  174.7060  137.2800 C   0  0  2  0  0  3  0  0  0  0  0  0
  187.4810  175.2800  137.4480 O   0  0  0  0  0  1  0  0  0  0  0  0
  183.4170  176.5920  135.9910 C   0  0  0  0  0  3  0  0  0  0  0  0
  185.8780  176.0360  135.8150 C   0  0  1  0  0  3  0  0  0  0  0  0
  186.4770  177.3930  136.0640 C   0  0  0  0  0  3  0  0  0  0  0  0
  186.7070  178.1430  135.1340 O   0  0  0  0  0  0  0  0  0  0  0  0
  187.3380  177.6600  141.5720 C   0  0  0  0  0  2  0  0  0  0  0  0
  186.7940  178.9150  140.9470 C   0  0  0  0  0  3  0  0  0  0  0  0
  185.4920  179.1920  140.8600 C   0  0  0  0  0  3  0  0  0  0  0  0
  184.3960  178.3030  141.3720 C   0  0  2  0  0  3  0  0  0  0  0  0
  182.1260  177.5680  140.8090 O   0  0  0  0  0  0  0  0  0  0  0  0
  183.2820  178.2100  140.3200 C   0  0  2  0  0  0  0  0  0  0  0  0
  182.8680  176.8750  139.8200 C   0  0  0  0  0  2  0  0  0  0  0  0
  183.0160  179.4200  139.3940 C   0  0  0  0  0  2  0  0  0  0  0  0
  181.6650  180.1190  139.6010 C   0  0  0  0  0  2  0  0  0  0  0  0
  181.5440  179.4940  137.3670 C   0  0  0  0  0  1  0  0  0  0  0  0
  180.9700  180.4110  138.3420 N   0  0  0  0  0  0  0  0  0  0  0  0
  181.3270  181.7600  137.9010 C   0  0  0  0  0  2  0  0  0  0  0  0
  180.5620  183.6060  136.3770 C   0  0  0  0  0  1  0  0  0  0  0  0
  179.3210  183.0830  138.4510 C   0  0  0  0  0  1  0  0  0  0  0  0
  179.2340  181.5370  136.5480 C   0  0  0  0  0  1  0  0  0  0  0  0
  180.1190  182.4950  137.3150 C   0  0  0  0  0  0  0  0  0  0  0  0
  183.8910  178.8170  142.6460 N   0  0  0  0  0  2  0  0  0  0  0  0
  184.3890  177.9840  143.6560 N   0  0  0  0  0  2  0  0  0  0  0  0
  184.4040  178.9760  145.9060 C   0  0  0  0  0  2  0  0  0  0  0  0
  186.3090  177.5470  146.3000 C   0  0  2  0  0  3  0  0  0  0  0  0
  185.1490  178.8140  144.5840 C   0  0  1  0  0  3  0  0  0  0  0  0
  186.4630  178.1310  144.9090 C   0  0  0  0  0  2  0  0  0  0  0  0
  185.2890  178.4150  146.9990 C   0  0  0  0  0  2  0  0  0  0  0  0
  187.6290  177.5100  147.0660 C   0  0  0  0  0  3  0  0  0  0  0  0
  188.7120  177.4340  146.1820 O   0  0  0  0  0  1  0  0  0  0  0  0
  187.7660  178.6060  147.9160 O   0  0  0  0  0  1  0  0  0  0  0  0
  1  4  1  0  0  0  0
  2  3  2  0  0  0  0
  2  6  1  0  0  0  0
  3  5  1  0  0  0  0
  5 30  1  0  0  0  0
  5  1  2  0  0  0  0
  6  4  2  0  0  0  0
  7  2  1  0  0  0  0
  8  7  1  0  0  0  0
  9  8  1  0  0  0  0
 10  9  1  0  0  0  0
 11 10  1  0  0  0  0
 12 11  1  0  0  0  0
 13 12  1  0  0  0  0
 13 14  1  0  0  0  0
 14 15  1  1  0  0  0
 14 17  1  0  0  0  0
 17 20  1  0  0  0  0
 17 25  1  1  0  0  0
 18 21  1  0  0  0  0
 20 19  1  6  0  0  0
 20 24  1  0  0  0  0
 20 16  1  0  0  0  0
 21 22  2  0  0  0  0
 23 24  1  0  0  0  0
 24 22  1  6  0  0  0
 26 18  2  0  0  0  0
 26 23  1  0  0  0  0
 27 28  1  1  0  0  0
 27 17  1  0  0  0  0
 27 23  1  0  0  0  0
 29 28  2  0  0  0  0
 31 30  1  0  0  0  0
 32 31  2  0  0  0  0
 33 32  1  6  0  0  0
 33 46  1  0  0  0  0
 35 37  1  6  0  0  0
 35 34  1  0  0  0  0
 35 33  1  0  0  0  0
 36 35  1  0  0  0  0
 36 34  1  0  0  0  0
 37 38  1  0  0  0  0
 39 40  1  0  0  0  0
 40 38  1  0  0  0  0
 41 40  1  0  0  0  0
 42 45  1  0  0  0  0
 44 45  1  0  0  0  0
 45 41  1  0  0  0  0
 45 43  1  0  0  0  0
 46 47  1  0  0  0  0
 48 52  1  0  0  0  0
 49 52  1  0  0  0  0
 49 53  1  1  0  0  0
 50 47  1  6  0  0  0
 50 51  1  0  0  0  0
 50 48  1  0  0  0  0
 51 49  1  0  0  0  0
 53 55  1  0  0  0  0
 54 53  1  0  0  0  0
M  END
>  <MODEL>
4

>  <REMARK>
 VINA RESULT:      -6.3      3.160      7.831
  Name = 
  23 active torsions:
  status: ('A' for Active; 'I' for Inactive)
    1  A    between atoms: C_1  and  C_53
    2  A    between atoms: C_2  and  C_28
    3  A    between atoms: C_2  and  C_44
    4  A    between atoms: C_6  and  C_20
    5  A    between atoms: C_7  and  C_20
    6  A    between atoms: C_7  and  C_22
    7  A    between atoms: C_8  and  C_22
    8  A    between atoms: C_8  and  C_35
    9  A    between atoms: C_10  and  C_32
   10  A    between atoms: C_16  and  C_17
   11  A    between atoms: C_16  and  C_26
   12  A    between atoms: C_17  and  C_33
   13  A    between atoms: C_19  and  C_40
   14  A    between atoms: C_19  and  N_45
   15  A    between atoms: C_26  and  N_45
   16  A    between atoms: C_27  and  O_54
   17  A    between atoms: C_33  and  N_36
   18  A    between atoms: C_33  and  C_49
   19  A    between atoms: C_34  and  N_52
   20  A    between atoms: C_35  and  C_43
   21  A    between atoms: N_36  and  N_52
   22  A    between atoms: C_43  and  C_51
   23  A    between atoms: C_51  and  O_54
                            x       y       z     vdW  Elec       q    Type
                         _______ _______ _______ _____ _____    ______ ____

>  <TORSDO>
F 23

$$$$
=
 OpenBabel10262420273D

 55 59  0  0  1  0  0  0  0  0999 V2000
  189.3720  178.2150  137.1880 C   0  0  0  0  0  3  0  0  0  0  0  0
  187.2820  176.4970  136.4400 C   0  0  0  0  0  0  0  0  0  0  0  0
  187.4930  176.8210  137.7840 C   0  0  0  0  0  3  0  0  0  0  0  0
  189.1750  177.8940  135.8410 C   0  0  0  0  0  3  0  0  0  0  0  0
  188.5220  177.6920  138.1650 C   0  0  0  0  0  0  0  0  0  0  0  0
  188.1250  177.0460  135.4700 C   0  0  0  0  0  3  0  0  0  0  0  0
  186.2530  175.6320  136.0550 O   0  0  0  0  0  0  0  0  0  0  0  0
  185.2490  176.0070  135.1260 C   0  0  0  0  0  2  0  0  0  0  0  0
  184.1690  176.7960  135.8300 C   0  0  0  0  0  2  0  0  0  0  0  0
  183.0730  175.8410  136.2720 C   0  0  0  0  0  2  0  0  0  0  0  0
  183.2650  175.3840  137.7140 C   0  0  0  0  0  2  0  0  0  0  0  0
  181.9520  175.3630  138.4700 C   0  0  0  0  0  2  0  0  0  0  0  0
  182.0070  176.3860  139.6000 C   0  0  0  0  0  2  0  0  0  0  0  0
  182.0350  177.8290  139.0960 C   0  0  1  0  0  3  0  0  0  0  0  0
  180.7590  178.2590  138.7200 O   0  0  0  0  0  1  0  0  0  0  0  0
  184.7020  179.8280  138.8880 O   0  0  0  0  0  1  0  0  0  0  0  0
  182.7650  178.8400  140.0040 C   0  0  1  0  0  0  0  0  0  0  0  0
  185.4280  178.1160  143.7560 C   0  0  0  0  0  3  0  0  0  0  0  0
  184.8220  177.6480  139.5170 F   0  0  0  0  0  0  0  0  0  0  0  0
  184.3050  178.8940  139.8460 C   0  0  1  0  0  0  0  0  0  0  0  0
  186.4770  178.3450  142.7430 C   0  0  0  0  0  3  0  0  0  0  0  0
  186.1890  178.8830  141.5560 C   0  0  0  0  0  3  0  0  0  0  0  0
  183.7990  178.8220  142.1530 N   0  0  0  0  0  0  0  0  0  0  0  0
  184.7900  179.3310  141.2200 C   0  0  2  0  0  3  0  0  0  0  0  0
  182.2420  180.1200  139.7730 O   0  0  0  0  0  1  0  0  0  0  0  0
  184.1450  178.3310  143.4530 C   0  0  0  0  0  3  0  0  0  0  0  0
  182.5650  178.4510  141.4820 C   0  0  1  0  0  3  0  0  0  0  0  0
  181.3720  179.0940  142.1350 C   0  0  0  0  0  3  0  0  0  0  0  0
  180.6150  178.4320  142.8200 O   0  0  0  0  0  0  0  0  0  0  0  0
  188.7780  178.0350  139.6010 C   0  0  0  0  0  2  0  0  0  0  0  0
  189.1610  176.8350  140.4220 C   0  0  0  0  0  3  0  0  0  0  0  0
  190.3880  176.6340  140.9090 C   0  0  0  0  0  3  0  0  0  0  0  0
  191.5450  177.5690  140.7120 C   0  0  2  0  0  3  0  0  0  0  0  0
  193.7230  176.6720  140.0310 O   0  0  0  0  0  0  0  0  0  0  0  0
  192.4390  177.0430  139.5800 C   0  0  2  0  0  0  0  0  0  0  0  0
  193.6460  177.8140  139.1940 C   0  0  0  0  0  2  0  0  0  0  0  0
  191.8270  176.1110  138.5080 C   0  0  0  0  0  2  0  0  0  0  0  0
  192.6480  175.9670  137.2200 C   0  0  0  0  0  2  0  0  0  0  0  0
  191.5660  173.9210  137.0260 C   0  0  0  0  0  1  0  0  0  0  0  0
  192.8540  174.5690  136.8220 N   0  0  0  0  0  0  0  0  0  0  0  0
  193.7880  173.9390  137.7550 C   0  0  0  0  0  2  0  0  0  0  0  0
  194.7550  172.8460  135.7090 C   0  0  0  0  0  1  0  0  0  0  0  0
  195.7850  172.5040  137.9310 C   0  0  0  0  0  1  0  0  0  0  0  0
  195.9850  174.6770  136.8090 C   0  0  0  0  0  1  0  0  0  0  0  0
  195.0700  173.4950  137.0480 C   0  0  0  0  0  0  0  0  0  0  0  0
  192.2900  177.7100  141.9640 N   0  0  0  0  0  2  0  0  0  0  0  0
  191.6100  176.9660  142.9370 N   0  0  0  0  0  2  0  0  0  0  0  0
  190.2290  178.6330  144.1060 C   0  0  0  0  0  2  0  0  0  0  0  0
  189.9480  176.9200  145.7840 C   0  0  2  0  0  3  0  0  0  0  0  0
  191.5030  177.7910  144.1360 C   0  0  1  0  0  3  0  0  0  0  0  0
  191.4020  176.8960  145.3550 C   0  0  0  0  0  2  0  0  0  0  0  0
  189.4040  178.2500  145.3160 C   0  0  0  0  0  2  0  0  0  0  0  0
  189.7820  176.7490  147.2920 C   0  0  0  0  0  3  0  0  0  0  0  0
  190.1240  177.9290  147.9650 O   0  0  0  0  0  1  0  0  0  0  0  0
  188.4900  176.3490  147.6300 O   0  0  0  0  0  1  0  0  0  0  0  0
  1  5  1  0  0  0  0
  2  3  1  0  0  0  0
  3  5  2  0  0  0  0
  4  1  2  0  0  0  0
  5 30  1  0  0  0  0
  6  4  1  0  0  0  0
  6  2  2  0  0  0  0
  7  2  1  0  0  0  0
  8  9  1  0  0  0  0
  8  7  1  0  0  0  0
  9 10  1  0  0  0  0
 10 11  1  0  0  0  0
 11 12  1  0  0  0  0
 12 13  1  0  0  0  0
 14 15  1  1  0  0  0
 14 13  1  0  0  0  0
 14 17  1  0  0  0  0
 17 25  1  6  0  0  0
 17 27  1  0  0  0  0
 19 20  1  0  0  0  0
 20 16  1  6  0  0  0
 20 17  1  0  0  0  0
 20 24  1  0  0  0  0
 21 18  1  0  0  0  0
 22 21  2  0  0  0  0
 23 26  1  0  0  0  0
 24 22  1  1  0  0  0
 24 23  1  0  0  0  0
 26 18  2  0  0  0  0
 27 28  1  1  0  0  0
 27 23  1  0  0  0  0
 28 29  2  0  0  0  0
 30 31  1  0  0  0  0
 31 32  2  0  0  0  0
 33 32  1  1  0  0  0
 33 46  1  0  0  0  0
 35 37  1  6  0  0  0
 35 34  1  0  0  0  0
 35 33  1  0  0  0  0
 36 35  1  0  0  0  0
 36 34  1  0  0  0  0
 38 37  1  0  0  0  0
 40 39  1  0  0  0  0
 40 38  1  0  0  0  0
 40 41  1  0  0  0  0
 42 45  1  0  0  0  0
 44 45  1  0  0  0  0
 45 41  1  0  0  0  0
 45 43  1  0  0  0  0
 46 47  1  0  0  0  0
 48 50  1  0  0  0  0
 48 52  1  0  0  0  0
 49 53  1  1  0  0  0
 50 47  1  6  0  0  0
 50 51  1  0  0  0  0
 51 49  1  0  0  0  0
 52 49  1  0  0  0  0
 53 55  1  0  0  0  0
 53 54  1  0  0  0  0
M  END
>  <MODEL>
5

>  <REMARK>
 VINA RESULT:      -6.2      2.298      5.482
  Name = 
  23 active torsions:
  status: ('A' for Active; 'I' for Inactive)
    1  A    between atoms: C_1  and  C_53
    2  A    between atoms: C_2  and  C_28
    3  A    between atoms: C_2  and  C_44
    4  A    between atoms: C_6  and  C_20
    5  A    between atoms: C_7  and  C_20
    6  A    between atoms: C_7  and  C_22
    7  A    between atoms: C_8  and  C_22
    8  A    between atoms: C_8  and  C_35
    9  A    between atoms: C_10  and  C_32
   10  A    between atoms: C_16  and  C_17
   11  A    between atoms: C_16  and  C_26
   12  A    between atoms: C_17  and  C_33
   13  A    between atoms: C_19  and  C_40
   14  A    between atoms: C_19  and  N_45
   15  A    between atoms: C_26  and  N_45
   16  A    between atoms: C_27  and  O_54
   17  A    between atoms: C_33  and  N_36
   18  A    between atoms: C_33  and  C_49
   19  A    between atoms: C_34  and  N_52
   20  A    between atoms: C_35  and  C_43
   21  A    between atoms: N_36  and  N_52
   22  A    between atoms: C_43  and  C_51
   23  A    between atoms: C_51  and  O_54
                            x       y       z     vdW  Elec       q    Type
                         _______ _______ _______ _____ _____    ______ ____

>  <TORSDO>
F 23

$$$$
=
 OpenBabel10262420273D

 55 59  0  0  1  0  0  0  0  0999 V2000
  188.8170  177.8910  140.4610 C   0  0  0  0  0  3  0  0  0  0  0  0
  188.2500  177.3480  143.1560 C   0  0  0  0  0  0  0  0  0  0  0  0
  189.2570  176.6470  142.4830 C   0  0  0  0  0  3  0  0  0  0  0  0
  187.8050  178.5950  141.1210 C   0  0  0  0  0  3  0  0  0  0  0  0
  189.5590  176.9240  141.1440 C   0  0  0  0  0  0  0  0  0  0  0  0
  187.5320  178.3290  142.4690 C   0  0  0  0  0  3  0  0  0  0  0  0
  187.9470  177.0770  144.4940 O   0  0  0  0  0  0  0  0  0  0  0  0
  186.6380  177.2140  145.0230 C   0  0  0  0  0  2  0  0  0  0  0  0
  186.6060  178.3460  146.0230 C   0  0  0  0  0  2  0  0  0  0  0  0
  185.2560  179.0380  145.9370 C   0  0  0  0  0  2  0  0  0  0  0  0
  184.3630  178.4130  144.8700 C   0  0  0  0  0  2  0  0  0  0  0  0
  183.8160  179.4580  143.9190 C   0  0  0  0  0  2  0  0  0  0  0  0
  182.6750  178.8520  143.1090 C   0  0  0  0  0  2  0  0  0  0  0  0
  182.9610  178.8210  141.6070 C   0  0  1  0  0  3  0  0  0  0  0  0
  183.8960  177.8300  141.2900 O   0  0  0  0  0  1  0  0  0  0  0  0
  182.1060  177.4390  138.6910 O   0  0  0  0  0  1  0  0  0  0  0  0
  181.7200  178.7880  140.6920 C   0  0  1  0  0  0  0  0  0  0  0  0
  179.9150  182.1120  137.9750 C   0  0  0  0  0  3  0  0  0  0  0  0
  183.1730  179.4370  138.8600 F   0  0  0  0  0  0  0  0  0  0  0  0
  182.0100  178.7460  139.1700 C   0  0  1  0  0  0  0  0  0  0  0  0
  180.6260  181.3140  136.9580 C   0  0  0  0  0  3  0  0  0  0  0  0
  181.0610  180.0810  137.2240 C   0  0  0  0  0  3  0  0  0  0  0  0
  180.3450  180.3760  139.5630 N   0  0  0  0  0  0  0  0  0  0  0  0
  180.7980  179.4290  138.5560 C   0  0  2  0  0  3  0  0  0  0  0  0
  180.9320  177.6800  141.0320 O   0  0  0  0  0  1  0  0  0  0  0  0
  179.8040  181.6590  139.2270 C   0  0  0  0  0  3  0  0  0  0  0  0
  180.9070  180.0840  140.8700 C   0  0  1  0  0  3  0  0  0  0  0  0
  179.8330  180.0010  141.9220 C   0  0  0  0  0  3  0  0  0  0  0  0
  179.6740  180.9130  142.7110 O   0  0  0  0  0  0  0  0  0  0  0  0
  190.6190  176.1710  140.4000 C   0  0  0  0  0  2  0  0  0  0  0  0
  191.6690  177.0750  139.8170 C   0  0  0  0  0  3  0  0  0  0  0  0
  192.2010  176.9040  138.6040 C   0  0  0  0  0  3  0  0  0  0  0  0
  191.8270  175.7990  137.6590 C   0  0  2  0  0  3  0  0  0  0  0  0
  193.3460  174.8970  135.9600 O   0  0  0  0  0  0  0  0  0  0  0  0
  193.0720  174.9580  137.3410 C   0  0  2  0  0  0  0  0  0  0  0  0
  192.9150  173.6960  136.5770 C   0  0  0  0  0  2  0  0  0  0  0  0
  194.3160  175.0800  138.2520 C   0  0  0  0  0  2  0  0  0  0  0  0
  195.0020  173.7530  138.6040 C   0  0  0  0  0  2  0  0  0  0  0  0
  196.8770  174.6660  139.6260 C   0  0  0  0  0  1  0  0  0  0  0  0
  196.4650  173.8200  138.5150 N   0  0  0  0  0  0  0  0  0  0  0  0
  196.8370  174.5310  137.2910 C   0  0  0  0  0  2  0  0  0  0  0  0
  196.4800  173.2050  135.1870 C   0  0  0  0  0  1  0  0  0  0  0  0
  197.9410  172.3470  136.9890 C   0  0  0  0  0  1  0  0  0  0  0  0
  198.6740  174.2440  135.6160 C   0  0  0  0  0  1  0  0  0  0  0  0
  197.4770  173.5890  136.2700 C   0  0  0  0  0  0  0  0  0  0  0  0
  191.2340  176.3620  136.4450 N   0  0  0  0  0  2  0  0  0  0  0  0
  189.9080  175.9150  136.3870 N   0  0  0  0  0  2  0  0  0  0  0  0
  189.0250  178.1880  136.7120 C   0  0  0  0  0  2  0  0  0  0  0  0
  186.8550  177.1600  136.4570 C   0  0  2  0  0  3  0  0  0  0  0  0
  189.1110  176.7670  137.2640 C   0  0  1  0  0  3  0  0  0  0  0  0
  187.6920  176.2390  137.3240 C   0  0  0  0  0  2  0  0  0  0  0  0
  187.5620  178.4960  136.4770 C   0  0  0  0  0  2  0  0  0  0  0  0
  185.4170  177.2810  136.9530 C   0  0  0  0  0  3  0  0  0  0  0  0
  184.7590  176.0480  136.8720 O   0  0  0  0  0  1  0  0  0  0  0  0
  185.3570  177.7850  138.2520 O   0  0  0  0  0  1  0  0  0  0  0  0
  1  4  2  0  0  0  0
  1  5  1  0  0  0  0
  2  7  1  0  0  0  0
  3  2  1  0  0  0  0
  4  6  1  0  0  0  0
  5  3  2  0  0  0  0
  6  2  2  0  0  0  0
  7  8  1  0  0  0  0
  8  9  1  0  0  0  0
 10  9  1  0  0  0  0
 11 10  1  0  0  0  0
 12 11  1  0  0  0  0
 13 12  1  0  0  0  0
 14 15  1  1  0  0  0
 14 13  1  0  0  0  0
 17 27  1  0  0  0  0
 17 25  1  1  0  0  0
 17 14  1  0  0  0  0
 18 26  2  0  0  0  0
 19 20  1  0  0  0  0
 20 16  1  6  0  0  0
 20 17  1  0  0  0  0
 21 22  2  0  0  0  0
 21 18  1  0  0  0  0
 23 27  1  0  0  0  0
 24 22  1  6  0  0  0
 24 20  1  0  0  0  0
 24 23  1  0  0  0  0
 26 23  1  0  0  0  0
 27 28  1  1  0  0  0
 28 29  2  0  0  0  0
 30  5  1  0  0  0  0
 31 30  1  0  0  0  0
 32 31  2  0  0  0  0
 33 32  1  1  0  0  0
 34 36  1  0  0  0  0
 34 35  1  0  0  0  0
 35 33  1  0  0  0  0
 35 37  1  1  0  0  0
 36 35  1  0  0  0  0
 37 38  1  0  0  0  0
 40 38  1  0  0  0  0
 40 39  1  0  0  0  0
 41 40  1  0  0  0  0
 42 45  1  0  0  0  0
 44 45  1  0  0  0  0
 45 43  1  0  0  0  0
 45 41  1  0  0  0  0
 46 33  1  0  0  0  0
 47 46  1  0  0  0  0
 48 50  1  0  0  0  0
 49 52  1  0  0  0  0
 49 53  1  1  0  0  0
 49 51  1  0  0  0  0
 50 47  1  6  0  0  0
 50 51  1  0  0  0  0
 52 48  1  0  0  0  0
 53 55  1  0  0  0  0
 54 53  1  0  0  0  0
M  END
>  <MODEL>
6

>  <REMARK>
 VINA RESULT:      -6.2      3.044      6.855
  Name = 
  23 active torsions:
  status: ('A' for Active; 'I' for Inactive)
    1  A    between atoms: C_1  and  C_53
    2  A    between atoms: C_2  and  C_28
    3  A    between atoms: C_2  and  C_44
    4  A    between atoms: C_6  and  C_20
    5  A    between atoms: C_7  and  C_20
    6  A    between atoms: C_7  and  C_22
    7  A    between atoms: C_8  and  C_22
    8  A    between atoms: C_8  and  C_35
    9  A    between atoms: C_10  and  C_32
   10  A    between atoms: C_16  and  C_17
   11  A    between atoms: C_16  and  C_26
   12  A    between atoms: C_17  and  C_33
   13  A    between atoms: C_19  and  C_40
   14  A    between atoms: C_19  and  N_45
   15  A    between atoms: C_26  and  N_45
   16  A    between atoms: C_27  and  O_54
   17  A    between atoms: C_33  and  N_36
   18  A    between atoms: C_33  and  C_49
   19  A    between atoms: C_34  and  N_52
   20  A    between atoms: C_35  and  C_43
   21  A    between atoms: N_36  and  N_52
   22  A    between atoms: C_43  and  C_51
   23  A    between atoms: C_51  and  O_54
                            x       y       z     vdW  Elec       q    Type
                         _______ _______ _______ _____ _____    ______ ____

>  <TORSDO>
F 23

$$$$
=
 OpenBabel10262420273D

 55 59  0  0  1  0  0  0  0  0999 V2000
  189.1950  177.2020  146.0540 C   0  0  0  0  0  3  0  0  0  0  0  0
  186.6120  178.1450  146.6160 C   0  0  0  0  0  0  0  0  0  0  0  0
  187.0210  177.9290  145.2950 C   0  0  0  0  0  3  0  0  0  0  0  0
  188.7990  177.4180  147.3770 C   0  0  0  0  0  3  0  0  0  0  0  0
  188.3020  177.4420  145.0060 C   0  0  0  0  0  0  0  0  0  0  0  0
  187.5070  177.8780  147.6550 C   0  0  0  0  0  3  0  0  0  0  0  0
  185.3330  178.6280  146.9090 O   0  0  0  0  0  0  0  0  0  0  0  0
  184.1850  178.2480  146.1660 C   0  0  0  0  0  2  0  0  0  0  0  0
  183.8150  179.3470  145.1970 C   0  0  0  0  0  2  0  0  0  0  0  0
  183.7970  178.7740  143.7900 C   0  0  0  0  0  2  0  0  0  0  0  0
  184.8400  179.4330  142.8940 C   0  0  0  0  0  2  0  0  0  0  0  0
  185.3480  178.4760  141.8340 C   0  0  0  0  0  2  0  0  0  0  0  0
  184.2120  178.1410  140.8740 C   0  0  0  0  0  2  0  0  0  0  0  0
  183.6270  179.3760  140.1890 C   0  0  1  0  0  3  0  0  0  0  0  0
  184.5220  179.9110  139.2590 O   0  0  0  0  0  1  0  0  0  0  0  0
  181.2960  176.9880  140.0770 O   0  0  0  0  0  1  0  0  0  0  0  0
  182.2010  179.2130  139.6230 C   0  0  1  0  0  0  0  0  0  0  0  0
  180.7600  178.7860  135.2150 C   0  0  0  0  0  3  0  0  0  0  0  0
  182.9650  177.1760  138.5470 F   0  0  0  0  0  0  0  0  0  0  0  0
  181.8490  177.8020  139.0870 C   0  0  1  0  0  0  0  0  0  0  0  0
  180.7010  177.3730  135.6370 C   0  0  0  0  0  3  0  0  0  0  0  0
  180.7500  177.0320  136.9270 C   0  0  0  0  0  3  0  0  0  0  0  0
  181.1380  179.3970  137.4960 N   0  0  0  0  0  0  0  0  0  0  0  0
  180.8120  178.0770  138.0100 C   0  0  2  0  0  3  0  0  0  0  0  0
  181.2740  179.5620  140.6150 O   0  0  0  0  0  1  0  0  0  0  0  0
  180.9890  179.7460  136.1150 C   0  0  0  0  0  3  0  0  0  0  0  0
  182.0210  180.1230  138.3930 C   0  0  1  0  0  3  0  0  0  0  0  0
  181.4780  181.4900  138.7090 C   0  0  0  0  0  3  0  0  0  0  0  0
  181.9270  182.4740  138.1520 O   0  0  0  0  0  0  0  0  0  0  0  0
  188.7670  177.2240  143.5990 C   0  0  0  0  0  2  0  0  0  0  0  0
  189.3680  178.4610  142.9910 C   0  0  0  0  0  3  0  0  0  0  0  0
  189.4730  178.6620  141.6760 C   0  0  0  0  0  3  0  0  0  0  0  0
  189.0080  177.6930  140.6270 C   0  0  2  0  0  3  0  0  0  0  0  0
  190.7840  176.0070  140.5290 O   0  0  0  0  0  0  0  0  0  0  0  0
  190.2230  177.1270  139.8810 C   0  0  2  0  0  0  0  0  0  0  0  0
  191.5600  177.1930  140.5200 C   0  0  0  0  0  2  0  0  0  0  0  0
  190.1860  177.0400  138.3370 C   0  0  0  0  0  2  0  0  0  0  0  0
  191.5570  176.9390  137.6530 C   0  0  0  0  0  2  0  0  0  0  0  0
  190.3110  175.4510  136.3780 C   0  0  0  0  0  1  0  0  0  0  0  0
  191.6750  175.7730  136.7710 N   0  0  0  0  0  0  0  0  0  0  0  0
  192.1620  174.6330  137.5490 C   0  0  0  0  0  2  0  0  0  0  0  0
  193.1500  172.6200  136.4160 C   0  0  0  0  0  1  0  0  0  0  0  0
  194.5020  173.9830  137.9750 C   0  0  0  0  0  1  0  0  0  0  0  0
  193.9040  174.8750  135.7680 C   0  0  0  0  0  1  0  0  0  0  0  0
  193.4210  174.0270  136.9240 C   0  0  0  0  0  0  0  0  0  0  0  0
  188.0770  178.3580  139.7130 N   0  0  0  0  0  2  0  0  0  0  0  0
  187.8930  177.5060  138.6170 N   0  0  0  0  0  2  0  0  0  0  0  0
  187.4740  178.5850  136.4470 C   0  0  0  0  0  2  0  0  0  0  0  0
  186.1380  176.6320  135.9660 C   0  0  2  0  0  3  0  0  0  0  0  0
  186.8690  178.0950  137.7610 C   0  0  1  0  0  3  0  0  0  0  0  0
  185.8460  177.0370  137.3990 C   0  0  0  0  0  2  0  0  0  0  0  0
  186.7880  177.8360  135.3240 C   0  0  0  0  0  2  0  0  0  0  0  0
  184.8810  176.2090  135.2130 C   0  0  0  0  0  3  0  0  0  0  0  0
  183.9880  175.5500  136.0670 O   0  0  0  0  0  1  0  0  0  0  0  0
  184.2570  177.2920  134.5940 O   0  0  0  0  0  1  0  0  0  0  0  0
  1  4  1  0  0  0  0
  2  7  1  0  0  0  0
  2  6  1  0  0  0  0
  3  2  2  0  0  0  0
  4  6  2  0  0  0  0
  5  3  1  0  0  0  0
  5  1  2  0  0  0  0
  8  7  1  0  0  0  0
  9  8  1  0  0  0  0
 10  9  1  0  0  0  0
 11 10  1  0  0  0  0
 12 11  1  0  0  0  0
 13 12  1  0  0  0  0
 14 15  1  6  0  0  0
 14 13  1  0  0  0  0
 17 14  1  0  0  0  0
 17 25  1  1  0  0  0
 18 21  1  0  0  0  0
 18 26  2  0  0  0  0
 20 19  1  6  0  0  0
 20 17  1  0  0  0  0
 20 16  1  0  0  0  0
 21 22  2  0  0  0  0
 23 24  1  0  0  0  0
 23 27  1  0  0  0  0
 24 22  1  6  0  0  0
 24 20  1  0  0  0  0
 26 23  1  0  0  0  0
 27 28  1  1  0  0  0
 27 17  1  0  0  0  0
 29 28  2  0  0  0  0
 30  5  1  0  0  0  0
 31 30  1  0  0  0  0
 32 31  2  0  0  0  0
 33 32  1  1  0  0  0
 35 37  1  6  0  0  0
 35 36  1  0  0  0  0
 35 34  1  0  0  0  0
 35 33  1  0  0  0  0
 36 34  1  0  0  0  0
 38 37  1  0  0  0  0
 39 40  1  0  0  0  0
 40 41  1  0  0  0  0
 40 38  1  0  0  0  0
 42 45  1  0  0  0  0
 44 45  1  0  0  0  0
 45 41  1  0  0  0  0
 45 43  1  0  0  0  0
 46 33  1  0  0  0  0
 47 46  1  0  0  0  0
 48 50  1  0  0  0  0
 49 53  1  6  0  0  0
 49 51  1  0  0  0  0
 50 47  1  1  0  0  0
 51 50  1  0  0  0  0
 52 49  1  0  0  0  0
 52 48  1  0  0  0  0
 53 54  1  0  0  0  0
 55 53  1  0  0  0  0
M  END
>  <MODEL>
7

>  <REMARK>
 VINA RESULT:      -6.0      2.514      5.913
  Name = 
  23 active torsions:
  status: ('A' for Active; 'I' for Inactive)
    1  A    between atoms: C_1  and  C_53
    2  A    between atoms: C_2  and  C_28
    3  A    between atoms: C_2  and  C_44
    4  A    between atoms: C_6  and  C_20
    5  A    between atoms: C_7  and  C_20
    6  A    between atoms: C_7  and  C_22
    7  A    between atoms: C_8  and  C_22
    8  A    between atoms: C_8  and  C_35
    9  A    between atoms: C_10  and  C_32
   10  A    between atoms: C_16  and  C_17
   11  A    between atoms: C_16  and  C_26
   12  A    between atoms: C_17  and  C_33
   13  A    between atoms: C_19  and  C_40
   14  A    between atoms: C_19  and  N_45
   15  A    between atoms: C_26  and  N_45
   16  A    between atoms: C_27  and  O_54
   17  A    between atoms: C_33  and  N_36
   18  A    between atoms: C_33  and  C_49
   19  A    between atoms: C_34  and  N_52
   20  A    between atoms: C_35  and  C_43
   21  A    between atoms: N_36  and  N_52
   22  A    between atoms: C_43  and  C_51
   23  A    between atoms: C_51  and  O_54
                            x       y       z     vdW  Elec       q    Type
                         _______ _______ _______ _____ _____    ______ ____

>  <TORSDO>
F 23

$$$$
=
 OpenBabel10262420273D

 55 59  0  0  1  0  0  0  0  0999 V2000
  190.3520  177.6320  143.1440 C   0  0  0  0  0  3  0  0  0  0  0  0
  187.7530  177.7620  144.1970 C   0  0  0  0  0  0  0  0  0  0  0  0
  187.9600  177.6610  142.8170 C   0  0  0  0  0  3  0  0  0  0  0  0
  190.1580  177.7380  144.5250 C   0  0  0  0  0  3  0  0  0  0  0  0
  189.2530  177.5770  142.2840 C   0  0  0  0  0  0  0  0  0  0  0  0
  188.8600  177.7920  145.0480 C   0  0  0  0  0  3  0  0  0  0  0  0
  186.4640  177.8420  144.7330 O   0  0  0  0  0  0  0  0  0  0  0  0
  185.3080  177.9810  143.9230 C   0  0  0  0  0  2  0  0  0  0  0  0
  184.5060  179.1790  144.3760 C   0  0  0  0  0  2  0  0  0  0  0  0
  183.0760  178.7390  144.6430 C   0  0  0  0  0  2  0  0  0  0  0  0
  182.1090  179.2850  143.5980 C   0  0  0  0  0  2  0  0  0  0  0  0
  180.7730  178.5710  143.6510 C   0  0  0  0  0  2  0  0  0  0  0  0
  180.0330  178.7950  142.3360 C   0  0  0  0  0  2  0  0  0  0  0  0
  180.1110  177.5920  141.3960 C   0  0  1  0  0  3  0  0  0  0  0  0
  178.9310  176.8440  141.4300 O   0  0  0  0  0  1  0  0  0  0  0  0
  180.6300  175.8830  138.5750 O   0  0  0  0  0  1  0  0  0  0  0  0
  180.5860  177.8960  139.9600 C   0  0  1  0  0  0  0  0  0  0  0  0
  184.8330  178.9570  138.3710 C   0  0  0  0  0  3  0  0  0  0  0  0
  182.1920  176.0940  140.2110 F   0  0  0  0  0  0  0  0  0  0  0  0
  181.4270  176.7860  139.2810 C   0  0  1  0  0  0  0  0  0  0  0  0
  184.7730  177.5310  137.9950 C   0  0  0  0  0  3  0  0  0  0  0  0
  183.6170  176.8640  137.9910 C   0  0  0  0  0  3  0  0  0  0  0  0
  182.5090  178.8560  138.9260 N   0  0  0  0  0  0  0  0  0  0  0  0
  182.3160  177.5510  138.3140 C   0  0  2  0  0  3  0  0  0  0  0  0
  179.4680  178.1690  139.1590 O   0  0  0  0  0  1  0  0  0  0  0  0
  183.7430  179.5760  138.8340 C   0  0  0  0  0  3  0  0  0  0  0  0
  181.5320  179.1120  139.9700 C   0  0  1  0  0  3  0  0  0  0  0  0
  180.8440  180.4340  139.7640 C   0  0  0  0  0  3  0  0  0  0  0  0
  180.6910  180.8790  138.6420 O   0  0  0  0  0  0  0  0  0  0  0  0
  189.4960  177.4890  140.8090 C   0  0  0  0  0  2  0  0  0  0  0  0
  188.5260  178.3190  140.0130 C   0  0  0  0  0  3  0  0  0  0  0  0
  188.5320  178.3850  138.6800 C   0  0  0  0  0  3  0  0  0  0  0  0
  189.4930  177.6470  137.7950 C   0  0  2  0  0  3  0  0  0  0  0  0
  189.5050  176.5200  135.6180 O   0  0  0  0  0  0  0  0  0  0  0  0
  188.7100  176.8670  136.7290 C   0  0  2  0  0  0  0  0  0  0  0  0
  188.4890  177.4840  135.3980 C   0  0  0  0  0  2  0  0  0  0  0  0
  187.7020  175.7830  137.1780 C   0  0  0  0  0  2  0  0  0  0  0  0
  187.4740  174.6450  136.1730 C   0  0  0  0  0  2  0  0  0  0  0  0
  188.4160  172.6240  136.8260 C   0  0  0  0  0  1  0  0  0  0  0  0
  187.1620  173.3630  136.8170 N   0  0  0  0  0  0  0  0  0  0  0  0
  186.2430  172.6110  135.9620 C   0  0  0  0  0  2  0  0  0  0  0  0
  184.0130  173.7470  135.7420 C   0  0  0  0  0  1  0  0  0  0  0  0
  184.8490  173.0220  137.9540 C   0  0  0  0  0  1  0  0  0  0  0  0
  184.1090  171.3520  136.3160 C   0  0  0  0  0  1  0  0  0  0  0  0
  184.8070  172.6840  136.4850 C   0  0  0  0  0  0  0  0  0  0  0  0
  190.3330  176.7590  138.6020 N   0  0  0  0  0  2  0  0  0  0  0  0
  191.6240  176.8060  138.0610 N   0  0  0  0  0  2  0  0  0  0  0  0
  191.9110  174.5210  137.1970 C   0  0  0  0  0  2  0  0  0  0  0  0
  194.2350  175.1250  136.9520 C   0  0  2  0  0  3  0  0  0  0  0  0
  192.2560  175.5130  138.3040 C   0  0  1  0  0  3  0  0  0  0  0  0
  193.7630  175.6790  138.2830 C   0  0  0  0  0  2  0  0  0  0  0  0
  193.2110  174.0890  136.5520 C   0  0  0  0  0  2  0  0  0  0  0  0
  195.6350  174.5230  137.0360 C   0  0  0  0  0  3  0  0  0  0  0  0
  196.4250  174.9530  135.9630 O   0  0  0  0  0  1  0  0  0  0  0  0
  196.2550  174.8160  138.2500 O   0  0  0  0  0  1  0  0  0  0  0  0
  1  4  1  0  0  0  0
  2  7  1  0  0  0  0
  2  6  1  0  0  0  0
  3  2  2  0  0  0  0
  4  6  2  0  0  0  0
  5  3  1  0  0  0  0
  5  1  2  0  0  0  0
  8  9  1  0  0  0  0
  8  7  1  0  0  0  0
  9 10  1  0  0  0  0
 11 12  1  0  0  0  0
 11 10  1  0  0  0  0
 13 12  1  0  0  0  0
 14 15  1  6  0  0  0
 14 13  1  0  0  0  0
 17 25  1  6  0  0  0
 17 27  1  0  0  0  0
 17 14  1  0  0  0  0
 18 26  2  0  0  0  0
 20 16  1  6  0  0  0
 20 17  1  0  0  0  0
 20 19  1  0  0  0  0
 21 18  1  0  0  0  0
 22 21  2  0  0  0  0
 23 27  1  0  0  0  0
 24 22  1  1  0  0  0
 24 23  1  0  0  0  0
 24 20  1  0  0  0  0
 26 23  1  0  0  0  0
 27 28  1  6  0  0  0
 29 28  2  0  0  0  0
 30  5  1  0  0  0  0
 31 30  1  0  0  0  0
 32 31  2  0  0  0  0
 33 46  1  0  0  0  0
 33 32  1  1  0  0  0
 34 35  1  0  0  0  0
 35 37  1  1  0  0  0
 35 33  1  0  0  0  0
 36 34  1  0  0  0  0
 36 35  1  0  0  0  0
 38 40  1  0  0  0  0
 38 37  1  0  0  0  0
 40 39  1  0  0  0  0
 41 45  1  0  0  0  0
 41 40  1  0  0  0  0
 42 45  1  0  0  0  0
 44 45  1  0  0  0  0
 45 43  1  0  0  0  0
 47 46  1  0  0  0  0
 48 50  1  0  0  0  0
 49 53  1  1  0  0  0
 49 51  1  0  0  0  0
 50 47  1  6  0  0  0
 51 50  1  0  0  0  0
 52 49  1  0  0  0  0
 52 48  1  0  0  0  0
 53 55  1  0  0  0  0
 54 53  1  0  0  0  0
M  END
>  <MODEL>
8

>  <REMARK>
 VINA RESULT:      -5.9      2.740      6.162
  Name = 
  23 active torsions:
  status: ('A' for Active; 'I' for Inactive)
    1  A    between atoms: C_1  and  C_53
    2  A    between atoms: C_2  and  C_28
    3  A    between atoms: C_2  and  C_44
    4  A    between atoms: C_6  and  C_20
    5  A    between atoms: C_7  and  C_20
    6  A    between atoms: C_7  and  C_22
    7  A    between atoms: C_8  and  C_22
    8  A    between atoms: C_8  and  C_35
    9  A    between atoms: C_10  and  C_32
   10  A    between atoms: C_16  and  C_17
   11  A    between atoms: C_16  and  C_26
   12  A    between atoms: C_17  and  C_33
   13  A    between atoms: C_19  and  C_40
   14  A    between atoms: C_19  and  N_45
   15  A    between atoms: C_26  and  N_45
   16  A    between atoms: C_27  and  O_54
   17  A    between atoms: C_33  and  N_36
   18  A    between atoms: C_33  and  C_49
   19  A    between atoms: C_34  and  N_52
   20  A    between atoms: C_35  and  C_43
   21  A    between atoms: N_36  and  N_52
   22  A    between atoms: C_43  and  C_51
   23  A    between atoms: C_51  and  O_54
                            x       y       z     vdW  Elec       q    Type
                         _______ _______ _______ _____ _____    ______ ____

>  <TORSDO>
F 23

$$$$
=
 OpenBabel10262420273D

 55 59  0  0  1  0  0  0  0  0999 V2000
  189.5890  177.2920  143.3210 C   0  0  0  0  0  3  0  0  0  0  0  0
  191.1760  177.3200  141.0050 C   0  0  0  0  0  0  0  0  0  0  0  0
  189.7870  177.4660  140.9210 C   0  0  0  0  0  3  0  0  0  0  0  0
  190.9750  177.1390  143.4180 C   0  0  0  0  0  3  0  0  0  0  0  0
  188.9890  177.4720  142.0720 C   0  0  0  0  0  0  0  0  0  0  0  0
  191.7650  177.1640  142.2630 C   0  0  0  0  0  3  0  0  0  0  0  0
  191.9760  177.3170  139.8590 O   0  0  0  0  0  0  0  0  0  0  0  0
  191.5840  176.6750  138.6570 C   0  0  0  0  0  2  0  0  0  0  0  0
  192.8020  176.1240  137.9500 C   0  0  0  0  0  2  0  0  0  0  0  0
  192.4000  175.6850  136.5520 C   0  0  0  0  0  2  0  0  0  0  0  0
  190.9410  176.0110  136.2510 C   0  0  0  0  0  2  0  0  0  0  0  0
  190.3650  175.0740  135.2080 C   0  0  0  0  0  2  0  0  0  0  0  0
  188.8920  175.4070  134.9920 C   0  0  0  0  0  2  0  0  0  0  0  0
  187.9750  174.1980  135.1770 C   0  0  1  0  0  3  0  0  0  0  0  0
  188.7140  173.0270  135.3670 O   0  0  0  0  0  1  0  0  0  0  0  0
  186.9580  172.6650  137.9640 O   0  0  0  0  0  1  0  0  0  0  0  0
  186.8460  174.3690  136.2140 C   0  0  1  0  0  0  0  0  0  0  0  0
  182.2810  173.5320  135.8370 C   0  0  0  0  0  3  0  0  0  0  0  0
  186.3160  172.0240  135.8810 F   0  0  0  0  0  0  0  0  0  0  0  0
  186.2780  173.0560  136.8090 C   0  0  1  0  0  0  0  0  0  0  0  0
  182.7000  172.3190  136.5660 C   0  0  0  0  0  3  0  0  0  0  0  0
  183.8930  172.2440  137.1590 C   0  0  0  0  0  3  0  0  0  0  0  0
  184.4630  174.4410  136.2000 N   0  0  0  0  0  0  0  0  0  0  0  0
  184.8410  173.4140  137.1580 C   0  0  2  0  0  3  0  0  0  0  0  0
  187.3090  175.1760  137.2630 O   0  0  0  0  0  1  0  0  0  0  0  0
  183.1430  174.5350  135.6520 C   0  0  0  0  0  3  0  0  0  0  0  0
  185.6220  175.0260  135.5490 C   0  0  1  0  0  3  0  0  0  0  0  0
  185.6010  176.5280  135.6370 C   0  0  0  0  0  3  0  0  0  0  0  0
  184.7920  177.0900  136.3510 O   0  0  0  0  0  0  0  0  0  0  0  0
  187.4990  177.6060  142.0010 C   0  0  0  0  0  2  0  0  0  0  0  0
  187.0630  178.9680  141.5350 C   0  0  0  0  0  3  0  0  0  0  0  0
  185.7850  179.3350  141.4220 C   0  0  0  0  0  3  0  0  0  0  0  0
  184.6130  178.4530  141.7420 C   0  0  2  0  0  3  0  0  0  0  0  0
  183.8800  177.9640  139.4550 O   0  0  0  0  0  0  0  0  0  0  0  0
  183.5390  178.6170  140.6570 C   0  0  2  0  0  0  0  0  0  0  0  0
  183.8640  179.3810  139.4280 C   0  0  0  0  0  2  0  0  0  0  0  0
  182.0470  178.5230  141.0540 C   0  0  0  0  0  2  0  0  0  0  0  0
  181.0500  178.8280  139.9280 C   0  0  0  0  0  2  0  0  0  0  0  0
  178.9910  178.2670  140.8440 C   0  0  0  0  0  1  0  0  0  0  0  0
  179.9610  177.8480  139.8430 N   0  0  0  0  0  0  0  0  0  0  0  0
  180.4600  176.5410  140.2700 C   0  0  0  0  0  2  0  0  0  0  0  0
  180.4680  176.3570  137.7640 C   0  0  0  0  0  1  0  0  0  0  0  0
  179.9510  174.3920  139.1740 C   0  0  0  0  0  1  0  0  0  0  0  0
  182.2450  175.2590  139.0720 C   0  0  0  0  0  1  0  0  0  0  0  0
  180.7820  175.6460  139.0710 C   0  0  0  0  0  0  0  0  0  0  0  0
  184.0910  178.7820  143.0700 N   0  0  0  0  0  2  0  0  0  0  0  0
  184.7480  177.9540  143.9900 N   0  0  0  0  0  2  0  0  0  0  0  0
  184.6500  178.6830  146.3370 C   0  0  0  0  0  2  0  0  0  0  0  0
  186.8020  177.6100  146.5450 C   0  0  2  0  0  3  0  0  0  0  0  0
  185.3690  178.8090  144.9950 C   0  0  1  0  0  3  0  0  0  0  0  0
  186.7970  178.3590  145.2260 C   0  0  0  0  0  2  0  0  0  0  0  0
  185.6610  178.1880  147.3490 C   0  0  0  0  0  2  0  0  0  0  0  0
  188.1300  177.7440  147.2850 C   0  0  0  0  0  3  0  0  0  0  0  0
  187.9320  177.6920  148.6710 O   0  0  0  0  0  1  0  0  0  0  0  0
  189.0480  176.7740  146.8850 O   0  0  0  0  0  1  0  0  0  0  0  0
  1  4  1  0  0  0  0
  2  6  1  0  0  0  0
  3  2  2  0  0  0  0
  3  5  1  0  0  0  0
  5  1  2  0  0  0  0
  6  4  2  0  0  0  0
  7  2  1  0  0  0  0
  8  7  1  0  0  0  0
  9  8  1  0  0  0  0
 10  9  1  0  0  0  0
 11 10  1  0  0  0  0
 12 11  1  0  0  0  0
 13 14  1  0  0  0  0
 13 12  1  0  0  0  0
 14 15  1  1  0  0  0
 14 17  1  0  0  0  0
 17 20  1  0  0  0  0
 17 25  1  1  0  0  0
 18 21  1  0  0  0  0
 20 19  1  6  0  0  0
 20 24  1  0  0  0  0
 20 16  1  0  0  0  0
 21 22  2  0  0  0  0
 23 24  1  0  0  0  0
 24 22  1  6  0  0  0
 26 18  2  0  0  0  0
 26 23  1  0  0  0  0
 27 28  1  1  0  0  0
 27 23  1  0  0  0  0
 27 17  1  0  0  0  0
 28 29  2  0  0  0  0
 30  5  1  0  0  0  0
 31 30  1  0  0  0  0
 32 31  2  0  0  0  0
 33 32  1  6  0  0  0
 33 46  1  0  0  0  0
 34 35  1  0  0  0  0
 35 37  1  1  0  0  0
 35 33  1  0  0  0  0
 36 34  1  0  0  0  0
 36 35  1  0  0  0  0
 38 37  1  0  0  0  0
 40 38  1  0  0  0  0
 40 41  1  0  0  0  0
 40 39  1  0  0  0  0
 42 45  1  0  0  0  0
 45 44  1  0  0  0  0
 45 43  1  0  0  0  0
 45 41  1  0  0  0  0
 46 47  1  0  0  0  0
 48 52  1  0  0  0  0
 49 53  1  1  0  0  0
 49 52  1  0  0  0  0
 50 47  1  6  0  0  0
 50 51  1  0  0  0  0
 50 48  1  0  0  0  0
 51 49  1  0  0  0  0
 53 54  1  0  0  0  0
 55 53  1  0  0  0  0
M  END
>  <MODEL>
9

>  <REMARK>
 VINA RESULT:      -5.9      2.554      7.513
  Name = 
  23 active torsions:
  status: ('A' for Active; 'I' for Inactive)
    1  A    between atoms: C_1  and  C_53
    2  A    between atoms: C_2  and  C_28
    3  A    between atoms: C_2  and  C_44
    4  A    between atoms: C_6  and  C_20
    5  A    between atoms: C_7  and  C_20
    6  A    between atoms: C_7  and  C_22
    7  A    between atoms: C_8  and  C_22
    8  A    between atoms: C_8  and  C_35
    9  A    between atoms: C_10  and  C_32
   10  A    between atoms: C_16  and  C_17
   11  A    between atoms: C_16  and  C_26
   12  A    between atoms: C_17  and  C_33
   13  A    between atoms: C_19  and  C_40
   14  A    between atoms: C_19  and  N_45
   15  A    between atoms: C_26  and  N_45
   16  A    between atoms: C_27  and  O_54
   17  A    between atoms: C_33  and  N_36
   18  A    between atoms: C_33  and  C_49
   19  A    between atoms: C_34  and  N_52
   20  A    between atoms: C_35  and  C_43
   21  A    between atoms: N_36  and  N_52
   22  A    between atoms: C_43  and  C_51
   23  A    between atoms: C_51  and  O_54
                            x       y       z     vdW  Elec       q    Type
                         _______ _______ _______ _____ _____    ______ ____

>  <TORSDO>
F 23

$$$$
