=
 OpenBabel10262420023D

 27 29  0  0  1  0  0  0  0  0999 V2000
  186.2700  178.7230  141.5030 C   0  0  2  0  0  3  0  0  0  0  0  0
  182.2140  177.4490  140.3830 N   0  0  0  0  0  2  0  0  0  0  0  0
  181.1880  177.9080  138.2950 N   0  0  0  0  0  1  0  0  0  0  0  0
  184.3770  178.8780  143.1260 C   0  0  0  0  0  0  0  0  0  0  0  0
  185.5980  179.0570  140.1830 C   0  0  0  0  0  2  0  0  0  0  0  0
  183.8690  177.7980  138.3390 S   0  0  0  0  0  0  0  0  0  0  0  0
  185.6120  179.5370  142.6040 C   0  0  0  0  0  2  0  0  0  0  0  0
  182.2640  177.1930  138.9560 C   0  0  1  0  0  3  0  0  0  0  0  0
  183.3680  178.0850  140.9050 C   0  0  0  0  0  0  0  0  0  0  0  0
  184.3080  178.3270  139.9900 C   0  0  0  0  0  0  0  0  0  0  0  0
  183.4300  178.3100  142.3690 C   0  0  0  0  0  3  0  0  0  0  0  0
  184.1610  178.8970  144.6040 C   0  0  0  0  0  2  0  0  0  0  0  0
  187.6890  177.6760  146.7170 C   0  0  0  0  0  3  0  0  0  0  0  0
  185.3970  178.4850  145.3310 C   0  0  0  0  0  0  0  0  0  0  0  0
  186.2760  177.5610  144.7540 C   0  0  0  0  0  3  0  0  0  0  0  0
  187.4230  177.1580  145.4460 C   0  0  0  0  0  3  0  0  0  0  0  0
  186.8100  178.5950  147.2980 C   0  0  0  0  0  3  0  0  0  0  0  0
  185.6630  178.9980  146.6060 C   0  0  0  0  0  3  0  0  0  0  0  0
  187.6760  178.8800  141.4620 O   0  0  0  0  0  0  0  0  0  0  0  0
  189.0490  177.7700  139.8370 C   0  0  0  0  0  1  0  0  0  0  0  0
  188.2940  177.6530  141.1500 C   0  0  1  0  0  3  0  0  0  0  0  0
  189.2190  177.1950  142.2780 C   0  0  0  0  0  2  0  0  0  0  0  0
  189.8750  178.3490  143.0280 C   0  0  0  0  0  2  0  0  0  0  0  0
  191.1950  177.9080  143.6420 C   0  0  0  0  0  2  0  0  0  0  0  0
  191.0180  176.6300  144.4430 C   0  0  2  0  0  3  0  0  0  0  0  0
  191.3740  176.8670  145.8990 C   0  0  0  0  0  1  0  0  0  0  0  0
  191.8470  175.6380  143.9230 O   0  0  0  0  0  1  0  0  0  0  0  0
  1 19  1  6  0  0  0
  1  7  1  0  0  0  0
  2  9  1  0  0  0  0
  4 12  1  0  0  0  0
  5  1  1  0  0  0  0
  6  8  1  0  0  0  0
  6 10  1  0  0  0  0
  7  4  1  0  0  0  0
  8  3  1  6  0  0  0
  8  2  1  0  0  0  0
  9 11  1  0  0  0  0
 10  5  1  0  0  0  0
 10  9  2  0  0  0  0
 11  4  2  0  0  0  0
 12 14  1  0  0  0  0
 13 17  1  0  0  0  0
 14 18  1  0  0  0  0
 15 14  2  0  0  0  0
 15 16  1  0  0  0  0
 16 13  2  0  0  0  0
 18 17  2  0  0  0  0
 21 20  1  6  0  0  0
 21 19  1  0  0  0  0
 21 22  1  0  0  0  0
 22 23  1  0  0  0  0
 23 24  1  0  0  0  0
 24 25  1  0  0  0  0
 25 26  1  1  0  0  0
 27 25  1  0  0  0  0
M  END
>  <MODEL>
1

>  <REMARK>
 VINA RESULT:      -7.6      0.000      0.000
  Name = 
  8 active torsions:
  status: ('A' for Active; 'I' for Inactive)
    1  A    between atoms: C_1  and  C_24
    2  A    between atoms: C_2  and  C_6
    3  A    between atoms: C_2  and  C_9
    4  A    between atoms: C_3  and  O_26
    5  A    between atoms: C_13  and  C_20
    6  A    between atoms: C_13  and  C_22
    7  A    between atoms: C_20  and  O_26
    8  A    between atoms: C_22  and  C_24
                            x       y       z     vdW  Elec       q    Type
                         _______ _______ _______ _____ _____    ______ ____

>  <TORSDO>
F 8

$$$$
=
 OpenBabel10262420023D

 27 29  0  0  1  0  0  0  0  0999 V2000
  189.4170  176.9820  142.7350 C   0  0  2  0  0  3  0  0  0  0  0  0
  185.8700  179.3110  141.5840 N   0  0  0  0  0  0  0  0  0  0  0  0
  183.6720  178.8920  142.3670 N   0  0  0  0  0  1  0  0  0  0  0  0
  189.0620  177.7010  140.3700 C   0  0  0  0  0  0  0  0  0  0  0  0
  188.0030  176.6840  143.2040 C   0  0  0  0  0  2  0  0  0  0  0  0
  185.6990  178.1320  143.9550 S   0  0  0  0  0  0  0  0  0  0  0  0
  189.5340  176.6050  141.2690 C   0  0  0  0  0  2  0  0  0  0  0  0
  185.0070  179.3130  142.7490 C   0  0  1  0  0  3  0  0  0  0  0  0
  186.9730  178.4250  141.6720 C   0  0  0  0  0  0  0  0  0  0  0  0
  187.0300  177.7520  142.8230 C   0  0  2  0  0  3  0  0  0  0  0  0
  187.9480  178.4210  140.5560 C   0  0  0  0  0  3  0  0  0  0  0  0
  189.8700  177.9830  139.1460 C   0  0  0  0  0  2  0  0  0  0  0  0
  190.7530  174.3360  137.0650 C   0  0  0  0  0  3  0  0  0  0  0  0
  190.1800  176.7230  138.4080 C   0  0  0  0  0  0  0  0  0  0  0  0
  189.1600  176.0280  137.7470 C   0  0  0  0  0  3  0  0  0  0  0  0
  189.4470  174.8360  137.0740 C   0  0  0  0  0  3  0  0  0  0  0  0
  191.7720  175.0260  137.7300 C   0  0  0  0  0  3  0  0  0  0  0  0
  191.4850  176.2180  138.4020 C   0  0  0  0  0  3  0  0  0  0  0  0
  190.4060  176.3730  143.5450 O   0  0  0  0  0  0  0  0  0  0  0  0
  190.6870  178.7410  143.8090 C   0  0  0  0  0  1  0  0  0  0  0  0
  191.1490  177.3560  144.2280 C   0  0  1  0  0  3  0  0  0  0  0  0
  191.0490  177.1770  145.7430 C   0  0  0  0  0  2  0  0  0  0  0  0
  189.7430  177.7040  146.3280 C   0  0  0  0  0  2  0  0  0  0  0  0
  189.1780  176.7260  147.3460 C   0  0  0  0  0  2  0  0  0  0  0  0
  188.1150  177.3920  148.2030 C   0  0  2  0  0  3  0  0  0  0  0  0
  187.1050  178.1100  147.3270 C   0  0  0  0  0  1  0  0  0  0  0  0
  188.7190  178.3120  149.0570 O   0  0  0  0  0  1  0  0  0  0  0  0
  1  5  1  0  0  0  0
  1 19  1  1  0  0  0
  2  9  2  0  0  0  0
  2  8  1  0  0  0  0
  4 11  2  0  0  0  0
  4  7  1  0  0  0  0
  7  1  1  0  0  0  0
  8  3  1  6  0  0  0
  8  6  1  0  0  0  0
  9 10  1  0  0  0  0
 10  5  1  6  0  0  0
 10  6  1  0  0  0  0
 11  9  1  0  0  0  0
 12  4  1  0  0  0  0
 13 16  2  0  0  0  0
 13 17  1  0  0  0  0
 14 12  1  0  0  0  0
 15 14  2  0  0  0  0
 16 15  1  0  0  0  0
 17 18  2  0  0  0  0
 18 14  1  0  0  0  0
 19 21  1  0  0  0  0
 21 20  1  1  0  0  0
 21 22  1  0  0  0  0
 22 23  1  0  0  0  0
 23 24  1  0  0  0  0
 24 25  1  0  0  0  0
 25 26  1  6  0  0  0
 25 27  1  0  0  0  0
M  END
>  <MODEL>
2

>  <REMARK>
 VINA RESULT:      -7.6      2.794      6.282
  Name = 
  8 active torsions:
  status: ('A' for Active; 'I' for Inactive)
    1  A    between atoms: C_1  and  C_24
    2  A    between atoms: C_2  and  C_6
    3  A    between atoms: C_2  and  C_9
    4  A    between atoms: C_3  and  O_26
    5  A    between atoms: C_13  and  C_20
    6  A    between atoms: C_13  and  C_22
    7  A    between atoms: C_20  and  O_26
    8  A    between atoms: C_22  and  C_24
                            x       y       z     vdW  Elec       q    Type
                         _______ _______ _______ _____ _____    ______ ____

>  <TORSDO>
F 8

$$$$
=
 OpenBabel10262420023D

 27 29  0  0  1  0  0  0  0  0999 V2000
  189.1340  177.6080  140.8380 C   0  0  2  0  0  3  0  0  0  0  0  0
  193.3340  177.2660  139.5850 N   0  0  0  0  0  2  0  0  0  0  0  0
  194.1840  175.5580  138.1770 N   0  0  0  0  0  1  0  0  0  0  0  0
  190.9960  178.0060  142.4550 C   0  0  0  0  0  0  0  0  0  0  0  0
  189.6850  176.4880  139.9730 C   0  0  0  0  0  2  0  0  0  0  0  0
  191.5870  176.1810  137.9090 S   0  0  0  0  0  0  0  0  0  0  0  0
  189.6370  177.4180  142.2590 C   0  0  0  0  0  2  0  0  0  0  0  0
  193.3000  176.7070  138.2480 C   0  0  1  0  0  3  0  0  0  0  0  0
  192.0870  177.2520  140.2600 C   0  0  0  0  0  0  0  0  0  0  0  0
  191.0920  176.7330  139.5370 C   0  0  0  0  0  0  0  0  0  0  0  0
  192.0190  177.8780  141.6010 C   0  0  0  0  0  3  0  0  0  0  0  0
  191.2440  178.7560  143.7230 C   0  0  0  0  0  2  0  0  0  0  0  0
  190.0600  176.4830  147.1640 C   0  0  0  0  0  3  0  0  0  0  0  0
  190.8240  177.9540  144.9100 C   0  0  0  0  0  0  0  0  0  0  0  0
  189.5880  178.1970  145.5200 C   0  0  0  0  0  3  0  0  0  0  0  0
  189.2050  177.4610  146.6450 C   0  0  0  0  0  3  0  0  0  0  0  0
  191.2980  176.2420  146.5600 C   0  0  0  0  0  3  0  0  0  0  0  0
  191.6810  176.9790  145.4340 C   0  0  0  0  0  3  0  0  0  0  0  0
  187.7250  177.7240  140.7590 O   0  0  0  0  0  0  0  0  0  0  0  0
  186.0580  179.3340  141.3810 C   0  0  0  0  0  1  0  0  0  0  0  0
  187.2390  178.4930  141.8350 C   0  0  1  0  0  3  0  0  0  0  0  0
  186.8600  177.6080  143.0240 C   0  0  0  0  0  2  0  0  0  0  0  0
  185.8010  178.2310  143.9270 C   0  0  0  0  0  2  0  0  0  0  0  0
  185.9730  177.7570  145.3610 C   0  0  0  0  0  2  0  0  0  0  0  0
  184.9280  178.3860  146.2670 C   0  0  2  0  0  3  0  0  0  0  0  0
  183.8140  178.9990  145.4400 C   0  0  0  0  0  1  0  0  0  0  0  0
  185.5240  179.3780  147.0420 O   0  0  0  0  0  1  0  0  0  0  0  0
  1 19  1  1  0  0  0
  1  7  1  0  0  0  0
  2  9  1  0  0  0  0
  4 12  1  0  0  0  0
  5  1  1  0  0  0  0
  6  8  1  0  0  0  0
  6 10  1  0  0  0  0
  7  4  1  0  0  0  0
  8  3  1  1  0  0  0
  8  2  1  0  0  0  0
  9 11  1  0  0  0  0
 10  5  1  0  0  0  0
 10  9  2  0  0  0  0
 11  4  2  0  0  0  0
 12 14  1  0  0  0  0
 14 18  2  0  0  0  0
 14 15  1  0  0  0  0
 15 16  2  0  0  0  0
 16 13  1  0  0  0  0
 17 13  2  0  0  0  0
 18 17  1  0  0  0  0
 19 21  1  0  0  0  0
 21 20  1  6  0  0  0
 21 22  1  0  0  0  0
 22 23  1  0  0  0  0
 23 24  1  0  0  0  0
 24 25  1  0  0  0  0
 25 26  1  6  0  0  0
 25 27  1  0  0  0  0
M  END
>  <MODEL>
3

>  <REMARK>
 VINA RESULT:      -7.5      4.062      6.658
  Name = 
  8 active torsions:
  status: ('A' for Active; 'I' for Inactive)
    1  A    between atoms: C_1  and  C_24
    2  A    between atoms: C_2  and  C_6
    3  A    between atoms: C_2  and  C_9
    4  A    between atoms: C_3  and  O_26
    5  A    between atoms: C_13  and  C_20
    6  A    between atoms: C_13  and  C_22
    7  A    between atoms: C_20  and  O_26
    8  A    between atoms: C_22  and  C_24
                            x       y       z     vdW  Elec       q    Type
                         _______ _______ _______ _____ _____    ______ ____

>  <TORSDO>
F 8

$$$$
=
 OpenBabel10262420023D

 27 29  0  0  1  0  0  0  0  0999 V2000
  185.9370  178.8340  141.7820 C   0  0  2  0  0  3  0  0  0  0  0  0
  181.7800  177.7350  140.8640 N   0  0  0  0  0  2  0  0  0  0  0  0
  180.6460  178.3120  138.8630 N   0  0  0  0  0  1  0  0  0  0  0  0
  184.1520  178.9810  143.5240 C   0  0  0  0  0  0  0  0  0  0  0  0
  185.1990  179.2430  140.5200 C   0  0  0  0  0  2  0  0  0  0  0  0
  183.3200  178.1170  138.7370 S   0  0  0  0  0  0  0  0  0  0  0  0
  185.3750  179.6220  142.9530 C   0  0  0  0  0  2  0  0  0  0  0  0
  181.7350  177.5370  139.4280 C   0  0  1  0  0  3  0  0  0  0  0  0
  182.9850  178.3120  141.3390 C   0  0  0  0  0  0  0  0  0  0  0  0
  183.8760  178.5630  140.3780 C   0  0  0  0  0  0  0  0  0  0  0  0
  183.1430  178.4740  142.8040 C   0  0  0  0  0  3  0  0  0  0  0  0
  184.0260  178.9450  145.0110 C   0  0  0  0  0  2  0  0  0  0  0  0
  187.7160  177.7000  146.8130 C   0  0  0  0  0  3  0  0  0  0  0  0
  185.3010  178.4990  145.6460 C   0  0  0  0  0  0  0  0  0  0  0  0
  185.6830  179.0140  146.8910 C   0  0  0  0  0  3  0  0  0  0  0  0
  186.8890  178.6120  147.4740 C   0  0  0  0  0  3  0  0  0  0  0  0
  187.3390  177.1890  145.5660 C   0  0  0  0  0  3  0  0  0  0  0  0
  186.1330  177.5900  144.9830 C   0  0  0  0  0  3  0  0  0  0  0  0
  187.3430  178.9490  141.6600 O   0  0  0  0  0  0  0  0  0  0  0  0
  188.8040  178.1230  139.9460 C   0  0  0  0  0  1  0  0  0  0  0  0
  187.8810  177.7730  141.1000 C   0  0  1  0  0  3  0  0  0  0  0  0
  188.6090  176.9380  142.1550 C   0  0  0  0  0  2  0  0  0  0  0  0
  190.0290  177.4190  142.4310 C   0  0  0  0  0  2  0  0  0  0  0  0
  190.5670  176.7970  143.7100 C   0  0  0  0  0  2  0  0  0  0  0  0
  190.8840  177.8680  144.7390 C   0  0  2  0  0  3  0  0  0  0  0  0
  191.4420  179.1050  144.0590 C   0  0  0  0  0  1  0  0  0  0  0  0
  191.8240  177.3780  145.6430 O   0  0  0  0  0  1  0  0  0  0  0  0
  1 19  1  6  0  0  0
  1  7  1  0  0  0  0
  2  9  1  0  0  0  0
  4 12  1  0  0  0  0
  5  1  1  0  0  0  0
  6  8  1  0  0  0  0
  6 10  1  0  0  0  0
  7  4  1  0  0  0  0
  8  3  1  6  0  0  0
  8  2  1  0  0  0  0
  9 11  1  0  0  0  0
 10  5  1  0  0  0  0
 10  9  2  0  0  0  0
 11  4  2  0  0  0  0
 12 14  1  0  0  0  0
 13 16  1  0  0  0  0
 14 15  1  0  0  0  0
 15 16  2  0  0  0  0
 17 13  2  0  0  0  0
 18 17  1  0  0  0  0
 18 14  2  0  0  0  0
 21 20  1  6  0  0  0
 21 19  1  0  0  0  0
 21 22  1  0  0  0  0
 22 23  1  0  0  0  0
 23 24  1  0  0  0  0
 24 25  1  0  0  0  0
 25 26  1  6  0  0  0
 25 27  1  0  0  0  0
M  END
>  <MODEL>
4

>  <REMARK>
 VINA RESULT:      -7.5      0.813      1.337
  Name = 
  8 active torsions:
  status: ('A' for Active; 'I' for Inactive)
    1  A    between atoms: C_1  and  C_24
    2  A    between atoms: C_2  and  C_6
    3  A    between atoms: C_2  and  C_9
    4  A    between atoms: C_3  and  O_26
    5  A    between atoms: C_13  and  C_20
    6  A    between atoms: C_13  and  C_22
    7  A    between atoms: C_20  and  O_26
    8  A    between atoms: C_22  and  C_24
                            x       y       z     vdW  Elec       q    Type
                         _______ _______ _______ _____ _____    ______ ____

>  <TORSDO>
F 8

$$$$
=
 OpenBabel10262420023D

 27 29  0  0  1  0  0  0  0  0999 V2000
  189.5040  177.0560  142.6330 C   0  0  2  0  0  3  0  0  0  0  0  0
  185.7430  179.2470  142.0070 N   0  0  0  0  0  0  0  0  0  0  0  0
  183.6730  178.6830  143.0180 N   0  0  0  0  0  1  0  0  0  0  0  0
  188.8420  177.8540  140.3600 C   0  0  0  0  0  0  0  0  0  0  0  0
  188.1700  176.6670  143.2460 C   0  0  0  0  0  2  0  0  0  0  0  0
  185.9050  177.9640  144.3240 S   0  0  0  0  0  0  0  0  0  0  0  0
  189.4660  176.7470  141.1470 C   0  0  0  0  0  2  0  0  0  0  0  0
  185.0240  179.1560  143.2630 C   0  0  1  0  0  3  0  0  0  0  0  0
  186.8890  178.4150  141.9260 C   0  0  0  0  0  0  0  0  0  0  0  0
  187.1110  177.6990  143.0300 C   0  0  2  0  0  3  0  0  0  0  0  0
  187.7250  178.5070  140.7060 C   0  0  0  0  0  3  0  0  0  0  0  0
  189.4870  178.2260  139.0670 C   0  0  0  0  0  2  0  0  0  0  0  0
  187.1810  176.8850  135.7070 C   0  0  0  0  0  3  0  0  0  0  0  0
  188.6710  177.7610  137.9070 C   0  0  0  0  0  0  0  0  0  0  0  0
  188.3780  176.4000  137.7550 C   0  0  0  0  0  3  0  0  0  0  0  0
  187.6320  175.9630  136.6560 C   0  0  0  0  0  3  0  0  0  0  0  0
  187.4770  178.2440  135.8530 C   0  0  0  0  0  3  0  0  0  0  0  0
  188.2230  178.6810  136.9520 C   0  0  0  0  0  3  0  0  0  0  0  0
  190.6070  176.4660  143.2950 O   0  0  0  0  0  0  0  0  0  0  0  0
  190.7700  178.8170  143.7450 C   0  0  0  0  0  1  0  0  0  0  0  0
  191.2680  177.4240  144.0890 C   0  0  1  0  0  3  0  0  0  0  0  0
  191.0910  177.1280  145.5790 C   0  0  0  0  0  2  0  0  0  0  0  0
  189.8950  177.8420  146.1980 C   0  0  0  0  0  2  0  0  0  0  0  0
  189.0100  176.8570  146.9460 C   0  0  0  0  0  2  0  0  0  0  0  0
  188.3780  177.5140  148.1620 C   0  0  2  0  0  3  0  0  0  0  0  0
  187.1680  178.3310  147.7500 C   0  0  0  0  0  1  0  0  0  0  0  0
  189.3100  178.3490  148.7730 O   0  0  0  0  0  1  0  0  0  0  0  0
  1  5  1  0  0  0  0
  1 19  1  1  0  0  0
  2  8  1  0  0  0  0
  4 11  2  0  0  0  0
  4  7  1  0  0  0  0
  7  1  1  0  0  0  0
  8  3  1  6  0  0  0
  8  6  1  0  0  0  0
  9  2  2  0  0  0  0
  9 10  1  0  0  0  0
 10  5  1  6  0  0  0
 10  6  1  0  0  0  0
 11  9  1  0  0  0  0
 12  4  1  0  0  0  0
 13 17  2  0  0  0  0
 13 16  1  0  0  0  0
 14 12  1  0  0  0  0
 15 14  1  0  0  0  0
 16 15  2  0  0  0  0
 17 18  1  0  0  0  0
 18 14  2  0  0  0  0
 19 21  1  0  0  0  0
 21 20  1  1  0  0  0
 21 22  1  0  0  0  0
 22 23  1  0  0  0  0
 23 24  1  0  0  0  0
 24 25  1  0  0  0  0
 25 26  1  6  0  0  0
 25 27  1  0  0  0  0
M  END
>  <MODEL>
5

>  <REMARK>
 VINA RESULT:      -7.5      2.765      6.237
  Name = 
  8 active torsions:
  status: ('A' for Active; 'I' for Inactive)
    1  A    between atoms: C_1  and  C_24
    2  A    between atoms: C_2  and  C_6
    3  A    between atoms: C_2  and  C_9
    4  A    between atoms: C_3  and  O_26
    5  A    between atoms: C_13  and  C_20
    6  A    between atoms: C_13  and  C_22
    7  A    between atoms: C_20  and  O_26
    8  A    between atoms: C_22  and  C_24
                            x       y       z     vdW  Elec       q    Type
                         _______ _______ _______ _____ _____    ______ ____

>  <TORSDO>
F 8

$$$$
=
 OpenBabel10262420023D

 27 29  0  0  1  0  0  0  0  0999 V2000
  185.9890  177.7940  143.3350 C   0  0  2  0  0  3  0  0  0  0  0  0
  181.7790  178.9150  143.9210 N   0  0  0  0  0  2  0  0  0  0  0  0
  180.4830  180.1440  142.3610 N   0  0  0  0  0  1  0  0  0  0  0  0
  185.1740  178.6220  145.5460 C   0  0  0  0  0  0  0  0  0  0  0  0
  185.1750  178.6200  142.3550 C   0  0  0  0  0  2  0  0  0  0  0  0
  182.5250  178.7010  141.3840 S   0  0  0  0  0  0  0  0  0  0  0  0
  186.2920  178.6450  144.5560 C   0  0  0  0  0  2  0  0  0  0  0  0
  181.1800  178.8930  142.6010 C   0  0  1  0  0  3  0  0  0  0  0  0
  183.1910  178.7970  143.9270 C   0  0  0  0  0  0  0  0  0  0  0  0
  183.7250  178.6750  142.7100 C   0  0  0  0  0  0  0  0  0  0  0  0
  183.8740  178.7300  145.2410 C   0  0  0  0  0  3  0  0  0  0  0  0
  185.5370  178.5160  146.9910 C   0  0  0  0  0  2  0  0  0  0  0  0
  189.6470  177.3930  147.4940 C   0  0  0  0  0  3  0  0  0  0  0  0
  186.9720  178.1390  147.1560 C   0  0  0  0  0  0  0  0  0  0  0  0
  187.5740  177.2570  146.2500 C   0  0  0  0  0  3  0  0  0  0  0  0
  188.9120  176.8860  146.4180 C   0  0  0  0  0  3  0  0  0  0  0  0
  189.0460  178.2700  148.4030 C   0  0  0  0  0  3  0  0  0  0  0  0
  187.7080  178.6400  148.2350 C   0  0  0  0  0  3  0  0  0  0  0  0
  187.1490  177.2300  142.7510 O   0  0  0  0  0  0  0  0  0  0  0  0
  189.3460  178.1750  142.9330 C   0  0  0  0  0  1  0  0  0  0  0  0
  187.9890  178.2470  142.2560 C   0  0  1  0  0  3  0  0  0  0  0  0
  188.1260  178.1630  140.7350 C   0  0  0  0  0  2  0  0  0  0  0  0
  189.3560  177.3830  140.2830 C   0  0  0  0  0  2  0  0  0  0  0  0
  189.7850  177.8190  138.8900 C   0  0  0  0  0  2  0  0  0  0  0  0
  188.6120  178.4060  138.1230 C   0  0  2  0  0  3  0  0  0  0  0  0
  188.1910  177.4700  137.0060 C   0  0  0  0  0  1  0  0  0  0  0  0
  188.9830  179.6330  137.5780 O   0  0  0  0  0  1  0  0  0  0  0  0
  1 19  1  6  0  0  0
  1  7  1  0  0  0  0
  2  9  1  0  0  0  0
  4 12  1  0  0  0  0
  5 10  1  0  0  0  0
  5  1  1  0  0  0  0
  6  8  1  0  0  0  0
  6 10  1  0  0  0  0
  7  4  1  0  0  0  0
  8  3  1  6  0  0  0
  8  2  1  0  0  0  0
  9 11  1  0  0  0  0
 10  9  2  0  0  0  0
 11  4  2  0  0  0  0
 12 14  1  0  0  0  0
 13 17  1  0  0  0  0
 14 18  1  0  0  0  0
 15 16  1  0  0  0  0
 15 14  2  0  0  0  0
 16 13  2  0  0  0  0
 18 17  2  0  0  0  0
 21 19  1  0  0  0  0
 21 20  1  1  0  0  0
 22 21  1  0  0  0  0
 23 22  1  0  0  0  0
 24 23  1  0  0  0  0
 25 26  1  6  0  0  0
 25 24  1  0  0  0  0
 27 25  1  0  0  0  0
M  END
>  <MODEL>
6

>  <REMARK>
 VINA RESULT:      -7.5      2.267      3.892
  Name = 
  8 active torsions:
  status: ('A' for Active; 'I' for Inactive)
    1  A    between atoms: C_1  and  C_24
    2  A    between atoms: C_2  and  C_6
    3  A    between atoms: C_2  and  C_9
    4  A    between atoms: C_3  and  O_26
    5  A    between atoms: C_13  and  C_20
    6  A    between atoms: C_13  and  C_22
    7  A    between atoms: C_20  and  O_26
    8  A    between atoms: C_22  and  C_24
                            x       y       z     vdW  Elec       q    Type
                         _______ _______ _______ _____ _____    ______ ____

>  <TORSDO>
F 8

$$$$
=
 OpenBabel10262420023D

 27 29  0  0  1  0  0  0  0  0999 V2000
  188.5650  178.2090  141.2940 C   0  0  2  0  0  3  0  0  0  0  0  0
  186.2680  177.5650  137.6010 N   0  0  0  0  0  0  0  0  0  0  0  0
  187.0180  178.1530  135.4300 N   0  0  0  0  0  1  0  0  0  0  0  0
  186.1130  178.6750  141.2070 C   0  0  0  0  0  0  0  0  0  0  0  0
  189.0290  178.6270  139.9100 C   0  0  0  0  0  2  0  0  0  0  0  0
  188.9000  177.6300  137.2710 S   0  0  0  0  0  0  0  0  0  0  0  0
  187.4370  179.1280  141.7290 C   0  0  0  0  0  2  0  0  0  0  0  0
  187.2510  177.2880  136.5720 C   0  0  1  0  0  3  0  0  0  0  0  0
  186.8150  178.0210  138.8270 C   0  0  0  0  0  0  0  0  0  0  0  0
  188.1470  178.1040  138.8230 C   0  0  2  0  0  3  0  0  0  0  0  0
  185.8840  178.2510  139.9570 C   0  0  0  0  0  3  0  0  0  0  0  0
  184.9470  178.7440  142.1370 C   0  0  0  0  0  2  0  0  0  0  0  0
  186.1890  177.9690  146.1700 C   0  0  0  0  0  3  0  0  0  0  0  0
  185.3660  178.4640  143.5420 C   0  0  0  0  0  0  0  0  0  0  0  0
  184.8700  179.2470  144.5920 C   0  0  0  0  0  3  0  0  0  0  0  0
  185.2800  178.9970  145.9050 C   0  0  0  0  0  3  0  0  0  0  0  0
  186.6900  177.1890  145.1220 C   0  0  0  0  0  3  0  0  0  0  0  0
  186.2800  177.4380  143.8090 C   0  0  0  0  0  3  0  0  0  0  0  0
  189.6230  178.1460  142.2340 O   0  0  0  0  0  0  0  0  0  0  0  0
  191.8050  177.4540  141.5150 C   0  0  0  0  0  1  0  0  0  0  0  0
  190.4280  177.0170  141.9850 C   0  0  1  0  0  3  0  0  0  0  0  0
  190.5260  176.1220  143.2220 C   0  0  0  0  0  2  0  0  0  0  0  0
  190.3640  176.8830  144.5330 C   0  0  0  0  0  2  0  0  0  0  0  0
  191.5460  176.6240  145.4530 C   0  0  0  0  0  2  0  0  0  0  0  0
  191.0780  176.3820  146.8780 C   0  0  2  0  0  3  0  0  0  0  0  0
  189.7870  177.1320  147.1440 C   0  0  0  0  0  1  0  0  0  0  0  0
  192.0560  176.8210  147.7680 O   0  0  0  0  0  1  0  0  0  0  0  0
  1  7  1  0  0  0  0
  1 19  1  1  0  0  0
  2  9  2  0  0  0  0
  4  7  1  0  0  0  0
  4 12  1  0  0  0  0
  5  1  1  0  0  0  0
  6 10  1  0  0  0  0
  8  3  1  6  0  0  0
  8  6  1  0  0  0  0
  8  2  1  0  0  0  0
  9 11  1  0  0  0  0
 10  9  1  0  0  0  0
 10  5  1  6  0  0  0
 11  4  2  0  0  0  0
 12 14  1  0  0  0  0
 14 18  2  0  0  0  0
 14 15  1  0  0  0  0
 15 16  2  0  0  0  0
 16 13  1  0  0  0  0
 17 13  2  0  0  0  0
 18 17  1  0  0  0  0
 21 20  1  1  0  0  0
 21 19  1  0  0  0  0
 21 22  1  0  0  0  0
 22 23  1  0  0  0  0
 23 24  1  0  0  0  0
 24 25  1  0  0  0  0
 25 26  1  1  0  0  0
 25 27  1  0  0  0  0
M  END
>  <MODEL>
7

>  <REMARK>
 VINA RESULT:      -7.3      2.433      3.334
  Name = 
  8 active torsions:
  status: ('A' for Active; 'I' for Inactive)
    1  A    between atoms: C_1  and  C_24
    2  A    between atoms: C_2  and  C_6
    3  A    between atoms: C_2  and  C_9
    4  A    between atoms: C_3  and  O_26
    5  A    between atoms: C_13  and  C_20
    6  A    between atoms: C_13  and  C_22
    7  A    between atoms: C_20  and  O_26
    8  A    between atoms: C_22  and  C_24
                            x       y       z     vdW  Elec       q    Type
                         _______ _______ _______ _____ _____    ______ ____

>  <TORSDO>
F 8

$$$$
=
 OpenBabel10262420023D

 27 29  0  0  1  0  0  0  0  0999 V2000
  185.3630  178.3250  143.4590 C   0  0  2  0  0  3  0  0  0  0  0  0
  184.5490  179.6450  139.3450 N   0  0  0  0  0  0  0  0  0  0  0  0
  182.6480  179.0080  138.0780 N   0  0  0  0  0  1  0  0  0  0  0  0
  187.1870  178.4270  141.7560 C   0  0  0  0  0  0  0  0  0  0  0  0
  184.1680  177.8800  142.6340 C   0  0  0  0  0  2  0  0  0  0  0  0
  182.3910  179.0060  140.7500 S   0  0  0  0  0  0  0  0  0  0  0  0
  186.6120  177.6630  142.9030 C   0  0  0  0  0  2  0  0  0  0  0  0
  183.1060  179.7430  139.2430 C   0  0  1  0  0  3  0  0  0  0  0  0
  185.0120  179.0200  140.5300 C   0  0  0  0  0  0  0  0  0  0  0  0
  184.0340  178.6390  141.3540 C   0  0  2  0  0  3  0  0  0  0  0  0
  186.4770  178.9510  140.7480 C   0  0  0  0  0  3  0  0  0  0  0  0
  188.6720  178.5770  141.7050 C   0  0  0  0  0  2  0  0  0  0  0  0
  190.2980  176.9890  138.0670 C   0  0  0  0  0  3  0  0  0  0  0  0
  189.2240  178.0140  140.4380 C   0  0  0  0  0  0  0  0  0  0  0  0
  190.0670  176.8970  140.4750 C   0  0  0  0  0  3  0  0  0  0  0  0
  190.6020  176.3840  139.2890 C   0  0  0  0  0  3  0  0  0  0  0  0
  189.4610  178.1090  138.0280 C   0  0  0  0  0  3  0  0  0  0  0  0
  188.9260  178.6220  139.2130 C   0  0  0  0  0  3  0  0  0  0  0  0
  185.1880  178.1030  144.8460 O   0  0  0  0  0  0  0  0  0  0  0  0
  185.8490  179.3790  146.7680 C   0  0  0  0  0  1  0  0  0  0  0  0
  186.3060  178.5790  145.5600 C   0  0  1  0  0  3  0  0  0  0  0  0
  187.2290  177.4330  145.9750 C   0  0  0  0  0  2  0  0  0  0  0  0
  188.6900  177.8490  146.1000 C   0  0  0  0  0  2  0  0  0  0  0  0
  189.5400  177.1440  145.0550 C   0  0  0  0  0  2  0  0  0  0  0  0
  191.0060  177.5100  145.2150 C   0  0  2  0  0  3  0  0  0  0  0  0
  191.6040  177.8860  143.8720 C   0  0  0  0  0  1  0  0  0  0  0  0
  191.7000  176.4220  145.7380 O   0  0  0  0  0  1  0  0  0  0  0  0
  1 19  1  1  0  0  0
  2  9  2  0  0  0  0
  4  7  1  0  0  0  0
  5  1  1  0  0  0  0
  6 10  1  0  0  0  0
  7  1  1  0  0  0  0
  8  3  1  6  0  0  0
  8  2  1  0  0  0  0
  8  6  1  0  0  0  0
  9 11  1  0  0  0  0
  9 10  1  0  0  0  0
 10  5  1  6  0  0  0
 11  4  2  0  0  0  0
 12  4  1  0  0  0  0
 13 16  1  0  0  0  0
 14 15  1  0  0  0  0
 14 12  1  0  0  0  0
 16 15  2  0  0  0  0
 17 13  2  0  0  0  0
 17 18  1  0  0  0  0
 18 14  2  0  0  0  0
 19 21  1  0  0  0  0
 21 22  1  0  0  0  0
 21 20  1  1  0  0  0
 22 23  1  0  0  0  0
 24 25  1  0  0  0  0
 24 23  1  0  0  0  0
 25 26  1  6  0  0  0
 25 27  1  0  0  0  0
M  END
>  <MODEL>
8

>  <REMARK>
 VINA RESULT:      -6.9      1.768      4.778
  Name = 
  8 active torsions:
  status: ('A' for Active; 'I' for Inactive)
    1  A    between atoms: C_1  and  C_24
    2  A    between atoms: C_2  and  C_6
    3  A    between atoms: C_2  and  C_9
    4  A    between atoms: C_3  and  O_26
    5  A    between atoms: C_13  and  C_20
    6  A    between atoms: C_13  and  C_22
    7  A    between atoms: C_20  and  O_26
    8  A    between atoms: C_22  and  C_24
                            x       y       z     vdW  Elec       q    Type
                         _______ _______ _______ _____ _____    ______ ____

>  <TORSDO>
F 8

$$$$
=
 OpenBabel10262420023D

 27 29  0  0  1  0  0  0  0  0999 V2000
  188.2610  177.3060  143.2070 C   0  0  2  0  0  3  0  0  0  0  0  0
  190.3950  177.3210  147.0510 N   0  0  0  0  0  2  0  0  0  0  0  0
  191.9780  175.6860  147.7180 N   0  0  0  0  0  1  0  0  0  0  0  0
  187.0780  177.8680  145.3340 C   0  0  0  0  0  0  0  0  0  0  0  0
  189.2410  176.2340  143.6500 C   0  0  0  0  0  2  0  0  0  0  0  0
  191.6710  176.0840  145.0810 S   0  0  0  0  0  0  0  0  0  0  0  0
  186.9850  177.1650  144.0190 C   0  0  0  0  0  2  0  0  0  0  0  0
  191.7020  176.7550  146.7760 C   0  0  1  0  0  3  0  0  0  0  0  0
  189.4680  177.2020  145.9850 C   0  0  0  0  0  0  0  0  0  0  0  0
  189.9670  176.5970  144.9050 C   0  0  0  0  0  0  0  0  0  0  0  0
  188.1340  177.8240  146.1560 C   0  0  0  0  0  3  0  0  0  0  0  0
  185.8820  178.6410  145.7860 C   0  0  0  0  0  2  0  0  0  0  0  0
  182.9250  178.9100  142.6890 C   0  0  0  0  0  3  0  0  0  0  0  0
  184.8550  178.7170  144.7060 C   0  0  0  0  0  0  0  0  0  0  0  0
  185.2470  178.9120  143.3760 C   0  0  0  0  0  3  0  0  0  0  0  0
  184.2820  179.0060  142.3680 C   0  0  0  0  0  3  0  0  0  0  0  0
  182.5310  178.7210  144.0170 C   0  0  0  0  0  3  0  0  0  0  0  0
  183.4950  178.6270  145.0250 C   0  0  0  0  0  3  0  0  0  0  0  0
  188.0330  177.3010  141.8100 O   0  0  0  0  0  0  0  0  0  0  0  0
  190.1450  176.7950  140.7900 C   0  0  0  0  0  1  0  0  0  0  0  0
  189.1310  177.8710  141.1350 C   0  0  1  0  0  3  0  0  0  0  0  0
  188.6820  178.6270  139.8840 C   0  0  0  0  0  2  0  0  0  0  0  0
  189.2580  178.0550  138.5930 C   0  0  0  0  0  2  0  0  0  0  0  0
  188.1750  177.3560  137.7860 C   0  0  0  0  0  2  0  0  0  0  0  0
  186.9640  178.2570  137.6130 C   0  0  2  0  0  3  0  0  0  0  0  0
  185.8410  177.5040  136.9260 C   0  0  0  0  0  1  0  0  0  0  0  0
  187.3160  179.3620  136.8400 O   0  0  0  0  0  1  0  0  0  0  0  0
  1 19  1  6  0  0  0
  1  5  1  0  0  0  0
  1  7  1  0  0  0  0
  4 12  1  0  0  0  0
  4 11  2  0  0  0  0
  5 10  1  0  0  0  0
  6  8  1  0  0  0  0
  7  4  1  0  0  0  0
  8  2  1  0  0  0  0
  8  3  1  1  0  0  0
  9 11  1  0  0  0  0
  9  2  1  0  0  0  0
 10  6  1  0  0  0  0
 10  9  2  0  0  0  0
 13 17  1  0  0  0  0
 14 18  1  0  0  0  0
 14 12  1  0  0  0  0
 15 14  2  0  0  0  0
 16 13  2  0  0  0  0
 16 15  1  0  0  0  0
 17 18  2  0  0  0  0
 21 20  1  6  0  0  0
 21 19  1  0  0  0  0
 22 21  1  0  0  0  0
 23 22  1  0  0  0  0
 24 23  1  0  0  0  0
 25 26  1  6  0  0  0
 25 24  1  0  0  0  0
 27 25  1  0  0  0  0
M  END
>  <MODEL>
9

>  <REMARK>
 VINA RESULT:      -6.8      4.167      6.819
  Name = 
  8 active torsions:
  status: ('A' for Active; 'I' for Inactive)
    1  A    between atoms: C_1  and  C_24
    2  A    between atoms: C_2  and  C_6
    3  A    between atoms: C_2  and  C_9
    4  A    between atoms: C_3  and  O_26
    5  A    between atoms: C_13  and  C_20
    6  A    between atoms: C_13  and  C_22
    7  A    between atoms: C_20  and  O_26
    8  A    between atoms: C_22  and  C_24
                            x       y       z     vdW  Elec       q    Type
                         _______ _______ _______ _____ _____    ______ ____

>  <TORSDO>
F 8

$$$$
