=
 OpenBabel10252414503D

 34 39  0  0  1  0  0  0  0  0999 V2000
  189.5720  177.1540  146.4340 C   0  0  0  0  0  0  0  0  0  0  0  0
  191.1060  176.2410  144.8020 C   0  0  0  0  0  0  0  0  0  0  0  0
  188.9420  177.3210  144.0690 C   0  0  0  0  0  0  0  0  0  0  0  0
  188.2570  177.7700  141.7940 C   0  0  0  0  0  0  0  0  0  0  0  0
  191.6780  176.3200  147.1410 C   0  0  0  0  0  3  0  0  0  0  0  0
  192.0010  175.9690  145.8360 C   0  0  0  0  0  3  0  0  0  0  0  0
  190.4960  177.4250  142.0640 N   0  0  0  0  0  2  0  0  0  0  0  0
  189.8880  176.9200  145.0670 C   0  0  0  0  0  0  0  0  0  0  0  0
  188.8030  177.9320  140.4250 C   0  0  0  0  0  2  0  0  0  0  0  0
  190.4740  176.8800  147.4130 N   0  0  0  0  0  0  0  0  0  0  0  0
  187.6280  177.7180  144.4750 C   0  0  0  0  0  0  0  0  0  0  0  0
  188.3180  177.6290  146.8010 C   0  0  0  0  0  3  0  0  0  0  0  0
  191.3880  175.6900  143.5980 F   0  0  0  0  0  0  0  0  0  0  0  0
  186.9950  178.0600  142.1770 N   0  0  0  0  0  0  0  0  0  0  0  0
  186.6380  178.0300  143.4930 C   0  0  0  0  0  0  0  0  0  0  0  0
  190.3120  177.7080  140.6420 C   0  0  2  0  0  3  0  0  0  0  0  0
  189.2260  177.4290  142.6900 C   0  0  0  0  0  0  0  0  0  0  0  0
  187.3540  177.8820  145.8370 C   0  0  0  0  0  3  0  0  0  0  0  0
  182.9200  178.7670  143.1990 C   0  0  0  0  0  0  0  0  0  0  0  0
  182.6300  179.0910  144.5240 C   0  0  0  0  0  3  0  0  0  0  0  0
  185.2280  178.3670  143.8290 C   0  0  0  0  0  0  0  0  0  0  0  0
  183.6130  179.0610  145.4620 N   0  0  0  0  0  0  0  0  0  0  0  0
  184.2230  178.4110  142.8520 C   0  0  0  0  0  3  0  0  0  0  0  0
  184.8900  178.7160  145.1440 C   0  0  0  0  0  3  0  0  0  0  0  0
  181.9230  178.8010  142.2340 O   0  0  0  0  0  1  0  0  0  0  0  0
  190.8400  176.5580  139.7840 C   0  0  0  0  0  2  0  0  0  0  0  0
  191.0300  176.9630  138.3260 C   0  0  0  0  0  2  0  0  0  0  0  0
  189.1310  178.7240  136.9680 C   0  0  0  0  0  1  0  0  0  0  0  0
  189.9470  176.3770  137.4710 C   0  0  0  0  0  0  0  0  0  0  0  0
  189.0080  177.2430  136.6550 C   0  0  1  0  0  3  0  0  0  0  0  0
  187.3520  175.2670  136.8770 C   0  0  0  0  0  2  0  0  0  0  0  0
  188.6420  174.4720  136.6460 C   0  0  0  0  0  2  0  0  0  0  0  0
  189.7540  175.0510  137.4690 C   0  0  0  0  0  3  0  0  0  0  0  0
  187.5470  176.7970  136.8220 C   0  0  0  0  0  2  0  0  0  0  0  0
  1 12  1  0  0  0  0
  1 10  2  0  0  0  0
  2  8  2  0  0  0  0
  2  6  1  0  0  0  0
  3 11  1  0  0  0  0
  3  8  1  0  0  0  0
  4 14  2  0  0  0  0
  4 17  1  0  0  0  0
  5 10  1  0  0  0  0
  6  5  2  0  0  0  0
  7 17  1  0  0  0  0
  8  1  1  0  0  0  0
  9 16  1  0  0  0  0
  9  4  1  0  0  0  0
 11 18  1  0  0  0  0
 13  2  1  0  0  0  0
 14 15  1  0  0  0  0
 15 21  1  0  0  0  0
 15 11  2  0  0  0  0
 16 26  1  6  0  0  0
 16  7  1  0  0  0  0
 17  3  2  0  0  0  0
 18 12  2  0  0  0  0
 19 20  1  0  0  0  0
 20 22  2  0  0  0  0
 21 24  2  0  0  0  0
 23 19  2  0  0  0  0
 23 21  1  0  0  0  0
 24 22  1  0  0  0  0
 25 19  1  0  0  0  0
 27 26  1  0  0  0  0
 29 27  1  0  0  0  0
 30 34  1  0  0  0  0
 30 28  1  1  0  0  0
 30 29  1  0  0  0  0
 32 31  1  0  0  0  0
 32 33  1  0  0  0  0
 33 29  2  0  0  0  0
 34 31  1  0  0  0  0
M  END
>  <MODEL>
1

>  <REMARK>
 VINA RESULT:     -11.1      0.000      0.000
  Name = 
  4 active torsions:
  status: ('A' for Active; 'I' for Inactive)
    1  A    between atoms: C_3  and  C_13
    2  A    between atoms: C_3  and  C_17
    3  A    between atoms: C_12  and  C_28
    4  A    between atoms: C_17  and  C_29
                            x       y       z     vdW  Elec       q    Type
                         _______ _______ _______ _____ _____    ______ ____

>  <TORSDO>
F 4

$$$$
=
 OpenBabel10252414503D

 34 39  0  0  1  0  0  0  0  0999 V2000
  189.5710  177.2080  146.5510 C   0  0  0  0  0  0  0  0  0  0  0  0
  191.1520  176.2880  144.9680 C   0  0  0  0  0  0  0  0  0  0  0  0
  188.9980  177.3410  144.1700 C   0  0  0  0  0  0  0  0  0  0  0  0
  188.3630  177.7550  141.8730 C   0  0  0  0  0  0  0  0  0  0  0  0
  191.6670  176.4010  147.3190 C   0  0  0  0  0  3  0  0  0  0  0  0
  192.0240  176.0360  146.0260 C   0  0  0  0  0  3  0  0  0  0  0  0
  190.5980  177.4330  142.2020 N   0  0  0  0  0  2  0  0  0  0  0  0
  189.9230  176.9600  145.1950 C   0  0  0  0  0  0  0  0  0  0  0  0
  188.9410  177.9060  140.5170 C   0  0  0  0  0  2  0  0  0  0  0  0
  190.4520  176.9540  147.5550 N   0  0  0  0  0  0  0  0  0  0  0  0
  187.6700  177.7310  144.5390 C   0  0  0  0  0  0  0  0  0  0  0  0
  188.3050  177.6760  146.8820 C   0  0  0  0  0  3  0  0  0  0  0  0
  191.4670  175.7240  143.7780 F   0  0  0  0  0  0  0  0  0  0  0  0
  187.0900  178.0390  142.2230 N   0  0  0  0  0  0  0  0  0  0  0  0
  186.7020  178.0230  143.5300 C   0  0  0  0  0  0  0  0  0  0  0  0
  190.4460  177.6970  140.7720 C   0  0  2  0  0  3  0  0  0  0  0  0
  189.3140  177.4340  142.7970 C   0  0  0  0  0  0  0  0  0  0  0  0
  187.3620  177.9090  145.8920 C   0  0  0  0  0  3  0  0  0  0  0  0
  182.9900  178.7430  143.1350 C   0  0  0  0  0  0  0  0  0  0  0  0
  182.6620  179.0610  144.4530 C   0  0  0  0  0  3  0  0  0  0  0  0
  185.2820  178.3510  143.8280 C   0  0  0  0  0  0  0  0  0  0  0  0
  183.6180  179.0320  145.4180 N   0  0  0  0  0  0  0  0  0  0  0  0
  184.3040  178.3940  142.8240 C   0  0  0  0  0  3  0  0  0  0  0  0
  184.9050  178.6930  145.1350 C   0  0  0  0  0  3  0  0  0  0  0  0
  182.0200  178.7760  142.1430 O   0  0  0  0  0  1  0  0  0  0  0  0
  191.0040  176.5410  139.9420 C   0  0  0  0  0  2  0  0  0  0  0  0
  190.5250  176.5830  138.4940 C   0  0  0  0  0  2  0  0  0  0  0  0
  189.8970  174.1110  137.0640 C   0  0  0  0  0  1  0  0  0  0  0  0
  191.5440  175.9670  137.5850 C   0  0  0  0  0  0  0  0  0  0  0  0
  191.2340  174.7520  136.7330 C   0  0  1  0  0  3  0  0  0  0  0  0
  193.7770  174.2910  136.8580 C   0  0  0  0  0  2  0  0  0  0  0  0
  193.8190  175.8130  136.6820 C   0  0  0  0  0  2  0  0  0  0  0  0
  192.7900  176.4590  137.5610 C   0  0  0  0  0  3  0  0  0  0  0  0
  192.3510  173.7010  136.8260 C   0  0  0  0  0  2  0  0  0  0  0  0
  1 12  1  0  0  0  0
  1 10  2  0  0  0  0
  2  8  2  0  0  0  0
  2  6  1  0  0  0  0
  3 11  1  0  0  0  0
  3  8  1  0  0  0  0
  4 14  2  0  0  0  0
  4 17  1  0  0  0  0
  5 10  1  0  0  0  0
  6  5  2  0  0  0  0
  7 17  1  0  0  0  0
  8  1  1  0  0  0  0
  9 16  1  0  0  0  0
  9  4  1  0  0  0  0
 11 18  1  0  0  0  0
 13  2  1  0  0  0  0
 14 15  1  0  0  0  0
 15 21  1  0  0  0  0
 15 11  2  0  0  0  0
 16 26  1  6  0  0  0
 16  7  1  0  0  0  0
 17  3  2  0  0  0  0
 18 12  2  0  0  0  0
 19 20  1  0  0  0  0
 20 22  2  0  0  0  0
 21 24  2  0  0  0  0
 23 19  2  0  0  0  0
 23 21  1  0  0  0  0
 24 22  1  0  0  0  0
 25 19  1  0  0  0  0
 27 26  1  0  0  0  0
 29 27  1  0  0  0  0
 30 34  1  0  0  0  0
 30 28  1  1  0  0  0
 30 29  1  0  0  0  0
 32 31  1  0  0  0  0
 32 33  1  0  0  0  0
 33 29  2  0  0  0  0
 34 31  1  0  0  0  0
M  END
>  <MODEL>
2

>  <REMARK>
 VINA RESULT:     -10.9      1.190      2.110
  Name = 
  4 active torsions:
  status: ('A' for Active; 'I' for Inactive)
    1  A    between atoms: C_3  and  C_13
    2  A    between atoms: C_3  and  C_17
    3  A    between atoms: C_12  and  C_28
    4  A    between atoms: C_17  and  C_29
                            x       y       z     vdW  Elec       q    Type
                         _______ _______ _______ _____ _____    ______ ____

>  <TORSDO>
F 4

$$$$
=
 OpenBabel10252414503D

 34 39  0  0  1  0  0  0  0  0999 V2000
  187.2350  178.2150  138.6070 C   0  0  0  0  0  0  0  0  0  0  0  0
  186.8060  178.3680  140.9830 C   0  0  0  0  0  0  0  0  0  0  0  0
  189.0970  177.7290  140.1300 C   0  0  0  0  0  0  0  0  0  0  0  0
  191.0950  177.4290  141.4590 C   0  0  0  0  0  0  0  0  0  0  0  0
  185.1300  179.0020  139.3710 C   0  0  0  0  0  3  0  0  0  0  0  0
  185.5220  178.8290  140.6930 C   0  0  0  0  0  3  0  0  0  0  0  0
  189.4460  178.6340  142.4750 N   0  0  0  0  0  2  0  0  0  0  0  0
  187.7330  178.1220  139.9370 C   0  0  0  0  0  0  0  0  0  0  0  0
  191.6820  177.7850  142.7720 C   0  0  0  0  0  2  0  0  0  0  0  0
  185.9790  178.6750  138.3660 N   0  0  0  0  0  0  0  0  0  0  0  0
  189.8390  177.2190  139.0160 C   0  0  0  0  0  0  0  0  0  0  0  0
  188.0090  177.7990  137.5300 C   0  0  0  0  0  3  0  0  0  0  0  0
  187.0480  178.0260  142.2700 F   0  0  0  0  0  0  0  0  0  0  0  0
  191.7600  176.8690  140.4250 N   0  0  0  0  0  0  0  0  0  0  0  0
  191.1680  176.7320  139.2040 C   0  0  0  0  0  0  0  0  0  0  0  0
  190.5550  178.6060  143.4280 C   0  0  2  0  0  3  0  0  0  0  0  0
  189.8110  177.8740  141.3390 C   0  0  0  0  0  0  0  0  0  0  0  0
  189.2810  177.2860  137.7350 C   0  0  0  0  0  3  0  0  0  0  0  0
  193.7910  176.1520  136.5120 C   0  0  0  0  0  0  0  0  0  0  0  0
  193.3760  174.9100  136.0320 C   0  0  0  0  0  3  0  0  0  0  0  0
  191.9730  176.1080  138.1190 C   0  0  0  0  0  0  0  0  0  0  0  0
  192.2910  174.2990  136.5750 N   0  0  0  0  0  0  0  0  0  0  0  0
  193.0830  176.7530  137.5540 C   0  0  0  0  0  3  0  0  0  0  0  0
  191.5880  174.8670  137.5910 C   0  0  0  0  0  3  0  0  0  0  0  0
  194.8940  176.7860  135.9590 O   0  0  0  0  0  1  0  0  0  0  0  0
  190.1150  177.9980  144.7590 C   0  0  0  0  0  2  0  0  0  0  0  0
  188.7050  177.4200  144.6940 C   0  0  0  0  0  2  0  0  0  0  0  0
  185.8640  178.0820  144.9020 C   0  0  0  0  0  1  0  0  0  0  0  0
  188.0480  177.4810  146.0400 C   0  0  0  0  0  0  0  0  0  0  0  0
  186.5580  177.7070  146.2000 C   0  0  1  0  0  3  0  0  0  0  0  0
  187.1800  178.6910  148.5110 C   0  0  0  0  0  2  0  0  0  0  0  0
  188.1470  177.5010  148.4900 C   0  0  0  0  0  2  0  0  0  0  0  0
  188.8010  177.3960  147.1450 C   0  0  0  0  0  3  0  0  0  0  0  0
  186.2630  178.7670  147.2720 C   0  0  0  0  0  2  0  0  0  0  0  0
  1  8  1  0  0  0  0
  2 13  1  0  0  0  0
  3 17  1  0  0  0  0
  4  9  1  0  0  0  0
  5  6  2  0  0  0  0
  6  2  1  0  0  0  0
  7 16  1  0  0  0  0
  8  3  1  0  0  0  0
  8  2  2  0  0  0  0
  9 16  1  0  0  0  0
 10  1  2  0  0  0  0
 10  5  1  0  0  0  0
 11 15  1  0  0  0  0
 11  3  2  0  0  0  0
 12 18  2  0  0  0  0
 12  1  1  0  0  0  0
 14  4  1  0  0  0  0
 15 14  2  0  0  0  0
 16 26  1  1  0  0  0
 17  4  2  0  0  0  0
 17  7  1  0  0  0  0
 18 11  1  0  0  0  0
 19 23  1  0  0  0  0
 20 19  2  0  0  0  0
 20 22  1  0  0  0  0
 21 15  1  0  0  0  0
 22 24  2  0  0  0  0
 23 21  2  0  0  0  0
 24 21  1  0  0  0  0
 25 19  1  0  0  0  0
 27 26  1  0  0  0  0
 27 29  1  0  0  0  0
 29 30  1  0  0  0  0
 29 33  2  0  0  0  0
 30 28  1  6  0  0  0
 30 34  1  0  0  0  0
 32 31  1  0  0  0  0
 33 32  1  0  0  0  0
 34 31  1  0  0  0  0
M  END
>  <MODEL>
3

>  <REMARK>
 VINA RESULT:     -10.7      3.499      8.868
  Name = 
  4 active torsions:
  status: ('A' for Active; 'I' for Inactive)
    1  A    between atoms: C_3  and  C_13
    2  A    between atoms: C_3  and  C_17
    3  A    between atoms: C_12  and  C_28
    4  A    between atoms: C_17  and  C_29
                            x       y       z     vdW  Elec       q    Type
                         _______ _______ _______ _____ _____    ______ ____

>  <TORSDO>
F 4

$$$$
=
 OpenBabel10252414503D

 34 39  0  0  1  0  0  0  0  0999 V2000
  186.8630  178.2530  138.4520 C   0  0  0  0  0  0  0  0  0  0  0  0
  186.5520  178.4100  140.8460 C   0  0  0  0  0  0  0  0  0  0  0  0
  188.7450  177.6020  139.8840 C   0  0  0  0  0  0  0  0  0  0  0  0
  190.7700  177.1280  141.1190 C   0  0  0  0  0  0  0  0  0  0  0  0
  184.8630  179.1940  139.3160 C   0  0  0  0  0  3  0  0  0  0  0  0
  185.2970  178.9740  140.6180 C   0  0  0  0  0  3  0  0  0  0  0  0
  189.2680  178.4470  142.2190 N   0  0  0  0  0  2  0  0  0  0  0  0
  187.4090  178.1040  139.7560 C   0  0  0  0  0  0  0  0  0  0  0  0
  191.4400  177.4190  142.4080 C   0  0  0  0  0  2  0  0  0  0  0  0
  185.6380  178.8140  138.2720 N   0  0  0  0  0  0  0  0  0  0  0  0
  189.3940  177.0490  138.7330 C   0  0  0  0  0  0  0  0  0  0  0  0
  187.5520  177.7910  137.3370 C   0  0  0  0  0  3  0  0  0  0  0  0
  186.8230  178.0330  142.1170 F   0  0  0  0  0  0  0  0  0  0  0  0
  191.3410  176.5300  140.0510 N   0  0  0  0  0  0  0  0  0  0  0  0
  190.6870  176.4550  138.8560 C   0  0  0  0  0  0  0  0  0  0  0  0
  190.4130  178.3180  143.1200 C   0  0  2  0  0  3  0  0  0  0  0  0
  189.5210  177.6740  141.0610 C   0  0  0  0  0  0  0  0  0  0  0  0
  188.7860  177.1760  137.4790 C   0  0  0  0  0  3  0  0  0  0  0  0
  191.6970  173.9150  136.2140 C   0  0  0  0  0  0  0  0  0  0  0  0
  192.8160  174.5530  135.6770 C   0  0  0  0  0  3  0  0  0  0  0  0
  191.3910  175.7840  137.7310 C   0  0  0  0  0  0  0  0  0  0  0  0
  193.2070  175.7600  136.1620 N   0  0  0  0  0  0  0  0  0  0  0  0
  190.9890  174.5310  137.2460 C   0  0  0  0  0  3  0  0  0  0  0  0
  192.5300  176.3780  137.1680 C   0  0  0  0  0  3  0  0  0  0  0  0
  191.2940  172.6790  135.7280 O   0  0  0  0  0  1  0  0  0  0  0  0
  189.9850  177.7310  144.4650 C   0  0  0  0  0  2  0  0  0  0  0  0
  188.4990  177.3860  144.5000 C   0  0  0  0  0  2  0  0  0  0  0  0
  185.7510  178.2530  144.9980 C   0  0  0  0  0  1  0  0  0  0  0  0
  187.9780  177.4470  145.9040 C   0  0  0  0  0  0  0  0  0  0  0  0
  186.5310  177.7790  146.2120 C   0  0  1  0  0  3  0  0  0  0  0  0
  187.4420  178.6280  148.4810 C   0  0  0  0  0  2  0  0  0  0  0  0
  188.3050  177.3700  148.3330 C   0  0  0  0  0  2  0  0  0  0  0  0
  188.8220  177.2650  146.9290 C   0  0  0  0  0  3  0  0  0  0  0  0
  186.4220  178.8190  147.3380 C   0  0  0  0  0  2  0  0  0  0  0  0
  1  8  1  0  0  0  0
  2 13  1  0  0  0  0
  3 17  1  0  0  0  0
  4  9  1  0  0  0  0
  5  6  2  0  0  0  0
  6  2  1  0  0  0  0
  7 16  1  0  0  0  0
  8  3  1  0  0  0  0
  8  2  2  0  0  0  0
  9 16  1  0  0  0  0
 10  1  2  0  0  0  0
 10  5  1  0  0  0  0
 11 15  1  0  0  0  0
 11  3  2  0  0  0  0
 12 18  2  0  0  0  0
 12  1  1  0  0  0  0
 14  4  1  0  0  0  0
 15 14  2  0  0  0  0
 16 26  1  1  0  0  0
 17  4  2  0  0  0  0
 17  7  1  0  0  0  0
 18 11  1  0  0  0  0
 19 23  1  0  0  0  0
 20 22  1  0  0  0  0
 20 19  2  0  0  0  0
 21 15  1  0  0  0  0
 22 24  2  0  0  0  0
 23 21  2  0  0  0  0
 24 21  1  0  0  0  0
 25 19  1  0  0  0  0
 26 27  1  0  0  0  0
 27 29  1  0  0  0  0
 29 30  1  0  0  0  0
 29 33  2  0  0  0  0
 30 28  1  6  0  0  0
 30 34  1  0  0  0  0
 32 31  1  0  0  0  0
 33 32  1  0  0  0  0
 34 31  1  0  0  0  0
M  END
>  <MODEL>
4

>  <REMARK>
 VINA RESULT:     -10.6      3.280      8.795
  Name = 
  4 active torsions:
  status: ('A' for Active; 'I' for Inactive)
    1  A    between atoms: C_3  and  C_13
    2  A    between atoms: C_3  and  C_17
    3  A    between atoms: C_12  and  C_28
    4  A    between atoms: C_17  and  C_29
                            x       y       z     vdW  Elec       q    Type
                         _______ _______ _______ _____ _____    ______ ____

>  <TORSDO>
F 4

$$$$
=
 OpenBabel10252414503D

 34 39  0  0  1  0  0  0  0  0999 V2000
  184.3760  178.6880  144.7300 C   0  0  0  0  0  0  0  0  0  0  0  0
  186.5470  177.6930  145.1170 C   0  0  0  0  0  0  0  0  0  0  0  0
  185.8230  178.3310  142.7810 C   0  0  0  0  0  0  0  0  0  0  0  0
  187.1830  178.2580  140.7830 C   0  0  0  0  0  0  0  0  0  0  0  0
  185.1000  178.2780  146.9530 C   0  0  0  0  0  3  0  0  0  0  0  0
  186.2910  177.7340  146.4860 C   0  0  0  0  0  3  0  0  0  0  0  0
  188.3600  178.2600  142.7370 N   0  0  0  0  0  2  0  0  0  0  0  0
  185.6190  178.2470  144.1970 C   0  0  0  0  0  0  0  0  0  0  0  0
  188.5970  178.2320  140.3390 C   0  0  0  0  0  2  0  0  0  0  0  0
  184.1680  178.7190  146.0720 N   0  0  0  0  0  0  0  0  0  0  0  0
  184.7070  178.6240  141.9330 C   0  0  0  0  0  0  0  0  0  0  0  0
  183.3340  179.0570  143.8880 C   0  0  0  0  0  3  0  0  0  0  0  0
  187.6210  176.9690  144.7240 F   0  0  0  0  0  0  0  0  0  0  0  0
  186.1110  178.4490  139.9840 N   0  0  0  0  0  0  0  0  0  0  0  0
  184.8650  178.6190  140.5130 C   0  0  0  0  0  0  0  0  0  0  0  0
  189.3640  178.2480  141.6750 C   0  0  2  0  0  3  0  0  0  0  0  0
  187.0770  178.2170  142.1420 C   0  0  0  0  0  0  0  0  0  0  0  0
  183.4900  179.0010  142.5110 C   0  0  0  0  0  3  0  0  0  0  0  0
  182.2010  180.2650  138.3570 C   0  0  0  0  0  0  0  0  0  0  0  0
  181.5710  179.1320  137.8410 C   0  0  0  0  0  3  0  0  0  0  0  0
  183.7400  178.8280  139.5620 C   0  0  0  0  0  0  0  0  0  0  0  0
  182.0100  177.8940  138.1870 N   0  0  0  0  0  0  0  0  0  0  0  0
  183.2840  180.1090  139.2230 C   0  0  0  0  0  3  0  0  0  0  0  0
  183.0640  177.7210  139.0290 C   0  0  0  0  0  3  0  0  0  0  0  0
  181.7550  181.5330  138.0140 O   0  0  0  0  0  1  0  0  0  0  0  0
  190.2860  177.0360  141.8100 C   0  0  0  0  0  2  0  0  0  0  0  0
  191.4990  177.3260  142.6900 C   0  0  0  0  0  2  0  0  0  0  0  0
  190.4060  178.4730  145.1490 C   0  0  0  0  0  1  0  0  0  0  0  0
  191.4500  176.5020  143.9410 C   0  0  0  0  0  0  0  0  0  0  0  0
  190.7920  177.0050  145.2110 C   0  0  1  0  0  3  0  0  0  0  0  0
  192.4170  175.3980  146.4240 C   0  0  0  0  0  2  0  0  0  0  0  0
  192.0430  174.5060  145.2350 C   0  0  0  0  0  2  0  0  0  0  0  0
  192.0570  175.3080  143.9690 C   0  0  0  0  0  3  0  0  0  0  0  0
  191.6800  176.7530  146.4400 C   0  0  0  0  0  2  0  0  0  0  0  0
  1 10  2  0  0  0  0
  2  6  1  0  0  0  0
  3  8  1  0  0  0  0
  4 17  2  0  0  0  0
  6  5  2  0  0  0  0
  8  1  1  0  0  0  0
  8  2  2  0  0  0  0
  9  4  1  0  0  0  0
  9 16  1  0  0  0  0
 10  5  1  0  0  0  0
 11 18  1  0  0  0  0
 11  3  2  0  0  0  0
 12  1  1  0  0  0  0
 13  2  1  0  0  0  0
 14 15  2  0  0  0  0
 14  4  1  0  0  0  0
 15 11  1  0  0  0  0
 16 26  1  1  0  0  0
 16  7  1  0  0  0  0
 17  7  1  0  0  0  0
 17  3  1  0  0  0  0
 18 12  2  0  0  0  0
 19 23  1  0  0  0  0
 20 22  1  0  0  0  0
 20 19  2  0  0  0  0
 21 15  1  0  0  0  0
 22 24  2  0  0  0  0
 23 21  2  0  0  0  0
 24 21  1  0  0  0  0
 25 19  1  0  0  0  0
 26 27  1  0  0  0  0
 27 29  1  0  0  0  0
 29 33  2  0  0  0  0
 29 30  1  0  0  0  0
 30 28  1  6  0  0  0
 30 34  1  0  0  0  0
 31 34  1  0  0  0  0
 32 31  1  0  0  0  0
 33 32  1  0  0  0  0
M  END
>  <MODEL>
5

>  <REMARK>
 VINA RESULT:     -10.6      2.704      5.822
  Name = 
  4 active torsions:
  status: ('A' for Active; 'I' for Inactive)
    1  A    between atoms: C_3  and  C_13
    2  A    between atoms: C_3  and  C_17
    3  A    between atoms: C_12  and  C_28
    4  A    between atoms: C_17  and  C_29
                            x       y       z     vdW  Elec       q    Type
                         _______ _______ _______ _____ _____    ______ ____

>  <TORSDO>
F 4

$$$$
=
 OpenBabel10252414503D

 34 39  0  0  1  0  0  0  0  0999 V2000
  186.4720  178.2100  146.4870 C   0  0  0  0  0  0  0  0  0  0  0  0
  188.4900  177.3250  145.4890 C   0  0  0  0  0  0  0  0  0  0  0  0
  186.5550  178.0610  144.0400 C   0  0  0  0  0  0  0  0  0  0  0  0
  186.5340  178.1920  141.6250 C   0  0  0  0  0  0  0  0  0  0  0  0
  188.3390  177.7080  147.8630 C   0  0  0  0  0  3  0  0  0  0  0  0
  189.0600  177.2670  146.7600 C   0  0  0  0  0  3  0  0  0  0  0  0
  188.6150  178.1450  142.5590 N   0  0  0  0  0  2  0  0  0  0  0  0
  187.1950  177.8780  145.3080 C   0  0  0  0  0  0  0  0  0  0  0  0
  187.4430  178.2780  140.4580 C   0  0  0  0  0  2  0  0  0  0  0  0
  187.0660  178.1460  147.7070 N   0  0  0  0  0  0  0  0  0  0  0  0
  185.1500  178.3380  144.0020 C   0  0  0  0  0  0  0  0  0  0  0  0
  185.1310  178.5670  146.4190 C   0  0  0  0  0  3  0  0  0  0  0  0
  189.1590  176.6920  144.4970 F   0  0  0  0  0  0  0  0  0  0  0  0
  185.1950  178.3670  141.5950 N   0  0  0  0  0  0  0  0  0  0  0  0
  184.4710  178.4290  142.7490 C   0  0  0  0  0  0  0  0  0  0  0  0
  188.8350  178.2580  141.1180 C   0  0  2  0  0  3  0  0  0  0  0  0
  187.2220  178.0610  142.7950 C   0  0  0  0  0  0  0  0  0  0  0  0
  184.4750  178.6050  145.1980 C   0  0  0  0  0  3  0  0  0  0  0  0
  180.7920  178.8820  143.5940 C   0  0  0  0  0  0  0  0  0  0  0  0
  180.2490  178.9130  142.3100 C   0  0  0  0  0  3  0  0  0  0  0  0
  183.0020  178.6280  142.6260 C   0  0  0  0  0  0  0  0  0  0  0  0
  181.0590  178.7960  141.2260 N   0  0  0  0  0  0  0  0  0  0  0  0
  182.1700  178.7330  143.7500 C   0  0  0  0  0  3  0  0  0  0  0  0
  182.4060  178.6500  141.3560 C   0  0  0  0  0  3  0  0  0  0  0  0
  179.9700  178.9950  144.7070 O   0  0  0  0  0  1  0  0  0  0  0  0
  189.6860  177.0980  140.6040 C   0  0  0  0  0  2  0  0  0  0  0  0
  190.5650  177.5030  139.4240 C   0  0  0  0  0  2  0  0  0  0  0  0
  189.0560  179.0120  137.4250 C   0  0  0  0  0  1  0  0  0  0  0  0
  190.1040  176.8260  138.1680 C   0  0  0  0  0  0  0  0  0  0  0  0
  189.4190  177.5860  137.0490 C   0  0  1  0  0  3  0  0  0  0  0  0
  188.3260  175.3120  136.4760 C   0  0  0  0  0  2  0  0  0  0  0  0
  189.7400  174.8200  136.8070 C   0  0  0  0  0  2  0  0  0  0  0  0
  190.2410  175.4990  138.0460 C   0  0  0  0  0  3  0  0  0  0  0  0
  188.1680  176.8440  136.5520 C   0  0  0  0  0  2  0  0  0  0  0  0
  1 10  2  0  0  0  0
  2  6  1  0  0  0  0
  3  8  1  0  0  0  0
  4 17  1  0  0  0  0
  6  5  2  0  0  0  0
  7 17  1  0  0  0  0
  8  2  2  0  0  0  0
  8  1  1  0  0  0  0
  9 16  1  0  0  0  0
  9  4  1  0  0  0  0
 10  5  1  0  0  0  0
 11  3  1  0  0  0  0
 11 18  1  0  0  0  0
 12  1  1  0  0  0  0
 13  2  1  0  0  0  0
 14  4  2  0  0  0  0
 14 15  1  0  0  0  0
 15 11  2  0  0  0  0
 16 26  1  6  0  0  0
 16  7  1  0  0  0  0
 17  3  2  0  0  0  0
 18 12  2  0  0  0  0
 19 23  1  0  0  0  0
 19 25  1  0  0  0  0
 20 19  2  0  0  0  0
 21 15  1  0  0  0  0
 21 23  2  0  0  0  0
 22 24  2  0  0  0  0
 22 20  1  0  0  0  0
 24 21  1  0  0  0  0
 27 26  1  0  0  0  0
 29 27  1  0  0  0  0
 30 28  1  1  0  0  0
 30 29  1  0  0  0  0
 31 34  1  0  0  0  0
 31 32  1  0  0  0  0
 32 33  1  0  0  0  0
 33 29  2  0  0  0  0
 34 30  1  0  0  0  0
M  END
>  <MODEL>
6

>  <REMARK>
 VINA RESULT:     -10.5      1.743      2.558
  Name = 
  4 active torsions:
  status: ('A' for Active; 'I' for Inactive)
    1  A    between atoms: C_3  and  C_13
    2  A    between atoms: C_3  and  C_17
    3  A    between atoms: C_12  and  C_28
    4  A    between atoms: C_17  and  C_29
                            x       y       z     vdW  Elec       q    Type
                         _______ _______ _______ _____ _____    ______ ____

>  <TORSDO>
F 4

$$$$
=
 OpenBabel10252414503D

 34 39  0  0  1  0  0  0  0  0999 V2000
  186.1770  178.3920  139.3990 C   0  0  0  0  0  0  0  0  0  0  0  0
  188.1470  178.4780  140.8000 C   0  0  0  0  0  0  0  0  0  0  0  0
  185.8440  178.3360  141.8290 C   0  0  0  0  0  0  0  0  0  0  0  0
  185.3310  178.0520  144.1760 C   0  0  0  0  0  0  0  0  0  0  0  0
  188.3300  178.3330  138.4010 C   0  0  0  0  0  3  0  0  0  0  0  0
  188.9330  178.4290  139.6500 C   0  0  0  0  0  3  0  0  0  0  0  0
  187.4550  177.4630  143.5860 N   0  0  0  0  0  2  0  0  0  0  0  0
  186.7340  178.3800  140.7080 C   0  0  0  0  0  0  0  0  0  0  0  0
  185.9300  177.5850  145.4480 C   0  0  0  0  0  2  0  0  0  0  0  0
  186.9780  178.3380  138.3030 N   0  0  0  0  0  0  0  0  0  0  0  0
  184.4430  178.5440  141.6150 C   0  0  0  0  0  0  0  0  0  0  0  0
  184.8040  178.5020  139.2140 C   0  0  0  0  0  3  0  0  0  0  0  0
  188.7850  178.7800  141.9550 F   0  0  0  0  0  0  0  0  0  0  0  0
  184.0250  178.3340  143.9770 N   0  0  0  0  0  0  0  0  0  0  0  0
  183.5480  178.5990  142.7270 C   0  0  0  0  0  0  0  0  0  0  0  0
  187.3530  177.1830  145.0170 C   0  0  2  0  0  3  0  0  0  0  0  0
  186.2310  178.0250  143.1510 C   0  0  0  0  0  0  0  0  0  0  0  0
  183.9540  178.6020  140.3050 C   0  0  0  0  0  3  0  0  0  0  0  0
  179.8280  178.8870  143.4580 C   0  0  0  0  0  0  0  0  0  0  0  0
  179.3800  179.4010  142.2410 C   0  0  0  0  0  3  0  0  0  0  0  0
  182.0960  178.8970  142.5960 C   0  0  0  0  0  0  0  0  0  0  0  0
  180.2640  179.6440  141.2390 N   0  0  0  0  0  0  0  0  0  0  0  0
  181.1880  178.6290  143.6310 C   0  0  0  0  0  3  0  0  0  0  0  0
  181.5950  179.4000  141.3870 C   0  0  0  0  0  3  0  0  0  0  0  0
  178.9310  178.6300  144.4840 O   0  0  0  0  0  1  0  0  0  0  0  0
  188.4180  177.9520  145.8000 C   0  0  0  0  0  2  0  0  0  0  0  0
  189.6360  178.2880  144.9450 C   0  0  0  0  0  2  0  0  0  0  0  0
  191.1990  177.1050  142.7740 C   0  0  0  0  0  1  0  0  0  0  0  0
  190.7720  177.3640  145.2610 C   0  0  0  0  0  0  0  0  0  0  0  0
  191.6860  176.8130  144.1830 C   0  0  1  0  0  3  0  0  0  0  0  0
  192.0590  174.8430  145.8200 C   0  0  0  0  0  2  0  0  0  0  0  0
  192.0710  175.9970  146.8290 C   0  0  0  0  0  2  0  0  0  0  0  0
  190.9590  176.9560  146.5230 C   0  0  0  0  0  3  0  0  0  0  0  0
  191.9070  175.3020  144.3540 C   0  0  0  0  0  2  0  0  0  0  0  0
  1  8  1  0  0  0  0
  2 13  1  0  0  0  0
  3 17  1  0  0  0  0
  4  9  1  0  0  0  0
  5  6  1  0  0  0  0
  6  2  2  0  0  0  0
  7 16  1  0  0  0  0
  8  2  1  0  0  0  0
  8  3  2  0  0  0  0
 10  5  2  0  0  0  0
 10  1  1  0  0  0  0
 11  3  1  0  0  0  0
 11 15  1  0  0  0  0
 12  1  2  0  0  0  0
 12 18  1  0  0  0  0
 14  4  1  0  0  0  0
 15 14  2  0  0  0  0
 16  9  1  0  0  0  0
 16 26  1  1  0  0  0
 17  7  1  0  0  0  0
 17  4  2  0  0  0  0
 18 11  2  0  0  0  0
 19 23  1  0  0  0  0
 19 25  1  0  0  0  0
 20 19  2  0  0  0  0
 21 15  1  0  0  0  0
 21 23  2  0  0  0  0
 22 24  2  0  0  0  0
 22 20  1  0  0  0  0
 24 21  1  0  0  0  0
 27 29  1  0  0  0  0
 27 26  1  0  0  0  0
 29 33  2  0  0  0  0
 30 28  1  6  0  0  0
 30 34  1  0  0  0  0
 30 29  1  0  0  0  0
 31 32  1  0  0  0  0
 33 32  1  0  0  0  0
 34 31  1  0  0  0  0
M  END
>  <MODEL>
7

>  <REMARK>
 VINA RESULT:     -10.3      2.307      6.445
  Name = 
  4 active torsions:
  status: ('A' for Active; 'I' for Inactive)
    1  A    between atoms: C_3  and  C_13
    2  A    between atoms: C_3  and  C_17
    3  A    between atoms: C_12  and  C_28
    4  A    between atoms: C_17  and  C_29
                            x       y       z     vdW  Elec       q    Type
                         _______ _______ _______ _____ _____    ______ ____

>  <TORSDO>
F 4

$$$$
=
 OpenBabel10252414503D

 34 39  0  0  1  0  0  0  0  0999 V2000
  185.4460  178.0630  143.4600 C   0  0  0  0  0  0  0  0  0  0  0  0
  185.7300  178.7610  141.1620 C   0  0  0  0  0  0  0  0  0  0  0  0
  187.6810  177.8380  142.4750 C   0  0  0  0  0  0  0  0  0  0  0  0
  189.8870  177.3420  141.6170 C   0  0  0  0  0  0  0  0  0  0  0  0
  183.5550  178.7450  142.1990 C   0  0  0  0  0  3  0  0  0  0  0  0
  184.3580  179.0040  141.0950 C   0  0  0  0  0  3  0  0  0  0  0  0
  188.2600  177.5040  140.0270 N   0  0  0  0  0  2  0  0  0  0  0  0
  186.3030  178.2030  142.3340 C   0  0  0  0  0  0  0  0  0  0  0  0
  190.6080  177.0670  140.3510 C   0  0  0  0  0  2  0  0  0  0  0  0
  184.1130  178.3050  143.3530 N   0  0  0  0  0  0  0  0  0  0  0  0
  188.2020  177.5760  143.7830 C   0  0  0  0  0  0  0  0  0  0  0  0
  185.9600  177.7170  144.7040 C   0  0  0  0  0  3  0  0  0  0  0  0
  186.4770  179.2270  140.1340 F   0  0  0  0  0  0  0  0  0  0  0  0
  190.3900  177.1800  142.8600 N   0  0  0  0  0  0  0  0  0  0  0  0
  189.5930  177.3040  143.9600 C   0  0  0  0  0  0  0  0  0  0  0  0
  189.4850  177.1700  139.3010 C   0  0  2  0  0  3  0  0  0  0  0  0
  188.5750  177.6400  141.4000 C   0  0  0  0  0  0  0  0  0  0  0  0
  187.3200  177.5020  144.8670 C   0  0  0  0  0  3  0  0  0  0  0  0
  190.3220  177.4740  147.6880 C   0  0  0  0  0  0  0  0  0  0  0  0
  191.5230  176.7660  147.7340 C   0  0  0  0  0  3  0  0  0  0  0  0
  190.2270  177.1070  145.2910 C   0  0  0  0  0  0  0  0  0  0  0  0
  192.0560  176.2580  146.5920 N   0  0  0  0  0  0  0  0  0  0  0  0
  189.6780  177.6480  146.4620 C   0  0  0  0  0  3  0  0  0  0  0  0
  191.4440  176.4160  145.3870 C   0  0  0  0  0  3  0  0  0  0  0  0
  189.7730  178.0010  148.8480 O   0  0  0  0  0  1  0  0  0  0  0  0
  189.7970  178.2270  138.2430 C   0  0  0  0  0  2  0  0  0  0  0  0
  188.5500  178.6810  137.4900 C   0  0  0  0  0  2  0  0  0  0  0  0
  185.8400  177.5880  137.3580 C   0  0  0  0  0  1  0  0  0  0  0  0
  188.1940  177.6940  136.4200 C   0  0  0  0  0  0  0  0  0  0  0  0
  186.7780  177.1830  136.2340 C   0  0  1  0  0  3  0  0  0  0  0  0
  187.9060  175.0950  135.2040 C   0  0  0  0  0  2  0  0  0  0  0  0
  188.8050  176.1760  134.5940 C   0  0  0  0  0  2  0  0  0  0  0  0
  189.1590  177.1950  135.6360 C   0  0  0  0  0  3  0  0  0  0  0  0
  186.7520  175.6560  136.0600 C   0  0  0  0  0  2  0  0  0  0  0  0
  1 12  1  0  0  0  0
  2  8  1  0  0  0  0
  3 11  1  0  0  0  0
  4 14  2  0  0  0  0
  5 10  2  0  0  0  0
  6  2  2  0  0  0  0
  6  5  1  0  0  0  0
  7 17  1  0  0  0  0
  8  3  1  0  0  0  0
  8  1  2  0  0  0  0
  9  4  1  0  0  0  0
 10  1  1  0  0  0  0
 11 15  2  0  0  0  0
 11 18  1  0  0  0  0
 12 18  2  0  0  0  0
 13  2  1  0  0  0  0
 14 15  1  0  0  0  0
 15 21  1  0  0  0  0
 16 26  1  6  0  0  0
 16  7  1  0  0  0  0
 16  9  1  0  0  0  0
 17  4  1  0  0  0  0
 17  3  2  0  0  0  0
 19 20  1  0  0  0  0
 19 25  1  0  0  0  0
 21 24  2  0  0  0  0
 21 23  1  0  0  0  0
 22 20  2  0  0  0  0
 23 19  2  0  0  0  0
 24 22  1  0  0  0  0
 27 26  1  0  0  0  0
 29 27  1  0  0  0  0
 30 29  1  0  0  0  0
 30 28  1  1  0  0  0
 31 34  1  0  0  0  0
 32 31  1  0  0  0  0
 32 33  1  0  0  0  0
 33 29  2  0  0  0  0
 34 30  1  0  0  0  0
M  END
>  <MODEL>
8

>  <REMARK>
 VINA RESULT:     -10.1      2.518      5.394
  Name = 
  4 active torsions:
  status: ('A' for Active; 'I' for Inactive)
    1  A    between atoms: C_3  and  C_13
    2  A    between atoms: C_3  and  C_17
    3  A    between atoms: C_12  and  C_28
    4  A    between atoms: C_17  and  C_29
                            x       y       z     vdW  Elec       q    Type
                         _______ _______ _______ _____ _____    ______ ____

>  <TORSDO>
F 4

$$$$
=
 OpenBabel10252414503D

 34 39  0  0  1  0  0  0  0  0999 V2000
  191.1790  176.5570  145.3540 C   0  0  0  0  0  0  0  0  0  0  0  0
  189.3690  177.6660  146.5150 C   0  0  0  0  0  0  0  0  0  0  0  0
  189.2420  177.2630  144.0240 C   0  0  0  0  0  0  0  0  0  0  0  0
  187.3380  177.6870  142.5930 C   0  0  0  0  0  0  0  0  0  0  0  0
  191.2450  176.7490  147.7190 C   0  0  0  0  0  3  0  0  0  0  0  0
  190.0380  177.4380  147.7170 C   0  0  0  0  0  3  0  0  0  0  0  0
  186.8460  177.5390  144.8160 N   0  0  0  0  0  2  0  0  0  0  0  0
  189.8900  177.1560  145.2970 C   0  0  0  0  0  0  0  0  0  0  0  0
  185.8690  177.8780  142.6390 C   0  0  0  0  0  2  0  0  0  0  0  0
  191.7940  176.3460  146.5470 N   0  0  0  0  0  0  0  0  0  0  0  0
  189.9920  176.9880  142.8350 C   0  0  0  0  0  0  0  0  0  0  0  0
  191.8520  176.2120  144.1880 C   0  0  0  0  0  3  0  0  0  0  0  0
  188.3170  178.5160  146.5610 F   0  0  0  0  0  0  0  0  0  0  0  0
  188.0750  177.5100  141.4750 N   0  0  0  0  0  0  0  0  0  0  0  0
  189.3960  177.1790  141.5510 C   0  0  0  0  0  0  0  0  0  0  0  0
  185.5660  177.7600  144.1450 C   0  0  2  0  0  3  0  0  0  0  0  0
  187.8720  177.5530  143.8410 C   0  0  0  0  0  0  0  0  0  0  0  0
  191.2780  176.4480  142.9480 C   0  0  0  0  0  3  0  0  0  0  0  0
  192.1770  176.9890  138.9660 C   0  0  0  0  0  0  0  0  0  0  0  0
  191.4270  176.7330  137.8190 C   0  0  0  0  0  3  0  0  0  0  0  0
  190.1320  176.9990  140.2710 C   0  0  0  0  0  0  0  0  0  0  0  0
  190.0750  176.6240  137.9010 N   0  0  0  0  0  0  0  0  0  0  0  0
  191.5260  177.1280  140.1920 C   0  0  0  0  0  3  0  0  0  0  0  0
  189.4210  176.7550  139.0870 C   0  0  0  0  0  3  0  0  0  0  0  0
  193.5580  177.1080  138.8890 O   0  0  0  0  0  1  0  0  0  0  0  0
  184.8790  179.0150  144.6820 C   0  0  0  0  0  2  0  0  0  0  0  0
  184.0940  179.7530  143.6020 C   0  0  0  0  0  2  0  0  0  0  0  0
  183.3270  179.0580  140.8660 C   0  0  0  0  0  1  0  0  0  0  0  0
  182.7850  179.0700  143.3430 C   0  0  0  0  0  0  0  0  0  0  0  0
  182.3880  178.5860  141.9620 C   0  0  1  0  0  3  0  0  0  0  0  0
  179.9580  178.8820  142.8010 C   0  0  0  0  0  2  0  0  0  0  0  0
  180.5770  178.2890  144.0720 C   0  0  0  0  0  2  0  0  0  0  0  0
  181.9040  178.9330  144.3430 C   0  0  0  0  0  3  0  0  0  0  0  0
  180.9450  178.9890  141.6200 C   0  0  0  0  0  2  0  0  0  0  0  0
  1 10  2  0  0  0  0
  2 13  1  0  0  0  0
  2  6  1  0  0  0  0
  3  8  1  0  0  0  0
  4  9  1  0  0  0  0
  4 17  2  0  0  0  0
  6  5  2  0  0  0  0
  8  1  1  0  0  0  0
  8  2  2  0  0  0  0
  9 16  1  0  0  0  0
 10  5  1  0  0  0  0
 11 18  1  0  0  0  0
 11  3  2  0  0  0  0
 12  1  1  0  0  0  0
 14 15  2  0  0  0  0
 14  4  1  0  0  0  0
 15 11  1  0  0  0  0
 16 26  1  1  0  0  0
 16  7  1  0  0  0  0
 17  3  1  0  0  0  0
 17  7  1  0  0  0  0
 18 12  2  0  0  0  0
 19 23  1  0  0  0  0
 20 22  1  0  0  0  0
 20 19  2  0  0  0  0
 21 15  1  0  0  0  0
 22 24  2  0  0  0  0
 23 21  2  0  0  0  0
 24 21  1  0  0  0  0
 25 19  1  0  0  0  0
 27 26  1  0  0  0  0
 29 27  1  0  0  0  0
 29 33  2  0  0  0  0
 30 28  1  6  0  0  0
 30 29  1  0  0  0  0
 31 32  1  0  0  0  0
 32 33  1  0  0  0  0
 34 30  1  0  0  0  0
 34 31  1  0  0  0  0
M  END
>  <MODEL>
9

>  <REMARK>
 VINA RESULT:     -10.0      2.845      6.954
  Name = 
  4 active torsions:
  status: ('A' for Active; 'I' for Inactive)
    1  A    between atoms: C_3  and  C_13
    2  A    between atoms: C_3  and  C_17
    3  A    between atoms: C_12  and  C_28
    4  A    between atoms: C_17  and  C_29
                            x       y       z     vdW  Elec       q    Type
                         _______ _______ _______ _____ _____    ______ ____

>  <TORSDO>
F 4

$$$$
