=
 OpenBabel10262419473D

 25 29  0  0  1  0  0  0  0  0999 V2000
  188.6330  177.2230  143.7410 C   0  0  1  0  0  3  0  0  0  0  0  0
  190.8120  178.0180  143.1560 C   0  0  1  0  0  0  0  0  0  0  0  0
  189.8900  176.0520  141.8510 C   0  0  2  0  0  3  0  0  0  0  0  0
  190.1910  179.2680  143.6150 C   0  0  0  0  0  2  0  0  0  0  0  0
  191.5410  175.8910  143.8470 C   0  0  0  0  0  0  0  0  0  0  0  0
  192.2870  175.1560  144.5440 O   0  0  0  0  0  0  0  0  0  0  0  0
  190.4520  177.4810  141.7310 C   0  0  1  0  0  0  0  0  0  0  0  0
  188.9420  175.8780  143.0330 C   0  0  1  0  0  3  0  0  0  0  0  0
  191.8270  177.2620  143.7540 O   0  0  0  0  0  0  0  0  0  0  0  0
  190.3710  175.2480  143.0780 C   0  0  1  0  0  3  0  0  0  0  0  0
  189.7640  178.0020  144.2240 N   0  0  1  0  0  0  0  0  0  0  0  0
  189.4470  178.3430  140.9670 C   0  0  0  0  0  1  0  0  0  0  0  0
  191.7500  176.8770  139.5980 C   0  0  0  0  0  0  0  0  0  0  0  0
  190.7240  176.4300  139.0200 O   0  0  0  0  0  0  0  0  0  0  0  0
  193.0560  176.8630  138.8910 C   0  0  0  0  0  1  0  0  0  0  0  0
  191.6740  177.3990  140.9300 N   0  0  0  0  0  2  0  0  0  0  0  0
  187.3230  177.9270  143.5100 C   0  0  0  0  0  0  0  0  0  0  0  0
  187.0290  178.3190  142.3500 O   0  0  0  0  0  0  0  0  0  0  0  0
  186.3880  178.1590  144.6380 C   0  0  0  0  0  0  0  0  0  0  0  0
  184.6620  178.5940  146.8180 C   0  0  0  0  0  3  0  0  0  0  0  0
  185.0190  178.4360  144.4250 C   0  0  0  0  0  0  0  0  0  0  0  0
  184.1670  178.6500  145.5130 C   0  0  0  0  0  3  0  0  0  0  0  0
  186.0130  178.3230  147.0390 C   0  0  0  0  0  3  0  0  0  0  0  0
  184.4970  178.4960  143.1740 F   0  0  0  0  0  0  0  0  0  0  0  0
  186.8680  178.1070  145.9560 C   0  0  0  0  0  3  0  0  0  0  0  0
  1 17  1  6  0  0  0
  1 11  1  0  0  0  0
  2  4  1  6  0  0  0
  2  9  1  0  0  0  0
  2 11  1  0  0  0  0
  3  8  1  0  0  0  0
  3 10  1  0  0  0  0
  4 11  1  0  0  0  0
  5  6  2  0  0  0  0
  7  3  1  0  0  0  0
  7  2  1  0  0  0  0
  8 10  1  0  0  0  0
  8  1  1  0  0  0  0
  9  5  1  0  0  0  0
 10  5  1  0  0  0  0
 12  7  1  0  0  0  0
 13 16  1  0  0  0  0
 14 13  2  0  0  0  0
 15 13  1  0  0  0  0
 16  7  1  0  0  0  0
 17 19  1  0  0  0  0
 18 17  2  0  0  0  0
 19 25  1  0  0  0  0
 20 23  1  0  0  0  0
 21 19  2  0  0  0  0
 21 22  1  0  0  0  0
 22 20  2  0  0  0  0
 24 21  1  0  0  0  0
 25 23  2  0  0  0  0
M  END
>  <MODEL>
1

>  <REMARK>
 VINA RESULT:      -7.6      0.000      0.000
  Name = 
  3 active torsions:
  status: ('A' for Active; 'I' for Inactive)
    1  A    between atoms: C_1  and  C_3
    2  A    between atoms: C_1  and  C_5
    3  A    between atoms: C_15  and  N_21
                            x       y       z     vdW  Elec       q    Type
                         _______ _______ _______ _____ _____    ______ ____

>  <TORSDO>
F 3

$$$$
=
 OpenBabel10262419473D

 25 29  0  0  1  0  0  0  0  0999 V2000
  190.8530  177.1460  142.0850 C   0  0  1  0  0  3  0  0  0  0  0  0
  189.4660  176.5010  143.9250 C   0  0  1  0  0  0  0  0  0  0  0  0
  190.3460  178.8770  143.8940 C   0  0  2  0  0  3  0  0  0  0  0  0
  188.9110  175.6470  142.8660 C   0  0  0  0  0  2  0  0  0  0  0  0
  191.3780  176.9070  145.2340 C   0  0  0  0  0  0  0  0  0  0  0  0
  192.2250  176.5400  146.0880 O   0  0  0  0  0  0  0  0  0  0  0  0
  189.0710  178.0150  143.9520 C   0  0  1  0  0  0  0  0  0  0  0  0
  191.3880  178.3410  142.9180 C   0  0  1  0  0  3  0  0  0  0  0  0
  190.2160  176.1410  145.0500 O   0  0  0  0  0  0  0  0  0  0  0  0
  191.6230  178.2160  144.4570 C   0  0  1  0  0  3  0  0  0  0  0  0
  190.3360  175.9980  142.8170 N   0  0  1  0  0  0  0  0  0  0  0  0
  188.1350  178.4430  142.8220 C   0  0  0  0  0  1  0  0  0  0  0  0
  187.1050  177.8440  145.5970 C   0  0  0  0  0  0  0  0  0  0  0  0
  186.4250  177.1280  144.8150 O   0  0  0  0  0  0  0  0  0  0  0  0
  186.5510  178.2090  146.9260 C   0  0  0  0  0  1  0  0  0  0  0  0
  188.4060  178.3110  145.2230 N   0  0  0  0  0  2  0  0  0  0  0  0
  190.4240  177.3390  140.6560 C   0  0  0  0  0  0  0  0  0  0  0  0
  189.4080  178.0400  140.4050 O   0  0  0  0  0  0  0  0  0  0  0  0
  191.1880  176.7080  139.5520 C   0  0  0  0  0  0  0  0  0  0  0  0
  192.5840  175.4840  137.4370 C   0  0  0  0  0  3  0  0  0  0  0  0
  192.5620  176.9670  139.3550 C   0  0  0  0  0  0  0  0  0  0  0  0
  193.2490  176.3550  138.3020 C   0  0  0  0  0  3  0  0  0  0  0  0
  191.2260  175.2210  137.6230 C   0  0  0  0  0  3  0  0  0  0  0  0
  193.2480  177.8050  140.1730 F   0  0  0  0  0  0  0  0  0  0  0  0
  190.5340  175.8300  138.6730 C   0  0  0  0  0  3  0  0  0  0  0  0
  1 17  1  6  0  0  0
  1 11  1  0  0  0  0
  1  8  1  0  0  0  0
  2  4  1  1  0  0  0
  2  7  1  0  0  0  0
  2  9  1  0  0  0  0
  3  7  1  0  0  0  0
  3 10  1  0  0  0  0
  5  6  2  0  0  0  0
  7 16  1  0  0  0  0
  8  3  1  0  0  0  0
  8 10  1  0  0  0  0
  9  5  1  0  0  0  0
 10  5  1  0  0  0  0
 11  4  1  0  0  0  0
 11  2  1  0  0  0  0
 12  7  1  0  0  0  0
 13 15  1  0  0  0  0
 14 13  2  0  0  0  0
 16 13  1  0  0  0  0
 18 17  2  0  0  0  0
 19 17  1  0  0  0  0
 20 23  2  0  0  0  0
 20 22  1  0  0  0  0
 21 19  1  0  0  0  0
 21 24  1  0  0  0  0
 22 21  2  0  0  0  0
 23 25  1  0  0  0  0
 25 19  2  0  0  0  0
M  END
>  <MODEL>
2

>  <REMARK>
 VINA RESULT:      -7.2      2.481      6.610
  Name = 
  3 active torsions:
  status: ('A' for Active; 'I' for Inactive)
    1  A    between atoms: C_1  and  C_3
    2  A    between atoms: C_1  and  C_5
    3  A    between atoms: C_15  and  N_21
                            x       y       z     vdW  Elec       q    Type
                         _______ _______ _______ _____ _____    ______ ____

>  <TORSDO>
F 3

$$$$
=
 OpenBabel10262419473D

 25 29  0  0  1  0  0  0  0  0999 V2000
  190.8360  177.1050  142.1730 C   0  0  1  0  0  3  0  0  0  0  0  0
  189.4130  176.4500  143.9810 C   0  0  1  0  0  0  0  0  0  0  0  0
  190.3350  178.8100  144.0080 C   0  0  2  0  0  3  0  0  0  0  0  0
  188.8570  175.6270  142.8990 C   0  0  0  0  0  2  0  0  0  0  0  0
  191.3140  176.7970  145.3230 C   0  0  0  0  0  0  0  0  0  0  0  0
  192.1430  176.3980  146.1800 O   0  0  0  0  0  0  0  0  0  0  0  0
  189.0440  177.9700  144.0330 C   0  0  1  0  0  0  0  0  0  0  0  0
  191.3810  178.2730  143.0350 C   0  0  1  0  0  3  0  0  0  0  0  0
  190.1410  176.0550  145.1090 O   0  0  0  0  0  0  0  0  0  0  0  0
  191.5920  178.1150  144.5750 C   0  0  1  0  0  3  0  0  0  0  0  0
  190.2880  175.9520  142.8750 N   0  0  1  0  0  0  0  0  0  0  0  0
  188.1320  178.4370  142.8990 C   0  0  0  0  0  1  0  0  0  0  0  0
  187.0460  177.8220  145.6390 C   0  0  0  0  0  0  0  0  0  0  0  0
  186.3560  177.1500  144.8260 O   0  0  0  0  0  0  0  0  0  0  0  0
  186.4820  178.1700  146.9690 C   0  0  0  0  0  1  0  0  0  0  0  0
  188.3680  178.2540  145.2990 N   0  0  0  0  0  2  0  0  0  0  0  0
  190.4290  177.3320  140.7420 C   0  0  0  0  0  0  0  0  0  0  0  0
  189.3310  177.8950  140.4940 O   0  0  0  0  0  0  0  0  0  0  0  0
  191.3140  176.8970  139.6330 C   0  0  0  0  0  0  0  0  0  0  0  0
  193.0420  176.0920  137.5630 C   0  0  0  0  0  3  0  0  0  0  0  0
  190.8050  176.2500  138.4850 C   0  0  0  0  0  0  0  0  0  0  0  0
  191.6700  175.8540  137.4600 C   0  0  0  0  0  3  0  0  0  0  0  0
  193.5550  176.7290  138.6940 C   0  0  0  0  0  3  0  0  0  0  0  0
  189.4790  176.0020  138.3440 F   0  0  0  0  0  0  0  0  0  0  0  0
  192.6960  177.1280  139.7200 C   0  0  0  0  0  3  0  0  0  0  0  0
  1 17  1  6  0  0  0
  1 11  1  0  0  0  0
  1  8  1  0  0  0  0
  2  4  1  6  0  0  0
  2  7  1  0  0  0  0
  2  9  1  0  0  0  0
  3  7  1  0  0  0  0
  3 10  1  0  0  0  0
  5  6  2  0  0  0  0
  7 16  1  0  0  0  0
  8  3  1  0  0  0  0
  8 10  1  0  0  0  0
  9  5  1  0  0  0  0
 10  5  1  0  0  0  0
 11  4  1  0  0  0  0
 11  2  1  0  0  0  0
 12  7  1  0  0  0  0
 13 15  1  0  0  0  0
 14 13  2  0  0  0  0
 16 13  1  0  0  0  0
 18 17  2  0  0  0  0
 19 25  1  0  0  0  0
 19 17  1  0  0  0  0
 20 23  1  0  0  0  0
 21 19  2  0  0  0  0
 22 20  2  0  0  0  0
 22 21  1  0  0  0  0
 23 25  2  0  0  0  0
 24 21  1  0  0  0  0
M  END
>  <MODEL>
3

>  <REMARK>
 VINA RESULT:      -7.0      2.216      6.481
  Name = 
  3 active torsions:
  status: ('A' for Active; 'I' for Inactive)
    1  A    between atoms: C_1  and  C_3
    2  A    between atoms: C_1  and  C_5
    3  A    between atoms: C_15  and  N_21
                            x       y       z     vdW  Elec       q    Type
                         _______ _______ _______ _____ _____    ______ ____

>  <TORSDO>
F 3

$$$$
=
 OpenBabel10262419473D

 25 29  0  0  1  0  0  0  0  0999 V2000
  183.2220  178.1430  141.1770 C   0  0  1  0  0  3  0  0  0  0  0  0
  182.4470  177.7520  138.9480 C   0  0  1  0  0  0  0  0  0  0  0  0
  181.2050  179.4680  140.3390 C   0  0  2  0  0  3  0  0  0  0  0  0
  183.8800  177.4780  138.7780 C   0  0  0  0  0  2  0  0  0  0  0  0
  180.4770  177.0000  139.9920 C   0  0  0  0  0  0  0  0  0  0  0  0
  179.5910  176.1250  140.1710 O   0  0  0  0  0  0  0  0  0  0  0  0
  181.9710  179.2410  139.0210 C   0  0  1  0  0  0  0  0  0  0  0  0
  181.8520  178.7750  141.5340 C   0  0  1  0  0  3  0  0  0  0  0  0
  181.3660  176.8630  138.9140 O   0  0  0  0  0  0  0  0  0  0  0  0
  180.5210  178.2180  140.9350 C   0  0  1  0  0  3  0  0  0  0  0  0
  183.2550  177.1920  140.0750 N   0  0  1  0  0  0  0  0  0  0  0  0
  183.0970  180.2690  138.9230 C   0  0  0  0  0  1  0  0  0  0  0  0
  180.3140  180.7190  137.7300 C   0  0  0  0  0  0  0  0  0  0  0  0
  180.4480  181.6840  138.5280 O   0  0  0  0  0  0  0  0  0  0  0  0
  179.3990  180.8500  136.5670 C   0  0  0  0  0  1  0  0  0  0  0  0
  181.0330  179.4960  137.9270 N   0  0  0  0  0  2  0  0  0  0  0  0
  184.5060  178.8170  141.5790 C   0  0  0  0  0  0  0  0  0  0  0  0
  185.0930  179.5700  140.7580 O   0  0  0  0  0  0  0  0  0  0  0  0
  185.0760  178.5970  142.9310 C   0  0  0  0  0  0  0  0  0  0  0  0
  186.2040  178.1440  145.4700 C   0  0  0  0  0  3  0  0  0  0  0  0
  184.5380  179.2230  144.0780 C   0  0  0  0  0  0  0  0  0  0  0  0
  185.1030  178.9920  145.3360 C   0  0  0  0  0  3  0  0  0  0  0  0
  186.7450  177.5210  144.3430 C   0  0  0  0  0  3  0  0  0  0  0  0
  183.4670  180.0520  143.9920 F   0  0  0  0  0  0  0  0  0  0  0  0
  186.1840  177.7480  143.0840 C   0  0  0  0  0  3  0  0  0  0  0  0
  1  8  1  0  0  0  0
  1 17  1  6  0  0  0
  2  4  1  6  0  0  0
  2  7  1  0  0  0  0
  2 11  1  0  0  0  0
  3 10  1  0  0  0  0
  3  8  1  0  0  0  0
  4 11  1  0  0  0  0
  5  6  2  0  0  0  0
  5 10  1  0  0  0  0
  7  3  1  0  0  0  0
  9  2  1  0  0  0  0
  9  5  1  0  0  0  0
 10  8  1  0  0  0  0
 11  1  1  0  0  0  0
 12  7  1  0  0  0  0
 13 16  1  0  0  0  0
 13 14  2  0  0  0  0
 15 13  1  0  0  0  0
 16  7  1  0  0  0  0
 17 19  1  0  0  0  0
 18 17  2  0  0  0  0
 19 25  2  0  0  0  0
 19 21  1  0  0  0  0
 21 22  2  0  0  0  0
 22 20  1  0  0  0  0
 23 20  2  0  0  0  0
 24 21  1  0  0  0  0
 25 23  1  0  0  0  0
M  END
>  <MODEL>
4

>  <REMARK>
 VINA RESULT:      -6.9      5.812      8.403
  Name = 
  3 active torsions:
  status: ('A' for Active; 'I' for Inactive)
    1  A    between atoms: C_1  and  C_3
    2  A    between atoms: C_1  and  C_5
    3  A    between atoms: C_15  and  N_21
                            x       y       z     vdW  Elec       q    Type
                         _______ _______ _______ _____ _____    ______ ____

>  <TORSDO>
F 3

$$$$
=
 OpenBabel10262419473D

 25 29  0  0  1  0  0  0  0  0999 V2000
  188.3840  178.1680  142.9790 C   0  0  1  0  0  3  0  0  0  0  0  0
  189.6670  176.2220  143.5160 C   0  0  1  0  0  0  0  0  0  0  0  0
  190.3480  178.4110  144.5940 C   0  0  2  0  0  3  0  0  0  0  0  0
  188.3520  175.6110  143.2810 C   0  0  0  0  0  2  0  0  0  0  0  0
  191.4440  177.3680  142.4850 C   0  0  0  0  0  0  0  0  0  0  0  0
  192.3750  177.4250  141.6410 O   0  0  0  0  0  0  0  0  0  0  0  0
  189.9210  176.9570  144.8730 C   0  0  1  0  0  0  0  0  0  0  0  0
  189.5520  179.0630  143.4680 C   0  0  1  0  0  3  0  0  0  0  0  0
  190.8350  176.1310  142.7490 O   0  0  0  0  0  0  0  0  0  0  0  0
  191.0410  178.6520  143.2360 C   0  0  1  0  0  3  0  0  0  0  0  0
  188.7140  176.8210  142.5320 N   0  0  1  0  0  0  0  0  0  0  0  0
  188.7210  176.9690  145.8190 C   0  0  0  0  0  1  0  0  0  0  0  0
  191.3070  176.4210  146.9690 C   0  0  0  0  0  0  0  0  0  0  0  0
  190.5780  177.1290  147.7140 O   0  0  0  0  0  0  0  0  0  0  0  0
  192.4650  175.6950  147.5500 C   0  0  0  0  0  1  0  0  0  0  0  0
  191.0340  176.3060  145.5680 N   0  0  0  0  0  2  0  0  0  0  0  0
  186.9680  178.4580  143.3970 C   0  0  0  0  0  0  0  0  0  0  0  0
  186.7070  178.6280  144.6170 O   0  0  0  0  0  0  0  0  0  0  0  0
  185.8890  178.5420  142.3830 C   0  0  0  0  0  0  0  0  0  0  0  0
  183.8860  178.7160  140.4130 C   0  0  0  0  0  3  0  0  0  0  0  0
  184.5430  178.2530  142.7010 C   0  0  0  0  0  0  0  0  0  0  0  0
  183.5540  178.3420  141.7170 C   0  0  0  0  0  3  0  0  0  0  0  0
  185.2120  179.0030  140.0880 C   0  0  0  0  0  3  0  0  0  0  0  0
  184.1770  177.8890  143.9560 F   0  0  0  0  0  0  0  0  0  0  0  0
  186.2050  178.9160  141.0670 C   0  0  0  0  0  3  0  0  0  0  0  0
  1 17  1  1  0  0  0
  1  8  1  0  0  0  0
  2  4  1  1  0  0  0
  2  7  1  0  0  0  0
  3  7  1  0  0  0  0
  5  9  1  0  0  0  0
  5 10  1  0  0  0  0
  6  5  2  0  0  0  0
  7 16  1  0  0  0  0
  7 12  1  0  0  0  0
  8  3  1  0  0  0  0
  9  2  1  0  0  0  0
 10  8  1  0  0  0  0
 10  3  1  0  0  0  0
 11  1  1  0  0  0  0
 11  4  1  0  0  0  0
 11  2  1  0  0  0  0
 13 15  1  0  0  0  0
 13 14  2  0  0  0  0
 16 13  1  0  0  0  0
 17 18  2  0  0  0  0
 19 21  1  0  0  0  0
 19 17  1  0  0  0  0
 20 22  1  0  0  0  0
 21 24  1  0  0  0  0
 22 21  2  0  0  0  0
 23 20  2  0  0  0  0
 23 25  1  0  0  0  0
 25 19  2  0  0  0  0
M  END
>  <MODEL>
5

>  <REMARK>
 VINA RESULT:      -6.9      2.380      4.467
  Name = 
  3 active torsions:
  status: ('A' for Active; 'I' for Inactive)
    1  A    between atoms: C_1  and  C_3
    2  A    between atoms: C_1  and  C_5
    3  A    between atoms: C_15  and  N_21
                            x       y       z     vdW  Elec       q    Type
                         _______ _______ _______ _____ _____    ______ ____

>  <TORSDO>
F 3

$$$$
=
 OpenBabel10262419473D

 25 29  0  0  1  0  0  0  0  0999 V2000
  189.5560  177.7600  141.7260 C   0  0  1  0  0  3  0  0  0  0  0  0
  190.0850  178.0510  144.0410 C   0  0  1  0  0  0  0  0  0  0  0  0
  189.2220  175.7840  143.3100 C   0  0  2  0  0  3  0  0  0  0  0  0
  191.0510  178.9750  143.4330 C   0  0  0  0  0  2  0  0  0  0  0  0
  187.7930  177.6590  144.3960 C   0  0  0  0  0  0  0  0  0  0  0  0
  186.6810  177.9930  144.8810 O   0  0  0  0  0  0  0  0  0  0  0  0
  190.3870  176.5170  144.0020 C   0  0  1  0  0  0  0  0  0  0  0  0
  188.6900  176.5250  142.0880 C   0  0  1  0  0  3  0  0  0  0  0  0
  188.9500  178.3370  144.8100 O   0  0  0  0  0  0  0  0  0  0  0  0
  187.8480  176.4820  143.4030 C   0  0  1  0  0  3  0  0  0  0  0  0
  189.7630  178.7600  142.7640 N   0  0  1  0  0  0  0  0  0  0  0  0
  191.6910  176.1480  143.2940 C   0  0  0  0  0  1  0  0  0  0  0  0
  191.3620  176.4930  146.3790 C   0  0  0  0  0  0  0  0  0  0  0  0
  192.1820  177.4150  146.1250 O   0  0  0  0  0  0  0  0  0  0  0  0
  191.3250  175.8970  147.7390 C   0  0  0  0  0  1  0  0  0  0  0  0
  190.4620  176.0110  145.3740 N   0  0  0  0  0  2  0  0  0  0  0  0
  190.5280  177.7060  140.5790 C   0  0  0  0  0  0  0  0  0  0  0  0
  191.7650  177.6980  140.8170 O   0  0  0  0  0  0  0  0  0  0  0  0
  190.0360  177.6630  139.1800 C   0  0  0  0  0  0  0  0  0  0  0  0
  189.0730  177.6380  136.5360 C   0  0  0  0  0  3  0  0  0  0  0  0
  190.3820  176.6130  138.3010 C   0  0  0  0  0  0  0  0  0  0  0  0
  189.8990  176.6080  136.9880 C   0  0  0  0  0  3  0  0  0  0  0  0
  188.7250  178.6810  137.3970 C   0  0  0  0  0  3  0  0  0  0  0  0
  191.1800  175.5910  138.7000 F   0  0  0  0  0  0  0  0  0  0  0  0
  189.2040  178.6910  138.7090 C   0  0  0  0  0  3  0  0  0  0  0  0
  1 17  1  1  0  0  0
  1  8  1  0  0  0  0
  1 11  1  0  0  0  0
  2  4  1  1  0  0  0
  2  9  1  0  0  0  0
  3 10  1  0  0  0  0
  3  7  1  0  0  0  0
  5  9  1  0  0  0  0
  5  6  2  0  0  0  0
  7  2  1  0  0  0  0
  7 16  1  0  0  0  0
  8  3  1  0  0  0  0
  8 10  1  0  0  0  0
 10  5  1  0  0  0  0
 11  4  1  0  0  0  0
 11  2  1  0  0  0  0
 12  7  1  0  0  0  0
 13 15  1  0  0  0  0
 14 13  2  0  0  0  0
 16 13  1  0  0  0  0
 17 18  2  0  0  0  0
 19 17  1  0  0  0  0
 20 22  2  0  0  0  0
 20 23  1  0  0  0  0
 21 24  1  0  0  0  0
 21 19  2  0  0  0  0
 22 21  1  0  0  0  0
 23 25  2  0  0  0  0
 25 19  1  0  0  0  0
M  END
>  <MODEL>
6

>  <REMARK>
 VINA RESULT:      -6.9      2.797      6.135
  Name = 
  3 active torsions:
  status: ('A' for Active; 'I' for Inactive)
    1  A    between atoms: C_1  and  C_3
    2  A    between atoms: C_1  and  C_5
    3  A    between atoms: C_15  and  N_21
                            x       y       z     vdW  Elec       q    Type
                         _______ _______ _______ _____ _____    ______ ____

>  <TORSDO>
F 3

$$$$
=
 OpenBabel10262419473D

 25 29  0  0  1  0  0  0  0  0999 V2000
  188.7520  177.6690  144.2690 C   0  0  1  0  0  3  0  0  0  0  0  0
  190.1080  178.4550  142.4620 C   0  0  1  0  0  0  0  0  0  0  0  0
  190.9630  176.4800  143.7990 C   0  0  2  0  0  3  0  0  0  0  0  0
  188.7720  178.7890  141.9510 C   0  0  0  0  0  2  0  0  0  0  0  0
  191.6810  178.9520  144.1380 C   0  0  0  0  0  0  0  0  0  0  0  0
  192.4540  179.7570  144.7190 O   0  0  0  0  0  0  0  0  0  0  0  0
  190.5900  176.9690  142.3860 C   0  0  1  0  0  0  0  0  0  0  0  0
  189.9860  176.9500  144.8720 C   0  0  1  0  0  3  0  0  0  0  0  0
  191.1260  179.3100  142.9000 O   0  0  0  0  0  0  0  0  0  0  0  0
  191.4130  177.5790  144.7860 C   0  0  1  0  0  3  0  0  0  0  0  0
  188.9990  178.8120  143.4010 N   0  0  1  0  0  0  0  0  0  0  0  0
  189.5690  176.0040  141.7850 C   0  0  0  0  0  1  0  0  0  0  0  0
  191.8690  177.1870  140.1690 C   0  0  0  0  0  0  0  0  0  0  0  0
  190.8360  177.5150  139.5270 O   0  0  0  0  0  0  0  0  0  0  0  0
  193.1730  177.0930  139.4640 C   0  0  0  0  0  1  0  0  0  0  0  0
  191.8050  176.9030  141.5720 N   0  0  0  0  0  2  0  0  0  0  0  0
  187.4280  176.9610  144.1620 C   0  0  0  0  0  0  0  0  0  0  0  0
  187.3980  175.7640  143.7720 O   0  0  0  0  0  0  0  0  0  0  0  0
  186.1700  177.6660  144.5100 C   0  0  0  0  0  0  0  0  0  0  0  0
  183.7670  179.0030  145.1100 C   0  0  0  0  0  3  0  0  0  0  0  0
  185.8300  177.9640  145.8480 C   0  0  0  0  0  0  0  0  0  0  0  0
  184.6350  178.6290  146.1380 C   0  0  0  0  0  3  0  0  0  0  0  0
  184.0930  178.7110  143.7840 C   0  0  0  0  0  3  0  0  0  0  0  0
  186.6460  177.6230  146.8770 F   0  0  0  0  0  0  0  0  0  0  0  0
  185.2860  178.0480  143.4890 C   0  0  0  0  0  3  0  0  0  0  0  0
  1 17  1  6  0  0  0
  1  8  1  0  0  0  0
  2  4  1  6  0  0  0
  2  9  1  0  0  0  0
  2 11  1  0  0  0  0
  3 10  1  0  0  0  0
  3  8  1  0  0  0  0
  4 11  1  0  0  0  0
  5  6  2  0  0  0  0
  5 10  1  0  0  0  0
  7  2  1  0  0  0  0
  7  3  1  0  0  0  0
  9  5  1  0  0  0  0
 10  8  1  0  0  0  0
 11  1  1  0  0  0  0
 12  7  1  0  0  0  0
 13 16  1  0  0  0  0
 14 13  2  0  0  0  0
 15 13  1  0  0  0  0
 16  7  1  0  0  0  0
 17 19  1  0  0  0  0
 18 17  2  0  0  0  0
 19 21  1  0  0  0  0
 20 22  1  0  0  0  0
 21 22  2  0  0  0  0
 21 24  1  0  0  0  0
 23 20  2  0  0  0  0
 25 23  1  0  0  0  0
 25 19  2  0  0  0  0
M  END
>  <MODEL>
7

>  <REMARK>
 VINA RESULT:      -6.6      1.753      2.320
  Name = 
  3 active torsions:
  status: ('A' for Active; 'I' for Inactive)
    1  A    between atoms: C_1  and  C_3
    2  A    between atoms: C_1  and  C_5
    3  A    between atoms: C_15  and  N_21
                            x       y       z     vdW  Elec       q    Type
                         _______ _______ _______ _____ _____    ______ ____

>  <TORSDO>
F 3

$$$$
=
 OpenBabel10262419473D

 25 29  0  0  1  0  0  0  0  0999 V2000
  189.9680  177.4940  138.4490 C   0  0  1  0  0  3  0  0  0  0  0  0
  188.9610  177.3840  136.2820 C   0  0  1  0  0  0  0  0  0  0  0  0
  189.3210  175.2040  137.5200 C   0  0  2  0  0  3  0  0  0  0  0  0
  188.4790  178.6980  136.7280 C   0  0  0  0  0  2  0  0  0  0  0  0
  190.8820  176.1670  135.6830 C   0  0  0  0  0  0  0  0  0  0  0  0
  191.8780  175.9780  134.9380 O   0  0  0  0  0  0  0  0  0  0  0  0
  188.2670  176.1000  136.8430 C   0  0  1  0  0  0  0  0  0  0  0  0
  190.3350  175.9900  138.3450 C   0  0  1  0  0  3  0  0  0  0  0  0
  189.8910  177.0760  135.2820 O   0  0  0  0  0  0  0  0  0  0  0  0
  190.7620  175.3520  136.9850 C   0  0  1  0  0  3  0  0  0  0  0  0
  189.7850  178.2260  137.2030 N   0  0  1  0  0  0  0  0  0  0  0  0
  187.1420  176.3750  137.8400 C   0  0  0  0  0  1  0  0  0  0  0  0
  187.0310  174.0770  135.8520 C   0  0  0  0  0  0  0  0  0  0  0  0
  186.8910  173.5270  136.9760 O   0  0  0  0  0  0  0  0  0  0  0  0
  186.4940  173.4130  134.6370 C   0  0  0  0  0  1  0  0  0  0  0  0
  187.7030  175.3360  135.7290 N   0  0  0  0  0  2  0  0  0  0  0  0
  189.3500  178.0480  139.7040 C   0  0  0  0  0  0  0  0  0  0  0  0
  188.5330  179.0030  139.6200 O   0  0  0  0  0  0  0  0  0  0  0  0
  189.7000  177.4770  141.0270 C   0  0  0  0  0  0  0  0  0  0  0  0
  190.3010  176.3780  143.5480 C   0  0  0  0  0  3  0  0  0  0  0  0
  191.0360  177.4120  141.4820 C   0  0  0  0  0  0  0  0  0  0  0  0
  191.3270  176.8660  142.7350 C   0  0  0  0  0  3  0  0  0  0  0  0
  188.9780  176.4350  143.1080 C   0  0  0  0  0  3  0  0  0  0  0  0
  192.0620  177.8780  140.7250 F   0  0  0  0  0  0  0  0  0  0  0  0
  188.6810  176.9810  141.8570 C   0  0  0  0  0  3  0  0  0  0  0  0
  1 17  1  1  0  0  0
  2  4  1  6  0  0  0
  2  7  1  0  0  0  0
  2 11  1  0  0  0  0
  3  8  1  0  0  0  0
  4 11  1  0  0  0  0
  5 10  1  0  0  0  0
  6  5  2  0  0  0  0
  7  3  1  0  0  0  0
  7 12  1  0  0  0  0
  8  1  1  0  0  0  0
  9  5  1  0  0  0  0
  9  2  1  0  0  0  0
 10  3  1  0  0  0  0
 10  8  1  0  0  0  0
 11  1  1  0  0  0  0
 13 14  2  0  0  0  0
 15 13  1  0  0  0  0
 16 13  1  0  0  0  0
 16  7  1  0  0  0  0
 17 19  1  0  0  0  0
 18 17  2  0  0  0  0
 19 21  2  0  0  0  0
 19 25  1  0  0  0  0
 21 22  1  0  0  0  0
 22 20  2  0  0  0  0
 23 20  1  0  0  0  0
 24 21  1  0  0  0  0
 25 23  2  0  0  0  0
M  END
>  <MODEL>
8

>  <REMARK>
 VINA RESULT:      -6.3      4.205      6.513
  Name = 
  3 active torsions:
  status: ('A' for Active; 'I' for Inactive)
    1  A    between atoms: C_1  and  C_3
    2  A    between atoms: C_1  and  C_5
    3  A    between atoms: C_15  and  N_21
                            x       y       z     vdW  Elec       q    Type
                         _______ _______ _______ _____ _____    ______ ____

>  <TORSDO>
F 3

$$$$
=
 OpenBabel10262419473D

 25 29  0  0  1  0  0  0  0  0999 V2000
  188.9810  176.8380  145.1060 C   0  0  1  0  0  3  0  0  0  0  0  0
  191.3220  176.8950  144.6170 C   0  0  1  0  0  0  0  0  0  0  0  0
  189.7150  176.8250  142.6590 C   0  0  2  0  0  3  0  0  0  0  0  0
  191.3000  177.6480  145.8780 C   0  0  0  0  0  2  0  0  0  0  0  0
  190.9570  174.7770  143.6600 C   0  0  0  0  0  0  0  0  0  0  0  0
  191.2350  173.5550  143.5540 O   0  0  0  0  0  0  0  0  0  0  0  0
  190.8700  177.6150  143.3040 C   0  0  1  0  0  0  0  0  0  0  0  0
  188.7030  176.3060  143.6760 C   0  0  1  0  0  3  0  0  0  0  0  0
  191.8380  175.6190  144.3580 O   0  0  0  0  0  0  0  0  0  0  0  0
  189.6860  175.3140  142.9750 C   0  0  1  0  0  3  0  0  0  0  0  0
  190.3020  176.5920  145.6680 N   0  0  1  0  0  0  0  0  0  0  0  0
  190.4250  179.0640  143.5010 C   0  0  0  0  0  1  0  0  0  0  0  0
  191.8420  177.5520  140.9270 C   0  0  0  0  0  0  0  0  0  0  0  0
  190.7040  177.4850  140.3910 O   0  0  0  0  0  0  0  0  0  0  0  0
  193.0570  177.5680  140.0730 C   0  0  0  0  0  1  0  0  0  0  0  0
  191.9810  177.6120  142.3520 N   0  0  0  0  0  2  0  0  0  0  0  0
  188.1530  177.9540  145.6830 C   0  0  0  0  0  0  0  0  0  0  0  0
  188.6390  178.6780  146.5910 O   0  0  0  0  0  0  0  0  0  0  0  0
  186.7760  178.2010  145.1870 C   0  0  0  0  0  0  0  0  0  0  0  0
  184.1850  178.6520  144.1870 C   0  0  0  0  0  3  0  0  0  0  0  0
  185.7210  178.5470  146.0600 C   0  0  0  0  0  0  0  0  0  0  0  0
  184.4360  178.7700  145.5560 C   0  0  0  0  0  3  0  0  0  0  0  0
  185.2200  178.3100  143.3160 C   0  0  0  0  0  3  0  0  0  0  0  0
  185.9230  178.6740  147.3950 F   0  0  0  0  0  0  0  0  0  0  0  0
  186.5060  178.0860  143.8140 C   0  0  0  0  0  3  0  0  0  0  0  0
  1 11  1  0  0  0  0
  1 17  1  6  0  0  0
  2 11  1  0  0  0  0
  2  4  1  1  0  0  0
  3 10  1  0  0  0  0
  3  7  1  0  0  0  0
  3  8  1  0  0  0  0
  5  9  1  0  0  0  0
  6  5  2  0  0  0  0
  7 12  1  0  0  0  0
  7  2  1  0  0  0  0
  8  1  1  0  0  0  0
  9  2  1  0  0  0  0
 10  5  1  0  0  0  0
 10  8  1  0  0  0  0
 11  4  1  0  0  0  0
 13 16  1  0  0  0  0
 14 13  2  0  0  0  0
 15 13  1  0  0  0  0
 16  7  1  0  0  0  0
 17 18  2  0  0  0  0
 19 17  1  0  0  0  0
 19 21  1  0  0  0  0
 20 22  1  0  0  0  0
 21 24  1  0  0  0  0
 22 21  2  0  0  0  0
 23 25  1  0  0  0  0
 23 20  2  0  0  0  0
 25 19  2  0  0  0  0
M  END
>  <MODEL>
9

>  <REMARK>
 VINA RESULT:      -6.2      1.785      2.252
  Name = 
  3 active torsions:
  status: ('A' for Active; 'I' for Inactive)
    1  A    between atoms: C_1  and  C_3
    2  A    between atoms: C_1  and  C_5
    3  A    between atoms: C_15  and  N_21
                            x       y       z     vdW  Elec       q    Type
                         _______ _______ _______ _____ _____    ______ ____

>  <TORSDO>
F 3

$$$$
