=
 OpenBabel10262420403D

 55 58  0  0  1  0  0  0  0  0999 V2000
  184.0180  177.8990  140.3740 C   0  0  0  0  0  1  0  0  0  0  0  0
  180.1740  178.5330  144.3410 O   0  0  0  0  0  1  0  0  0  0  0  0
  180.3660  178.9150  141.9780 C   0  0  1  0  0  3  0  0  0  0  0  0
  181.2620  178.7230  140.7440 C   0  0  2  0  0  3  0  0  0  0  0  0
  183.4810  178.6140  142.7480 C   0  0  2  0  0  3  0  0  0  0  0  0
  181.0480  178.4320  143.2590 C   0  0  1  0  0  3  0  0  0  0  0  0
  179.8640  180.3530  142.1050 C   0  0  0  0  0  1  0  0  0  0  0  0
  182.3260  179.6470  140.7790 O   0  0  0  0  0  0  0  0  0  0  0  0
  183.4980  179.0190  141.2640 C   0  0  2  0  0  3  0  0  0  0  0  0
  182.3290  179.2010  143.5570 C   0  0  0  0  0  2  0  0  0  0  0  0
  179.3210  178.0510  139.4680 O   0  0  0  0  0  1  0  0  0  0  0  0
  180.4210  178.9130  139.4700 C   0  0  2  0  0  3  0  0  0  0  0  0
  181.1910  178.8230  138.1360 C   0  0  2  0  0  3  0  0  0  0  0  0
  179.9320  180.2140  136.4270 C   0  0  0  0  0  1  0  0  0  0  0  0
  181.1510  180.1370  137.3340 C   0  0  1  0  0  3  0  0  0  0  0  0
  180.0190  181.9600  138.6020 O   0  0  0  0  0  1  0  0  0  0  0  0
  181.2020  181.3440  138.2150 C   0  0  0  0  0  0  0  0  0  0  0  0
  182.3060  181.8230  138.5910 O   0  0  0  0  0  0  0  0  0  0  0  0
  180.6740  177.7490  137.3730 O   0  0  0  0  0  0  0  0  0  0  0  0
  182.5870  174.7850  138.1550 O   0  0  0  0  0  1  0  0  0  0  0  0
  181.6770  176.7750  137.1000 C   0  0  2  0  0  0  0  0  0  0  0  0
  180.2180  174.9760  137.8590 C   0  0  2  0  0  3  0  0  0  0  0  0
  181.3480  176.0810  135.7530 C   0  0  2  0  0  3  0  0  0  0  0  0
  180.0900  174.7860  136.0530 S   0  0  0  0  0  0  0  0  0  0  0  0
  181.5220  175.6940  138.1770 C   0  0  1  0  0  3  0  0  0  0  0  0
  179.7260  173.6710  139.7940 O   0  0  0  0  0  1  0  0  0  0  0  0
  180.0670  173.6740  138.5840 C   0  0  0  0  0  0  0  0  0  0  0  0
  180.3600  172.4720  137.9490 O   0  0  0  0  0  0  0  0  0  0  0  0
  183.0800  177.4460  137.1810 C   0  0  0  0  0  2  0  0  0  0  0  0
  184.1240  176.6250  136.7460 O   0  0  0  0  0  0  0  0  0  0  0  0
  185.2730  177.3920  136.9340 C   0  0  0  0  0  2  0  0  0  0  0  0
  186.2480  177.1230  135.8080 C   0  0  0  0  0  1  0  0  0  0  0  0
  182.5430  175.4600  135.0350 C   0  0  0  0  0  2  0  0  0  0  0  0
  182.3550  173.9880  134.8530 C   0  0  0  0  0  3  0  0  0  0  0  0
  183.3700  173.1410  135.0040 C   0  0  0  0  0  2  0  0  0  0  0  0
  184.8240  178.8990  143.4180 C   0  0  0  0  0  2  0  0  0  0  0  0
  185.6720  177.6310  143.6290 C   0  0  1  0  0  3  0  0  0  0  0  0
  187.8730  176.5960  143.0540 C   0  0  0  0  0  3  0  0  0  0  0  0
  189.3020  177.4880  141.2980 C   0  0  0  0  0  0  0  0  0  0  0  0
  187.1640  178.5340  141.7920 C   0  0  0  0  0  3  0  0  0  0  0  0
  188.3470  178.4840  141.0480 C   0  0  0  0  0  3  0  0  0  0  0  0
  189.0560  176.5450  142.3100 C   0  0  0  0  0  3  0  0  0  0  0  0
  186.9210  177.5850  142.7940 C   0  0  0  0  0  0  0  0  0  0  0  0
  190.5130  177.4440  140.5290 N   0  0  0  0  0  0  0  0  0  0  0  0
  190.4580  177.3880  139.1760 O   0  0  0  0  0  1  0  0  0  0  0  0
  191.8210  177.4610  141.1670 C   0  0  0  0  0  1  0  0  0  0  0  0
  185.8890  177.2890  144.9840 O   0  0  0  0  0  0  0  0  0  0  0  0
  186.2470  178.4470  145.6990 C   0  0  0  0  0  2  0  0  0  0  0  0
  187.3450  178.3440  147.9410 C   0  0  0  0  0  3  0  0  0  0  0  0
  189.7100  177.4360  146.8130 C   0  0  0  0  0  0  0  0  0  0  0  0
  188.6140  177.7000  145.9880 C   0  0  0  0  0  3  0  0  0  0  0  0
  188.4620  178.0680  148.7330 C   0  0  0  0  0  3  0  0  0  0  0  0
  187.4270  178.1650  146.5590 C   0  0  0  0  0  0  0  0  0  0  0  0
  190.9820  176.9470  146.2230 C   0  0  0  0  0  1  0  0  0  0  0  0
  189.6130  177.6270  148.1570 N   0  0  0  0  0  0  0  0  0  0  0  0
  3  7  1  1  0  0  0
  3  6  1  0  0  0  0
  4 12  1  6  0  0  0
  4  8  1  0  0  0  0
  4  3  1  0  0  0  0
  5 36  1  1  0  0  0
  5 10  1  0  0  0  0
  6 10  1  0  0  0  0
  6  2  1  1  0  0  0
  8  9  1  0  0  0  0
  9  1  1  6  0  0  0
  9  5  1  0  0  0  0
 12 11  1  6  0  0  0
 13 19  1  6  0  0  0
 13 12  1  0  0  0  0
 15 14  1  1  0  0  0
 15 13  1  0  0  0  0
 15 17  1  0  0  0  0
 17 18  2  0  0  0  0
 17 16  1  0  0  0  0
 21 29  1  1  0  0  0
 21 19  1  0  0  0  0
 21 25  1  0  0  0  0
 22 25  1  0  0  0  0
 22 27  1  1  0  0  0
 23 33  1  1  0  0  0
 23 24  1  0  0  0  0
 23 21  1  0  0  0  0
 24 22  1  0  0  0  0
 25 20  1  6  0  0  0
 27 26  1  0  0  0  0
 28 27  2  0  0  0  0
 30 31  1  0  0  0  0
 30 29  1  0  0  0  0
 32 31  1  0  0  0  0
 34 35  2  0  0  0  0
 34 33  1  0  0  0  0
 37 36  1  1  0  0  0
 37 47  1  0  0  0  0
 39 42  1  0  0  0  0
 40 43  2  0  0  0  0
 41 39  2  0  0  0  0
 41 40  1  0  0  0  0
 42 38  2  0  0  0  0
 43 38  1  0  0  0  0
 43 37  1  0  0  0  0
 44 46  1  0  0  0  0
 44 39  1  0  0  0  0
 45 44  1  0  0  0  0
 47 48  1  0  0  0  0
 48 53  1  0  0  0  0
 49 52  1  0  0  0  0
 50 55  1  0  0  0  0
 51 53  1  0  0  0  0
 51 50  2  0  0  0  0
 53 49  2  0  0  0  0
 54 50  1  0  0  0  0
 55 52  2  0  0  0  0
M  END
>  <MODEL>
1

>  <REMARK>
 VINA RESULT:      -7.1      0.000      0.000
  Name = 
  19 active torsions:
  status: ('A' for Active; 'I' for Inactive)
    1  A    between atoms: C_1  and  C_30
    2  A    between atoms: C_2  and  O_28
    3  A    between atoms: C_2  and  C_44
    4  A    between atoms: C_6  and  O_8
    5  A    between atoms: C_6  and  C_46
    6  A    between atoms: C_7  and  O_8
    7  A    between atoms: C_7  and  C_23
    8  A    between atoms: C_7  and  C_43
    9  A    between atoms: N_10  and  C_32
   10  A    between atoms: C_11  and  C_29
   11  A    between atoms: C_12  and  O_14
   12  A    between atoms: O_14  and  C_46
   13  A    between atoms: C_17  and  C_23
   14  A    between atoms: C_19  and  C_49
   15  A    between atoms: C_20  and  C_30
   16  A    between atoms: O_28  and  C_33
   17  A    between atoms: C_33  and  C_49
   18  A    between atoms: C_33  and  C_52
   19  A    between atoms: C_35  and  C_43
                            x       y       z     vdW  Elec       q    Type
                         _______ _______ _______ _____ _____    ______ ____

>  <TORSDO>
F 19

$$$$
=
 OpenBabel10262420403D

 55 58  0  0  1  0  0  0  0  0999 V2000
  186.2410  178.1400  139.2300 C   0  0  0  0  0  1  0  0  0  0  0  0
  185.9180  177.2900  144.7150 O   0  0  0  0  0  1  0  0  0  0  0  0
  184.6610  178.4350  143.0190 C   0  0  1  0  0  3  0  0  0  0  0  0
  184.5350  178.6920  141.5090 C   0  0  2  0  0  3  0  0  0  0  0  0
  187.4490  178.0150  141.4580 C   0  0  2  0  0  3  0  0  0  0  0  0
  185.8880  177.5840  143.3520 C   0  0  1  0  0  3  0  0  0  0  0  0
  184.6290  179.7310  143.8280 C   0  0  0  0  0  1  0  0  0  0  0  0
  185.5370  179.5930  141.0940 O   0  0  0  0  0  0  0  0  0  0  0  0
  186.6120  178.8850  140.5050 C   0  0  2  0  0  3  0  0  0  0  0  0
  187.1890  178.2590  142.9400 C   0  0  0  0  0  2  0  0  0  0  0  0
  182.2590  179.0100  142.2620 O   0  0  0  0  0  1  0  0  0  0  0  0
  183.1370  179.2600  141.2040 C   0  0  2  0  0  3  0  0  0  0  0  0
  182.5150  178.8270  139.8610 C   0  0  2  0  0  3  0  0  0  0  0  0
  180.6180  180.4220  140.4100 C   0  0  0  0  0  1  0  0  0  0  0  0
  181.5050  179.8530  139.3130 C   0  0  1  0  0  3  0  0  0  0  0  0
  183.5130  181.2420  138.8100 O   0  0  0  0  0  1  0  0  0  0  0  0
  182.1720  180.9700  138.5740 C   0  0  0  0  0  0  0  0  0  0  0  0
  181.5260  181.6810  137.7580 O   0  0  0  0  0  0  0  0  0  0  0  0
  181.9110  177.5570  140.0160 O   0  0  0  0  0  0  0  0  0  0  0  0
  181.3420  174.7050  137.8720 O   0  0  0  0  0  1  0  0  0  0  0  0
  181.6520  176.9470  138.7550 C   0  0  2  0  0  0  0  0  0  0  0  0
  180.0530  175.4070  139.7640 C   0  0  2  0  0  3  0  0  0  0  0  0
  180.3190  177.5030  138.1930 C   0  0  2  0  0  3  0  0  0  0  0  0
  178.9310  176.6050  138.9790 S   0  0  0  0  0  0  0  0  0  0  0  0
  181.3950  175.4620  139.0480 C   0  0  1  0  0  3  0  0  0  0  0  0
  179.5190  173.3780  140.8980 O   0  0  0  0  0  1  0  0  0  0  0  0
  179.4700  174.0290  139.8230 C   0  0  0  0  0  0  0  0  0  0  0  0
  178.9310  173.4390  138.6850 O   0  0  0  0  0  0  0  0  0  0  0  0
  182.8930  177.1270  137.8330 C   0  0  0  0  0  2  0  0  0  0  0  0
  183.8660  176.1380  137.9970 O   0  0  0  0  0  0  0  0  0  0  0  0
  184.4910  176.0530  136.7530 C   0  0  0  0  0  2  0  0  0  0  0  0
  184.8130  174.6050  136.4500 C   0  0  0  0  0  1  0  0  0  0  0  0
  180.1700  177.4240  136.6760 C   0  0  0  0  0  2  0  0  0  0  0  0
  179.7170  178.7310  136.1110 C   0  0  0  0  0  3  0  0  0  0  0  0
  180.5580  179.5220  135.4470 C   0  0  0  0  0  2  0  0  0  0  0  0
  188.9390  178.1140  141.1370 C   0  0  0  0  0  2  0  0  0  0  0  0
  189.6270  176.7390  141.0430 C   0  0  1  0  0  3  0  0  0  0  0  0
  191.8990  177.2170  140.1180 C   0  0  0  0  0  3  0  0  0  0  0  0
  192.5560  176.5210  137.8820 C   0  0  0  0  0  0  0  0  0  0  0  0
  190.3360  176.0060  138.7240 C   0  0  0  0  0  3  0  0  0  0  0  0
  191.2890  175.9480  137.7040 C   0  0  0  0  0  3  0  0  0  0  0  0
  192.8530  177.1590  139.0980 C   0  0  0  0  0  3  0  0  0  0  0  0
  190.6410  176.6360  139.9390 C   0  0  0  0  0  0  0  0  0  0  0  0
  193.5300  176.4560  136.8280 N   0  0  0  0  0  0  0  0  0  0  0  0
  194.3230  177.5230  136.5690 O   0  0  0  0  0  1  0  0  0  0  0  0
  193.6950  175.2580  136.0180 C   0  0  0  0  0  1  0  0  0  0  0  0
  190.0890  176.2290  142.2790 O   0  0  0  0  0  0  0  0  0  0  0  0
  190.8750  177.2060  142.9150 C   0  0  0  0  0  2  0  0  0  0  0  0
  191.8050  176.5320  145.1350 C   0  0  0  0  0  3  0  0  0  0  0  0
  189.4980  177.3670  146.4270 C   0  0  0  0  0  0  0  0  0  0  0  0
  189.5930  177.4990  145.0390 C   0  0  0  0  0  3  0  0  0  0  0  0
  191.6730  176.4170  146.5210 C   0  0  0  0  0  3  0  0  0  0  0  0
  190.7530  177.0700  144.3910 C   0  0  0  0  0  0  0  0  0  0  0  0
  188.2700  177.8130  147.1320 C   0  0  0  0  0  1  0  0  0  0  0  0
  190.5310  176.8310  147.1320 N   0  0  0  0  0  0  0  0  0  0  0  0
  3  6  1  0  0  0  0
  3  7  1  1  0  0  0
  4 12  1  1  0  0  0
  4  3  1  0  0  0  0
  5 36  1  1  0  0  0
  5 10  1  0  0  0  0
  6  2  1  1  0  0  0
  8  4  1  0  0  0  0
  9  1  1  6  0  0  0
  9  8  1  0  0  0  0
  9  5  1  0  0  0  0
 10  6  1  0  0  0  0
 12 11  1  1  0  0  0
 13 19  1  1  0  0  0
 13 12  1  0  0  0  0
 15 13  1  0  0  0  0
 15 14  1  1  0  0  0
 17 16  1  0  0  0  0
 17 15  1  0  0  0  0
 18 17  2  0  0  0  0
 21 29  1  6  0  0  0
 21 25  1  0  0  0  0
 21 19  1  0  0  0  0
 22 27  1  6  0  0  0
 23 33  1  6  0  0  0
 23 21  1  0  0  0  0
 23 24  1  0  0  0  0
 24 22  1  0  0  0  0
 25 20  1  6  0  0  0
 25 22  1  0  0  0  0
 27 26  1  0  0  0  0
 28 27  2  0  0  0  0
 29 30  1  0  0  0  0
 31 30  1  0  0  0  0
 32 31  1  0  0  0  0
 34 33  1  0  0  0  0
 35 34  2  0  0  0  0
 37 36  1  1  0  0  0
 37 47  1  0  0  0  0
 39 42  1  0  0  0  0
 40 43  2  0  0  0  0
 41 39  2  0  0  0  0
 41 40  1  0  0  0  0
 42 38  2  0  0  0  0
 43 38  1  0  0  0  0
 43 37  1  0  0  0  0
 44 39  1  0  0  0  0
 45 44  1  0  0  0  0
 46 44  1  0  0  0  0
 47 48  1  0  0  0  0
 48 53  1  0  0  0  0
 49 52  1  0  0  0  0
 50 54  1  0  0  0  0
 50 55  1  0  0  0  0
 51 50  2  0  0  0  0
 52 55  2  0  0  0  0
 53 51  1  0  0  0  0
 53 49  2  0  0  0  0
M  END
>  <MODEL>
2

>  <REMARK>
 VINA RESULT:      -5.9      2.113      3.856
  Name = 
  19 active torsions:
  status: ('A' for Active; 'I' for Inactive)
    1  A    between atoms: C_1  and  C_30
    2  A    between atoms: C_2  and  O_28
    3  A    between atoms: C_2  and  C_44
    4  A    between atoms: C_6  and  O_8
    5  A    between atoms: C_6  and  C_46
    6  A    between atoms: C_7  and  O_8
    7  A    between atoms: C_7  and  C_23
    8  A    between atoms: C_7  and  C_43
    9  A    between atoms: N_10  and  C_32
   10  A    between atoms: C_11  and  C_29
   11  A    between atoms: C_12  and  O_14
   12  A    between atoms: O_14  and  C_46
   13  A    between atoms: C_17  and  C_23
   14  A    between atoms: C_19  and  C_49
   15  A    between atoms: C_20  and  C_30
   16  A    between atoms: O_28  and  C_33
   17  A    between atoms: C_33  and  C_49
   18  A    between atoms: C_33  and  C_52
   19  A    between atoms: C_35  and  C_43
                            x       y       z     vdW  Elec       q    Type
                         _______ _______ _______ _____ _____    ______ ____

>  <TORSDO>
F 19

$$$$
=
 OpenBabel10262420403D

 55 58  0  0  1  0  0  0  0  0999 V2000
  188.4410  178.4100  139.4760 C   0  0  0  0  0  1  0  0  0  0  0  0
  190.9570  175.8980  135.2010 O   0  0  0  0  0  1  0  0  0  0  0  0
  188.7550  176.6810  135.7540 C   0  0  1  0  0  3  0  0  0  0  0  0
  187.9200  177.4510  136.7890 C   0  0  2  0  0  3  0  0  0  0  0  0
  190.0870  176.6470  138.6890 C   0  0  2  0  0  3  0  0  0  0  0  0
  190.2080  176.5160  136.2030 C   0  0  1  0  0  3  0  0  0  0  0  0
  188.1170  175.3420  135.3820 C   0  0  0  0  0  1  0  0  0  0  0  0
  187.7010  176.6420  137.9230 O   0  0  0  0  0  0  0  0  0  0  0  0
  188.6110  176.9910  138.9510 C   0  0  2  0  0  3  0  0  0  0  0  0
  190.3270  175.7250  137.4990 C   0  0  0  0  0  2  0  0  0  0  0  0
  186.5470  179.2450  135.9260 O   0  0  0  0  0  1  0  0  0  0  0  0
  186.5810  177.8670  136.1550 C   0  0  2  0  0  3  0  0  0  0  0  0
  185.3120  177.4040  136.8990 C   0  0  2  0  0  3  0  0  0  0  0  0
  184.5150  176.6970  134.5950 C   0  0  0  0  0  1  0  0  0  0  0  0
  184.4770  176.3960  136.0860 C   0  0  1  0  0  3  0  0  0  0  0  0
  185.3720  174.6120  137.5780 O   0  0  0  0  0  1  0  0  0  0  0  0
  184.8990  174.9820  136.3260 C   0  0  0  0  0  0  0  0  0  0  0  0
  184.8530  174.1280  135.4000 O   0  0  0  0  0  0  0  0  0  0  0  0
  184.5380  178.5360  137.2480 O   0  0  0  0  0  0  0  0  0  0  0  0
  182.3490  179.5850  139.9240 O   0  0  0  0  0  1  0  0  0  0  0  0
  183.8390  178.3310  138.4710 C   0  0  2  0  0  0  0  0  0  0  0  0
  181.8510  179.4310  137.5870 C   0  0  2  0  0  3  0  0  0  0  0  0
  182.8850  177.1190  138.3070 C   0  0  2  0  0  3  0  0  0  0  0  0
  181.3620  177.6830  137.4630 S   0  0  0  0  0  0  0  0  0  0  0  0
  182.9320  179.5550  138.6510 C   0  0  1  0  0  3  0  0  0  0  0  0
  179.5390  179.8460  137.9990 O   0  0  0  0  0  1  0  0  0  0  0  0
  180.6820  180.3380  137.8200 C   0  0  0  0  0  0  0  0  0  0  0  0
  180.8380  181.7190  137.7810 O   0  0  0  0  0  0  0  0  0  0  0  0
  184.8650  178.2200  139.6370 C   0  0  0  0  0  2  0  0  0  0  0  0
  185.1450  179.4390  140.2600 O   0  0  0  0  0  0  0  0  0  0  0  0
  185.6590  179.0850  141.5060 C   0  0  0  0  0  2  0  0  0  0  0  0
  184.5200  178.8630  142.4770 C   0  0  0  0  0  1  0  0  0  0  0  0
  182.5040  176.4120  139.6050 C   0  0  0  0  0  2  0  0  0  0  0  0
  181.5180  175.3180  139.3510 C   0  0  0  0  0  3  0  0  0  0  0  0
  180.4220  175.1930  140.0960 C   0  0  0  0  0  2  0  0  0  0  0  0
  190.7640  176.1080  139.9470 C   0  0  0  0  0  2  0  0  0  0  0  0
  191.4030  177.2140  140.8070 C   0  0  1  0  0  3  0  0  0  0  0  0
  191.7260  177.7320  143.2310 C   0  0  0  0  0  3  0  0  0  0  0  0
  189.9790  177.3450  144.8790 C   0  0  0  0  0  0  0  0  0  0  0  0
  189.5900  176.8360  142.5350 C   0  0  0  0  0  3  0  0  0  0  0  0
  189.1410  176.8750  143.8580 C   0  0  0  0  0  3  0  0  0  0  0  0
  191.2780  177.7720  144.5550 C   0  0  0  0  0  3  0  0  0  0  0  0
  190.8840  177.2710  142.2160 C   0  0  0  0  0  0  0  0  0  0  0  0
  189.5090  177.3820  146.2360 N   0  0  0  0  0  0  0  0  0  0  0  0
  190.3790  177.2190  147.2610 O   0  0  0  0  0  1  0  0  0  0  0  0
  188.1040  177.5970  146.5480 C   0  0  0  0  0  1  0  0  0  0  0  0
  192.8140  177.2780  140.7270 O   0  0  0  0  0  0  0  0  0  0  0  0
  193.1980  177.2810  139.3740 C   0  0  0  0  0  2  0  0  0  0  0  0
  195.1210  175.7930  139.9500 C   0  0  0  0  0  3  0  0  0  0  0  0
  194.6360  174.1990  137.7340 C   0  0  0  0  0  0  0  0  0  0  0  0
  193.8130  175.3010  137.9790 C   0  0  0  0  0  3  0  0  0  0  0  0
  195.9210  174.6830  139.6710 C   0  0  0  0  0  3  0  0  0  0  0  0
  194.0650  176.1070  139.0920 C   0  0  0  0  0  0  0  0  0  0  0  0
  194.3850  173.3350  136.5520 C   0  0  0  0  0  1  0  0  0  0  0  0
  195.6660  173.9170  138.5770 N   0  0  0  0  0  0  0  0  0  0  0  0
  3  7  1  1  0  0  0
  3  6  1  0  0  0  0
  3  4  1  0  0  0  0
  4 12  1  6  0  0  0
  4  8  1  0  0  0  0
  5  9  1  0  0  0  0
  5 36  1  1  0  0  0
  6  2  1  6  0  0  0
  6 10  1  0  0  0  0
  8  9  1  0  0  0  0
  9  1  1  6  0  0  0
 10  5  1  0  0  0  0
 12 11  1  1  0  0  0
 12 13  1  0  0  0  0
 13 19  1  6  0  0  0
 15 14  1  6  0  0  0
 15 17  1  0  0  0  0
 15 13  1  0  0  0  0
 17 16  1  0  0  0  0
 18 17  2  0  0  0  0
 19 21  1  0  0  0  0
 21 25  1  0  0  0  0
 21 29  1  1  0  0  0
 22 27  1  1  0  0  0
 22 25  1  0  0  0  0
 23 21  1  0  0  0  0
 23 33  1  1  0  0  0
 24 22  1  0  0  0  0
 24 23  1  0  0  0  0
 25 20  1  1  0  0  0
 27 26  1  0  0  0  0
 28 27  2  0  0  0  0
 29 30  1  0  0  0  0
 30 31  1  0  0  0  0
 31 32  1  0  0  0  0
 34 33  1  0  0  0  0
 34 35  2  0  0  0  0
 37 36  1  1  0  0  0
 37 43  1  0  0  0  0
 38 42  1  0  0  0  0
 39 44  1  0  0  0  0
 40 41  2  0  0  0  0
 41 39  1  0  0  0  0
 42 39  2  0  0  0  0
 43 40  1  0  0  0  0
 43 38  2  0  0  0  0
 44 46  1  0  0  0  0
 44 45  1  0  0  0  0
 47 37  1  0  0  0  0
 48 47  1  0  0  0  0
 50 51  2  0  0  0  0
 50 55  1  0  0  0  0
 51 53  1  0  0  0  0
 52 49  1  0  0  0  0
 53 48  1  0  0  0  0
 53 49  2  0  0  0  0
 54 50  1  0  0  0  0
 55 52  2  0  0  0  0
M  END
>  <MODEL>
3

>  <REMARK>
 VINA RESULT:      -5.6      2.856      7.578
  Name = 
  19 active torsions:
  status: ('A' for Active; 'I' for Inactive)
    1  A    between atoms: C_1  and  C_30
    2  A    between atoms: C_2  and  O_28
    3  A    between atoms: C_2  and  C_44
    4  A    between atoms: C_6  and  O_8
    5  A    between atoms: C_6  and  C_46
    6  A    between atoms: C_7  and  O_8
    7  A    between atoms: C_7  and  C_23
    8  A    between atoms: C_7  and  C_43
    9  A    between atoms: N_10  and  C_32
   10  A    between atoms: C_11  and  C_29
   11  A    between atoms: C_12  and  O_14
   12  A    between atoms: O_14  and  C_46
   13  A    between atoms: C_17  and  C_23
   14  A    between atoms: C_19  and  C_49
   15  A    between atoms: C_20  and  C_30
   16  A    between atoms: O_28  and  C_33
   17  A    between atoms: C_33  and  C_49
   18  A    between atoms: C_33  and  C_52
   19  A    between atoms: C_35  and  C_43
                            x       y       z     vdW  Elec       q    Type
                         _______ _______ _______ _____ _____    ______ ____

>  <TORSDO>
F 19

$$$$
=
 OpenBabel10262420403D

 55 58  0  0  1  0  0  0  0  0999 V2000
  185.6060  177.8740  137.9980 C   0  0  0  0  0  1  0  0  0  0  0  0
  183.3800  177.9820  143.0920 O   0  0  0  0  0  1  0  0  0  0  0  0
  182.6730  178.4050  140.8360 C   0  0  1  0  0  3  0  0  0  0  0  0
  183.0860  178.3390  139.3580 C   0  0  2  0  0  3  0  0  0  0  0  0
  185.8700  178.4960  140.4430 C   0  0  2  0  0  3  0  0  0  0  0  0
  183.8170  178.0020  141.7670 C   0  0  1  0  0  3  0  0  0  0  0  0
  182.0870  179.7670  141.2080 C   0  0  0  0  0  1  0  0  0  0  0  0
  183.9790  179.3900  139.0640 O   0  0  0  0  0  0  0  0  0  0  0  0
  185.3120  178.9120  139.0720 C   0  0  2  0  0  3  0  0  0  0  0  0
  185.0220  178.9240  141.6350 C   0  0  0  0  0  2  0  0  0  0  0  0
  180.7990  179.0930  139.1440 O   0  0  0  0  0  1  0  0  0  0  0  0
  181.8310  178.4320  138.4730 C   0  0  2  0  0  3  0  0  0  0  0  0
  181.3310  177.1020  137.8730 C   0  0  2  0  0  3  0  0  0  0  0  0
  179.0900  175.9160  137.7540 C   0  0  0  0  0  1  0  0  0  0  0  0
  180.1630  176.4880  138.6680 C   0  0  1  0  0  3  0  0  0  0  0  0
  181.9790  175.2490  139.8430 O   0  0  0  0  0  0  0  0  0  0  0  0
  180.6200  175.4390  139.6310 C   0  0  0  0  0  0  0  0  0  0  0  0
  179.7870  174.7080  140.2330 O   0  0  0  0  0  1  0  0  0  0  0  0
  182.4140  176.1950  137.7860 O   0  0  0  0  0  0  0  0  0  0  0  0
  184.2780  175.1950  134.8560 O   0  0  0  0  0  1  0  0  0  0  0  0
  182.5250  175.6410  136.4780 C   0  0  2  0  0  0  0  0  0  0  0  0
  184.5370  174.4150  137.1060 C   0  0  2  0  0  3  0  0  0  0  0  0
  181.9840  174.1880  136.5020 C   0  0  2  0  0  3  0  0  0  0  0  0
  183.2960  173.0850  137.1440 S   0  0  0  0  0  0  0  0  0  0  0  0
  184.0290  175.5230  136.1940 C   0  0  1  0  0  3  0  0  0  0  0  0
  186.8330  174.7390  136.5460 O   0  0  0  0  0  1  0  0  0  0  0  0
  185.8990  173.9180  136.7300 C   0  0  0  0  0  0  0  0  0  0  0  0
  186.1250  172.5610  136.5240 O   0  0  0  0  0  0  0  0  0  0  0  0
  181.8370  176.5930  135.4560 C   0  0  0  0  0  2  0  0  0  0  0  0
  182.5350  177.7840  135.2370 O   0  0  0  0  0  0  0  0  0  0  0  0
  181.5620  178.6840  134.8050 C   0  0  0  0  0  2  0  0  0  0  0  0
  180.2560  177.9510  134.5940 C   0  0  0  0  0  1  0  0  0  0  0  0
  181.4970  173.6550  135.1580 C   0  0  0  0  0  2  0  0  0  0  0  0
  180.0890  173.1630  135.2530 C   0  0  0  0  0  3  0  0  0  0  0  0
  179.6480  172.5480  136.3480 C   0  0  0  0  0  2  0  0  0  0  0  0
  187.3210  178.9430  140.6120 C   0  0  0  0  0  2  0  0  0  0  0  0
  188.2340  177.8300  141.1600 C   0  0  1  0  0  3  0  0  0  0  0  0
  190.6580  177.4840  140.6590 C   0  0  0  0  0  3  0  0  0  0  0  0
  191.4320  176.7230  138.4820 C   0  0  0  0  0  0  0  0  0  0  0  0
  189.0580  177.0200  138.9050 C   0  0  0  0  0  3  0  0  0  0  0  0
  190.1020  176.6710  138.0430 C   0  0  0  0  0  3  0  0  0  0  0  0
  191.7030  177.1350  139.7970 C   0  0  0  0  0  3  0  0  0  0  0  0
  189.3330  177.4220  140.2190 C   0  0  0  0  0  0  0  0  0  0  0  0
  192.4980  176.3620  137.5890 N   0  0  0  0  0  0  0  0  0  0  0  0
  193.7870  176.5510  137.9590 O   0  0  0  0  0  1  0  0  0  0  0  0
  192.2310  175.7860  136.2800 C   0  0  0  0  0  1  0  0  0  0  0  0
  188.6780  178.0360  142.4860 O   0  0  0  0  0  0  0  0  0  0  0  0
  188.4750  176.8580  143.2280 C   0  0  0  0  0  2  0  0  0  0  0  0
  188.9070  177.0370  145.6830 C   0  0  0  0  0  3  0  0  0  0  0  0
  186.3520  178.0170  146.1260 C   0  0  0  0  0  0  0  0  0  0  0  0
  186.7470  177.6990  144.8250 C   0  0  0  0  0  3  0  0  0  0  0  0
  188.4750  177.3670  146.9690 C   0  0  0  0  0  3  0  0  0  0  0  0
  188.0330  177.1980  144.6060 C   0  0  0  0  0  0  0  0  0  0  0  0
  184.9870  178.5460  146.3780 C   0  0  0  0  0  1  0  0  0  0  0  0
  187.2160  177.8430  147.1630 N   0  0  0  0  0  0  0  0  0  0  0  0
  3  7  1  1  0  0  0
  3  6  1  0  0  0  0
  4 12  1  6  0  0  0
  4  3  1  0  0  0  0
  5 36  1  1  0  0  0
  5 10  1  0  0  0  0
  6  2  1  1  0  0  0
  8  9  1  0  0  0  0
  8  4  1  0  0  0  0
  9  1  1  6  0  0  0
  9  5  1  0  0  0  0
 10  6  1  0  0  0  0
 12 11  1  1  0  0  0
 13 19  1  1  0  0  0
 13 12  1  0  0  0  0
 13 15  1  0  0  0  0
 15 14  1  6  0  0  0
 15 17  1  0  0  0  0
 17 16  2  0  0  0  0
 17 18  1  0  0  0  0
 21 29  1  6  0  0  0
 21 23  1  0  0  0  0
 21 19  1  0  0  0  0
 22 27  1  6  0  0  0
 22 24  1  0  0  0  0
 23 33  1  6  0  0  0
 23 24  1  0  0  0  0
 25 20  1  6  0  0  0
 25 21  1  0  0  0  0
 25 22  1  0  0  0  0
 26 27  1  0  0  0  0
 28 27  2  0  0  0  0
 30 29  1  0  0  0  0
 31 30  1  0  0  0  0
 32 31  1  0  0  0  0
 33 34  1  0  0  0  0
 34 35  2  0  0  0  0
 37 36  1  6  0  0  0
 37 47  1  0  0  0  0
 39 42  1  0  0  0  0
 40 43  2  0  0  0  0
 41 39  2  0  0  0  0
 41 40  1  0  0  0  0
 42 38  2  0  0  0  0
 43 38  1  0  0  0  0
 43 37  1  0  0  0  0
 44 45  1  0  0  0  0
 44 39  1  0  0  0  0
 46 44  1  0  0  0  0
 47 48  1  0  0  0  0
 48 53  1  0  0  0  0
 49 52  1  0  0  0  0
 50 54  1  0  0  0  0
 50 55  1  0  0  0  0
 51 50  2  0  0  0  0
 52 55  2  0  0  0  0
 53 51  1  0  0  0  0
 53 49  2  0  0  0  0
M  END
>  <MODEL>
4

>  <REMARK>
 VINA RESULT:      -5.4      2.257      3.936
  Name = 
  19 active torsions:
  status: ('A' for Active; 'I' for Inactive)
    1  A    between atoms: C_1  and  C_30
    2  A    between atoms: C_2  and  O_28
    3  A    between atoms: C_2  and  C_44
    4  A    between atoms: C_6  and  O_8
    5  A    between atoms: C_6  and  C_46
    6  A    between atoms: C_7  and  O_8
    7  A    between atoms: C_7  and  C_23
    8  A    between atoms: C_7  and  C_43
    9  A    between atoms: N_10  and  C_32
   10  A    between atoms: C_11  and  C_29
   11  A    between atoms: C_12  and  O_14
   12  A    between atoms: O_14  and  C_46
   13  A    between atoms: C_17  and  C_23
   14  A    between atoms: C_19  and  C_49
   15  A    between atoms: C_20  and  C_30
   16  A    between atoms: O_28  and  C_33
   17  A    between atoms: C_33  and  C_49
   18  A    between atoms: C_33  and  C_52
   19  A    between atoms: C_35  and  C_43
                            x       y       z     vdW  Elec       q    Type
                         _______ _______ _______ _____ _____    ______ ____

>  <TORSDO>
F 19

$$$$
=
 OpenBabel10262420403D

 55 58  0  0  1  0  0  0  0  0999 V2000
  186.8300  174.1640  137.6120 C   0  0  0  0  0  1  0  0  0  0  0  0
  187.8280  179.5740  136.8040 O   0  0  0  0  0  1  0  0  0  0  0  0
  186.2380  177.9330  136.0650 C   0  0  1  0  0  3  0  0  0  0  0  0
  185.7560  176.4840  136.2420 C   0  0  2  0  0  3  0  0  0  0  0  0
  188.5400  175.9970  137.2210 C   0  0  2  0  0  3  0  0  0  0  0  0
  187.4760  178.2290  136.9140 C   0  0  1  0  0  3  0  0  0  0  0  0
  186.4540  178.2920  134.5960 C   0  0  0  0  0  1  0  0  0  0  0  0
  186.6590  175.6010  135.6150 O   0  0  0  0  0  0  0  0  0  0  0  0
  187.5290  175.0340  136.5760 C   0  0  2  0  0  3  0  0  0  0  0  0
  188.6610  177.3520  136.5330 C   0  0  0  0  0  2  0  0  0  0  0  0
  183.9450  177.5290  135.0270 O   0  0  0  0  0  1  0  0  0  0  0  0
  184.3480  176.3390  135.6370 C   0  0  2  0  0  3  0  0  0  0  0  0
  183.2570  175.8150  136.5920 C   0  0  2  0  0  3  0  0  0  0  0  0
  182.2480  174.5890  134.6120 C   0  0  0  0  0  1  0  0  0  0  0  0
  182.5970  174.5160  136.0910 C   0  0  1  0  0  3  0  0  0  0  0  0
  184.4820  173.0030  135.4810 O   0  0  0  0  0  0  0  0  0  0  0  0
  183.4430  173.3110  136.3500 C   0  0  0  0  0  0  0  0  0  0  0  0
  183.2100  172.5580  137.3340 O   0  0  0  0  0  1  0  0  0  0  0  0
  182.2900  176.8280  136.7930 O   0  0  0  0  0  0  0  0  0  0  0  0
  183.0150  176.9770  140.3300 O   0  0  0  0  0  1  0  0  0  0  0  0
  181.9150  176.9260  138.1630 C   0  0  2  0  0  0  0  0  0  0  0  0
  183.7420  178.4780  138.6110 C   0  0  2  0  0  3  0  0  0  0  0  0
  181.1290  178.2450  138.3750 C   0  0  2  0  0  3  0  0  0  0  0  0
  182.3260  179.6200  138.5430 S   0  0  0  0  0  0  0  0  0  0  0  0
  183.2230  177.0880  138.9490 C   0  0  1  0  0  3  0  0  0  0  0  0
  184.5810  179.9000  140.3320 O   0  0  0  0  0  1  0  0  0  0  0  0
  184.8160  178.9530  139.5400 C   0  0  0  0  0  0  0  0  0  0  0  0
  186.0900  178.3960  139.4920 O   0  0  0  0  0  0  0  0  0  0  0  0
  181.1680  175.6270  138.5860 C   0  0  0  0  0  2  0  0  0  0  0  0
  179.9880  175.3980  137.8730 O   0  0  0  0  0  0  0  0  0  0  0  0
  179.1230  174.8240  138.8040 C   0  0  0  0  0  2  0  0  0  0  0  0
  179.8880  174.4980  140.0680 C   0  0  0  0  0  1  0  0  0  0  0  0
  180.1870  178.2540  139.5760 C   0  0  0  0  0  2  0  0  0  0  0  0
  180.0020  179.6400  140.1040 C   0  0  0  0  0  3  0  0  0  0  0  0
  180.1380  179.9070  141.4010 C   0  0  0  0  0  2  0  0  0  0  0  0
  189.9100  175.3390  137.3830 C   0  0  0  0  0  2  0  0  0  0  0  0
  191.0170  176.3390  137.7650 C   0  0  1  0  0  3  0  0  0  0  0  0
  192.2540  176.9900  139.8360 C   0  0  0  0  0  3  0  0  0  0  0  0
  191.1220  177.3520  141.9590 C   0  0  0  0  0  0  0  0  0  0  0  0
  189.8530  176.7390  139.9790 C   0  0  0  0  0  3  0  0  0  0  0  0
  189.8990  177.0600  141.3390 C   0  0  0  0  0  3  0  0  0  0  0  0
  192.3010  177.3120  141.1960 C   0  0  0  0  0  3  0  0  0  0  0  0
  191.0320  176.7090  139.2210 C   0  0  0  0  0  0  0  0  0  0  0  0
  191.1590  177.6820  143.3560 N   0  0  0  0  0  0  0  0  0  0  0  0
  191.5690  176.7610  144.2610 O   0  0  0  0  0  1  0  0  0  0  0  0
  190.7680  178.9980  143.8370 C   0  0  0  0  0  1  0  0  0  0  0  0
  192.2960  176.0210  137.2530 O   0  0  0  0  0  0  0  0  0  0  0  0
  192.2640  174.7270  136.7030 C   0  0  0  0  0  2  0  0  0  0  0  0
  194.2290  174.4460  138.2220 C   0  0  0  0  0  3  0  0  0  0  0  0
  194.7630  171.9370  137.1710 C   0  0  0  0  0  0  0  0  0  0  0  0
  193.6790  172.6670  136.6810 C   0  0  0  0  0  3  0  0  0  0  0  0
  195.3040  173.6850  138.6860 C   0  0  0  0  0  3  0  0  0  0  0  0
  193.4170  173.9350  137.2080 C   0  0  0  0  0  0  0  0  0  0  0  0
  195.0600  170.5900  136.6200 C   0  0  0  0  0  1  0  0  0  0  0  0
  195.5490  172.4580  138.1530 N   0  0  0  0  0  0  0  0  0  0  0  0
  3  7  1  6  0  0  0
  3  4  1  0  0  0  0
  3  6  1  0  0  0  0
  4 12  1  6  0  0  0
  5 36  1  6  0  0  0
  6  2  1  6  0  0  0
  8  4  1  0  0  0  0
  8  9  1  0  0  0  0
  9  5  1  0  0  0  0
  9  1  1  1  0  0  0
 10  6  1  0  0  0  0
 10  5  1  0  0  0  0
 12 11  1  1  0  0  0
 12 13  1  0  0  0  0
 13 19  1  6  0  0  0
 15 14  1  6  0  0  0
 15 17  1  0  0  0  0
 15 13  1  0  0  0  0
 16 17  2  0  0  0  0
 17 18  1  0  0  0  0
 19 21  1  0  0  0  0
 21 23  1  0  0  0  0
 21 29  1  1  0  0  0
 21 25  1  0  0  0  0
 22 25  1  0  0  0  0
 22 27  1  1  0  0  0
 23 24  1  0  0  0  0
 23 33  1  1  0  0  0
 24 22  1  0  0  0  0
 25 20  1  1  0  0  0
 27 26  1  0  0  0  0
 28 27  2  0  0  0  0
 30 29  1  0  0  0  0
 30 31  1  0  0  0  0
 31 32  1  0  0  0  0
 33 34  1  0  0  0  0
 34 35  2  0  0  0  0
 37 36  1  1  0  0  0
 37 43  1  0  0  0  0
 38 42  1  0  0  0  0
 39 44  1  0  0  0  0
 40 41  2  0  0  0  0
 41 39  1  0  0  0  0
 42 39  2  0  0  0  0
 43 38  2  0  0  0  0
 43 40  1  0  0  0  0
 44 46  1  0  0  0  0
 44 45  1  0  0  0  0
 47 37  1  0  0  0  0
 48 53  1  0  0  0  0
 48 47  1  0  0  0  0
 49 52  1  0  0  0  0
 50 55  1  0  0  0  0
 51 50  2  0  0  0  0
 51 53  1  0  0  0  0
 53 49  2  0  0  0  0
 54 50  1  0  0  0  0
 55 52  2  0  0  0  0
M  END
>  <MODEL>
5

>  <REMARK>
 VINA RESULT:      -5.2      3.419      7.806
  Name = 
  19 active torsions:
  status: ('A' for Active; 'I' for Inactive)
    1  A    between atoms: C_1  and  C_30
    2  A    between atoms: C_2  and  O_28
    3  A    between atoms: C_2  and  C_44
    4  A    between atoms: C_6  and  O_8
    5  A    between atoms: C_6  and  C_46
    6  A    between atoms: C_7  and  O_8
    7  A    between atoms: C_7  and  C_23
    8  A    between atoms: C_7  and  C_43
    9  A    between atoms: N_10  and  C_32
   10  A    between atoms: C_11  and  C_29
   11  A    between atoms: C_12  and  O_14
   12  A    between atoms: O_14  and  C_46
   13  A    between atoms: C_17  and  C_23
   14  A    between atoms: C_19  and  C_49
   15  A    between atoms: C_20  and  C_30
   16  A    between atoms: O_28  and  C_33
   17  A    between atoms: C_33  and  C_49
   18  A    between atoms: C_33  and  C_52
   19  A    between atoms: C_35  and  C_43
                            x       y       z     vdW  Elec       q    Type
                         _______ _______ _______ _____ _____    ______ ____

>  <TORSDO>
F 19

$$$$
=
 OpenBabel10262420403D

 55 58  0  0  1  0  0  0  0  0999 V2000
  185.1300  178.2400  139.2100 C   0  0  0  0  0  1  0  0  0  0  0  0
  185.7850  177.6990  144.7050 O   0  0  0  0  0  1  0  0  0  0  0  0
  184.0570  178.3810  143.1810 C   0  0  1  0  0  3  0  0  0  0  0  0
  183.6660  178.4990  141.7000 C   0  0  2  0  0  3  0  0  0  0  0  0
  186.6210  178.5660  141.2370 C   0  0  2  0  0  3  0  0  0  0  0  0
  185.4950  177.8860  143.3530 C   0  0  1  0  0  3  0  0  0  0  0  0
  183.8050  179.6790  143.9480 C   0  0  0  0  0  1  0  0  0  0  0  0
  184.3370  179.5920  141.1150 O   0  0  0  0  0  0  0  0  0  0  0  0
  185.4680  179.1370  140.3930 C   0  0  2  0  0  3  0  0  0  0  0  0
  186.5110  178.8350  142.7330 C   0  0  0  0  0  2  0  0  0  0  0  0
  181.4740  177.7970  142.4440 O   0  0  0  0  0  1  0  0  0  0  0  0
  182.1410  178.6790  141.5900 C   0  0  2  0  0  3  0  0  0  0  0  0
  181.5580  178.6080  140.1640 C   0  0  2  0  0  3  0  0  0  0  0  0
  179.1390  178.3770  140.8960 C   0  0  0  0  0  1  0  0  0  0  0  0
  180.1310  179.1830  140.0720 C   0  0  1  0  0  3  0  0  0  0  0  0
  180.3820  181.6070  139.5470 O   0  0  0  0  0  0  0  0  0  0  0  0
  180.0710  180.6220  140.4760 C   0  0  0  0  0  0  0  0  0  0  0  0
  179.7650  180.9510  141.6530 O   0  0  0  0  0  1  0  0  0  0  0  0
  181.5910  177.2670  139.7140 O   0  0  0  0  0  0  0  0  0  0  0  0
  182.8580  176.5800  136.4010 O   0  0  0  0  0  1  0  0  0  0  0  0
  181.4680  177.1900  138.2970 C   0  0  2  0  0  0  0  0  0  0  0  0
  182.6690  175.0690  138.2500 C   0  0  2  0  0  3  0  0  0  0  0  0
  180.3170  176.2120  137.9470 C   0  0  2  0  0  3  0  0  0  0  0  0
  180.9530  174.4990  138.0420 S   0  0  0  0  0  0  0  0  0  0  0  0
  182.7540  176.5200  137.7950 C   0  0  1  0  0  3  0  0  0  0  0  0
  184.8800  174.4640  137.5910 O   0  0  0  0  0  1  0  0  0  0  0  0
  183.6560  174.1760  137.5640 C   0  0  0  0  0  0  0  0  0  0  0  0
  183.2270  173.0640  136.8470 O   0  0  0  0  0  0  0  0  0  0  0  0
  181.3240  178.6270  137.7150 C   0  0  0  0  0  2  0  0  0  0  0  0
  180.0340  178.9310  137.2750 O   0  0  0  0  0  0  0  0  0  0  0  0
  180.2140  179.9510  136.3410 C   0  0  0  0  0  2  0  0  0  0  0  0
  181.1870  179.4940  135.2770 C   0  0  0  0  0  1  0  0  0  0  0  0
  179.6740  176.4300  136.5800 C   0  0  0  0  0  2  0  0  0  0  0  0
  179.1390  175.1490  136.0270 C   0  0  0  0  0  3  0  0  0  0  0  0
  179.8470  174.4220  135.1650 C   0  0  0  0  0  2  0  0  0  0  0  0
  187.9780  179.0120  140.6960 C   0  0  0  0  0  2  0  0  0  0  0  0
  189.0650  177.9290  140.8320 C   0  0  1  0  0  3  0  0  0  0  0  0
  189.1320  176.5000  142.8820 C   0  0  0  0  0  3  0  0  0  0  0  0
  190.2730  177.2040  144.9110 C   0  0  0  0  0  0  0  0  0  0  0  0
  190.2640  178.6370  142.9490 C   0  0  0  0  0  3  0  0  0  0  0  0
  190.6430  178.3950  144.2720 C   0  0  0  0  0  3  0  0  0  0  0  0
  189.5120  176.2580  144.2050 C   0  0  0  0  0  3  0  0  0  0  0  0
  189.5110  177.6850  142.2470 C   0  0  0  0  0  0  0  0  0  0  0  0
  190.6680  176.9650  146.2710 N   0  0  0  0  0  0  0  0  0  0  0  0
  191.9560  176.6620  146.5610 O   0  0  0  0  0  1  0  0  0  0  0  0
  189.7120  177.0420  147.3660 C   0  0  0  0  0  1  0  0  0  0  0  0
  188.8010  176.7400  140.1140 O   0  0  0  0  0  0  0  0  0  0  0  0
  189.8950  176.4560  139.2770 C   0  0  0  0  0  2  0  0  0  0  0  0
  190.4540  176.5490  136.8430 C   0  0  0  0  0  3  0  0  0  0  0  0
  187.7810  176.8690  136.1760 C   0  0  0  0  0  0  0  0  0  0  0  0
  188.1420  176.7460  137.5200 C   0  0  0  0  0  3  0  0  0  0  0  0
  190.0530  176.6740  135.5110 C   0  0  0  0  0  3  0  0  0  0  0  0
  189.4900  176.5930  137.8530 C   0  0  0  0  0  0  0  0  0  0  0  0
  186.3530  177.0380  135.8040 C   0  0  0  0  0  1  0  0  0  0  0  0
  188.7370  176.8340  135.2070 N   0  0  0  0  0  0  0  0  0  0  0  0
  3  6  1  0  0  0  0
  3  7  1  6  0  0  0
  4 12  1  1  0  0  0
  4  3  1  0  0  0  0
  5 36  1  6  0  0  0
  5 10  1  0  0  0  0
  6  2  1  1  0  0  0
  8  4  1  0  0  0  0
  9  1  1  6  0  0  0
  9  8  1  0  0  0  0
  9  5  1  0  0  0  0
 10  6  1  0  0  0  0
 12 11  1  1  0  0  0
 13 19  1  1  0  0  0
 13 12  1  0  0  0  0
 15 13  1  0  0  0  0
 15 17  1  0  0  0  0
 15 14  1  1  0  0  0
 16 17  2  0  0  0  0
 17 18  1  0  0  0  0
 21 29  1  6  0  0  0
 21 19  1  0  0  0  0
 22 27  1  6  0  0  0
 23 33  1  6  0  0  0
 23 24  1  0  0  0  0
 23 21  1  0  0  0  0
 24 22  1  0  0  0  0
 25 20  1  6  0  0  0
 25 22  1  0  0  0  0
 25 21  1  0  0  0  0
 27 26  1  0  0  0  0
 28 27  2  0  0  0  0
 30 29  1  0  0  0  0
 31 30  1  0  0  0  0
 32 31  1  0  0  0  0
 34 33  1  0  0  0  0
 35 34  2  0  0  0  0
 37 36  1  1  0  0  0
 37 43  1  0  0  0  0
 38 42  1  0  0  0  0
 39 44  1  0  0  0  0
 40 41  2  0  0  0  0
 41 39  1  0  0  0  0
 42 39  2  0  0  0  0
 43 38  2  0  0  0  0
 43 40  1  0  0  0  0
 44 45  1  0  0  0  0
 44 46  1  0  0  0  0
 47 37  1  0  0  0  0
 48 47  1  0  0  0  0
 49 53  1  0  0  0  0
 50 51  1  0  0  0  0
 51 53  2  0  0  0  0
 52 49  2  0  0  0  0
 53 48  1  0  0  0  0
 54 50  1  0  0  0  0
 55 52  1  0  0  0  0
 55 50  2  0  0  0  0
M  END
>  <MODEL>
6

>  <REMARK>
 VINA RESULT:      -5.0      2.165      5.461
  Name = 
  19 active torsions:
  status: ('A' for Active; 'I' for Inactive)
    1  A    between atoms: C_1  and  C_30
    2  A    between atoms: C_2  and  O_28
    3  A    between atoms: C_2  and  C_44
    4  A    between atoms: C_6  and  O_8
    5  A    between atoms: C_6  and  C_46
    6  A    between atoms: C_7  and  O_8
    7  A    between atoms: C_7  and  C_23
    8  A    between atoms: C_7  and  C_43
    9  A    between atoms: N_10  and  C_32
   10  A    between atoms: C_11  and  C_29
   11  A    between atoms: C_12  and  O_14
   12  A    between atoms: O_14  and  C_46
   13  A    between atoms: C_17  and  C_23
   14  A    between atoms: C_19  and  C_49
   15  A    between atoms: C_20  and  C_30
   16  A    between atoms: O_28  and  C_33
   17  A    between atoms: C_33  and  C_49
   18  A    between atoms: C_33  and  C_52
   19  A    between atoms: C_35  and  C_43
                            x       y       z     vdW  Elec       q    Type
                         _______ _______ _______ _____ _____    ______ ____

>  <TORSDO>
F 19

$$$$
=
 OpenBabel10262420403D

 55 58  0  0  1  0  0  0  0  0999 V2000
  184.6800  177.8310  139.6200 C   0  0  0  0  0  1  0  0  0  0  0  0
  186.2590  175.7180  134.7260 O   0  0  0  0  0  1  0  0  0  0  0  0
  187.1690  177.1690  136.4100 C   0  0  1  0  0  3  0  0  0  0  0  0
  186.9440  177.7640  137.8080 C   0  0  2  0  0  3  0  0  0  0  0  0
  184.0540  177.2450  137.2330 C   0  0  2  0  0  3  0  0  0  0  0  0
  185.9820  176.3180  135.9540 C   0  0  1  0  0  3  0  0  0  0  0  0
  187.5330  178.2390  135.3810 C   0  0  0  0  0  1  0  0  0  0  0  0
  185.9680  178.7800  137.7430 O   0  0  0  0  0  0  0  0  0  0  0  0
  184.7140  178.2760  138.1650 C   0  0  2  0  0  3  0  0  0  0  0  0
  184.6950  177.1270  135.8550 C   0  0  0  0  0  2  0  0  0  0  0  0
  188.6900  179.4210  137.5850 O   0  0  0  0  0  1  0  0  0  0  0  0
  188.2730  178.3240  138.3430 C   0  0  2  0  0  3  0  0  0  0  0  0
  189.4170  177.3020  138.5050 C   0  0  2  0  0  3  0  0  0  0  0  0
  190.6380  176.8200  136.3320 C   0  0  0  0  0  1  0  0  0  0  0  0
  189.5520  176.3600  137.2940 C   0  0  1  0  0  3  0  0  0  0  0  0
  188.7850  174.0080  137.5920 O   0  0  0  0  0  0  0  0  0  0  0  0
  189.8050  174.9430  137.7000 C   0  0  0  0  0  0  0  0  0  0  0  0
  190.9240  174.5940  138.1620 O   0  0  0  0  0  1  0  0  0  0  0  0
  189.2190  176.5670  139.6970 O   0  0  0  0  0  0  0  0  0  0  0  0
  189.4070  179.0730  142.2940 O   0  0  0  0  0  1  0  0  0  0  0  0
  189.8440  177.2000  140.8090 C   0  0  2  0  0  0  0  0  0  0  0  0
  187.7070  177.4190  141.9610 C   0  0  2  0  0  3  0  0  0  0  0  0
  190.0190  176.1600  141.9450 C   0  0  2  0  0  3  0  0  0  0  0  0
  188.4350  176.0070  142.8490 S   0  0  0  0  0  0  0  0  0  0  0  0
  188.8340  178.2280  141.3350 C   0  0  1  0  0  3  0  0  0  0  0  0
  186.2010  179.2290  142.3430 O   0  0  0  0  0  0  0  0  0  0  0  0
  186.8020  178.2380  142.8300 C   0  0  0  0  0  0  0  0  0  0  0  0
  186.6680  177.9490  144.1830 O   0  0  0  0  0  1  0  0  0  0  0  0
  191.1530  177.8970  140.3340 C   0  0  0  0  0  2  0  0  0  0  0  0
  192.0710  177.0280  139.7400 O   0  0  0  0  0  0  0  0  0  0  0  0
  193.3180  177.5370  140.0990 C   0  0  0  0  0  2  0  0  0  0  0  0
  194.3120  176.4020  140.2170 C   0  0  0  0  0  1  0  0  0  0  0  0
  191.1340  176.4670  142.9410 C   0  0  0  0  0  2  0  0  0  0  0  0
  190.5900  176.6360  144.3220 C   0  0  0  0  0  3  0  0  0  0  0  0
  191.3970  176.8540  145.3590 C   0  0  0  0  0  2  0  0  0  0  0  0
  182.5490  177.4810  137.1200 C   0  0  0  0  0  2  0  0  0  0  0  0
  181.9860  178.3370  138.2700 C   0  0  1  0  0  3  0  0  0  0  0  0
  181.1040  179.9860  136.6110 C   0  0  0  0  0  3  0  0  0  0  0  0
  181.0560  182.3750  137.0650 C   0  0  0  0  0  0  0  0  0  0  0  0
  181.9100  180.8270  138.7310 C   0  0  0  0  0  3  0  0  0  0  0  0
  181.6130  182.1320  138.3280 C   0  0  0  0  0  3  0  0  0  0  0  0
  180.8060  181.2910  136.2080 C   0  0  0  0  0  3  0  0  0  0  0  0
  181.6510  179.7480  137.8750 C   0  0  0  0  0  0  0  0  0  0  0  0
  180.7530  183.7200  136.6590 N   0  0  0  0  0  0  0  0  0  0  0  0
  181.4630  184.7570  137.1630 O   0  0  0  0  0  1  0  0  0  0  0  0
  179.6920  184.0050  135.7060 C   0  0  0  0  0  1  0  0  0  0  0  0
  180.9690  177.7090  139.0250 O   0  0  0  0  0  0  0  0  0  0  0  0
  181.5340  177.1550  140.1880 C   0  0  0  0  0  2  0  0  0  0  0  0
  180.1970  178.8400  141.4610 C   0  0  0  0  0  3  0  0  0  0  0  0
  182.2160  179.1160  143.3420 C   0  0  0  0  0  0  0  0  0  0  0  0
  182.3880  178.2290  142.2770 C   0  0  0  0  0  3  0  0  0  0  0  0
  180.0620  179.7160  142.5400 C   0  0  0  0  0  3  0  0  0  0  0  0
  181.3730  178.0980  141.3270 C   0  0  0  0  0  0  0  0  0  0  0  0
  183.2880  179.2720  144.3580 C   0  0  0  0  0  1  0  0  0  0  0  0
  181.0670  179.8370  143.4490 N   0  0  0  0  0  0  0  0  0  0  0  0
  3  7  1  6  0  0  0
  3  4  1  0  0  0  0
  4 12  1  6  0  0  0
  5 36  1  6  0  0  0
  5  9  1  0  0  0  0
  6  2  1  6  0  0  0
  6  3  1  0  0  0  0
  8  4  1  0  0  0  0
  8  9  1  0  0  0  0
  9  1  1  1  0  0  0
 10  6  1  0  0  0  0
 10  5  1  0  0  0  0
 12 11  1  6  0  0  0
 12 13  1  0  0  0  0
 13 19  1  1  0  0  0
 15 14  1  6  0  0  0
 15 17  1  0  0  0  0
 15 13  1  0  0  0  0
 16 17  2  0  0  0  0
 17 18  1  0  0  0  0
 19 21  1  0  0  0  0
 21 29  1  6  0  0  0
 21 25  1  0  0  0  0
 21 23  1  0  0  0  0
 22 27  1  1  0  0  0
 22 24  1  0  0  0  0
 23 24  1  0  0  0  0
 23 33  1  1  0  0  0
 25 22  1  0  0  0  0
 25 20  1  1  0  0  0
 26 27  2  0  0  0  0
 27 28  1  0  0  0  0
 30 31  1  0  0  0  0
 30 29  1  0  0  0  0
 31 32  1  0  0  0  0
 33 34  1  0  0  0  0
 34 35  2  0  0  0  0
 37 36  1  6  0  0  0
 37 47  1  0  0  0  0
 38 43  1  0  0  0  0
 39 41  2  0  0  0  0
 41 40  1  0  0  0  0
 42 38  2  0  0  0  0
 42 39  1  0  0  0  0
 43 37  1  0  0  0  0
 43 40  2  0  0  0  0
 44 39  1  0  0  0  0
 44 45  1  0  0  0  0
 46 44  1  0  0  0  0
 47 48  1  0  0  0  0
 48 53  1  0  0  0  0
 49 52  1  0  0  0  0
 50 55  1  0  0  0  0
 50 54  1  0  0  0  0
 51 50  2  0  0  0  0
 52 55  2  0  0  0  0
 53 49  2  0  0  0  0
 53 51  1  0  0  0  0
M  END
>  <MODEL>
7

>  <REMARK>
 VINA RESULT:      -4.8      3.463      9.412
  Name = 
  19 active torsions:
  status: ('A' for Active; 'I' for Inactive)
    1  A    between atoms: C_1  and  C_30
    2  A    between atoms: C_2  and  O_28
    3  A    between atoms: C_2  and  C_44
    4  A    between atoms: C_6  and  O_8
    5  A    between atoms: C_6  and  C_46
    6  A    between atoms: C_7  and  O_8
    7  A    between atoms: C_7  and  C_23
    8  A    between atoms: C_7  and  C_43
    9  A    between atoms: N_10  and  C_32
   10  A    between atoms: C_11  and  C_29
   11  A    between atoms: C_12  and  O_14
   12  A    between atoms: O_14  and  C_46
   13  A    between atoms: C_17  and  C_23
   14  A    between atoms: C_19  and  C_49
   15  A    between atoms: C_20  and  C_30
   16  A    between atoms: O_28  and  C_33
   17  A    between atoms: C_33  and  C_49
   18  A    between atoms: C_33  and  C_52
   19  A    between atoms: C_35  and  C_43
                            x       y       z     vdW  Elec       q    Type
                         _______ _______ _______ _____ _____    ______ ____

>  <TORSDO>
F 19

$$$$
=
 OpenBabel10262420403D

 55 58  0  0  1  0  0  0  0  0999 V2000
  187.2810  177.1000  137.9580 C   0  0  0  0  0  1  0  0  0  0  0  0
  183.4230  178.4360  141.7330 O   0  0  0  0  0  1  0  0  0  0  0  0
  183.6190  178.3750  139.3400 C   0  0  1  0  0  3  0  0  0  0  0  0
  184.5190  177.9620  138.1650 C   0  0  2  0  0  3  0  0  0  0  0  0
  186.7330  178.2400  140.1580 C   0  0  2  0  0  3  0  0  0  0  0  0
  184.3010  178.1420  140.6890 C   0  0  1  0  0  3  0  0  0  0  0  0
  183.1090  179.8090  139.1980 C   0  0  0  0  0  1  0  0  0  0  0  0
  185.5790  178.8830  138.0290 O   0  0  0  0  0  0  0  0  0  0  0  0
  186.7530  178.3630  138.6250 C   0  0  2  0  0  3  0  0  0  0  0  0
  185.5770  178.9590  140.8420 C   0  0  0  0  0  2  0  0  0  0  0  0
  182.3800  178.3610  137.1110 O   0  0  0  0  0  1  0  0  0  0  0  0
  183.6810  177.9090  136.8760 C   0  0  2  0  0  3  0  0  0  0  0  0
  183.6660  176.5530  136.1390 C   0  0  2  0  0  3  0  0  0  0  0  0
  185.1390  177.9250  134.5940 C   0  0  0  0  0  1  0  0  0  0  0  0
  184.4860  176.5720  134.8360 C   0  0  1  0  0  3  0  0  0  0  0  0
  186.8650  175.8350  134.9350 O   0  0  0  0  0  1  0  0  0  0  0  0
  185.5250  175.4970  134.8010 C   0  0  0  0  0  0  0  0  0  0  0  0
  185.2010  174.2920  134.6280 O   0  0  0  0  0  0  0  0  0  0  0  0
  182.3260  176.1760  135.8870 O   0  0  0  0  0  0  0  0  0  0  0  0
  181.4090  174.3350  138.8580 O   0  0  0  0  0  1  0  0  0  0  0  0
  181.9790  174.9850  136.5870 C   0  0  2  0  0  0  0  0  0  0  0  0
  180.2370  176.1540  137.8310 C   0  0  2  0  0  3  0  0  0  0  0  0
  180.7070  174.3780  135.9440 C   0  0  2  0  0  3  0  0  0  0  0  0
  179.2410  175.2580  136.5990 S   0  0  0  0  0  0  0  0  0  0  0  0
  181.5650  175.4280  137.9970 C   0  0  1  0  0  3  0  0  0  0  0  0
  179.1260  175.3560  139.7840 O   0  0  0  0  0  1  0  0  0  0  0  0
  179.5060  176.3550  139.1220 C   0  0  0  0  0  0  0  0  0  0  0  0
  179.1900  177.6350  139.5650 O   0  0  0  0  0  0  0  0  0  0  0  0
  183.2170  174.0420  136.6400 C   0  0  0  0  0  2  0  0  0  0  0  0
  183.6070  173.6950  137.9360 O   0  0  0  0  0  0  0  0  0  0  0  0
  184.9870  173.8920  137.9500 C   0  0  0  0  0  2  0  0  0  0  0  0
  185.6810  172.6270  137.4950 C   0  0  0  0  0  1  0  0  0  0  0  0
  180.5240  172.8770  136.1580 C   0  0  0  0  0  2  0  0  0  0  0  0
  181.2940  172.0930  135.1450 C   0  0  0  0  0  3  0  0  0  0  0  0
  181.9590  170.9920  135.4870 C   0  0  0  0  0  2  0  0  0  0  0  0
  188.0730  178.6520  140.7660 C   0  0  0  0  0  2  0  0  0  0  0  0
  188.9100  177.4520  141.2460 C   0  0  1  0  0  3  0  0  0  0  0  0
  189.8480  176.4180  139.1730 C   0  0  0  0  0  3  0  0  0  0  0  0
  192.2310  176.4350  138.6840 C   0  0  0  0  0  0  0  0  0  0  0  0
  191.3860  177.4770  140.7110 C   0  0  0  0  0  3  0  0  0  0  0  0
  192.4550  177.1360  139.8780 C   0  0  0  0  0  3  0  0  0  0  0  0
  190.9170  176.0770  138.3390 C   0  0  0  0  0  3  0  0  0  0  0  0
  190.0760  177.1240  140.3570 C   0  0  0  0  0  0  0  0  0  0  0  0
  193.3360  176.0900  137.8340 N   0  0  0  0  0  0  0  0  0  0  0  0
  194.5610  175.8720  138.3680 O   0  0  0  0  0  1  0  0  0  0  0  0
  193.1750  175.9610  136.3940 C   0  0  0  0  0  1  0  0  0  0  0  0
  189.2430  177.4820  142.6210 O   0  0  0  0  0  0  0  0  0  0  0  0
  188.4660  176.5290  143.3040 C   0  0  0  0  0  2  0  0  0  0  0  0
  188.3340  177.2180  145.7030 C   0  0  0  0  0  3  0  0  0  0  0  0
  185.8470  178.3760  145.3000 C   0  0  0  0  0  0  0  0  0  0  0  0
  186.5010  177.7670  144.2270 C   0  0  0  0  0  3  0  0  0  0  0  0
  187.6490  177.8370  146.7510 C   0  0  0  0  0  3  0  0  0  0  0  0
  187.7510  177.1780  144.4350 C   0  0  0  0  0  0  0  0  0  0  0  0
  184.5160  179.0030  145.0980 C   0  0  0  0  0  1  0  0  0  0  0  0
  186.4290  178.3950  146.5310 N   0  0  0  0  0  0  0  0  0  0  0  0
  3  7  1  6  0  0  0
  3  6  1  0  0  0  0
  4 12  1  6  0  0  0
  4  3  1  0  0  0  0
  5 36  1  1  0  0  0
  5 10  1  0  0  0  0
  6 10  1  0  0  0  0
  6  2  1  1  0  0  0
  8  4  1  0  0  0  0
  8  9  1  0  0  0  0
  9  1  1  6  0  0  0
  9  5  1  0  0  0  0
 12 11  1  1  0  0  0
 13 19  1  6  0  0  0
 13 12  1  0  0  0  0
 15 14  1  1  0  0  0
 15 13  1  0  0  0  0
 17 15  1  0  0  0  0
 17 16  1  0  0  0  0
 18 17  2  0  0  0  0
 19 21  1  0  0  0  0
 21 29  1  1  0  0  0
 21 25  1  0  0  0  0
 22 25  1  0  0  0  0
 22 27  1  1  0  0  0
 23 33  1  1  0  0  0
 23 21  1  0  0  0  0
 23 24  1  0  0  0  0
 24 22  1  0  0  0  0
 25 20  1  1  0  0  0
 27 28  2  0  0  0  0
 27 26  1  0  0  0  0
 29 30  1  0  0  0  0
 30 31  1  0  0  0  0
 32 31  1  0  0  0  0
 34 35  2  0  0  0  0
 34 33  1  0  0  0  0
 37 36  1  6  0  0  0
 37 47  1  0  0  0  0
 38 43  1  0  0  0  0
 39 41  2  0  0  0  0
 41 40  1  0  0  0  0
 42 39  1  0  0  0  0
 42 38  2  0  0  0  0
 43 40  2  0  0  0  0
 43 37  1  0  0  0  0
 44 45  1  0  0  0  0
 44 39  1  0  0  0  0
 46 44  1  0  0  0  0
 47 48  1  0  0  0  0
 48 53  1  0  0  0  0
 49 52  1  0  0  0  0
 50 55  1  0  0  0  0
 51 53  1  0  0  0  0
 51 50  2  0  0  0  0
 53 49  2  0  0  0  0
 54 50  1  0  0  0  0
 55 52  2  0  0  0  0
M  END
>  <MODEL>
8

>  <REMARK>
 VINA RESULT:      -4.7      2.376      4.314
  Name = 
  19 active torsions:
  status: ('A' for Active; 'I' for Inactive)
    1  A    between atoms: C_1  and  C_30
    2  A    between atoms: C_2  and  O_28
    3  A    between atoms: C_2  and  C_44
    4  A    between atoms: C_6  and  O_8
    5  A    between atoms: C_6  and  C_46
    6  A    between atoms: C_7  and  O_8
    7  A    between atoms: C_7  and  C_23
    8  A    between atoms: C_7  and  C_43
    9  A    between atoms: N_10  and  C_32
   10  A    between atoms: C_11  and  C_29
   11  A    between atoms: C_12  and  O_14
   12  A    between atoms: O_14  and  C_46
   13  A    between atoms: C_17  and  C_23
   14  A    between atoms: C_19  and  C_49
   15  A    between atoms: C_20  and  C_30
   16  A    between atoms: O_28  and  C_33
   17  A    between atoms: C_33  and  C_49
   18  A    between atoms: C_33  and  C_52
   19  A    between atoms: C_35  and  C_43
                            x       y       z     vdW  Elec       q    Type
                         _______ _______ _______ _____ _____    ______ ____

>  <TORSDO>
F 19

$$$$
=
 OpenBabel10262420403D

 55 58  0  0  1  0  0  0  0  0999 V2000
  184.9910  178.9440  140.2800 C   0  0  0  0  0  1  0  0  0  0  0  0
  186.6720  176.7820  145.1190 O   0  0  0  0  0  1  0  0  0  0  0  0
  184.7800  178.0030  144.2820 C   0  0  1  0  0  3  0  0  0  0  0  0
  184.1150  178.5750  143.0200 C   0  0  2  0  0  3  0  0  0  0  0  0
  186.8940  178.5560  141.9120 C   0  0  2  0  0  3  0  0  0  0  0  0
  186.1410  177.3750  143.9730 C   0  0  1  0  0  3  0  0  0  0  0  0
  184.8700  179.0370  145.4040 C   0  0  0  0  0  1  0  0  0  0  0  0
  184.7970  179.7380  142.6070 O   0  0  0  0  0  0  0  0  0  0  0  0
  185.6830  179.4300  141.5460 C   0  0  2  0  0  3  0  0  0  0  0  0
  187.1300  178.3850  143.4090 C   0  0  0  0  0  2  0  0  0  0  0  0
  182.0650  177.8830  144.1000 O   0  0  0  0  0  1  0  0  0  0  0  0
  182.6390  178.8920  143.3220 C   0  0  2  0  0  3  0  0  0  0  0  0
  181.7560  179.2100  142.0980 C   0  0  2  0  0  3  0  0  0  0  0  0
  179.7260  180.5370  141.3480 C   0  0  0  0  0  1  0  0  0  0  0  0
  180.3720  179.7630  142.4880 C   0  0  1  0  0  3  0  0  0  0  0  0
  179.1290  178.6020  144.3100 O   0  0  0  0  0  1  0  0  0  0  0  0
  179.4430  178.6900  142.9600 C   0  0  0  0  0  0  0  0  0  0  0  0
  178.9620  177.8510  142.1520 O   0  0  0  0  0  0  0  0  0  0  0  0
  181.6300  178.0480  141.3010 O   0  0  0  0  0  0  0  0  0  0  0  0
  182.6310  177.8390  137.8350 O   0  0  0  0  0  1  0  0  0  0  0  0
  181.5060  178.3760  139.9200 C   0  0  2  0  0  0  0  0  0  0  0  0
  181.9200  176.0610  139.2750 C   0  0  2  0  0  3  0  0  0  0  0  0
  180.0960  177.9540  139.4310 C   0  0  2  0  0  3  0  0  0  0  0  0
  180.1150  176.1610  139.0630 S   0  0  0  0  0  0  0  0  0  0  0  0
  182.4950  177.4680  139.1780 C   0  0  1  0  0  3  0  0  0  0  0  0
  183.8010  174.9250  138.3490 O   0  0  0  0  0  1  0  0  0  0  0  0
  182.5560  175.0950  138.3240 C   0  0  0  0  0  0  0  0  0  0  0  0
  181.7900  174.4310  137.3710 O   0  0  0  0  0  0  0  0  0  0  0  0
  181.8630  179.8770  139.7140 C   0  0  0  0  0  2  0  0  0  0  0  0
  182.0350  180.2370  138.3750 O   0  0  0  0  0  0  0  0  0  0  0  0
  181.7940  181.6100  138.3490 C   0  0  0  0  0  2  0  0  0  0  0  0
  180.8070  181.9280  137.2470 C   0  0  0  0  0  1  0  0  0  0  0  0
  179.5820  178.7090  138.2080 C   0  0  0  0  0  2  0  0  0  0  0  0
  179.2650  177.7680  137.0900 C   0  0  0  0  0  3  0  0  0  0  0  0
  179.2690  178.1780  135.8230 C   0  0  0  0  0  2  0  0  0  0  0  0
  188.1610  179.0380  141.2080 C   0  0  0  0  0  2  0  0  0  0  0  0
  189.1820  177.9100  140.9680 C   0  0  1  0  0  3  0  0  0  0  0  0
  190.2680  178.3060  143.1840 C   0  0  0  0  0  3  0  0  0  0  0  0
  191.0940  176.4800  144.5630 C   0  0  0  0  0  0  0  0  0  0  0  0
  190.0310  176.0210  142.4270 C   0  0  0  0  0  3  0  0  0  0  0  0
  190.6590  175.5690  143.5910 C   0  0  0  0  0  3  0  0  0  0  0  0
  190.8950  177.8540  144.3490 C   0  0  0  0  0  3  0  0  0  0  0  0
  189.8280  177.3930  142.2230 C   0  0  0  0  0  0  0  0  0  0  0  0
  191.7370  176.0060  145.7570 N   0  0  0  0  0  0  0  0  0  0  0  0
  192.4320  174.8440  145.7380 O   0  0  0  0  0  1  0  0  0  0  0  0
  191.6680  176.7510  147.0050 C   0  0  0  0  0  1  0  0  0  0  0  0
  188.7310  176.8840  140.1050 O   0  0  0  0  0  0  0  0  0  0  0  0
  188.5300  177.4190  138.8200 C   0  0  0  0  0  2  0  0  0  0  0  0
  189.2830  176.6880  136.5520 C   0  0  0  0  0  3  0  0  0  0  0  0
  191.8580  176.2400  137.4800 C   0  0  0  0  0  0  0  0  0  0  0  0
  190.8810  176.7040  138.3650 C   0  0  0  0  0  3  0  0  0  0  0  0
  190.2880  176.2250  135.6980 C   0  0  0  0  0  3  0  0  0  0  0  0
  189.5830  176.9210  137.8950 C   0  0  0  0  0  0  0  0  0  0  0  0
  193.2410  175.9990  137.9630 C   0  0  0  0  0  1  0  0  0  0  0  0
  191.5420  176.0100  136.1760 N   0  0  0  0  0  0  0  0  0  0  0  0
  3  7  1  1  0  0  0
  4 12  1  1  0  0  0
  4  3  1  0  0  0  0
  5 36  1  1  0  0  0
  5 10  1  0  0  0  0
  6  3  1  0  0  0  0
  6  2  1  1  0  0  0
  8  4  1  0  0  0  0
  9  1  1  6  0  0  0
  9  5  1  0  0  0  0
  9  8  1  0  0  0  0
 10  6  1  0  0  0  0
 12 11  1  6  0  0  0
 13 19  1  1  0  0  0
 13 15  1  0  0  0  0
 13 12  1  0  0  0  0
 15 14  1  6  0  0  0
 15 17  1  0  0  0  0
 17 16  1  0  0  0  0
 18 17  2  0  0  0  0
 21 29  1  6  0  0  0
 21 19  1  0  0  0  0
 22 27  1  6  0  0  0
 23 33  1  6  0  0  0
 23 21  1  0  0  0  0
 24 22  1  0  0  0  0
 24 23  1  0  0  0  0
 25 20  1  6  0  0  0
 25 22  1  0  0  0  0
 25 21  1  0  0  0  0
 27 26  1  0  0  0  0
 28 27  2  0  0  0  0
 30 29  1  0  0  0  0
 31 30  1  0  0  0  0
 32 31  1  0  0  0  0
 34 33  1  0  0  0  0
 35 34  2  0  0  0  0
 37 36  1  1  0  0  0
 37 43  1  0  0  0  0
 38 42  1  0  0  0  0
 39 44  1  0  0  0  0
 40 41  2  0  0  0  0
 41 39  1  0  0  0  0
 42 39  2  0  0  0  0
 43 40  1  0  0  0  0
 43 38  2  0  0  0  0
 44 46  1  0  0  0  0
 45 44  1  0  0  0  0
 47 37  1  0  0  0  0
 48 47  1  0  0  0  0
 49 53  1  0  0  0  0
 50 54  1  0  0  0  0
 50 51  1  0  0  0  0
 52 55  1  0  0  0  0
 52 49  2  0  0  0  0
 53 51  2  0  0  0  0
 53 48  1  0  0  0  0
 55 50  2  0  0  0  0
M  END
>  <MODEL>
9

>  <REMARK>
 VINA RESULT:      -4.7      2.272      5.819
  Name = 
  19 active torsions:
  status: ('A' for Active; 'I' for Inactive)
    1  A    between atoms: C_1  and  C_30
    2  A    between atoms: C_2  and  O_28
    3  A    between atoms: C_2  and  C_44
    4  A    between atoms: C_6  and  O_8
    5  A    between atoms: C_6  and  C_46
    6  A    between atoms: C_7  and  O_8
    7  A    between atoms: C_7  and  C_23
    8  A    between atoms: C_7  and  C_43
    9  A    between atoms: N_10  and  C_32
   10  A    between atoms: C_11  and  C_29
   11  A    between atoms: C_12  and  O_14
   12  A    between atoms: O_14  and  C_46
   13  A    between atoms: C_17  and  C_23
   14  A    between atoms: C_19  and  C_49
   15  A    between atoms: C_20  and  C_30
   16  A    between atoms: O_28  and  C_33
   17  A    between atoms: C_33  and  C_49
   18  A    between atoms: C_33  and  C_52
   19  A    between atoms: C_35  and  C_43
                            x       y       z     vdW  Elec       q    Type
                         _______ _______ _______ _____ _____    ______ ____

>  <TORSDO>
F 19

$$$$
