=
 OpenBabel10262422413D

 43 48  0  0  1  0  0  0  0  0999 V2000
  181.2190  178.4780  140.3240 C   0  0  2  0  0  3  0  0  0  0  0  0
  186.6740  178.0360  145.9230 C   0  0  0  0  0  0  0  0  0  0  0  0
  182.8570  178.7320  142.6170 C   0  0  0  0  0  0  0  0  0  0  0  0
  184.7240  177.8350  141.0810 C   0  0  0  0  0  3  0  0  0  0  0  0
  184.6730  178.8260  144.7970 C   0  0  0  0  0  0  0  0  0  0  0  0
  187.0210  177.2700  144.7040 C   0  0  0  0  0  3  0  0  0  0  0  0
  187.5040  177.9460  147.0700 N   0  0  0  0  0  1  0  0  0  0  0  0
  185.2950  178.5150  143.4440 C   0  0  1  0  0  3  0  0  0  0  0  0
  185.5400  178.7400  145.9820 C   0  0  0  0  0  3  0  0  0  0  0  0
  186.3510  177.4480  143.5590 C   0  0  0  0  0  3  0  0  0  0  0  0
  183.8500  177.6890  139.8960 N   0  0  0  0  0  0  0  0  0  0  0  0
  184.2910  178.2840  142.3390 C   0  0  0  0  0  0  0  0  0  0  0  0
  182.4450  179.1640  143.8020 C   0  0  0  0  0  3  0  0  0  0  0  0
  182.0560  178.5890  141.4420 C   0  0  0  0  0  0  0  0  0  0  0  0
  182.5560  178.1050  140.2240 C   0  0  0  0  0  0  0  0  0  0  0  0
  183.3870  179.1780  144.9370 C   0  0  0  0  0  3  0  0  0  0  0  0
  181.6200  181.5020  138.0410 C   0  0  0  0  0  3  0  0  0  0  0  0
  180.4810  182.2480  138.3620 C   0  0  0  0  0  0  0  0  0  0  0  0
  179.8370  180.5600  139.9810 C   0  0  0  0  0  3  0  0  0  0  0  0
  181.8680  180.2870  138.6890 C   0  0  0  0  0  3  0  0  0  0  0  0
  180.9860  179.8140  139.6760 C   0  0  0  0  0  0  0  0  0  0  0  0
  179.5850  181.7710  139.3300 C   0  0  0  0  0  3  0  0  0  0  0  0
  180.6630  183.4320  136.2020 C   0  0  0  0  0  1  0  0  0  0  0  0
  180.2020  183.5270  137.6500 C   0  0  0  0  0  2  0  0  0  0  0  0
  184.2630  177.2520  138.5700 C   0  0  1  0  0  3  0  0  0  0  0  0
  183.0980  177.2920  137.5920 C   0  0  0  0  0  1  0  0  0  0  0  0
  185.4340  179.3290  138.4220 F   0  0  0  0  0  0  0  0  0  0  0  0
  185.5110  177.9930  138.0630 C   0  0  2  0  0  0  0  0  0  0  0  0
  185.5280  177.9240  136.5440 C   0  0  0  0  0  1  0  0  0  0  0  0
  186.8230  177.3940  138.5770 C   0  0  0  0  0  2  0  0  0  0  0  0
  187.5470  178.2940  139.5760 C   0  0  0  0  0  2  0  0  0  0  0  0
  189.0360  178.4610  139.2440 C   0  0  2  0  0  3  0  0  0  0  0  0
  189.3270  178.5880  137.7440 C   0  0  0  0  0  2  0  0  0  0  0  0
  188.8250  179.8000  137.2640 O   0  0  0  0  0  1  0  0  0  0  0  0
  189.9130  177.5220  139.9780 N   0  0  0  0  0  0  0  0  0  0  0  0
  190.5220  176.5640  139.0620 C   0  0  0  0  0  1  0  0  0  0  0  0
  189.3150  176.8500  141.1530 C   0  0  0  0  0  2  0  0  0  0  0  0
  190.0070  177.1060  142.4630 C   0  0  0  0  0  0  0  0  0  0  0  0
  191.3350  176.3350  144.3410 C   0  0  0  0  0  3  0  0  0  0  0  0
  190.6830  178.6610  144.2060 C   0  0  0  0  0  3  0  0  0  0  0  0
  191.3360  177.6270  144.8800 C   0  0  0  0  0  3  0  0  0  0  0  0
  190.0240  178.4010  142.9980 C   0  0  0  0  0  3  0  0  0  0  0  0
  190.6760  176.0760  143.1330 C   0  0  0  0  0  3  0  0  0  0  0  0
  1 21  1  6  0  0  0
  1 14  1  0  0  0  0
  2  9  2  0  0  0  0
  2  7  1  0  0  0  0
  3 13  2  0  0  0  0
  4 12  2  0  0  0  0
  5 16  2  0  0  0  0
  5  9  1  0  0  0  0
  6  2  1  0  0  0  0
  8 10  1  1  0  0  0
  8  5  1  0  0  0  0
 10  6  2  0  0  0  0
 11 15  1  0  0  0  0
 11  4  1  0  0  0  0
 12  3  1  0  0  0  0
 12  8  1  0  0  0  0
 13 16  1  0  0  0  0
 14  3  1  0  0  0  0
 15  1  1  0  0  0  0
 15 14  2  0  0  0  0
 17 18  2  0  0  0  0
 17 20  1  0  0  0  0
 18 22  1  0  0  0  0
 20 21  2  0  0  0  0
 21 19  1  0  0  0  0
 22 19  2  0  0  0  0
 23 24  1  0  0  0  0
 24 18  1  0  0  0  0
 25 26  1  6  0  0  0
 25 11  1  0  0  0  0
 28 29  1  6  0  0  0
 28 27  1  0  0  0  0
 28 25  1  0  0  0  0
 28 30  1  0  0  0  0
 30 31  1  0  0  0  0
 32 33  1  6  0  0  0
 32 31  1  0  0  0  0
 32 35  1  0  0  0  0
 34 33  1  0  0  0  0
 35 37  1  0  0  0  0
 36 35  1  0  0  0  0
 37 38  1  0  0  0  0
 38 42  2  0  0  0  0
 38 43  1  0  0  0  0
 39 41  1  0  0  0  0
 40 41  2  0  0  0  0
 42 40  1  0  0  0  0
 43 39  2  0  0  0  0
M  END
>  <MODEL>
1

>  <REMARK>
 VINA RESULT:      -9.0      0.000      0.000
  Name = 
  11 active torsions:
  status: ('A' for Active; 'I' for Inactive)
    1  A    between atoms: C_1  and  C_35
    2  A    between atoms: C_2  and  C_12
    3  A    between atoms: C_2  and  N_27
    4  A    between atoms: C_4  and  C_6
    5  A    between atoms: C_4  and  C_15
    6  A    between atoms: C_6  and  C_12
    7  A    between atoms: C_10  and  C_15
    8  A    between atoms: C_11  and  C_14
    9  A    between atoms: C_14  and  N_22
   10  A    between atoms: C_15  and  N_22
   11  A    between atoms: C_19  and  C_37
                            x       y       z     vdW  Elec       q    Type
                         _______ _______ _______ _____ _____    ______ ____

>  <TORSDO>
F 11

$$$$
=
 OpenBabel10262422413D

 43 48  0  0  1  0  0  0  0  0999 V2000
  191.5710  177.5000  138.7860 C   0  0  2  0  0  3  0  0  0  0  0  0
  188.1150  177.3480  145.8090 C   0  0  0  0  0  0  0  0  0  0  0  0
  190.7880  177.1050  141.4760 C   0  0  0  0  0  0  0  0  0  0  0  0
  188.4150  177.6100  140.6010 C   0  0  0  0  0  3  0  0  0  0  0  0
  189.7750  176.8330  144.1140 C   0  0  0  0  0  0  0  0  0  0  0  0
  187.2860  177.9850  144.7610 C   0  0  0  0  0  3  0  0  0  0  0  0
  187.6770  177.3630  147.1580 N   0  0  0  0  0  1  0  0  0  0  0  0
  188.7240  176.9700  143.0230 C   0  0  1  0  0  3  0  0  0  0  0  0
  189.3140  176.8390  145.5100 C   0  0  0  0  0  3  0  0  0  0  0  0
  187.5900  177.8580  143.4630 C   0  0  0  0  0  3  0  0  0  0  0  0
  188.8440  177.8330  139.2030 N   0  0  0  0  0  0  0  0  0  0  0  0
  189.2840  177.3020  141.6600 C   0  0  0  0  0  0  0  0  0  0  0  0
  191.6110  176.8050  142.4720 C   0  0  0  0  0  3  0  0  0  0  0  0
  191.1510  177.3130  140.1090 C   0  0  0  0  0  0  0  0  0  0  0  0
  190.2260  177.6480  139.1090 C   0  0  0  0  0  0  0  0  0  0  0  0
  191.0810  176.6990  143.8440 C   0  0  0  0  0  3  0  0  0  0  0  0
  190.9820  174.0540  137.2680 C   0  0  0  0  0  3  0  0  0  0  0  0
  192.2260  173.7890  136.6860 C   0  0  0  0  0  0  0  0  0  0  0  0
  193.0560  175.9210  137.4950 C   0  0  0  0  0  3  0  0  0  0  0  0
  190.7750  175.2510  137.9640 C   0  0  0  0  0  3  0  0  0  0  0  0
  191.8150  176.1870  138.0950 C   0  0  0  0  0  0  0  0  0  0  0  0
  193.2620  174.7280  136.7950 C   0  0  0  0  0  3  0  0  0  0  0  0
  193.7300  171.8570  136.3610 C   0  0  0  0  0  1  0  0  0  0  0  0
  192.4360  172.5280  135.9200 C   0  0  0  0  0  2  0  0  0  0  0  0
  187.9750  178.1300  138.0720 C   0  0  1  0  0  3  0  0  0  0  0  0
  188.6070  179.1630  137.1510 C   0  0  0  0  0  1  0  0  0  0  0  0
  187.6860  175.7590  138.1540 F   0  0  0  0  0  0  0  0  0  0  0  0
  187.5050  176.8640  137.3380 C   0  0  2  0  0  0  0  0  0  0  0  0
  188.3740  176.6730  136.1040 C   0  0  0  0  0  1  0  0  0  0  0  0
  186.0460  176.9350  136.8790 C   0  0  0  0  0  2  0  0  0  0  0  0
  185.1730  177.8080  137.7780 C   0  0  0  0  0  2  0  0  0  0  0  0
  183.7620  177.2330  137.9640 C   0  0  2  0  0  3  0  0  0  0  0  0
  182.7310  177.7850  136.9730 C   0  0  0  0  0  2  0  0  0  0  0  0
  182.4370  176.8210  136.0060 O   0  0  0  0  0  1  0  0  0  0  0  0
  183.3210  177.1970  139.3760 N   0  0  0  0  0  0  0  0  0  0  0  0
  182.4150  176.0780  139.6040 C   0  0  0  0  0  1  0  0  0  0  0  0
  182.7770  178.4610  139.9230 C   0  0  0  0  0  2  0  0  0  0  0  0
  182.7870  178.5700  141.4230 C   0  0  0  0  0  0  0  0  0  0  0  0
  183.9800  178.5970  143.5360 C   0  0  0  0  0  3  0  0  0  0  0  0
  181.5860  178.9480  143.5040 C   0  0  0  0  0  3  0  0  0  0  0  0
  182.7800  178.8320  144.2180 C   0  0  0  0  0  3  0  0  0  0  0  0
  181.5910  178.8220  142.1090 C   0  0  0  0  0  3  0  0  0  0  0  0
  183.9840  178.4700  142.1410 C   0  0  0  0  0  3  0  0  0  0  0  0
  1 21  1  6  0  0  0
  1 15  1  0  0  0  0
  1 14  1  0  0  0  0
  2  7  1  0  0  0  0
  3 12  1  0  0  0  0
  3 13  2  0  0  0  0
  4 12  2  0  0  0  0
  5  9  1  0  0  0  0
  6  2  1  0  0  0  0
  8 10  1  1  0  0  0
  8  5  1  0  0  0  0
  9  2  2  0  0  0  0
 10  6  2  0  0  0  0
 11  4  1  0  0  0  0
 12  8  1  0  0  0  0
 13 16  1  0  0  0  0
 14  3  1  0  0  0  0
 15 11  1  0  0  0  0
 15 14  2  0  0  0  0
 16  5  2  0  0  0  0
 17 20  1  0  0  0  0
 18 22  1  0  0  0  0
 18 17  2  0  0  0  0
 19 21  1  0  0  0  0
 20 21  2  0  0  0  0
 22 19  2  0  0  0  0
 24 23  1  0  0  0  0
 24 18  1  0  0  0  0
 25 26  1  6  0  0  0
 25 11  1  0  0  0  0
 28 29  1  6  0  0  0
 28 25  1  0  0  0  0
 28 27  1  0  0  0  0
 30 28  1  0  0  0  0
 30 31  1  0  0  0  0
 31 32  1  0  0  0  0
 32 33  1  6  0  0  0
 32 35  1  0  0  0  0
 34 33  1  0  0  0  0
 35 36  1  0  0  0  0
 35 37  1  0  0  0  0
 37 38  1  0  0  0  0
 38 42  2  0  0  0  0
 38 43  1  0  0  0  0
 39 41  1  0  0  0  0
 40 41  2  0  0  0  0
 42 40  1  0  0  0  0
 43 39  2  0  0  0  0
M  END
>  <MODEL>
2

>  <REMARK>
 VINA RESULT:      -8.4      2.508      8.366
  Name = 
  11 active torsions:
  status: ('A' for Active; 'I' for Inactive)
    1  A    between atoms: C_1  and  C_35
    2  A    between atoms: C_2  and  C_12
    3  A    between atoms: C_2  and  N_27
    4  A    between atoms: C_4  and  C_6
    5  A    between atoms: C_4  and  C_15
    6  A    between atoms: C_6  and  C_12
    7  A    between atoms: C_10  and  C_15
    8  A    between atoms: C_11  and  C_14
    9  A    between atoms: C_14  and  N_22
   10  A    between atoms: C_15  and  N_22
   11  A    between atoms: C_19  and  C_37
                            x       y       z     vdW  Elec       q    Type
                         _______ _______ _______ _____ _____    ______ ____

>  <TORSDO>
F 11

$$$$
=
 OpenBabel10262422413D

 43 48  0  0  1  0  0  0  0  0999 V2000
  188.1270  178.5360  137.5100 C   0  0  2  0  0  3  0  0  0  0  0  0
  194.6140  174.2200  136.7450 C   0  0  0  0  0  0  0  0  0  0  0  0
  190.2000  176.7690  136.7440 C   0  0  0  0  0  0  0  0  0  0  0  0
  190.8440  176.8350  139.2410 C   0  0  0  0  0  3  0  0  0  0  0  0
  192.4000  175.0580  136.2060 C   0  0  0  0  0  0  0  0  0  0  0  0
  194.5480  174.9580  138.0270 C   0  0  0  0  0  3  0  0  0  0  0  0
  195.7880  173.4980  136.4080 N   0  0  0  0  0  1  0  0  0  0  0  0
  192.1270  175.3240  137.6780 C   0  0  0  0  0  0  0  0  0  0  0  0
  193.6130  174.3010  135.8620 C   0  0  0  0  0  2  0  0  0  0  0  0
  193.4080  175.5200  138.4460 C   0  0  0  0  0  3  0  0  0  0  0  0
  189.7670  177.7750  139.6210 N   0  0  0  0  0  0  0  0  0  0  0  0
  191.0790  176.3810  137.9330 C   0  0  0  0  0  0  0  0  0  0  0  0
  190.4130  176.3360  135.5080 C   0  0  0  0  0  3  0  0  0  0  0  0
  189.1660  177.6630  137.1630 C   0  0  0  0  0  0  0  0  0  0  0  0
  189.0130  178.0950  138.4890 C   0  0  0  0  0  0  0  0  0  0  0  0
  191.5780  175.4740  135.2330 C   0  0  0  0  0  3  0  0  0  0  0  0
  184.4810  177.7720  138.3100 C   0  0  0  0  0  3  0  0  0  0  0  0
  184.3130  176.5300  137.6880 C   0  0  0  0  0  0  0  0  0  0  0  0
  186.6320  176.5750  136.9780 C   0  0  0  0  0  3  0  0  0  0  0  0
  185.7230  178.4150  138.2660 C   0  0  0  0  0  3  0  0  0  0  0  0
  186.8130  177.8140  137.6120 C   0  0  0  0  0  0  0  0  0  0  0  0
  185.3900  175.9340  137.0160 C   0  0  0  0  0  3  0  0  0  0  0  0
  182.4710  175.7550  139.1400 C   0  0  0  0  0  1  0  0  0  0  0  0
  182.9820  175.8590  137.7100 C   0  0  0  0  0  2  0  0  0  0  0  0
  189.4740  178.2510  140.9660 C   0  0  1  0  0  3  0  0  0  0  0  0
  187.9880  178.1500  141.2730 C   0  0  0  0  0  1  0  0  0  0  0  0
  191.6930  177.6950  141.6590 F   0  0  0  0  0  0  0  0  0  0  0  0
  190.3630  177.5930  142.0340 C   0  0  2  0  0  0  0  0  0  0  0  0
  190.0160  176.1130  142.1040 C   0  0  0  0  0  1  0  0  0  0  0  0
  190.1730  178.1870  143.4330 C   0  0  0  0  0  2  0  0  0  0  0  0
  189.7300  177.1580  144.4700 C   0  0  0  0  0  2  0  0  0  0  0  0
  189.9580  177.6400  145.9100 C   0  0  2  0  0  3  0  0  0  0  0  0
  190.9510  176.7820  146.7020 C   0  0  0  0  0  2  0  0  0  0  0  0
  191.9610  176.3180  145.8550 O   0  0  0  0  0  1  0  0  0  0  0  0
  188.7070  177.9750  146.6250 N   0  0  0  0  0  0  0  0  0  0  0  0
  188.9580  178.1460  148.0510 C   0  0  0  0  0  1  0  0  0  0  0  0
  187.5520  177.0820  146.3770 C   0  0  0  0  0  2  0  0  0  0  0  0
  186.3620  177.7330  145.7270 C   0  0  0  0  0  0  0  0  0  0  0  0
  185.1000  178.3370  143.7450 C   0  0  0  0  0  3  0  0  0  0  0  0
  184.2290  178.8810  145.9360 C   0  0  0  0  0  3  0  0  0  0  0  0
  184.1030  178.9080  144.5450 C   0  0  0  0  0  3  0  0  0  0  0  0
  185.3540  178.2910  146.5240 C   0  0  0  0  0  3  0  0  0  0  0  0
  186.2250  177.7480  144.3340 C   0  0  0  0  0  3  0  0  0  0  0  0
  1 21  1  1  0  0  0
  1 15  1  0  0  0  0
  2  6  2  0  0  0  0
  3 14  1  0  0  0  0
  3 12  1  0  0  0  0
  4 11  1  0  0  0  0
  5  8  1  0  0  0  0
  6 10  1  0  0  0  0
  7  2  1  0  0  0  0
  8 12  1  0  0  0  0
  8 10  2  0  0  0  0
  9  5  1  0  0  0  0
  9  2  1  0  0  0  0
 11 25  1  0  0  0  0
 12  4  2  0  0  0  0
 13  3  2  0  0  0  0
 14  1  1  0  0  0  0
 14 15  2  0  0  0  0
 15 11  1  0  0  0  0
 16 13  1  0  0  0  0
 16  5  2  0  0  0  0
 18 24  1  0  0  0  0
 18 17  2  0  0  0  0
 19 22  2  0  0  0  0
 19 21  1  0  0  0  0
 20 17  1  0  0  0  0
 21 20  2  0  0  0  0
 22 18  1  0  0  0  0
 24 23  1  0  0  0  0
 25 26  1  1  0  0  0
 25 28  1  0  0  0  0
 27 28  1  0  0  0  0
 28 29  1  1  0  0  0
 28 30  1  0  0  0  0
 30 31  1  0  0  0  0
 32 31  1  6  0  0  0
 32 35  1  0  0  0  0
 32 33  1  0  0  0  0
 34 33  1  0  0  0  0
 35 36  1  0  0  0  0
 37 35  1  0  0  0  0
 38 37  1  0  0  0  0
 38 42  1  0  0  0  0
 39 43  1  0  0  0  0
 39 41  2  0  0  0  0
 40 42  2  0  0  0  0
 41 40  1  0  0  0  0
 43 38  2  0  0  0  0
M  END
>  <MODEL>
3

>  <REMARK>
 VINA RESULT:      -8.3      3.496      8.366
  Name = 
  11 active torsions:
  status: ('A' for Active; 'I' for Inactive)
    1  A    between atoms: C_1  and  C_35
    2  A    between atoms: C_2  and  C_12
    3  A    between atoms: C_2  and  N_27
    4  A    between atoms: C_4  and  C_6
    5  A    between atoms: C_4  and  C_15
    6  A    between atoms: C_6  and  C_12
    7  A    between atoms: C_10  and  C_15
    8  A    between atoms: C_11  and  C_14
    9  A    between atoms: C_14  and  N_22
   10  A    between atoms: C_15  and  N_22
   11  A    between atoms: C_19  and  C_37
                            x       y       z     vdW  Elec       q    Type
                         _______ _______ _______ _____ _____    ______ ____

>  <TORSDO>
F 11

$$$$
=
 OpenBabel10262422413D

 43 48  0  0  1  0  0  0  0  0999 V2000
  182.9860  177.4180  136.1750 C   0  0  2  0  0  3  0  0  0  0  0  0
  190.6140  176.8780  137.8570 C   0  0  0  0  0  0  0  0  0  0  0  0
  185.7200  176.7390  136.4350 C   0  0  0  0  0  0  0  0  0  0  0  0
  185.5890  178.0750  138.6370 C   0  0  0  0  0  3  0  0  0  0  0  0
  188.4820  176.2530  136.8760 C   0  0  0  0  0  0  0  0  0  0  0  0
  189.9130  177.9230  138.6370 C   0  0  0  0  0  3  0  0  0  0  0  0
  192.0230  176.7500  137.9580 N   0  0  0  0  0  1  0  0  0  0  0  0
  187.7420  176.9030  138.0350 C   0  0  0  0  0  0  0  0  0  0  0  0
  189.9420  176.1130  136.9900 C   0  0  0  0  0  2  0  0  0  0  0  0
  188.5760  177.9750  138.6840 C   0  0  0  0  0  3  0  0  0  0  0  0
  184.1650  178.4380  138.4770 N   0  0  0  0  0  0  0  0  0  0  0  0
  186.3280  177.3230  137.7100 C   0  0  0  0  0  0  0  0  0  0  0  0
  186.4130  176.0220  135.5600 C   0  0  0  0  0  3  0  0  0  0  0  0
  184.3420  177.1020  136.3320 C   0  0  0  0  0  0  0  0  0  0  0  0
  183.6770  177.8830  137.2900 C   0  0  0  0  0  0  0  0  0  0  0  0
  187.8550  175.8030  135.7810 C   0  0  0  0  0  3  0  0  0  0  0  0
  181.6240  173.8710  136.4630 C   0  0  0  0  0  3  0  0  0  0  0  0
  180.5370  174.0580  137.3240 C   0  0  0  0  0  0  0  0  0  0  0  0
  181.0210  176.4340  137.4140 C   0  0  0  0  0  3  0  0  0  0  0  0
  182.4090  174.9640  136.0770 C   0  0  0  0  0  3  0  0  0  0  0  0
  182.1040  176.2570  136.5380 C   0  0  0  0  0  0  0  0  0  0  0  0
  180.2410  175.3420  137.8050 C   0  0  0  0  0  3  0  0  0  0  0  0
  180.3020  171.6030  137.1870 C   0  0  0  0  0  1  0  0  0  0  0  0
  179.7210  172.8890  137.7580 C   0  0  0  0  0  2  0  0  0  0  0  0
  183.3560  179.1940  139.4240 C   0  0  1  0  0  3  0  0  0  0  0  0
  182.4010  180.1330  138.7030 C   0  0  0  0  0  1  0  0  0  0  0  0
  182.8990  176.9640  140.1530 F   0  0  0  0  0  0  0  0  0  0  0  0
  182.6610  178.2930  140.4590 C   0  0  2  0  0  0  0  0  0  0  0  0
  181.1600  178.5260  140.3680 C   0  0  0  0  0  1  0  0  0  0  0  0
  183.0950  178.5790  141.9000 C   0  0  0  0  0  2  0  0  0  0  0  0
  184.6110  178.6530  142.0690 C   0  0  0  0  0  2  0  0  0  0  0  0
  185.0450  178.5190  143.5350 C   0  0  2  0  0  3  0  0  0  0  0  0
  184.4770  179.6080  144.4530 C   0  0  0  0  0  2  0  0  0  0  0  0
  183.7810  179.0210  145.5130 O   0  0  0  0  0  1  0  0  0  0  0  0
  186.4900  178.2480  143.7010 N   0  0  0  0  0  0  0  0  0  0  0  0
  187.1490  178.1560  142.4030 C   0  0  0  0  0  1  0  0  0  0  0  0
  186.8460  177.1080  144.5760 C   0  0  0  0  0  2  0  0  0  0  0  0
  187.6050  177.4660  145.8240 C   0  0  0  0  0  0  0  0  0  0  0  0
  187.6550  178.2610  148.1160 C   0  0  0  0  0  3  0  0  0  0  0  0
  189.7090  177.5730  147.0380 C   0  0  0  0  0  3  0  0  0  0  0  0
  189.0420  178.0740  148.1570 C   0  0  0  0  0  3  0  0  0  0  0  0
  188.9900  177.2660  145.8760 C   0  0  0  0  0  3  0  0  0  0  0  0
  186.9370  177.9530  146.9530 C   0  0  0  0  0  3  0  0  0  0  0  0
  1 14  1  0  0  0  0
  1 21  1  1  0  0  0
  1 15  1  0  0  0  0
  2  7  1  0  0  0  0
  2  6  2  0  0  0  0
  3 12  1  0  0  0  0
  5  9  1  0  0  0  0
  5  8  1  0  0  0  0
  6 10  1  0  0  0  0
  8 10  2  0  0  0  0
  9  2  1  0  0  0  0
 11  4  1  0  0  0  0
 11 25  1  0  0  0  0
 12  8  1  0  0  0  0
 12  4  2  0  0  0  0
 13 16  1  0  0  0  0
 13  3  2  0  0  0  0
 14  3  1  0  0  0  0
 14 15  2  0  0  0  0
 15 11  1  0  0  0  0
 16  5  2  0  0  0  0
 17 18  1  0  0  0  0
 18 24  1  0  0  0  0
 18 22  2  0  0  0  0
 19 22  1  0  0  0  0
 20 17  2  0  0  0  0
 20 21  1  0  0  0  0
 21 19  2  0  0  0  0
 23 24  1  0  0  0  0
 25 26  1  6  0  0  0
 25 28  1  0  0  0  0
 27 28  1  0  0  0  0
 28 29  1  6  0  0  0
 28 30  1  0  0  0  0
 30 31  1  0  0  0  0
 32 31  1  6  0  0  0
 32 35  1  0  0  0  0
 32 33  1  0  0  0  0
 33 34  1  0  0  0  0
 35 37  1  0  0  0  0
 36 35  1  0  0  0  0
 37 38  1  0  0  0  0
 38 42  2  0  0  0  0
 38 43  1  0  0  0  0
 39 41  1  0  0  0  0
 40 41  2  0  0  0  0
 42 40  1  0  0  0  0
 43 39  2  0  0  0  0
M  END
>  <MODEL>
4

>  <REMARK>
 VINA RESULT:      -8.0      2.829      6.588
  Name = 
  11 active torsions:
  status: ('A' for Active; 'I' for Inactive)
    1  A    between atoms: C_1  and  C_35
    2  A    between atoms: C_2  and  C_12
    3  A    between atoms: C_2  and  N_27
    4  A    between atoms: C_4  and  C_6
    5  A    between atoms: C_4  and  C_15
    6  A    between atoms: C_6  and  C_12
    7  A    between atoms: C_10  and  C_15
    8  A    between atoms: C_11  and  C_14
    9  A    between atoms: C_14  and  N_22
   10  A    between atoms: C_15  and  N_22
   11  A    between atoms: C_19  and  C_37
                            x       y       z     vdW  Elec       q    Type
                         _______ _______ _______ _____ _____    ______ ____

>  <TORSDO>
F 11

$$$$
=
 OpenBabel10262422413D

 43 48  0  0  1  0  0  0  0  0999 V2000
  184.5710  179.0150  138.9860 C   0  0  2  0  0  3  0  0  0  0  0  0
  180.2340  173.6570  135.2740 C   0  0  0  0  0  0  0  0  0  0  0  0
  182.5780  177.2500  138.0260 C   0  0  0  0  0  0  0  0  0  0  0  0
  184.5740  175.8500  137.1830 C   0  0  0  0  0  3  0  0  0  0  0  0
  180.7670  175.3730  136.9080 C   0  0  0  0  0  0  0  0  0  0  0  0
  181.6590  173.6390  134.8730 C   0  0  0  0  0  3  0  0  0  0  0  0
  179.3020  172.8320  134.5940 N   0  0  0  0  0  1  0  0  0  0  0  0
  182.2310  174.9590  136.8850 C   0  0  0  0  0  0  0  0  0  0  0  0
  179.8030  174.5090  136.2100 C   0  0  0  0  0  2  0  0  0  0  0  0
  182.5890  174.2850  135.5870 C   0  0  0  0  0  3  0  0  0  0  0  0
  185.6020  176.7930  137.6740 N   0  0  0  0  0  0  0  0  0  0  0  0
  183.1890  176.0470  137.3090 C   0  0  0  0  0  0  0  0  0  0  0  0
  181.2710  177.4370  138.1540 C   0  0  0  0  0  3  0  0  0  0  0  0
  183.6090  178.1220  138.4960 C   0  0  0  0  0  0  0  0  0  0  0  0
  184.9770  177.8700  138.3070 C   0  0  0  0  0  0  0  0  0  0  0  0
  180.3380  176.4730  137.5410 C   0  0  0  0  0  3  0  0  0  0  0  0
  186.2240  178.8800  142.4170 C   0  0  0  0  0  3  0  0  0  0  0  0
  185.1180  178.6960  143.2530 C   0  0  0  0  0  0  0  0  0  0  0  0
  183.6580  178.6880  141.3150 C   0  0  0  0  0  3  0  0  0  0  0  0
  186.0480  178.9670  141.0310 C   0  0  0  0  0  3  0  0  0  0  0  0
  184.7650  178.8560  140.4680 C   0  0  0  0  0  0  0  0  0  0  0  0
  183.8320  178.6070  142.7000 C   0  0  0  0  0  3  0  0  0  0  0  0
  183.9500  178.6380  145.4290 C   0  0  0  0  0  1  0  0  0  0  0  0
  185.3030  178.6340  144.7310 C   0  0  0  0  0  2  0  0  0  0  0  0
  187.0460  176.6160  137.5860 C   0  0  1  0  0  3  0  0  0  0  0  0
  187.4020  175.4610  136.6620 C   0  0  0  0  0  1  0  0  0  0  0  0
  186.8790  178.8490  136.7520 F   0  0  0  0  0  0  0  0  0  0  0  0
  187.7820  177.9210  137.2440 C   0  0  2  0  0  0  0  0  0  0  0  0
  188.7910  177.6300  136.1430 C   0  0  0  0  0  1  0  0  0  0  0  0
  188.5420  178.5180  138.4320 C   0  0  0  0  0  2  0  0  0  0  0  0
  188.9770  177.4720  139.4560 C   0  0  0  0  0  2  0  0  0  0  0  0
  190.4870  177.5080  139.7280 C   0  0  2  0  0  3  0  0  0  0  0  0
  191.2990  176.5480  138.8500 C   0  0  0  0  0  2  0  0  0  0  0  0
  190.5170  175.4430  138.5060 O   0  0  0  0  0  1  0  0  0  0  0  0
  190.8290  177.4850  141.1670 N   0  0  0  0  0  0  0  0  0  0  0  0
  192.2750  177.4960  141.3530 C   0  0  0  0  0  1  0  0  0  0  0  0
  190.1820  176.4280  141.9770 C   0  0  0  0  0  2  0  0  0  0  0  0
  190.0880  176.7120  143.4500 C   0  0  0  0  0  0  0  0  0  0  0  0
  188.8040  177.3620  145.4030 C   0  0  0  0  0  3  0  0  0  0  0  0
  191.1340  176.7540  145.6460 C   0  0  0  0  0  3  0  0  0  0  0  0
  189.9310  177.1810  146.2130 C   0  0  0  0  0  3  0  0  0  0  0  0
  191.2090  176.5160  144.2680 C   0  0  0  0  0  3  0  0  0  0  0  0
  188.8810  177.1240  144.0260 C   0  0  0  0  0  3  0  0  0  0  0  0
  1 21  1  1  0  0  0
  2  9  1  0  0  0  0
  3 13  2  0  0  0  0
  3 14  1  0  0  0  0
  4 12  2  0  0  0  0
  4 11  1  0  0  0  0
  5 16  2  0  0  0  0
  6  2  2  0  0  0  0
  6 10  1  0  0  0  0
  7  2  1  0  0  0  0
  8  5  1  0  0  0  0
  8 12  1  0  0  0  0
  9  5  1  0  0  0  0
 10  8  2  0  0  0  0
 11 15  1  0  0  0  0
 12  3  1  0  0  0  0
 14  1  1  0  0  0  0
 15 14  2  0  0  0  0
 15  1  1  0  0  0  0
 16 13  1  0  0  0  0
 17 18  1  0  0  0  0
 18 24  1  0  0  0  0
 19 22  1  0  0  0  0
 20 17  2  0  0  0  0
 21 20  1  0  0  0  0
 21 19  2  0  0  0  0
 22 18  2  0  0  0  0
 24 23  1  0  0  0  0
 25 26  1  6  0  0  0
 25 11  1  0  0  0  0
 27 28  1  0  0  0  0
 28 29  1  6  0  0  0
 28 25  1  0  0  0  0
 28 30  1  0  0  0  0
 30 31  1  0  0  0  0
 31 32  1  0  0  0  0
 32 33  1  6  0  0  0
 32 35  1  0  0  0  0
 34 33  1  0  0  0  0
 35 36  1  0  0  0  0
 35 37  1  0  0  0  0
 37 38  1  0  0  0  0
 38 43  2  0  0  0  0
 38 42  1  0  0  0  0
 39 41  2  0  0  0  0
 40 41  1  0  0  0  0
 42 40  2  0  0  0  0
 43 39  1  0  0  0  0
M  END
>  <MODEL>
5

>  <REMARK>
 VINA RESULT:      -8.0      2.697      6.361
  Name = 
  11 active torsions:
  status: ('A' for Active; 'I' for Inactive)
    1  A    between atoms: C_1  and  C_35
    2  A    between atoms: C_2  and  C_12
    3  A    between atoms: C_2  and  N_27
    4  A    between atoms: C_4  and  C_6
    5  A    between atoms: C_4  and  C_15
    6  A    between atoms: C_6  and  C_12
    7  A    between atoms: C_10  and  C_15
    8  A    between atoms: C_11  and  C_14
    9  A    between atoms: C_14  and  N_22
   10  A    between atoms: C_15  and  N_22
   11  A    between atoms: C_19  and  C_37
                            x       y       z     vdW  Elec       q    Type
                         _______ _______ _______ _____ _____    ______ ____

>  <TORSDO>
F 11

$$$$
=
 OpenBabel10262422413D

 43 48  0  0  1  0  0  0  0  0999 V2000
  188.7210  178.4400  139.3740 C   0  0  2  0  0  3  0  0  0  0  0  0
  187.9070  177.5610  147.1110 C   0  0  0  0  0  0  0  0  0  0  0  0
  188.9320  177.8080  142.1240 C   0  0  0  0  0  0  0  0  0  0  0  0
  186.3820  178.1940  142.1550 C   0  0  0  0  0  3  0  0  0  0  0  0
  188.9030  177.2860  144.9140 C   0  0  0  0  0  0  0  0  0  0  0  0
  186.7390  178.2030  146.4670 C   0  0  0  0  0  3  0  0  0  0  0  0
  187.9600  177.4530  148.5240 N   0  0  0  0  0  1  0  0  0  0  0  0
  187.5360  177.4170  144.2620 C   0  0  1  0  0  3  0  0  0  0  0  0
  188.9520  177.1640  146.3790 C   0  0  0  0  0  3  0  0  0  0  0  0
  186.5830  178.1870  145.1370 C   0  0  0  0  0  3  0  0  0  0  0  0
  186.2920  178.5410  140.7200 N   0  0  0  0  0  0  0  0  0  0  0  0
  187.5760  177.8800  142.8240 C   0  0  0  0  0  0  0  0  0  0  0  0
  190.0610  177.5050  142.7510 C   0  0  0  0  0  3  0  0  0  0  0  0
  188.7920  178.1340  140.7390 C   0  0  0  0  0  0  0  0  0  0  0  0
  187.5640  178.4660  140.1460 C   0  0  0  0  0  0  0  0  0  0  0  0
  190.0410  177.2680  144.2060 C   0  0  0  0  0  3  0  0  0  0  0  0
  190.0030  175.2750  137.6820 C   0  0  0  0  0  3  0  0  0  0  0  0
  188.8430  174.8010  137.0610 C   0  0  0  0  0  0  0  0  0  0  0  0
  187.6100  176.7080  137.9150 C   0  0  0  0  0  3  0  0  0  0  0  0
  189.9670  176.4650  138.4190 C   0  0  0  0  0  3  0  0  0  0  0  0
  188.7740  177.1980  138.5280 C   0  0  0  0  0  0  0  0  0  0  0  0
  187.6430  175.5160  137.1840 C   0  0  0  0  0  3  0  0  0  0  0  0
  190.2990  173.2010  135.8690 C   0  0  0  0  0  1  0  0  0  0  0  0
  188.8750  173.5180  136.3020 C   0  0  0  0  0  2  0  0  0  0  0  0
  185.0740  178.8480  139.9830 C   0  0  1  0  0  3  0  0  0  0  0  0
  185.2660  178.6280  138.4900 C   0  0  0  0  0  1  0  0  0  0  0  0
  184.1710  177.5160  141.7490 F   0  0  0  0  0  0  0  0  0  0  0  0
  183.8400  178.1270  140.5510 C   0  0  2  0  0  0  0  0  0  0  0  0
  183.4270  177.0370  139.5750 C   0  0  0  0  0  1  0  0  0  0  0  0
  182.6380  179.0540  140.7570 C   0  0  0  0  0  2  0  0  0  0  0  0
  181.9810  178.8940  142.1270 C   0  0  0  0  0  2  0  0  0  0  0  0
  180.5870  179.5330  142.1870 C   0  0  2  0  0  3  0  0  0  0  0  0
  179.6990  178.9810  143.3090 C   0  0  0  0  0  2  0  0  0  0  0  0
  180.4800  178.2860  144.2350 O   0  0  0  0  0  1  0  0  0  0  0  0
  179.9320  179.6460  140.8650 N   0  0  0  0  0  0  0  0  0  0  0  0
  179.3960  180.9880  140.6690 C   0  0  0  0  0  1  0  0  0  0  0  0
  178.9310  178.6050  140.5390 C   0  0  0  0  0  2  0  0  0  0  0  0
  179.4790  177.3670  139.8840 C   0  0  0  0  0  0  0  0  0  0  0  0
  180.1510  175.0380  139.9870 C   0  0  0  0  0  3  0  0  0  0  0  0
  180.2560  176.2260  137.8820 C   0  0  0  0  0  3  0  0  0  0  0  0
  180.4520  175.0570  138.6210 C   0  0  0  0  0  3  0  0  0  0  0  0
  179.7660  177.3770  138.5130 C   0  0  0  0  0  3  0  0  0  0  0  0
  179.6610  176.1890  140.6170 C   0  0  0  0  0  3  0  0  0  0  0  0
  1 21  1  6  0  0  0
  1 15  1  0  0  0  0
  1 14  1  0  0  0  0
  2  7  1  0  0  0  0
  3 13  2  0  0  0  0
  3 12  1  0  0  0  0
  4 12  2  0  0  0  0
  5  9  1  0  0  0  0
  6  2  1  0  0  0  0
  8  5  1  0  0  0  0
  8 10  1  1  0  0  0
  9  2  2  0  0  0  0
 10  6  2  0  0  0  0
 11  4  1  0  0  0  0
 12  8  1  0  0  0  0
 13 16  1  0  0  0  0
 14  3  1  0  0  0  0
 15 11  1  0  0  0  0
 15 14  2  0  0  0  0
 16  5  2  0  0  0  0
 17 20  1  0  0  0  0
 18 22  1  0  0  0  0
 18 17  2  0  0  0  0
 19 21  1  0  0  0  0
 20 21  2  0  0  0  0
 22 19  2  0  0  0  0
 23 24  1  0  0  0  0
 24 18  1  0  0  0  0
 25 26  1  6  0  0  0
 25 28  1  0  0  0  0
 25 11  1  0  0  0  0
 28 29  1  6  0  0  0
 28 30  1  0  0  0  0
 28 27  1  0  0  0  0
 30 31  1  0  0  0  0
 32 31  1  6  0  0  0
 32 33  1  0  0  0  0
 33 34  1  0  0  0  0
 35 32  1  0  0  0  0
 36 35  1  0  0  0  0
 37 35  1  0  0  0  0
 38 37  1  0  0  0  0
 38 43  1  0  0  0  0
 39 43  2  0  0  0  0
 40 42  1  0  0  0  0
 40 41  2  0  0  0  0
 41 39  1  0  0  0  0
 42 38  2  0  0  0  0
M  END
>  <MODEL>
6

>  <REMARK>
 VINA RESULT:      -7.8      2.799      8.270
  Name = 
  11 active torsions:
  status: ('A' for Active; 'I' for Inactive)
    1  A    between atoms: C_1  and  C_35
    2  A    between atoms: C_2  and  C_12
    3  A    between atoms: C_2  and  N_27
    4  A    between atoms: C_4  and  C_6
    5  A    between atoms: C_4  and  C_15
    6  A    between atoms: C_6  and  C_12
    7  A    between atoms: C_10  and  C_15
    8  A    between atoms: C_11  and  C_14
    9  A    between atoms: C_14  and  N_22
   10  A    between atoms: C_15  and  N_22
   11  A    between atoms: C_19  and  C_37
                            x       y       z     vdW  Elec       q    Type
                         _______ _______ _______ _____ _____    ______ ____

>  <TORSDO>
F 11

$$$$
=
 OpenBabel10262422413D

 43 48  0  0  1  0  0  0  0  0999 V2000
  187.3450  178.6250  138.9840 C   0  0  2  0  0  3  0  0  0  0  0  0
  187.7380  177.5300  146.7260 C   0  0  0  0  0  0  0  0  0  0  0  0
  187.9750  177.9120  141.6480 C   0  0  0  0  0  0  0  0  0  0  0  0
  185.4650  178.3160  142.0890 C   0  0  0  0  0  3  0  0  0  0  0  0
  188.3760  177.3100  144.3930 C   0  0  0  0  0  0  0  0  0  0  0  0
  186.4910  178.1990  146.2900 C   0  0  0  0  0  3  0  0  0  0  0  0
  188.0090  177.3800  148.1100 N   0  0  0  0  0  1  0  0  0  0  0  0
  186.9240  177.4700  143.9670 C   0  0  1  0  0  3  0  0  0  0  0  0
  188.6510  177.1460  145.8290 C   0  0  0  0  0  3  0  0  0  0  0  0
  186.1290  178.2220  145.0020 C   0  0  0  0  0  3  0  0  0  0  0  0
  185.1570  178.7050  140.6960 N   0  0  0  0  0  0  0  0  0  0  0  0
  186.7450  177.9750  142.5540 C   0  0  0  0  0  0  0  0  0  0  0  0
  189.1840  177.5830  142.0830 C   0  0  0  0  0  3  0  0  0  0  0  0
  187.6240  178.2800  140.3120 C   0  0  0  0  0  0  0  0  0  0  0  0
  186.3230  178.6370  139.9280 C   0  0  0  0  0  0  0  0  0  0  0  0
  189.3890  177.3040  143.5170 C   0  0  0  0  0  3  0  0  0  0  0  0
  188.2440  175.3760  137.2070 C   0  0  0  0  0  3  0  0  0  0  0  0
  187.0350  175.0570  136.5790 C   0  0  0  0  0  0  0  0  0  0  0  0
  186.0350  177.0730  137.4870 C   0  0  0  0  0  3  0  0  0  0  0  0
  188.3490  176.5430  137.9730 C   0  0  0  0  0  3  0  0  0  0  0  0
  187.2500  177.4080  138.1070 C   0  0  0  0  0  0  0  0  0  0  0  0
  185.9270  175.9050  136.7260 C   0  0  0  0  0  3  0  0  0  0  0  0
  186.5900  172.6310  136.7070 C   0  0  0  0  0  1  0  0  0  0  0  0
  186.9150  173.8000  135.7880 C   0  0  0  0  0  2  0  0  0  0  0  0
  183.8420  179.0420  140.1660 C   0  0  1  0  0  3  0  0  0  0  0  0
  183.9570  179.9360  138.9410 C   0  0  0  0  0  1  0  0  0  0  0  0
  183.6620  176.6630  140.2930 F   0  0  0  0  0  0  0  0  0  0  0  0
  182.9610  177.8030  139.9370 C   0  0  2  0  0  0  0  0  0  0  0  0
  182.6430  177.7060  138.4520 C   0  0  0  0  0  1  0  0  0  0  0  0
  181.6330  177.8540  140.6990 C   0  0  0  0  0  2  0  0  0  0  0  0
  180.5970  178.7660  140.0450 C   0  0  0  0  0  2  0  0  0  0  0  0
  180.3500  180.0470  140.8540 C   0  0  2  0  0  3  0  0  0  0  0  0
  179.5200  179.8300  142.1250 C   0  0  0  0  0  2  0  0  0  0  0  0
  180.3340  179.9660  143.2520 O   0  0  0  0  0  1  0  0  0  0  0  0
  179.9350  181.1990  140.0220 N   0  0  0  0  0  0  0  0  0  0  0  0
  178.9370  182.0030  140.7170 C   0  0  0  0  0  1  0  0  0  0  0  0
  179.5190  180.8890  138.6360 C   0  0  0  0  0  2  0  0  0  0  0  0
  180.0330  181.8300  137.5820 C   0  0  0  0  0  0  0  0  0  0  0  0
  181.2310  183.8410  136.9430 C   0  0  0  0  0  3  0  0  0  0  0  0
  180.3390  182.3800  135.2330 C   0  0  0  0  0  3  0  0  0  0  0  0
  181.0280  183.5400  135.5910 C   0  0  0  0  0  3  0  0  0  0  0  0
  179.8470  181.5250  136.2270 C   0  0  0  0  0  3  0  0  0  0  0  0
  180.7390  182.9860  137.9360 C   0  0  0  0  0  3  0  0  0  0  0  0
  1 21  1  6  0  0  0
  1 15  1  0  0  0  0
  1 14  1  0  0  0  0
  2  7  1  0  0  0  0
  3 13  2  0  0  0  0
  3 12  1  0  0  0  0
  4 12  2  0  0  0  0
  5  9  1  0  0  0  0
  6  2  1  0  0  0  0
  8  5  1  0  0  0  0
  8 10  1  1  0  0  0
  9  2  2  0  0  0  0
 10  6  2  0  0  0  0
 11  4  1  0  0  0  0
 12  8  1  0  0  0  0
 13 16  1  0  0  0  0
 14  3  1  0  0  0  0
 15 14  2  0  0  0  0
 15 11  1  0  0  0  0
 16  5  2  0  0  0  0
 17 20  1  0  0  0  0
 18 22  1  0  0  0  0
 18 17  2  0  0  0  0
 19 21  1  0  0  0  0
 20 21  2  0  0  0  0
 22 19  2  0  0  0  0
 24 18  1  0  0  0  0
 24 23  1  0  0  0  0
 25 26  1  6  0  0  0
 25 11  1  0  0  0  0
 28 29  1  6  0  0  0
 28 25  1  0  0  0  0
 28 27  1  0  0  0  0
 28 30  1  0  0  0  0
 31 30  1  0  0  0  0
 32 31  1  6  0  0  0
 32 33  1  0  0  0  0
 33 34  1  0  0  0  0
 35 36  1  0  0  0  0
 35 32  1  0  0  0  0
 37 35  1  0  0  0  0
 38 43  1  0  0  0  0
 38 37  1  0  0  0  0
 39 43  2  0  0  0  0
 40 41  2  0  0  0  0
 40 42  1  0  0  0  0
 41 39  1  0  0  0  0
 42 38  2  0  0  0  0
M  END
>  <MODEL>
7

>  <REMARK>
 VINA RESULT:      -7.6      2.543      8.260
  Name = 
  11 active torsions:
  status: ('A' for Active; 'I' for Inactive)
    1  A    between atoms: C_1  and  C_35
    2  A    between atoms: C_2  and  C_12
    3  A    between atoms: C_2  and  N_27
    4  A    between atoms: C_4  and  C_6
    5  A    between atoms: C_4  and  C_15
    6  A    between atoms: C_6  and  C_12
    7  A    between atoms: C_10  and  C_15
    8  A    between atoms: C_11  and  C_14
    9  A    between atoms: C_14  and  N_22
   10  A    between atoms: C_15  and  N_22
   11  A    between atoms: C_19  and  C_37
                            x       y       z     vdW  Elec       q    Type
                         _______ _______ _______ _____ _____    ______ ____

>  <TORSDO>
F 11

$$$$
=
 OpenBabel10262422413D

 43 48  0  0  1  0  0  0  0  0999 V2000
  190.8660  174.9780  137.9250 C   0  0  2  0  0  3  0  0  0  0  0  0
  184.2460  179.0630  138.8130 C   0  0  0  0  0  0  0  0  0  0  0  0
  188.4410  176.4100  137.6520 C   0  0  0  0  0  0  0  0  0  0  0  0
  189.0970  177.4660  139.9120 C   0  0  0  0  0  3  0  0  0  0  0  0
  186.0250  177.9000  137.6380 C   0  0  0  0  0  0  0  0  0  0  0  0
  185.0310  178.9390  140.0620 C   0  0  0  0  0  3  0  0  0  0  0  0
  182.9620  179.6640  138.8460 N   0  0  0  0  0  1  0  0  0  0  0  0
  187.0090  178.2650  138.7390 C   0  0  0  0  0  0  0  0  0  0  0  0
  184.6980  178.5330  137.6710 C   0  0  0  0  0  2  0  0  0  0  0  0
  186.3020  178.5190  140.0440 C   0  0  0  0  0  3  0  0  0  0  0  0
  190.3510  176.6950  140.0490 N   0  0  0  0  0  0  0  0  0  0  0  0
  188.1960  177.3370  138.8420 C   0  0  0  0  0  0  0  0  0  0  0  0
  187.5970  176.2900  136.6350 C   0  0  0  0  0  3  0  0  0  0  0  0
  189.6700  175.7000  137.8210 C   0  0  0  0  0  0  0  0  0  0  0  0
  190.5060  175.8630  138.9360 C   0  0  0  0  0  0  0  0  0  0  0  0
  186.3290  177.0440  136.6530 C   0  0  0  0  0  3  0  0  0  0  0  0
  194.0590  176.7440  136.8300 C   0  0  0  0  0  3  0  0  0  0  0  0
  194.0270  176.5490  135.4450 C   0  0  0  0  0  0  0  0  0  0  0  0
  191.9230  175.3600  135.6670 C   0  0  0  0  0  3  0  0  0  0  0  0
  193.0250  176.2490  137.6330 C   0  0  0  0  0  3  0  0  0  0  0  0
  191.9420  175.5660  137.0550 C   0  0  0  0  0  0  0  0  0  0  0  0
  192.9590  175.8490  134.8650 C   0  0  0  0  0  3  0  0  0  0  0  0
  195.8060  178.2510  135.2550 C   0  0  0  0  0  1  0  0  0  0  0  0
  195.1430  177.0510  134.5950 C   0  0  0  0  0  2  0  0  0  0  0  0
  191.3230  176.8160  141.1270 C   0  0  1  0  0  3  0  0  0  0  0  0
  192.3670  177.8760  140.8100 C   0  0  0  0  0  1  0  0  0  0  0  0
  189.7730  175.9670  142.7350 F   0  0  0  0  0  0  0  0  0  0  0  0
  190.6610  177.0030  142.5020 C   0  0  2  0  0  0  0  0  0  0  0  0
  189.8640  178.2990  142.4800 C   0  0  0  0  0  1  0  0  0  0  0  0
  191.6680  177.0900  143.6530 C   0  0  0  0  0  2  0  0  0  0  0  0
  191.3190  178.1670  144.6790 C   0  0  0  0  0  2  0  0  0  0  0  0
  190.8360  177.5740  146.0100 C   0  0  2  0  0  3  0  0  0  0  0  0
  191.2890  176.1290  146.2470 C   0  0  0  0  0  2  0  0  0  0  0  0
  192.4850  176.1170  146.9690 O   0  0  0  0  0  1  0  0  0  0  0  0
  189.4080  177.8400  146.2910 N   0  0  0  0  0  0  0  0  0  0  0  0
  189.1590  177.8540  147.7270 C   0  0  0  0  0  1  0  0  0  0  0  0
  188.4310  176.9870  145.5760 C   0  0  0  0  0  2  0  0  0  0  0  0
  187.1130  177.6400  145.2630 C   0  0  0  0  0  0  0  0  0  0  0  0
  185.2030  178.9790  145.9300 C   0  0  0  0  0  3  0  0  0  0  0  0
  185.3820  178.1930  143.6480 C   0  0  0  0  0  3  0  0  0  0  0  0
  184.6830  178.8940  144.6330 C   0  0  0  0  0  3  0  0  0  0  0  0
  186.5960  177.5720  143.9620 C   0  0  0  0  0  3  0  0  0  0  0  0
  186.4180  178.3570  146.2430 C   0  0  0  0  0  3  0  0  0  0  0  0
  1 21  1  6  0  0  0
  1 15  1  0  0  0  0
  2  7  1  0  0  0  0
  2  6  2  0  0  0  0
  3 14  1  0  0  0  0
  3 12  1  0  0  0  0
  4 11  1  0  0  0  0
  5  9  1  0  0  0  0
  5  8  1  0  0  0  0
  8 12  1  0  0  0  0
  8 10  2  0  0  0  0
  9  2  1  0  0  0  0
 10  6  1  0  0  0  0
 11 25  1  0  0  0  0
 12  4  2  0  0  0  0
 13 16  1  0  0  0  0
 13  3  2  0  0  0  0
 14  1  1  0  0  0  0
 14 15  2  0  0  0  0
 15 11  1  0  0  0  0
 16  5  2  0  0  0  0
 17 20  1  0  0  0  0
 18 17  2  0  0  0  0
 19 21  1  0  0  0  0
 21 20  2  0  0  0  0
 22 18  1  0  0  0  0
 22 19  2  0  0  0  0
 24 23  1  0  0  0  0
 24 18  1  0  0  0  0
 25 26  1  6  0  0  0
 25 28  1  0  0  0  0
 28 29  1  6  0  0  0
 28 27  1  0  0  0  0
 28 30  1  0  0  0  0
 30 31  1  0  0  0  0
 32 31  1  6  0  0  0
 32 33  1  0  0  0  0
 32 35  1  0  0  0  0
 33 34  1  0  0  0  0
 35 36  1  0  0  0  0
 37 35  1  0  0  0  0
 38 37  1  0  0  0  0
 38 43  1  0  0  0  0
 39 43  2  0  0  0  0
 40 42  1  0  0  0  0
 40 41  2  0  0  0  0
 41 39  1  0  0  0  0
 42 38  2  0  0  0  0
M  END
>  <MODEL>
8

>  <REMARK>
 VINA RESULT:      -7.6      3.197      9.071
  Name = 
  11 active torsions:
  status: ('A' for Active; 'I' for Inactive)
    1  A    between atoms: C_1  and  C_35
    2  A    between atoms: C_2  and  C_12
    3  A    between atoms: C_2  and  N_27
    4  A    between atoms: C_4  and  C_6
    5  A    between atoms: C_4  and  C_15
    6  A    between atoms: C_6  and  C_12
    7  A    between atoms: C_10  and  C_15
    8  A    between atoms: C_11  and  C_14
    9  A    between atoms: C_14  and  N_22
   10  A    between atoms: C_15  and  N_22
   11  A    between atoms: C_19  and  C_37
                            x       y       z     vdW  Elec       q    Type
                         _______ _______ _______ _____ _____    ______ ____

>  <TORSDO>
F 11

$$$$
=
 OpenBabel10262422413D

 43 48  0  0  1  0  0  0  0  0999 V2000
  191.6170  177.4970  138.8680 C   0  0  2  0  0  3  0  0  0  0  0  0
  187.6950  177.4380  145.6440 C   0  0  0  0  0  0  0  0  0  0  0  0
  190.6500  177.1300  141.5010 C   0  0  0  0  0  0  0  0  0  0  0  0
  188.3480  177.6620  140.4660 C   0  0  0  0  0  3  0  0  0  0  0  0
  189.4580  176.8890  144.0670 C   0  0  0  0  0  0  0  0  0  0  0  0
  186.9480  178.0790  144.5380 C   0  0  0  0  0  3  0  0  0  0  0  0
  187.1670  177.4680  146.9600 N   0  0  0  0  0  1  0  0  0  0  0  0
  188.4840  177.0340  142.9070 C   0  0  1  0  0  3  0  0  0  0  0  0
  188.9050  176.9110  145.4290 C   0  0  0  0  0  3  0  0  0  0  0  0
  187.3360  177.9400  143.2650 C   0  0  0  0  0  3  0  0  0  0  0  0
  188.8720  177.8700  139.0990 N   0  0  0  0  0  0  0  0  0  0  0  0
  189.1390  177.3490  141.5830 C   0  0  0  0  0  0  0  0  0  0  0  0
  191.4000  176.8260  142.5520 C   0  0  0  0  0  3  0  0  0  0  0  0
  191.1070  177.3250  140.1610 C   0  0  0  0  0  0  0  0  0  0  0  0
  190.2550  177.6660  139.0990 C   0  0  0  0  0  0  0  0  0  0  0  0
  190.7770  176.7360  143.8860 C   0  0  0  0  0  3  0  0  0  0  0  0
  191.0700  174.1160  137.1970 C   0  0  0  0  0  3  0  0  0  0  0  0
  192.3760  173.7680  136.8360 C   0  0  0  0  0  0  0  0  0  0  0  0
  193.1940  175.8280  137.8240 C   0  0  0  0  0  3  0  0  0  0  0  0
  190.8260  175.3190  137.8710 C   0  0  0  0  0  3  0  0  0  0  0  0
  191.8880  176.1760  138.2030 C   0  0  0  0  0  0  0  0  0  0  0  0
  193.4390  174.6300  137.1460 C   0  0  0  0  0  3  0  0  0  0  0  0
  193.9900  171.9330  136.4770 C   0  0  0  0  0  1  0  0  0  0  0  0
  192.6310  172.5020  136.0920 C   0  0  0  0  0  2  0  0  0  0  0  0
  188.0860  178.1720  137.9110 C   0  0  1  0  0  3  0  0  0  0  0  0
  188.8820  179.0130  136.9250 C   0  0  0  0  0  1  0  0  0  0  0  0
  187.8140  175.8000  138.0210 F   0  0  0  0  0  0  0  0  0  0  0  0
  187.4640  176.9160  137.2780 C   0  0  2  0  0  0  0  0  0  0  0  0
  188.0440  176.7420  135.8820 C   0  0  0  0  0  1  0  0  0  0  0  0
  185.9400  176.9940  137.1470 C   0  0  0  0  0  2  0  0  0  0  0  0
  185.3630  175.9490  136.1940 C   0  0  0  0  0  2  0  0  0  0  0  0
  184.6730  174.7960  136.9360 C   0  0  2  0  0  3  0  0  0  0  0  0
  185.5730  173.5750  137.1610 C   0  0  0  0  0  2  0  0  0  0  0  0
  184.9170  172.6430  137.9680 O   0  0  0  0  0  1  0  0  0  0  0  0
  183.3180  174.4910  136.4250 N   0  0  0  0  0  0  0  0  0  0  0  0
  183.1470  175.0160  135.0760 C   0  0  0  0  0  1  0  0  0  0  0  0
  182.1870  174.8660  137.3040 C   0  0  0  0  0  2  0  0  0  0  0  0
  182.3760  176.1340  138.0910 C   0  0  0  0  0  0  0  0  0  0  0  0
  182.3630  178.5550  138.2390 C   0  0  0  0  0  3  0  0  0  0  0  0
  182.8370  177.2340  140.2100 C   0  0  0  0  0  3  0  0  0  0  0  0
  182.6820  178.4810  139.6000 C   0  0  0  0  0  3  0  0  0  0  0  0
  182.6790  176.0640  139.4570 C   0  0  0  0  0  3  0  0  0  0  0  0
  182.2060  177.3840  137.4870 C   0  0  0  0  0  3  0  0  0  0  0  0
  1 21  1  6  0  0  0
  1 15  1  0  0  0  0
  1 14  1  0  0  0  0
  2  7  1  0  0  0  0
  3 12  1  0  0  0  0
  3 13  2  0  0  0  0
  4 12  2  0  0  0  0
  5  9  1  0  0  0  0
  6  2  1  0  0  0  0
  8 10  1  1  0  0  0
  8  5  1  0  0  0  0
  9  2  2  0  0  0  0
 10  6  2  0  0  0  0
 11  4  1  0  0  0  0
 12  8  1  0  0  0  0
 13 16  1  0  0  0  0
 14  3  1  0  0  0  0
 15 11  1  0  0  0  0
 15 14  2  0  0  0  0
 16  5  2  0  0  0  0
 17 20  1  0  0  0  0
 18 22  1  0  0  0  0
 18 17  2  0  0  0  0
 19 21  1  0  0  0  0
 20 21  2  0  0  0  0
 22 19  2  0  0  0  0
 24 23  1  0  0  0  0
 24 18  1  0  0  0  0
 25 26  1  6  0  0  0
 25 11  1  0  0  0  0
 28 29  1  6  0  0  0
 28 25  1  0  0  0  0
 28 27  1  0  0  0  0
 30 28  1  0  0  0  0
 31 30  1  0  0  0  0
 32 31  1  6  0  0  0
 32 33  1  0  0  0  0
 33 34  1  0  0  0  0
 35 32  1  0  0  0  0
 35 37  1  0  0  0  0
 36 35  1  0  0  0  0
 37 38  1  0  0  0  0
 38 42  1  0  0  0  0
 39 41  2  0  0  0  0
 41 40  1  0  0  0  0
 42 40  2  0  0  0  0
 43 38  2  0  0  0  0
 43 39  1  0  0  0  0
M  END
>  <MODEL>
9

>  <REMARK>
 VINA RESULT:      -7.6      2.828      8.704
  Name = 
  11 active torsions:
  status: ('A' for Active; 'I' for Inactive)
    1  A    between atoms: C_1  and  C_35
    2  A    between atoms: C_2  and  C_12
    3  A    between atoms: C_2  and  N_27
    4  A    between atoms: C_4  and  C_6
    5  A    between atoms: C_4  and  C_15
    6  A    between atoms: C_6  and  C_12
    7  A    between atoms: C_10  and  C_15
    8  A    between atoms: C_11  and  C_14
    9  A    between atoms: C_14  and  N_22
   10  A    between atoms: C_15  and  N_22
   11  A    between atoms: C_19  and  C_37
                            x       y       z     vdW  Elec       q    Type
                         _______ _______ _______ _____ _____    ______ ____

>  <TORSDO>
F 11

$$$$
