=
 OpenBabel10262422023D

 30 35  0  0  1  0  0  0  0  0999 V2000
  193.4750  176.3770  135.8520 C   0  0  1  0  0  3  0  0  0  0  0  0
  196.7260  176.0950  135.3220 C   0  0  1  0  0  3  0  0  0  0  0  0
  196.0840  174.5590  138.9440 O   0  0  0  0  0  1  0  0  0  0  0  0
  192.1700  175.5940  135.6970 C   0  0  2  0  0  3  0  0  0  0  0  0
  194.1590  176.0210  137.1640 C   0  0  1  0  0  3  0  0  0  0  0  0
  191.5780  175.8750  138.0910 C   0  0  2  0  0  3  0  0  0  0  0  0
  191.0480  173.3110  135.5660 C   0  0  0  0  0  2  0  0  0  0  0  0
  193.4830  172.2560  136.9180 O   0  0  0  0  0  1  0  0  0  0  0  0
  193.1700  176.7320  138.5130 S   0  0  0  0  0  0  0  0  0  0  0  0
  191.1670  176.0830  136.6770 N   0  0  2  0  0  0  0  0  0  0  0  0
  197.9750  175.2650  135.1060 C   0  0  0  0  0  2  0  0  0  0  0  0
  189.9420  173.9450  136.3450 C   0  0  0  0  0  0  0  0  0  0  0  0
  195.5450  175.4560  134.6000 C   0  0  0  0  0  2  0  0  0  0  0  0
  194.3020  174.4990  137.3210 C   0  0  2  0  0  3  0  0  0  0  0  0
  197.3120  175.2570  136.4670 C   0  0  2  0  0  3  0  0  0  0  0  0
  194.3590  176.4170  134.5940 C   0  0  0  0  0  2  0  0  0  0  0  0
  193.1640  173.6870  134.6150 O   0  0  0  0  0  1  0  0  0  0  0  0
  193.0980  173.5970  137.0050 C   0  0  1  0  0  3  0  0  0  0  0  0
  192.3830  174.0470  135.7160 C   0  0  1  0  0  0  0  0  0  0  0  0
  188.9430  173.2350  136.7140 N   0  0  0  0  0  2  0  0  0  0  0  0
  195.6180  173.8990  137.8040 C   0  0  1  0  0  3  0  0  0  0  0  0
  196.6700  173.8850  136.6960 C   0  0  0  0  0  2  0  0  0  0  0  0
  189.8600  175.4480  136.4250 C   0  0  2  0  0  3  0  0  0  0  0  0
  190.4170  176.1560  139.0850 C   0  0  2  0  0  3  0  0  0  0  0  0
  190.0650  177.6300  139.1320 C   0  0  1  0  0  3  0  0  0  0  0  0
  188.5990  177.7690  139.4820 C   0  0  0  0  0  1  0  0  0  0  0  0
  190.7980  176.9850  140.2950 C   0  0  0  0  0  2  0  0  0  0  0  0
  189.4280  177.4740  135.2070 O   0  0  0  0  0  1  0  0  0  0  0  0
  187.5770  175.9870  135.4200 C   0  0  0  0  0  1  0  0  0  0  0  0
  189.0850  176.1250  135.2850 C   0  0  2  0  0  3  0  0  0  0  0  0
  1 16  1  6  0  0  0
  1  5  1  0  0  0  0
  2 13  1  6  0  0  0
  2 15  1  0  0  0  0
  4 19  1  0  0  0  0
  4  1  1  0  0  0  0
  4 10  1  0  0  0  0
  5 14  1  0  0  0  0
  5  9  1  0  0  0  0
  6  9  1  0  0  0  0
  6 24  1  0  0  0  0
  7 19  1  0  0  0  0
  7 12  1  0  0  0  0
  8 18  1  0  0  0  0
 10  6  1  0  0  0  0
 11  2  1  0  0  0  0
 11 15  1  0  0  0  0
 12 23  1  0  0  0  0
 12 20  2  0  0  0  0
 14 21  1  0  0  0  0
 15 22  1  0  0  0  0
 16 13  1  0  0  0  0
 17 19  1  0  0  0  0
 18 14  1  0  0  0  0
 19 18  1  0  0  0  0
 21  3  1  0  0  0  0
 22 21  1  0  0  0  0
 23 10  1  0  0  0  0
 24 25  1  0  0  0  0
 24 27  1  0  0  0  0
 25 26  1  0  0  0  0
 25 27  1  0  0  0  0
 28 30  1  0  0  0  0
 30 29  1  0  0  0  0
 30 23  1  0  0  0  0
M  END
>  <MODEL>
1

>  <REMARK>
 VINA RESULT:      -5.3      0.000      0.000
  Name = 
  2 active torsions:
  status: ('A' for Active; 'I' for Inactive)
    1  A    between atoms: C_6  and  C_8
    2  A    between atoms: C_27  and  C_30
                            x       y       z     vdW  Elec       q    Type
                         _______ _______ _______ _____ _____    ______ ____

>  <TORSDO>
F 2

$$$$
=
 OpenBabel10262422023D

 30 35  0  0  1  0  0  0  0  0999 V2000
  183.2550  178.8050  139.5950 C   0  0  1  0  0  3  0  0  0  0  0  0
  184.1440  179.1700  142.7580 C   0  0  1  0  0  3  0  0  0  0  0  0
  180.3490  180.3700  142.5570 O   0  0  0  0  0  1  0  0  0  0  0  0
  182.5970  177.7980  138.6510 C   0  0  2  0  0  3  0  0  0  0  0  0
  182.2000  179.6350  140.3110 C   0  0  1  0  0  3  0  0  0  0  0  0
  180.8830  179.4320  137.9100 C   0  0  2  0  0  3  0  0  0  0  0  0
  180.9990  175.8290  138.4000 C   0  0  0  0  0  2  0  0  0  0  0  0
  179.8320  176.6990  140.9980 O   0  0  0  0  0  1  0  0  0  0  0  0
  181.4510  180.7500  139.0870 S   0  0  0  0  0  0  0  0  0  0  0  0
  181.9760  178.5090  137.5050 N   0  0  2  0  0  0  0  0  0  0  0  0
  184.0340  178.8070  144.2260 C   0  0  0  0  0  2  0  0  0  0  0  0
  180.5990  176.4760  137.1140 C   0  0  0  0  0  0  0  0  0  0  0  0
  184.0240  177.9150  141.9010 C   0  0  0  0  0  2  0  0  0  0  0  0
  181.1400  178.7380  140.9690 C   0  0  2  0  0  3  0  0  0  0  0  0
  182.8840  179.5290  143.5570 C   0  0  2  0  0  3  0  0  0  0  0  0
  184.3960  178.2350  140.4560 C   0  0  0  0  0  2  0  0  0  0  0  0
  182.3840  176.0430  140.2860 O   0  0  0  0  0  1  0  0  0  0  0  0
  180.5460  177.5690  140.1670 C   0  0  1  0  0  3  0  0  0  0  0  0
  181.6380  176.8090  139.3880 C   0  0  1  0  0  0  0  0  0  0  0  0
  179.6630  175.9570  136.4110 N   0  0  0  0  0  2  0  0  0  0  0  0
  180.6730  179.0220  142.3920 C   0  0  1  0  0  3  0  0  0  0  0  0
  181.7030  178.5630  143.4240 C   0  0  0  0  0  2  0  0  0  0  0  0
  181.4840  177.5370  136.5110 C   0  0  2  0  0  3  0  0  0  0  0  0
  180.0860  179.9660  136.6870 C   0  0  2  0  0  3  0  0  0  0  0  0
  180.6780  181.2550  136.1510 C   0  0  1  0  0  3  0  0  0  0  0  0
  180.3920  181.3420  134.6680 C   0  0  0  0  0  1  0  0  0  0  0  0
  179.3670  181.2800  136.9170 C   0  0  0  0  0  2  0  0  0  0  0  0
  182.8750  177.9520  134.5950 O   0  0  0  0  0  1  0  0  0  0  0  0
  182.2750  175.6730  134.9560 C   0  0  0  0  0  1  0  0  0  0  0  0
  182.5990  177.0160  135.5920 C   0  0  2  0  0  3  0  0  0  0  0  0
  1  5  1  0  0  0  0
  1 16  1  1  0  0  0
  2 13  1  6  0  0  0
  2 15  1  0  0  0  0
  2 11  1  0  0  0  0
  4 19  1  0  0  0  0
  4  1  1  0  0  0  0
  5 14  1  0  0  0  0
  6  9  1  0  0  0  0
  7 19  1  0  0  0  0
  9  5  1  0  0  0  0
 10  6  1  0  0  0  0
 10  4  1  0  0  0  0
 12  7  1  0  0  0  0
 14 21  1  0  0  0  0
 15 11  1  0  0  0  0
 16 13  1  0  0  0  0
 18 14  1  0  0  0  0
 18  8  1  0  0  0  0
 19 18  1  0  0  0  0
 19 17  1  0  0  0  0
 20 12  2  0  0  0  0
 21  3  1  0  0  0  0
 21 22  1  0  0  0  0
 22 15  1  0  0  0  0
 23 12  1  0  0  0  0
 23 10  1  0  0  0  0
 24 27  1  0  0  0  0
 24  6  1  0  0  0  0
 25 24  1  0  0  0  0
 25 27  1  0  0  0  0
 26 25  1  0  0  0  0
 28 30  1  0  0  0  0
 29 30  1  0  0  0  0
 30 23  1  0  0  0  0
M  END
>  <MODEL>
2

>  <REMARK>
 VINA RESULT:      -5.0     10.293     12.433
  Name = 
  2 active torsions:
  status: ('A' for Active; 'I' for Inactive)
    1  A    between atoms: C_6  and  C_8
    2  A    between atoms: C_27  and  C_30
                            x       y       z     vdW  Elec       q    Type
                         _______ _______ _______ _____ _____    ______ ____

>  <TORSDO>
F 2

$$$$
=
 OpenBabel10262422023D

 30 35  0  0  1  0  0  0  0  0999 V2000
  181.6460  179.2010  138.8760 C   0  0  1  0  0  3  0  0  0  0  0  0
  181.8510  178.2420  135.7190 C   0  0  1  0  0  3  0  0  0  0  0  0
  183.9220  175.5490  137.8030 O   0  0  0  0  0  1  0  0  0  0  0  0
  180.8070  178.9810  140.1360 C   0  0  2  0  0  3  0  0  0  0  0  0
  182.7190  178.1290  138.7560 C   0  0  1  0  0  3  0  0  0  0  0  0
  182.7900  178.3550  141.4910 C   0  0  2  0  0  3  0  0  0  0  0  0
  179.2750  177.4190  141.4410 C   0  0  0  0  0  2  0  0  0  0  0  0
  180.4520  175.2230  139.8090 O   0  0  0  0  0  1  0  0  0  0  0  0
  183.9560  178.4380  140.0500 S   0  0  0  0  0  0  0  0  0  0  0  0
  181.6230  179.2650  141.3440 N   0  0  2  0  0  0  0  0  0  0  0  0
  181.5550  177.2640  134.6000 C   0  0  0  0  0  2  0  0  0  0  0  0
  179.9730  177.9440  142.6520 C   0  0  0  0  0  0  0  0  0  0  0  0
  180.6440  178.3550  136.6440 C   0  0  0  0  0  2  0  0  0  0  0  0
  182.1160  176.7220  138.8870 C   0  0  2  0  0  3  0  0  0  0  0  0
  182.5180  176.8600  135.6950 C   0  0  2  0  0  3  0  0  0  0  0  0
  180.8370  179.5230  137.6080 C   0  0  0  0  0  2  0  0  0  0  0  0
  179.1880  177.5350  139.0950 O   0  0  0  0  0  1  0  0  0  0  0  0
  181.1080  176.4410  140.0120 C   0  0  1  0  0  3  0  0  0  0  0  0
  180.0930  177.5920  140.1580 C   0  0  1  0  0  0  0  0  0  0  0  0
  179.6790  177.4700  143.8050 N   0  0  0  0  0  2  0  0  0  0  0  0
  182.5320  175.6170  137.9220 C   0  0  1  0  0  3  0  0  0  0  0  0
  181.8610  175.7790  136.5580 C   0  0  0  0  0  2  0  0  0  0  0  0
  180.7780  179.2140  142.5520 C   0  0  2  0  0  3  0  0  0  0  0  0
  183.4740  178.5020  142.8790 C   0  0  2  0  0  3  0  0  0  0  0  0
  184.6270  179.4860  142.8330 C   0  0  1  0  0  3  0  0  0  0  0  0
  184.7760  180.1240  144.1980 C   0  0  0  0  0  1  0  0  0  0  0  0
  184.9020  177.9970  142.9440 C   0  0  0  0  0  2  0  0  0  0  0  0
  178.9920  180.3100  143.7290 O   0  0  0  0  0  1  0  0  0  0  0  0
  179.3660  181.0610  141.4980 C   0  0  0  0  0  1  0  0  0  0  0  0
  179.9870  180.5120  142.7730 C   0  0  2  0  0  3  0  0  0  0  0  0
  1 16  1  6  0  0  0
  1  4  1  0  0  0  0
  2 11  1  6  0  0  0
  2 13  1  0  0  0  0
  3 21  1  0  0  0  0
  4 19  1  0  0  0  0
  4 10  1  0  0  0  0
  5  1  1  0  0  0  0
  5 14  1  0  0  0  0
  5  9  1  0  0  0  0
  6 24  1  0  0  0  0
  7 12  1  0  0  0  0
  8 18  1  0  0  0  0
  9  6  1  0  0  0  0
 10  6  1  0  0  0  0
 10 23  1  0  0  0  0
 11 15  1  0  0  0  0
 12 20  2  0  0  0  0
 13 16  1  0  0  0  0
 14 18  1  0  0  0  0
 15  2  1  0  0  0  0
 15 22  1  0  0  0  0
 17 19  1  0  0  0  0
 18 19  1  0  0  0  0
 19  7  1  0  0  0  0
 21 14  1  0  0  0  0
 22 21  1  0  0  0  0
 23 12  1  0  0  0  0
 23 30  1  0  0  0  0
 24 27  1  0  0  0  0
 25 24  1  0  0  0  0
 25 27  1  0  0  0  0
 25 26  1  0  0  0  0
 29 30  1  0  0  0  0
 30 28  1  0  0  0  0
M  END
>  <MODEL>
3

>  <REMARK>
 VINA RESULT:      -4.9     10.363     12.513
  Name = 
  2 active torsions:
  status: ('A' for Active; 'I' for Inactive)
    1  A    between atoms: C_6  and  C_8
    2  A    between atoms: C_27  and  C_30
                            x       y       z     vdW  Elec       q    Type
                         _______ _______ _______ _____ _____    ______ ____

>  <TORSDO>
F 2

$$$$
=
 OpenBabel10262422023D

 30 35  0  0  1  0  0  0  0  0999 V2000
  182.6940  176.9140  139.5260 C   0  0  1  0  0  3  0  0  0  0  0  0
  180.2860  178.7680  140.8270 C   0  0  1  0  0  3  0  0  0  0  0  0
  182.1330  181.1000  138.1750 O   0  0  0  0  0  1  0  0  0  0  0  0
  182.9750  175.9830  138.3460 C   0  0  2  0  0  3  0  0  0  0  0  0
  182.9200  178.3650  139.1280 C   0  0  1  0  0  3  0  0  0  0  0  0
  184.9570  177.2940  137.6300 C   0  0  2  0  0  3  0  0  0  0  0  0
  182.3980  175.3280  135.9520 C   0  0  0  0  0  2  0  0  0  0  0  0
  181.2490  178.0640  135.6910 O   0  0  0  0  0  1  0  0  0  0  0  0
  184.7080  178.6070  138.9180 S   0  0  0  0  0  0  0  0  0  0  0  0
  184.4300  175.9670  138.0480 N   0  0  2  0  0  0  0  0  0  0  0  0
  178.9840  179.5360  140.7130 C   0  0  0  0  0  2  0  0  0  0  0  0
  183.8630  175.0840  135.7950 C   0  0  0  0  0  0  0  0  0  0  0  0
  180.2140  177.4960  139.9890 C   0  0  0  0  0  2  0  0  0  0  0  0
  182.1560  178.7130  137.8410 C   0  0  2  0  0  3  0  0  0  0  0  0
  180.2190  180.0740  140.0230 C   0  0  2  0  0  3  0  0  0  0  0  0
  181.4060  176.5970  140.3070 C   0  0  0  0  0  2  0  0  0  0  0  0
  180.7390  176.0440  137.4560 O   0  0  0  0  0  1  0  0  0  0  0  0
  182.2160  177.7450  136.6490 C   0  0  1  0  0  3  0  0  0  0  0  0
  182.0710  176.2800  137.1070 C   0  0  1  0  0  0  0  0  0  0  0  0
  184.3250  174.7360  134.6520 N   0  0  0  0  0  2  0  0  0  0  0  0
  181.3670  180.0140  137.7470 C   0  0  1  0  0  3  0  0  0  0  0  0
  180.0450  179.9260  138.5090 C   0  0  0  0  0  2  0  0  0  0  0  0
  184.7280  174.9510  137.0210 C   0  0  2  0  0  3  0  0  0  0  0  0
  186.4090  177.2000  137.0840 C   0  0  2  0  0  3  0  0  0  0  0  0
  187.0240  178.5720  136.8850 C   0  0  1  0  0  3  0  0  0  0  0  0
  188.5230  178.4640  137.0630 C   0  0  0  0  0  1  0  0  0  0  0  0
  186.6010  177.7450  135.6830 C   0  0  0  0  0  2  0  0  0  0  0  0
  186.1240  173.0450  137.4600 O   0  0  0  0  0  1  0  0  0  0  0  0
  183.8400  172.5590  136.9820 C   0  0  0  0  0  1  0  0  0  0  0  0
  184.8260  173.5340  137.6050 C   0  0  2  0  0  3  0  0  0  0  0  0
  1 16  1  6  0  0  0
  2 13  1  6  0  0  0
  4  1  1  0  0  0  0
  5  1  1  0  0  0  0
  6 10  1  0  0  0  0
  6  9  1  0  0  0  0
  7 19  1  0  0  0  0
  8 18  1  0  0  0  0
  9  5  1  0  0  0  0
 10  4  1  0  0  0  0
 11  2  1  0  0  0  0
 12  7  1  0  0  0  0
 12 23  1  0  0  0  0
 13 16  1  0  0  0  0
 14  5  1  0  0  0  0
 15 11  1  0  0  0  0
 15  2  1  0  0  0  0
 18 19  1  0  0  0  0
 18 14  1  0  0  0  0
 19 17  1  0  0  0  0
 19  4  1  0  0  0  0
 20 12  2  0  0  0  0
 21 14  1  0  0  0  0
 21  3  1  0  0  0  0
 21 22  1  0  0  0  0
 22 15  1  0  0  0  0
 23 30  1  0  0  0  0
 23 10  1  0  0  0  0
 24  6  1  0  0  0  0
 25 26  1  0  0  0  0
 25 24  1  0  0  0  0
 27 25  1  0  0  0  0
 27 24  1  0  0  0  0
 28 30  1  0  0  0  0
 29 30  1  0  0  0  0
M  END
>  <MODEL>
4

>  <REMARK>
 VINA RESULT:      -4.9      6.592     11.477
  Name = 
  2 active torsions:
  status: ('A' for Active; 'I' for Inactive)
    1  A    between atoms: C_6  and  C_8
    2  A    between atoms: C_27  and  C_30
                            x       y       z     vdW  Elec       q    Type
                         _______ _______ _______ _____ _____    ______ ____

>  <TORSDO>
F 2

$$$$
=
 OpenBabel10262422023D

 30 35  0  0  1  0  0  0  0  0999 V2000
  183.8790  177.5640  139.5930 C   0  0  1  0  0  3  0  0  0  0  0  0
  186.2440  177.4290  137.2880 C   0  0  1  0  0  3  0  0  0  0  0  0
  182.9790  175.9170  135.5750 O   0  0  0  0  0  1  0  0  0  0  0  0
  182.7480  178.4660  140.0890 C   0  0  2  0  0  3  0  0  0  0  0  0
  183.3990  176.6870  138.4450 C   0  0  1  0  0  3  0  0  0  0  0  0
  181.0550  176.6640  139.8760 C   0  0  2  0  0  3  0  0  0  0  0  0
  181.0560  180.2840  139.5200 C   0  0  0  0  0  2  0  0  0  0  0  0
  181.4140  179.4530  136.6820 O   0  0  0  0  0  1  0  0  0  0  0  0
  182.2530  175.4560  139.1320 S   0  0  0  0  0  0  0  0  0  0  0  0
  181.7120  177.6520  140.7730 N   0  0  2  0  0  0  0  0  0  0  0  0
  186.8400  177.8540  135.9610 C   0  0  0  0  0  2  0  0  0  0  0  0
  180.1370  179.5440  140.4350 C   0  0  0  0  0  0  0  0  0  0  0  0
  185.5980  178.6260  137.9760 C   0  0  0  0  0  2  0  0  0  0  0  0
  182.7230  177.5270  137.3510 C   0  0  2  0  0  3  0  0  0  0  0  0
  185.5840  177.0090  135.9680 C   0  0  2  0  0  3  0  0  0  0  0  0
  185.2360  178.2660  139.4140 C   0  0  0  0  0  2  0  0  0  0  0  0
  183.2060  180.2770  138.5690 O   0  0  0  0  0  1  0  0  0  0  0  0
  181.7030  178.6030  137.7550 C   0  0  1  0  0  3  0  0  0  0  0  0
  182.1900  179.4090  138.9760 C   0  0  1  0  0  0  0  0  0  0  0  0
  178.9310  179.9510  140.5810 N   0  0  0  0  0  2  0  0  0  0  0  0
  183.0490  177.2780  135.8820 C   0  0  1  0  0  3  0  0  0  0  0  0
  184.4060  177.8690  135.4990 C   0  0  0  0  0  2  0  0  0  0  0  0
  180.7040  178.5300  141.3950 C   0  0  2  0  0  3  0  0  0  0  0  0
  179.8130  176.0080  140.5400 C   0  0  2  0  0  3  0  0  0  0  0  0
  179.9030  174.4940  140.5260 C   0  0  1  0  0  3  0  0  0  0  0  0
  179.1470  173.9500  141.7190 C   0  0  0  0  0  1  0  0  0  0  0  0
  178.9340  175.2070  139.6000 C   0  0  0  0  0  2  0  0  0  0  0  0
  182.4970  178.7530  142.9800 O   0  0  0  0  0  1  0  0  0  0  0  0
  180.3070  178.6270  143.9140 C   0  0  0  0  0  1  0  0  0  0  0  0
  181.1640  179.0930  142.7470 C   0  0  2  0  0  3  0  0  0  0  0  0
  1 16  1  6  0  0  0
  1  4  1  0  0  0  0
  2 11  1  6  0  0  0
  2 13  1  0  0  0  0
  3 21  1  0  0  0  0
  4 10  1  0  0  0  0
  5  9  1  0  0  0  0
  5  1  1  0  0  0  0
  6 24  1  0  0  0  0
  6 10  1  0  0  0  0
  7 12  1  0  0  0  0
  8 18  1  0  0  0  0
  9  6  1  0  0  0  0
 10 23  1  0  0  0  0
 11 15  1  0  0  0  0
 12 20  2  0  0  0  0
 12 23  1  0  0  0  0
 13 16  1  0  0  0  0
 14 18  1  0  0  0  0
 14  5  1  0  0  0  0
 15  2  1  0  0  0  0
 17 19  1  0  0  0  0
 18 19  1  0  0  0  0
 19  7  1  0  0  0  0
 19  4  1  0  0  0  0
 21 14  1  0  0  0  0
 22 21  1  0  0  0  0
 22 15  1  0  0  0  0
 23 30  1  0  0  0  0
 25 24  1  0  0  0  0
 25 26  1  0  0  0  0
 27 25  1  0  0  0  0
 27 24  1  0  0  0  0
 30 28  1  0  0  0  0
 30 29  1  0  0  0  0
M  END
>  <MODEL>
5

>  <REMARK>
 VINA RESULT:      -4.8      8.162     11.643
  Name = 
  2 active torsions:
  status: ('A' for Active; 'I' for Inactive)
    1  A    between atoms: C_6  and  C_8
    2  A    between atoms: C_27  and  C_30
                            x       y       z     vdW  Elec       q    Type
                         _______ _______ _______ _____ _____    ______ ____

>  <TORSDO>
F 2

$$$$
=
 OpenBabel10262422023D

 30 35  0  0  1  0  0  0  0  0999 V2000
  182.0280  178.6320  137.6110 C   0  0  1  0  0  3  0  0  0  0  0  0
  179.7250  180.4150  139.1730 C   0  0  1  0  0  3  0  0  0  0  0  0
  180.3990  177.2490  141.4980 O   0  0  0  0  0  1  0  0  0  0  0  0
  183.5440  178.4390  137.5450 C   0  0  2  0  0  3  0  0  0  0  0  0
  181.4310  177.7930  138.7320 C   0  0  1  0  0  3  0  0  0  0  0  0
  183.3730  176.0020  137.9820 C   0  0  2  0  0  3  0  0  0  0  0  0
  185.7780  178.6190  138.7550 C   0  0  0  0  0  2  0  0  0  0  0  0
  184.1920  178.5670  141.2760 O   0  0  0  0  0  1  0  0  0  0  0  0
  181.5340  176.0490  138.2310 S   0  0  0  0  0  0  0  0  0  0  0  0
  183.8600  177.0680  137.0670 N   0  0  2  0  0  0  0  0  0  0  0  0
  179.2590  181.2680  140.3360 C   0  0  0  0  0  2  0  0  0  0  0  0
  186.1310  177.3580  138.0350 C   0  0  0  0  0  0  0  0  0  0  0  0
  181.1720  180.7490  138.8300 C   0  0  0  0  0  2  0  0  0  0  0  0
  182.1670  178.0350  140.0590 C   0  0  2  0  0  3  0  0  0  0  0  0
  179.5180  179.7940  140.5620 C   0  0  2  0  0  3  0  0  0  0  0  0
  181.5560  180.0920  137.5070 C   0  0  0  0  0  2  0  0  0  0  0  0
  184.0760  180.2030  139.0940 O   0  0  0  0  0  1  0  0  0  0  0  0
  183.7040  178.0520  140.0710 C   0  0  1  0  0  3  0  0  0  0  0  0
  184.2670  178.8380  138.8710 C   0  0  1  0  0  0  0  0  0  0  0  0
  187.2590  176.7970  138.2630 N   0  0  0  0  0  2  0  0  0  0  0  0
  181.3770  178.2360  141.3470 C   0  0  1  0  0  3  0  0  0  0  0  0
  180.7730  179.6380  141.4250 C   0  0  0  0  0  2  0  0  0  0  0  0
  185.3110  176.9300  136.8450 C   0  0  2  0  0  3  0  0  0  0  0  0
  183.9310  174.6030  137.5970 C   0  0  2  0  0  3  0  0  0  0  0  0
  183.6780  174.2810  136.1370 C   0  0  1  0  0  3  0  0  0  0  0  0
  184.7730  173.3590  135.6450 C   0  0  0  0  0  1  0  0  0  0  0  0
  182.8800  173.5770  137.2210 C   0  0  0  0  0  2  0  0  0  0  0  0
  184.6960  177.5050  134.5940 O   0  0  0  0  0  1  0  0  0  0  0  0
  186.9460  176.7770  134.8920 C   0  0  0  0  0  1  0  0  0  0  0  0
  185.7600  177.5110  135.4960 C   0  0  2  0  0  3  0  0  0  0  0  0
  1 16  1  1  0  0  0
  1  5  1  0  0  0  0
  2 13  1  1  0  0  0
  2 11  1  0  0  0  0
  2 15  1  0  0  0  0
  4  1  1  0  0  0  0
  4 19  1  0  0  0  0
  5 14  1  0  0  0  0
  6  9  1  0  0  0  0
  7 19  1  0  0  0  0
  9  5  1  0  0  0  0
 10  4  1  0  0  0  0
 10  6  1  0  0  0  0
 11 15  1  0  0  0  0
 12 20  2  0  0  0  0
 12  7  1  0  0  0  0
 14 18  1  0  0  0  0
 14 21  1  0  0  0  0
 15 22  1  0  0  0  0
 16 13  1  0  0  0  0
 18  8  1  0  0  0  0
 19 17  1  0  0  0  0
 19 18  1  0  0  0  0
 21 22  1  0  0  0  0
 21  3  1  0  0  0  0
 23 10  1  0  0  0  0
 23 12  1  0  0  0  0
 24  6  1  0  0  0  0
 25 27  1  0  0  0  0
 25 24  1  0  0  0  0
 26 25  1  0  0  0  0
 27 24  1  0  0  0  0
 28 30  1  0  0  0  0
 29 30  1  0  0  0  0
 30 23  1  0  0  0  0
M  END
>  <MODEL>
6

>  <REMARK>
 VINA RESULT:      -4.5      7.458     11.646
  Name = 
  2 active torsions:
  status: ('A' for Active; 'I' for Inactive)
    1  A    between atoms: C_6  and  C_8
    2  A    between atoms: C_27  and  C_30
                            x       y       z     vdW  Elec       q    Type
                         _______ _______ _______ _____ _____    ______ ____

>  <TORSDO>
F 2

$$$$
=
 OpenBabel10262422023D

 30 35  0  0  1  0  0  0  0  0999 V2000
  184.0170  176.9940  137.8090 C   0  0  1  0  0  3  0  0  0  0  0  0
  186.2550  174.7590  136.8460 C   0  0  1  0  0  3  0  0  0  0  0  0
  182.8250  172.7630  137.2200 O   0  0  0  0  0  1  0  0  0  0  0  0
  182.9670  177.9510  137.2410 C   0  0  2  0  0  3  0  0  0  0  0  0
  183.4300  175.6010  137.9870 C   0  0  1  0  0  3  0  0  0  0  0  0
  181.1630  176.9990  138.6540 C   0  0  2  0  0  3  0  0  0  0  0  0
  181.3600  178.4750  135.3350 C   0  0  0  0  0  2  0  0  0  0  0  0
  181.5280  175.5790  134.6590 O   0  0  0  0  0  1  0  0  0  0  0  0
  182.2490  175.6720  139.3650 S   0  0  0  0  0  0  0  0  0  0  0  0
  181.9200  178.2170  138.2600 N   0  0  2  0  0  0  0  0  0  0  0  0
  186.8080  173.7750  135.8350 C   0  0  0  0  0  2  0  0  0  0  0  0
  180.4440  178.9700  136.4070 C   0  0  0  0  0  0  0  0  0  0  0  0
  185.7140  175.9930  136.1310 C   0  0  0  0  0  2  0  0  0  0  0  0
  182.7520  175.1150  136.6970 C   0  0  2  0  0  3  0  0  0  0  0  0
  185.5060  173.4550  136.5380 C   0  0  2  0  0  3  0  0  0  0  0  0
  185.4030  177.0880  137.1470 C   0  0  0  0  0  2  0  0  0  0  0  0
  183.4560  177.4930  134.9280 O   0  0  0  0  0  1  0  0  0  0  0  0
  181.8180  176.0700  135.9360 C   0  0  1  0  0  3  0  0  0  0  0  0
  182.4110  177.4910  135.8550 C   0  0  1  0  0  0  0  0  0  0  0  0
  179.2730  179.3840  136.0940 N   0  0  0  0  0  2  0  0  0  0  0  0
  182.9910  173.6960  136.1940 C   0  0  1  0  0  3  0  0  0  0  0  0
  184.3600  173.5580  135.5280 C   0  0  0  0  0  2  0  0  0  0  0  0
  180.9970  179.2610  137.7780 C   0  0  2  0  0  3  0  0  0  0  0  0
  179.9180  177.3400  139.5190 C   0  0  2  0  0  3  0  0  0  0  0  0
  180.2920  177.5840  140.9680 C   0  0  1  0  0  3  0  0  0  0  0  0
  179.2990  178.5550  141.5710 C   0  0  0  0  0  1  0  0  0  0  0  0
  179.5700  176.3080  140.5740 C   0  0  0  0  0  2  0  0  0  0  0  0
  182.7340  180.6310  138.7170 O   0  0  0  0  0  1  0  0  0  0  0  0
  180.5690  181.6260  138.6370 C   0  0  0  0  0  1  0  0  0  0  0  0
  181.5550  180.6780  137.9730 C   0  0  2  0  0  3  0  0  0  0  0  0
  1 16  1  6  0  0  0
  1  5  1  0  0  0  0
  2 11  1  6  0  0  0
  4  1  1  0  0  0  0
  4 10  1  0  0  0  0
  5  9  1  0  0  0  0
  6  9  1  0  0  0  0
  6 24  1  0  0  0  0
  7 19  1  0  0  0  0
  7 12  1  0  0  0  0
  8 18  1  0  0  0  0
 10  6  1  0  0  0  0
 11 15  1  0  0  0  0
 12 23  1  0  0  0  0
 13  2  1  0  0  0  0
 13 16  1  0  0  0  0
 14  5  1  0  0  0  0
 15  2  1  0  0  0  0
 17 19  1  0  0  0  0
 18 14  1  0  0  0  0
 19 18  1  0  0  0  0
 19  4  1  0  0  0  0
 20 12  2  0  0  0  0
 21 14  1  0  0  0  0
 21  3  1  0  0  0  0
 22 21  1  0  0  0  0
 22 15  1  0  0  0  0
 23 30  1  0  0  0  0
 23 10  1  0  0  0  0
 24 27  1  0  0  0  0
 24 25  1  0  0  0  0
 25 26  1  0  0  0  0
 27 25  1  0  0  0  0
 30 29  1  0  0  0  0
 30 28  1  0  0  0  0
M  END
>  <MODEL>
7

>  <REMARK>
 VINA RESULT:      -4.3      7.889     10.764
  Name = 
  2 active torsions:
  status: ('A' for Active; 'I' for Inactive)
    1  A    between atoms: C_6  and  C_8
    2  A    between atoms: C_27  and  C_30
                            x       y       z     vdW  Elec       q    Type
                         _______ _______ _______ _____ _____    ______ ____

>  <TORSDO>
F 2

$$$$
=
 OpenBabel10262422023D

 30 35  0  0  1  0  0  0  0  0999 V2000
  182.7650  175.4040  138.7340 C   0  0  1  0  0  3  0  0  0  0  0  0
  182.5310  172.8130  136.6940 C   0  0  1  0  0  3  0  0  0  0  0  0
  178.9330  174.5270  136.6820 O   0  0  0  0  0  1  0  0  0  0  0  0
  183.0680  176.9030  138.7260 C   0  0  2  0  0  3  0  0  0  0  0  0
  181.2970  175.1540  138.4210 C   0  0  1  0  0  3  0  0  0  0  0  0
  180.9350  177.4610  139.8660 C   0  0  2  0  0  3  0  0  0  0  0  0
  183.0660  179.0790  137.4020 C   0  0  0  0  0  2  0  0  0  0  0  0
  181.0700  177.7650  135.6240 O   0  0  0  0  0  1  0  0  0  0  0  0
  180.3260  175.7080  139.8540 S   0  0  0  0  0  0  0  0  0  0  0  0
  182.4190  177.5570  139.8910 N   0  0  2  0  0  0  0  0  0  0  0  0
  182.3370  172.2130  135.3160 C   0  0  0  0  0  2  0  0  0  0  0  0
  182.6570  179.7190  138.6880 C   0  0  0  0  0  0  0  0  0  0  0  0
  183.3770  174.0770  136.5970 C   0  0  0  0  0  2  0  0  0  0  0  0
  180.8690  175.8880  137.1410 C   0  0  2  0  0  3  0  0  0  0  0  0
  181.1670  172.8940  135.9940 C   0  0  2  0  0  3  0  0  0  0  0  0
  183.7940  174.5320  137.9930 C   0  0  0  0  0  2  0  0  0  0  0  0
  183.5880  177.0280  136.3790 O   0  0  0  0  0  1  0  0  0  0  0  0
  181.2860  177.3540  136.9430 C   0  0  1  0  0  3  0  0  0  0  0  0
  182.7550  177.5800  137.3540 C   0  0  1  0  0  0  0  0  0  0  0  0
  182.4010  180.9740  138.7140 N   0  0  0  0  0  2  0  0  0  0  0  0
  180.0240  175.1710  136.0940 C   0  0  1  0  0  3  0  0  0  0  0  0
  180.8630  174.2030  135.2600 C   0  0  0  0  0  2  0  0  0  0  0  0
  182.8400  178.9680  139.9810 C   0  0  2  0  0  3  0  0  0  0  0  0
  180.2740  178.3620  140.9460 C   0  0  2  0  0  3  0  0  0  0  0  0
  180.1810  177.6560  142.2850 C   0  0  1  0  0  3  0  0  0  0  0  0
  180.2330  178.6930  143.3860 C   0  0  0  0  0  1  0  0  0  0  0  0
  178.9310  177.8720  141.4510 C   0  0  0  0  0  2  0  0  0  0  0  0
  185.2260  178.9990  139.6960 O   0  0  0  0  0  1  0  0  0  0  0  0
  184.4510  178.1510  141.7850 C   0  0  0  0  0  1  0  0  0  0  0  0
  184.2150  179.1320  140.6460 C   0  0  2  0  0  3  0  0  0  0  0  0
  1 16  1  6  0  0  0
  2 11  1  6  0  0  0
  4  1  1  0  0  0  0
  4 10  1  0  0  0  0
  5  1  1  0  0  0  0
  5  9  1  0  0  0  0
  6 10  1  0  0  0  0
  6 24  1  0  0  0  0
  7 12  1  0  0  0  0
  8 18  1  0  0  0  0
  9  6  1  0  0  0  0
 10 23  1  0  0  0  0
 11 15  1  0  0  0  0
 12 20  2  0  0  0  0
 12 23  1  0  0  0  0
 13  2  1  0  0  0  0
 13 16  1  0  0  0  0
 14  5  1  0  0  0  0
 15  2  1  0  0  0  0
 17 19  1  0  0  0  0
 18 14  1  0  0  0  0
 18 19  1  0  0  0  0
 19  7  1  0  0  0  0
 19  4  1  0  0  0  0
 21  3  1  0  0  0  0
 21 14  1  0  0  0  0
 22 15  1  0  0  0  0
 22 21  1  0  0  0  0
 23 30  1  0  0  0  0
 24 27  1  0  0  0  0
 24 25  1  0  0  0  0
 25 26  1  0  0  0  0
 27 25  1  0  0  0  0
 28 30  1  0  0  0  0
 30 29  1  0  0  0  0
M  END
>  <MODEL>
8

>  <REMARK>
 VINA RESULT:      -4.3      9.780     11.957
  Name = 
  2 active torsions:
  status: ('A' for Active; 'I' for Inactive)
    1  A    between atoms: C_6  and  C_8
    2  A    between atoms: C_27  and  C_30
                            x       y       z     vdW  Elec       q    Type
                         _______ _______ _______ _____ _____    ______ ____

>  <TORSDO>
F 2

$$$$
=
 OpenBabel10262422023D

 30 35  0  0  1  0  0  0  0  0999 V2000
  188.9730  175.8190  138.3530 C   0  0  1  0  0  3  0  0  0  0  0  0
  192.1770  176.1520  139.0960 C   0  0  1  0  0  3  0  0  0  0  0  0
  192.0740  174.3890  135.5230 O   0  0  0  0  0  1  0  0  0  0  0  0
  187.8390  176.5360  137.6180 C   0  0  2  0  0  3  0  0  0  0  0  0
  189.7930  174.9810  137.3830 C   0  0  1  0  0  3  0  0  0  0  0  0
  187.3540  174.5620  136.1940 C   0  0  2  0  0  3  0  0  0  0  0  0
  187.1790  178.1710  135.7800 C   0  0  0  0  0  2  0  0  0  0  0  0
  189.8530  177.6110  134.5940 O   0  0  0  0  0  1  0  0  0  0  0  0
  188.7700  173.5700  136.8700 S   0  0  0  0  0  0  0  0  0  0  0  0
  186.8220  175.5500  137.1700 N   0  0  2  0  0  0  0  0  0  0  0  0
  193.5480  176.7480  138.8500 C   0  0  0  0  0  2  0  0  0  0  0  0
  186.0210  177.2560  135.5500 C   0  0  0  0  0  0  0  0  0  0  0  0
  191.1010  177.2050  138.8530 C   0  0  0  0  0  2  0  0  0  0  0  0
  190.2410  175.8140  136.1710 C   0  0  2  0  0  3  0  0  0  0  0  0
  192.9860  175.7580  137.8530 C   0  0  2  0  0  3  0  0  0  0  0  0
  189.7520  176.6930  139.3510 C   0  0  0  0  0  2  0  0  0  0  0  0
  189.1180  178.5000  137.0680 O   0  0  0  0  0  1  0  0  0  0  0  0
  189.2190  176.7230  135.4690 C   0  0  1  0  0  3  0  0  0  0  0  0
  188.3510  177.4860  136.4890 C   0  0  1  0  0  0  0  0  0  0  0  0
  185.2050  177.5000  134.5940 N   0  0  0  0  0  2  0  0  0  0  0  0
  191.6760  175.7200  135.6650 C   0  0  1  0  0  3  0  0  0  0  0  0
  192.6400  176.5010  136.5590 C   0  0  0  0  0  2  0  0  0  0  0  0
  185.6520  176.2480  136.6070 C   0  0  2  0  0  3  0  0  0  0  0  0
  186.2240  173.7090  135.5530 C   0  0  2  0  0  3  0  0  0  0  0  0
  185.8720  172.5080  136.4090 C   0  0  1  0  0  3  0  0  0  0  0  0
  184.4180  172.1570  136.1820 C   0  0  0  0  0  1  0  0  0  0  0  0
  186.6420  172.3200  135.1140 C   0  0  0  0  0  2  0  0  0  0  0  0
  183.3720  176.4800  137.3320 O   0  0  0  0  0  1  0  0  0  0  0  0
  184.8410  178.2430  137.9770 C   0  0  0  0  0  1  0  0  0  0  0  0
  184.6900  176.7570  137.6910 C   0  0  2  0  0  3  0  0  0  0  0  0
  1 16  1  6  0  0  0
  2 11  1  1  0  0  0
  3 21  1  0  0  0  0
  4  1  1  0  0  0  0
  5  1  1  0  0  0  0
  6  9  1  0  0  0  0
  6 10  1  0  0  0  0
  7 19  1  0  0  0  0
  8 18  1  0  0  0  0
  9  5  1  0  0  0  0
 10  4  1  0  0  0  0
 12  7  1  0  0  0  0
 12 23  1  0  0  0  0
 13  2  1  0  0  0  0
 13 16  1  0  0  0  0
 14  5  1  0  0  0  0
 15 11  1  0  0  0  0
 15  2  1  0  0  0  0
 18 14  1  0  0  0  0
 18 19  1  0  0  0  0
 19 17  1  0  0  0  0
 19  4  1  0  0  0  0
 20 12  2  0  0  0  0
 21 14  1  0  0  0  0
 21 22  1  0  0  0  0
 22 15  1  0  0  0  0
 23 10  1  0  0  0  0
 23 30  1  0  0  0  0
 24  6  1  0  0  0  0
 24 25  1  0  0  0  0
 26 25  1  0  0  0  0
 27 24  1  0  0  0  0
 27 25  1  0  0  0  0
 28 30  1  0  0  0  0
 30 29  1  0  0  0  0
M  END
>  <MODEL>
9

>  <REMARK>
 VINA RESULT:      -4.2      2.963      5.729
  Name = 
  2 active torsions:
  status: ('A' for Active; 'I' for Inactive)
    1  A    between atoms: C_6  and  C_8
    2  A    between atoms: C_27  and  C_30
                            x       y       z     vdW  Elec       q    Type
                         _______ _______ _______ _____ _____    ______ ____

>  <TORSDO>
F 2

$$$$
