=
 OpenBabel10262420543D

 28 33  0  0  1  0  0  0  0  0999 V2000
  189.5960  177.7980  140.0110 N   0  0  0  0  0  0  0  0  0  0  0  0
  185.2700  178.7730  142.7040 S   0  0  0  0  0  0  0  0  0  0  0  0
  190.9260  178.9690  144.3380 C   0  0  0  0  0  1  0  0  0  0  0  0
  186.2500  178.2800  145.1590 C   0  0  1  0  0  3  0  0  0  0  0  0
  187.8540  177.8490  143.3090 C   0  0  0  0  0  0  0  0  0  0  0  0
  182.7050  178.5160  143.9010 C   0  0  0  0  0  2  0  0  0  0  0  0
  186.4130  177.8000  143.7320 C   0  0  2  0  0  3  0  0  0  0  0  0
  188.5370  177.5130  145.7110 C   0  0  0  0  0  2  0  0  0  0  0  0
  184.7660  178.2930  145.4450 C   0  0  0  0  0  2  0  0  0  0  0  0
  190.4960  177.5750  142.3410 C   0  0  0  0  0  0  0  0  0  0  0  0
  188.1560  177.9140  141.9060 N   0  0  0  0  0  0  0  0  0  0  0  0
  187.0480  177.3580  146.0530 C   0  0  0  0  0  2  0  0  0  0  0  0
  191.9280  177.3110  140.3670 C   0  0  0  0  0  3  0  0  0  0  0  0
  190.2950  177.6820  143.8260 C   0  0  0  0  0  0  0  0  0  0  0  0
  191.7100  177.3450  141.8290 C   0  0  0  0  0  3  0  0  0  0  0  0
  183.1860  179.9270  144.2340 C   0  0  0  0  0  2  0  0  0  0  0  0
  184.1670  178.7860  144.1460 C   0  0  0  0  0  0  0  0  0  0  0  0
  188.8380  177.6380  144.2240 C   0  0  0  0  0  0  0  0  0  0  0  0
  190.9180  177.5330  139.5190 C   0  0  0  0  0  3  0  0  0  0  0  0
  189.3580  177.7900  141.4290 C   0  0  2  0  0  3  0  0  0  0  0  0
  188.5290  178.0770  139.0590 C   0  0  0  0  0  2  0  0  0  0  0  0
  188.6330  177.1680  137.8810 C   0  0  0  0  0  0  0  0  0  0  0  0
  188.8790  175.4510  135.6850 C   0  0  0  0  0  0  0  0  0  0  0  0
  188.1840  175.8460  137.9720 C   0  0  0  0  0  3  0  0  0  0  0  0
  189.2120  177.6280  136.6920 C   0  0  0  0  0  3  0  0  0  0  0  0
  189.3330  176.7710  135.5950 C   0  0  0  0  0  3  0  0  0  0  0  0
  188.9990  174.6000  134.5950 O   0  0  0  0  0  1  0  0  0  0  0  0
  188.3050  174.9890  136.8730 C   0  0  0  0  0  3  0  0  0  0  0  0
  1 20  1  0  0  0  0
  2 17  1  0  0  0  0
  4  9  1  1  0  0  0
  4 12  1  0  0  0  0
  5  7  1  0  0  0  0
  5 18  1  0  0  0  0
  6 17  1  0  0  0  0
  6 16  1  0  0  0  0
  7  2  1  6  0  0  0
  7  4  1  0  0  0  0
  8 12  1  0  0  0  0
 10 14  1  0  0  0  0
 11  5  2  0  0  0  0
 13 15  1  0  0  0  0
 14 18  2  0  0  0  0
 14  3  1  0  0  0  0
 15 10  2  0  0  0  0
 17 16  1  0  0  0  0
 17  9  1  0  0  0  0
 18  8  1  0  0  0  0
 19  1  1  0  0  0  0
 19 13  2  0  0  0  0
 20 11  1  6  0  0  0
 20 10  1  0  0  0  0
 21  1  1  0  0  0  0
 22 24  1  0  0  0  0
 22 21  1  0  0  0  0
 23 28  1  0  0  0  0
 25 22  2  0  0  0  0
 26 23  2  0  0  0  0
 26 25  1  0  0  0  0
 27 23  1  0  0  0  0
 28 24  2  0  0  0  0
M  END
>  <MODEL>
1

>  <REMARK>
 VINA RESULT:      -8.9      0.000      0.000
  Name = 
  2 active torsions:
  status: ('A' for Active; 'I' for Inactive)
    1  A    between atoms: N_1  and  C_2
    2  A    between atoms: C_2  and  C_3
                            x       y       z     vdW  Elec       q    Type
                         _______ _______ _______ _____ _____    ______ ____

>  <TORSDO>
F 2

$$$$
=
 OpenBabel10262420543D

 28 33  0  0  1  0  0  0  0  0999 V2000
  189.0790  177.7440  138.5250 N   0  0  0  0  0  0  0  0  0  0  0  0
  185.6630  178.9250  142.2460 S   0  0  0  0  0  0  0  0  0  0  0  0
  191.4780  178.0300  142.5270 C   0  0  0  0  0  1  0  0  0  0  0  0
  187.0330  177.9240  144.3310 C   0  0  1  0  0  3  0  0  0  0  0  0
  188.1090  177.5480  142.1210 C   0  0  0  0  0  0  0  0  0  0  0  0
  183.4040  178.8710  143.9700 C   0  0  0  0  0  2  0  0  0  0  0  0
  186.8030  177.6480  142.8600 C   0  0  2  0  0  3  0  0  0  0  0  0
  189.2110  176.7520  144.2420 C   0  0  0  0  0  2  0  0  0  0  0  0
  185.6700  178.1120  144.9550 C   0  0  0  0  0  2  0  0  0  0  0  0
  190.3950  177.0370  140.5380 C   0  0  0  0  0  0  0  0  0  0  0  0
  188.1150  177.7810  140.7030 N   0  0  0  0  0  0  0  0  0  0  0  0
  187.8250  176.7680  144.9020 C   0  0  0  0  0  2  0  0  0  0  0  0
  191.3090  176.8690  138.2680 C   0  0  0  0  0  3  0  0  0  0  0  0
  190.5340  176.9450  142.0320 C   0  0  0  0  0  0  0  0  0  0  0  0
  191.4130  176.7110  139.7340 C   0  0  0  0  0  3  0  0  0  0  0  0
  184.1870  180.1280  144.3430 C   0  0  0  0  0  2  0  0  0  0  0  0
  184.9090  178.8810  143.8970 C   0  0  0  0  0  0  0  0  0  0  0  0
  189.2090  177.0570  142.7510 C   0  0  0  0  0  0  0  0  0  0  0  0
  190.1980  177.3650  137.7110 C   0  0  0  0  0  3  0  0  0  0  0  0
  189.1470  177.5540  139.9490 C   0  0  2  0  0  3  0  0  0  0  0  0
  187.9020  178.3200  137.8860 C   0  0  0  0  0  2  0  0  0  0  0  0
  186.9310  177.2480  137.5220 C   0  0  0  0  0  0  0  0  0  0  0  0
  185.1120  175.2180  136.8910 C   0  0  0  0  0  0  0  0  0  0  0  0
  185.5560  177.5010  137.5670 C   0  0  0  0  0  3  0  0  0  0  0  0
  187.3950  175.9750  137.1700 C   0  0  0  0  0  3  0  0  0  0  0  0
  186.4870  174.9620  136.8530 C   0  0  0  0  0  3  0  0  0  0  0  0
  184.2100  174.2110  136.5760 O   0  0  0  0  0  1  0  0  0  0  0  0
  184.6470  176.4860  137.2480 C   0  0  0  0  0  3  0  0  0  0  0  0
  1 20  1  0  0  0  0
  2  7  1  0  0  0  0
  2 17  1  0  0  0  0
  4 12  1  1  0  0  0
  4  9  1  0  0  0  0
  5 18  1  0  0  0  0
  6 16  1  0  0  0  0
  7  5  1  6  0  0  0
  7  4  1  0  0  0  0
  8 12  1  0  0  0  0
 10 14  1  0  0  0  0
 11  5  2  0  0  0  0
 13 15  1  0  0  0  0
 14  3  1  0  0  0  0
 14 18  2  0  0  0  0
 15 10  2  0  0  0  0
 17  6  1  0  0  0  0
 17 16  1  0  0  0  0
 17  9  1  0  0  0  0
 18  8  1  0  0  0  0
 19 13  2  0  0  0  0
 19  1  1  0  0  0  0
 20 10  1  6  0  0  0
 20 11  1  0  0  0  0
 21  1  1  0  0  0  0
 22 24  1  0  0  0  0
 22 21  1  0  0  0  0
 23 28  1  0  0  0  0
 25 22  2  0  0  0  0
 26 23  2  0  0  0  0
 26 25  1  0  0  0  0
 27 23  1  0  0  0  0
 28 24  2  0  0  0  0
M  END
>  <MODEL>
2

>  <REMARK>
 VINA RESULT:      -8.5      1.838      2.235
  Name = 
  2 active torsions:
  status: ('A' for Active; 'I' for Inactive)
    1  A    between atoms: N_1  and  C_2
    2  A    between atoms: C_2  and  C_3
                            x       y       z     vdW  Elec       q    Type
                         _______ _______ _______ _____ _____    ______ ____

>  <TORSDO>
F 2

$$$$
=
 OpenBabel10262420543D

 28 33  0  0  1  0  0  0  0  0999 V2000
  184.6590  178.9510  141.8870 N   0  0  0  0  0  0  0  0  0  0  0  0
  187.6110  177.7070  137.8050 S   0  0  0  0  0  0  0  0  0  0  0  0
  187.9650  176.0330  143.4420 C   0  0  0  0  0  1  0  0  0  0  0  0
  189.8480  177.0730  139.1530 C   0  0  1  0  0  3  0  0  0  0  0  0
  187.9970  177.9200  140.5800 C   0  0  0  0  0  0  0  0  0  0  0  0
  189.2860  177.8830  135.5160 C   0  0  0  0  0  2  0  0  0  0  0  0
  188.6770  178.0270  139.2430 C   0  0  2  0  0  3  0  0  0  0  0  0
  190.1880  177.2090  141.6000 C   0  0  0  0  0  2  0  0  0  0  0  0
  190.3890  177.1810  137.7460 C   0  0  0  0  0  2  0  0  0  0  0  0
  186.7030  178.1300  143.0840 C   0  0  0  0  0  0  0  0  0  0  0  0
  186.6300  178.3480  140.6910 N   0  0  0  0  0  0  0  0  0  0  0  0
  190.8400  177.4500  140.2310 C   0  0  0  0  0  2  0  0  0  0  0  0
  184.7130  178.8990  144.2940 C   0  0  0  0  0  3  0  0  0  0  0  0
  188.0660  177.4990  143.0440 C   0  0  0  0  0  0  0  0  0  0  0  0
  186.0830  178.3470  144.2500 C   0  0  0  0  0  3  0  0  0  0  0  0
  189.0060  176.3950  135.7190 C   0  0  0  0  0  2  0  0  0  0  0  0
  189.1380  177.3180  136.9050 C   0  0  0  0  0  0  0  0  0  0  0  0
  188.7240  177.6130  141.6880 C   0  0  0  0  0  0  0  0  0  0  0  0
  184.0490  179.1750  143.1660 C   0  0  0  0  0  3  0  0  0  0  0  0
  186.0080  178.4560  141.8260 C   0  0  2  0  0  3  0  0  0  0  0  0
  183.8910  179.2230  140.6790 C   0  0  0  0  0  2  0  0  0  0  0  0
  182.8660  178.1610  140.4640 C   0  0  0  0  0  0  0  0  0  0  0  0
  180.9280  176.1930  140.0150 C   0  0  0  0  0  0  0  0  0  0  0  0
  183.2250  176.9480  139.8670 C   0  0  0  0  0  3  0  0  0  0  0  0
  181.5340  178.3910  140.8300 C   0  0  0  0  0  3  0  0  0  0  0  0
  180.5670  177.4080  140.6070 C   0  0  0  0  0  3  0  0  0  0  0  0
  179.9680  175.2150  139.7950 O   0  0  0  0  0  1  0  0  0  0  0  0
  182.2560  175.9630  139.6450 C   0  0  0  0  0  3  0  0  0  0  0  0
  1 19  1  0  0  0  0
  4  9  1  6  0  0  0
  4  7  1  0  0  0  0
  4 12  1  0  0  0  0
  5 11  2  0  0  0  0
  5 18  1  0  0  0  0
  6 16  1  0  0  0  0
  6 17  1  0  0  0  0
  7  2  1  6  0  0  0
  7  5  1  0  0  0  0
  8 18  1  0  0  0  0
 10 15  2  0  0  0  0
 12  8  1  0  0  0  0
 14 10  1  0  0  0  0
 14  3  1  0  0  0  0
 15 13  1  0  0  0  0
 16 17  1  0  0  0  0
 17  9  1  0  0  0  0
 17  2  1  0  0  0  0
 18 14  2  0  0  0  0
 19 13  2  0  0  0  0
 20 11  1  1  0  0  0
 20  1  1  0  0  0  0
 20 10  1  0  0  0  0
 21  1  1  0  0  0  0
 22 21  1  0  0  0  0
 22 25  1  0  0  0  0
 23 26  1  0  0  0  0
 24 22  2  0  0  0  0
 26 25  2  0  0  0  0
 27 23  1  0  0  0  0
 28 24  1  0  0  0  0
 28 23  2  0  0  0  0
M  END
>  <MODEL>
3

>  <REMARK>
 VINA RESULT:      -8.2      3.256      6.969
  Name = 
  2 active torsions:
  status: ('A' for Active; 'I' for Inactive)
    1  A    between atoms: N_1  and  C_2
    2  A    between atoms: C_2  and  C_3
                            x       y       z     vdW  Elec       q    Type
                         _______ _______ _______ _____ _____    ______ ____

>  <TORSDO>
F 2

$$$$
=
 OpenBabel10262420543D

 28 33  0  0  1  0  0  0  0  0999 V2000
  187.1540  178.3600  140.7190 N   0  0  0  0  0  0  0  0  0  0  0  0
  188.1530  178.1460  145.8050 S   0  0  0  0  0  0  0  0  0  0  0  0
  191.7830  177.8920  141.1730 C   0  0  0  0  0  1  0  0  0  0  0  0
  190.4830  176.8120  145.6630 C   0  0  1  0  0  3  0  0  0  0  0  0
  189.3540  177.1410  143.4720 C   0  0  0  0  0  0  0  0  0  0  0  0
  188.1240  177.3900  148.5450 C   0  0  0  0  0  2  0  0  0  0  0  0
  189.1540  176.8960  144.9420 C   0  0  2  0  0  3  0  0  0  0  0  0
  191.5770  175.9630  143.6130 C   0  0  0  0  0  2  0  0  0  0  0  0
  190.1690  176.6750  147.1350 C   0  0  0  0  0  2  0  0  0  0  0  0
  189.4340  177.3200  140.6520 C   0  0  0  0  0  0  0  0  0  0  0  0
  188.2790  177.7270  142.7210 N   0  0  0  0  0  0  0  0  0  0  0  0
  191.2550  175.6490  145.0800 C   0  0  0  0  0  2  0  0  0  0  0  0
  188.1890  177.8450  138.6050 C   0  0  0  0  0  3  0  0  0  0  0  0
  190.6760  176.8670  141.3670 C   0  0  2  0  0  3  0  0  0  0  0  0
  189.3780  177.3310  139.3160 C   0  0  0  0  0  3  0  0  0  0  0  0
  189.0610  178.5930  148.4500 C   0  0  0  0  0  2  0  0  0  0  0  0
  188.9820  177.5940  147.3230 C   0  0  0  0  0  0  0  0  0  0  0  0
  190.4500  176.6360  142.8430 C   0  0  0  0  0  0  0  0  0  0  0  0
  187.1450  178.3340  139.2840 C   0  0  0  0  0  3  0  0  0  0  0  0
  188.2850  177.8220  141.4260 C   0  0  0  0  0  0  0  0  0  0  0  0
  186.0170  178.9390  141.4230 C   0  0  0  0  0  2  0  0  0  0  0  0
  184.7580  178.7080  140.6570 C   0  0  0  0  0  0  0  0  0  0  0  0
  182.3690  178.3050  139.2570 C   0  0  0  0  0  0  0  0  0  0  0  0
  184.4290  179.5370  139.5790 C   0  0  0  0  0  3  0  0  0  0  0  0
  183.8860  177.6820  141.0380 C   0  0  0  0  0  3  0  0  0  0  0  0
  182.6940  177.4790  140.3390 C   0  0  0  0  0  3  0  0  0  0  0  0
  181.1850  178.1030  138.5610 O   0  0  0  0  0  1  0  0  0  0  0  0
  183.2360  179.3340  138.8780 C   0  0  0  0  0  3  0  0  0  0  0  0
  1 21  1  0  0  0  0
  1 20  1  0  0  0  0
  2 17  1  0  0  0  0
  4 12  1  6  0  0  0
  4  9  1  0  0  0  0
  7  5  1  6  0  0  0
  7  4  1  0  0  0  0
  7  2  1  0  0  0  0
  8 12  1  0  0  0  0
  9 17  1  0  0  0  0
 10 14  1  0  0  0  0
 10 20  1  0  0  0  0
 11  5  1  0  0  0  0
 13 19  2  0  0  0  0
 13 15  1  0  0  0  0
 14  3  1  1  0  0  0
 14 18  1  0  0  0  0
 15 10  2  0  0  0  0
 16  6  1  0  0  0  0
 17 16  1  0  0  0  0
 17  6  1  0  0  0  0
 18  5  2  0  0  0  0
 18  8  1  0  0  0  0
 19  1  1  0  0  0  0
 20 11  2  0  0  0  0
 22 25  1  0  0  0  0
 22 21  1  0  0  0  0
 23 26  1  0  0  0  0
 24 22  2  0  0  0  0
 26 25  2  0  0  0  0
 27 23  1  0  0  0  0
 28 23  2  0  0  0  0
 28 24  1  0  0  0  0
M  END
>  <MODEL>
4

>  <REMARK>
 VINA RESULT:      -8.1      3.119      5.102
  Name = 
  2 active torsions:
  status: ('A' for Active; 'I' for Inactive)
    1  A    between atoms: N_1  and  C_2
    2  A    between atoms: C_2  and  C_3
                            x       y       z     vdW  Elec       q    Type
                         _______ _______ _______ _____ _____    ______ ____

>  <TORSDO>
F 2

$$$$
=
 OpenBabel10262420543D

 28 33  0  0  1  0  0  0  0  0999 V2000
  184.1710  178.4500  142.5060 N   0  0  0  0  0  0  0  0  0  0  0  0
  189.0330  176.7830  143.2090 S   0  0  0  0  0  0  0  0  0  0  0  0
  184.5630  177.2730  147.0140 C   0  0  0  0  0  1  0  0  0  0  0  0
  189.2160  177.2910  145.8430 C   0  0  1  0  0  3  0  0  0  0  0  0
  187.0760  178.0160  144.8040 C   0  0  0  0  0  0  0  0  0  0  0  0
  191.8720  176.6390  143.2500 C   0  0  0  0  0  2  0  0  0  0  0  0
  188.5570  177.8520  144.6010 C   0  0  2  0  0  3  0  0  0  0  0  0
  187.4840  178.3310  147.2710 C   0  0  0  0  0  2  0  0  0  0  0  0
  190.6700  177.0660  145.4980 C   0  0  0  0  0  2  0  0  0  0  0  0
  184.3370  178.6860  144.9960 C   0  0  0  0  0  0  0  0  0  0  0  0
  186.2250  178.0560  143.6480 N   0  0  0  0  0  0  0  0  0  0  0  0
  188.9890  178.2700  146.9730 C   0  0  0  0  0  2  0  0  0  0  0  0
  182.2790  179.2280  143.7770 C   0  0  0  0  0  3  0  0  0  0  0  0
  185.1070  178.4850  146.2710 C   0  0  0  0  0  0  0  0  0  0  0  0
  183.0650  179.0990  145.0220 C   0  0  0  0  0  3  0  0  0  0  0  0
  191.3750  175.2910  143.7690 C   0  0  0  0  0  2  0  0  0  0  0  0
  190.6130  176.5570  144.0740 C   0  0  0  0  0  0  0  0  0  0  0  0
  186.5900  178.3150  146.0390 C   0  0  0  0  0  0  0  0  0  0  0  0
  182.8150  178.9110  142.5940 C   0  0  0  0  0  3  0  0  0  0  0  0
  184.9640  178.3620  143.7030 C   0  0  2  0  0  3  0  0  0  0  0  0
  184.7080  178.0730  141.2040 C   0  0  0  0  0  2  0  0  0  0  0  0
  183.6380  178.1240  140.1660 C   0  0  0  0  0  0  0  0  0  0  0  0
  181.6690  178.2080  138.1800 C   0  0  0  0  0  0  0  0  0  0  0  0
  182.8510  176.9960  139.9130 C   0  0  0  0  0  3  0  0  0  0  0  0
  183.4450  179.2920  139.4190 C   0  0  0  0  0  3  0  0  0  0  0  0
  182.4600  179.3350  138.4290 C   0  0  0  0  0  3  0  0  0  0  0  0
  180.6900  178.2510  137.1970 O   0  0  0  0  0  1  0  0  0  0  0  0
  181.8640  177.0390  138.9210 C   0  0  0  0  0  3  0  0  0  0  0  0
  1 19  1  0  0  0  0
  1 20  1  0  0  0  0
  2 17  1  0  0  0  0
  4  9  1  6  0  0  0
  4 12  1  0  0  0  0
  5 18  1  0  0  0  0
  6 16  1  0  0  0  0
  6 17  1  0  0  0  0
  7  2  1  6  0  0  0
  7  5  1  0  0  0  0
  7  4  1  0  0  0  0
 10 15  2  0  0  0  0
 10 14  1  0  0  0  0
 11  5  2  0  0  0  0
 12  8  1  0  0  0  0
 13 15  1  0  0  0  0
 14  3  1  0  0  0  0
 16 17  1  0  0  0  0
 17  9  1  0  0  0  0
 18 14  2  0  0  0  0
 18  8  1  0  0  0  0
 19 13  2  0  0  0  0
 20 11  1  6  0  0  0
 20 10  1  0  0  0  0
 21  1  1  0  0  0  0
 22 21  1  0  0  0  0
 23 26  2  0  0  0  0
 23 28  1  0  0  0  0
 24 22  1  0  0  0  0
 25 22  2  0  0  0  0
 26 25  1  0  0  0  0
 27 23  1  0  0  0  0
 28 24  2  0  0  0  0
M  END
>  <MODEL>
5

>  <REMARK>
 VINA RESULT:      -7.7      4.059      6.492
  Name = 
  2 active torsions:
  status: ('A' for Active; 'I' for Inactive)
    1  A    between atoms: N_1  and  C_2
    2  A    between atoms: C_2  and  C_3
                            x       y       z     vdW  Elec       q    Type
                         _______ _______ _______ _____ _____    ______ ____

>  <TORSDO>
F 2

$$$$
=
 OpenBabel10262420543D

 28 33  0  0  1  0  0  0  0  0999 V2000
  187.8550  178.3040  141.3680 N   0  0  0  0  0  0  0  0  0  0  0  0
  183.5520  179.8940  138.9460 S   0  0  0  0  0  0  0  0  0  0  0  0
  184.8180  179.5680  144.6900 C   0  0  0  0  0  1  0  0  0  0  0  0
  181.8170  179.4390  140.9490 C   0  0  1  0  0  3  0  0  0  0  0  0
  184.1510  178.7320  141.4330 C   0  0  0  0  0  0  0  0  0  0  0  0
  181.2650  179.9860  137.2610 C   0  0  0  0  0  2  0  0  0  0  0  0
  183.0930  178.8630  140.3730 C   0  0  2  0  0  3  0  0  0  0  0  0
  182.3370  178.4610  143.1610 C   0  0  0  0  0  2  0  0  0  0  0  0
  180.8650  179.6290  139.7900 C   0  0  0  0  0  2  0  0  0  0  0  0
  186.2190  178.1170  143.2590 C   0  0  0  0  0  0  0  0  0  0  0  0
  185.5280  178.6830  141.0270 N   0  0  0  0  0  0  0  0  0  0  0  0
  181.3170  178.4880  142.0140 C   0  0  0  0  0  2  0  0  0  0  0  0
  188.5970  177.5870  143.5450 C   0  0  0  0  0  3  0  0  0  0  0  0
  184.8350  178.3310  143.8040 C   0  0  0  0  0  0  0  0  0  0  0  0
  187.2180  177.7280  144.0590 C   0  0  0  0  0  3  0  0  0  0  0  0
  181.3440  181.3540  137.9370 C   0  0  0  0  0  2  0  0  0  0  0  0
  181.7700  180.1090  138.6760 C   0  0  0  0  0  0  0  0  0  0  0  0
  183.7930  178.4680  142.7190 C   0  0  0  0  0  0  0  0  0  0  0  0
  188.8840  177.8690  142.2690 C   0  0  0  0  0  3  0  0  0  0  0  0
  186.5000  178.4020  141.8410 C   0  0  2  0  0  3  0  0  0  0  0  0
  188.2120  178.6420  139.9960 C   0  0  0  0  0  2  0  0  0  0  0  0
  189.0650  177.5720  139.4020 C   0  0  0  0  0  0  0  0  0  0  0  0
  190.6730  175.5980  138.2430 C   0  0  0  0  0  0  0  0  0  0  0  0
  190.4110  177.4620  139.7670 C   0  0  0  0  0  3  0  0  0  0  0  0
  188.5270  176.6980  138.4500 C   0  0  0  0  0  3  0  0  0  0  0  0
  189.3290  175.7110  137.8730 C   0  0  0  0  0  3  0  0  0  0  0  0
  191.4700  174.6160  137.6710 O   0  0  0  0  0  1  0  0  0  0  0  0
  191.2140  176.4730  139.1900 C   0  0  0  0  0  3  0  0  0  0  0  0
  1 20  1  0  0  0  0
  1 19  1  0  0  0  0
  4  9  1  6  0  0  0
  4 12  1  0  0  0  0
  5 18  1  0  0  0  0
  6 16  1  0  0  0  0
  6 17  1  0  0  0  0
  7  2  1  6  0  0  0
  7  4  1  0  0  0  0
  7  5  1  0  0  0  0
 10 14  1  0  0  0  0
 10 15  2  0  0  0  0
 11  5  2  0  0  0  0
 12  8  1  0  0  0  0
 13 15  1  0  0  0  0
 14  3  1  0  0  0  0
 16 17  1  0  0  0  0
 17  2  1  0  0  0  0
 17  9  1  0  0  0  0
 18  8  1  0  0  0  0
 18 14  2  0  0  0  0
 19 13  2  0  0  0  0
 20 11  1  6  0  0  0
 20 10  1  0  0  0  0
 21  1  1  0  0  0  0
 22 24  1  0  0  0  0
 22 21  1  0  0  0  0
 23 28  1  0  0  0  0
 25 22  2  0  0  0  0
 26 23  2  0  0  0  0
 26 25  1  0  0  0  0
 27 23  1  0  0  0  0
 28 24  2  0  0  0  0
M  END
>  <MODEL>
6

>  <REMARK>
 VINA RESULT:      -7.7      2.969      4.773
  Name = 
  2 active torsions:
  status: ('A' for Active; 'I' for Inactive)
    1  A    between atoms: N_1  and  C_2
    2  A    between atoms: C_2  and  C_3
                            x       y       z     vdW  Elec       q    Type
                         _______ _______ _______ _____ _____    ______ ____

>  <TORSDO>
F 2

$$$$
=
 OpenBabel10262420543D

 28 33  0  0  1  0  0  0  0  0999 V2000
  188.1380  178.4870  140.2040 N   0  0  0  0  0  0  0  0  0  0  0  0
  183.2810  178.7050  142.0130 S   0  0  0  0  0  0  0  0  0  0  0  0
  185.4510  176.1660  137.1620 C   0  0  0  0  0  1  0  0  0  0  0  0
  182.0040  178.3630  139.6720 C   0  0  1  0  0  3  0  0  0  0  0  0
  184.4790  178.4950  139.4810 C   0  0  0  0  0  0  0  0  0  0  0  0
  180.7930  179.6680  142.9940 C   0  0  0  0  0  2  0  0  0  0  0  0
  183.2670  178.9940  140.2180 C   0  0  2  0  0  3  0  0  0  0  0  0
  183.0460  178.1280  137.4410 C   0  0  0  0  0  2  0  0  0  0  0  0
  180.8670  178.8440  140.5450 C   0  0  0  0  0  2  0  0  0  0  0  0
  186.8850  177.9500  138.1000 C   0  0  0  0  0  0  0  0  0  0  0  0
  185.7580  178.5740  140.1300 N   0  0  0  0  0  0  0  0  0  0  0  0
  181.8790  178.7550  138.2170 C   0  0  0  0  0  2  0  0  0  0  0  0
  189.3360  178.0150  138.1680 C   0  0  0  0  0  3  0  0  0  0  0  0
  185.5870  177.6630  137.3990 C   0  0  2  0  0  3  0  0  0  0  0  0
  188.0530  177.8060  137.4640 C   0  0  0  0  0  3  0  0  0  0  0  0
  180.6930  178.1440  143.0180 C   0  0  0  0  0  2  0  0  0  0  0  0
  181.4720  178.8430  141.9320 C   0  0  0  0  0  0  0  0  0  0  0  0
  184.3850  178.1660  138.1640 C   0  0  0  0  0  0  0  0  0  0  0  0
  189.3600  178.3320  139.4670 C   0  0  0  0  0  3  0  0  0  0  0  0
  186.8800  178.3310  139.5240 C   0  0  0  0  0  0  0  0  0  0  0  0
  188.2040  178.7910  141.6280 C   0  0  0  0  0  2  0  0  0  0  0  0
  189.2050  177.9140  142.3010 C   0  0  0  0  0  0  0  0  0  0  0  0
  191.0570  176.2770  143.6110 C   0  0  0  0  0  0  0  0  0  0  0  0
  189.0380  176.5250  142.2970 C   0  0  0  0  0  3  0  0  0  0  0  0
  190.2960  178.4830  142.9680 C   0  0  0  0  0  3  0  0  0  0  0  0
  191.2220  177.6660  143.6210 C   0  0  0  0  0  3  0  0  0  0  0  0
  191.9780  175.4640  144.2590 O   0  0  0  0  0  1  0  0  0  0  0  0
  189.9660  175.7060  142.9500 C   0  0  0  0  0  3  0  0  0  0  0  0
  1 21  1  0  0  0  0
  4 12  1  6  0  0  0
  4  7  1  0  0  0  0
  4  9  1  0  0  0  0
  5 11  1  0  0  0  0
  6 16  1  0  0  0  0
  7  5  1  6  0  0  0
  7  2  1  0  0  0  0
  8 18  1  0  0  0  0
  8 12  1  0  0  0  0
  9 17  1  0  0  0  0
 10 20  1  0  0  0  0
 13 19  2  0  0  0  0
 14  3  1  1  0  0  0
 14 10  1  0  0  0  0
 14 18  1  0  0  0  0
 15 10  2  0  0  0  0
 15 13  1  0  0  0  0
 17  2  1  0  0  0  0
 17  6  1  0  0  0  0
 17 16  1  0  0  0  0
 18  5  2  0  0  0  0
 19  1  1  0  0  0  0
 20 11  2  0  0  0  0
 20  1  1  0  0  0  0
 21 22  1  0  0  0  0
 22 25  1  0  0  0  0
 23 26  1  0  0  0  0
 23 27  1  0  0  0  0
 24 22  2  0  0  0  0
 24 28  1  0  0  0  0
 25 26  2  0  0  0  0
 28 23  2  0  0  0  0
M  END
>  <MODEL>
7

>  <REMARK>
 VINA RESULT:      -7.6      3.407      6.094
  Name = 
  2 active torsions:
  status: ('A' for Active; 'I' for Inactive)
    1  A    between atoms: N_1  and  C_2
    2  A    between atoms: C_2  and  C_3
                            x       y       z     vdW  Elec       q    Type
                         _______ _______ _______ _____ _____    ______ ____

>  <TORSDO>
F 2

$$$$
=
 OpenBabel10262420543D

 28 33  0  0  1  0  0  0  0  0999 V2000
  189.5980  177.6230  140.7270 N   0  0  0  0  0  0  0  0  0  0  0  0
  186.5950  178.2910  144.9040 S   0  0  0  0  0  0  0  0  0  0  0  0
  192.4230  178.8370  144.2490 C   0  0  0  0  0  1  0  0  0  0  0  0
  188.4700  177.8400  146.7770 C   0  0  1  0  0  3  0  0  0  0  0  0
  189.2600  177.5310  144.4400 C   0  0  0  0  0  0  0  0  0  0  0  0
  184.7070  177.8580  146.9840 C   0  0  0  0  0  2  0  0  0  0  0  0
  188.0970  177.3840  145.3820 C   0  0  2  0  0  3  0  0  0  0  0  0
  190.8320  177.2180  146.3840 C   0  0  0  0  0  2  0  0  0  0  0  0
  187.2120  177.7540  147.6110 C   0  0  0  0  0  2  0  0  0  0  0  0
  191.3360  177.4370  142.5240 C   0  0  0  0  0  0  0  0  0  0  0  0
  188.9940  177.6280  143.0310 N   0  0  0  0  0  0  0  0  0  0  0  0
  189.6010  176.9630  147.2660 C   0  0  0  0  0  2  0  0  0  0  0  0
  191.9110  177.2840  140.1440 C   0  0  0  0  0  3  0  0  0  0  0  0
  191.7170  177.5170  143.9760 C   0  0  0  0  0  0  0  0  0  0  0  0
  192.2710  177.2900  141.5780 C   0  0  0  0  0  3  0  0  0  0  0  0
  185.1980  179.2940  147.1540 C   0  0  0  0  0  2  0  0  0  0  0  0
  186.1330  178.2190  146.6580 C   0  0  0  0  0  0  0  0  0  0  0  0
  190.5300  177.3750  144.9000 C   0  0  0  0  0  0  0  0  0  0  0  0
  190.6410  177.4490  139.7570 C   0  0  0  0  0  3  0  0  0  0  0  0
  189.9250  177.5860  142.1270 C   0  0  2  0  0  3  0  0  0  0  0  0
  188.2330  177.8410  140.2660 C   0  0  0  0  0  2  0  0  0  0  0  0
  188.1740  177.8000  138.7760 C   0  0  0  0  0  0  0  0  0  0  0  0
  188.1160  177.7060  135.9810 C   0  0  0  0  0  0  0  0  0  0  0  0
  187.6580  176.6760  138.1240 C   0  0  0  0  0  3  0  0  0  0  0  0
  188.6690  178.8750  138.0280 C   0  0  0  0  0  3  0  0  0  0  0  0
  188.6380  178.8290  136.6320 C   0  0  0  0  0  3  0  0  0  0  0  0
  188.0850  177.6610  134.5940 O   0  0  0  0  0  1  0  0  0  0  0  0
  187.6260  176.6300  136.7260 C   0  0  0  0  0  3  0  0  0  0  0  0
  1 20  1  0  0  0  0
  2  7  1  0  0  0  0
  2 17  1  0  0  0  0
  4 12  1  1  0  0  0
  4  9  1  0  0  0  0
  5 18  1  0  0  0  0
  6 16  1  0  0  0  0
  7  5  1  6  0  0  0
  7  4  1  0  0  0  0
  8 12  1  0  0  0  0
 10 14  1  0  0  0  0
 11  5  2  0  0  0  0
 13 15  1  0  0  0  0
 14  3  1  0  0  0  0
 14 18  2  0  0  0  0
 15 10  2  0  0  0  0
 17  6  1  0  0  0  0
 17 16  1  0  0  0  0
 17  9  1  0  0  0  0
 18  8  1  0  0  0  0
 19 13  2  0  0  0  0
 19  1  1  0  0  0  0
 20 10  1  6  0  0  0
 20 11  1  0  0  0  0
 21  1  1  0  0  0  0
 22 21  1  0  0  0  0
 23 26  2  0  0  0  0
 23 28  1  0  0  0  0
 24 22  1  0  0  0  0
 25 22  2  0  0  0  0
 26 25  1  0  0  0  0
 27 23  1  0  0  0  0
 28 24  2  0  0  0  0
M  END
>  <MODEL>
8

>  <REMARK>
 VINA RESULT:      -7.6      1.804      2.163
  Name = 
  2 active torsions:
  status: ('A' for Active; 'I' for Inactive)
    1  A    between atoms: N_1  and  C_2
    2  A    between atoms: C_2  and  C_3
                            x       y       z     vdW  Elec       q    Type
                         _______ _______ _______ _____ _____    ______ ____

>  <TORSDO>
F 2

$$$$
=
 OpenBabel10262420543D

 28 33  0  0  1  0  0  0  0  0999 V2000
  184.9600  179.1050  142.7750 N   0  0  0  0  0  0  0  0  0  0  0  0
  182.8430  178.3920  138.0930 S   0  0  0  0  0  0  0  0  0  0  0  0
  180.3800  179.9390  143.2150 C   0  0  0  0  0  1  0  0  0  0  0  0
  180.3420  177.8340  138.9040 C   0  0  1  0  0  3  0  0  0  0  0  0
  181.9710  178.1610  140.7540 C   0  0  0  0  0  0  0  0  0  0  0  0
  182.0750  177.2390  135.6110 C   0  0  0  0  0  2  0  0  0  0  0  0
  181.7730  177.6400  139.3570 C   0  0  2  0  0  3  0  0  0  0  0  0
  179.5480  177.6750  141.2420 C   0  0  0  0  0  2  0  0  0  0  0  0
  180.2780  177.3810  137.4640 C   0  0  0  0  0  2  0  0  0  0  0  0
  182.5630  178.7980  143.4430 C   0  0  0  0  0  0  0  0  0  0  0  0
  183.2980  178.5200  141.1710 N   0  0  0  0  0  0  0  0  0  0  0  0
  179.4480  177.0520  139.8420 C   0  0  0  0  0  2  0  0  0  0  0  0
  184.3200  179.2540  145.0930 C   0  0  0  0  0  3  0  0  0  0  0  0
  181.1210  178.6190  143.0600 C   0  0  0  0  0  0  0  0  0  0  0  0
  182.9130  179.0030  144.7180 C   0  0  0  0  0  3  0  0  0  0  0  0
  181.5180  178.6610  135.6040 C   0  0  0  0  0  2  0  0  0  0  0  0
  181.5880  177.8730  136.8880 C   0  0  0  0  0  0  0  0  0  0  0  0
  180.9500  178.1030  141.6500 C   0  0  0  0  0  0  0  0  0  0  0  0
  185.2780  179.3050  144.1600 C   0  0  0  0  0  3  0  0  0  0  0  0
  183.6020  178.8160  142.3990 C   0  0  2  0  0  3  0  0  0  0  0  0
  186.0220  179.2100  141.7830 C   0  0  0  0  0  2  0  0  0  0  0  0
  187.1220  178.2520  142.0960 C   0  0  0  0  0  0  0  0  0  0  0  0
  189.1590  176.4170  142.6520 C   0  0  0  0  0  0  0  0  0  0  0  0
  188.2960  178.2570  141.3350 C   0  0  0  0  0  3  0  0  0  0  0  0
  186.9650  177.3220  143.1300 C   0  0  0  0  0  3  0  0  0  0  0  0
  187.9820  176.4060  143.4090 C   0  0  0  0  0  3  0  0  0  0  0  0
  190.1710  175.5080  142.9300 O   0  0  0  0  0  1  0  0  0  0  0  0
  189.3150  177.3410  141.6160 C   0  0  0  0  0  3  0  0  0  0  0  0
  1 19  1  0  0  0  0
  4  9  1  6  0  0  0
  4  7  1  0  0  0  0
  4 12  1  0  0  0  0
  5 11  2  0  0  0  0
  5 18  1  0  0  0  0
  6 17  1  0  0  0  0
  7  2  1  6  0  0  0
  7  5  1  0  0  0  0
  8 18  1  0  0  0  0
 10 15  2  0  0  0  0
 12  8  1  0  0  0  0
 14  3  1  0  0  0  0
 14 10  1  0  0  0  0
 15 13  1  0  0  0  0
 16  6  1  0  0  0  0
 16 17  1  0  0  0  0
 17  9  1  0  0  0  0
 17  2  1  0  0  0  0
 18 14  2  0  0  0  0
 19 13  2  0  0  0  0
 20 11  1  1  0  0  0
 20  1  1  0  0  0  0
 20 10  1  0  0  0  0
 21 22  1  0  0  0  0
 21  1  1  0  0  0  0
 22 25  1  0  0  0  0
 23 27  1  0  0  0  0
 23 26  1  0  0  0  0
 24 28  1  0  0  0  0
 24 22  2  0  0  0  0
 25 26  2  0  0  0  0
 28 23  2  0  0  0  0
M  END
>  <MODEL>
9

>  <REMARK>
 VINA RESULT:      -7.5      4.181      7.657
  Name = 
  2 active torsions:
  status: ('A' for Active; 'I' for Inactive)
    1  A    between atoms: N_1  and  C_2
    2  A    between atoms: C_2  and  C_3
                            x       y       z     vdW  Elec       q    Type
                         _______ _______ _______ _____ _____    ______ ____

>  <TORSDO>
F 2

$$$$
