=
 OpenBabel10262419463D

 25 27  0  0  1  0  0  0  0  0999 V2000
  189.2410  177.6140  141.7660 C   0  0  0  0  0  0  0  0  0  0  0  0
  187.9130  178.0020  142.0490 C   0  0  0  0  0  0  0  0  0  0  0  0
  188.9190  178.3310  139.4750 C   0  0  0  0  0  3  0  0  0  0  0  0
  187.6430  178.6960  139.7620 N   0  0  0  0  0  0  0  0  0  0  0  0
  185.7930  178.9280  141.2660 C   0  0  0  0  0  0  0  0  0  0  0  0
  185.0070  179.4700  140.2570 O   0  0  0  0  0  1  0  0  0  0  0  0
  187.3510  177.8380  143.3220 C   0  0  0  0  0  3  0  0  0  0  0  0
  189.7340  177.7870  140.4670 C   0  0  0  0  0  3  0  0  0  0  0  0
  185.2540  178.7600  142.5440 C   0  0  0  0  0  3  0  0  0  0  0  0
  186.0280  178.2130  143.5710 C   0  0  0  0  0  0  0  0  0  0  0  0
  187.1200  178.5490  141.0090 C   0  0  0  0  0  0  0  0  0  0  0  0
  190.1410  177.0540  142.8040 C   0  0  0  0  0  0  0  0  0  0  0  0
  191.7780  175.8920  144.7340 C   0  0  0  0  0  3  0  0  0  0  0  0
  190.7970  177.8650  143.7550 C   0  0  0  0  0  0  0  0  0  0  0  0
  191.6170  177.2770  144.7180 C   0  0  0  0  0  3  0  0  0  0  0  0
  191.1400  175.1210  143.8150 N   0  0  0  0  0  0  0  0  0  0  0  0
  190.6750  179.3530  143.7430 C   0  0  0  0  0  1  0  0  0  0  0  0
  190.3350  175.6660  142.8650 C   0  0  0  0  0  3  0  0  0  0  0  0
  185.4460  178.0250  144.9360 C   0  0  0  0  0  2  0  0  0  0  0  0
  186.2080  178.7770  146.0350 C   0  0  1  0  0  3  0  0  0  0  0  0
  185.3260  179.3450  146.9580 O   0  0  0  0  0  1  0  0  0  0  0  0
  188.5400  178.2880  146.3130 F   0  0  0  0  0  0  0  0  0  0  0  0
  187.1870  178.1140  148.1120 F   0  0  0  0  0  0  0  0  0  0  0  0
  187.0600  176.6010  146.4540 F   0  0  0  0  0  0  0  0  0  0  0  0
  187.2730  177.9360  146.7430 C   0  0  0  0  0  0  0  0  0  0  0  0
  1  2  1  0  0  0  0
  1 12  1  0  0  0  0
  2  7  1  0  0  0  0
  3  4  2  0  0  0  0
  3  8  1  0  0  0  0
  4 11  1  0  0  0  0
  5  9  2  0  0  0  0
  6  5  1  0  0  0  0
  7 10  2  0  0  0  0
  8  1  2  0  0  0  0
  9 10  1  0  0  0  0
 10 19  1  0  0  0  0
 11  5  1  0  0  0  0
 11  2  2  0  0  0  0
 12 18  2  0  0  0  0
 12 14  1  0  0  0  0
 14 15  2  0  0  0  0
 15 13  1  0  0  0  0
 16 13  2  0  0  0  0
 17 14  1  0  0  0  0
 18 16  1  0  0  0  0
 19 20  1  0  0  0  0
 20 25  1  0  0  0  0
 20 21  1  1  0  0  0
 22 25  1  0  0  0  0
 24 25  1  0  0  0  0
 25 23  1  0  0  0  0
M  END
>  <MODEL>
1

>  <REMARK>
 VINA RESULT:      -8.8      0.000      0.000
  Name = 
  4 active torsions:
  status: ('A' for Active; 'I' for Inactive)
    1  A    between atoms: C_1  and  C_5
    2  A    between atoms: C_6  and  C_15
    3  A    between atoms: C_6  and  C_23
    4  A    between atoms: C_15  and  C_21
                            x       y       z     vdW  Elec       q    Type
                         _______ _______ _______ _____ _____    ______ ____

>  <TORSDO>
F 4

$$$$
=
 OpenBabel10262419463D

 25 27  0  0  1  0  0  0  0  0999 V2000
  188.8090  177.3690  145.0370 C   0  0  0  0  0  0  0  0  0  0  0  0
  187.4740  177.8240  144.9610 C   0  0  0  0  0  0  0  0  0  0  0  0
  188.5590  177.1660  147.4380 C   0  0  0  0  0  3  0  0  0  0  0  0
  187.2780  177.6080  147.3480 N   0  0  0  0  0  0  0  0  0  0  0  0
  185.3930  178.4010  146.1010 C   0  0  0  0  0  0  0  0  0  0  0  0
  184.6380  178.5120  147.2620 O   0  0  0  0  0  1  0  0  0  0  0  0
  186.8870  178.1890  143.7420 C   0  0  0  0  0  3  0  0  0  0  0  0
  189.3410  177.0410  146.2900 C   0  0  0  0  0  3  0  0  0  0  0  0
  184.8260  178.7550  144.8740 C   0  0  0  0  0  3  0  0  0  0  0  0
  185.5700  178.6540  143.6960 C   0  0  0  0  0  0  0  0  0  0  0  0
  186.7170  177.9380  146.1540 C   0  0  0  0  0  0  0  0  0  0  0  0
  189.6600  177.2040  143.8340 C   0  0  0  0  0  0  0  0  0  0  0  0
  191.2310  176.7730  141.5740 C   0  0  0  0  0  3  0  0  0  0  0  0
  190.6360  178.1530  143.4610 C   0  0  0  0  0  0  0  0  0  0  0  0
  191.4190  177.9330  142.3270 C   0  0  0  0  0  3  0  0  0  0  0  0
  190.2900  175.8660  141.9440 N   0  0  0  0  0  0  0  0  0  0  0  0
  190.8380  179.4210  144.2230 C   0  0  0  0  0  1  0  0  0  0  0  0
  189.5130  176.0540  143.0430 C   0  0  0  0  0  3  0  0  0  0  0  0
  184.9640  179.0420  142.3850 C   0  0  0  0  0  2  0  0  0  0  0  0
  183.7080  178.2390  142.0280 C   0  0  1  0  0  3  0  0  0  0  0  0
  182.5610  178.8380  142.5570 O   0  0  0  0  0  1  0  0  0  0  0  0
  183.1350  176.6670  140.3080 F   0  0  0  0  0  0  0  0  0  0  0  0
  182.6120  178.8410  139.9900 F   0  0  0  0  0  0  0  0  0  0  0  0
  184.7570  178.1710  139.8990 F   0  0  0  0  0  0  0  0  0  0  0  0
  183.5430  177.9710  140.5310 C   0  0  0  0  0  0  0  0  0  0  0  0
  1  8  1  0  0  0  0
  2  1  2  0  0  0  0
  2 11  1  0  0  0  0
  4  3  1  0  0  0  0
  5 11  1  0  0  0  0
  5  6  1  0  0  0  0
  7  2  1  0  0  0  0
  8  3  2  0  0  0  0
  9  5  2  0  0  0  0
 10  7  2  0  0  0  0
 10  9  1  0  0  0  0
 11  4  2  0  0  0  0
 12  1  1  0  0  0  0
 13 16  2  0  0  0  0
 13 15  1  0  0  0  0
 14 12  1  0  0  0  0
 14 17  1  0  0  0  0
 15 14  2  0  0  0  0
 16 18  1  0  0  0  0
 18 12  2  0  0  0  0
 19 10  1  0  0  0  0
 20 19  1  0  0  0  0
 20 21  1  6  0  0  0
 22 25  1  0  0  0  0
 23 25  1  0  0  0  0
 24 25  1  0  0  0  0
 25 20  1  0  0  0  0
M  END
>  <MODEL>
2

>  <REMARK>
 VINA RESULT:      -8.3      3.268      5.005
  Name = 
  4 active torsions:
  status: ('A' for Active; 'I' for Inactive)
    1  A    between atoms: C_1  and  C_5
    2  A    between atoms: C_6  and  C_15
    3  A    between atoms: C_6  and  C_23
    4  A    between atoms: C_15  and  C_21
                            x       y       z     vdW  Elec       q    Type
                         _______ _______ _______ _____ _____    ______ ____

>  <TORSDO>
F 4

$$$$
=
 OpenBabel10262419463D

 25 27  0  0  1  0  0  0  0  0999 V2000
  190.1780  177.0110  145.2330 C   0  0  0  0  0  0  0  0  0  0  0  0
  189.0170  177.4760  145.8890 C   0  0  0  0  0  0  0  0  0  0  0  0
  191.0950  176.3920  147.3880 C   0  0  0  0  0  3  0  0  0  0  0  0
  189.9730  176.8460  148.0030 N   0  0  0  0  0  0  0  0  0  0  0  0
  187.7990  177.8510  147.9720 C   0  0  0  0  0  0  0  0  0  0  0  0
  187.7070  177.7600  149.3550 O   0  0  0  0  0  1  0  0  0  0  0  0
  187.9510  178.0510  145.1820 C   0  0  0  0  0  3  0  0  0  0  0  0
  191.2160  176.4670  146.0010 C   0  0  0  0  0  3  0  0  0  0  0  0
  186.7460  178.4160  147.2480 C   0  0  0  0  0  3  0  0  0  0  0  0
  186.8200  178.5200  145.8570 C   0  0  0  0  0  0  0  0  0  0  0  0
  188.9390  177.3830  147.3000 C   0  0  0  0  0  0  0  0  0  0  0  0
  190.3280  177.0560  143.7580 C   0  0  0  0  0  0  0  0  0  0  0  0
  190.5920  177.0190  140.9860 C   0  0  0  0  0  3  0  0  0  0  0  0
  190.9480  178.1370  143.0940 C   0  0  0  0  0  0  0  0  0  0  0  0
  191.0760  178.1130  141.7040 C   0  0  0  0  0  3  0  0  0  0  0  0
  189.9990  175.9850  141.6370 N   0  0  0  0  0  0  0  0  0  0  0  0
  191.4440  179.3380  143.8280 C   0  0  0  0  0  1  0  0  0  0  0  0
  189.8610  175.9810  142.9890 C   0  0  0  0  0  3  0  0  0  0  0  0
  185.6960  179.1330  145.0840 C   0  0  0  0  0  2  0  0  0  0  0  0
  185.0030  178.1540  144.1290 C   0  0  1  0  0  3  0  0  0  0  0  0
  183.6130  178.2440  144.2400 O   0  0  0  0  0  1  0  0  0  0  0  0
  185.6230  179.6180  142.3310 F   0  0  0  0  0  0  0  0  0  0  0  0
  186.6270  177.5990  142.4660 F   0  0  0  0  0  0  0  0  0  0  0  0
  184.4700  177.7480  141.8510 F   0  0  0  0  0  0  0  0  0  0  0  0
  185.4450  178.2880  142.6700 C   0  0  0  0  0  0  0  0  0  0  0  0
  1  2  2  0  0  0  0
  1  8  1  0  0  0  0
  2 11  1  0  0  0  0
  3  4  1  0  0  0  0
  5  6  1  0  0  0  0
  7 10  2  0  0  0  0
  7  2  1  0  0  0  0
  8  3  2  0  0  0  0
  9  5  2  0  0  0  0
 10  9  1  0  0  0  0
 11  5  1  0  0  0  0
 11  4  2  0  0  0  0
 12  1  1  0  0  0  0
 13 16  2  0  0  0  0
 13 15  1  0  0  0  0
 14 12  1  0  0  0  0
 14 17  1  0  0  0  0
 15 14  2  0  0  0  0
 16 18  1  0  0  0  0
 18 12  2  0  0  0  0
 19 10  1  0  0  0  0
 20 21  1  6  0  0  0
 20 19  1  0  0  0  0
 22 25  1  0  0  0  0
 23 25  1  0  0  0  0
 24 25  1  0  0  0  0
 25 20  1  0  0  0  0
M  END
>  <MODEL>
3

>  <REMARK>
 VINA RESULT:      -8.2      2.553      4.882
  Name = 
  4 active torsions:
  status: ('A' for Active; 'I' for Inactive)
    1  A    between atoms: C_1  and  C_5
    2  A    between atoms: C_6  and  C_15
    3  A    between atoms: C_6  and  C_23
    4  A    between atoms: C_15  and  C_21
                            x       y       z     vdW  Elec       q    Type
                         _______ _______ _______ _____ _____    ______ ____

>  <TORSDO>
F 4

$$$$
=
 OpenBabel10262419463D

 25 27  0  0  1  0  0  0  0  0999 V2000
  187.5470  177.8340  146.0770 C   0  0  0  0  0  0  0  0  0  0  0  0
  188.8650  177.4150  145.7900 C   0  0  0  0  0  0  0  0  0  0  0  0
  188.1520  177.9850  148.4180 C   0  0  0  0  0  3  0  0  0  0  0  0
  189.4140  177.5780  148.1250 N   0  0  0  0  0  0  0  0  0  0  0  0
  191.1050  176.8630  146.5880 C   0  0  0  0  0  0  0  0  0  0  0  0
  192.0290  176.7420  147.6190 O   0  0  0  0  0  1  0  0  0  0  0  0
  189.2690  177.0940  144.4860 C   0  0  0  0  0  3  0  0  0  0  0  0
  187.2030  178.1190  147.4050 C   0  0  0  0  0  3  0  0  0  0  0  0
  191.4890  176.5530  145.2810 C   0  0  0  0  0  3  0  0  0  0  0  0
  190.5740  176.6640  144.2310 C   0  0  0  0  0  0  0  0  0  0  0  0
  189.7950  177.2910  146.8520 C   0  0  0  0  0  0  0  0  0  0  0  0
  186.5220  178.0080  145.0200 C   0  0  0  0  0  0  0  0  0  0  0  0
  184.6860  178.3460  142.9530 C   0  0  0  0  0  3  0  0  0  0  0  0
  185.1890  178.3720  145.3120 C   0  0  0  0  0  0  0  0  0  0  0  0
  184.2740  178.5380  144.2720 C   0  0  0  0  0  3  0  0  0  0  0  0
  185.9710  177.9980  142.6850 N   0  0  0  0  0  0  0  0  0  0  0  0
  184.7060  178.5500  146.7130 C   0  0  0  0  0  1  0  0  0  0  0  0
  186.8850  177.8280  143.6770 C   0  0  0  0  0  3  0  0  0  0  0  0
  190.9840  176.3230  142.8330 C   0  0  0  0  0  2  0  0  0  0  0  0
  190.9320  177.5160  141.8710 C   0  0  1  0  0  3  0  0  0  0  0  0
  192.0730  177.5610  141.0660 O   0  0  0  0  0  1  0  0  0  0  0  0
  188.9310  178.7160  141.3150 F   0  0  0  0  0  0  0  0  0  0  0  0
  189.9850  177.5740  139.6770 F   0  0  0  0  0  0  0  0  0  0  0  0
  188.8810  176.4680  141.2930 F   0  0  0  0  0  0  0  0  0  0  0  0
  189.6610  177.5780  141.0220 C   0  0  0  0  0  0  0  0  0  0  0  0
  1  8  1  0  0  0  0
  2  1  2  0  0  0  0
  2 11  1  0  0  0  0
  4  3  1  0  0  0  0
  5 11  1  0  0  0  0
  5  6  1  0  0  0  0
  7  2  1  0  0  0  0
  8  3  2  0  0  0  0
  9  5  2  0  0  0  0
 10  7  2  0  0  0  0
 10  9  1  0  0  0  0
 11  4  2  0  0  0  0
 12 14  1  0  0  0  0
 12  1  1  0  0  0  0
 13 15  1  0  0  0  0
 14 17  1  0  0  0  0
 15 14  2  0  0  0  0
 16 13  2  0  0  0  0
 16 18  1  0  0  0  0
 18 12  2  0  0  0  0
 19 10  1  0  0  0  0
 20 21  1  6  0  0  0
 20 19  1  0  0  0  0
 23 25  1  0  0  0  0
 25 24  1  0  0  0  0
 25 22  1  0  0  0  0
 25 20  1  0  0  0  0
M  END
>  <MODEL>
4

>  <REMARK>
 VINA RESULT:      -8.2      3.392      6.765
  Name = 
  4 active torsions:
  status: ('A' for Active; 'I' for Inactive)
    1  A    between atoms: C_1  and  C_5
    2  A    between atoms: C_6  and  C_15
    3  A    between atoms: C_6  and  C_23
    4  A    between atoms: C_15  and  C_21
                            x       y       z     vdW  Elec       q    Type
                         _______ _______ _______ _____ _____    ______ ____

>  <TORSDO>
F 4

$$$$
=
 OpenBabel10262419463D

 25 27  0  0  1  0  0  0  0  0999 V2000
  184.0560  178.6220  142.6070 C   0  0  0  0  0  0  0  0  0  0  0  0
  185.0240  178.3710  143.6050 C   0  0  0  0  0  0  0  0  0  0  0  0
  182.4890  179.2510  144.3450 C   0  0  0  0  0  3  0  0  0  0  0  0
  183.4310  179.0030  145.2920 N   0  0  0  0  0  0  0  0  0  0  0  0
  185.6210  178.3150  145.9720 C   0  0  0  0  0  0  0  0  0  0  0  0
  185.2980  178.5120  147.3080 O   0  0  0  0  0  1  0  0  0  0  0  0
  186.3070  177.9070  143.2870 C   0  0  0  0  0  3  0  0  0  0  0  0
  182.7850  179.0660  142.9950 C   0  0  0  0  0  3  0  0  0  0  0  0
  186.8970  177.8560  145.6330 C   0  0  0  0  0  3  0  0  0  0  0  0
  187.2410  177.6480  144.2950 C   0  0  0  0  0  0  0  0  0  0  0  0
  184.6780  178.5710  144.9650 C   0  0  0  0  0  0  0  0  0  0  0  0
  184.3450  178.4570  141.1620 C   0  0  0  0  0  0  0  0  0  0  0  0
  184.9690  178.2370  138.4560 C   0  0  0  0  0  3  0  0  0  0  0  0
  183.4650  177.7850  140.2870 C   0  0  0  0  0  0  0  0  0  0  0  0
  183.7840  177.6770  138.9320 C   0  0  0  0  0  3  0  0  0  0  0  0
  185.8080  178.8830  139.3080 N   0  0  0  0  0  0  0  0  0  0  0  0
  182.2060  177.1430  140.7690 C   0  0  0  0  0  1  0  0  0  0  0  0
  185.5230  179.0030  140.6320 C   0  0  0  0  0  3  0  0  0  0  0  0
  188.6040  177.1490  143.9340 C   0  0  0  0  0  2  0  0  0  0  0  0
  189.7380  177.8770  144.6660 C   0  0  1  0  0  3  0  0  0  0  0  0
  190.3070  177.0620  145.6480 O   0  0  0  0  0  1  0  0  0  0  0  0
  192.0360  177.8500  143.9790 F   0  0  0  0  0  0  0  0  0  0  0  0
  190.4560  178.2510  142.4170 F   0  0  0  0  0  0  0  0  0  0  0  0
  190.9300  179.8080  143.9680 F   0  0  0  0  0  0  0  0  0  0  0  0
  190.8120  178.4500  143.7390 C   0  0  0  0  0  0  0  0  0  0  0  0
  1  8  2  0  0  0  0
  1  2  1  0  0  0  0
  2 11  1  0  0  0  0
  3  4  2  0  0  0  0
  5  6  1  0  0  0  0
  7  2  2  0  0  0  0
  7 10  1  0  0  0  0
  8  3  1  0  0  0  0
  9  5  1  0  0  0  0
 10  9  2  0  0  0  0
 11  4  1  0  0  0  0
 11  5  2  0  0  0  0
 12  1  1  0  0  0  0
 13 15  2  0  0  0  0
 13 16  1  0  0  0  0
 14 17  1  0  0  0  0
 14 12  2  0  0  0  0
 15 14  1  0  0  0  0
 16 18  2  0  0  0  0
 18 12  1  0  0  0  0
 19 10  1  0  0  0  0
 19 20  1  0  0  0  0
 20 21  1  1  0  0  0
 23 25  1  0  0  0  0
 25 24  1  0  0  0  0
 25 22  1  0  0  0  0
 25 20  1  0  0  0  0
M  END
>  <MODEL>
5

>  <REMARK>
 VINA RESULT:      -7.6      3.237      6.236
  Name = 
  4 active torsions:
  status: ('A' for Active; 'I' for Inactive)
    1  A    between atoms: C_1  and  C_5
    2  A    between atoms: C_6  and  C_15
    3  A    between atoms: C_6  and  C_23
    4  A    between atoms: C_15  and  C_21
                            x       y       z     vdW  Elec       q    Type
                         _______ _______ _______ _____ _____    ______ ____

>  <TORSDO>
F 4

$$$$
=
 OpenBabel10262419463D

 25 27  0  0  1  0  0  0  0  0999 V2000
  189.5600  178.0280  142.9270 C   0  0  0  0  0  0  0  0  0  0  0  0
  188.9950  177.8120  144.2040 C   0  0  0  0  0  0  0  0  0  0  0  0
  191.7540  178.0810  143.9520 C   0  0  0  0  0  3  0  0  0  0  0  0
  191.1950  177.8750  145.1730 N   0  0  0  0  0  0  0  0  0  0  0  0
  189.3090  177.5390  146.6090 C   0  0  0  0  0  0  0  0  0  0  0  0
  190.1370  177.4610  147.7220 O   0  0  0  0  0  1  0  0  0  0  0  0
  187.6110  177.6910  144.3880 C   0  0  0  0  0  3  0  0  0  0  0  0
  190.9490  178.1610  142.8150 C   0  0  0  0  0  3  0  0  0  0  0  0
  187.9270  177.4170  146.7700 C   0  0  0  0  0  3  0  0  0  0  0  0
  187.0770  177.4950  145.6640 C   0  0  0  0  0  0  0  0  0  0  0  0
  189.8510  177.7400  145.3310 C   0  0  0  0  0  0  0  0  0  0  0  0
  188.7340  178.0950  141.6960 C   0  0  0  0  0  0  0  0  0  0  0  0
  187.0880  178.2490  139.4550 C   0  0  0  0  0  3  0  0  0  0  0  0
  189.1300  177.4840  140.4860 C   0  0  0  0  0  0  0  0  0  0  0  0
  188.3020  177.5670  139.3660 C   0  0  0  0  0  3  0  0  0  0  0  0
  186.7170  178.8310  140.6250 N   0  0  0  0  0  0  0  0  0  0  0  0
  190.4380  176.7780  140.3470 C   0  0  0  0  0  1  0  0  0  0  0  0
  187.5040  178.7670  141.7320 C   0  0  0  0  0  3  0  0  0  0  0  0
  185.5960  177.3740  145.8390 C   0  0  0  0  0  2  0  0  0  0  0  0
  184.8600  178.7180  145.7830 C   0  0  1  0  0  3  0  0  0  0  0  0
  185.6750  179.7570  146.2380 O   0  0  0  0  0  1  0  0  0  0  0  0
  182.9200  179.3410  144.5160 F   0  0  0  0  0  0  0  0  0  0  0  0
  184.9300  180.1270  143.8530 F   0  0  0  0  0  0  0  0  0  0  0  0
  184.4210  177.9540  143.5780 F   0  0  0  0  0  0  0  0  0  0  0  0
  184.2680  179.0470  144.4110 C   0  0  0  0  0  0  0  0  0  0  0  0
  1  2  1  0  0  0  0
  2  7  2  0  0  0  0
  2 11  1  0  0  0  0
  3  4  2  0  0  0  0
  4 11  1  0  0  0  0
  5  9  1  0  0  0  0
  5  6  1  0  0  0  0
  7 10  1  0  0  0  0
  8  1  2  0  0  0  0
  8  3  1  0  0  0  0
 10 19  1  0  0  0  0
 10  9  2  0  0  0  0
 11  5  2  0  0  0  0
 12 18  1  0  0  0  0
 12  1  1  0  0  0  0
 13 16  1  0  0  0  0
 14 12  2  0  0  0  0
 15 13  2  0  0  0  0
 15 14  1  0  0  0  0
 16 18  2  0  0  0  0
 17 14  1  0  0  0  0
 20 19  1  0  0  0  0
 20 21  1  6  0  0  0
 23 25  1  0  0  0  0
 24 25  1  0  0  0  0
 25 22  1  0  0  0  0
 25 20  1  0  0  0  0
M  END
>  <MODEL>
6

>  <REMARK>
 VINA RESULT:      -7.6      2.467      4.769
  Name = 
  4 active torsions:
  status: ('A' for Active; 'I' for Inactive)
    1  A    between atoms: C_1  and  C_5
    2  A    between atoms: C_6  and  C_15
    3  A    between atoms: C_6  and  C_23
    4  A    between atoms: C_15  and  C_21
                            x       y       z     vdW  Elec       q    Type
                         _______ _______ _______ _____ _____    ______ ____

>  <TORSDO>
F 4

$$$$
=
 OpenBabel10262419463D

 25 27  0  0  1  0  0  0  0  0999 V2000
  190.5350  176.9980  145.2100 C   0  0  0  0  0  0  0  0  0  0  0  0
  189.2610  177.2160  145.7780 C   0  0  0  0  0  0  0  0  0  0  0  0
  191.4570  176.8370  147.4450 C   0  0  0  0  0  3  0  0  0  0  0  0
  190.2250  177.0520  147.9750 N   0  0  0  0  0  0  0  0  0  0  0  0
  187.8750  177.4700  147.7720 C   0  0  0  0  0  0  0  0  0  0  0  0
  187.7330  177.4920  149.1540 O   0  0  0  0  0  1  0  0  0  0  0  0
  188.1270  177.4340  144.9840 C   0  0  0  0  0  3  0  0  0  0  0  0
  191.6310  176.8070  146.0620 C   0  0  0  0  0  3  0  0  0  0  0  0
  186.7570  177.6810  146.9620 C   0  0  0  0  0  3  0  0  0  0  0  0
  186.8800  177.6670  145.5700 C   0  0  0  0  0  0  0  0  0  0  0  0
  189.1310  177.2420  147.1890 C   0  0  0  0  0  0  0  0  0  0  0  0
  190.7510  176.9370  143.7440 C   0  0  0  0  0  0  0  0  0  0  0  0
  191.1470  176.7020  140.9970 C   0  0  0  0  0  3  0  0  0  0  0  0
  191.3140  178.0090  143.0180 C   0  0  0  0  0  0  0  0  0  0  0  0
  191.5080  177.8860  141.6410 C   0  0  0  0  0  3  0  0  0  0  0  0
  190.6070  175.6770  141.7070 N   0  0  0  0  0  0  0  0  0  0  0  0
  191.6780  179.3010  143.6700 C   0  0  0  0  0  1  0  0  0  0  0  0
  190.4060  175.7690  143.0480 C   0  0  0  0  0  3  0  0  0  0  0  0
  185.6830  177.9010  144.7040 C   0  0  0  0  0  2  0  0  0  0  0  0
  184.6730  178.8860  145.3070 C   0  0  1  0  0  3  0  0  0  0  0  0
  185.3020  180.0670  145.7090 O   0  0  0  0  0  1  0  0  0  0  0  0
  183.4850  178.3590  143.2900 F   0  0  0  0  0  0  0  0  0  0  0  0
  182.2950  179.0030  145.0980 F   0  0  0  0  0  0  0  0  0  0  0  0
  183.5460  180.4990  143.9790 F   0  0  0  0  0  0  0  0  0  0  0  0
  183.4770  179.1840  144.4020 C   0  0  0  0  0  0  0  0  0  0  0  0
  1  2  2  0  0  0  0
  1  8  1  0  0  0  0
  2 11  1  0  0  0  0
  3  4  1  0  0  0  0
  5  6  1  0  0  0  0
  7 10  2  0  0  0  0
  7  2  1  0  0  0  0
  8  3  2  0  0  0  0
  9  5  2  0  0  0  0
 10  9  1  0  0  0  0
 11  5  1  0  0  0  0
 11  4  2  0  0  0  0
 12  1  1  0  0  0  0
 13 15  2  0  0  0  0
 13 16  1  0  0  0  0
 14 17  1  0  0  0  0
 14 12  2  0  0  0  0
 15 14  1  0  0  0  0
 16 18  2  0  0  0  0
 18 12  1  0  0  0  0
 19 20  1  0  0  0  0
 19 10  1  0  0  0  0
 20 21  1  6  0  0  0
 22 25  1  0  0  0  0
 24 25  1  0  0  0  0
 25 23  1  0  0  0  0
 25 20  1  0  0  0  0
M  END
>  <MODEL>
7

>  <REMARK>
 VINA RESULT:      -7.5      3.034      4.865
  Name = 
  4 active torsions:
  status: ('A' for Active; 'I' for Inactive)
    1  A    between atoms: C_1  and  C_5
    2  A    between atoms: C_6  and  C_15
    3  A    between atoms: C_6  and  C_23
    4  A    between atoms: C_15  and  C_21
                            x       y       z     vdW  Elec       q    Type
                         _______ _______ _______ _____ _____    ______ ____

>  <TORSDO>
F 4

$$$$
=
 OpenBabel10262419463D

 25 27  0  0  1  0  0  0  0  0999 V2000
  190.3430  177.0410  138.2100 C   0  0  0  0  0  0  0  0  0  0  0  0
  189.7770  177.2010  139.4940 C   0  0  0  0  0  0  0  0  0  0  0  0
  188.6420  178.5180  137.3210 C   0  0  0  0  0  3  0  0  0  0  0  0
  188.1070  178.6600  138.5620 N   0  0  0  0  0  0  0  0  0  0  0  0
  188.0510  178.1920  140.9100 C   0  0  0  0  0  0  0  0  0  0  0  0
  186.9370  179.0050  141.0730 O   0  0  0  0  0  1  0  0  0  0  0  0
  190.2960  176.5430  140.6170 C   0  0  0  0  0  3  0  0  0  0  0  0
  189.7620  177.7110  137.1260 C   0  0  0  0  0  3  0  0  0  0  0  0
  188.5880  177.5300  142.0170 C   0  0  0  0  0  3  0  0  0  0  0  0
  189.7060  176.7040  141.8740 C   0  0  0  0  0  0  0  0  0  0  0  0
  188.6370  178.0300  139.6450 C   0  0  0  0  0  0  0  0  0  0  0  0
  191.5470  176.2080  137.9730 C   0  0  0  0  0  0  0  0  0  0  0  0
  193.8750  174.7450  137.5270 C   0  0  0  0  0  3  0  0  0  0  0  0
  191.4680  174.8880  137.4790 C   0  0  0  0  0  0  0  0  0  0  0  0
  192.6380  174.1590  137.2590 C   0  0  0  0  0  3  0  0  0  0  0  0
  193.9390  176.0170  138.0000 N   0  0  0  0  0  0  0  0  0  0  0  0
  190.1590  174.2180  137.2170 C   0  0  0  0  0  1  0  0  0  0  0  0
  192.8160  176.7500  138.2240 C   0  0  0  0  0  3  0  0  0  0  0  0
  190.2740  175.9900  143.0580 C   0  0  0  0  0  2  0  0  0  0  0  0
  191.1180  176.8890  143.9700 C   0  0  1  0  0  3  0  0  0  0  0  0
  191.6770  177.9490  143.2520 O   0  0  0  0  0  1  0  0  0  0  0  0
  191.0980  177.1380  146.3560 F   0  0  0  0  0  0  0  0  0  0  0  0
  190.1530  178.7600  145.1020 F   0  0  0  0  0  0  0  0  0  0  0  0
  189.1520  176.7560  145.2950 F   0  0  0  0  0  0  0  0  0  0  0  0
  190.3740  177.3980  145.2060 C   0  0  0  0  0  0  0  0  0  0  0  0
  1  2  1  0  0  0  0
  2 11  2  0  0  0  0
  2  7  1  0  0  0  0
  3  4  2  0  0  0  0
  4 11  1  0  0  0  0
  5  6  1  0  0  0  0
  5  9  2  0  0  0  0
  7 10  2  0  0  0  0
  8  3  1  0  0  0  0
  8  1  2  0  0  0  0
 10  9  1  0  0  0  0
 10 19  1  0  0  0  0
 11  5  1  0  0  0  0
 12  1  1  0  0  0  0
 12 18  1  0  0  0  0
 13 16  1  0  0  0  0
 14 12  2  0  0  0  0
 15 14  1  0  0  0  0
 15 13  2  0  0  0  0
 16 18  2  0  0  0  0
 17 14  1  0  0  0  0
 19 20  1  0  0  0  0
 20 21  1  6  0  0  0
 20 25  1  0  0  0  0
 23 25  1  0  0  0  0
 25 24  1  0  0  0  0
 25 22  1  0  0  0  0
M  END
>  <MODEL>
8

>  <REMARK>
 VINA RESULT:      -7.5      3.372      4.935
  Name = 
  4 active torsions:
  status: ('A' for Active; 'I' for Inactive)
    1  A    between atoms: C_1  and  C_5
    2  A    between atoms: C_6  and  C_15
    3  A    between atoms: C_6  and  C_23
    4  A    between atoms: C_15  and  C_21
                            x       y       z     vdW  Elec       q    Type
                         _______ _______ _______ _____ _____    ______ ____

>  <TORSDO>
F 4

$$$$
=
 OpenBabel10262419463D

 25 27  0  0  1  0  0  0  0  0999 V2000
  185.7800  178.4940  144.4730 C   0  0  0  0  0  0  0  0  0  0  0  0
  187.0540  177.9180  144.6740 C   0  0  0  0  0  0  0  0  0  0  0  0
  185.6070  178.8470  146.8630 C   0  0  0  0  0  3  0  0  0  0  0  0
  186.8330  178.2870  147.0400 N   0  0  0  0  0  0  0  0  0  0  0  0
  188.8230  177.2420  146.2150 C   0  0  0  0  0  0  0  0  0  0  0  0
  189.3390  177.1480  147.5020 O   0  0  0  0  0  1  0  0  0  0  0  0
  187.8130  177.4150  143.6090 C   0  0  0  0  0  3  0  0  0  0  0  0
  185.0640  178.9580  145.5840 C   0  0  0  0  0  3  0  0  0  0  0  0
  189.5650  176.7510  145.1380 C   0  0  0  0  0  3  0  0  0  0  0  0
  189.0630  176.8330  143.8370 C   0  0  0  0  0  0  0  0  0  0  0  0
  187.5650  177.8230  145.9930 C   0  0  0  0  0  0  0  0  0  0  0  0
  185.1840  178.6470  143.1240 C   0  0  0  0  0  0  0  0  0  0  0  0
  184.1720  178.9740  140.5490 C   0  0  0  0  0  3  0  0  0  0  0  0
  183.7890  178.7390  142.9190 C   0  0  0  0  0  0  0  0  0  0  0  0
  183.2890  178.9000  141.6260 C   0  0  0  0  0  3  0  0  0  0  0  0
  185.5120  178.8870  140.7590 N   0  0  0  0  0  0  0  0  0  0  0  0
  182.8160  178.6270  144.0440 C   0  0  0  0  0  1  0  0  0  0  0  0
  186.0280  178.7290  142.0070 C   0  0  0  0  0  3  0  0  0  0  0  0
  189.8550  176.2980  142.6870 C   0  0  0  0  0  2  0  0  0  0  0  0
  190.3150  177.3820  141.7040 C   0  0  1  0  0  3  0  0  0  0  0  0
  191.7070  177.5050  141.7070 O   0  0  0  0  0  1  0  0  0  0  0  0
  188.4040  177.1200  140.2760 F   0  0  0  0  0  0  0  0  0  0  0  0
  190.1880  178.2540  139.4820 F   0  0  0  0  0  0  0  0  0  0  0  0
  190.2990  176.0250  139.7550 F   0  0  0  0  0  0  0  0  0  0  0  0
  189.7860  177.1980  140.2800 C   0  0  0  0  0  0  0  0  0  0  0  0
  1  2  2  0  0  0  0
  1  8  1  0  0  0  0
  2 11  1  0  0  0  0
  3  4  1  0  0  0  0
  5  6  1  0  0  0  0
  7 10  2  0  0  0  0
  7  2  1  0  0  0  0
  8  3  2  0  0  0  0
  9  5  2  0  0  0  0
 10  9  1  0  0  0  0
 11  5  1  0  0  0  0
 11  4  2  0  0  0  0
 12  1  1  0  0  0  0
 13 16  2  0  0  0  0
 13 15  1  0  0  0  0
 14 12  1  0  0  0  0
 14 17  1  0  0  0  0
 15 14  2  0  0  0  0
 16 18  1  0  0  0  0
 18 12  2  0  0  0  0
 19 10  1  0  0  0  0
 20 21  1  6  0  0  0
 20 19  1  0  0  0  0
 22 25  1  0  0  0  0
 23 25  1  0  0  0  0
 24 25  1  0  0  0  0
 25 20  1  0  0  0  0
M  END
>  <MODEL>
9

>  <REMARK>
 VINA RESULT:      -7.5      3.444      6.721
  Name = 
  4 active torsions:
  status: ('A' for Active; 'I' for Inactive)
    1  A    between atoms: C_1  and  C_5
    2  A    between atoms: C_6  and  C_15
    3  A    between atoms: C_6  and  C_23
    4  A    between atoms: C_15  and  C_21
                            x       y       z     vdW  Elec       q    Type
                         _______ _______ _______ _____ _____    ______ ____

>  <TORSDO>
F 4

$$$$
