=
 OpenBabel10262419503D

 25 28  0  0  1  0  0  0  0  0999 V2000
  187.1840  177.8290  145.3160 C   0  0  0  0  0  0  0  0  0  0  0  0
  188.4520  177.3940  144.8960 C   0  0  0  0  0  0  0  0  0  0  0  0
  187.8900  177.7640  147.6510 C   0  0  0  0  0  3  0  0  0  0  0  0
  186.0640  178.1340  144.5230 C   0  0  0  0  0  0  0  0  0  0  0  0
  183.6530  178.8210  143.2920 C   0  0  0  0  0  3  0  0  0  0  0  0
  189.1570  177.3310  147.2410 C   0  0  0  0  0  3  0  0  0  0  0  0
  184.9640  178.5380  145.2770 C   0  0  0  0  0  0  0  0  0  0  0  0
  183.7500  178.8860  144.6890 C   0  0  0  0  0  3  0  0  0  0  0  0
  190.7180  176.7070  145.4500 C   0  0  0  0  0  0  0  0  0  0  0  0
  191.8170  176.4230  146.4180 C   0  0  0  0  0  1  0  0  0  0  0  0
  188.7370  177.2120  143.5780 N   0  0  0  0  0  0  0  0  0  0  0  0
  184.7540  178.4150  142.5160 C   0  0  0  0  0  3  0  0  0  0  0  0
  186.9270  178.0050  146.6760 C   0  0  0  0  0  0  0  0  0  0  0  0
  185.3420  178.5290  146.9190 S   0  0  0  0  0  0  0  0  0  0  0  0
  190.9670  176.5330  144.0870 C   0  0  0  0  0  3  0  0  0  0  0  0
  185.9680  178.0680  143.1290 C   0  0  0  0  0  3  0  0  0  0  0  0
  189.9610  176.7910  143.1550 C   0  0  0  0  0  0  0  0  0  0  0  0
  189.4500  177.1420  145.8740 C   0  0  0  0  0  0  0  0  0  0  0  0
  190.2330  176.6090  141.7640 N   0  0  0  0  0  0  0  0  0  0  0  0
  189.5210  177.1710  140.8380 C   0  0  0  0  0  3  0  0  0  0  0  0
  189.8280  176.9660  139.3880 C   0  0  2  0  0  3  0  0  0  0  0  0
  191.3170  176.7540  139.1660 C   0  0  0  0  0  1  0  0  0  0  0  0
  189.3070  178.0900  138.5420 C   0  0  0  0  0  0  0  0  0  0  0  0
  188.8030  179.0780  139.0550 O   0  0  0  0  0  0  0  0  0  0  0  0
  189.4030  177.9960  137.0590 C   0  0  0  0  0  1  0  0  0  0  0  0
  1 13  1  0  0  0  0
  2  1  2  0  0  0  0
  2 18  1  0  0  0  0
  4  7  1  0  0  0  0
  4  1  1  0  0  0  0
  5  8  1  0  0  0  0
  6  3  1  0  0  0  0
  7 14  1  0  0  0  0
  8  7  2  0  0  0  0
  9 18  1  0  0  0  0
  9 10  1  0  0  0  0
 11  2  1  0  0  0  0
 12 16  1  0  0  0  0
 12  5  2  0  0  0  0
 13 14  1  0  0  0  0
 13  3  2  0  0  0  0
 15  9  2  0  0  0  0
 16  4  2  0  0  0  0
 17 11  2  0  0  0  0
 17 15  1  0  0  0  0
 18  6  2  0  0  0  0
 19 17  1  0  0  0  0
 20 19  2  0  0  0  0
 21 22  1  1  0  0  0
 21 20  1  0  0  0  0
 23 24  2  0  0  0  0
 23 21  1  0  0  0  0
 25 23  1  0  0  0  0
M  END
>  <MODEL>
1

>  <REMARK>
 VINA RESULT:     -10.8      0.000      0.000
  Name = 
  3 active torsions:
  status: ('A' for Active; 'I' for Inactive)
    1  A    between atoms: C_2  and  C_21
    2  A    between atoms: N_6  and  C_23
    3  A    between atoms: C_15  and  C_21
                            x       y       z     vdW  Elec       q    Type
                         _______ _______ _______ _____ _____    ______ ____

>  <TORSDO>
F 3

$$$$
=
 OpenBabel10262419503D

 25 28  0  0  1  0  0  0  0  0999 V2000
  187.6410  177.7960  145.6910 C   0  0  0  0  0  0  0  0  0  0  0  0
  186.8410  178.1000  144.5760 C   0  0  0  0  0  0  0  0  0  0  0  0
  185.7860  178.2740  147.2040 C   0  0  0  0  0  3  0  0  0  0  0  0
  188.9850  177.3870  145.7100 C   0  0  0  0  0  0  0  0  0  0  0  0
  191.6190  176.5650  146.1430 C   0  0  0  0  0  3  0  0  0  0  0  0
  184.9810  178.5780  146.0980 C   0  0  0  0  0  3  0  0  0  0  0  0
  189.4650  177.1710  147.0000 C   0  0  0  0  0  0  0  0  0  0  0  0
  190.7730  176.7620  147.2450 C   0  0  0  0  0  3  0  0  0  0  0  0
  184.6960  178.7980  143.6690 C   0  0  0  0  0  0  0  0  0  0  0  0
  183.2720  179.2210  143.8080 C   0  0  0  0  0  1  0  0  0  0  0  0
  187.3320  178.0200  143.3100 N   0  0  0  0  0  0  0  0  0  0  0  0
  191.1500  176.7790  144.8350 C   0  0  0  0  0  3  0  0  0  0  0  0
  187.1030  177.8880  146.9760 C   0  0  0  0  0  0  0  0  0  0  0  0
  188.2570  177.4750  148.1350 S   0  0  0  0  0  0  0  0  0  0  0  0
  185.2410  178.7040  142.3870 C   0  0  0  0  0  3  0  0  0  0  0  0
  189.8280  177.1920  144.6100 C   0  0  0  0  0  3  0  0  0  0  0  0
  186.5700  178.3100  142.2200 C   0  0  0  0  0  0  0  0  0  0  0  0
  185.4930  178.4950  144.7860 C   0  0  0  0  0  0  0  0  0  0  0  0
  187.1120  178.2180  140.9010 N   0  0  0  0  0  0  0  0  0  0  0  0
  188.3660  178.4310  140.6500 C   0  0  0  0  0  3  0  0  0  0  0  0
  188.9090  178.3260  139.2600 C   0  0  2  0  0  3  0  0  0  0  0  0
  187.8670  177.7710  138.3030 C   0  0  0  0  0  1  0  0  0  0  0  0
  190.1730  177.5200  139.2140 C   0  0  0  0  0  0  0  0  0  0  0  0
  190.6220  177.1190  138.1510 O   0  0  0  0  0  0  0  0  0  0  0  0
  190.8870  177.2030  140.4820 C   0  0  0  0  0  1  0  0  0  0  0  0
  1  4  1  0  0  0  0
  1 13  2  0  0  0  0
  2 18  2  0  0  0  0
  2  1  1  0  0  0  0
  4  7  1  0  0  0  0
  5  8  1  0  0  0  0
  6  3  2  0  0  0  0
  7  8  2  0  0  0  0
  7 14  1  0  0  0  0
  9 10  1  0  0  0  0
  9 18  1  0  0  0  0
 11  2  1  0  0  0  0
 12  5  2  0  0  0  0
 13  3  1  0  0  0  0
 13 14  1  0  0  0  0
 15  9  2  0  0  0  0
 16 12  1  0  0  0  0
 16  4  2  0  0  0  0
 17 15  1  0  0  0  0
 17 11  2  0  0  0  0
 18  6  1  0  0  0  0
 19 17  1  0  0  0  0
 20 19  2  0  0  0  0
 21 22  1  6  0  0  0
 21 20  1  0  0  0  0
 23 21  1  0  0  0  0
 23 25  1  0  0  0  0
 24 23  2  0  0  0  0
M  END
>  <MODEL>
2

>  <REMARK>
 VINA RESULT:     -10.6      1.477      4.664
  Name = 
  3 active torsions:
  status: ('A' for Active; 'I' for Inactive)
    1  A    between atoms: C_2  and  C_21
    2  A    between atoms: N_6  and  C_23
    3  A    between atoms: C_15  and  C_21
                            x       y       z     vdW  Elec       q    Type
                         _______ _______ _______ _____ _____    ______ ____

>  <TORSDO>
F 3

$$$$
=
 OpenBabel10262419503D

 25 28  0  0  1  0  0  0  0  0999 V2000
  186.8990  177.9000  144.9150 C   0  0  0  0  0  0  0  0  0  0  0  0
  188.0980  177.4840  144.3110 C   0  0  0  0  0  0  0  0  0  0  0  0
  187.9180  177.7590  147.1280 C   0  0  0  0  0  3  0  0  0  0  0  0
  185.6810  178.2270  144.2940 C   0  0  0  0  0  0  0  0  0  0  0  0
  183.1250  178.9470  143.4280 C   0  0  0  0  0  3  0  0  0  0  0  0
  189.1170  177.3440  146.5340 C   0  0  0  0  0  3  0  0  0  0  0  0
  184.6960  178.6020  145.2050 C   0  0  0  0  0  0  0  0  0  0  0  0
  183.4130  178.9640  144.8010 C   0  0  0  0  0  3  0  0  0  0  0  0
  190.4170  176.7870  144.5260 C   0  0  0  0  0  0  0  0  0  0  0  0
  191.6390  176.4740  145.3240 C   0  0  0  0  0  1  0  0  0  0  0  0
  188.1990  177.3480  142.9610 N   0  0  0  0  0  0  0  0  0  0  0  0
  184.1090  178.5710  142.4960 C   0  0  0  0  0  3  0  0  0  0  0  0
  186.8310  178.0290  146.3030 C   0  0  0  0  0  0  0  0  0  0  0  0
  185.2950  178.5390  146.7790 S   0  0  0  0  0  0  0  0  0  0  0  0
  190.4770  176.6600  143.1370 C   0  0  0  0  0  3  0  0  0  0  0  0
  185.3960  178.2080  142.9250 C   0  0  0  0  0  3  0  0  0  0  0  0
  189.3530  176.9460  142.3610 C   0  0  0  0  0  0  0  0  0  0  0  0
  189.2200  177.2030  145.1340 C   0  0  0  0  0  0  0  0  0  0  0  0
  189.4320  176.8120  140.9400 N   0  0  0  0  0  0  0  0  0  0  0  0
  190.3900  177.3420  140.2450 C   0  0  0  0  0  3  0  0  0  0  0  0
  190.4510  177.1840  138.7590 C   0  0  2  0  0  3  0  0  0  0  0  0
  189.0660  176.9660  138.1710 C   0  0  0  0  0  1  0  0  0  0  0  0
  191.3930  176.0910  138.3510 C   0  0  0  0  0  0  0  0  0  0  0  0
  191.0210  174.9270  138.3090 O   0  0  0  0  0  0  0  0  0  0  0  0
  192.8000  176.4280  137.9980 C   0  0  0  0  0  1  0  0  0  0  0  0
  1 13  1  0  0  0  0
  2  1  2  0  0  0  0
  2 18  1  0  0  0  0
  4  1  1  0  0  0  0
  4  7  1  0  0  0  0
  5  8  1  0  0  0  0
  6  3  1  0  0  0  0
  7 14  1  0  0  0  0
  8  7  2  0  0  0  0
  9 18  1  0  0  0  0
  9 10  1  0  0  0  0
 11  2  1  0  0  0  0
 12 16  1  0  0  0  0
 12  5  2  0  0  0  0
 13 14  1  0  0  0  0
 13  3  2  0  0  0  0
 15  9  2  0  0  0  0
 16  4  2  0  0  0  0
 17 11  2  0  0  0  0
 17 15  1  0  0  0  0
 18  6  2  0  0  0  0
 19 17  1  0  0  0  0
 20 19  2  0  0  0  0
 21 22  1  1  0  0  0
 21 20  1  0  0  0  0
 23 21  1  0  0  0  0
 24 23  2  0  0  0  0
 25 23  1  0  0  0  0
M  END
>  <MODEL>
3

>  <REMARK>
 VINA RESULT:     -10.3      1.258      1.604
  Name = 
  3 active torsions:
  status: ('A' for Active; 'I' for Inactive)
    1  A    between atoms: C_2  and  C_21
    2  A    between atoms: N_6  and  C_23
    3  A    between atoms: C_15  and  C_21
                            x       y       z     vdW  Elec       q    Type
                         _______ _______ _______ _____ _____    ______ ____

>  <TORSDO>
F 3

$$$$
=
 OpenBabel10262419503D

 25 28  0  0  1  0  0  0  0  0999 V2000
  186.9100  177.8930  144.7780 C   0  0  0  0  0  0  0  0  0  0  0  0
  188.0280  177.5010  144.0220 C   0  0  0  0  0  0  0  0  0  0  0  0
  188.1640  177.6170  146.8530 C   0  0  0  0  0  3  0  0  0  0  0  0
  185.6360  178.2660  144.3150 C   0  0  0  0  0  0  0  0  0  0  0  0
  183.0110  179.0560  143.7800 C   0  0  0  0  0  3  0  0  0  0  0  0
  189.2840  177.2260  146.1080 C   0  0  0  0  0  3  0  0  0  0  0  0
  184.7630  178.5970  145.3490 C   0  0  0  0  0  0  0  0  0  0  0  0
  183.4490  178.9940  145.1110 C   0  0  0  0  0  3  0  0  0  0  0  0
  190.3460  176.7720  143.9400 C   0  0  0  0  0  0  0  0  0  0  0  0
  191.6430  176.4030  144.5790 C   0  0  0  0  0  1  0  0  0  0  0  0
  187.9770  177.4410  142.6640 N   0  0  0  0  0  0  0  0  0  0  0  0
  183.8810  178.7260  142.7250 C   0  0  0  0  0  3  0  0  0  0  0  0
  186.9970  177.9440  146.1700 C   0  0  0  0  0  0  0  0  0  0  0  0
  185.5310  178.4400  146.8410 S   0  0  0  0  0  0  0  0  0  0  0  0
  190.2510  176.7230  142.5480 C   0  0  0  0  0  3  0  0  0  0  0  0
  185.2010  178.3270  142.9870 C   0  0  0  0  0  3  0  0  0  0  0  0
  189.0520  177.0630  141.9180 C   0  0  0  0  0  0  0  0  0  0  0  0
  189.2300  177.1640  144.6990 C   0  0  0  0  0  0  0  0  0  0  0  0
  188.9720  177.0090  140.4920 N   0  0  0  0  0  0  0  0  0  0  0  0
  188.4250  177.9530  139.7920 C   0  0  0  0  0  3  0  0  0  0  0  0
  188.3560  177.8730  138.3000 C   0  0  2  0  0  3  0  0  0  0  0  0
  189.1320  179.0080  137.6520 C   0  0  0  0  0  1  0  0  0  0  0  0
  186.9400  177.8320  137.8070 C   0  0  0  0  0  0  0  0  0  0  0  0
  186.1520  178.7230  138.0900 O   0  0  0  0  0  0  0  0  0  0  0  0
  186.4880  176.6900  136.9650 C   0  0  0  0  0  1  0  0  0  0  0  0
  1 13  2  0  0  0  0
  2 18  2  0  0  0  0
  2  1  1  0  0  0  0
  4  1  1  0  0  0  0
  4  7  1  0  0  0  0
  5  8  1  0  0  0  0
  6  3  2  0  0  0  0
  7 14  1  0  0  0  0
  8  7  2  0  0  0  0
  9 10  1  0  0  0  0
  9 18  1  0  0  0  0
 11  2  1  0  0  0  0
 12 16  1  0  0  0  0
 12  5  2  0  0  0  0
 13 14  1  0  0  0  0
 13  3  1  0  0  0  0
 15  9  2  0  0  0  0
 16  4  2  0  0  0  0
 17 15  1  0  0  0  0
 17 11  2  0  0  0  0
 18  6  1  0  0  0  0
 19 17  1  0  0  0  0
 20 19  2  0  0  0  0
 21 22  1  6  0  0  0
 21 20  1  0  0  0  0
 23 24  2  0  0  0  0
 23 21  1  0  0  0  0
 25 23  1  0  0  0  0
M  END
>  <MODEL>
4

>  <REMARK>
 VINA RESULT:     -10.2      1.303      1.646
  Name = 
  3 active torsions:
  status: ('A' for Active; 'I' for Inactive)
    1  A    between atoms: C_2  and  C_21
    2  A    between atoms: N_6  and  C_23
    3  A    between atoms: C_15  and  C_21
                            x       y       z     vdW  Elec       q    Type
                         _______ _______ _______ _____ _____    ______ ____

>  <TORSDO>
F 3

$$$$
=
 OpenBabel10262419503D

 25 28  0  0  1  0  0  0  0  0999 V2000
  187.1670  178.1590  141.4550 C   0  0  0  0  0  0  0  0  0  0  0  0
  186.5950  178.2070  142.7380 C   0  0  0  0  0  0  0  0  0  0  0  0
  185.0400  178.7940  140.4400 C   0  0  0  0  0  3  0  0  0  0  0  0
  188.4900  177.8410  141.1050 C   0  0  0  0  0  0  0  0  0  0  0  0
  191.0050  177.2700  140.0330 C   0  0  0  0  0  3  0  0  0  0  0  0
  184.4630  178.8450  141.7150 C   0  0  0  0  0  3  0  0  0  0  0  0
  188.7110  177.8920  139.7300 C   0  0  0  0  0  0  0  0  0  0  0  0
  189.9540  177.6110  139.1690 C   0  0  0  0  0  3  0  0  0  0  0  0
  184.6570  178.6030  144.1520 C   0  0  0  0  0  0  0  0  0  0  0  0
  183.2240  178.9610  144.3670 C   0  0  0  0  0  1  0  0  0  0  0  0
  187.3290  177.9290  143.8490 N   0  0  0  0  0  0  0  0  0  0  0  0
  190.7980  177.2150  141.4230 C   0  0  0  0  0  3  0  0  0  0  0  0
  186.3850  178.4510  140.3370 C   0  0  0  0  0  0  0  0  0  0  0  0
  187.2960  178.3240  138.9240 S   0  0  0  0  0  0  0  0  0  0  0  0
  185.4460  178.3090  145.2650 C   0  0  0  0  0  3  0  0  0  0  0  0
  189.5370  177.5000  141.9680 C   0  0  0  0  0  3  0  0  0  0  0  0
  186.7900  177.9720  145.0990 C   0  0  0  0  0  0  0  0  0  0  0  0
  185.2250  178.5550  142.8670 C   0  0  0  0  0  0  0  0  0  0  0  0
  187.5840  177.6750  146.2500 N   0  0  0  0  0  0  0  0  0  0  0  0
  188.8220  177.3000  146.1610 C   0  0  0  0  0  3  0  0  0  0  0  0
  189.6320  176.9980  147.3820 C   0  0  2  0  0  3  0  0  0  0  0  0
  189.4010  178.0360  148.4670 C   0  0  0  0  0  1  0  0  0  0  0  0
  191.0910  176.8590  147.0640 C   0  0  0  0  0  0  0  0  0  0  0  0
  191.9310  176.8900  147.9510 O   0  0  0  0  0  0  0  0  0  0  0  0
  191.5200  176.6870  145.6480 C   0  0  0  0  0  1  0  0  0  0  0  0
  1  2  2  0  0  0  0
  2 18  1  0  0  0  0
  2 11  1  0  0  0  0
  3  6  1  0  0  0  0
  4  1  1  0  0  0  0
  4 16  1  0  0  0  0
  5 12  1  0  0  0  0
  6 18  2  0  0  0  0
  7  4  2  0  0  0  0
  8  7  1  0  0  0  0
  8  5  2  0  0  0  0
  9 10  1  0  0  0  0
  9 15  2  0  0  0  0
 11 17  2  0  0  0  0
 12 16  2  0  0  0  0
 13  3  2  0  0  0  0
 13  1  1  0  0  0  0
 14  7  1  0  0  0  0
 14 13  1  0  0  0  0
 17 15  1  0  0  0  0
 17 19  1  0  0  0  0
 18  9  1  0  0  0  0
 20 19  2  0  0  0  0
 20 21  1  0  0  0  0
 21 22  1  1  0  0  0
 23 21  1  0  0  0  0
 23 24  2  0  0  0  0
 25 23  1  0  0  0  0
M  END
>  <MODEL>
5

>  <REMARK>
 VINA RESULT:      -9.7      2.871      6.854
  Name = 
  3 active torsions:
  status: ('A' for Active; 'I' for Inactive)
    1  A    between atoms: C_2  and  C_21
    2  A    between atoms: N_6  and  C_23
    3  A    between atoms: C_15  and  C_21
                            x       y       z     vdW  Elec       q    Type
                         _______ _______ _______ _____ _____    ______ ____

>  <TORSDO>
F 3

$$$$
=
 OpenBabel10262419503D

 25 28  0  0  1  0  0  0  0  0999 V2000
  189.5170  177.5090  143.7660 C   0  0  0  0  0  0  0  0  0  0  0  0
  188.5010  177.6890  144.7200 C   0  0  0  0  0  0  0  0  0  0  0  0
  191.1500  177.0760  145.5270 C   0  0  0  0  0  3  0  0  0  0  0  0
  189.4190  177.5910  142.3660 C   0  0  0  0  0  0  0  0  0  0  0  0
  189.6130  177.6700  139.5810 C   0  0  0  0  0  3  0  0  0  0  0  0
  190.1430  177.2520  146.4840 C   0  0  0  0  0  3  0  0  0  0  0  0
  190.6330  177.3540  141.7260 C   0  0  0  0  0  0  0  0  0  0  0  0
  190.7580  177.3880  140.3390 C   0  0  0  0  0  3  0  0  0  0  0  0
  187.8020  177.7390  147.0480 C   0  0  0  0  0  0  0  0  0  0  0  0
  188.0610  177.6170  148.5130 C   0  0  0  0  0  1  0  0  0  0  0  0
  187.2260  177.9830  144.3470 N   0  0  0  0  0  0  0  0  0  0  0  0
  188.3790  177.9110  140.2120 C   0  0  0  0  0  3  0  0  0  0  0  0
  190.8140  177.2070  144.1830 C   0  0  0  0  0  0  0  0  0  0  0  0
  191.8430  177.0410  142.8570 S   0  0  0  0  0  0  0  0  0  0  0  0
  186.5070  178.0400  146.6230 C   0  0  0  0  0  3  0  0  0  0  0  0
  188.2750  177.8730  141.6110 C   0  0  0  0  0  3  0  0  0  0  0  0
  186.2300  178.1600  145.2600 C   0  0  0  0  0  0  0  0  0  0  0  0
  188.8210  177.5580  146.0970 C   0  0  0  0  0  0  0  0  0  0  0  0
  184.8990  178.4680  144.8410 N   0  0  0  0  0  0  0  0  0  0  0  0
  184.6280  178.8900  143.6460 C   0  0  0  0  0  3  0  0  0  0  0  0
  183.2250  179.2030  143.2320 C   0  0  2  0  0  3  0  0  0  0  0  0
  182.2260  178.7450  144.2810 C   0  0  0  0  0  1  0  0  0  0  0  0
  182.8990  178.6310  141.8840 C   0  0  0  0  0  0  0  0  0  0  0  0
  181.7390  178.4950  141.5250 O   0  0  0  0  0  0  0  0  0  0  0  0
  184.0050  178.2200  140.9750 C   0  0  0  0  0  1  0  0  0  0  0  0
  1 13  1  0  0  0  0
  1  2  2  0  0  0  0
  2 18  1  0  0  0  0
  3  6  1  0  0  0  0
  4  1  1  0  0  0  0
  5 12  2  0  0  0  0
  5  8  1  0  0  0  0
  7  4  1  0  0  0  0
  7 14  1  0  0  0  0
  8  7  2  0  0  0  0
  9 10  1  0  0  0  0
 11  2  1  0  0  0  0
 11 17  2  0  0  0  0
 12 16  1  0  0  0  0
 13  3  2  0  0  0  0
 14 13  1  0  0  0  0
 15  9  2  0  0  0  0
 16  4  2  0  0  0  0
 17 15  1  0  0  0  0
 18  6  2  0  0  0  0
 18  9  1  0  0  0  0
 19 17  1  0  0  0  0
 20 19  2  0  0  0  0
 21 20  1  0  0  0  0
 21 22  1  1  0  0  0
 23 21  1  0  0  0  0
 24 23  2  0  0  0  0
 25 23  1  0  0  0  0
M  END
>  <MODEL>
6

>  <REMARK>
 VINA RESULT:      -9.6      2.583      5.687
  Name = 
  3 active torsions:
  status: ('A' for Active; 'I' for Inactive)
    1  A    between atoms: C_2  and  C_21
    2  A    between atoms: N_6  and  C_23
    3  A    between atoms: C_15  and  C_21
                            x       y       z     vdW  Elec       q    Type
                         _______ _______ _______ _____ _____    ______ ____

>  <TORSDO>
F 3

$$$$
=
 OpenBabel10262419503D

 25 28  0  0  1  0  0  0  0  0999 V2000
  186.1030  178.3040  144.5150 C   0  0  0  0  0  0  0  0  0  0  0  0
  186.0340  178.4270  143.1170 C   0  0  0  0  0  0  0  0  0  0  0  0
  183.7100  178.7430  144.7120 C   0  0  0  0  0  3  0  0  0  0  0  0
  187.2290  178.0290  145.3090 C   0  0  0  0  0  0  0  0  0  0  0  0
  189.2210  177.5030  147.1960 C   0  0  0  0  0  3  0  0  0  0  0  0
  183.6320  178.8650  143.3190 C   0  0  0  0  0  3  0  0  0  0  0  0
  186.9320  177.9780  146.6690 C   0  0  0  0  0  0  0  0  0  0  0  0
  187.9050  177.7190  147.6310 C   0  0  0  0  0  3  0  0  0  0  0  0
  184.7150  178.8330  141.1150 C   0  0  0  0  0  0  0  0  0  0  0  0
  183.4340  179.1290  140.4090 C   0  0  0  0  0  1  0  0  0  0  0  0
  187.1400  178.2780  142.3390 N   0  0  0  0  0  0  0  0  0  0  0  0
  189.5370  177.5500  145.8260 C   0  0  0  0  0  3  0  0  0  0  0  0
  184.9480  178.4630  145.2830 C   0  0  0  0  0  0  0  0  0  0  0  0
  185.2920  178.2700  146.9230 S   0  0  0  0  0  0  0  0  0  0  0  0
  185.8750  178.6730  140.3540 C   0  0  0  0  0  3  0  0  0  0  0  0
  188.5410  177.8140  144.8730 C   0  0  0  0  0  3  0  0  0  0  0  0
  187.0890  178.3930  140.9830 C   0  0  0  0  0  0  0  0  0  0  0  0
  184.7800  178.7110  142.5140 C   0  0  0  0  0  0  0  0  0  0  0  0
  188.2670  178.2310  140.1890 N   0  0  0  0  0  0  0  0  0  0  0  0
  189.3170  177.6100  140.6260 C   0  0  0  0  0  3  0  0  0  0  0  0
  190.5370  177.4520  139.7740 C   0  0  2  0  0  3  0  0  0  0  0  0
  190.4180  176.2420  138.8620 C   0  0  0  0  0  1  0  0  0  0  0  0
  191.7890  177.3920  140.5970 C   0  0  0  0  0  0  0  0  0  0  0  0
  191.7380  177.3970  141.8170 O   0  0  0  0  0  0  0  0  0  0  0  0
  193.1120  177.3280  139.9150 C   0  0  0  0  0  1  0  0  0  0  0  0
  1 13  2  0  0  0  0
  1  4  1  0  0  0  0
  2  1  1  0  0  0  0
  3 13  1  0  0  0  0
  4  7  1  0  0  0  0
  5  8  1  0  0  0  0
  6  3  2  0  0  0  0
  7 14  1  0  0  0  0
  7  8  2  0  0  0  0
  9 18  1  0  0  0  0
 10  9  1  0  0  0  0
 11  2  1  0  0  0  0
 12  5  2  0  0  0  0
 13 14  1  0  0  0  0
 15 17  1  0  0  0  0
 15  9  2  0  0  0  0
 16  4  2  0  0  0  0
 16 12  1  0  0  0  0
 17 11  2  0  0  0  0
 18  2  2  0  0  0  0
 18  6  1  0  0  0  0
 19 20  2  0  0  0  0
 19 17  1  0  0  0  0
 21 22  1  1  0  0  0
 21 23  1  0  0  0  0
 21 20  1  0  0  0  0
 23 24  2  0  0  0  0
 25 23  1  0  0  0  0
M  END
>  <MODEL>
7

>  <REMARK>
 VINA RESULT:      -9.5      1.654      4.727
  Name = 
  3 active torsions:
  status: ('A' for Active; 'I' for Inactive)
    1  A    between atoms: C_2  and  C_21
    2  A    between atoms: N_6  and  C_23
    3  A    between atoms: C_15  and  C_21
                            x       y       z     vdW  Elec       q    Type
                         _______ _______ _______ _____ _____    ______ ____

>  <TORSDO>
F 3

$$$$
=
 OpenBabel10262419503D

 25 28  0  0  1  0  0  0  0  0999 V2000
  189.4580  177.5950  144.0860 C   0  0  0  0  0  0  0  0  0  0  0  0
  188.8510  177.8130  142.8370 C   0  0  0  0  0  0  0  0  0  0  0  0
  191.6190  177.2160  143.0150 C   0  0  0  0  0  3  0  0  0  0  0  0
  188.8640  177.6290  145.3590 C   0  0  0  0  0  0  0  0  0  0  0  0
  188.0440  177.6100  148.0290 C   0  0  0  0  0  3  0  0  0  0  0  0
  191.0210  177.4330  141.7670 C   0  0  0  0  0  3  0  0  0  0  0  0
  189.7690  177.3640  146.3840 C   0  0  0  0  0  0  0  0  0  0  0  0
  189.3870  177.3480  147.7230 C   0  0  0  0  0  3  0  0  0  0  0  0
  189.0360  177.9490  140.4170 C   0  0  0  0  0  0  0  0  0  0  0  0
  189.8050  177.8800  139.1400 C   0  0  0  0  0  1  0  0  0  0  0  0
  187.5250  178.1000  142.7370 N   0  0  0  0  0  0  0  0  0  0  0  0
  187.1170  177.8790  147.0050 C   0  0  0  0  0  3  0  0  0  0  0  0
  190.8210  177.3030  144.1520 C   0  0  0  0  0  0  0  0  0  0  0  0
  191.3060  177.0850  145.7530 S   0  0  0  0  0  0  0  0  0  0  0  0
  187.6720  178.2410  140.3590 C   0  0  0  0  0  3  0  0  0  0  0  0
  187.5230  177.8900  145.6620 C   0  0  0  0  0  3  0  0  0  0  0  0
  186.9230  178.3150  141.5350 C   0  0  0  0  0  0  0  0  0  0  0  0
  189.6460  177.7300  141.6640 C   0  0  0  0  0  0  0  0  0  0  0  0
  185.5270  178.6150  141.4570 N   0  0  0  0  0  0  0  0  0  0  0  0
  184.6380  177.9560  142.1320 C   0  0  0  0  0  3  0  0  0  0  0  0
  183.1830  178.2920  142.0350 C   0  0  2  0  0  3  0  0  0  0  0  0
  182.8790  179.0570  140.7580 C   0  0  0  0  0  1  0  0  0  0  0  0
  182.7010  179.0390  143.2430 C   0  0  0  0  0  0  0  0  0  0  0  0
  181.6630  179.6830  143.2090 O   0  0  0  0  0  0  0  0  0  0  0  0
  183.5010  178.9970  144.4990 C   0  0  0  0  0  1  0  0  0  0  0  0
  1 13  2  0  0  0  0
  1  4  1  0  0  0  0
  2  1  1  0  0  0  0
  3 13  1  0  0  0  0
  4 16  2  0  0  0  0
  4  7  1  0  0  0  0
  6  3  2  0  0  0  0
  7  8  2  0  0  0  0
  8  5  1  0  0  0  0
  9 18  1  0  0  0  0
 10  9  1  0  0  0  0
 11  2  1  0  0  0  0
 12  5  2  0  0  0  0
 13 14  1  0  0  0  0
 14  7  1  0  0  0  0
 15  9  2  0  0  0  0
 15 17  1  0  0  0  0
 16 12  1  0  0  0  0
 17 11  2  0  0  0  0
 18  6  1  0  0  0  0
 18  2  2  0  0  0  0
 19 17  1  0  0  0  0
 19 20  2  0  0  0  0
 21 22  1  6  0  0  0
 21 20  1  0  0  0  0
 21 23  1  0  0  0  0
 23 25  1  0  0  0  0
 24 23  2  0  0  0  0
M  END
>  <MODEL>
8

>  <REMARK>
 VINA RESULT:      -9.3      2.534      5.865
  Name = 
  3 active torsions:
  status: ('A' for Active; 'I' for Inactive)
    1  A    between atoms: C_2  and  C_21
    2  A    between atoms: N_6  and  C_23
    3  A    between atoms: C_15  and  C_21
                            x       y       z     vdW  Elec       q    Type
                         _______ _______ _______ _____ _____    ______ ____

>  <TORSDO>
F 3

$$$$
=
 OpenBabel10262419503D

 25 28  0  0  1  0  0  0  0  0999 V2000
  188.7220  177.6170  143.7200 C   0  0  0  0  0  0  0  0  0  0  0  0
  187.3960  177.8910  144.0970 C   0  0  0  0  0  0  0  0  0  0  0  0
  189.3890  177.4140  146.0590 C   0  0  0  0  0  3  0  0  0  0  0  0
  189.2570  177.5350  142.4230 C   0  0  0  0  0  0  0  0  0  0  0  0
  190.6670  177.2940  140.0240 C   0  0  0  0  0  3  0  0  0  0  0  0
  188.0690  177.6850  146.4440 C   0  0  0  0  0  3  0  0  0  0  0  0
  190.6190  177.2430  142.4190 C   0  0  0  0  0  0  0  0  0  0  0  0
  191.3460  177.1180  141.2380 C   0  0  0  0  0  3  0  0  0  0  0  0
  185.7420  178.1990  145.8520 C   0  0  0  0  0  0  0  0  0  0  0  0
  185.3210  178.2520  147.2830 C   0  0  0  0  0  1  0  0  0  0  0  0
  186.4300  178.1210  143.1680 N   0  0  0  0  0  0  0  0  0  0  0  0
  189.2910  177.5890  140.0110 C   0  0  0  0  0  3  0  0  0  0  0  0
  189.6880  177.3850  144.7010 C   0  0  0  0  0  0  0  0  0  0  0  0
  191.1900  177.0810  143.9960 S   0  0  0  0  0  0  0  0  0  0  0  0
  184.7810  178.4300  144.8660 C   0  0  0  0  0  3  0  0  0  0  0  0
  188.5770  177.7110  141.2130 C   0  0  0  0  0  3  0  0  0  0  0  0
  185.1410  178.3880  143.5180 C   0  0  0  0  0  0  0  0  0  0  0  0
  187.0690  177.9250  145.4790 C   0  0  0  0  0  0  0  0  0  0  0  0
  184.1450  178.6260  142.5200 N   0  0  0  0  0  0  0  0  0  0  0  0
  184.1810  178.0580  141.3550 C   0  0  0  0  0  3  0  0  0  0  0  0
  183.1240  178.3220  140.3290 C   0  0  2  0  0  3  0  0  0  0  0  0
  182.7960  177.0640  139.5420 C   0  0  0  0  0  1  0  0  0  0  0  0
  183.5010  179.4510  139.4170 C   0  0  0  0  0  0  0  0  0  0  0  0
  184.6720  179.7550  139.2470 O   0  0  0  0  0  0  0  0  0  0  0  0
  182.4320  180.2140  138.7140 C   0  0  0  0  0  1  0  0  0  0  0  0
  1  2  2  0  0  0  0
  1 13  1  0  0  0  0
  2 18  1  0  0  0  0
  3  6  1  0  0  0  0
  4  1  1  0  0  0  0
  5  8  1  0  0  0  0
  7  4  1  0  0  0  0
  7 14  1  0  0  0  0
  8  7  2  0  0  0  0
  9 10  1  0  0  0  0
 11 17  2  0  0  0  0
 11  2  1  0  0  0  0
 12  5  2  0  0  0  0
 12 16  1  0  0  0  0
 13  3  2  0  0  0  0
 14 13  1  0  0  0  0
 15  9  2  0  0  0  0
 16  4  2  0  0  0  0
 17 15  1  0  0  0  0
 18  9  1  0  0  0  0
 18  6  2  0  0  0  0
 19 17  1  0  0  0  0
 20 19  2  0  0  0  0
 21 22  1  6  0  0  0
 21 20  1  0  0  0  0
 23 21  1  0  0  0  0
 24 23  2  0  0  0  0
 25 23  1  0  0  0  0
M  END
>  <MODEL>
9

>  <REMARK>
 VINA RESULT:      -9.3      2.631      5.502
  Name = 
  3 active torsions:
  status: ('A' for Active; 'I' for Inactive)
    1  A    between atoms: C_2  and  C_21
    2  A    between atoms: N_6  and  C_23
    3  A    between atoms: C_15  and  C_21
                            x       y       z     vdW  Elec       q    Type
                         _______ _______ _______ _____ _____    ______ ____

>  <TORSDO>
F 3

$$$$
