=
 OpenBabel10262420153D

 27 30  0  0  1  0  0  0  0  0999 V2000
  190.0530  177.1530  139.9370 C   0  0  2  0  0  3  0  0  0  0  0  0
  190.7060  176.2710  140.8170 O   0  0  0  0  0  0  0  0  0  0  0  0
  188.7150  176.6230  141.7110 C   0  0  1  0  0  3  0  0  0  0  0  0
  186.7650  178.6830  141.0740 C   0  0  0  0  0  0  0  0  0  0  0  0
  185.6570  179.4330  140.7020 O   0  0  0  0  0  1  0  0  0  0  0  0
  188.7230  177.2910  140.4420 N   0  0  0  0  0  0  0  0  0  0  0  0
  190.0630  176.3310  141.9890 O   0  0  0  0  0  0  0  0  0  0  0  0
  186.9040  178.2770  142.3390 C   0  0  0  0  0  3  0  0  0  0  0  0
  187.8160  178.8510  138.9500 O   0  0  0  0  0  0  0  0  0  0  0  0
  187.7800  178.3050  140.0850 C   0  0  0  0  0  0  0  0  0  0  0  0
  188.1360  177.5400  142.8060 C   0  0  1  0  0  3  0  0  0  0  0  0
  187.7970  176.7470  144.0610 C   0  0  0  0  0  2  0  0  0  0  0  0
  188.7390  176.9880  147.7000 C   0  0  0  0  0  2  0  0  0  0  0  0
  187.8210  178.1010  148.1240 C   0  0  0  0  0  3  0  0  0  0  0  0
  186.7930  178.4390  147.3390 C   0  0  0  0  0  3  0  0  0  0  0  0
  187.9370  177.6020  145.3110 C   0  0  1  0  0  3  0  0  0  0  0  0
  186.5940  177.7100  146.0440 C   0  0  0  0  0  2  0  0  0  0  0  0
  189.0770  177.0550  146.1960 C   0  0  1  0  0  3  0  0  0  0  0  0
  191.3850  177.0610  145.2450 C   0  0  0  0  0  1  0  0  0  0  0  0
  190.3310  177.8830  145.9630 C   0  0  0  0  0  2  0  0  0  0  0  0
  190.0510  176.5870  138.5140 C   0  0  0  0  0  2  0  0  0  0  0  0
  193.7370  174.6560  137.4510 C   0  0  0  0  0  3  0  0  0  0  0  0
  191.3360  175.9080  138.1560 C   0  0  0  0  0  0  0  0  0  0  0  0
  191.3210  174.6240  137.6000 C   0  0  0  0  0  3  0  0  0  0  0  0
  192.5210  173.9980  137.2490 C   0  0  0  0  0  3  0  0  0  0  0  0
  193.7540  175.9400  138.0060 C   0  0  0  0  0  3  0  0  0  0  0  0
  192.5550  176.5650  138.3570 C   0  0  0  0  0  3  0  0  0  0  0  0
  1 21  1  6  0  0  0
  1  6  1  0  0  0  0
  1  2  1  0  0  0  0
  2  7  1  0  0  0  0
  3  7  1  1  0  0  0
  3 11  1  0  0  0  0
  4  8  2  0  0  0  0
  5  4  1  0  0  0  0
  6  3  1  0  0  0  0
  8 11  1  0  0  0  0
  9 10  2  0  0  0  0
 10  6  1  0  0  0  0
 10  4  1  0  0  0  0
 11 12  1  1  0  0  0
 13 14  1  0  0  0  0
 15 14  2  0  0  0  0
 16 12  1  6  0  0  0
 16 17  1  0  0  0  0
 16 18  1  0  0  0  0
 17 15  1  0  0  0  0
 18 20  1  1  0  0  0
 18 13  1  0  0  0  0
 19 20  1  0  0  0  0
 22 26  1  0  0  0  0
 23 27  1  0  0  0  0
 23 21  1  0  0  0  0
 24 23  2  0  0  0  0
 25 22  2  0  0  0  0
 25 24  1  0  0  0  0
 26 27  2  0  0  0  0
M  END
>  <MODEL>
1

>  <REMARK>
 VINA RESULT:      -9.0      0.000      0.000
  Name = 
  5 active torsions:
  status: ('A' for Active; 'I' for Inactive)
    1  A    between atoms: C_1  and  C_15
    2  A    between atoms: C_9  and  C_15
    3  A    between atoms: C_12  and  C_14
    4  A    between atoms: C_12  and  C_26
    5  A    between atoms: C_17  and  C_21
                            x       y       z     vdW  Elec       q    Type
                         _______ _______ _______ _____ _____    ______ ____

>  <TORSDO>
F 5

$$$$
=
 OpenBabel10262420153D

 27 30  0  0  1  0  0  0  0  0999 V2000
  188.1200  178.6130  140.4060 C   0  0  2  0  0  3  0  0  0  0  0  0
  189.2010  177.9790  141.0450 O   0  0  0  0  0  0  0  0  0  0  0  0
  187.4340  177.5250  142.2950 C   0  0  1  0  0  3  0  0  0  0  0  0
  184.8050  178.7620  142.2580 C   0  0  0  0  0  0  0  0  0  0  0  0
  183.4540  179.0750  142.1730 O   0  0  0  0  0  1  0  0  0  0  0  0
  186.9550  178.2240  141.1380 N   0  0  0  0  0  0  0  0  0  0  0  0
  188.8260  177.7300  142.3060 O   0  0  0  0  0  0  0  0  0  0  0  0
  185.3260  178.3600  143.4200 C   0  0  0  0  0  3  0  0  0  0  0  0
  185.2820  179.4300  140.0290 O   0  0  0  0  0  0  0  0  0  0  0  0
  185.6670  178.8420  141.0740 C   0  0  0  0  0  0  0  0  0  0  0  0
  186.8040  178.0990  143.5790 C   0  0  1  0  0  3  0  0  0  0  0  0
  187.0220  177.1630  144.7600 C   0  0  0  0  0  2  0  0  0  0  0  0
  189.6250  176.8890  147.4690 C   0  0  0  0  0  2  0  0  0  0  0  0
  189.1290  177.9600  148.4020 C   0  0  0  0  0  3  0  0  0  0  0  0
  187.8840  178.4260  148.2640 C   0  0  0  0  0  3  0  0  0  0  0  0
  187.8250  177.8390  145.8610 C   0  0  1  0  0  3  0  0  0  0  0  0
  187.0200  177.8830  147.1660 C   0  0  0  0  0  2  0  0  0  0  0  0
  189.1970  177.1480  146.0090 C   0  0  1  0  0  3  0  0  0  0  0  0
  191.4330  177.0950  144.9010 C   0  0  0  0  0  1  0  0  0  0  0  0
  190.2490  177.9660  145.2770 C   0  0  0  0  0  2  0  0  0  0  0  0
  188.0300  178.1710  138.9420 C   0  0  0  0  0  2  0  0  0  0  0  0
  191.1340  175.4290  137.8040 C   0  0  0  0  0  3  0  0  0  0  0  0
  189.1090  177.2080  138.5580 C   0  0  0  0  0  0  0  0  0  0  0  0
  188.7870  176.0160  137.9000 C   0  0  0  0  0  3  0  0  0  0  0  0
  189.7980  175.1270  137.5250 C   0  0  0  0  0  3  0  0  0  0  0  0
  191.4580  176.6210  138.4610 C   0  0  0  0  0  3  0  0  0  0  0  0
  190.4480  177.5100  138.8360 C   0  0  0  0  0  3  0  0  0  0  0  0
  1 21  1  6  0  0  0
  1  2  1  0  0  0  0
  1  6  1  0  0  0  0
  2  7  1  0  0  0  0
  3  7  1  1  0  0  0
  3 11  1  0  0  0  0
  4  8  2  0  0  0  0
  5  4  1  0  0  0  0
  6  3  1  0  0  0  0
  8 11  1  0  0  0  0
  9 10  2  0  0  0  0
 10  6  1  0  0  0  0
 10  4  1  0  0  0  0
 11 12  1  1  0  0  0
 13 14  1  0  0  0  0
 15 14  2  0  0  0  0
 16 12  1  6  0  0  0
 16 18  1  0  0  0  0
 16 17  1  0  0  0  0
 17 15  1  0  0  0  0
 18 20  1  1  0  0  0
 18 13  1  0  0  0  0
 19 20  1  0  0  0  0
 22 26  1  0  0  0  0
 23 27  1  0  0  0  0
 23 21  1  0  0  0  0
 24 23  2  0  0  0  0
 25 22  2  0  0  0  0
 25 24  1  0  0  0  0
 26 27  2  0  0  0  0
M  END
>  <MODEL>
2

>  <REMARK>
 VINA RESULT:      -8.6      1.424      2.045
  Name = 
  5 active torsions:
  status: ('A' for Active; 'I' for Inactive)
    1  A    between atoms: C_1  and  C_15
    2  A    between atoms: C_9  and  C_15
    3  A    between atoms: C_12  and  C_14
    4  A    between atoms: C_12  and  C_26
    5  A    between atoms: C_17  and  C_21
                            x       y       z     vdW  Elec       q    Type
                         _______ _______ _______ _____ _____    ______ ____

>  <TORSDO>
F 5

$$$$
=
 OpenBabel10262420153D

 27 30  0  0  1  0  0  0  0  0999 V2000
  184.6020  179.1030  142.3410 C   0  0  2  0  0  3  0  0  0  0  0  0
  185.4820  178.5910  141.3700 O   0  0  0  0  0  0  0  0  0  0  0  0
  186.0950  177.6460  143.2730 C   0  0  1  0  0  3  0  0  0  0  0  0
  185.3700  178.3750  145.9910 C   0  0  0  0  0  0  0  0  0  0  0  0
  184.9070  178.4450  147.2990 O   0  0  0  0  0  1  0  0  0  0  0  0
  184.9110  178.4060  143.5500 N   0  0  0  0  0  0  0  0  0  0  0  0
  186.5440  178.0970  142.0180 O   0  0  0  0  0  0  0  0  0  0  0  0
  186.5960  177.9100  145.7400 C   0  0  0  0  0  3  0  0  0  0  0  0
  183.4540  179.4350  145.0680 O   0  0  0  0  0  0  0  0  0  0  0  0
  184.5130  178.7820  144.8720 C   0  0  0  0  0  0  0  0  0  0  0  0
  187.1720  177.9020  144.3450 C   0  0  1  0  0  3  0  0  0  0  0  0
  188.2790  176.8600  144.2670 C   0  0  0  0  0  2  0  0  0  0  0  0
  191.7600  176.0870  145.4830 C   0  0  0  0  0  2  0  0  0  0  0  0
  191.7020  176.7360  146.8390 C   0  0  0  0  0  3  0  0  0  0  0  0
  190.5150  177.0570  147.3630 C   0  0  0  0  0  3  0  0  0  0  0  0
  189.4700  177.2530  145.1280 C   0  0  1  0  0  3  0  0  0  0  0  0
  189.2710  176.7800  146.5730 C   0  0  0  0  0  2  0  0  0  0  0  0
  190.7750  176.7340  144.4870 C   0  0  1  0  0  3  0  0  0  0  0  0
  190.9320  179.2110  144.2210 C   0  0  0  0  0  1  0  0  0  0  0  0
  191.4450  177.8710  143.7300 C   0  0  0  0  0  2  0  0  0  0  0  0
  183.1480  178.8700  141.9210 C   0  0  0  0  0  2  0  0  0  0  0  0
  182.7370  177.5320  137.8610 C   0  0  0  0  0  3  0  0  0  0  0  0
  183.0190  178.4030  140.5050 C   0  0  0  0  0  0  0  0  0  0  0  0
  183.0190  177.0340  140.2140 C   0  0  0  0  0  3  0  0  0  0  0  0
  182.8790  176.5990  138.8920 C   0  0  0  0  0  3  0  0  0  0  0  0
  182.7360  178.9000  138.1510 C   0  0  0  0  0  3  0  0  0  0  0  0
  182.8750  179.3350  139.4710 C   0  0  0  0  0  3  0  0  0  0  0  0
  1 21  1  6  0  0  0
  1  6  1  0  0  0  0
  2  7  1  0  0  0  0
  2  1  1  0  0  0  0
  3  7  1  6  0  0  0
  3  6  1  0  0  0  0
  3 11  1  0  0  0  0
  4  5  1  0  0  0  0
  6 10  1  0  0  0  0
  8  4  2  0  0  0  0
 10  9  2  0  0  0  0
 10  4  1  0  0  0  0
 11 12  1  1  0  0  0
 11  8  1  0  0  0  0
 13 14  1  0  0  0  0
 14 15  2  0  0  0  0
 16 12  1  6  0  0  0
 16 17  1  0  0  0  0
 17 15  1  0  0  0  0
 18 20  1  1  0  0  0
 18 16  1  0  0  0  0
 18 13  1  0  0  0  0
 20 19  1  0  0  0  0
 22 26  2  0  0  0  0
 22 25  1  0  0  0  0
 23 21  1  0  0  0  0
 24 23  1  0  0  0  0
 25 24  2  0  0  0  0
 26 27  1  0  0  0  0
 27 23  2  0  0  0  0
M  END
>  <MODEL>
3

>  <REMARK>
 VINA RESULT:      -8.6      4.037      6.297
  Name = 
  5 active torsions:
  status: ('A' for Active; 'I' for Inactive)
    1  A    between atoms: C_1  and  C_15
    2  A    between atoms: C_9  and  C_15
    3  A    between atoms: C_12  and  C_14
    4  A    between atoms: C_12  and  C_26
    5  A    between atoms: C_17  and  C_21
                            x       y       z     vdW  Elec       q    Type
                         _______ _______ _______ _____ _____    ______ ____

>  <TORSDO>
F 5

$$$$
=
 OpenBabel10262420153D

 27 30  0  0  1  0  0  0  0  0999 V2000
  188.1820  177.8330  142.1590 C   0  0  2  0  0  3  0  0  0  0  0  0
  186.9690  178.4030  141.7290 O   0  0  0  0  0  0  0  0  0  0  0  0
  188.0530  177.8690  139.8780 C   0  0  1  0  0  3  0  0  0  0  0  0
  190.8530  177.1650  139.5390 C   0  0  0  0  0  0  0  0  0  0  0  0
  192.0790  176.5690  139.2750 O   0  0  0  0  0  1  0  0  0  0  0  0
  188.8360  177.3750  140.9730 N   0  0  0  0  0  0  0  0  0  0  0  0
  187.1310  178.7640  140.4500 O   0  0  0  0  0  0  0  0  0  0  0  0
  190.2320  177.8670  138.5880 C   0  0  0  0  0  3  0  0  0  0  0  0
  190.8550  176.5640  141.8380 O   0  0  0  0  0  0  0  0  0  0  0  0
  190.2130  177.0110  140.8510 C   0  0  0  0  0  0  0  0  0  0  0  0
  188.9450  178.6080  138.8600 C   0  0  1  0  0  3  0  0  0  0  0  0
  188.2080  178.8280  137.5460 C   0  0  0  0  0  2  0  0  0  0  0  0
  186.5650  176.7810  134.8440 C   0  0  0  0  0  2  0  0  0  0  0  0
  185.4290  176.1900  135.6330 C   0  0  0  0  0  3  0  0  0  0  0  0
  185.1000  176.7250  136.8120 C   0  0  0  0  0  3  0  0  0  0  0  0
  187.3850  177.6070  137.1620 C   0  0  1  0  0  3  0  0  0  0  0  0
  185.8880  177.8920  137.3280 C   0  0  0  0  0  2  0  0  0  0  0  0
  187.7680  177.1440  135.7400 C   0  0  1  0  0  3  0  0  0  0  0  0
  188.4430  175.1480  137.0780 C   0  0  0  0  0  1  0  0  0  0  0  0
  188.7360  175.9750  135.8390 C   0  0  0  0  0  2  0  0  0  0  0  0
  187.9170  176.6790  143.1300 C   0  0  0  0  0  2  0  0  0  0  0  0
  188.0460  177.8570  147.2580 C   0  0  0  0  0  3  0  0  0  0  0  0
  187.9630  177.1030  144.5640 C   0  0  0  0  0  0  0  0  0  0  0  0
  186.7840  177.4590  145.2290 C   0  0  0  0  0  3  0  0  0  0  0  0
  186.8260  177.8370  146.5750 C   0  0  0  0  0  3  0  0  0  0  0  0
  189.2240  177.5000  146.5940 C   0  0  0  0  0  3  0  0  0  0  0  0
  189.1830  177.1230  145.2500 C   0  0  0  0  0  3  0  0  0  0  0  0
  1 21  1  1  0  0  0
  2  1  1  0  0  0  0
  3  7  1  1  0  0  0
  3  6  1  0  0  0  0
  4 10  1  0  0  0  0
  5  4  1  0  0  0  0
  6  1  1  0  0  0  0
  7  2  1  0  0  0  0
  8 11  1  0  0  0  0
  8  4  2  0  0  0  0
 10  6  1  0  0  0  0
 10  9  2  0  0  0  0
 11 12  1  6  0  0  0
 11  3  1  0  0  0  0
 13 14  1  0  0  0  0
 13 18  1  0  0  0  0
 14 15  2  0  0  0  0
 15 17  1  0  0  0  0
 16 17  1  0  0  0  0
 16 12  1  6  0  0  0
 18 20  1  1  0  0  0
 18 16  1  0  0  0  0
 20 19  1  0  0  0  0
 21 23  1  0  0  0  0
 23 24  2  0  0  0  0
 23 27  1  0  0  0  0
 24 25  1  0  0  0  0
 25 22  2  0  0  0  0
 26 22  1  0  0  0  0
 27 26  2  0  0  0  0
M  END
>  <MODEL>
4

>  <REMARK>
 VINA RESULT:      -8.3      2.404      8.013
  Name = 
  5 active torsions:
  status: ('A' for Active; 'I' for Inactive)
    1  A    between atoms: C_1  and  C_15
    2  A    between atoms: C_9  and  C_15
    3  A    between atoms: C_12  and  C_14
    4  A    between atoms: C_12  and  C_26
    5  A    between atoms: C_17  and  C_21
                            x       y       z     vdW  Elec       q    Type
                         _______ _______ _______ _____ _____    ______ ____

>  <TORSDO>
F 5

$$$$
=
 OpenBabel10262420153D

 27 30  0  0  1  0  0  0  0  0999 V2000
  188.2890  177.6710  139.6220 C   0  0  2  0  0  3  0  0  0  0  0  0
  187.3440  178.1230  140.5600 O   0  0  0  0  0  0  0  0  0  0  0  0
  189.3130  178.4310  141.5180 C   0  0  1  0  0  3  0  0  0  0  0  0
  191.9020  177.3520  140.7580 C   0  0  0  0  0  0  0  0  0  0  0  0
  193.2150  177.1270  140.3640 O   0  0  0  0  0  1  0  0  0  0  0  0
  189.5680  177.9780  140.1820 N   0  0  0  0  0  0  0  0  0  0  0  0
  187.9520  178.1580  141.7520 O   0  0  0  0  0  0  0  0  0  0  0  0
  191.6100  177.5110  142.0510 C   0  0  0  0  0  3  0  0  0  0  0  0
  191.0110  177.0770  138.5720 O   0  0  0  0  0  0  0  0  0  0  0  0
  190.8280  177.4460  139.7630 C   0  0  0  0  0  0  0  0  0  0  0  0
  190.1870  177.6650  142.5310 C   0  0  1  0  0  3  0  0  0  0  0  0
  190.1900  178.3590  143.8850 C   0  0  0  0  0  2  0  0  0  0  0  0
  188.2750  177.8870  147.0950 C   0  0  0  0  0  2  0  0  0  0  0  0
  189.0470  176.7370  147.6810 C   0  0  0  0  0  3  0  0  0  0  0  0
  190.2550  176.4410  147.1920 C   0  0  0  0  0  3  0  0  0  0  0  0
  189.7140  177.4240  144.9870 C   0  0  1  0  0  3  0  0  0  0  0  0
  190.8010  177.2520  146.0550 C   0  0  0  0  0  2  0  0  0  0  0  0
  188.3680  177.9250  145.5550 C   0  0  1  0  0  3  0  0  0  0  0  0
  186.0130  178.0070  144.7330 C   0  0  0  0  0  1  0  0  0  0  0  0
  187.2350  177.1290  144.9270 C   0  0  0  0  0  2  0  0  0  0  0  0
  188.0880  178.3750  138.2770 C   0  0  0  0  0  2  0  0  0  0  0  0
  186.6030  175.7580  135.2120 C   0  0  0  0  0  3  0  0  0  0  0  0
  187.5590  177.4620  137.2160 C   0  0  0  0  0  0  0  0  0  0  0  0
  186.8220  177.9810  136.1450 C   0  0  0  0  0  3  0  0  0  0  0  0
  186.3440  177.1290  135.1450 C   0  0  0  0  0  3  0  0  0  0  0  0
  187.3410  175.2370  136.2810 C   0  0  0  0  0  3  0  0  0  0  0  0
  187.8180  176.0880  137.2810 C   0  0  0  0  0  3  0  0  0  0  0  0
  1 21  1  6  0  0  0
  1  6  1  0  0  0  0
  1  2  1  0  0  0  0
  2  7  1  0  0  0  0
  3  7  1  1  0  0  0
  3 11  1  0  0  0  0
  4  8  2  0  0  0  0
  5  4  1  0  0  0  0
  6  3  1  0  0  0  0
  8 11  1  0  0  0  0
  9 10  2  0  0  0  0
 10  6  1  0  0  0  0
 10  4  1  0  0  0  0
 11 12  1  1  0  0  0
 13 14  1  0  0  0  0
 15 14  2  0  0  0  0
 16 12  1  6  0  0  0
 16 18  1  0  0  0  0
 16 17  1  0  0  0  0
 17 15  1  0  0  0  0
 18 20  1  6  0  0  0
 18 13  1  0  0  0  0
 19 20  1  0  0  0  0
 22 26  1  0  0  0  0
 23 27  1  0  0  0  0
 23 21  1  0  0  0  0
 24 23  2  0  0  0  0
 25 22  2  0  0  0  0
 25 24  1  0  0  0  0
 26 27  2  0  0  0  0
M  END
>  <MODEL>
5

>  <REMARK>
 VINA RESULT:      -8.1      2.422      4.313
  Name = 
  5 active torsions:
  status: ('A' for Active; 'I' for Inactive)
    1  A    between atoms: C_1  and  C_15
    2  A    between atoms: C_9  and  C_15
    3  A    between atoms: C_12  and  C_14
    4  A    between atoms: C_12  and  C_26
    5  A    between atoms: C_17  and  C_21
                            x       y       z     vdW  Elec       q    Type
                         _______ _______ _______ _____ _____    ______ ____

>  <TORSDO>
F 5

$$$$
=
 OpenBabel10262420153D

 27 30  0  0  1  0  0  0  0  0999 V2000
  190.0240  177.4500  142.2990 C   0  0  2  0  0  3  0  0  0  0  0  0
  191.2910  177.0520  141.8350 O   0  0  0  0  0  0  0  0  0  0  0  0
  190.2010  177.7470  140.0410 C   0  0  1  0  0  3  0  0  0  0  0  0
  187.3580  178.2520  139.7130 C   0  0  0  0  0  0  0  0  0  0  0  0
  186.0890  178.7730  139.4940 O   0  0  0  0  0  1  0  0  0  0  0  0
  189.3560  178.0140  141.1680 N   0  0  0  0  0  0  0  0  0  0  0  0
  191.1870  176.8620  140.5140 O   0  0  0  0  0  0  0  0  0  0  0  0
  188.0570  177.7460  138.6940 C   0  0  0  0  0  3  0  0  0  0  0  0
  187.2550  178.5210  142.0710 O   0  0  0  0  0  0  0  0  0  0  0  0
  187.9540  178.2730  141.0530 C   0  0  0  0  0  0  0  0  0  0  0  0
  189.3990  177.0870  138.9020 C   0  0  1  0  0  3  0  0  0  0  0  0
  190.1790  177.1170  137.5950 C   0  0  0  0  0  2  0  0  0  0  0  0
  191.4940  174.6860  135.0360 C   0  0  0  0  0  2  0  0  0  0  0  0
  191.2040  173.3930  135.7470 C   0  0  0  0  0  3  0  0  0  0  0  0
  190.3540  173.3860  136.7780 C   0  0  0  0  0  3  0  0  0  0  0  0
  190.8050  175.7640  137.2920 C   0  0  1  0  0  3  0  0  0  0  0  0
  189.7270  174.6770  137.2140 C   0  0  0  0  0  2  0  0  0  0  0  0
  191.6730  175.8610  136.0190 C   0  0  1  0  0  3  0  0  0  0  0  0
  193.3190  175.6490  137.8830 C   0  0  0  0  0  1  0  0  0  0  0  0
  193.1330  176.0090  136.4210 C   0  0  0  0  0  2  0  0  0  0  0  0
  190.1650  178.4750  143.4290 C   0  0  0  0  0  2  0  0  0  0  0  0
  189.7980  176.7560  147.3480 C   0  0  0  0  0  3  0  0  0  0  0  0
  190.0350  177.8630  144.7890 C   0  0  0  0  0  0  0  0  0  0  0  0
  191.1520  177.3000  145.4160 C   0  0  0  0  0  3  0  0  0  0  0  0
  191.0330  176.7450  146.6940 C   0  0  0  0  0  3  0  0  0  0  0  0
  188.6810  177.3200  146.7230 C   0  0  0  0  0  3  0  0  0  0  0  0
  188.7990  177.8740  145.4460 C   0  0  0  0  0  3  0  0  0  0  0  0
  1 21  1  1  0  0  0
  2  1  1  0  0  0  0
  3  7  1  1  0  0  0
  3  6  1  0  0  0  0
  4 10  1  0  0  0  0
  5  4  1  0  0  0  0
  6  1  1  0  0  0  0
  7  2  1  0  0  0  0
  8 11  1  0  0  0  0
  8  4  2  0  0  0  0
 10  6  1  0  0  0  0
 10  9  2  0  0  0  0
 11 12  1  6  0  0  0
 11  3  1  0  0  0  0
 13 14  1  0  0  0  0
 13 18  1  0  0  0  0
 14 15  2  0  0  0  0
 15 17  1  0  0  0  0
 16 12  1  6  0  0  0
 17 16  1  0  0  0  0
 18 20  1  1  0  0  0
 18 16  1  0  0  0  0
 20 19  1  0  0  0  0
 21 23  1  0  0  0  0
 23 24  2  0  0  0  0
 23 27  1  0  0  0  0
 24 25  1  0  0  0  0
 25 22  2  0  0  0  0
 26 22  1  0  0  0  0
 27 26  2  0  0  0  0
M  END
>  <MODEL>
6

>  <REMARK>
 VINA RESULT:      -8.0      1.454      7.705
  Name = 
  5 active torsions:
  status: ('A' for Active; 'I' for Inactive)
    1  A    between atoms: C_1  and  C_15
    2  A    between atoms: C_9  and  C_15
    3  A    between atoms: C_12  and  C_14
    4  A    between atoms: C_12  and  C_26
    5  A    between atoms: C_17  and  C_21
                            x       y       z     vdW  Elec       q    Type
                         _______ _______ _______ _____ _____    ______ ____

>  <TORSDO>
F 5

$$$$
=
 OpenBabel10262420153D

 27 30  0  0  1  0  0  0  0  0999 V2000
  190.0770  177.4090  138.3330 C   0  0  2  0  0  3  0  0  0  0  0  0
  191.0170  176.5430  138.9230 O   0  0  0  0  0  0  0  0  0  0  0  0
  189.3320  176.6400  140.3520 C   0  0  1  0  0  3  0  0  0  0  0  0
  187.1260  178.5290  140.4490 C   0  0  0  0  0  0  0  0  0  0  0  0
  185.9020  179.1860  140.4570 O   0  0  0  0  0  1  0  0  0  0  0  0
  188.9340  177.3820  139.1910 N   0  0  0  0  0  0  0  0  0  0  0  0
  190.7230  176.4670  140.2270 O   0  0  0  0  0  0  0  0  0  0  0  0
  187.6420  178.0620  141.5880 C   0  0  0  0  0  3  0  0  0  0  0  0
  187.5270  178.9320  138.1420 O   0  0  0  0  0  0  0  0  0  0  0  0
  187.8520  178.3170  139.1920 C   0  0  0  0  0  0  0  0  0  0  0  0
  189.0090  177.4250  141.6380 C   0  0  1  0  0  3  0  0  0  0  0  0
  189.0970  176.5260  142.8640 C   0  0  0  0  0  2  0  0  0  0  0  0
  190.6780  176.8170  146.2700 C   0  0  0  0  0  2  0  0  0  0  0  0
  189.6550  177.6850  146.9490 C   0  0  0  0  0  3  0  0  0  0  0  0
  188.4440  177.8220  146.4010 C   0  0  0  0  0  3  0  0  0  0  0  0
  189.3060  177.3390  144.1320 C   0  0  1  0  0  3  0  0  0  0  0  0
  188.1440  177.1220  145.1100 C   0  0  0  0  0  2  0  0  0  0  0  0
  190.6880  177.0170  144.7400 C   0  0  1  0  0  3  0  0  0  0  0  0
  190.9340  179.3770  143.9680 C   0  0  0  0  0  1  0  0  0  0  0  0
  191.6720  178.1070  144.3470 C   0  0  0  0  0  2  0  0  0  0  0  0
  189.7240  176.9330  136.9210 C   0  0  0  0  0  2  0  0  0  0  0  0
  187.8150  173.0870  136.8430 C   0  0  0  0  0  3  0  0  0  0  0  0
  189.0580  175.5930  136.9080 C   0  0  0  0  0  0  0  0  0  0  0  0
  187.6620  175.5030  136.9030 C   0  0  0  0  0  3  0  0  0  0  0  0
  187.0400  174.2500  136.8710 C   0  0  0  0  0  3  0  0  0  0  0  0
  189.2100  173.1760  136.8470 C   0  0  0  0  0  3  0  0  0  0  0  0
  189.8310  174.4270  136.8780 C   0  0  0  0  0  3  0  0  0  0  0  0
  1 21  1  6  0  0  0
  1  2  1  0  0  0  0
  1  6  1  0  0  0  0
  2  7  1  0  0  0  0
  3  7  1  6  0  0  0
  3 11  1  0  0  0  0
  4  5  1  0  0  0  0
  4  8  2  0  0  0  0
  6 10  1  0  0  0  0
  6  3  1  0  0  0  0
  8 11  1  0  0  0  0
  9 10  2  0  0  0  0
 10  4  1  0  0  0  0
 11 12  1  1  0  0  0
 13 14  1  0  0  0  0
 15 14  2  0  0  0  0
 16 12  1  6  0  0  0
 16 18  1  0  0  0  0
 16 17  1  0  0  0  0
 17 15  1  0  0  0  0
 18 20  1  1  0  0  0
 18 13  1  0  0  0  0
 19 20  1  0  0  0  0
 22 26  2  0  0  0  0
 22 25  1  0  0  0  0
 23 21  1  0  0  0  0
 24 23  1  0  0  0  0
 25 24  2  0  0  0  0
 26 27  1  0  0  0  0
 27 23  2  0  0  0  0
M  END
>  <MODEL>
7

>  <REMARK>
 VINA RESULT:      -8.0      1.807      2.700
  Name = 
  5 active torsions:
  status: ('A' for Active; 'I' for Inactive)
    1  A    between atoms: C_1  and  C_15
    2  A    between atoms: C_9  and  C_15
    3  A    between atoms: C_12  and  C_14
    4  A    between atoms: C_12  and  C_26
    5  A    between atoms: C_17  and  C_21
                            x       y       z     vdW  Elec       q    Type
                         _______ _______ _______ _____ _____    ______ ____

>  <TORSDO>
F 5

$$$$
=
 OpenBabel10262420153D

 27 30  0  0  1  0  0  0  0  0999 V2000
  186.9220  177.5040  144.6730 C   0  0  2  0  0  3  0  0  0  0  0  0
  187.8110  177.3840  143.5890 O   0  0  0  0  0  0  0  0  0  0  0  0
  186.1000  178.5530  142.8180 C   0  0  1  0  0  3  0  0  0  0  0  0
  183.4620  178.9160  143.9820 C   0  0  0  0  0  0  0  0  0  0  0  0
  182.2780  179.3810  144.5410 O   0  0  0  0  0  1  0  0  0  0  0  0
  185.8710  178.3600  144.2200 N   0  0  0  0  0  0  0  0  0  0  0  0
  187.1140  177.6410  142.4750 O   0  0  0  0  0  0  0  0  0  0  0  0
  183.5900  178.8370  142.6560 C   0  0  0  0  0  3  0  0  0  0  0  0
  184.4430  178.3710  146.0760 O   0  0  0  0  0  0  0  0  0  0  0  0
  184.5920  178.5340  144.8360 C   0  0  0  0  0  0  0  0  0  0  0  0
  184.8230  178.2520  142.0100 C   0  0  1  0  0  3  0  0  0  0  0  0
  184.9390  178.7790  140.5870 C   0  0  0  0  0  2  0  0  0  0  0  0
  182.8410  177.8190  137.6090 C   0  0  0  0  0  2  0  0  0  0  0  0
  181.8500  178.9500  137.6250 C   0  0  0  0  0  3  0  0  0  0  0  0
  182.1170  180.0470  138.3390 C   0  0  0  0  0  3  0  0  0  0  0  0
  183.5860  178.8000  139.8920 C   0  0  1  0  0  3  0  0  0  0  0  0
  183.3930  180.1130  139.1240 C   0  0  0  0  0  2  0  0  0  0  0  0
  183.4310  177.5440  139.0080 C   0  0  1  0  0  3  0  0  0  0  0  0
  182.1340  175.4210  138.8000 C   0  0  0  0  0  1  0  0  0  0  0  0
  182.5970  176.5110  139.7500 C   0  0  0  0  0  2  0  0  0  0  0  0
  187.6380  178.0980  145.8900 C   0  0  0  0  0  2  0  0  0  0  0  0
  191.6790  176.6900  146.2560 C   0  0  0  0  0  3  0  0  0  0  0  0
  189.0490  177.6190  146.0260 C   0  0  0  0  0  0  0  0  0  0  0  0
  189.4240  176.8410  147.1270 C   0  0  0  0  0  3  0  0  0  0  0  0
  190.7390  176.3780  147.2430 C   0  0  0  0  0  3  0  0  0  0  0  0
  191.3050  177.4650  145.1540 C   0  0  0  0  0  3  0  0  0  0  0  0
  189.9920  177.9290  145.0390 C   0  0  0  0  0  3  0  0  0  0  0  0
  1 21  1  1  0  0  0
  2  1  1  0  0  0  0
  3  7  1  6  0  0  0
  3  6  1  0  0  0  0
  4  5  1  0  0  0  0
  4 10  1  0  0  0  0
  6  1  1  0  0  0  0
  6 10  1  0  0  0  0
  7  2  1  0  0  0  0
  8  4  2  0  0  0  0
 10  9  2  0  0  0  0
 11 12  1  6  0  0  0
 11  8  1  0  0  0  0
 11  3  1  0  0  0  0
 13 14  1  0  0  0  0
 13 18  1  0  0  0  0
 14 15  2  0  0  0  0
 15 17  1  0  0  0  0
 16 12  1  6  0  0  0
 17 16  1  0  0  0  0
 18 20  1  1  0  0  0
 18 16  1  0  0  0  0
 19 20  1  0  0  0  0
 21 23  1  0  0  0  0
 22 25  1  0  0  0  0
 23 24  1  0  0  0  0
 24 25  2  0  0  0  0
 26 22  2  0  0  0  0
 27 26  1  0  0  0  0
 27 23  2  0  0  0  0
M  END
>  <MODEL>
8

>  <REMARK>
 VINA RESULT:      -7.9      4.517      7.794
  Name = 
  5 active torsions:
  status: ('A' for Active; 'I' for Inactive)
    1  A    between atoms: C_1  and  C_15
    2  A    between atoms: C_9  and  C_15
    3  A    between atoms: C_12  and  C_14
    4  A    between atoms: C_12  and  C_26
    5  A    between atoms: C_17  and  C_21
                            x       y       z     vdW  Elec       q    Type
                         _______ _______ _______ _____ _____    ______ ____

>  <TORSDO>
F 5

$$$$
=
 OpenBabel10262420153D

 27 30  0  0  1  0  0  0  0  0999 V2000
  186.6430  178.1460  144.3310 C   0  0  2  0  0  3  0  0  0  0  0  0
  185.4110  178.0460  145.0030 O   0  0  0  0  0  0  0  0  0  0  0  0
  184.9160  177.9370  142.8500 C   0  0  1  0  0  3  0  0  0  0  0  0
  186.5770  178.6000  140.5590 C   0  0  0  0  0  0  0  0  0  0  0  0
  187.3290  178.6280  139.3920 O   0  0  0  0  0  1  0  0  0  0  0  0
  186.3470  177.9550  142.9460 N   0  0  0  0  0  0  0  0  0  0  0  0
  184.4510  178.3380  144.1160 O   0  0  0  0  0  0  0  0  0  0  0  0
  185.2660  178.8520  140.5160 C   0  0  0  0  0  3  0  0  0  0  0  0
  188.4550  178.2540  141.9720 O   0  0  0  0  0  0  0  0  0  0  0  0
  187.2020  178.2690  141.8440 C   0  0  0  0  0  0  0  0  0  0  0  0
  184.4300  178.9230  141.7710 C   0  0  1  0  0  3  0  0  0  0  0  0
  182.9720  178.6680  141.4140 C   0  0  0  0  0  2  0  0  0  0  0  0
  180.7650  178.3440  138.3780 C   0  0  0  0  0  2  0  0  0  0  0  0
  181.4270  177.1700  137.7110 C   0  0  0  0  0  3  0  0  0  0  0  0
  182.2710  176.4070  138.4120 C   0  0  0  0  0  3  0  0  0  0  0  0
  182.8220  178.2600  139.9560 C   0  0  1  0  0  3  0  0  0  0  0  0
  182.5520  176.7540  139.8430 C   0  0  0  0  0  2  0  0  0  0  0  0
  181.7430  179.1300  139.2760 C   0  0  1  0  0  3  0  0  0  0  0  0
  181.4940  181.4320  138.3460 C   0  0  0  0  0  1  0  0  0  0  0  0
  182.4220  180.2400  138.4890 C   0  0  0  0  0  2  0  0  0  0  0  0
  187.6200  177.0830  144.8430 C   0  0  0  0  0  2  0  0  0  0  0  0
  189.2970  178.0270  148.6830 C   0  0  0  0  0  3  0  0  0  0  0  0
  188.2060  177.4250  146.1770 C   0  0  0  0  0  0  0  0  0  0  0  0
  187.3930  177.9490  147.1880 C   0  0  0  0  0  3  0  0  0  0  0  0
  187.9380  178.2510  148.4400 C   0  0  0  0  0  3  0  0  0  0  0  0
  190.1100  177.5030  147.6730 C   0  0  0  0  0  3  0  0  0  0  0  0
  189.5660  177.2010  146.4220 C   0  0  0  0  0  3  0  0  0  0  0  0
  1 21  1  1  0  0  0
  1  2  1  0  0  0  0
  3  6  1  0  0  0  0
  3  7  1  1  0  0  0
  4 10  1  0  0  0  0
  5  4  1  0  0  0  0
  6  1  1  0  0  0  0
  7  2  1  0  0  0  0
  8  4  2  0  0  0  0
  8 11  1  0  0  0  0
 10  9  2  0  0  0  0
 10  6  1  0  0  0  0
 11 12  1  6  0  0  0
 11  3  1  0  0  0  0
 13 18  1  0  0  0  0
 14 13  1  0  0  0  0
 14 15  2  0  0  0  0
 15 17  1  0  0  0  0
 16 12  1  1  0  0  0
 17 16  1  0  0  0  0
 18 20  1  6  0  0  0
 18 16  1  0  0  0  0
 19 20  1  0  0  0  0
 21 23  1  0  0  0  0
 23 27  2  0  0  0  0
 23 24  1  0  0  0  0
 24 25  2  0  0  0  0
 25 22  1  0  0  0  0
 26 22  2  0  0  0  0
 27 26  1  0  0  0  0
M  END
>  <MODEL>
9

>  <REMARK>
 VINA RESULT:      -7.9      3.955      8.355
  Name = 
  5 active torsions:
  status: ('A' for Active; 'I' for Inactive)
    1  A    between atoms: C_1  and  C_15
    2  A    between atoms: C_9  and  C_15
    3  A    between atoms: C_12  and  C_14
    4  A    between atoms: C_12  and  C_26
    5  A    between atoms: C_17  and  C_21
                            x       y       z     vdW  Elec       q    Type
                         _______ _______ _______ _____ _____    ______ ____

>  <TORSDO>
F 5

$$$$
