=
 OpenBabel10262419543D

 25 27  0  0  0  0  0  0  0  0999 V2000
  190.9370  176.4760  145.3950 N   0  0  0  0  0  0  0  0  0  0  0  0
  189.7190  176.9720  145.6490 C   0  0  0  0  0  0  0  0  0  0  0  0
  191.5690  176.5080  146.5970 C   0  0  0  0  0  3  0  0  0  0  0  0
  190.7890  177.0260  147.5880 N   0  0  0  0  0  0  0  0  0  0  0  0
  188.4470  177.8050  147.4980 C   0  0  0  0  0  0  0  0  0  0  0  0
  188.3280  178.1700  148.9360 C   0  0  0  0  0  1  0  0  0  0  0  0
  188.6640  177.0650  144.7990 N   0  0  0  0  0  0  0  0  0  0  0  0
  191.4600  175.9250  144.1760 C   0  0  0  0  0  0  0  0  0  0  0  0
  192.2640  174.9550  144.2390 O   0  0  0  0  0  0  0  0  0  0  0  0
  187.3490  177.9340  146.6300 C   0  0  0  0  0  3  0  0  0  0  0  0
  187.4790  177.5600  145.2710 C   0  0  0  0  0  0  0  0  0  0  0  0
  189.6310  177.3060  146.9610 C   0  0  0  0  0  0  0  0  0  0  0  0
  191.1060  176.4810  142.8540 C   0  0  0  0  0  0  0  0  0  0  0  0
  190.4490  177.4600  140.3450 N   0  0  0  0  0  0  0  0  0  0  0  0
  189.8730  176.1660  142.2680 C   0  0  0  0  0  3  0  0  0  0  0  0
  189.5580  176.6740  141.0060 C   0  0  0  0  0  3  0  0  0  0  0  0
  191.6580  177.7700  140.8840 C   0  0  0  0  0  3  0  0  0  0  0  0
  192.0100  177.2820  142.1440 C   0  0  0  0  0  3  0  0  0  0  0  0
  186.3090  177.6690  144.3590 C   0  0  0  0  0  2  0  0  0  0  0  0
  185.3530  178.7320  144.8690 C   0  0  0  0  0  2  0  0  0  0  0  0
  184.4110  179.1290  143.7860 C   0  0  0  0  0  0  0  0  0  0  0  0
  183.3300  179.7040  144.0860 O   0  0  0  0  0  0  0  0  0  0  0  0
  184.7230  178.8280  142.3840 C   0  0  0  0  0  0  0  0  0  0  0  0
  184.2400  177.7010  141.8050 F   0  0  0  0  0  0  0  0  0  0  0  0
  185.4400  179.6120  141.7100 O   0  0  0  0  0  0  0  0  0  0  0  0
  1  2  1  0  0  0  0
  1  3  1  0  0  0  0
  2 12  1  0  0  0  0
  3  4  2  0  0  0  0
  5  6  1  0  0  0  0
  7 11  1  0  0  0  0
  7  2  2  0  0  0  0
  8  9  2  0  0  0  0
  8  1  1  0  0  0  0
 10  5  1  0  0  0  0
 11 10  2  0  0  0  0
 12  5  2  0  0  0  0
 12  4  1  0  0  0  0
 13  8  1  0  0  0  0
 14 17  2  0  0  0  0
 14 16  1  0  0  0  0
 15 13  1  0  0  0  0
 16 15  2  0  0  0  0
 17 18  1  0  0  0  0
 18 13  2  0  0  0  0
 19 20  1  0  0  0  0
 19 11  1  0  0  0  0
 21 22  2  0  0  0  0
 21 20  1  0  0  0  0
 23 21  1  0  0  0  0
 24 23  1  0  0  0  0
 25 23  2  0  0  0  0
M  END
>  <MODEL>
1

>  <REMARK>
 VINA RESULT:      -8.8      0.000      0.000
  Name = 
  5 active torsions:
  status: ('A' for Active; 'I' for Inactive)
    1  A    between atoms: C_2  and  C_21
    2  A    between atoms: C_5  and  C_18
    3  A    between atoms: C_6  and  C_15
    4  A    between atoms: C_6  and  C_23
    5  A    between atoms: C_15  and  C_21
                            x       y       z     vdW  Elec       q    Type
                         _______ _______ _______ _____ _____    ______ ____

>  <TORSDO>
F 5

$$$$
=
 OpenBabel10262419543D

 25 27  0  0  0  0  0  0  0  0999 V2000
  187.3760  178.0500  146.6380 N   0  0  0  0  0  0  0  0  0  0  0  0
  188.3630  177.8090  145.7640 C   0  0  0  0  0  0  0  0  0  0  0  0
  187.8560  177.5850  147.8210 C   0  0  0  0  0  3  0  0  0  0  0  0
  189.1030  177.0460  147.7080 N   0  0  0  0  0  0  0  0  0  0  0  0
  190.5700  176.8860  145.7280 C   0  0  0  0  0  0  0  0  0  0  0  0
  191.7170  176.2280  146.4120 C   0  0  0  0  0  1  0  0  0  0  0  0
  188.4240  178.1720  144.4570 N   0  0  0  0  0  0  0  0  0  0  0  0
  186.1300  178.7350  146.4380 C   0  0  0  0  0  0  0  0  0  0  0  0
  185.6650  179.4440  147.3720 O   0  0  0  0  0  0  0  0  0  0  0  0
  190.6460  177.2280  144.3660 C   0  0  0  0  0  3  0  0  0  0  0  0
  189.5520  177.8730  143.7420 C   0  0  0  0  0  0  0  0  0  0  0  0
  189.3950  177.2040  146.4030 C   0  0  0  0  0  0  0  0  0  0  0  0
  185.3630  178.6090  145.1820 C   0  0  0  0  0  0  0  0  0  0  0  0
  183.8850  178.3190  142.8550 N   0  0  0  0  0  0  0  0  0  0  0  0
  184.0260  179.0260  145.1310 C   0  0  0  0  0  3  0  0  0  0  0  0
  183.3000  178.8780  143.9480 C   0  0  0  0  0  3  0  0  0  0  0  0
  185.1760  177.8930  142.8800 C   0  0  0  0  0  3  0  0  0  0  0  0
  185.9340  178.0250  144.0450 C   0  0  0  0  0  3  0  0  0  0  0  0
  189.6430  178.2620  142.3090 C   0  0  0  0  0  2  0  0  0  0  0  0
  188.6670  177.4410  141.4870 C   0  0  0  0  0  2  0  0  0  0  0  0
  188.2700  178.1950  140.2660 C   0  0  0  0  0  0  0  0  0  0  0  0
  187.0940  178.6340  140.1640 O   0  0  0  0  0  0  0  0  0  0  0  0
  189.2320  178.4030  139.1770 C   0  0  0  0  0  0  0  0  0  0  0  0
  190.3610  177.6530  139.1120 F   0  0  0  0  0  0  0  0  0  0  0  0
  189.0190  179.2770  138.2980 O   0  0  0  0  0  0  0  0  0  0  0  0
  1  3  1  0  0  0  0
  2 12  1  0  0  0  0
  2  1  1  0  0  0  0
  4  3  2  0  0  0  0
  5 12  2  0  0  0  0
  5  6  1  0  0  0  0
  7  2  2  0  0  0  0
  8  1  1  0  0  0  0
  8  9  2  0  0  0  0
 10  5  1  0  0  0  0
 11 10  2  0  0  0  0
 11  7  1  0  0  0  0
 12  4  1  0  0  0  0
 13  8  1  0  0  0  0
 14 17  2  0  0  0  0
 14 16  1  0  0  0  0
 15 13  1  0  0  0  0
 16 15  2  0  0  0  0
 17 18  1  0  0  0  0
 18 13  2  0  0  0  0
 19 11  1  0  0  0  0
 20 19  1  0  0  0  0
 21 20  1  0  0  0  0
 22 21  2  0  0  0  0
 23 21  1  0  0  0  0
 24 23  1  0  0  0  0
 25 23  2  0  0  0  0
M  END
>  <MODEL>
2

>  <REMARK>
 VINA RESULT:      -8.4      2.772      5.256
  Name = 
  5 active torsions:
  status: ('A' for Active; 'I' for Inactive)
    1  A    between atoms: C_2  and  C_21
    2  A    between atoms: C_5  and  C_18
    3  A    between atoms: C_6  and  C_15
    4  A    between atoms: C_6  and  C_23
    5  A    between atoms: C_15  and  C_21
                            x       y       z     vdW  Elec       q    Type
                         _______ _______ _______ _____ _____    ______ ____

>  <TORSDO>
F 5

$$$$
=
 OpenBabel10262419543D

 25 27  0  0  0  0  0  0  0  0999 V2000
  187.7240  177.6890  146.0120 N   0  0  0  0  0  0  0  0  0  0  0  0
  186.9570  177.9900  144.9560 C   0  0  0  0  0  0  0  0  0  0  0  0
  186.9170  177.9050  147.0840 C   0  0  0  0  0  3  0  0  0  0  0  0
  185.6790  178.3500  146.7290 N   0  0  0  0  0  0  0  0  0  0  0  0
  184.7290  178.7200  144.4800 C   0  0  0  0  0  0  0  0  0  0  0  0
  183.3780  179.1550  144.9280 C   0  0  0  0  0  1  0  0  0  0  0  0
  187.2610  177.8500  143.6400 N   0  0  0  0  0  0  0  0  0  0  0  0
  189.0560  177.1530  146.0480 C   0  0  0  0  0  0  0  0  0  0  0  0
  189.3630  176.3370  146.9600 O   0  0  0  0  0  0  0  0  0  0  0  0
  185.0290  178.6070  143.1110 C   0  0  0  0  0  3  0  0  0  0  0  0
  186.3130  178.1700  142.7060 C   0  0  0  0  0  0  0  0  0  0  0  0
  185.7350  178.3910  145.3840 C   0  0  0  0  0  0  0  0  0  0  0  0
  190.0840  177.5530  145.0650 C   0  0  0  0  0  0  0  0  0  0  0  0
  191.9630  178.3360  143.1840 N   0  0  0  0  0  0  0  0  0  0  0  0
  190.4760  178.8940  144.9670 C   0  0  0  0  0  3  0  0  0  0  0  0
  191.4290  179.2690  144.0170 C   0  0  0  0  0  3  0  0  0  0  0  0
  191.5910  177.0310  143.2470 C   0  0  0  0  0  3  0  0  0  0  0  0
  190.6420  176.6180  144.1850 C   0  0  0  0  0  3  0  0  0  0  0  0
  186.6220  178.0220  141.2590 C   0  0  0  0  0  2  0  0  0  0  0  0
  188.1130  178.1900  141.0290 C   0  0  0  0  0  2  0  0  0  0  0  0
  188.4000  178.2260  139.5680 C   0  0  0  0  0  0  0  0  0  0  0  0
  187.4890  178.5680  138.7660 O   0  0  0  0  0  0  0  0  0  0  0  0
  189.7220  177.8410  139.0620 C   0  0  0  0  0  0  0  0  0  0  0  0
  190.7810  177.7690  139.9060 F   0  0  0  0  0  0  0  0  0  0  0  0
  189.8840  177.5760  137.8420 O   0  0  0  0  0  0  0  0  0  0  0  0
  1  8  1  0  0  0  0
  1  3  1  0  0  0  0
  2 12  1  0  0  0  0
  2  1  1  0  0  0  0
  4  3  2  0  0  0  0
  5  6  1  0  0  0  0
  5 12  2  0  0  0  0
  7  2  2  0  0  0  0
  8  9  2  0  0  0  0
 10  5  1  0  0  0  0
 11 10  2  0  0  0  0
 11  7  1  0  0  0  0
 12  4  1  0  0  0  0
 13  8  1  0  0  0  0
 14 17  2  0  0  0  0
 14 16  1  0  0  0  0
 15 13  1  0  0  0  0
 16 15  2  0  0  0  0
 17 18  1  0  0  0  0
 18 13  2  0  0  0  0
 19 11  1  0  0  0  0
 20 19  1  0  0  0  0
 21 20  1  0  0  0  0
 22 21  2  0  0  0  0
 23 21  1  0  0  0  0
 23 24  1  0  0  0  0
 25 23  2  0  0  0  0
M  END
>  <MODEL>
3

>  <REMARK>
 VINA RESULT:      -8.3      2.815      4.553
  Name = 
  5 active torsions:
  status: ('A' for Active; 'I' for Inactive)
    1  A    between atoms: C_2  and  C_21
    2  A    between atoms: C_5  and  C_18
    3  A    between atoms: C_6  and  C_15
    4  A    between atoms: C_6  and  C_23
    5  A    between atoms: C_15  and  C_21
                            x       y       z     vdW  Elec       q    Type
                         _______ _______ _______ _____ _____    ______ ____

>  <TORSDO>
F 5

$$$$
=
 OpenBabel10262419543D

 25 27  0  0  0  0  0  0  0  0999 V2000
  186.3440  178.5770  141.8350 N   0  0  0  0  0  0  0  0  0  0  0  0
  185.7570  178.5790  143.0400 C   0  0  0  0  0  0  0  0  0  0  0  0
  185.3110  178.6790  140.9590 C   0  0  0  0  0  3  0  0  0  0  0  0
  184.0990  178.7260  141.5790 N   0  0  0  0  0  0  0  0  0  0  0  0
  183.5670  178.7310  143.9900 C   0  0  0  0  0  0  0  0  0  0  0  0
  182.0890  178.8310  143.8450 C   0  0  0  0  0  1  0  0  0  0  0  0
  186.3570  178.5930  144.2580 N   0  0  0  0  0  0  0  0  0  0  0  0
  187.7420  178.5780  141.5030 C   0  0  0  0  0  0  0  0  0  0  0  0
  188.1290  179.2230  140.4910 O   0  0  0  0  0  0  0  0  0  0  0  0
  184.1640  178.7200  145.2630 C   0  0  0  0  0  3  0  0  0  0  0  0
  185.5730  178.6460  145.3780 C   0  0  0  0  0  0  0  0  0  0  0  0
  184.4130  178.6630  142.8870 C   0  0  0  0  0  0  0  0  0  0  0  0
  188.7320  177.8210  142.2960 C   0  0  0  0  0  0  0  0  0  0  0  0
  190.5410  176.3860  143.8300 N   0  0  0  0  0  0  0  0  0  0  0  0
  188.6590  176.4240  142.3600 C   0  0  0  0  0  3  0  0  0  0  0  0
  189.5830  175.7180  143.1330 C   0  0  0  0  0  3  0  0  0  0  0  0
  190.6270  177.7420  143.7970 C   0  0  0  0  0  3  0  0  0  0  0  0
  189.7210  178.4830  143.0340 C   0  0  0  0  0  3  0  0  0  0  0  0
  186.2070  178.6640  146.7230 C   0  0  0  0  0  2  0  0  0  0  0  0
  187.2730  177.5880  146.8070 C   0  0  0  0  0  2  0  0  0  0  0  0
  188.0780  177.7660  148.0470 C   0  0  0  0  0  0  0  0  0  0  0  0
  187.4940  178.0250  149.1330 O   0  0  0  0  0  0  0  0  0  0  0  0
  189.5420  177.6680  148.0020 C   0  0  0  0  0  0  0  0  0  0  0  0
  190.3010  178.4010  148.8550 F   0  0  0  0  0  0  0  0  0  0  0  0
  190.1030  176.9050  147.1730 O   0  0  0  0  0  0  0  0  0  0  0  0
  1  2  1  0  0  0  0
  2  7  1  0  0  0  0
  3  4  2  0  0  0  0
  3  1  1  0  0  0  0
  4 12  1  0  0  0  0
  5 10  2  0  0  0  0
  6  5  1  0  0  0  0
  7 11  2  0  0  0  0
  8  1  1  0  0  0  0
  8 13  1  0  0  0  0
  9  8  2  0  0  0  0
 10 11  1  0  0  0  0
 11 19  1  0  0  0  0
 12  2  2  0  0  0  0
 12  5  1  0  0  0  0
 13 15  2  0  0  0  0
 13 18  1  0  0  0  0
 15 16  1  0  0  0  0
 16 14  2  0  0  0  0
 17 14  1  0  0  0  0
 18 17  2  0  0  0  0
 19 20  1  0  0  0  0
 20 21  1  0  0  0  0
 21 22  2  0  0  0  0
 23 21  1  0  0  0  0
 23 24  1  0  0  0  0
 25 23  2  0  0  0  0
M  END
>  <MODEL>
4

>  <REMARK>
 VINA RESULT:      -8.3      3.212      5.709
  Name = 
  5 active torsions:
  status: ('A' for Active; 'I' for Inactive)
    1  A    between atoms: C_2  and  C_21
    2  A    between atoms: C_5  and  C_18
    3  A    between atoms: C_6  and  C_15
    4  A    between atoms: C_6  and  C_23
    5  A    between atoms: C_15  and  C_21
                            x       y       z     vdW  Elec       q    Type
                         _______ _______ _______ _____ _____    ______ ____

>  <TORSDO>
F 5

$$$$
=
 OpenBabel10262419543D

 25 27  0  0  0  0  0  0  0  0999 V2000
  187.2410  178.0680  146.8380 N   0  0  0  0  0  0  0  0  0  0  0  0
  188.2940  177.7780  146.0610 C   0  0  0  0  0  0  0  0  0  0  0  0
  187.6170  177.6580  148.0780 C   0  0  0  0  0  3  0  0  0  0  0  0
  188.8620  177.1050  148.0940 N   0  0  0  0  0  0  0  0  0  0  0  0
  190.4860  176.8380  146.2530 C   0  0  0  0  0  0  0  0  0  0  0  0
  191.5650  176.2060  147.0600 C   0  0  0  0  0  1  0  0  0  0  0  0
  188.4670  178.0760  144.7480 N   0  0  0  0  0  0  0  0  0  0  0  0
  186.0230  178.7520  146.5030 C   0  0  0  0  0  0  0  0  0  0  0  0
  185.4920  179.5090  147.3610 O   0  0  0  0  0  0  0  0  0  0  0  0
  190.6780  177.1130  144.8870 C   0  0  0  0  0  3  0  0  0  0  0  0
  189.6460  177.7350  144.1440 C   0  0  0  0  0  0  0  0  0  0  0  0
  189.2630  177.1970  146.8120 C   0  0  0  0  0  0  0  0  0  0  0  0
  185.3610  178.5700  145.1960 C   0  0  0  0  0  0  0  0  0  0  0  0
  184.1580  178.2800  142.7150 N   0  0  0  0  0  0  0  0  0  0  0  0
  186.0620  177.9950  144.1280 C   0  0  0  0  0  3  0  0  0  0  0  0
  185.4380  177.8520  142.8870 C   0  0  0  0  0  3  0  0  0  0  0  0
  183.4590  178.8540  143.7290 C   0  0  0  0  0  3  0  0  0  0  0  0
  184.0490  179.0140  144.9850 C   0  0  0  0  0  3  0  0  0  0  0  0
  189.8590  178.0540  142.7070 C   0  0  0  0  0  2  0  0  0  0  0  0
  188.9780  177.1680  141.8450 C   0  0  0  0  0  2  0  0  0  0  0  0
  189.3170  177.3610  140.4070 C   0  0  0  0  0  0  0  0  0  0  0  0
  190.2340  176.6690  139.8890 O   0  0  0  0  0  0  0  0  0  0  0  0
  188.6100  178.3670  139.6070 C   0  0  0  0  0  0  0  0  0  0  0  0
  189.2790  179.0910  138.6760 F   0  0  0  0  0  0  0  0  0  0  0  0
  187.3790  178.5660  139.7790 O   0  0  0  0  0  0  0  0  0  0  0  0
  1  3  1  0  0  0  0
  2 12  1  0  0  0  0
  2  1  1  0  0  0  0
  3  4  2  0  0  0  0
  5 12  2  0  0  0  0
  5  6  1  0  0  0  0
  7  2  2  0  0  0  0
  8  1  1  0  0  0  0
  8  9  2  0  0  0  0
 10  5  1  0  0  0  0
 11  7  1  0  0  0  0
 11 10  2  0  0  0  0
 12  4  1  0  0  0  0
 13  8  1  0  0  0  0
 14 16  2  0  0  0  0
 14 17  1  0  0  0  0
 15 13  2  0  0  0  0
 16 15  1  0  0  0  0
 17 18  2  0  0  0  0
 18 13  1  0  0  0  0
 19 11  1  0  0  0  0
 20 19  1  0  0  0  0
 21 20  1  0  0  0  0
 22 21  2  0  0  0  0
 23 25  2  0  0  0  0
 23 21  1  0  0  0  0
 24 23  1  0  0  0  0
M  END
>  <MODEL>
5

>  <REMARK>
 VINA RESULT:      -8.3      2.493      5.348
  Name = 
  5 active torsions:
  status: ('A' for Active; 'I' for Inactive)
    1  A    between atoms: C_2  and  C_21
    2  A    between atoms: C_5  and  C_18
    3  A    between atoms: C_6  and  C_15
    4  A    between atoms: C_6  and  C_23
    5  A    between atoms: C_15  and  C_21
                            x       y       z     vdW  Elec       q    Type
                         _______ _______ _______ _____ _____    ______ ____

>  <TORSDO>
F 5

$$$$
=
 OpenBabel10262419543D

 25 27  0  0  0  0  0  0  0  0999 V2000
  186.0940  178.4430  142.4930 N   0  0  0  0  0  0  0  0  0  0  0  0
  187.2950  177.9390  142.1790 C   0  0  0  0  0  0  0  0  0  0  0  0
  185.6910  179.0790  141.3620 C   0  0  0  0  0  3  0  0  0  0  0  0
  186.6120  179.0030  140.3600 N   0  0  0  0  0  0  0  0  0  0  0  0
  188.7890  177.8380  140.3130 C   0  0  0  0  0  0  0  0  0  0  0  0
  189.1490  178.1920  138.9130 C   0  0  0  0  0  1  0  0  0  0  0  0
  188.0820  177.1320  142.9350 N   0  0  0  0  0  0  0  0  0  0  0  0
  185.3240  178.2820  143.6950 C   0  0  0  0  0  0  0  0  0  0  0  0
  184.0680  178.2070  143.6110 O   0  0  0  0  0  0  0  0  0  0  0  0
  189.6330  177.0220  141.0870 C   0  0  0  0  0  3  0  0  0  0  0  0
  189.2610  176.6800  142.4090 C   0  0  0  0  0  0  0  0  0  0  0  0
  187.6080  178.2780  140.9040 C   0  0  0  0  0  0  0  0  0  0  0  0
  185.9600  178.2310  145.0270 C   0  0  0  0  0  0  0  0  0  0  0  0
  187.1800  178.2010  147.5160 N   0  0  0  0  0  0  0  0  0  0  0  0
  185.4800  179.0420  146.0650 C   0  0  0  0  0  3  0  0  0  0  0  0
  186.1050  179.0080  147.3130 C   0  0  0  0  0  3  0  0  0  0  0  0
  187.6740  177.4140  146.5240 C   0  0  0  0  0  3  0  0  0  0  0  0
  187.0770  177.4200  145.2620 C   0  0  0  0  0  3  0  0  0  0  0  0
  190.1390  175.7930  143.2170 C   0  0  0  0  0  2  0  0  0  0  0  0
  191.3970  176.5390  143.6220 C   0  0  0  0  0  2  0  0  0  0  0  0
  191.2250  177.1270  144.9790 C   0  0  0  0  0  0  0  0  0  0  0  0
  190.7040  178.2680  145.0990 O   0  0  0  0  0  0  0  0  0  0  0  0
  191.6820  176.3960  146.1670 C   0  0  0  0  0  0  0  0  0  0  0  0
  192.3870  175.2460  146.0310 F   0  0  0  0  0  0  0  0  0  0  0  0
  191.4220  176.8310  147.3200 O   0  0  0  0  0  0  0  0  0  0  0  0
  1  8  1  0  0  0  0
  2  1  1  0  0  0  0
  2  7  1  0  0  0  0
  3  1  1  0  0  0  0
  4 12  1  0  0  0  0
  4  3  2  0  0  0  0
  5 12  1  0  0  0  0
  5 10  2  0  0  0  0
  6  5  1  0  0  0  0
  8 13  1  0  0  0  0
  9  8  2  0  0  0  0
 10 11  1  0  0  0  0
 11  7  2  0  0  0  0
 11 19  1  0  0  0  0
 12  2  2  0  0  0  0
 13 18  2  0  0  0  0
 13 15  1  0  0  0  0
 15 16  2  0  0  0  0
 16 14  1  0  0  0  0
 17 14  2  0  0  0  0
 18 17  1  0  0  0  0
 19 20  1  0  0  0  0
 20 21  1  0  0  0  0
 21 22  2  0  0  0  0
 21 23  1  0  0  0  0
 23 25  2  0  0  0  0
 24 23  1  0  0  0  0
M  END
>  <MODEL>
6

>  <REMARK>
 VINA RESULT:      -8.2      2.847      7.069
  Name = 
  5 active torsions:
  status: ('A' for Active; 'I' for Inactive)
    1  A    between atoms: C_2  and  C_21
    2  A    between atoms: C_5  and  C_18
    3  A    between atoms: C_6  and  C_15
    4  A    between atoms: C_6  and  C_23
    5  A    between atoms: C_15  and  C_21
                            x       y       z     vdW  Elec       q    Type
                         _______ _______ _______ _____ _____    ______ ____

>  <TORSDO>
F 5

$$$$
=
 OpenBabel10262419543D

 25 27  0  0  0  0  0  0  0  0999 V2000
  186.9570  178.0080  146.6610 N   0  0  0  0  0  0  0  0  0  0  0  0
  186.6090  178.1470  145.3740 C   0  0  0  0  0  0  0  0  0  0  0  0
  185.9300  178.5720  147.3490 C   0  0  0  0  0  3  0  0  0  0  0  0
  184.9630  179.0750  146.5310 N   0  0  0  0  0  0  0  0  0  0  0  0
  184.8070  179.0220  144.0660 C   0  0  0  0  0  0  0  0  0  0  0  0
  183.4960  179.7200  143.9580 C   0  0  0  0  0  1  0  0  0  0  0  0
  187.2520  177.6630  144.2810 N   0  0  0  0  0  0  0  0  0  0  0  0
  188.0890  177.3300  147.2300 C   0  0  0  0  0  0  0  0  0  0  0  0
  187.9480  176.7200  148.3250 O   0  0  0  0  0  0  0  0  0  0  0  0
  185.4680  178.5520  142.9180 C   0  0  0  0  0  3  0  0  0  0  0  0
  186.7030  177.8730  143.0460 C   0  0  0  0  0  0  0  0  0  0  0  0
  185.4180  178.7910  145.2960 C   0  0  0  0  0  0  0  0  0  0  0  0
  189.4170  177.3530  146.5850 C   0  0  0  0  0  0  0  0  0  0  0  0
  191.9360  177.4300  145.4300 N   0  0  0  0  0  0  0  0  0  0  0  0
  190.4550  176.5580  147.0880 C   0  0  0  0  0  3  0  0  0  0  0  0
  191.7160  176.6060  146.4890 C   0  0  0  0  0  3  0  0  0  0  0  0
  190.9510  178.2220  144.9300 C   0  0  0  0  0  3  0  0  0  0  0  0
  189.6770  178.2020  145.5020 C   0  0  0  0  0  3  0  0  0  0  0  0
  187.3880  177.3490  141.8340 C   0  0  0  0  0  2  0  0  0  0  0  0
  188.7660  177.9730  141.7090 C   0  0  0  0  0  2  0  0  0  0  0  0
  189.7970  176.9050  141.5870 C   0  0  0  0  0  0  0  0  0  0  0  0
  189.8980  176.0350  142.4930 O   0  0  0  0  0  0  0  0  0  0  0  0
  190.7070  176.8810  140.4370 C   0  0  0  0  0  0  0  0  0  0  0  0
  191.7820  177.7070  140.4000 F   0  0  0  0  0  0  0  0  0  0  0  0
  190.4980  176.0950  139.4760 O   0  0  0  0  0  0  0  0  0  0  0  0
  1  8  1  0  0  0  0
  1  3  1  0  0  0  0
  2  1  1  0  0  0  0
  4  3  2  0  0  0  0
  5 12  2  0  0  0  0
  6  5  1  0  0  0  0
  7  2  2  0  0  0  0
  8  9  2  0  0  0  0
 10 11  2  0  0  0  0
 10  5  1  0  0  0  0
 11  7  1  0  0  0  0
 12  2  1  0  0  0  0
 12  4  1  0  0  0  0
 13 15  1  0  0  0  0
 13  8  1  0  0  0  0
 14 16  1  0  0  0  0
 16 15  2  0  0  0  0
 17 14  2  0  0  0  0
 17 18  1  0  0  0  0
 18 13  2  0  0  0  0
 19 11  1  0  0  0  0
 20 19  1  0  0  0  0
 21 20  1  0  0  0  0
 21 22  2  0  0  0  0
 23 21  1  0  0  0  0
 24 23  1  0  0  0  0
 25 23  2  0  0  0  0
M  END
>  <MODEL>
7

>  <REMARK>
 VINA RESULT:      -8.0      2.930      5.311
  Name = 
  5 active torsions:
  status: ('A' for Active; 'I' for Inactive)
    1  A    between atoms: C_2  and  C_21
    2  A    between atoms: C_5  and  C_18
    3  A    between atoms: C_6  and  C_15
    4  A    between atoms: C_6  and  C_23
    5  A    between atoms: C_15  and  C_21
                            x       y       z     vdW  Elec       q    Type
                         _______ _______ _______ _____ _____    ______ ____

>  <TORSDO>
F 5

$$$$
=
 OpenBabel10262419543D

 25 27  0  0  0  0  0  0  0  0999 V2000
  182.7780  178.7240  142.2160 N   0  0  0  0  0  0  0  0  0  0  0  0
  183.9850  178.4970  142.7520 C   0  0  0  0  0  0  0  0  0  0  0  0
  181.9850  179.0030  143.2830 C   0  0  0  0  0  3  0  0  0  0  0  0
  182.6550  178.9390  144.4680 N   0  0  0  0  0  0  0  0  0  0  0  0
  185.0430  178.4810  144.8980 C   0  0  0  0  0  0  0  0  0  0  0  0
  184.9860  178.6200  146.3790 C   0  0  0  0  0  1  0  0  0  0  0  0
  185.1550  178.2690  142.1020 N   0  0  0  0  0  0  0  0  0  0  0  0
  182.3910  178.7770  140.8340 C   0  0  0  0  0  0  0  0  0  0  0  0
  181.5060  179.6030  140.4780 O   0  0  0  0  0  0  0  0  0  0  0  0
  186.2620  178.2180  144.2480 C   0  0  0  0  0  3  0  0  0  0  0  0
  186.2980  178.1110  142.8380 C   0  0  0  0  0  0  0  0  0  0  0  0
  183.9110  178.6210  144.1010 C   0  0  0  0  0  0  0  0  0  0  0  0
  182.9770  177.8720  139.8240 C   0  0  0  0  0  0  0  0  0  0  0  0
  184.0430  176.2090  137.8800 N   0  0  0  0  0  0  0  0  0  0  0  0
  183.9480  178.3500  138.9340 C   0  0  0  0  0  3  0  0  0  0  0  0
  184.4770  177.4950  137.9650 C   0  0  0  0  0  3  0  0  0  0  0  0
  183.0920  175.7230  138.7210 C   0  0  0  0  0  3  0  0  0  0  0  0
  182.5400  176.5470  139.7040 C   0  0  0  0  0  3  0  0  0  0  0  0
  187.5920  177.8620  142.1480 C   0  0  0  0  0  2  0  0  0  0  0  0
  188.3420  176.7420  142.8430 C   0  0  0  0  0  2  0  0  0  0  0  0
  189.7430  177.1650  143.1210 C   0  0  0  0  0  0  0  0  0  0  0  0
  190.6950  176.5670  142.5500 O   0  0  0  0  0  0  0  0  0  0  0  0
  190.0170  178.2490  144.0710 C   0  0  0  0  0  0  0  0  0  0  0  0
  189.4340  178.2450  145.2960 F   0  0  0  0  0  0  0  0  0  0  0  0
  190.7920  179.1890  143.7570 O   0  0  0  0  0  0  0  0  0  0  0  0
  1  2  1  0  0  0  0
  1  3  1  0  0  0  0
  2 12  1  0  0  0  0
  3  4  2  0  0  0  0
  5  6  1  0  0  0  0
  7  2  2  0  0  0  0
  7 11  1  0  0  0  0
  8  1  1  0  0  0  0
  9  8  2  0  0  0  0
 10  5  1  0  0  0  0
 11 10  2  0  0  0  0
 12  4  1  0  0  0  0
 12  5  2  0  0  0  0
 13  8  1  0  0  0  0
 14 16  2  0  0  0  0
 14 17  1  0  0  0  0
 15 13  2  0  0  0  0
 16 15  1  0  0  0  0
 17 18  2  0  0  0  0
 18 13  1  0  0  0  0
 19 11  1  0  0  0  0
 19 20  1  0  0  0  0
 20 21  1  0  0  0  0
 21 23  1  0  0  0  0
 22 21  2  0  0  0  0
 23 24  1  0  0  0  0
 25 23  2  0  0  0  0
M  END
>  <MODEL>
8

>  <REMARK>
 VINA RESULT:      -7.7      3.802      7.209
  Name = 
  5 active torsions:
  status: ('A' for Active; 'I' for Inactive)
    1  A    between atoms: C_2  and  C_21
    2  A    between atoms: C_5  and  C_18
    3  A    between atoms: C_6  and  C_15
    4  A    between atoms: C_6  and  C_23
    5  A    between atoms: C_15  and  C_21
                            x       y       z     vdW  Elec       q    Type
                         _______ _______ _______ _____ _____    ______ ____

>  <TORSDO>
F 5

$$$$
=
 OpenBabel10262419543D

 25 27  0  0  0  0  0  0  0  0999 V2000
  185.4280  178.6880  144.7960 N   0  0  0  0  0  0  0  0  0  0  0  0
  186.6620  178.1890  144.6430 C   0  0  0  0  0  0  0  0  0  0  0  0
  185.1820  178.5700  146.1270 C   0  0  0  0  0  3  0  0  0  0  0  0
  186.2160  177.9970  146.8040 N   0  0  0  0  0  0  0  0  0  0  0  0
  188.4170  177.2500  145.9710 C   0  0  0  0  0  0  0  0  0  0  0  0
  188.9560  176.7920  147.2810 C   0  0  0  0  0  1  0  0  0  0  0  0
  187.4160  178.1630  143.5140 N   0  0  0  0  0  0  0  0  0  0  0  0
  184.5710  179.3120  143.8270 C   0  0  0  0  0  0  0  0  0  0  0  0
  183.8320  180.2670  144.1900 O   0  0  0  0  0  0  0  0  0  0  0  0
  189.2070  177.1890  144.8090 C   0  0  0  0  0  3  0  0  0  0  0  0
  188.6830  177.6500  143.5780 C   0  0  0  0  0  0  0  0  0  0  0  0
  187.1320  177.7700  145.8440 C   0  0  0  0  0  0  0  0  0  0  0  0
  184.5110  178.8490  142.4260 C   0  0  0  0  0  0  0  0  0  0  0  0
  184.3760  178.0420  139.7770 N   0  0  0  0  0  0  0  0  0  0  0  0
  185.4480  179.3110  141.4930 C   0  0  0  0  0  3  0  0  0  0  0  0
  185.3670  178.8880  140.1640 C   0  0  0  0  0  3  0  0  0  0  0  0
  183.4450  177.5890  140.6580 C   0  0  0  0  0  3  0  0  0  0  0  0
  183.4930  177.9880  141.9950 C   0  0  0  0  0  3  0  0  0  0  0  0
  189.5270  177.6140  142.3540 C   0  0  0  0  0  2  0  0  0  0  0  0
  188.6470  177.6080  141.1180 C   0  0  0  0  0  2  0  0  0  0  0  0
  189.4800  177.8100  139.9010 C   0  0  0  0  0  0  0  0  0  0  0  0
  189.1150  178.6460  139.0320 O   0  0  0  0  0  0  0  0  0  0  0  0
  190.7020  177.0230  139.6990 C   0  0  0  0  0  0  0  0  0  0  0  0
  191.9070  177.5290  140.0620 F   0  0  0  0  0  0  0  0  0  0  0  0
  190.6420  175.8740  139.1880 O   0  0  0  0  0  0  0  0  0  0  0  0
  1  3  1  0  0  0  0
  2  1  1  0  0  0  0
  2 12  1  0  0  0  0
  3  4  2  0  0  0  0
  5  6  1  0  0  0  0
  7 11  1  0  0  0  0
  7  2  2  0  0  0  0
  8  9  2  0  0  0  0
  8  1  1  0  0  0  0
 10  5  1  0  0  0  0
 11 10  2  0  0  0  0
 12  5  2  0  0  0  0
 12  4  1  0  0  0  0
 13  8  1  0  0  0  0
 14 16  2  0  0  0  0
 14 17  1  0  0  0  0
 15 13  2  0  0  0  0
 16 15  1  0  0  0  0
 17 18  2  0  0  0  0
 18 13  1  0  0  0  0
 19 11  1  0  0  0  0
 20 19  1  0  0  0  0
 21 20  1  0  0  0  0
 22 21  2  0  0  0  0
 23 21  1  0  0  0  0
 23 24  1  0  0  0  0
 25 23  2  0  0  0  0
M  END
>  <MODEL>
9

>  <REMARK>
 VINA RESULT:      -7.7      2.926      5.948
  Name = 
  5 active torsions:
  status: ('A' for Active; 'I' for Inactive)
    1  A    between atoms: C_2  and  C_21
    2  A    between atoms: C_5  and  C_18
    3  A    between atoms: C_6  and  C_15
    4  A    between atoms: C_6  and  C_23
    5  A    between atoms: C_15  and  C_21
                            x       y       z     vdW  Elec       q    Type
                         _______ _______ _______ _____ _____    ______ ____

>  <TORSDO>
F 5

$$$$
