=
 OpenBabel10262423273D

 34 40  0  0  1  0  0  0  0  0999 V2000
  187.1200  178.0460  144.2480 C   0  0  0  0  0  0  0  0  0  0  0  0
  183.4840  178.9030  145.0670 C   0  0  0  0  0  2  0  0  0  0  0  0
  185.4670  178.4060  146.4920 C   0  0  0  0  0  3  0  0  0  0  0  0
  189.8270  177.4480  144.5350 N   0  0  0  0  0  0  0  0  0  0  0  0
  187.9720  177.8510  143.1530 O   0  0  0  0  0  0  0  0  0  0  0  0
  189.0040  177.6330  145.6940 C   0  0  0  0  0  0  0  0  0  0  0  0
  188.7290  177.7000  148.1030 C   0  0  0  0  0  3  0  0  0  0  0  0
  189.5460  177.5180  146.9780 C   0  0  0  0  0  3  0  0  0  0  0  0
  189.3340  177.5500  143.3310 C   0  0  0  0  0  0  0  0  0  0  0  0
  186.8210  178.1130  146.6670 C   0  0  0  0  0  0  0  0  0  0  0  0
  187.6440  177.9320  145.5400 C   0  0  0  0  0  0  0  0  0  0  0  0
  187.3690  177.9970  147.9480 C   0  0  0  0  0  3  0  0  0  0  0  0
  182.9230  178.5750  143.6870 C   0  0  2  0  0  3  0  0  0  0  0  0
  183.8560  179.1280  142.6160 C   0  0  0  0  0  2  0  0  0  0  0  0
  184.9270  178.5110  145.2050 C   0  0  0  0  0  0  0  0  0  0  0  0
  185.1910  178.3920  142.6760 C   0  0  0  0  0  2  0  0  0  0  0  0
  185.7610  178.3490  144.0700 C   0  0  0  0  0  0  0  0  0  0  0  0
  192.4160  177.3870  141.1530 C   0  0  0  0  0  3  0  0  0  0  0  0
  189.6550  176.9580  140.9230 C   0  0  0  0  0  3  0  0  0  0  0  0
  192.1590  176.4140  137.5890 C   0  0  0  0  0  0  0  0  0  0  0  0
  192.7020  176.8110  138.8180 C   0  0  0  0  0  3  0  0  0  0  0  0
  191.8740  176.9930  139.9290 C   0  0  0  0  0  0  0  0  0  0  0  0
  189.9410  176.3810  138.5880 C   0  0  0  0  0  3  0  0  0  0  0  0
  190.4830  176.7760  139.8130 C   0  0  0  0  0  0  0  0  0  0  0  0
  190.7760  176.2010  137.4800 C   0  0  0  0  0  3  0  0  0  0  0  0
  190.1990  177.3550  142.1550 C   0  0  0  0  0  0  0  0  0  0  0  0
  191.5810  177.5680  142.2610 C   0  0  0  0  0  3  0  0  0  0  0  0
  193.0370  176.2240  136.4220 C   0  0  0  0  0  0  0  0  0  0  0  0
  192.6440  175.5560  135.4290 O   0  0  0  0  0  0  0  0  0  0  0  0
  194.3100  176.7810  136.4060 O   0  0  0  0  0  1  0  0  0  0  0  0
  181.6050  179.1700  143.5460 N   0  0  0  0  0  2  0  0  0  0  0  0
  180.9500  178.5060  142.4330 C   0  0  1  0  0  3  0  0  0  0  0  0
  179.5720  178.1650  142.8170 N   0  0  0  0  0  2  0  0  0  0  0  0
  179.8420  179.3280  141.9610 C   0  0  0  0  0  2  0  0  0  0  0  0
  1 11  1  0  0  0  0
  2 15  1  0  0  0  0
  3 10  1  0  0  0  0
  4  6  1  0  0  0  0
  5  9  1  0  0  0  0
  5  1  1  0  0  0  0
  6  8  1  0  0  0  0
  8  7  2  0  0  0  0
  9  4  2  0  0  0  0
 10 12  2  0  0  0  0
 11  6  2  0  0  0  0
 11 10  1  0  0  0  0
 12  7  1  0  0  0  0
 13 31  1  1  0  0  0
 13  2  1  0  0  0  0
 14 16  1  0  0  0  0
 14 13  1  0  0  0  0
 15  3  2  0  0  0  0
 16 17  1  0  0  0  0
 17  1  2  0  0  0  0
 17 15  1  0  0  0  0
 18 27  1  0  0  0  0
 19 26  1  0  0  0  0
 20 21  2  0  0  0  0
 21 22  1  0  0  0  0
 22 18  2  0  0  0  0
 23 24  1  0  0  0  0
 24 22  1  0  0  0  0
 24 19  2  0  0  0  0
 25 20  1  0  0  0  0
 25 23  2  0  0  0  0
 26 27  2  0  0  0  0
 26  9  1  0  0  0  0
 28 20  1  0  0  0  0
 29 28  2  0  0  0  0
 30 28  1  0  0  0  0
 32 33  1  0  0  0  0
 32 31  1  1  0  0  0
 34 32  1  0  0  0  0
 34 33  1  0  0  0  0
M  END
>  <MODEL>
1

>  <REMARK>
 VINA RESULT:     -11.3      0.000      0.000
  Name = 
  4 active torsions:
  status: ('A' for Active; 'I' for Inactive)
    1  A    between atoms: C_3  and  N_25
    2  A    between atoms: C_7  and  C_11
    3  A    between atoms: C_18  and  C_30
    4  A    between atoms: C_23  and  N_25
                            x       y       z     vdW  Elec       q    Type
                         _______ _______ _______ _____ _____    ______ ____

>  <TORSDO>
F 4

$$$$
=
 OpenBabel10262423273D

 34 40  0  0  1  0  0  0  0  0999 V2000
  189.1280  177.4810  143.5140 C   0  0  0  0  0  0  0  0  0  0  0  0
  192.4330  176.8580  141.6920 C   0  0  0  0  0  2  0  0  0  0  0  0
  191.8000  176.8370  144.1030 C   0  0  0  0  0  3  0  0  0  0  0  0
  187.2250  177.7200  145.5360 N   0  0  0  0  0  0  0  0  0  0  0  0
  187.7900  177.8100  143.2580 O   0  0  0  0  0  0  0  0  0  0  0  0
  188.5810  177.3840  145.8590 C   0  0  0  0  0  0  0  0  0  0  0  0
  190.2940  176.8470  147.4890 C   0  0  0  0  0  3  0  0  0  0  0  0
  188.9650  177.1730  147.1870 C   0  0  0  0  0  3  0  0  0  0  0  0
  186.8530  177.9220  144.3020 C   0  0  0  0  0  0  0  0  0  0  0  0
  190.8670  176.9440  145.1360 C   0  0  0  0  0  0  0  0  0  0  0  0
  189.5310  177.2680  144.8360 C   0  0  0  0  0  0  0  0  0  0  0  0
  191.2440  176.7320  146.4660 C   0  0  0  0  0  3  0  0  0  0  0  0
  192.0260  177.5230  140.3810 C   0  0  2  0  0  3  0  0  0  0  0  0
  190.6030  177.1110  140.0240 C   0  0  0  0  0  2  0  0  0  0  0  0
  191.4120  177.0600  142.7760 C   0  0  0  0  0  0  0  0  0  0  0  0
  189.6350  177.6740  141.0600 C   0  0  0  0  0  2  0  0  0  0  0  0
  190.0620  177.3660  142.4720 C   0  0  0  0  0  0  0  0  0  0  0  0
  183.2530  178.9700  144.7500 C   0  0  0  0  0  3  0  0  0  0  0  0
  184.9800  178.2240  142.6720 C   0  0  0  0  0  3  0  0  0  0  0  0
  180.9800  179.2130  141.8350 C   0  0  0  0  0  0  0  0  0  0  0  0
  181.4530  179.2550  143.1540 C   0  0  0  0  0  3  0  0  0  0  0  0
  182.7820  178.9270  143.4370 C   0  0  0  0  0  0  0  0  0  0  0  0
  183.1810  178.5090  141.0760 C   0  0  0  0  0  3  0  0  0  0  0  0
  183.6520  178.5510  142.3900 C   0  0  0  0  0  0  0  0  0  0  0  0
  181.8500  178.8380  140.8000 C   0  0  0  0  0  3  0  0  0  0  0  0
  185.4550  178.2660  143.9930 C   0  0  0  0  0  0  0  0  0  0  0  0
  184.5840  178.6400  145.0260 C   0  0  0  0  0  3  0  0  0  0  0  0
  179.5790  179.5590  141.5440 C   0  0  0  0  0  0  0  0  0  0  0  0
  178.9550  180.3710  142.2780 O   0  0  0  0  0  1  0  0  0  0  0  0
  178.9310  178.9910  140.4540 O   0  0  0  0  0  0  0  0  0  0  0  0
  192.9370  177.1110  139.3270 N   0  0  0  0  0  2  0  0  0  0  0  0
  192.1550  176.3870  138.3410 C   0  0  1  0  0  3  0  0  0  0  0  0
  192.8660  176.4000  137.0550 N   0  0  0  0  0  2  0  0  0  0  0  0
  192.8920  175.2060  137.9090 C   0  0  0  0  0  2  0  0  0  0  0  0
  1 11  1  0  0  0  0
  2 15  1  0  0  0  0
  3 10  1  0  0  0  0
  4  6  1  0  0  0  0
  5  1  1  0  0  0  0
  5  9  1  0  0  0  0
  6  8  1  0  0  0  0
  8  7  2  0  0  0  0
  9  4  2  0  0  0  0
 10 12  2  0  0  0  0
 11 10  1  0  0  0  0
 11  6  2  0  0  0  0
 12  7  1  0  0  0  0
 13 31  1  6  0  0  0
 13  2  1  0  0  0  0
 14 13  1  0  0  0  0
 14 16  1  0  0  0  0
 15  3  2  0  0  0  0
 16 17  1  0  0  0  0
 17 15  1  0  0  0  0
 17  1  2  0  0  0  0
 18 27  1  0  0  0  0
 19 26  1  0  0  0  0
 20 21  2  0  0  0  0
 21 22  1  0  0  0  0
 22 18  2  0  0  0  0
 23 24  1  0  0  0  0
 24 19  2  0  0  0  0
 24 22  1  0  0  0  0
 25 23  2  0  0  0  0
 25 20  1  0  0  0  0
 26  9  1  0  0  0  0
 26 27  2  0  0  0  0
 28 20  1  0  0  0  0
 28 29  1  0  0  0  0
 30 28  2  0  0  0  0
 32 31  1  1  0  0  0
 33 34  1  0  0  0  0
 33 32  1  0  0  0  0
 34 32  1  0  0  0  0
M  END
>  <MODEL>
2

>  <REMARK>
 VINA RESULT:     -10.9      3.076      8.956
  Name = 
  4 active torsions:
  status: ('A' for Active; 'I' for Inactive)
    1  A    between atoms: C_3  and  N_25
    2  A    between atoms: C_7  and  C_11
    3  A    between atoms: C_18  and  C_30
    4  A    between atoms: C_23  and  N_25
                            x       y       z     vdW  Elec       q    Type
                         _______ _______ _______ _____ _____    ______ ____

>  <TORSDO>
F 4

$$$$
=
 OpenBabel10262423273D

 34 40  0  0  1  0  0  0  0  0999 V2000
  186.2660  178.2000  143.3610 C   0  0  0  0  0  0  0  0  0  0  0  0
  182.5270  178.9980  143.4790 C   0  0  0  0  0  2  0  0  0  0  0  0
  184.2380  178.6400  145.2560 C   0  0  0  0  0  3  0  0  0  0  0  0
  188.8910  177.6980  144.1510 N   0  0  0  0  0  0  0  0  0  0  0  0
  187.3010  177.9680  142.4440 O   0  0  0  0  0  0  0  0  0  0  0  0
  187.8740  177.9250  145.1350 C   0  0  0  0  0  0  0  0  0  0  0  0
  187.1790  178.1210  147.4500 C   0  0  0  0  0  3  0  0  0  0  0  0
  188.1840  177.8990  146.4980 C   0  0  0  0  0  3  0  0  0  0  0  0
  188.6160  177.7170  142.8760 C   0  0  0  0  0  0  0  0  0  0  0  0
  185.5450  178.3960  145.6820 C   0  0  0  0  0  0  0  0  0  0  0  0
  186.5560  178.1750  144.7290 C   0  0  0  0  0  0  0  0  0  0  0  0
  185.8620  178.3700  147.0430 C   0  0  0  0  0  3  0  0  0  0  0  0
  182.2240  178.5760  142.0450 C   0  0  2  0  0  3  0  0  0  0  0  0
  183.3200  179.0930  141.1220 C   0  0  0  0  0  2  0  0  0  0  0  0
  183.9310  178.6560  143.8900 C   0  0  0  0  0  0  0  0  0  0  0  0
  184.6370  178.4010  141.4580 C   0  0  0  0  0  2  0  0  0  0  0  0
  184.9540  178.4540  142.9300 C   0  0  0  0  0  0  0  0  0  0  0  0
  192.0380  177.4820  141.2950 C   0  0  0  0  0  3  0  0  0  0  0  0
  189.3620  177.0350  140.5880 C   0  0  0  0  0  3  0  0  0  0  0  0
  192.4230  176.3720  137.7820 C   0  0  0  0  0  0  0  0  0  0  0  0
  192.7370  176.8180  139.0730 C   0  0  0  0  0  3  0  0  0  0  0  0
  191.7230  177.0390  140.0090 C   0  0  0  0  0  0  0  0  0  0  0  0
  190.0610  176.3710  138.3660 C   0  0  0  0  0  3  0  0  0  0  0  0
  190.3750  176.8140  139.6530 C   0  0  0  0  0  0  0  0  0  0  0  0
  191.0810  176.1510  137.4350 C   0  0  0  0  0  3  0  0  0  0  0  0
  189.6770  177.4800  141.8820 C   0  0  0  0  0  0  0  0  0  0  0  0
  191.0180  177.7010  142.2270 C   0  0  0  0  0  3  0  0  0  0  0  0
  193.4950  176.1410  136.8000 C   0  0  0  0  0  0  0  0  0  0  0  0
  194.6470  175.8010  137.1800 O   0  0  0  0  0  1  0  0  0  0  0  0
  193.2450  176.2980  135.4420 O   0  0  0  0  0  0  0  0  0  0  0  0
  180.9400  179.1240  141.6410 N   0  0  0  0  0  2  0  0  0  0  0  0
  180.3890  179.8210  142.7900 C   0  0  1  0  0  3  0  0  0  0  0  0
  179.5970  180.9690  142.3250 N   0  0  0  0  0  2  0  0  0  0  0  0
  178.9350  179.7320  142.7600 C   0  0  0  0  0  2  0  0  0  0  0  0
  1 11  1  0  0  0  0
  2 15  1  0  0  0  0
  3 10  1  0  0  0  0
  4  6  1  0  0  0  0
  5  9  1  0  0  0  0
  5  1  1  0  0  0  0
  6  8  1  0  0  0  0
  8  7  2  0  0  0  0
  9  4  2  0  0  0  0
 10 12  2  0  0  0  0
 11  6  2  0  0  0  0
 11 10  1  0  0  0  0
 12  7  1  0  0  0  0
 13 31  1  6  0  0  0
 13  2  1  0  0  0  0
 14 16  1  0  0  0  0
 14 13  1  0  0  0  0
 15  3  2  0  0  0  0
 16 17  1  0  0  0  0
 17  1  2  0  0  0  0
 17 15  1  0  0  0  0
 18 27  1  0  0  0  0
 19 26  1  0  0  0  0
 20 21  2  0  0  0  0
 21 22  1  0  0  0  0
 22 18  2  0  0  0  0
 23 24  1  0  0  0  0
 24 22  1  0  0  0  0
 24 19  2  0  0  0  0
 25 20  1  0  0  0  0
 25 23  2  0  0  0  0
 26 27  2  0  0  0  0
 26  9  1  0  0  0  0
 28 29  1  0  0  0  0
 28 20  1  0  0  0  0
 30 28  2  0  0  0  0
 32 31  1  6  0  0  0
 33 34  1  0  0  0  0
 33 32  1  0  0  0  0
 34 32  1  0  0  0  0
M  END
>  <MODEL>
3

>  <REMARK>
 VINA RESULT:     -10.9      1.008      1.383
  Name = 
  4 active torsions:
  status: ('A' for Active; 'I' for Inactive)
    1  A    between atoms: C_3  and  N_25
    2  A    between atoms: C_7  and  C_11
    3  A    between atoms: C_18  and  C_30
    4  A    between atoms: C_23  and  N_25
                            x       y       z     vdW  Elec       q    Type
                         _______ _______ _______ _____ _____    ______ ____

>  <TORSDO>
F 4

$$$$
=
 OpenBabel10262423273D

 34 40  0  0  1  0  0  0  0  0999 V2000
  182.7410  178.4500  141.5520 C   0  0  0  0  0  0  0  0  0  0  0  0
  181.4300  178.4040  137.9590 C   0  0  0  0  0  2  0  0  0  0  0  0
  180.3360  178.8480  140.1530 C   0  0  0  0  0  3  0  0  0  0  0  0
  182.8600  178.7350  144.3220 N   0  0  0  0  0  0  0  0  0  0  0  0
  183.9200  178.2510  142.2830 O   0  0  0  0  0  0  0  0  0  0  0  0
  181.6230  178.9490  143.6280 C   0  0  0  0  0  0  0  0  0  0  0  0
  179.2630  179.5060  143.6390 C   0  0  0  0  0  3  0  0  0  0  0  0
  180.4660  179.3020  144.3290 C   0  0  0  0  0  3  0  0  0  0  0  0
  183.9470  178.4030  143.6810 C   0  0  0  0  0  0  0  0  0  0  0  0
  180.3660  179.0030  141.5410 C   0  0  0  0  0  0  0  0  0  0  0  0
  181.5720  178.8010  142.2360 C   0  0  0  0  0  0  0  0  0  0  0  0
  179.2120  179.3570  142.2470 C   0  0  0  0  0  3  0  0  0  0  0  0
  182.5930  177.6110  137.3700 C   0  0  2  0  0  3  0  0  0  0  0  0
  183.9050  178.1350  137.9420 C   0  0  0  0  0  2  0  0  0  0  0  0
  181.4950  178.4840  139.4580 C   0  0  0  0  0  0  0  0  0  0  0  0
  183.9590  177.8470  139.4380 C   0  0  0  0  0  2  0  0  0  0  0  0
  182.7140  178.3020  140.1560 C   0  0  0  0  0  0  0  0  0  0  0  0
  186.4620  178.2820  146.4950 C   0  0  0  0  0  3  0  0  0  0  0  0
  186.3440  177.6950  143.7560 C   0  0  0  0  0  3  0  0  0  0  0  0
  189.9200  177.0980  145.8870 C   0  0  0  0  0  0  0  0  0  0  0  0
  188.7840  177.5910  146.5440 C   0  0  0  0  0  3  0  0  0  0  0  0
  187.5930  177.7910  145.8400 C   0  0  0  0  0  0  0  0  0  0  0  0
  188.6650  177.0040  143.8050 C   0  0  0  0  0  3  0  0  0  0  0  0
  187.5330  177.4950  144.4600 C   0  0  0  0  0  0  0  0  0  0  0  0
  189.8530  176.8060  144.5160 C   0  0  0  0  0  3  0  0  0  0  0  0
  185.2060  178.1880  144.4140 C   0  0  0  0  0  0  0  0  0  0  0  0
  185.2740  178.4790  145.7840 C   0  0  0  0  0  3  0  0  0  0  0  0
  191.1710  176.8890  146.6340 C   0  0  0  0  0  0  0  0  0  0  0  0
  192.1170  176.2310  146.1250 O   0  0  0  0  0  0  0  0  0  0  0  0
  191.3190  177.4170  147.9110 O   0  0  0  0  0  1  0  0  0  0  0  0
  182.5930  177.7540  135.9240 N   0  0  0  0  0  2  0  0  0  0  0  0
  181.9240  176.5880  135.3770 C   0  0  1  0  0  3  0  0  0  0  0  0
  182.8880  175.7980  134.5970 N   0  0  0  0  0  2  0  0  0  0  0  0
  182.5030  175.3800  135.9520 C   0  0  0  0  0  2  0  0  0  0  0  0
  1 11  1  0  0  0  0
  1  5  1  0  0  0  0
  2 15  1  0  0  0  0
  3 10  1  0  0  0  0
  5  9  1  0  0  0  0
  6  4  1  0  0  0  0
  6  8  1  0  0  0  0
  7  8  2  0  0  0  0
  9  4  2  0  0  0  0
  9 26  1  0  0  0  0
 10 11  1  0  0  0  0
 10 12  2  0  0  0  0
 11  6  2  0  0  0  0
 12  7  1  0  0  0  0
 13 31  1  6  0  0  0
 13 14  1  0  0  0  0
 13  2  1  0  0  0  0
 14 16  1  0  0  0  0
 15  3  2  0  0  0  0
 15 17  1  0  0  0  0
 16 17  1  0  0  0  0
 17  1  2  0  0  0  0
 19 26  2  0  0  0  0
 19 24  1  0  0  0  0
 20 21  1  0  0  0  0
 20 28  1  0  0  0  0
 22 18  1  0  0  0  0
 22 21  2  0  0  0  0
 23 24  2  0  0  0  0
 23 25  1  0  0  0  0
 24 22  1  0  0  0  0
 25 20  2  0  0  0  0
 26 27  1  0  0  0  0
 27 18  2  0  0  0  0
 28 30  1  0  0  0  0
 29 28  2  0  0  0  0
 32 31  1  1  0  0  0
 32 34  1  0  0  0  0
 33 32  1  0  0  0  0
 33 34  1  0  0  0  0
M  END
>  <MODEL>
4

>  <REMARK>
 VINA RESULT:      -9.6      4.349      7.634
  Name = 
  4 active torsions:
  status: ('A' for Active; 'I' for Inactive)
    1  A    between atoms: C_3  and  N_25
    2  A    between atoms: C_7  and  C_11
    3  A    between atoms: C_18  and  C_30
    4  A    between atoms: C_23  and  N_25
                            x       y       z     vdW  Elec       q    Type
                         _______ _______ _______ _____ _____    ______ ____

>  <TORSDO>
F 4

$$$$
=
 OpenBabel10262423273D

 34 40  0  0  1  0  0  0  0  0999 V2000
  190.3960  176.7500  138.1330 C   0  0  0  0  0  0  0  0  0  0  0  0
  192.5750  175.6240  135.1970 C   0  0  0  0  0  2  0  0  0  0  0  0
  190.2670  176.5530  135.3320 C   0  0  0  0  0  3  0  0  0  0  0  0
  188.2670  177.7840  139.6040 N   0  0  0  0  0  0  0  0  0  0  0  0
  190.4220  176.8550  139.5300 O   0  0  0  0  0  0  0  0  0  0  0  0
  188.1800  177.6980  138.1750 C   0  0  0  0  0  0  0  0  0  0  0  0
  186.9620  178.0400  136.1070 C   0  0  0  0  0  3  0  0  0  0  0  0
  187.0330  178.1310  137.5040 C   0  0  0  0  0  3  0  0  0  0  0  0
  189.3300  177.3820  140.2430 C   0  0  0  0  0  0  0  0  0  0  0  0
  189.1860  177.0810  136.0420 C   0  0  0  0  0  0  0  0  0  0  0  0
  189.2550  177.1760  137.4440 C   0  0  0  0  0  0  0  0  0  0  0  0
  188.0350  177.5160  135.3770 C   0  0  0  0  0  3  0  0  0  0  0  0
  193.5550  174.8000  136.0270 C   0  0  2  0  0  3  0  0  0  0  0  0
  193.9150  175.5670  137.2940 C   0  0  0  0  0  2  0  0  0  0  0  0
  191.4090  176.1120  136.0100 C   0  0  0  0  0  0  0  0  0  0  0  0
  192.6790  175.7000  138.1770 C   0  0  0  0  0  2  0  0  0  0  0  0
  191.4870  176.2280  137.4200 C   0  0  0  0  0  0  0  0  0  0  0  0
  190.7210  177.7040  143.7400 C   0  0  0  0  0  3  0  0  0  0  0  0
  188.2270  177.4380  142.4870 C   0  0  0  0  0  3  0  0  0  0  0  0
  188.4630  177.7160  146.6760 C   0  0  0  0  0  0  0  0  0  0  0  0
  189.6300  177.7560  145.9020 C   0  0  0  0  0  3  0  0  0  0  0  0
  189.5570  177.6640  144.5100 C   0  0  0  0  0  0  0  0  0  0  0  0
  187.1370  177.4900  144.6490 C   0  0  0  0  0  3  0  0  0  0  0  0
  188.3010  177.5300  143.8780 C   0  0  0  0  0  0  0  0  0  0  0  0
  187.2180  177.5830  146.0420 C   0  0  0  0  0  3  0  0  0  0  0  0
  189.3970  177.4780  141.7110 C   0  0  0  0  0  0  0  0  0  0  0  0
  190.6400  177.6110  142.3470 C   0  0  0  0  0  3  0  0  0  0  0  0
  188.5460  177.8130  148.1430 C   0  0  0  0  0  0  0  0  0  0  0  0
  187.5600  177.5000  148.8610 O   0  0  0  0  0  1  0  0  0  0  0  0
  189.7170  178.2530  148.7490 O   0  0  0  0  0  0  0  0  0  0  0  0
  194.7540  174.5460  135.2480 N   0  0  0  0  0  2  0  0  0  0  0  0
  195.8460  175.2540  135.8940 C   0  0  1  0  0  3  0  0  0  0  0  0
  197.1160  174.5990  135.5510 N   0  0  0  0  0  2  0  0  0  0  0  0
  196.7120  175.8410  134.8800 C   0  0  0  0  0  2  0  0  0  0  0  0
  1  5  1  0  0  0  0
  2 15  1  0  0  0  0
  2 13  1  0  0  0  0
  3 15  2  0  0  0  0
  3 10  1  0  0  0  0
  4  9  2  0  0  0  0
  5  9  1  0  0  0  0
  6  4  1  0  0  0  0
  7  8  2  0  0  0  0
  8  6  1  0  0  0  0
  9 26  1  0  0  0  0
 10 11  1  0  0  0  0
 11  1  1  0  0  0  0
 11  6  2  0  0  0  0
 12 10  2  0  0  0  0
 12  7  1  0  0  0  0
 13 31  1  6  0  0  0
 13 14  1  0  0  0  0
 14 16  1  0  0  0  0
 15 17  1  0  0  0  0
 17  1  2  0  0  0  0
 17 16  1  0  0  0  0
 18 22  1  0  0  0  0
 19 24  1  0  0  0  0
 20 28  1  0  0  0  0
 21 20  2  0  0  0  0
 22 21  1  0  0  0  0
 23 25  2  0  0  0  0
 24 22  2  0  0  0  0
 24 23  1  0  0  0  0
 25 20  1  0  0  0  0
 26 27  1  0  0  0  0
 26 19  2  0  0  0  0
 27 18  2  0  0  0  0
 28 30  2  0  0  0  0
 28 29  1  0  0  0  0
 32 31  1  6  0  0  0
 33 32  1  0  0  0  0
 34 33  1  0  0  0  0
 34 32  1  0  0  0  0
M  END
>  <MODEL>
5

>  <REMARK>
 VINA RESULT:      -9.6      3.778     10.686
  Name = 
  4 active torsions:
  status: ('A' for Active; 'I' for Inactive)
    1  A    between atoms: C_3  and  N_25
    2  A    between atoms: C_7  and  C_11
    3  A    between atoms: C_18  and  C_30
    4  A    between atoms: C_23  and  N_25
                            x       y       z     vdW  Elec       q    Type
                         _______ _______ _______ _____ _____    ______ ____

>  <TORSDO>
F 4

$$$$
=
 OpenBabel10262423273D

 34 40  0  0  1  0  0  0  0  0999 V2000
  185.1010  178.3040  141.7340 C   0  0  0  0  0  0  0  0  0  0  0  0
  184.4710  178.5370  137.9690 C   0  0  0  0  0  2  0  0  0  0  0  0
  182.9810  178.7780  139.9510 C   0  0  0  0  0  3  0  0  0  0  0  0
  184.7040  178.3580  144.4920 N   0  0  0  0  0  0  0  0  0  0  0  0
  186.1330  178.0640  142.6520 O   0  0  0  0  0  0  0  0  0  0  0  0
  183.6080  178.6090  143.6010 C   0  0  0  0  0  0  0  0  0  0  0  0
  181.2700  179.1250  143.2200 C   0  0  0  0  0  3  0  0  0  0  0  0
  182.3320  178.8830  144.1020 C   0  0  0  0  0  3  0  0  0  0  0  0
  185.8990  178.0990  144.0390 C   0  0  0  0  0  0  0  0  0  0  0  0
  182.7520  178.8170  141.3280 C   0  0  0  0  0  0  0  0  0  0  0  0
  183.8170  178.5780  142.2160 C   0  0  0  0  0  0  0  0  0  0  0  0
  181.4790  179.0920  141.8360 C   0  0  0  0  0  3  0  0  0  0  0  0
  185.7460  177.8150  137.5440 C   0  0  2  0  0  3  0  0  0  0  0  0
  186.9140  178.3110  138.3870 C   0  0  0  0  0  2  0  0  0  0  0  0
  184.2590  178.4930  139.4550 C   0  0  0  0  0  0  0  0  0  0  0  0
  186.7030  177.8990  139.8410 C   0  0  0  0  0  2  0  0  0  0  0  0
  185.3350  178.2720  140.3500 C   0  0  0  0  0  0  0  0  0  0  0  0
  187.8630  177.7880  147.2500 C   0  0  0  0  0  3  0  0  0  0  0  0
  188.2610  177.4200  144.4990 C   0  0  0  0  0  3  0  0  0  0  0  0
  191.4050  176.7050  147.2000 C   0  0  0  0  0  0  0  0  0  0  0  0
  190.1550  177.1280  147.6720 C   0  0  0  0  0  3  0  0  0  0  0  0
  189.1070  177.3670  146.7780 C   0  0  0  0  0  0  0  0  0  0  0  0
  190.5540  176.7610  144.9210 C   0  0  0  0  0  3  0  0  0  0  0  0
  189.3080  177.1820  145.3930 C   0  0  0  0  0  0  0  0  0  0  0  0
  191.5980  176.5230  145.8210 C   0  0  0  0  0  3  0  0  0  0  0  0
  187.0090  177.8440  144.9720 C   0  0  0  0  0  0  0  0  0  0  0  0
  186.8190  178.0250  146.3500 C   0  0  0  0  0  3  0  0  0  0  0  0
  192.5040  176.4550  148.1460 C   0  0  0  0  0  0  0  0  0  0  0  0
  193.2080  175.4140  148.0480 O   0  0  0  0  0  0  0  0  0  0  0  0
  192.7770  177.3670  149.1580 O   0  0  0  0  0  1  0  0  0  0  0  0
  186.0060  178.0780  136.1390 N   0  0  0  0  0  2  0  0  0  0  0  0
  185.8280  176.8260  135.4270 C   0  0  1  0  0  3  0  0  0  0  0  0
  187.0610  176.5070  134.6930 N   0  0  0  0  0  2  0  0  0  0  0  0
  186.7490  175.8290  135.9580 C   0  0  0  0  0  2  0  0  0  0  0  0
  1 11  1  0  0  0  0
  1  5  1  0  0  0  0
  2 15  1  0  0  0  0
  3 10  1  0  0  0  0
  5  9  1  0  0  0  0
  6  8  1  0  0  0  0
  6  4  1  0  0  0  0
  7  8  2  0  0  0  0
  9  4  2  0  0  0  0
  9 26  1  0  0  0  0
 10 12  2  0  0  0  0
 10 11  1  0  0  0  0
 11  6  2  0  0  0  0
 12  7  1  0  0  0  0
 13 31  1  6  0  0  0
 13  2  1  0  0  0  0
 13 14  1  0  0  0  0
 14 16  1  0  0  0  0
 15  3  2  0  0  0  0
 15 17  1  0  0  0  0
 16 17  1  0  0  0  0
 17  1  2  0  0  0  0
 19 26  2  0  0  0  0
 19 24  1  0  0  0  0
 20 21  1  0  0  0  0
 20 28  1  0  0  0  0
 22 18  1  0  0  0  0
 22 21  2  0  0  0  0
 23 24  2  0  0  0  0
 23 25  1  0  0  0  0
 24 22  1  0  0  0  0
 25 20  2  0  0  0  0
 26 27  1  0  0  0  0
 27 18  2  0  0  0  0
 28 30  1  0  0  0  0
 29 28  2  0  0  0  0
 32 34  1  0  0  0  0
 32 31  1  1  0  0  0
 33 32  1  0  0  0  0
 33 34  1  0  0  0  0
M  END
>  <MODEL>
6

>  <REMARK>
 VINA RESULT:      -9.5      3.933      7.577
  Name = 
  4 active torsions:
  status: ('A' for Active; 'I' for Inactive)
    1  A    between atoms: C_3  and  N_25
    2  A    between atoms: C_7  and  C_11
    3  A    between atoms: C_18  and  C_30
    4  A    between atoms: C_23  and  N_25
                            x       y       z     vdW  Elec       q    Type
                         _______ _______ _______ _____ _____    ______ ____

>  <TORSDO>
F 4

$$$$
=
 OpenBabel10262423273D

 34 40  0  0  1  0  0  0  0  0999 V2000
  189.2220  177.5140  142.6030 C   0  0  0  0  0  0  0  0  0  0  0  0
  192.5150  176.8850  140.7620 C   0  0  0  0  0  2  0  0  0  0  0  0
  191.9270  177.0160  143.1800 C   0  0  0  0  0  3  0  0  0  0  0  0
  187.3480  177.8260  144.6420 N   0  0  0  0  0  0  0  0  0  0  0  0
  187.8670  177.7710  142.3530 O   0  0  0  0  0  0  0  0  0  0  0  0
  188.7220  177.5670  144.9610 C   0  0  0  0  0  0  0  0  0  0  0  0
  190.4850  177.2160  146.5880 C   0  0  0  0  0  3  0  0  0  0  0  0
  189.1380  177.4680  146.2910 C   0  0  0  0  0  3  0  0  0  0  0  0
  186.9460  177.9240  143.4050 C   0  0  0  0  0  0  0  0  0  0  0  0
  191.0100  177.1630  144.2230 C   0  0  0  0  0  0  0  0  0  0  0  0
  189.6570  177.4130  143.9290 C   0  0  0  0  0  0  0  0  0  0  0  0
  191.4190  177.0630  145.5560 C   0  0  0  0  0  3  0  0  0  0  0  0
  192.0570  177.4360  139.4140 C   0  0  2  0  0  3  0  0  0  0  0  0
  190.6450  176.9450  139.1190 C   0  0  0  0  0  2  0  0  0  0  0  0
  191.5070  177.1260  141.8490 C   0  0  0  0  0  0  0  0  0  0  0  0
  189.6760  177.5460  140.1320 C   0  0  0  0  0  2  0  0  0  0  0  0
  190.1400  177.3580  141.5530 C   0  0  0  0  0  0  0  0  0  0  0  0
  183.2540  178.5660  143.8770 C   0  0  0  0  0  3  0  0  0  0  0  0
  185.0930  178.3270  141.7750 C   0  0  0  0  0  3  0  0  0  0  0  0
  181.0400  179.0890  140.9540 C   0  0  0  0  0  0  0  0  0  0  0  0
  181.4760  178.9530  142.2790 C   0  0  0  0  0  3  0  0  0  0  0  0
  182.8220  178.7000  142.5570 C   0  0  0  0  0  0  0  0  0  0  0  0
  183.3150  178.7140  140.1770 C   0  0  0  0  0  3  0  0  0  0  0  0
  183.7480  178.5800  141.4980 C   0  0  0  0  0  0  0  0  0  0  0  0
  181.9660  178.9680  139.9070 C   0  0  0  0  0  3  0  0  0  0  0  0
  185.5300  178.1910  143.1020 C   0  0  0  0  0  0  0  0  0  0  0  0
  184.6030  178.3120  144.1480 C   0  0  0  0  0  3  0  0  0  0  0  0
  179.6210  179.3550  140.6680 C   0  0  0  0  0  0  0  0  0  0  0  0
  178.9310  178.5200  140.0250 O   0  0  0  0  0  0  0  0  0  0  0  0
  179.0280  180.5340  141.1050 O   0  0  0  0  0  1  0  0  0  0  0  0
  192.9640  176.9840  138.3740 N   0  0  0  0  0  2  0  0  0  0  0  0
  192.4810  175.6950  137.9130 C   0  0  1  0  0  3  0  0  0  0  0  0
  192.5340  175.6550  136.4440 N   0  0  0  0  0  2  0  0  0  0  0  0
  193.5620  174.9800  137.2470 C   0  0  0  0  0  2  0  0  0  0  0  0
  1 11  1  0  0  0  0
  2 15  1  0  0  0  0
  3 10  1  0  0  0  0
  4  6  1  0  0  0  0
  5  1  1  0  0  0  0
  5  9  1  0  0  0  0
  6  8  1  0  0  0  0
  8  7  2  0  0  0  0
  9  4  2  0  0  0  0
 10 12  2  0  0  0  0
 11 10  1  0  0  0  0
 11  6  2  0  0  0  0
 12  7  1  0  0  0  0
 13 31  1  6  0  0  0
 13  2  1  0  0  0  0
 14 13  1  0  0  0  0
 14 16  1  0  0  0  0
 15  3  2  0  0  0  0
 16 17  1  0  0  0  0
 17 15  1  0  0  0  0
 17  1  2  0  0  0  0
 18 27  1  0  0  0  0
 19 26  1  0  0  0  0
 20 21  2  0  0  0  0
 21 22  1  0  0  0  0
 22 18  2  0  0  0  0
 23 24  1  0  0  0  0
 24 19  2  0  0  0  0
 24 22  1  0  0  0  0
 25 23  2  0  0  0  0
 25 20  1  0  0  0  0
 26  9  1  0  0  0  0
 26 27  2  0  0  0  0
 28 20  1  0  0  0  0
 28 30  1  0  0  0  0
 29 28  2  0  0  0  0
 32 31  1  6  0  0  0
 33 34  1  0  0  0  0
 33 32  1  0  0  0  0
 34 32  1  0  0  0  0
M  END
>  <MODEL>
7

>  <REMARK>
 VINA RESULT:      -9.3      3.252      8.980
  Name = 
  4 active torsions:
  status: ('A' for Active; 'I' for Inactive)
    1  A    between atoms: C_3  and  N_25
    2  A    between atoms: C_7  and  C_11
    3  A    between atoms: C_18  and  C_30
    4  A    between atoms: C_23  and  N_25
                            x       y       z     vdW  Elec       q    Type
                         _______ _______ _______ _____ _____    ______ ____

>  <TORSDO>
F 4

$$$$
=
 OpenBabel10262423273D

 34 40  0  0  1  0  0  0  0  0999 V2000
  189.2940  176.8380  138.0090 C   0  0  0  0  0  0  0  0  0  0  0  0
  187.1460  176.7040  134.8480 C   0  0  0  0  0  2  0  0  0  0  0  0
  189.5880  176.4090  135.2470 C   0  0  0  0  0  3  0  0  0  0  0  0
  191.4850  176.7100  139.7270 N   0  0  0  0  0  0  0  0  0  0  0  0
  189.1870  177.0550  139.3900 O   0  0  0  0  0  0  0  0  0  0  0  0
  191.6580  176.4820  138.3220 C   0  0  0  0  0  0  0  0  0  0  0  0
  193.0750  175.9730  136.4220 C   0  0  0  0  0  3  0  0  0  0  0  0
  192.9210  176.1930  137.7980 C   0  0  0  0  0  3  0  0  0  0  0  0
  190.3120  176.9830  140.2300 C   0  0  0  0  0  0  0  0  0  0  0  0
  190.7030  176.3330  136.0840 C   0  0  0  0  0  0  0  0  0  0  0  0
  190.5510  176.5500  137.4660 C   0  0  0  0  0  0  0  0  0  0  0  0
  191.9690  176.0430  135.5660 C   0  0  0  0  0  3  0  0  0  0  0  0
  185.9440  177.4380  135.4350 C   0  0  2  0  0  3  0  0  0  0  0  0
  185.6720  176.9220  136.8420 C   0  0  0  0  0  2  0  0  0  0  0  0
  188.3270  176.7090  135.7760 C   0  0  0  0  0  0  0  0  0  0  0  0
  186.8360  177.2940  137.7540 C   0  0  0  0  0  2  0  0  0  0  0  0
  188.1700  176.9060  137.1710 C   0  0  0  0  0  0  0  0  0  0  0  0
  191.1510  177.7650  143.8280 C   0  0  0  0  0  3  0  0  0  0  0  0
  188.9010  177.1100  142.2900 C   0  0  0  0  0  3  0  0  0  0  0  0
  188.5080  177.7780  146.4230 C   0  0  0  0  0  0  0  0  0  0  0  0
  189.7640  177.8820  145.8110 C   0  0  0  0  0  3  0  0  0  0  0  0
  189.9000  177.6610  144.4380 C   0  0  0  0  0  0  0  0  0  0  0  0
  187.5130  177.2270  144.2720 C   0  0  0  0  0  3  0  0  0  0  0  0
  188.7660  177.3310  143.6630 C   0  0  0  0  0  0  0  0  0  0  0  0
  187.3850  177.4500  145.6470 C   0  0  0  0  0  3  0  0  0  0  0  0
  190.1590  177.2140  141.6760 C   0  0  0  0  0  0  0  0  0  0  0  0
  191.2790  177.5420  142.4530 C   0  0  0  0  0  3  0  0  0  0  0  0
  188.3710  178.0120  147.8700 C   0  0  0  0  0  0  0  0  0  0  0  0
  187.2370  177.9930  148.4170 O   0  0  0  0  0  0  0  0  0  0  0  0
  189.4970  178.2570  148.6480 O   0  0  0  0  0  1  0  0  0  0  0  0
  184.7810  177.2130  134.5940 N   0  0  0  0  0  2  0  0  0  0  0  0
  183.6540  176.9680  135.4760 C   0  0  1  0  0  3  0  0  0  0  0  0
  182.4190  177.4240  134.8200 N   0  0  0  0  0  2  0  0  0  0  0  0
  182.7580  175.9960  134.8620 C   0  0  0  0  0  2  0  0  0  0  0  0
  1  5  1  0  0  0  0
  2 13  1  0  0  0  0
  2 15  1  0  0  0  0
  3 15  2  0  0  0  0
  3 10  1  0  0  0  0
  4  9  2  0  0  0  0
  5  9  1  0  0  0  0
  6  4  1  0  0  0  0
  7  8  2  0  0  0  0
  8  6  1  0  0  0  0
  9 26  1  0  0  0  0
 10 11  1  0  0  0  0
 11  1  1  0  0  0  0
 11  6  2  0  0  0  0
 12 10  2  0  0  0  0
 12  7  1  0  0  0  0
 13 31  1  6  0  0  0
 13 14  1  0  0  0  0
 14 16  1  0  0  0  0
 15 17  1  0  0  0  0
 17 16  1  0  0  0  0
 17  1  2  0  0  0  0
 18 22  1  0  0  0  0
 19 24  1  0  0  0  0
 20 28  1  0  0  0  0
 21 20  1  0  0  0  0
 22 21  2  0  0  0  0
 23 25  1  0  0  0  0
 24 23  2  0  0  0  0
 24 22  1  0  0  0  0
 25 20  2  0  0  0  0
 26 19  2  0  0  0  0
 26 27  1  0  0  0  0
 27 18  2  0  0  0  0
 28 29  2  0  0  0  0
 28 30  1  0  0  0  0
 32 31  1  6  0  0  0
 33 34  1  0  0  0  0
 33 32  1  0  0  0  0
 34 32  1  0  0  0  0
M  END
>  <MODEL>
8

>  <REMARK>
 VINA RESULT:      -9.1      3.846      8.632
  Name = 
  4 active torsions:
  status: ('A' for Active; 'I' for Inactive)
    1  A    between atoms: C_3  and  N_25
    2  A    between atoms: C_7  and  C_11
    3  A    between atoms: C_18  and  C_30
    4  A    between atoms: C_23  and  N_25
                            x       y       z     vdW  Elec       q    Type
                         _______ _______ _______ _____ _____    ______ ____

>  <TORSDO>
F 4

$$$$
=
 OpenBabel10262423273D

 34 40  0  0  1  0  0  0  0  0999 V2000
  186.5360  178.2530  140.0690 C   0  0  0  0  0  0  0  0  0  0  0  0
  182.9110  179.0080  139.1090 C   0  0  0  0  0  2  0  0  0  0  0  0
  184.9980  178.7510  137.7700 C   0  0  0  0  0  3  0  0  0  0  0  0
  189.2650  177.7160  139.8880 N   0  0  0  0  0  0  0  0  0  0  0  0
  187.3360  178.0080  141.1940 O   0  0  0  0  0  0  0  0  0  0  0  0
  188.4990  177.9610  138.7010 C   0  0  0  0  0  0  0  0  0  0  0  0
  188.3460  178.1770  136.2900 C   0  0  0  0  0  3  0  0  0  0  0  0
  189.1070  177.9340  137.4420 C   0  0  0  0  0  3  0  0  0  0  0  0
  188.7100  177.7400  141.0680 C   0  0  0  0  0  0  0  0  0  0  0  0
  186.3620  178.4790  137.6480 C   0  0  0  0  0  0  0  0  0  0  0  0
  187.1280  178.2320  138.8020 C   0  0  0  0  0  0  0  0  0  0  0  0
  186.9770  178.4490  136.3920 C   0  0  0  0  0  3  0  0  0  0  0  0
  182.4590  179.4400  140.5010 C   0  0  2  0  0  3  0  0  0  0  0  0
  183.0330  178.4840  141.5390 C   0  0  0  0  0  2  0  0  0  0  0  0
  184.3960  178.7870  139.0340 C   0  0  0  0  0  0  0  0  0  0  0  0
  184.5520  178.6150  141.5680 C   0  0  0  0  0  2  0  0  0  0  0  0
  185.1630  178.5170  140.1940 C   0  0  0  0  0  0  0  0  0  0  0  0
  191.6800  177.0370  143.2930 C   0  0  0  0  0  3  0  0  0  0  0  0
  188.9180  177.4440  143.5430 C   0  0  0  0  0  3  0  0  0  0  0  0
  191.2590  176.7130  146.9590 C   0  0  0  0  0  0  0  0  0  0  0  0
  191.8570  176.7540  145.6920 C   0  0  0  0  0  3  0  0  0  0  0  0
  191.0830  176.9960  144.5540 C   0  0  0  0  0  0  0  0  0  0  0  0
  189.0940  177.1610  145.9420 C   0  0  0  0  0  3  0  0  0  0  0  0
  189.6910  177.2020  144.6800 C   0  0  0  0  0  0  0  0  0  0  0  0
  189.8750  176.9170  147.0770 C   0  0  0  0  0  3  0  0  0  0  0  0
  189.5170  177.4860  142.2740 C   0  0  0  0  0  0  0  0  0  0  0  0
  190.9000  177.2810  142.1580 C   0  0  0  0  0  3  0  0  0  0  0  0
  192.0790  176.4570  148.1540 C   0  0  0  0  0  0  0  0  0  0  0  0
  192.4690  175.2890  148.4230 O   0  0  0  0  0  0  0  0  0  0  0  0
  192.4300  177.5030  148.9990 O   0  0  0  0  0  1  0  0  0  0  0  0
  181.0080  179.4250  140.5640 N   0  0  0  0  0  2  0  0  0  0  0  0
  180.6410  179.3030  141.9640 C   0  0  1  0  0  3  0  0  0  0  0  0
  179.8960  180.5030  142.3740 N   0  0  0  0  0  2  0  0  0  0  0  0
  179.1890  179.2490  142.0820 C   0  0  0  0  0  2  0  0  0  0  0  0
  1 17  1  0  0  0  0
  1  5  1  0  0  0  0
  2 13  1  0  0  0  0
  3 15  1  0  0  0  0
  4  9  2  0  0  0  0
  6 11  1  0  0  0  0
  6  4  1  0  0  0  0
  7 12  2  0  0  0  0
  7  8  1  0  0  0  0
  8  6  2  0  0  0  0
  9  5  1  0  0  0  0
  9 26  1  0  0  0  0
 10  3  2  0  0  0  0
 10 11  1  0  0  0  0
 11  1  2  0  0  0  0
 12 10  1  0  0  0  0
 13 31  1  6  0  0  0
 13 14  1  0  0  0  0
 14 16  1  0  0  0  0
 15  2  1  0  0  0  0
 15 17  2  0  0  0  0
 17 16  1  0  0  0  0
 18 22  1  0  0  0  0
 19 24  1  0  0  0  0
 20 25  1  0  0  0  0
 20 28  1  0  0  0  0
 21 20  2  0  0  0  0
 22 24  2  0  0  0  0
 22 21  1  0  0  0  0
 23 25  2  0  0  0  0
 24 23  1  0  0  0  0
 26 19  2  0  0  0  0
 27 26  1  0  0  0  0
 27 18  2  0  0  0  0
 28 29  2  0  0  0  0
 28 30  1  0  0  0  0
 32 31  1  6  0  0  0
 32 34  1  0  0  0  0
 32 33  1  0  0  0  0
 34 33  1  0  0  0  0
M  END
>  <MODEL>
9

>  <REMARK>
 VINA RESULT:      -9.0      3.143      6.871
  Name = 
  4 active torsions:
  status: ('A' for Active; 'I' for Inactive)
    1  A    between atoms: C_3  and  N_25
    2  A    between atoms: C_7  and  C_11
    3  A    between atoms: C_18  and  C_30
    4  A    between atoms: C_23  and  N_25
                            x       y       z     vdW  Elec       q    Type
                         _______ _______ _______ _____ _____    ______ ____

>  <TORSDO>
F 4

$$$$
