=
 OpenBabel10262421143D

 32 37  0  0  1  0  0  0  0  0999 V2000
  188.9740  177.5160  141.4210 C   0  0  1  0  0  3  0  0  0  0  0  0
  187.2300  177.8290  143.3260 C   0  0  0  0  0  0  0  0  0  0  0  0
  190.4890  177.3810  141.1890 C   0  0  0  0  0  2  0  0  0  0  0  0
  188.5550  177.5340  142.8970 C   0  0  0  0  0  0  0  0  0  0  0  0
  186.9170  177.8240  144.7140 C   0  0  0  0  0  0  0  0  0  0  0  0
  182.6260  179.0250  142.3380 C   0  0  0  0  0  3  0  0  0  0  0  0
  186.2100  178.1230  142.4070 C   0  0  0  0  0  3  0  0  0  0  0  0
  183.3190  178.7240  144.6390 C   0  0  0  0  0  3  0  0  0  0  0  0
  184.6150  178.4240  144.2100 C   0  0  0  0  0  0  0  0  0  0  0  0
  189.5000  177.1280  143.8710 C   0  0  0  0  0  0  0  0  0  0  0  0
  185.6100  178.1230  145.1360 C   0  0  0  0  0  3  0  0  0  0  0  0
  189.1780  177.1350  145.2260 C   0  0  0  0  0  3  0  0  0  0  0  0
  190.7940  176.6660  143.4810 N   0  0  0  0  0  2  0  0  0  0  0  0
  184.9160  178.4180  142.8330 C   0  0  0  0  0  0  0  0  0  0  0  0
  187.9040  177.4910  145.6590 C   0  0  0  0  0  0  0  0  0  0  0  0
  191.0790  176.3220  142.0970 C   0  0  0  0  0  2  0  0  0  0  0  0
  182.3260  179.0240  143.7040 C   0  0  0  0  0  3  0  0  0  0  0  0
  183.9200  178.7220  141.9010 C   0  0  0  0  0  3  0  0  0  0  0  0
  188.0940  178.2370  139.0430 C   0  0  1  0  0  3  0  0  0  0  0  0
  187.0620  178.0940  139.9950 O   0  0  0  0  0  0  0  0  0  0  0  0
  188.2950  178.5610  140.4940 C   0  0  1  0  0  3  0  0  0  0  0  0
  189.6650  176.9470  137.4600 C   0  0  2  0  0  0  0  0  0  0  0  0
  187.5150  174.9170  135.8610 O   0  0  0  0  0  1  0  0  0  0  0  0
  189.4370  178.1300  136.5220 C   0  0  0  0  0  1  0  0  0  0  0  0
  187.5320  176.0140  137.9700 C   0  0  0  0  0  2  0  0  0  0  0  0
  189.5500  175.7200  136.6750 N   0  0  0  0  0  2  0  0  0  0  0  0
  188.6150  176.8660  138.5740 C   0  0  2  0  0  3  0  0  0  0  0  0
  188.2720  175.1020  137.0170 C   0  0  2  0  0  3  0  0  0  0  0  0
  191.0650  177.0670  138.0490 C   0  0  0  0  0  2  0  0  0  0  0  0
  191.6370  175.8070  138.2460 O   0  0  0  0  0  1  0  0  0  0  0  0
  187.6350  177.5120  147.1310 C   0  0  0  0  0  2  0  0  0  0  0  0
  188.8980  177.8750  147.8880 C   0  0  0  0  0  1  0  0  0  0  0  0
  1  3  1  1  0  0  0
  1  4  1  0  0  0  0
  2  5  1  0  0  0  0
  3 16  1  0  0  0  0
  4  2  2  0  0  0  0
  4 10  1  0  0  0  0
  5 11  1  0  0  0  0
  5 15  2  0  0  0  0
  6 17  1  0  0  0  0
  7 14  2  0  0  0  0
  7  2  1  0  0  0  0
  9  8  1  0  0  0  0
  9 11  2  0  0  0  0
 10 12  2  0  0  0  0
 12 15  1  0  0  0  0
 13 10  1  0  0  0  0
 14  9  1  0  0  0  0
 15 31  1  0  0  0  0
 16 13  1  0  0  0  0
 17  8  2  0  0  0  0
 18  6  2  0  0  0  0
 18 14  1  0  0  0  0
 19 20  1  1  0  0  0
 19 21  1  0  0  0  0
 21 20  1  1  0  0  0
 21  1  1  0  0  0  0
 22 24  1  6  0  0  0
 22 29  1  0  0  0  0
 22 27  1  0  0  0  0
 26 28  1  0  0  0  0
 26 22  1  0  0  0  0
 27 25  1  6  0  0  0
 27 19  1  0  0  0  0
 28 23  1  6  0  0  0
 28 25  1  0  0  0  0
 29 30  1  0  0  0  0
 31 32  1  0  0  0  0
M  END
>  <MODEL>
1

>  <REMARK>
 VINA RESULT:     -10.0      0.000      0.000
  Name = 
  4 active torsions:
  status: ('A' for Active; 'I' for Inactive)
    1  A    between atoms: C_1  and  C_27
    2  A    between atoms: C_3  and  C_22
    3  A    between atoms: C_13  and  C_29
    4  A    between atoms: C_16  and  C_20
                            x       y       z     vdW  Elec       q    Type
                         _______ _______ _______ _____ _____    ______ ____

>  <TORSDO>
F 4

$$$$
=
 OpenBabel10262421143D

 32 37  0  0  1  0  0  0  0  0999 V2000
  184.0920  178.6200  142.5180 C   0  0  1  0  0  3  0  0  0  0  0  0
  186.5380  178.0800  143.2200 C   0  0  0  0  0  0  0  0  0  0  0  0
  182.6640  178.6810  143.0890 C   0  0  0  0  0  2  0  0  0  0  0  0
  185.1840  178.3500  143.5620 C   0  0  0  0  0  0  0  0  0  0  0  0
  187.4960  177.8410  144.2450 C   0  0  0  0  0  0  0  0  0  0  0  0
  190.0190  177.4500  139.8880 C   0  0  0  0  0  3  0  0  0  0  0  0
  186.9630  178.0460  141.8810 C   0  0  0  0  0  3  0  0  0  0  0  0
  190.5600  177.2490  142.2400 C   0  0  0  0  0  3  0  0  0  0  0  0
  189.2300  177.5260  142.5700 C   0  0  0  0  0  0  0  0  0  0  0  0
  184.8540  178.4880  144.9330 C   0  0  0  0  0  0  0  0  0  0  0  0
  188.8310  177.5660  143.9030 C   0  0  0  0  0  3  0  0  0  0  0  0
  185.8020  178.2440  145.9240 C   0  0  0  0  0  3  0  0  0  0  0  0
  183.5500  178.9170  145.3280 N   0  0  0  0  0  2  0  0  0  0  0  0
  188.2900  177.7740  141.5500 C   0  0  0  0  0  0  0  0  0  0  0  0
  187.1130  177.9100  145.5960 C   0  0  0  0  0  0  0  0  0  0  0  0
  182.6300  179.4980  144.3640 C   0  0  0  0  0  2  0  0  0  0  0  0
  190.9530  177.2100  140.9010 C   0  0  0  0  0  3  0  0  0  0  0  0
  188.6870  177.7320  140.2110 C   0  0  0  0  0  3  0  0  0  0  0  0
  183.1070  177.9680  140.1610 C   0  0  1  0  0  3  0  0  0  0  0  0
  184.3180  178.6870  140.0760 O   0  0  0  0  0  0  0  0  0  0  0  0
  184.1940  177.8280  141.1860 C   0  0  1  0  0  3  0  0  0  0  0  0
  180.5540  178.3030  140.2260 C   0  0  2  0  0  0  0  0  0  0  0  0
  180.1900  181.1580  138.4870 O   0  0  0  0  0  1  0  0  0  0  0  0
  180.5620  177.4070  138.9900 C   0  0  0  0  0  1  0  0  0  0  0  0
  181.9460  180.1810  139.7600 C   0  0  0  0  0  2  0  0  0  0  0  0
  179.6590  179.4280  139.9620 N   0  0  0  0  0  2  0  0  0  0  0  0
  181.9340  178.8930  140.5360 C   0  0  2  0  0  3  0  0  0  0  0  0
  180.4940  180.6040  139.7300 C   0  0  2  0  0  3  0  0  0  0  0  0
  180.0410  177.4860  141.4050 C   0  0  0  0  0  2  0  0  0  0  0  0
  178.9320  178.0980  141.9950 O   0  0  0  0  0  1  0  0  0  0  0  0
  188.0720  177.6270  146.7100 C   0  0  0  0  0  2  0  0  0  0  0  0
  187.5820  178.2640  147.9960 C   0  0  0  0  0  1  0  0  0  0  0  0
  1  3  1  1  0  0  0
  1  4  1  0  0  0  0
  2  4  2  0  0  0  0
  2  5  1  0  0  0  0
  3 16  1  0  0  0  0
  4 10  1  0  0  0  0
  5 15  2  0  0  0  0
  6 18  2  0  0  0  0
  6 17  1  0  0  0  0
  7  2  1  0  0  0  0
  8  9  1  0  0  0  0
  9 11  2  0  0  0  0
 10 13  1  0  0  0  0
 10 12  2  0  0  0  0
 11  5  1  0  0  0  0
 14  7  2  0  0  0  0
 14  9  1  0  0  0  0
 15 12  1  0  0  0  0
 15 31  1  0  0  0  0
 16 13  1  0  0  0  0
 17  8  2  0  0  0  0
 18 14  1  0  0  0  0
 19 20  1  6  0  0  0
 19 27  1  0  0  0  0
 19 21  1  0  0  0  0
 21 20  1  6  0  0  0
 21  1  1  0  0  0  0
 22 24  1  6  0  0  0
 22 27  1  0  0  0  0
 22 29  1  0  0  0  0
 26 22  1  0  0  0  0
 27 25  1  6  0  0  0
 28 23  1  6  0  0  0
 28 25  1  0  0  0  0
 28 26  1  0  0  0  0
 29 30  1  0  0  0  0
 31 32  1  0  0  0  0
M  END
>  <MODEL>
2

>  <REMARK>
 VINA RESULT:      -9.0      3.550      6.959
  Name = 
  4 active torsions:
  status: ('A' for Active; 'I' for Inactive)
    1  A    between atoms: C_1  and  C_27
    2  A    between atoms: C_3  and  C_22
    3  A    between atoms: C_13  and  C_29
    4  A    between atoms: C_16  and  C_20
                            x       y       z     vdW  Elec       q    Type
                         _______ _______ _______ _____ _____    ______ ____

>  <TORSDO>
F 4

$$$$
=
 OpenBabel10262421143D

 32 37  0  0  1  0  0  0  0  0999 V2000
  189.2760  177.5660  139.7470 C   0  0  1  0  0  3  0  0  0  0  0  0
  188.6260  177.7670  142.2580 C   0  0  0  0  0  0  0  0  0  0  0  0
  190.5060  177.5370  138.8230 C   0  0  0  0  0  2  0  0  0  0  0  0
  189.6050  177.5640  141.2450 C   0  0  0  0  0  0  0  0  0  0  0  0
  189.0070  177.7490  143.6280 C   0  0  0  0  0  0  0  0  0  0  0  0
  184.0340  178.6280  143.5960 C   0  0  0  0  0  3  0  0  0  0  0  0
  187.2750  177.9820  141.9380 C   0  0  0  0  0  3  0  0  0  0  0  0
  185.7510  178.3920  145.2870 C   0  0  0  0  0  3  0  0  0  0  0  0
  186.7070  178.1810  144.2880 C   0  0  0  0  0  0  0  0  0  0  0  0
  190.9230  177.2330  141.6460 C   0  0  0  0  0  0  0  0  0  0  0  0
  188.0390  177.9580  144.6260 C   0  0  0  0  0  3  0  0  0  0  0  0
  191.2810  177.2260  142.9920 C   0  0  0  0  0  3  0  0  0  0  0  0
  191.9050  176.8610  140.6780 N   0  0  0  0  0  2  0  0  0  0  0  0
  186.3200  178.1880  142.9330 C   0  0  0  0  0  0  0  0  0  0  0  0
  190.3430  177.4930  143.9850 C   0  0  0  0  0  0  0  0  0  0  0  0
  191.5230  176.5280  139.3140 C   0  0  0  0  0  2  0  0  0  0  0  0
  184.4170  178.6150  144.9400 C   0  0  0  0  0  3  0  0  0  0  0  0
  184.9840  178.4140  142.5910 C   0  0  0  0  0  3  0  0  0  0  0  0
  187.4010  178.2580  138.0270 C   0  0  1  0  0  3  0  0  0  0  0  0
  186.8940  177.9620  139.3100 O   0  0  0  0  0  0  0  0  0  0  0  0
  188.1730  178.5540  139.2790 C   0  0  1  0  0  3  0  0  0  0  0  0
  187.9990  177.1750  135.7680 C   0  0  2  0  0  0  0  0  0  0  0  0
  185.7160  174.7160  135.5570 O   0  0  0  0  0  1  0  0  0  0  0  0
  187.0800  178.2470  135.1880 C   0  0  0  0  0  1  0  0  0  0  0  0
  186.7300  175.9150  137.3430 C   0  0  0  0  0  2  0  0  0  0  0  0
  187.6780  175.9050  135.1200 N   0  0  0  0  0  2  0  0  0  0  0  0
  187.7960  176.9740  137.2740 C   0  0  2  0  0  3  0  0  0  0  0  0
  186.9480  175.0940  136.0910 C   0  0  2  0  0  3  0  0  0  0  0  0
  189.4410  177.5690  135.4680 C   0  0  0  0  0  2  0  0  0  0  0  0
  190.2690  176.4450  135.4220 O   0  0  0  0  0  1  0  0  0  0  0  0
  190.8020  177.5040  145.4090 C   0  0  0  0  0  2  0  0  0  0  0  0
  191.6810  176.3000  145.6840 C   0  0  0  0  0  1  0  0  0  0  0  0
  1  3  1  6  0  0  0
  1  4  1  0  0  0  0
  2  5  1  0  0  0  0
  3 16  1  0  0  0  0
  4 10  2  0  0  0  0
  4  2  1  0  0  0  0
  5 15  1  0  0  0  0
  5 11  2  0  0  0  0
  6 17  1  0  0  0  0
  7  2  2  0  0  0  0
  7 14  1  0  0  0  0
  9 11  1  0  0  0  0
  9  8  1  0  0  0  0
 10 12  1  0  0  0  0
 12 15  2  0  0  0  0
 13 10  1  0  0  0  0
 14  9  2  0  0  0  0
 15 31  1  0  0  0  0
 16 13  1  0  0  0  0
 17  8  2  0  0  0  0
 18 14  1  0  0  0  0
 18  6  2  0  0  0  0
 19 21  1  0  0  0  0
 19 20  1  1  0  0  0
 21 20  1  1  0  0  0
 21  1  1  0  0  0  0
 22 24  1  6  0  0  0
 22 27  1  0  0  0  0
 26 22  1  0  0  0  0
 26 28  1  0  0  0  0
 27 25  1  6  0  0  0
 27 19  1  0  0  0  0
 28 23  1  6  0  0  0
 28 25  1  0  0  0  0
 29 22  1  0  0  0  0
 30 29  1  0  0  0  0
 31 32  1  0  0  0  0
M  END
>  <MODEL>
3

>  <REMARK>
 VINA RESULT:      -8.9      1.561      2.339
  Name = 
  4 active torsions:
  status: ('A' for Active; 'I' for Inactive)
    1  A    between atoms: C_1  and  C_27
    2  A    between atoms: C_3  and  C_22
    3  A    between atoms: C_13  and  C_29
    4  A    between atoms: C_16  and  C_20
                            x       y       z     vdW  Elec       q    Type
                         _______ _______ _______ _____ _____    ______ ____

>  <TORSDO>
F 4

$$$$
=
 OpenBabel10262421143D

 32 37  0  0  1  0  0  0  0  0999 V2000
  186.0200  178.2520  140.1120 C   0  0  1  0  0  3  0  0  0  0  0  0
  187.8690  177.8800  141.9030 C   0  0  0  0  0  0  0  0  0  0  0  0
  185.8400  178.6280  138.6310 C   0  0  0  0  0  2  0  0  0  0  0  0
  187.4770  178.0530  140.5460 C   0  0  0  0  0  0  0  0  0  0  0  0
  189.2420  177.6980  142.2290 C   0  0  0  0  0  0  0  0  0  0  0  0
  186.7600  177.5740  146.6240 C   0  0  0  0  0  3  0  0  0  0  0  0
  186.9260  177.8780  142.9440 C   0  0  0  0  0  3  0  0  0  0  0  0
  189.0700  177.3880  145.9210 C   0  0  0  0  0  3  0  0  0  0  0  0
  188.6770  177.5480  144.5890 C   0  0  0  0  0  0  0  0  0  0  0  0
  188.4680  177.9220  139.5420 C   0  0  0  0  0  0  0  0  0  0  0  0
  189.6270  177.5350  143.5700 C   0  0  0  0  0  3  0  0  0  0  0  0
  189.8090  177.7510  139.8770 C   0  0  0  0  0  3  0  0  0  0  0  0
  188.1070  177.9250  138.1600 N   0  0  0  0  0  2  0  0  0  0  0  0
  187.3140  177.7150  144.2730 C   0  0  0  0  0  0  0  0  0  0  0  0
  190.2080  177.6510  141.2070 C   0  0  0  0  0  0  0  0  0  0  0  0
  186.7210  177.7680  137.7480 C   0  0  0  0  0  2  0  0  0  0  0  0
  188.1120  177.4020  146.9370 C   0  0  0  0  0  3  0  0  0  0  0  0
  186.3600  177.7300  145.2930 C   0  0  0  0  0  3  0  0  0  0  0  0
  183.6240  179.0060  140.9150 C   0  0  1  0  0  3  0  0  0  0  0  0
  184.3120  178.2330  141.8750 O   0  0  0  0  0  0  0  0  0  0  0  0
  185.1140  179.0710  141.0730 C   0  0  1  0  0  3  0  0  0  0  0  0
  181.8110  178.6500  139.1200 C   0  0  2  0  0  0  0  0  0  0  0  0
  180.6830  175.5760  139.8810 O   0  0  0  0  0  1  0  0  0  0  0  0
  180.9030  179.3650  140.1180 C   0  0  0  0  0  1  0  0  0  0  0  0
  182.7270  176.7440  140.2180 C   0  0  0  0  0  2  0  0  0  0  0  0
  181.0900  177.4880  138.6050 N   0  0  0  0  0  2  0  0  0  0  0  0
  183.1000  178.1280  139.7630 C   0  0  2  0  0  3  0  0  0  0  0  0
  181.6760  176.3020  139.2240 C   0  0  2  0  0  3  0  0  0  0  0  0
  182.1300  179.6180  137.9870 C   0  0  0  0  0  2  0  0  0  0  0  0
  181.9370  180.9420  138.3880 O   0  0  0  0  0  1  0  0  0  0  0  0
  191.6680  177.5030  141.5000 C   0  0  0  0  0  2  0  0  0  0  0  0
  192.4620  177.5030  140.2080 C   0  0  0  0  0  1  0  0  0  0  0  0
  1  3  1  6  0  0  0
  1  4  1  0  0  0  0
  1 21  1  0  0  0  0
  2  5  2  0  0  0  0
  2  7  1  0  0  0  0
  4  2  1  0  0  0  0
  5 11  1  0  0  0  0
  6 17  1  0  0  0  0
  7 14  2  0  0  0  0
  8 17  2  0  0  0  0
  9  8  1  0  0  0  0
 10 12  1  0  0  0  0
 10  4  2  0  0  0  0
 11  9  2  0  0  0  0
 12 15  2  0  0  0  0
 13 10  1  0  0  0  0
 14  9  1  0  0  0  0
 14 18  1  0  0  0  0
 15 31  1  0  0  0  0
 15  5  1  0  0  0  0
 16 13  1  0  0  0  0
 16  3  1  0  0  0  0
 18  6  2  0  0  0  0
 19 21  1  0  0  0  0
 19 20  1  1  0  0  0
 21 20  1  1  0  0  0
 22 27  1  0  0  0  0
 22 24  1  1  0  0  0
 26 22  1  0  0  0  0
 26 28  1  0  0  0  0
 27 25  1  1  0  0  0
 27 19  1  0  0  0  0
 28 23  1  1  0  0  0
 28 25  1  0  0  0  0
 29 30  1  0  0  0  0
 29 22  1  0  0  0  0
 32 31  1  0  0  0  0
M  END
>  <MODEL>
4

>  <REMARK>
 VINA RESULT:      -8.8      2.998      6.070
  Name = 
  4 active torsions:
  status: ('A' for Active; 'I' for Inactive)
    1  A    between atoms: C_1  and  C_27
    2  A    between atoms: C_3  and  C_22
    3  A    between atoms: C_13  and  C_29
    4  A    between atoms: C_16  and  C_20
                            x       y       z     vdW  Elec       q    Type
                         _______ _______ _______ _____ _____    ______ ____

>  <TORSDO>
F 4

$$$$
=
 OpenBabel10262421143D

 32 37  0  0  1  0  0  0  0  0999 V2000
  186.5450  178.1360  140.8740 C   0  0  1  0  0  3  0  0  0  0  0  0
  184.7500  178.4120  142.7360 C   0  0  0  0  0  0  0  0  0  0  0  0
  188.0690  178.1630  140.6610 C   0  0  0  0  0  2  0  0  0  0  0  0
  186.1050  178.2400  142.3400 C   0  0  0  0  0  0  0  0  0  0  0  0
  184.4180  178.4980  144.1170 C   0  0  0  0  0  0  0  0  0  0  0  0
  180.0500  178.9520  141.6250 C   0  0  0  0  0  3  0  0  0  0  0  0
  183.7150  178.4960  141.7900 C   0  0  0  0  0  3  0  0  0  0  0  0
  180.7400  178.9500  143.9460 C   0  0  0  0  0  3  0  0  0  0  0  0
  182.0690  178.7690  143.5510 C   0  0  0  0  0  0  0  0  0  0  0  0
  187.0780  178.0420  143.3510 C   0  0  0  0  0  0  0  0  0  0  0  0
  183.0800  178.6770  144.5050 C   0  0  0  0  0  3  0  0  0  0  0  0
  186.7390  178.1360  144.6990 C   0  0  0  0  0  3  0  0  0  0  0  0
  188.4230  177.7040  143.0100 N   0  0  0  0  0  2  0  0  0  0  0  0
  182.3890  178.6720  142.1820 C   0  0  0  0  0  0  0  0  0  0  0  0
  185.4250  178.3750  145.0920 C   0  0  0  0  0  0  0  0  0  0  0  0
  188.7680  177.2710  141.6650 C   0  0  0  0  0  2  0  0  0  0  0  0
  179.7330  179.0410  142.9840 C   0  0  0  0  0  3  0  0  0  0  0  0
  181.3770  178.7670  141.2220 C   0  0  0  0  0  3  0  0  0  0  0  0
  185.8110  178.6470  138.3940 C   0  0  1  0  0  3  0  0  0  0  0  0
  184.7340  178.2680  139.2230 O   0  0  0  0  0  0  0  0  0  0  0  0
  185.7610  179.0020  139.8510 C   0  0  1  0  0  3  0  0  0  0  0  0
  187.6770  177.7080  136.8870 C   0  0  2  0  0  0  0  0  0  0  0  0
  186.1560  175.0620  135.4760 O   0  0  0  0  0  1  0  0  0  0  0  0
  187.1450  178.7130  135.8680 C   0  0  0  0  0  1  0  0  0  0  0  0
  185.8690  176.2810  137.4980 C   0  0  0  0  0  2  0  0  0  0  0  0
  187.8990  176.4390  136.1960 N   0  0  0  0  0  2  0  0  0  0  0  0
  186.6820  177.4330  138.0200 C   0  0  2  0  0  3  0  0  0  0  0  0
  186.8300  175.5300  136.6030 C   0  0  2  0  0  3  0  0  0  0  0  0
  188.9910  178.2420  137.4430 C   0  0  0  0  0  2  0  0  0  0  0  0
  189.0000  179.6390  137.4580 O   0  0  0  0  0  1  0  0  0  0  0  0
  185.1340  178.4990  146.5540 C   0  0  0  0  0  2  0  0  0  0  0  0
  186.4290  178.5570  147.3410 C   0  0  0  0  0  1  0  0  0  0  0  0
  1  3  1  1  0  0  0
  1  4  1  0  0  0  0
  2  5  1  0  0  0  0
  3 16  1  0  0  0  0
  4  2  2  0  0  0  0
  4 10  1  0  0  0  0
  5 11  1  0  0  0  0
  5 15  2  0  0  0  0
  6 17  1  0  0  0  0
  7 14  2  0  0  0  0
  7  2  1  0  0  0  0
  9  8  1  0  0  0  0
  9 11  2  0  0  0  0
 10 12  2  0  0  0  0
 12 15  1  0  0  0  0
 13 10  1  0  0  0  0
 14  9  1  0  0  0  0
 15 31  1  0  0  0  0
 16 13  1  0  0  0  0
 17  8  2  0  0  0  0
 18  6  2  0  0  0  0
 18 14  1  0  0  0  0
 19 20  1  1  0  0  0
 19 21  1  0  0  0  0
 21 20  1  1  0  0  0
 21  1  1  0  0  0  0
 22 24  1  6  0  0  0
 22 29  1  0  0  0  0
 22 27  1  0  0  0  0
 26 28  1  0  0  0  0
 26 22  1  0  0  0  0
 27 25  1  6  0  0  0
 27 19  1  0  0  0  0
 28 23  1  6  0  0  0
 28 25  1  0  0  0  0
 29 30  1  0  0  0  0
 31 32  1  0  0  0  0
M  END
>  <MODEL>
5

>  <REMARK>
 VINA RESULT:      -8.8      1.753      2.580
  Name = 
  4 active torsions:
  status: ('A' for Active; 'I' for Inactive)
    1  A    between atoms: C_1  and  C_27
    2  A    between atoms: C_3  and  C_22
    3  A    between atoms: C_13  and  C_29
    4  A    between atoms: C_16  and  C_20
                            x       y       z     vdW  Elec       q    Type
                         _______ _______ _______ _____ _____    ______ ____

>  <TORSDO>
F 4

$$$$
=
 OpenBabel10262421143D

 32 37  0  0  1  0  0  0  0  0999 V2000
  187.4350  178.0650  140.9880 C   0  0  1  0  0  3  0  0  0  0  0  0
  188.3660  177.6390  143.3800 C   0  0  0  0  0  0  0  0  0  0  0  0
  187.8910  178.1620  139.5220 C   0  0  0  0  0  2  0  0  0  0  0  0
  188.5300  177.6200  141.9670 C   0  0  0  0  0  0  0  0  0  0  0  0
  189.4270  177.2080  144.2240 C   0  0  0  0  0  0  0  0  0  0  0  0
  185.6780  178.5750  147.3180 C   0  0  0  0  0  3  0  0  0  0  0  0
  187.1690  178.0730  143.9730 C   0  0  0  0  0  3  0  0  0  0  0  0
  187.9240  177.7090  147.5790 C   0  0  0  0  0  3  0  0  0  0  0  0
  188.0750  177.6810  146.1890 C   0  0  0  0  0  0  0  0  0  0  0  0
  189.7170  177.0560  141.4390 C   0  0  0  0  0  0  0  0  0  0  0  0
  189.2660  177.2360  145.6200 C   0  0  0  0  0  3  0  0  0  0  0  0
  190.7500  176.6450  142.2790 C   0  0  0  0  0  3  0  0  0  0  0  0
  189.8670  176.8620  140.0310 N   0  0  0  0  0  2  0  0  0  0  0  0
  187.0150  178.0980  145.3590 C   0  0  0  0  0  0  0  0  0  0  0  0
  190.6230  176.7270  143.6620 C   0  0  0  0  0  0  0  0  0  0  0  0
  188.7240  176.9570  139.1370 C   0  0  0  0  0  2  0  0  0  0  0  0
  186.7270  178.1560  148.1420 C   0  0  0  0  0  3  0  0  0  0  0  0
  185.8200  178.5460  145.9270 C   0  0  0  0  0  3  0  0  0  0  0  0
  185.0910  179.2700  141.0580 C   0  0  1  0  0  3  0  0  0  0  0  0
  185.5290  178.8360  142.3270 O   0  0  0  0  0  0  0  0  0  0  0  0
  186.5420  179.2520  141.4400 C   0  0  1  0  0  3  0  0  0  0  0  0
  184.0800  178.4930  138.8200 C   0  0  2  0  0  0  0  0  0  0  0  0
  181.3230  176.8600  139.8400 O   0  0  0  0  0  1  0  0  0  0  0  0
  183.4150  179.8670  138.8220 C   0  0  0  0  0  1  0  0  0  0  0  0
  183.4270  177.3770  140.8220 C   0  0  0  0  0  2  0  0  0  0  0  0
  183.0730  177.5050  138.4350 N   0  0  0  0  0  2  0  0  0  0  0  0
  184.6000  178.0860  140.2030 C   0  0  2  0  0  3  0  0  0  0  0  0
  182.7010  176.7700  139.6420 C   0  0  2  0  0  3  0  0  0  0  0  0
  185.2140  178.5110  137.8030 C   0  0  0  0  0  2  0  0  0  0  0  0
  185.1110  177.4380  136.9150 O   0  0  0  0  0  1  0  0  0  0  0  0
  191.7830  176.3010  144.5060 C   0  0  0  0  0  2  0  0  0  0  0  0
  192.0320  174.8140  144.3410 C   0  0  0  0  0  1  0  0  0  0  0  0
  1  3  1  6  0  0  0
  1 21  1  0  0  0  0
  1  4  1  0  0  0  0
  2  7  2  0  0  0  0
  2  5  1  0  0  0  0
  4  2  1  0  0  0  0
  5 11  2  0  0  0  0
  6 17  1  0  0  0  0
  7 14  1  0  0  0  0
  8 17  2  0  0  0  0
  9  8  1  0  0  0  0
 10  4  2  0  0  0  0
 10 12  1  0  0  0  0
 11  9  1  0  0  0  0
 12 15  2  0  0  0  0
 13 10  1  0  0  0  0
 14 18  1  0  0  0  0
 14  9  2  0  0  0  0
 15  5  1  0  0  0  0
 15 31  1  0  0  0  0
 16  3  1  0  0  0  0
 16 13  1  0  0  0  0
 18  6  2  0  0  0  0
 19 21  1  0  0  0  0
 19 20  1  1  0  0  0
 21 20  1  1  0  0  0
 22 24  1  1  0  0  0
 22 27  1  0  0  0  0
 26 22  1  0  0  0  0
 26 28  1  0  0  0  0
 27 25  1  1  0  0  0
 27 19  1  0  0  0  0
 28 23  1  1  0  0  0
 28 25  1  0  0  0  0
 29 22  1  0  0  0  0
 30 29  1  0  0  0  0
 32 31  1  0  0  0  0
M  END
>  <MODEL>
6

>  <REMARK>
 VINA RESULT:      -8.7      2.495      4.646
  Name = 
  4 active torsions:
  status: ('A' for Active; 'I' for Inactive)
    1  A    between atoms: C_1  and  C_27
    2  A    between atoms: C_3  and  C_22
    3  A    between atoms: C_13  and  C_29
    4  A    between atoms: C_16  and  C_20
                            x       y       z     vdW  Elec       q    Type
                         _______ _______ _______ _____ _____    ______ ____

>  <TORSDO>
F 4

$$$$
=
 OpenBabel10262421143D

 32 37  0  0  1  0  0  0  0  0999 V2000
  186.5350  178.0560  139.9530 C   0  0  1  0  0  3  0  0  0  0  0  0
  187.3740  177.9440  142.4130 C   0  0  0  0  0  0  0  0  0  0  0  0
  187.0570  178.1470  138.5090 C   0  0  0  0  0  2  0  0  0  0  0  0
  187.6270  177.8710  141.0150 C   0  0  0  0  0  0  0  0  0  0  0  0
  188.4400  177.7580  143.3380 C   0  0  0  0  0  0  0  0  0  0  0  0
  184.3240  178.6150  146.1360 C   0  0  0  0  0  3  0  0  0  0  0  0
  186.0850  178.1910  142.9130 C   0  0  0  0  0  3  0  0  0  0  0  0
  186.6660  178.1790  146.5690 C   0  0  0  0  0  3  0  0  0  0  0  0
  186.9060  178.0970  145.1940 C   0  0  0  0  0  0  0  0  0  0  0  0
  188.9250  177.4980  140.5880 C   0  0  0  0  0  0  0  0  0  0  0  0
  188.1890  177.8390  144.7180 C   0  0  0  0  0  3  0  0  0  0  0  0
  189.9590  177.3260  141.5060 C   0  0  0  0  0  3  0  0  0  0  0  0
  189.1940  177.2510  139.2060 N   0  0  0  0  0  2  0  0  0  0  0  0
  185.8430  178.2690  144.2840 C   0  0  0  0  0  0  0  0  0  0  0  0
  189.7340  177.4650  142.8720 C   0  0  0  0  0  0  0  0  0  0  0  0
  188.1090  177.0890  138.2510 C   0  0  0  0  0  2  0  0  0  0  0  0
  185.3770  178.4380  147.0380 C   0  0  0  0  0  3  0  0  0  0  0  0
  184.5550  178.5310  144.7580 C   0  0  0  0  0  3  0  0  0  0  0  0
  184.0020  178.7880  139.8960 C   0  0  1  0  0  3  0  0  0  0  0  0
  184.4900  178.5820  141.2040 O   0  0  0  0  0  0  0  0  0  0  0  0
  185.4220  179.0900  140.2760 C   0  0  1  0  0  3  0  0  0  0  0  0
  183.0800  177.5930  137.8090 C   0  0  2  0  0  0  0  0  0  0  0  0
  180.8670  175.4530  139.1620 O   0  0  0  0  0  1  0  0  0  0  0  0
  182.1030  178.7660  137.7610 C   0  0  0  0  0  1  0  0  0  0  0  0
  182.8360  176.5420  139.9330 C   0  0  0  0  0  2  0  0  0  0  0  0
  182.3220  176.3640  137.5790 N   0  0  0  0  0  2  0  0  0  0  0  0
  183.7630  177.4490  139.1730 C   0  0  2  0  0  3  0  0  0  0  0  0
  182.2110  175.6750  138.8620 C   0  0  2  0  0  3  0  0  0  0  0  0
  184.1140  177.7880  136.7070 C   0  0  0  0  0  2  0  0  0  0  0  0
  184.7780  176.5910  136.4240 O   0  0  0  0  0  1  0  0  0  0  0  0
  190.8950  177.3020  143.8010 C   0  0  0  0  0  2  0  0  0  0  0  0
  191.5920  178.6330  144.0060 C   0  0  0  0  0  1  0  0  0  0  0  0
  1  3  1  6  0  0  0
  1 21  1  0  0  0  0
  1  4  1  0  0  0  0
  2  7  2  0  0  0  0
  2  5  1  0  0  0  0
  4  2  1  0  0  0  0
  5 11  2  0  0  0  0
  6 17  1  0  0  0  0
  7 14  1  0  0  0  0
  8 17  2  0  0  0  0
  9  8  1  0  0  0  0
 10  4  2  0  0  0  0
 10 12  1  0  0  0  0
 11  9  1  0  0  0  0
 12 15  2  0  0  0  0
 13 10  1  0  0  0  0
 14 18  1  0  0  0  0
 14  9  2  0  0  0  0
 15  5  1  0  0  0  0
 15 31  1  0  0  0  0
 16  3  1  0  0  0  0
 16 13  1  0  0  0  0
 18  6  2  0  0  0  0
 19 21  1  0  0  0  0
 19 20  1  1  0  0  0
 21 20  1  1  0  0  0
 22 24  1  1  0  0  0
 22 27  1  0  0  0  0
 26 22  1  0  0  0  0
 26 28  1  0  0  0  0
 27 19  1  0  0  0  0
 27 25  1  1  0  0  0
 28 23  1  1  0  0  0
 28 25  1  0  0  0  0
 29 22  1  0  0  0  0
 30 29  1  0  0  0  0
 31 32  1  0  0  0  0
M  END
>  <MODEL>
7

>  <REMARK>
 VINA RESULT:      -8.6      2.860      4.605
  Name = 
  4 active torsions:
  status: ('A' for Active; 'I' for Inactive)
    1  A    between atoms: C_1  and  C_27
    2  A    between atoms: C_3  and  C_22
    3  A    between atoms: C_13  and  C_29
    4  A    between atoms: C_16  and  C_20
                            x       y       z     vdW  Elec       q    Type
                         _______ _______ _______ _____ _____    ______ ____

>  <TORSDO>
F 4

$$$$
=
 OpenBabel10262421143D

 32 37  0  0  1  0  0  0  0  0999 V2000
  182.7700  178.8600  141.3330 C   0  0  1  0  0  3  0  0  0  0  0  0
  185.1670  178.4360  142.2510 C   0  0  0  0  0  0  0  0  0  0  0  0
  181.2950  178.8340  141.7690 C   0  0  0  0  0  2  0  0  0  0  0  0
  183.7740  178.6280  142.4690 C   0  0  0  0  0  0  0  0  0  0  0  0
  186.0380  178.2290  143.3570 C   0  0  0  0  0  0  0  0  0  0  0  0
  188.9690  178.0540  139.2490 C   0  0  0  0  0  3  0  0  0  0  0  0
  185.7150  178.4510  140.9580 C   0  0  0  0  0  3  0  0  0  0  0  0
  189.3020  177.8370  141.6380 C   0  0  0  0  0  3  0  0  0  0  0  0
  187.9340  178.0380  141.8470 C   0  0  0  0  0  0  0  0  0  0  0  0
  183.3130  178.7220  143.8060 C   0  0  0  0  0  0  0  0  0  0  0  0
  187.4120  178.0310  143.1380 C   0  0  0  0  0  3  0  0  0  0  0  0
  184.1770  178.5100  144.8780 C   0  0  0  0  0  3  0  0  0  0  0  0
  181.9570  179.0740  144.0840 N   0  0  0  0  0  2  0  0  0  0  0  0
  187.0790  178.2550  140.7470 C   0  0  0  0  0  0  0  0  0  0  0  0
  185.5290  178.2510  144.6680 C   0  0  0  0  0  0  0  0  0  0  0  0
  181.0990  179.6240  143.0470 C   0  0  0  0  0  2  0  0  0  0  0  0
  189.8180  177.8460  140.3400 C   0  0  0  0  0  3  0  0  0  0  0  0
  187.6000  178.2600  139.4510 C   0  0  0  0  0  3  0  0  0  0  0  0
  182.3130  178.5160  138.7590 C   0  0  1  0  0  3  0  0  0  0  0  0
  183.6320  178.9330  139.0360 O   0  0  0  0  0  0  0  0  0  0  0  0
  183.0370  178.0990  140.0050 C   0  0  1  0  0  3  0  0  0  0  0  0
  180.1420  179.6250  137.9280 C   0  0  2  0  0  0  0  0  0  0  0  0
  181.2070  182.7130  137.1310 O   0  0  0  0  0  1  0  0  0  0  0  0
  180.5270  179.0120  136.5830 C   0  0  0  0  0  1  0  0  0  0  0  0
  181.9450  181.0170  138.6260 C   0  0  0  0  0  2  0  0  0  0  0  0
  179.7180  181.0040  137.6900 N   0  0  0  0  0  2  0  0  0  0  0  0
  181.3160  179.6810  138.9100 C   0  0  2  0  0  3  0  0  0  0  0  0
  180.7880  181.8760  138.1650 C   0  0  2  0  0  3  0  0  0  0  0  0
  178.9910  178.8140  138.5100 C   0  0  0  0  0  2  0  0  0  0  0  0
  178.9850  177.5130  138.0010 O   0  0  0  0  0  1  0  0  0  0  0  0
  186.3950  177.9980  145.8620 C   0  0  0  0  0  2  0  0  0  0  0  0
  185.7920  178.6470  147.0920 C   0  0  0  0  0  1  0  0  0  0  0  0
  1  3  1  1  0  0  0
  1  4  1  0  0  0  0
  2  4  2  0  0  0  0
  2  5  1  0  0  0  0
  3 16  1  0  0  0  0
  4 10  1  0  0  0  0
  5 15  2  0  0  0  0
  6 18  2  0  0  0  0
  6 17  1  0  0  0  0
  7  2  1  0  0  0  0
  8  9  1  0  0  0  0
  9 11  2  0  0  0  0
 10 13  1  0  0  0  0
 10 12  2  0  0  0  0
 11  5  1  0  0  0  0
 14  7  2  0  0  0  0
 14  9  1  0  0  0  0
 15 12  1  0  0  0  0
 15 31  1  0  0  0  0
 16 13  1  0  0  0  0
 17  8  2  0  0  0  0
 18 14  1  0  0  0  0
 19 27  1  0  0  0  0
 19 20  1  6  0  0  0
 19 21  1  0  0  0  0
 21 20  1  6  0  0  0
 21  1  1  0  0  0  0
 22 24  1  6  0  0  0
 22 29  1  0  0  0  0
 22 27  1  0  0  0  0
 26 22  1  0  0  0  0
 26 28  1  0  0  0  0
 27 25  1  6  0  0  0
 28 23  1  6  0  0  0
 28 25  1  0  0  0  0
 30 29  1  0  0  0  0
 31 32  1  0  0  0  0
M  END
>  <MODEL>
8

>  <REMARK>
 VINA RESULT:      -8.1      4.142      7.245
  Name = 
  4 active torsions:
  status: ('A' for Active; 'I' for Inactive)
    1  A    between atoms: C_1  and  C_27
    2  A    between atoms: C_3  and  C_22
    3  A    between atoms: C_13  and  C_29
    4  A    between atoms: C_16  and  C_20
                            x       y       z     vdW  Elec       q    Type
                         _______ _______ _______ _____ _____    ______ ____

>  <TORSDO>
F 4

$$$$
=
 OpenBabel10262421143D

 32 37  0  0  1  0  0  0  0  0999 V2000
  187.9300  177.9980  140.5030 C   0  0  1  0  0  3  0  0  0  0  0  0
  187.7730  177.8300  143.0940 C   0  0  0  0  0  0  0  0  0  0  0  0
  187.0440  178.0710  139.2480 C   0  0  0  0  0  2  0  0  0  0  0  0
  187.1630  178.0600  141.8300 C   0  0  0  0  0  0  0  0  0  0  0  0
  186.9950  177.9080  144.2830 C   0  0  0  0  0  0  0  0  0  0  0  0
  191.6770  176.7470  145.7770 C   0  0  0  0  0  3  0  0  0  0  0  0
  189.1410  177.5300  143.2040 C   0  0  0  0  0  3  0  0  0  0  0  0
  189.5460  177.1270  146.8610 C   0  0  0  0  0  3  0  0  0  0  0  0
  188.9540  177.3640  145.6170 C   0  0  0  0  0  0  0  0  0  0  0  0
  185.8090  178.4780  141.8060 C   0  0  0  0  0  0  0  0  0  0  0  0
  187.5990  177.6720  145.5300 C   0  0  0  0  0  3  0  0  0  0  0  0
  185.0590  178.5420  142.9780 C   0  0  0  0  0  3  0  0  0  0  0  0
  185.1930  178.8780  140.5810 N   0  0  0  0  0  2  0  0  0  0  0  0
  189.7330  177.2980  144.4450 C   0  0  0  0  0  0  0  0  0  0  0  0
  185.6330  178.2500  144.2130 C   0  0  0  0  0  0  0  0  0  0  0  0
  185.9910  179.1500  139.3960 C   0  0  0  0  0  2  0  0  0  0  0  0
  190.9050  176.8190  146.9410 C   0  0  0  0  0  3  0  0  0  0  0  0
  191.0930  176.9870  144.5290 C   0  0  0  0  0  3  0  0  0  0  0  0
  189.4350  176.3840  139.0600 C   0  0  1  0  0  3  0  0  0  0  0  0
  190.1680  177.4190  139.6790 O   0  0  0  0  0  0  0  0  0  0  0  0
  189.0600  176.9360  140.4040 C   0  0  1  0  0  3  0  0  0  0  0  0
  188.2420  175.8310  136.8460 C   0  0  2  0  0  0  0  0  0  0  0  0
  189.8060  177.8810  134.6890 O   0  0  0  0  0  1  0  0  0  0  0  0
  189.2860  174.7220  136.7400 C   0  0  0  0  0  1  0  0  0  0  0  0
  189.4080  177.9000  137.0330 C   0  0  0  0  0  2  0  0  0  0  0  0
  188.1420  176.4820  135.5410 N   0  0  0  0  0  2  0  0  0  0  0  0
  188.6300  176.9130  137.8590 C   0  0  2  0  0  3  0  0  0  0  0  0
  188.8030  177.7810  135.6520 C   0  0  2  0  0  3  0  0  0  0  0  0
  186.9080  175.1970  137.2210 C   0  0  0  0  0  2  0  0  0  0  0  0
  185.8390  176.0080  136.8310 O   0  0  0  0  0  1  0  0  0  0  0  0
  184.7630  178.3040  145.4290 C   0  0  0  0  0  2  0  0  0  0  0  0
  183.4490  178.9870  145.1010 C   0  0  0  0  0  1  0  0  0  0  0  0
  1  3  1  6  0  0  0
  1  4  1  0  0  0  0
  2  7  2  0  0  0  0
  2  5  1  0  0  0  0
  3 16  1  0  0  0  0
  4  2  1  0  0  0  0
  5 11  2  0  0  0  0
  6 17  1  0  0  0  0
  7 14  1  0  0  0  0
  8 17  2  0  0  0  0
  9  8  1  0  0  0  0
 10  4  2  0  0  0  0
 10 12  1  0  0  0  0
 11  9  1  0  0  0  0
 12 15  2  0  0  0  0
 13 10  1  0  0  0  0
 14 18  1  0  0  0  0
 14  9  2  0  0  0  0
 15  5  1  0  0  0  0
 15 31  1  0  0  0  0
 16 13  1  0  0  0  0
 18  6  2  0  0  0  0
 19 20  1  6  0  0  0
 19 21  1  0  0  0  0
 21 20  1  6  0  0  0
 21  1  1  0  0  0  0
 22 24  1  6  0  0  0
 22 29  1  0  0  0  0
 22 27  1  0  0  0  0
 26 28  1  0  0  0  0
 26 22  1  0  0  0  0
 27 25  1  6  0  0  0
 27 19  1  0  0  0  0
 28 23  1  6  0  0  0
 28 25  1  0  0  0  0
 30 29  1  0  0  0  0
 32 31  1  0  0  0  0
M  END
>  <MODEL>
9

>  <REMARK>
 VINA RESULT:      -8.1      1.886      4.666
  Name = 
  4 active torsions:
  status: ('A' for Active; 'I' for Inactive)
    1  A    between atoms: C_1  and  C_27
    2  A    between atoms: C_3  and  C_22
    3  A    between atoms: C_13  and  C_29
    4  A    between atoms: C_16  and  C_20
                            x       y       z     vdW  Elec       q    Type
                         _______ _______ _______ _____ _____    ______ ____

>  <TORSDO>
F 4

$$$$
