=
 OpenBabel10252415083D

 34 37  0  0  1  0  0  0  0  0999 V2000
  191.4680  177.0750  139.1020 C   0  0  2  0  0  3  0  0  0  0  0  0
  188.2080  176.6280  137.2720 C   0  0  0  0  0  2  0  0  0  0  0  0
  188.3130  177.8270  139.3950 N   0  0  0  0  0  0  0  0  0  0  0  0
  186.7550  178.5100  141.2500 C   0  0  0  0  0  0  0  0  0  0  0  0
  191.4080  176.3630  136.8710 C   0  0  0  0  0  2  0  0  0  0  0  0
  190.1690  175.5160  136.6290 C   0  0  0  0  0  2  0  0  0  0  0  0
  186.1570  178.6480  138.9640 O   0  0  0  0  0  0  0  0  0  0  0  0
  188.6570  177.8960  137.9770 C   0  0  0  0  0  2  0  0  0  0  0  0
  191.9660  176.0640  138.1810 N   0  0  0  0  0  2  0  0  0  0  0  0
  189.3840  177.6090  140.3870 C   0  0  1  0  0  3  0  0  0  0  0  0
  192.4990  177.4880  139.9450 O   0  0  0  0  0  1  0  0  0  0  0  0
  189.0830  176.3550  136.1430 N   0  0  0  0  0  2  0  0  0  0  0  0
  187.6160  178.0430  142.1530 C   0  0  0  0  0  3  0  0  0  0  0  0
  188.8120  177.2240  141.7640 C   0  0  2  0  0  3  0  0  0  0  0  0
  187.0320  178.3320  139.8160 C   0  0  0  0  0  0  0  0  0  0  0  0
  190.3330  176.4990  139.9310 C   0  0  0  0  0  2  0  0  0  0  0  0
  191.4710  176.2460  144.3080 C   0  0  0  0  0  0  0  0  0  0  0  0
  191.8000  177.4940  144.8450 C   0  0  0  0  0  3  0  0  0  0  0  0
  189.8530  177.3050  142.8390 C   0  0  0  0  0  0  0  0  0  0  0  0
  191.1580  178.6470  144.3810 C   0  0  0  0  0  3  0  0  0  0  0  0
  190.5000  176.1500  143.3070 C   0  0  0  0  0  3  0  0  0  0  0  0
  190.1870  178.5520  143.3790 C   0  0  0  0  0  3  0  0  0  0  0  0
  192.0930  175.1300  144.7570 F   0  0  0  0  0  0  0  0  0  0  0  0
  185.5960  179.3260  141.7150 C   0  0  0  0  0  2  0  0  0  0  0  0
  184.9310  178.6320  142.8870 C   0  0  0  0  0  2  0  0  0  0  0  0
  185.1220  179.4540  144.1460 C   0  0  0  0  0  2  0  0  0  0  0  0
  184.8290  178.6010  145.3730 C   0  0  0  0  0  2  0  0  0  0  0  0
  185.6900  179.7960  147.7910 O   0  0  0  0  0  0  0  0  0  0  0  0
  186.0640  178.2480  146.0670 N   0  0  0  0  0  0  0  0  0  0  0  0
  186.4330  178.9050  147.2970 C   0  0  0  0  0  0  0  0  0  0  0  0
  188.2460  177.2170  147.5850 C   0  0  0  0  0  2  0  0  0  0  0  0
  188.2480  177.0750  146.0730 C   0  0  0  0  0  2  0  0  0  0  0  0
  186.8110  177.0940  145.5630 C   0  0  0  0  0  2  0  0  0  0  0  0
  187.7380  178.6000  147.9670 C   0  0  0  0  0  2  0  0  0  0  0  0
  1 16  1  0  0  0  0
  1 11  1  1  0  0  0
  2  8  1  0  0  0  0
  3 15  1  0  0  0  0
  3 10  1  0  0  0  0
  4 24  1  0  0  0  0
  4 13  2  0  0  0  0
  5  9  1  0  0  0  0
  6  5  1  0  0  0  0
  7 15  2  0  0  0  0
  8  3  1  0  0  0  0
  9  1  1  0  0  0  0
 10 16  1  6  0  0  0
 10 14  1  0  0  0  0
 12  6  1  0  0  0  0
 12  2  1  0  0  0  0
 14 13  1  0  0  0  0
 14 19  1  1  0  0  0
 15  4  1  0  0  0  0
 17 23  1  0  0  0  0
 17 18  1  0  0  0  0
 19 21  1  0  0  0  0
 19 22  2  0  0  0  0
 20 18  2  0  0  0  0
 21 17  2  0  0  0  0
 22 20  1  0  0  0  0
 24 25  1  0  0  0  0
 25 26  1  0  0  0  0
 26 27  1  0  0  0  0
 27 29  1  0  0  0  0
 29 30  1  0  0  0  0
 30 28  2  0  0  0  0
 30 34  1  0  0  0  0
 31 34  1  0  0  0  0
 32 31  1  0  0  0  0
 33 29  1  0  0  0  0
 33 32  1  0  0  0  0
M  END
>  <MODEL>
1

>  <REMARK>
 VINA RESULT:      -9.5      0.000      0.000
  Name = 
  6 active torsions:
  status: ('A' for Active; 'I' for Inactive)
    1  A    between atoms: C_3  and  N_13
    2  A    between atoms: C_3  and  C_17
    3  A    between atoms: C_5  and  C_18
    4  A    between atoms: C_12  and  C_28
    5  A    between atoms: C_17  and  C_29
    6  A    between atoms: C_18  and  C_29
                            x       y       z     vdW  Elec       q    Type
                         _______ _______ _______ _____ _____    ______ ____

>  <TORSDO>
F 6

$$$$
=
 OpenBabel10252415083D

 34 37  0  0  1  0  0  0  0  0999 V2000
  190.8540  177.9280  142.7370 C   0  0  2  0  0  3  0  0  0  0  0  0
  188.6570  177.4170  139.7220 C   0  0  0  0  0  2  0  0  0  0  0  0
  187.7590  178.3220  141.8030 N   0  0  0  0  0  0  0  0  0  0  0  0
  185.5240  178.5930  142.9280 C   0  0  0  0  0  0  0  0  0  0  0  0
  191.7650  177.5220  140.6170 C   0  0  0  0  0  2  0  0  0  0  0  0
  190.8510  176.6000  139.8270 C   0  0  0  0  0  2  0  0  0  0  0  0
  185.8440  178.9800  140.6160 O   0  0  0  0  0  0  0  0  0  0  0  0
  188.6110  178.6160  140.6540 C   0  0  0  0  0  2  0  0  0  0  0  0
  191.8090  177.1050  142.0100 N   0  0  0  0  0  2  0  0  0  0  0  0
  188.3820  178.0780  143.1190 C   0  0  1  0  0  3  0  0  0  0  0  0
  191.4070  178.3230  143.9550 O   0  0  0  0  0  1  0  0  0  0  0  0
  189.9310  177.3870  139.0200 N   0  0  0  0  0  2  0  0  0  0  0  0
  186.0250  178.0950  144.0570 C   0  0  0  0  0  3  0  0  0  0  0  0
  187.3820  177.4560  144.1120 C   0  0  2  0  0  3  0  0  0  0  0  0
  186.3570  178.6380  141.7170 C   0  0  0  0  0  0  0  0  0  0  0  0
  189.5810  177.1380  142.9880 C   0  0  0  0  0  2  0  0  0  0  0  0
  189.6460  177.0350  147.1450 C   0  0  0  0  0  0  0  0  0  0  0  0
  188.8460  177.5820  148.1540 C   0  0  0  0  0  3  0  0  0  0  0  0
  187.9030  177.4920  145.5170 C   0  0  0  0  0  0  0  0  0  0  0  0
  187.5770  178.0830  147.8470 C   0  0  0  0  0  3  0  0  0  0  0  0
  189.1770  176.9900  145.8300 C   0  0  0  0  0  3  0  0  0  0  0  0
  187.1070  178.0380  146.5310 C   0  0  0  0  0  3  0  0  0  0  0  0
  190.8750  176.5510  147.4430 F   0  0  0  0  0  0  0  0  0  0  0  0
  184.1720  179.2210  142.9570 C   0  0  0  0  0  2  0  0  0  0  0  0
  183.4770  178.8610  144.2550 C   0  0  0  0  0  2  0  0  0  0  0  0
  182.0110  178.5830  143.9950 C   0  0  0  0  0  2  0  0  0  0  0  0
  181.5610  179.3060  142.7320 C   0  0  0  0  0  2  0  0  0  0  0  0
  178.9310  178.2570  142.7440 O   0  0  0  0  0  0  0  0  0  0  0  0
  181.0520  178.3580  141.7440 N   0  0  0  0  0  0  0  0  0  0  0  0
  179.6970  177.8710  141.8200 C   0  0  0  0  0  0  0  0  0  0  0  0
  179.9950  176.8630  139.5580 C   0  0  0  0  0  2  0  0  0  0  0  0
  181.4800  176.7920  139.8710 C   0  0  0  0  0  2  0  0  0  0  0  0
  181.9060  178.0670  140.5910 C   0  0  0  0  0  2  0  0  0  0  0  0
  179.1980  176.8390  140.8550 C   0  0  0  0  0  2  0  0  0  0  0  0
  1 16  1  0  0  0  0
  1 11  1  1  0  0  0
  2  8  1  0  0  0  0
  3 10  1  0  0  0  0
  4 24  1  0  0  0  0
  4 13  2  0  0  0  0
  5  9  1  0  0  0  0
  6  5  1  0  0  0  0
  7 15  2  0  0  0  0
  8  3  1  0  0  0  0
  9  1  1  0  0  0  0
 10 16  1  6  0  0  0
 10 14  1  0  0  0  0
 12  2  1  0  0  0  0
 12  6  1  0  0  0  0
 13 14  1  0  0  0  0
 14 19  1  1  0  0  0
 15  3  1  0  0  0  0
 15  4  1  0  0  0  0
 17 23  1  0  0  0  0
 17 18  1  0  0  0  0
 19 21  1  0  0  0  0
 19 22  2  0  0  0  0
 20 18  2  0  0  0  0
 21 17  2  0  0  0  0
 22 20  1  0  0  0  0
 24 25  1  0  0  0  0
 26 25  1  0  0  0  0
 27 26  1  0  0  0  0
 29 30  1  0  0  0  0
 29 27  1  0  0  0  0
 30 28  2  0  0  0  0
 31 32  1  0  0  0  0
 31 34  1  0  0  0  0
 32 33  1  0  0  0  0
 33 29  1  0  0  0  0
 34 30  1  0  0  0  0
M  END
>  <MODEL>
2

>  <REMARK>
 VINA RESULT:      -9.5      3.258      5.090
  Name = 
  6 active torsions:
  status: ('A' for Active; 'I' for Inactive)
    1  A    between atoms: C_3  and  N_13
    2  A    between atoms: C_3  and  C_17
    3  A    between atoms: C_5  and  C_18
    4  A    between atoms: C_12  and  C_28
    5  A    between atoms: C_17  and  C_29
    6  A    between atoms: C_18  and  C_29
                            x       y       z     vdW  Elec       q    Type
                         _______ _______ _______ _____ _____    ______ ____

>  <TORSDO>
F 6

$$$$
=
 OpenBabel10252415083D

 34 37  0  0  1  0  0  0  0  0999 V2000
  190.7210  177.9760  142.7360 C   0  0  2  0  0  3  0  0  0  0  0  0
  188.7120  177.4140  139.6010 C   0  0  0  0  0  2  0  0  0  0  0  0
  187.6810  178.3230  141.6180 N   0  0  0  0  0  0  0  0  0  0  0  0
  185.3800  178.5720  142.6070 C   0  0  0  0  0  0  0  0  0  0  0  0
  191.7600  177.5660  140.6770 C   0  0  0  0  0  2  0  0  0  0  0  0
  190.9070  176.6260  139.8420 C   0  0  0  0  0  2  0  0  0  0  0  0
  185.8320  178.9460  140.3140 O   0  0  0  0  0  0  0  0  0  0  0  0
  188.5960  178.6190  140.5190 C   0  0  0  0  0  2  0  0  0  0  0  0
  191.7270  177.1600  142.0740 N   0  0  0  0  0  2  0  0  0  0  0  0
  188.2280  178.0960  142.9700 C   0  0  1  0  0  3  0  0  0  0  0  0
  191.1950  178.3870  143.9810 O   0  0  0  0  0  1  0  0  0  0  0  0
  190.0250  177.3950  138.9760 N   0  0  0  0  0  2  0  0  0  0  0  0
  185.8200  178.0890  143.7670 C   0  0  0  0  0  3  0  0  0  0  0  0
  187.1800  177.4690  143.9080 C   0  0  2  0  0  3  0  0  0  0  0  0
  186.2830  178.6200  141.4460 C   0  0  0  0  0  0  0  0  0  0  0  0
  189.4450  177.1710  142.9180 C   0  0  0  0  0  2  0  0  0  0  0  0
  189.2120  176.9930  147.0920 C   0  0  0  0  0  0  0  0  0  0  0  0
  188.4030  177.6460  148.0270 C   0  0  0  0  0  3  0  0  0  0  0  0
  187.6160  177.5210  145.3410 C   0  0  0  0  0  0  0  0  0  0  0  0
  187.2020  178.2370  147.6210 C   0  0  0  0  0  3  0  0  0  0  0  0
  188.8210  176.9300  145.7520 C   0  0  0  0  0  3  0  0  0  0  0  0
  186.8100  178.1750  146.2800 C   0  0  0  0  0  3  0  0  0  0  0  0
  190.3750  176.4220  147.4860 F   0  0  0  0  0  0  0  0  0  0  0  0
  184.0210  179.1830  142.5510 C   0  0  0  0  0  2  0  0  0  0  0  0
  183.2390  178.7840  143.7860 C   0  0  0  0  0  2  0  0  0  0  0  0
  181.7560  178.9690  143.5390 C   0  0  0  0  0  2  0  0  0  0  0  0
  181.4010  178.5060  142.1320 C   0  0  0  0  0  2  0  0  0  0  0  0
  181.9930  179.3290  139.4880 O   0  0  0  0  0  0  0  0  0  0  0  0
  180.6680  179.5440  141.4130 N   0  0  0  0  0  0  0  0  0  0  0  0
  181.0320  179.9060  140.0650 C   0  0  0  0  0  0  0  0  0  0  0  0
  178.9370  181.2530  139.9240 C   0  0  0  0  0  2  0  0  0  0  0  0
  179.0200  181.3960  141.4340 C   0  0  0  0  0  2  0  0  0  0  0  0
  179.4550  180.0680  142.0440 C   0  0  0  0  0  2  0  0  0  0  0  0
  180.3310  181.0250  139.3560 C   0  0  0  0  0  2  0  0  0  0  0  0
  1 16  1  0  0  0  0
  1 11  1  1  0  0  0
  2  8  1  0  0  0  0
  3 10  1  0  0  0  0
  4 13  2  0  0  0  0
  5  9  1  0  0  0  0
  6  5  1  0  0  0  0
  7 15  2  0  0  0  0
  8  3  1  0  0  0  0
  9  1  1  0  0  0  0
 10 16  1  6  0  0  0
 10 14  1  0  0  0  0
 12  2  1  0  0  0  0
 12  6  1  0  0  0  0
 13 14  1  0  0  0  0
 14 19  1  1  0  0  0
 15  3  1  0  0  0  0
 15  4  1  0  0  0  0
 17 23  1  0  0  0  0
 17 18  1  0  0  0  0
 19 21  1  0  0  0  0
 19 22  2  0  0  0  0
 20 18  2  0  0  0  0
 21 17  2  0  0  0  0
 22 20  1  0  0  0  0
 24  4  1  0  0  0  0
 24 25  1  0  0  0  0
 26 25  1  0  0  0  0
 27 26  1  0  0  0  0
 28 30  2  0  0  0  0
 29 33  1  0  0  0  0
 29 27  1  0  0  0  0
 30 29  1  0  0  0  0
 31 32  1  0  0  0  0
 32 33  1  0  0  0  0
 34 31  1  0  0  0  0
 34 30  1  0  0  0  0
M  END
>  <MODEL>
3

>  <REMARK>
 VINA RESULT:      -9.2      3.276      5.471
  Name = 
  6 active torsions:
  status: ('A' for Active; 'I' for Inactive)
    1  A    between atoms: C_3  and  N_13
    2  A    between atoms: C_3  and  C_17
    3  A    between atoms: C_5  and  C_18
    4  A    between atoms: C_12  and  C_28
    5  A    between atoms: C_17  and  C_29
    6  A    between atoms: C_18  and  C_29
                            x       y       z     vdW  Elec       q    Type
                         _______ _______ _______ _____ _____    ______ ____

>  <TORSDO>
F 6

$$$$
=
 OpenBabel10252415083D

 34 37  0  0  1  0  0  0  0  0999 V2000
  183.8540  179.0180  140.2730 C   0  0  2  0  0  3  0  0  0  0  0  0
  181.3600  178.4130  143.0280 C   0  0  0  0  0  2  0  0  0  0  0  0
  183.6980  178.9060  143.5250 N   0  0  0  0  0  0  0  0  0  0  0  0
  185.3180  178.6220  145.4300 C   0  0  0  0  0  0  0  0  0  0  0  0
  181.5490  179.0200  139.8550 C   0  0  0  0  0  2  0  0  0  0  0  0
  180.8540  178.0270  140.7720 C   0  0  0  0  0  2  0  0  0  0  0  0
  183.0750  179.3040  145.7520 O   0  0  0  0  0  0  0  0  0  0  0  0
  182.4450  179.4770  143.0390 C   0  0  0  0  0  2  0  0  0  0  0  0
  182.8210  178.4750  139.4040 N   0  0  0  0  0  2  0  0  0  0  0  0
  184.7920  178.6490  142.5680 C   0  0  1  0  0  3  0  0  0  0  0  0
  184.9640  179.3810  139.5110 O   0  0  0  0  0  1  0  0  0  0  0  0
  180.3970  178.7030  141.9770 N   0  0  0  0  0  2  0  0  0  0  0  0
  186.2210  178.1140  144.5940 C   0  0  0  0  0  3  0  0  0  0  0  0
  185.8800  177.7460  143.1790 C   0  0  2  0  0  3  0  0  0  0  0  0
  183.9720  178.9540  144.9370 C   0  0  0  0  0  0  0  0  0  0  0  0
  184.2620  177.9760  141.3000 C   0  0  0  0  0  2  0  0  0  0  0  0
  189.2660  176.7590  141.7440 C   0  0  0  0  0  0  0  0  0  0  0  0
  189.4330  177.7350  140.7580 C   0  0  0  0  0  3  0  0  0  0  0  0
  187.1240  177.7330  142.3440 C   0  0  0  0  0  0  0  0  0  0  0  0
  188.4490  178.7090  140.5630 C   0  0  0  0  0  3  0  0  0  0  0  0
  188.1140  176.7560  142.5360 C   0  0  0  0  0  3  0  0  0  0  0  0
  187.2970  178.7080  141.3540 C   0  0  0  0  0  3  0  0  0  0  0  0
  190.2180  175.8150  141.9310 F   0  0  0  0  0  0  0  0  0  0  0  0
  185.7370  178.9720  146.8180 C   0  0  0  0  0  2  0  0  0  0  0  0
  186.4490  177.7880  147.4410 C   0  0  0  0  0  2  0  0  0  0  0  0
  187.8210  178.2100  147.9270 C   0  0  0  0  0  2  0  0  0  0  0  0
  188.7750  177.0240  147.8840 C   0  0  0  0  0  2  0  0  0  0  0  0
  191.2380  175.6310  147.7520 O   0  0  0  0  0  0  0  0  0  0  0  0
  189.7490  177.1800  146.8060 N   0  0  0  0  0  0  0  0  0  0  0  0
  190.9820  176.4320  146.8120 C   0  0  0  0  0  0  0  0  0  0  0  0
  191.3910  177.2040  144.4760 C   0  0  0  0  0  2  0  0  0  0  0  0
  190.5420  178.4180  144.8110 C   0  0  0  0  0  2  0  0  0  0  0  0
  189.3460  177.9820  145.6490 C   0  0  0  0  0  2  0  0  0  0  0  0
  192.0150  176.6510  145.7490 C   0  0  0  0  0  2  0  0  0  0  0  0
  1 11  1  6  0  0  0
  1 16  1  0  0  0  0
  2  8  1  0  0  0  0
  3 15  1  0  0  0  0
  4 24  1  0  0  0  0
  5  6  1  0  0  0  0
  6 12  1  0  0  0  0
  8  3  1  0  0  0  0
  9  5  1  0  0  0  0
  9  1  1  0  0  0  0
 10 16  1  6  0  0  0
 10 14  1  0  0  0  0
 10  3  1  0  0  0  0
 12  2  1  0  0  0  0
 13  4  2  0  0  0  0
 14 19  1  6  0  0  0
 14 13  1  0  0  0  0
 15  4  1  0  0  0  0
 15  7  2  0  0  0  0
 17 23  1  0  0  0  0
 17 21  1  0  0  0  0
 18 17  2  0  0  0  0
 19 21  2  0  0  0  0
 20 18  1  0  0  0  0
 20 22  2  0  0  0  0
 22 19  1  0  0  0  0
 24 25  1  0  0  0  0
 25 26  1  0  0  0  0
 27 26  1  0  0  0  0
 29 30  1  0  0  0  0
 29 27  1  0  0  0  0
 30 28  2  0  0  0  0
 31 32  1  0  0  0  0
 31 34  1  0  0  0  0
 32 33  1  0  0  0  0
 33 29  1  0  0  0  0
 34 30  1  0  0  0  0
M  END
>  <MODEL>
4

>  <REMARK>
 VINA RESULT:      -8.7      3.269      6.150
  Name = 
  6 active torsions:
  status: ('A' for Active; 'I' for Inactive)
    1  A    between atoms: C_3  and  N_13
    2  A    between atoms: C_3  and  C_17
    3  A    between atoms: C_5  and  C_18
    4  A    between atoms: C_12  and  C_28
    5  A    between atoms: C_17  and  C_29
    6  A    between atoms: C_18  and  C_29
                            x       y       z     vdW  Elec       q    Type
                         _______ _______ _______ _____ _____    ______ ____

>  <TORSDO>
F 6

$$$$
=
 OpenBabel10252415083D

 34 37  0  0  1  0  0  0  0  0999 V2000
  188.6620  178.0100  146.7380 C   0  0  2  0  0  3  0  0  0  0  0  0
  191.3840  176.3190  144.7590 C   0  0  0  0  0  2  0  0  0  0  0  0
  189.6620  177.6530  143.6580 N   0  0  0  0  0  0  0  0  0  0  0  0
  188.6610  177.9100  141.3630 C   0  0  0  0  0  0  0  0  0  0  0  0
  190.5680  177.1380  147.7820 C   0  0  0  0  0  2  0  0  0  0  0  0
  191.0470  175.9010  147.0410 C   0  0  0  0  0  2  0  0  0  0  0  0
  190.9850  177.6440  141.7200 O   0  0  0  0  0  0  0  0  0  0  0  0
  190.8490  177.7190  144.5070 C   0  0  0  0  0  2  0  0  0  0  0  0
  189.1140  177.1600  147.8280 N   0  0  0  0  0  2  0  0  0  0  0  0
  188.3340  177.8990  144.2550 C   0  0  1  0  0  3  0  0  0  0  0  0
  187.6170  178.8210  147.1780 O   0  0  0  0  0  1  0  0  0  0  0  0
  192.0480  176.2720  146.0530 N   0  0  0  0  0  2  0  0  0  0  0  0
  187.4370  177.8440  141.8830 C   0  0  0  0  0  3  0  0  0  0  0  0
  187.1980  177.4570  143.3140 C   0  0  2  0  0  3  0  0  0  0  0  0
  189.8340  177.7200  142.2300 C   0  0  0  0  0  0  0  0  0  0  0  0
  188.1840  177.1500  145.5800 C   0  0  0  0  0  2  0  0  0  0  0  0
  183.6010  178.7030  143.2880 C   0  0  0  0  0  0  0  0  0  0  0  0
  183.3920  178.9470  144.6490 C   0  0  0  0  0  3  0  0  0  0  0  0
  185.8680  177.9790  143.7660 C   0  0  0  0  0  0  0  0  0  0  0  0
  184.4190  178.7080  145.5680 C   0  0  0  0  0  3  0  0  0  0  0  0
  184.8350  178.2200  142.8460 C   0  0  0  0  0  3  0  0  0  0  0  0
  185.6540  178.2240  145.1270 C   0  0  0  0  0  3  0  0  0  0  0  0
  182.6060  178.9340  142.3990 F   0  0  0  0  0  0  0  0  0  0  0  0
  188.8160  178.3130  139.9360 C   0  0  0  0  0  2  0  0  0  0  0  0
  188.8930  177.0720  139.0680 C   0  0  0  0  0  2  0  0  0  0  0  0
  187.8030  177.1120  138.0160 C   0  0  0  0  0  2  0  0  0  0  0  0
  186.9420  178.3530  138.2070 C   0  0  0  0  0  2  0  0  0  0  0  0
  184.9810  179.7280  139.7170 O   0  0  0  0  0  0  0  0  0  0  0  0
  185.5240  178.0040  138.2210 N   0  0  0  0  0  0  0  0  0  0  0  0
  184.5870  178.7560  139.0180 C   0  0  0  0  0  0  0  0  0  0  0  0
  182.7310  177.5490  137.8680 C   0  0  0  0  0  2  0  0  0  0  0  0
  183.7130  176.4120  137.6460 C   0  0  0  0  0  2  0  0  0  0  0  0
  185.0740  176.9860  137.2690 C   0  0  0  0  0  2  0  0  0  0  0  0
  183.1470  178.3490  139.0950 C   0  0  0  0  0  2  0  0  0  0  0  0
  1 11  1  1  0  0  0
  1  9  1  0  0  0  0
  2 12  1  0  0  0  0
  3 10  1  0  0  0  0
  3  8  1  0  0  0  0
  4 13  2  0  0  0  0
  4 15  1  0  0  0  0
  5  9  1  0  0  0  0
  6  5  1  0  0  0  0
  7 15  2  0  0  0  0
  8  2  1  0  0  0  0
 10 16  1  1  0  0  0
 12  6  1  0  0  0  0
 13 14  1  0  0  0  0
 14 19  1  1  0  0  0
 14 10  1  0  0  0  0
 15  3  1  0  0  0  0
 16  1  1  0  0  0  0
 17 18  1  0  0  0  0
 18 20  2  0  0  0  0
 19 22  2  0  0  0  0
 21 17  2  0  0  0  0
 21 19  1  0  0  0  0
 22 20  1  0  0  0  0
 23 17  1  0  0  0  0
 24  4  1  0  0  0  0
 25 24  1  0  0  0  0
 26 27  1  0  0  0  0
 26 25  1  0  0  0  0
 27 29  1  0  0  0  0
 29 30  1  0  0  0  0
 30 34  1  0  0  0  0
 30 28  2  0  0  0  0
 31 34  1  0  0  0  0
 32 31  1  0  0  0  0
 33 32  1  0  0  0  0
 33 29  1  0  0  0  0
M  END
>  <MODEL>
5

>  <REMARK>
 VINA RESULT:      -8.4      3.048      7.561
  Name = 
  6 active torsions:
  status: ('A' for Active; 'I' for Inactive)
    1  A    between atoms: C_3  and  N_13
    2  A    between atoms: C_3  and  C_17
    3  A    between atoms: C_5  and  C_18
    4  A    between atoms: C_12  and  C_28
    5  A    between atoms: C_17  and  C_29
    6  A    between atoms: C_18  and  C_29
                            x       y       z     vdW  Elec       q    Type
                         _______ _______ _______ _____ _____    ______ ____

>  <TORSDO>
F 6

$$$$
=
 OpenBabel10252415083D

 34 37  0  0  1  0  0  0  0  0999 V2000
  190.7450  177.9900  142.4190 C   0  0  2  0  0  3  0  0  0  0  0  0
  189.0770  177.2180  139.1320 C   0  0  0  0  0  2  0  0  0  0  0  0
  187.8290  178.2030  140.9830 N   0  0  0  0  0  0  0  0  0  0  0  0
  185.4350  178.4450  141.7220 C   0  0  0  0  0  0  0  0  0  0  0  0
  191.9970  177.5020  140.4990 C   0  0  0  0  0  2  0  0  0  0  0  0
  191.2510  176.4990  139.6340 C   0  0  0  0  0  2  0  0  0  0  0  0
  186.1100  178.7120  139.4690 O   0  0  0  0  0  0  0  0  0  0  0  0
  188.8450  178.4660  139.9680 C   0  0  0  0  0  2  0  0  0  0  0  0
  191.8300  177.1670  141.9050 N   0  0  0  0  0  2  0  0  0  0  0  0
  188.2400  178.0600  142.3940 C   0  0  1  0  0  3  0  0  0  0  0  0
  191.0830  178.4760  143.6810 O   0  0  0  0  0  1  0  0  0  0  0  0
  190.4480  177.2010  138.6440 N   0  0  0  0  0  2  0  0  0  0  0  0
  185.7640  178.0330  142.9440 C   0  0  0  0  0  3  0  0  0  0  0  0
  187.1140  177.4550  143.2540 C   0  0  2  0  0  3  0  0  0  0  0  0
  186.4500  178.4560  140.6570 C   0  0  0  0  0  0  0  0  0  0  0  0
  189.4740  177.1640  142.5150 C   0  0  0  0  0  2  0  0  0  0  0  0
  186.7790  178.3490  146.9400 C   0  0  0  0  0  0  0  0  0  0  0  0
  187.9680  177.8210  147.4530 C   0  0  0  0  0  3  0  0  0  0  0  0
  187.4010  177.5920  144.7190 C   0  0  0  0  0  0  0  0  0  0  0  0
  188.8730  177.1800  146.6020 C   0  0  0  0  0  3  0  0  0  0  0  0
  186.4950  178.2350  145.5760 C   0  0  0  0  0  3  0  0  0  0  0  0
  188.5900  177.0650  145.2370 C   0  0  0  0  0  3  0  0  0  0  0  0
  185.9020  178.9690  147.7650 F   0  0  0  0  0  0  0  0  0  0  0  0
  184.0770  179.0180  141.4960 C   0  0  0  0  0  2  0  0  0  0  0  0
  183.1100  178.4330  142.5080 C   0  0  0  0  0  2  0  0  0  0  0  0
  181.7260  179.0080  142.2880 C   0  0  0  0  0  2  0  0  0  0  0  0
  181.3520  178.9150  140.8150 C   0  0  0  0  0  2  0  0  0  0  0  0
  182.5820  177.1130  139.0100 O   0  0  0  0  0  0  0  0  0  0  0  0
  180.8280  177.5900  140.4950 N   0  0  0  0  0  0  0  0  0  0  0  0
  181.5160  176.7300  139.5630 C   0  0  0  0  0  0  0  0  0  0  0  0
  179.9980  174.8730  140.2480 C   0  0  0  0  0  2  0  0  0  0  0  0
  178.9800  175.9410  140.6070 C   0  0  0  0  0  2  0  0  0  0  0  0
  179.6910  177.1090  141.2820 C   0  0  0  0  0  2  0  0  0  0  0  0
  180.9380  175.4030  139.1740 C   0  0  0  0  0  2  0  0  0  0  0  0
  1 16  1  0  0  0  0
  1 11  1  1  0  0  0
  2  8  1  0  0  0  0
  3 10  1  0  0  0  0
  4 13  2  0  0  0  0
  5  9  1  0  0  0  0
  6  5  1  0  0  0  0
  7 15  2  0  0  0  0
  8  3  1  0  0  0  0
  9  1  1  0  0  0  0
 10 16  1  6  0  0  0
 10 14  1  0  0  0  0
 12  2  1  0  0  0  0
 12  6  1  0  0  0  0
 13 14  1  0  0  0  0
 14 19  1  1  0  0  0
 15  3  1  0  0  0  0
 15  4  1  0  0  0  0
 17 18  1  0  0  0  0
 17 23  1  0  0  0  0
 19 22  2  0  0  0  0
 19 21  1  0  0  0  0
 20 18  2  0  0  0  0
 21 17  2  0  0  0  0
 22 20  1  0  0  0  0
 24  4  1  0  0  0  0
 24 25  1  0  0  0  0
 26 25  1  0  0  0  0
 27 26  1  0  0  0  0
 28 30  2  0  0  0  0
 29 27  1  0  0  0  0
 29 33  1  0  0  0  0
 30 29  1  0  0  0  0
 31 32  1  0  0  0  0
 32 33  1  0  0  0  0
 34 30  1  0  0  0  0
 34 31  1  0  0  0  0
M  END
>  <MODEL>
6

>  <REMARK>
 VINA RESULT:      -8.3      3.503      5.511
  Name = 
  6 active torsions:
  status: ('A' for Active; 'I' for Inactive)
    1  A    between atoms: C_3  and  N_13
    2  A    between atoms: C_3  and  C_17
    3  A    between atoms: C_5  and  C_18
    4  A    between atoms: C_12  and  C_28
    5  A    between atoms: C_17  and  C_29
    6  A    between atoms: C_18  and  C_29
                            x       y       z     vdW  Elec       q    Type
                         _______ _______ _______ _____ _____    ______ ____

>  <TORSDO>
F 6

$$$$
=
 OpenBabel10252415083D

 34 37  0  0  1  0  0  0  0  0999 V2000
  188.6840  178.0470  146.6690 C   0  0  2  0  0  3  0  0  0  0  0  0
  191.5870  176.3510  144.9730 C   0  0  0  0  0  2  0  0  0  0  0  0
  189.9480  177.6300  143.6960 N   0  0  0  0  0  0  0  0  0  0  0  0
  189.1430  177.8160  141.3180 C   0  0  0  0  0  0  0  0  0  0  0  0
  190.5060  177.2300  147.8940 C   0  0  0  0  0  2  0  0  0  0  0  0
  191.0630  175.9830  147.2280 C   0  0  0  0  0  2  0  0  0  0  0  0
  191.4320  177.5950  141.8780 O   0  0  0  0  0  0  0  0  0  0  0  0
  191.0570  177.7350  144.6400 C   0  0  0  0  0  2  0  0  0  0  0  0
  189.0530  177.2300  147.8150 N   0  0  0  0  0  2  0  0  0  0  0  0
  188.5710  177.8710  144.1710 C   0  0  1  0  0  3  0  0  0  0  0  0
  187.5940  178.8520  146.9990 O   0  0  0  0  0  1  0  0  0  0  0  0
  192.1400  176.3450  146.3190 N   0  0  0  0  0  2  0  0  0  0  0  0
  187.8800  177.7440  141.7340 C   0  0  0  0  0  3  0  0  0  0  0  0
  187.5260  177.3880  143.1480 C   0  0  2  0  0  3  0  0  0  0  0  0
  190.2400  177.6660  142.2870 C   0  0  0  0  0  0  0  0  0  0  0  0
  188.3180  177.1520  145.4970 C   0  0  0  0  0  2  0  0  0  0  0  0
  184.4490  178.5200  145.0860 C   0  0  0  0  0  0  0  0  0  0  0  0
  183.5880  178.8690  144.0410 C   0  0  0  0  0  3  0  0  0  0  0  0
  186.1550  177.9000  143.4730 C   0  0  0  0  0  0  0  0  0  0  0  0
  184.0080  178.7350  142.7140 C   0  0  0  0  0  3  0  0  0  0  0  0
  185.7300  178.0370  144.8040 C   0  0  0  0  0  3  0  0  0  0  0  0
  185.2890  178.2520  142.4310 C   0  0  0  0  0  3  0  0  0  0  0  0
  184.0420  178.6510  146.3710 F   0  0  0  0  0  0  0  0  0  0  0  0
  189.4140  178.1870  139.8990 C   0  0  0  0  0  2  0  0  0  0  0  0
  188.1870  177.8910  139.0600 C   0  0  0  0  0  2  0  0  0  0  0  0
  188.4470  178.2710  137.6170 C   0  0  0  0  0  2  0  0  0  0  0  0
  189.6620  177.5180  137.0910 C   0  0  0  0  0  2  0  0  0  0  0  0
  190.7510  175.2200  138.3370 O   0  0  0  0  0  0  0  0  0  0  0  0
  189.3080  176.1470  136.7340 N   0  0  0  0  0  0  0  0  0  0  0  0
  189.9090  175.0280  137.4180 C   0  0  0  0  0  0  0  0  0  0  0  0
  188.2610  173.5320  136.2940 C   0  0  0  0  0  2  0  0  0  0  0  0
  188.1990  174.5640  135.1820 C   0  0  0  0  0  2  0  0  0  0  0  0
  188.2040  175.9630  135.7900 C   0  0  0  0  0  2  0  0  0  0  0  0
  189.6060  173.6220  137.0000 C   0  0  0  0  0  2  0  0  0  0  0  0
  1 11  1  1  0  0  0
  1  9  1  0  0  0  0
  2 12  1  0  0  0  0
  3 10  1  0  0  0  0
  3  8  1  0  0  0  0
  4 13  2  0  0  0  0
  4 15  1  0  0  0  0
  6  5  1  0  0  0  0
  7 15  2  0  0  0  0
  8  2  1  0  0  0  0
  9  5  1  0  0  0  0
 10 16  1  1  0  0  0
 12  6  1  0  0  0  0
 13 14  1  0  0  0  0
 14 19  1  1  0  0  0
 14 10  1  0  0  0  0
 15  3  1  0  0  0  0
 16  1  1  0  0  0  0
 17 23  1  0  0  0  0
 18 17  2  0  0  0  0
 19 21  2  0  0  0  0
 20 18  1  0  0  0  0
 21 17  1  0  0  0  0
 22 20  2  0  0  0  0
 22 19  1  0  0  0  0
 24  4  1  0  0  0  0
 25 24  1  0  0  0  0
 26 25  1  0  0  0  0
 27 26  1  0  0  0  0
 29 27  1  0  0  0  0
 29 30  1  0  0  0  0
 30 28  2  0  0  0  0
 31 34  1  0  0  0  0
 32 33  1  0  0  0  0
 32 31  1  0  0  0  0
 33 29  1  0  0  0  0
 34 30  1  0  0  0  0
M  END
>  <MODEL>
7

>  <REMARK>
 VINA RESULT:      -8.2      2.622      8.129
  Name = 
  6 active torsions:
  status: ('A' for Active; 'I' for Inactive)
    1  A    between atoms: C_3  and  N_13
    2  A    between atoms: C_3  and  C_17
    3  A    between atoms: C_5  and  C_18
    4  A    between atoms: C_12  and  C_28
    5  A    between atoms: C_17  and  C_29
    6  A    between atoms: C_18  and  C_29
                            x       y       z     vdW  Elec       q    Type
                         _______ _______ _______ _____ _____    ______ ____

>  <TORSDO>
F 6

$$$$
=
 OpenBabel10252415083D

 34 37  0  0  1  0  0  0  0  0999 V2000
  186.2460  177.0250  137.0900 C   0  0  2  0  0  3  0  0  0  0  0  0
  189.9500  177.1310  136.4190 C   0  0  0  0  0  2  0  0  0  0  0  0
  189.0830  176.8290  138.6800 N   0  0  0  0  0  0  0  0  0  0  0  0
  189.8770  177.0980  141.0520 C   0  0  0  0  0  0  0  0  0  0  0  0
  187.0990  176.8340  134.9160 C   0  0  0  0  0  2  0  0  0  0  0  0
  188.3630  177.6660  134.7790 C   0  0  0  0  0  2  0  0  0  0  0  0
  191.2340  176.1720  139.3480 O   0  0  0  0  0  0  0  0  0  0  0  0
  189.2550  176.1830  137.3810 C   0  0  0  0  0  2  0  0  0  0  0  0
  186.1250  177.5390  135.7340 N   0  0  0  0  0  2  0  0  0  0  0  0
  187.7370  177.2770  139.0890 C   0  0  1  0  0  3  0  0  0  0  0  0
  184.9770  176.8430  137.6380 O   0  0  0  0  0  1  0  0  0  0  0  0
  189.5310  176.8430  135.0550 N   0  0  0  0  0  2  0  0  0  0  0  0
  188.7660  177.7660  141.3550 C   0  0  0  0  0  3  0  0  0  0  0  0
  187.8000  178.2240  140.3020 C   0  0  2  0  0  3  0  0  0  0  0  0
  190.1230  176.6810  139.6630 C   0  0  0  0  0  0  0  0  0  0  0  0
  187.0330  178.0050  137.9430 C   0  0  0  0  0  2  0  0  0  0  0  0
  184.9470  178.3710  142.8200 C   0  0  0  0  0  0  0  0  0  0  0  0
  183.9060  178.8480  142.0170 C   0  0  0  0  0  3  0  0  0  0  0  0
  186.4470  178.4350  140.9110 C   0  0  0  0  0  0  0  0  0  0  0  0
  184.1330  179.1190  140.6650 C   0  0  0  0  0  3  0  0  0  0  0  0
  186.2150  178.1650  142.2690 C   0  0  0  0  0  3  0  0  0  0  0  0
  185.4010  178.9130  140.1130 C   0  0  0  0  0  3  0  0  0  0  0  0
  184.7270  178.1110  144.1300 F   0  0  0  0  0  0  0  0  0  0  0  0
  190.7820  176.6680  142.1570 C   0  0  0  0  0  2  0  0  0  0  0  0
  191.7330  177.7980  142.4970 C   0  0  0  0  0  2  0  0  0  0  0  0
  191.3060  178.4570  143.7930 C   0  0  0  0  0  2  0  0  0  0  0  0
  191.3610  177.4480  144.9320 C   0  0  0  0  0  2  0  0  0  0  0  0
  191.1380  176.7620  147.6700 O   0  0  0  0  0  0  0  0  0  0  0  0
  190.1030  177.4320  145.6730 N   0  0  0  0  0  0  0  0  0  0  0  0
  190.0740  177.0710  147.0690 C   0  0  0  0  0  0  0  0  0  0  0  0
  187.7030  177.8390  147.1570 C   0  0  0  0  0  2  0  0  0  0  0  0
  187.6260  177.5220  145.6740 C   0  0  0  0  0  2  0  0  0  0  0  0
  188.9180  177.9630  144.9950 C   0  0  0  0  0  2  0  0  0  0  0  0
  188.7740  176.9770  147.8090 C   0  0  0  0  0  2  0  0  0  0  0  0
  1 11  1  1  0  0  0
  1 16  1  0  0  0  0
  2  8  1  0  0  0  0
  3 10  1  0  0  0  0
  3 15  1  0  0  0  0
  4 13  2  0  0  0  0
  4 24  1  0  0  0  0
  5  9  1  0  0  0  0
  6  5  1  0  0  0  0
  6 12  1  0  0  0  0
  7 15  2  0  0  0  0
  8  3  1  0  0  0  0
  9  1  1  0  0  0  0
 10 16  1  6  0  0  0
 10 14  1  0  0  0  0
 12  2  1  0  0  0  0
 14 19  1  1  0  0  0
 14 13  1  0  0  0  0
 15  4  1  0  0  0  0
 17 23  1  0  0  0  0
 18 17  2  0  0  0  0
 19 21  2  0  0  0  0
 20 18  1  0  0  0  0
 21 17  1  0  0  0  0
 22 20  2  0  0  0  0
 22 19  1  0  0  0  0
 24 25  1  0  0  0  0
 25 26  1  0  0  0  0
 26 27  1  0  0  0  0
 27 29  1  0  0  0  0
 29 30  1  0  0  0  0
 30 28  2  0  0  0  0
 30 34  1  0  0  0  0
 31 34  1  0  0  0  0
 32 31  1  0  0  0  0
 33 29  1  0  0  0  0
 33 32  1  0  0  0  0
M  END
>  <MODEL>
8

>  <REMARK>
 VINA RESULT:      -8.2      2.406      4.958
  Name = 
  6 active torsions:
  status: ('A' for Active; 'I' for Inactive)
    1  A    between atoms: C_3  and  N_13
    2  A    between atoms: C_3  and  C_17
    3  A    between atoms: C_5  and  C_18
    4  A    between atoms: C_12  and  C_28
    5  A    between atoms: C_17  and  C_29
    6  A    between atoms: C_18  and  C_29
                            x       y       z     vdW  Elec       q    Type
                         _______ _______ _______ _____ _____    ______ ____

>  <TORSDO>
F 6

$$$$
=
 OpenBabel10252415083D

 34 37  0  0  1  0  0  0  0  0999 V2000
  190.7010  177.9770  142.3950 C   0  0  2  0  0  3  0  0  0  0  0  0
  188.9560  177.3500  139.1180 C   0  0  0  0  0  2  0  0  0  0  0  0
  187.7700  178.3220  141.0160 N   0  0  0  0  0  0  0  0  0  0  0  0
  185.3970  178.6200  141.8010 C   0  0  0  0  0  0  0  0  0  0  0  0
  191.9050  177.5020  140.4430 C   0  0  0  0  0  2  0  0  0  0  0  0
  191.1140  176.5480  139.5630 C   0  0  0  0  0  2  0  0  0  0  0  0
  186.0440  178.9280  139.5450 O   0  0  0  0  0  0  0  0  0  0  0  0
  188.7770  178.5800  139.9910 C   0  0  0  0  0  2  0  0  0  0  0  0
  191.7490  177.1340  141.8420 N   0  0  0  0  0  2  0  0  0  0  0  0
  188.1990  178.1260  142.4150 C   0  0  1  0  0  3  0  0  0  0  0  0
  191.0730  178.4160  143.6650 O   0  0  0  0  0  1  0  0  0  0  0  0
  190.3170  177.3020  138.6060 N   0  0  0  0  0  2  0  0  0  0  0  0
  185.7320  178.1630  143.0060 C   0  0  0  0  0  3  0  0  0  0  0  0
  187.0680  177.5350  143.2770 C   0  0  2  0  0  3  0  0  0  0  0  0
  186.3950  178.6280  140.7200 C   0  0  0  0  0  0  0  0  0  0  0  0
  189.4050  177.1890  142.4900 C   0  0  0  0  0  2  0  0  0  0  0  0
  186.7940  178.2860  147.0000 C   0  0  0  0  0  0  0  0  0  0  0  0
  188.0010  177.7580  147.4690 C   0  0  0  0  0  3  0  0  0  0  0  0
  187.3820  177.6210  144.7400 C   0  0  0  0  0  0  0  0  0  0  0  0
  188.8980  177.1630  146.5770 C   0  0  0  0  0  3  0  0  0  0  0  0
  186.4840  178.2180  145.6390 C   0  0  0  0  0  3  0  0  0  0  0  0
  188.5890  177.0940  145.2150 C   0  0  0  0  0  3  0  0  0  0  0  0
  185.9250  178.8610  147.8640 F   0  0  0  0  0  0  0  0  0  0  0  0
  184.0550  179.2420  141.6140 C   0  0  0  0  0  2  0  0  0  0  0  0
  182.9790  178.2110  141.8960 C   0  0  0  0  0  2  0  0  0  0  0  0
  181.6780  178.6340  141.2480 C   0  0  0  0  0  2  0  0  0  0  0  0
  181.8370  178.6660  139.7340 C   0  0  0  0  0  2  0  0  0  0  0  0
  183.3620  180.8260  138.7200 O   0  0  0  0  0  0  0  0  0  0  0  0
  181.2600  179.8860  139.1760 N   0  0  0  0  0  0  0  0  0  0  0  0
  182.1070  180.9420  138.6790 C   0  0  0  0  0  0  0  0  0  0  0  0
  180.0820  182.0320  137.7150 C   0  0  0  0  0  2  0  0  0  0  0  0
  179.2840  181.3350  138.8030 C   0  0  0  0  0  2  0  0  0  0  0  0
  179.8090  179.9150  138.9830 C   0  0  0  0  0  2  0  0  0  0  0  0
  181.5180  182.2260  138.1800 C   0  0  0  0  0  2  0  0  0  0  0  0
  1 16  1  0  0  0  0
  1 11  1  1  0  0  0
  2  8  1  0  0  0  0
  3 10  1  0  0  0  0
  4 13  2  0  0  0  0
  5  9  1  0  0  0  0
  6  5  1  0  0  0  0
  7 15  2  0  0  0  0
  8  3  1  0  0  0  0
  9  1  1  0  0  0  0
 10 16  1  6  0  0  0
 10 14  1  0  0  0  0
 12  2  1  0  0  0  0
 12  6  1  0  0  0  0
 13 14  1  0  0  0  0
 14 19  1  1  0  0  0
 15  3  1  0  0  0  0
 15  4  1  0  0  0  0
 17 18  1  0  0  0  0
 17 23  1  0  0  0  0
 19 22  2  0  0  0  0
 19 21  1  0  0  0  0
 20 18  2  0  0  0  0
 21 17  2  0  0  0  0
 22 20  1  0  0  0  0
 24  4  1  0  0  0  0
 24 25  1  0  0  0  0
 26 25  1  0  0  0  0
 27 26  1  0  0  0  0
 29 27  1  0  0  0  0
 30 28  2  0  0  0  0
 30 29  1  0  0  0  0
 31 34  1  0  0  0  0
 31 32  1  0  0  0  0
 32 33  1  0  0  0  0
 33 29  1  0  0  0  0
 34 30  1  0  0  0  0
M  END
>  <MODEL>
9

>  <REMARK>
 VINA RESULT:      -8.1      3.567      5.949
  Name = 
  6 active torsions:
  status: ('A' for Active; 'I' for Inactive)
    1  A    between atoms: C_3  and  N_13
    2  A    between atoms: C_3  and  C_17
    3  A    between atoms: C_5  and  C_18
    4  A    between atoms: C_12  and  C_28
    5  A    between atoms: C_17  and  C_29
    6  A    between atoms: C_18  and  C_29
                            x       y       z     vdW  Elec       q    Type
                         _______ _______ _______ _____ _____    ______ ____

>  <TORSDO>
F 6

$$$$
