=
 OpenBabel10262421223D

 32 34  0  0  1  0  0  0  0  0999 V2000
  187.7560  178.0220  142.3950 N   0  0  2  0  0  0  0  0  0  0  0  0
  184.2440  179.0430  145.6840 C   0  0  0  0  0  2  0  0  0  0  0  0
  185.2390  178.4920  146.7150 C   0  0  0  0  0  2  0  0  0  0  0  0
  187.3700  178.0060  139.9620 C   0  0  2  0  0  3  0  0  0  0  0  0
  185.4010  178.0330  141.5520 C   0  0  0  0  0  2  0  0  0  0  0  0
  185.2460  178.9020  139.3380 F   0  0  0  0  0  0  0  0  0  0  0  0
  184.4860  178.3710  144.3320 C   0  0  0  0  0  2  0  0  0  0  0  0
  186.3550  177.6960  142.7220 C   0  0  2  0  0  3  0  0  0  0  0  0
  185.9730  178.4570  143.9810 C   0  0  2  0  0  3  0  0  0  0  0  0
  188.2010  177.6570  144.8510 C   0  0  0  0  0  0  0  0  0  0  0  0
  186.1100  178.7550  140.4070 C   0  0  2  0  0  3  0  0  0  0  0  0
  186.5660  178.7010  146.2830 O   0  0  0  0  0  0  0  0  0  0  0  0
  186.7460  177.8750  145.1580 C   0  0  1  0  0  3  0  0  0  0  0  0
  188.9550  177.1770  145.8070 C   0  0  0  0  0  0  0  0  0  0  0  0
  188.0840  177.3390  141.1440 C   0  0  0  0  0  2  0  0  0  0  0  0
  188.7120  177.5570  143.4220 C   0  0  2  0  0  3  0  0  0  0  0  0
  189.7130  176.7020  146.7540 C   0  0  0  0  0  3  0  0  0  0  0  0
  189.2380  179.8210  137.3770 O   0  0  0  0  0  0  0  0  0  0  0  0
  188.4290  178.9960  137.8750 C   0  0  0  0  0  0  0  0  0  0  0  0
  188.2710  178.9360  139.2960 N   0  0  0  0  0  2  0  0  0  0  0  0
  187.6280  178.1210  136.9690 C   0  0  0  0  0  2  0  0  0  0  0  0
  188.5280  177.0890  136.3170 C   0  0  0  0  0  2  0  0  0  0  0  0
  188.6580  175.9030  137.2040 C   0  0  0  0  0  0  0  0  0  0  0  0
  189.8110  175.7200  137.9560 O   0  0  0  0  0  1  0  0  0  0  0  0
  187.7090  175.0820  137.3000 O   0  0  0  0  0  0  0  0  0  0  0  0
  191.9650  175.2460  145.8370 O   0  0  0  0  0  1  0  0  0  0  0  0
  191.4880  176.7030  146.5570 P   0  0  1  0  0  0  0  0  0  0  0  0
  191.8860  177.8600  145.6680 O   0  0  0  0  0  0  0  0  0  0  0  0
  192.2130  176.8680  148.0810 O   0  0  0  0  0  0  0  0  0  0  0  0
  192.8820  175.6630  148.3080 C   0  0  0  0  0  1  0  0  0  0  0  0
  190.0090  178.3570  143.2990 C   0  0  0  0  0  2  0  0  0  0  0  0
  191.0620  177.5560  142.5580 C   0  0  0  0  0  1  0  0  0  0  0  0
  1 15  1  6  0  0  0
  1  8  1  0  0  0  0
  1 16  1  0  0  0  0
  2  3  1  0  0  0  0
  4 20  1  1  0  0  0
  4 11  1  0  0  0  0
  4 15  1  0  0  0  0
  7  2  1  0  0  0  0
  8  5  1  6  0  0  0
  8  9  1  0  0  0  0
  9  7  1  1  0  0  0
  9 13  1  0  0  0  0
 10 14  2  0  0  0  0
 11  6  1  6  0  0  0
 11  5  1  0  0  0  0
 12  3  1  0  0  0  0
 13 10  1  6  0  0  0
 13 12  1  0  0  0  0
 14 17  2  0  0  0  0
 16 31  1  1  0  0  0
 16 10  1  0  0  0  0
 18 19  2  0  0  0  0
 19 20  1  0  0  0  0
 21 19  1  0  0  0  0
 22 21  1  0  0  0  0
 22 23  1  0  0  0  0
 23 25  2  0  0  0  0
 23 24  1  0  0  0  0
 26 27  1  0  0  0  0
 27 28  2  6  0  0  0
 27 17  1  0  0  0  0
 27 29  1  0  0  0  0
 29 30  1  0  0  0  0
 32 31  1  0  0  0  0
M  END
>  <MODEL>
1

>  <REMARK>
 VINA RESULT:      -7.7      0.000      0.000
  Name = 
  7 active torsions:
  status: ('A' for Active; 'I' for Inactive)
    1  A    between atoms: C_1  and  C_10
    2  A    between atoms: C_6  and  C_31
    3  A    between atoms: C_8  and  N_23
    4  A    between atoms: C_10  and  C_24
    5  A    between atoms: P_11  and  O_18
    6  A    between atoms: P_11  and  C_32
    7  A    between atoms: C_19  and  C_24
                            x       y       z     vdW  Elec       q    Type
                         _______ _______ _______ _____ _____    ______ ____

>  <TORSDO>
F 7

$$$$
=
 OpenBabel10262421223D

 32 34  0  0  1  0  0  0  0  0999 V2000
  185.9410  178.3350  143.3490 N   0  0  2  0  0  0  0  0  0  0  0  0
  188.9780  177.1980  139.6500 C   0  0  0  0  0  2  0  0  0  0  0  0
  190.0580  177.1320  140.7390 C   0  0  0  0  0  2  0  0  0  0  0  0
  183.6670  179.2220  143.0110 C   0  0  2  0  0  3  0  0  0  0  0  0
  185.2990  179.1650  141.0770 C   0  0  0  0  0  2  0  0  0  0  0  0
  182.9410  179.1140  140.7370 F   0  0  0  0  0  0  0  0  0  0  0  0
  187.8910  178.1870  140.0710 C   0  0  0  0  0  2  0  0  0  0  0  0
  186.4480  178.8680  142.0700 C   0  0  2  0  0  3  0  0  0  0  0  0
  187.4290  177.8600  141.4920 C   0  0  2  0  0  3  0  0  0  0  0  0
  188.3510  177.7760  143.8390 C   0  0  0  0  0  0  0  0  0  0  0  0
  183.9400  178.6980  141.5970 C   0  0  2  0  0  3  0  0  0  0  0  0
  189.4930  176.7580  141.9760 O   0  0  0  0  0  0  0  0  0  0  0  0
  188.6730  177.8300  142.3720 C   0  0  1  0  0  3  0  0  0  0  0  0
  189.3550  177.7270  144.6770 C   0  0  0  0  0  0  0  0  0  0  0  0
  184.9460  179.2810  143.8540 C   0  0  0  0  0  2  0  0  0  0  0  0
  186.9930  178.2010  144.3770 C   0  0  2  0  0  3  0  0  0  0  0  0
  190.3480  177.6760  145.5180 C   0  0  0  0  0  3  0  0  0  0  0  0
  180.5010  177.8820  144.2940 O   0  0  0  0  0  0  0  0  0  0  0  0
  181.2860  178.6690  143.7050 C   0  0  0  0  0  0  0  0  0  0  0  0
  182.6830  178.3650  143.6580 N   0  0  0  0  0  2  0  0  0  0  0  0
  180.7350  179.8860  143.0380 C   0  0  0  0  0  2  0  0  0  0  0  0
  179.8860  179.4830  141.8460 C   0  0  0  0  0  2  0  0  0  0  0  0
  179.7700  180.6270  140.9030 C   0  0  0  0  0  0  0  0  0  0  0  0
  180.2330  180.5030  139.6000 O   0  0  0  0  0  0  0  0  0  0  0  0
  179.2220  181.6970  141.2770 O   0  0  0  0  0  1  0  0  0  0  0  0
  189.2040  178.6040  147.9390 O   0  0  0  0  0  1  0  0  0  0  0  0
  190.0400  177.3090  147.2380 P   0  0  1  0  0  0  0  0  0  0  0  0
  189.2000  176.0550  147.3330 O   0  0  0  0  0  0  0  0  0  0  0  0
  191.5220  177.0730  148.0270 O   0  0  0  0  0  0  0  0  0  0  0  0
  192.0660  175.9180  147.4620 C   0  0  0  0  0  1  0  0  0  0  0  0
  186.5370  177.1940  145.4330 C   0  0  0  0  0  2  0  0  0  0  0  0
  186.0900  177.9080  146.6940 C   0  0  0  0  0  1  0  0  0  0  0  0
  1 15  1  1  0  0  0
  1 16  1  0  0  0  0
  2  7  1  0  0  0  0
  2  3  1  0  0  0  0
  3 12  1  0  0  0  0
  4 20  1  1  0  0  0
  4 15  1  0  0  0  0
  5 11  1  0  0  0  0
  8  5  1  6  0  0  0
  8  1  1  0  0  0  0
  9  7  1  6  0  0  0
  9  8  1  0  0  0  0
  9 13  1  0  0  0  0
 10 16  1  0  0  0  0
 10 14  2  0  0  0  0
 11  6  1  6  0  0  0
 11  4  1  0  0  0  0
 13 12  1  6  0  0  0
 13 10  1  0  0  0  0
 14 17  2  0  0  0  0
 16 31  1  1  0  0  0
 17 27  1  0  0  0  0
 19 18  2  0  0  0  0
 20 19  1  0  0  0  0
 21 19  1  0  0  0  0
 22 21  1  0  0  0  0
 23 25  1  0  0  0  0
 23 22  1  0  0  0  0
 24 23  2  0  0  0  0
 27 28  2  1  0  0  0
 27 26  1  0  0  0  0
 27 29  1  0  0  0  0
 30 29  1  0  0  0  0
 31 32  1  0  0  0  0
M  END
>  <MODEL>
2

>  <REMARK>
 VINA RESULT:      -7.5      3.620      6.143
  Name = 
  7 active torsions:
  status: ('A' for Active; 'I' for Inactive)
    1  A    between atoms: C_1  and  C_10
    2  A    between atoms: C_6  and  C_31
    3  A    between atoms: C_8  and  N_23
    4  A    between atoms: C_10  and  C_24
    5  A    between atoms: P_11  and  O_18
    6  A    between atoms: P_11  and  C_32
    7  A    between atoms: C_19  and  C_24
                            x       y       z     vdW  Elec       q    Type
                         _______ _______ _______ _____ _____    ______ ____

>  <TORSDO>
F 7

$$$$
=
 OpenBabel10262421223D

 32 34  0  0  1  0  0  0  0  0999 V2000
  186.7260  178.0640  143.5160 N   0  0  2  0  0  0  0  0  0  0  0  0
  191.0200  177.6030  145.8700 C   0  0  0  0  0  2  0  0  0  0  0  0
  191.5940  177.2980  144.4790 C   0  0  0  0  0  2  0  0  0  0  0  0
  184.5510  178.1620  144.6700 C   0  0  2  0  0  3  0  0  0  0  0  0
  186.6160  177.4130  145.9290 C   0  0  0  0  0  2  0  0  0  0  0  0
  184.7510  178.3980  147.0390 F   0  0  0  0  0  0  0  0  0  0  0  0
  189.5530  177.1750  145.9210 C   0  0  0  0  0  2  0  0  0  0  0  0
  187.3730  177.2840  144.5860 C   0  0  2  0  0  3  0  0  0  0  0  0
  188.8120  177.7600  144.7170 C   0  0  2  0  0  3  0  0  0  0  0  0
  188.8310  177.6240  142.1980 C   0  0  0  0  0  0  0  0  0  0  0  0
  185.4760  178.4290  145.8630 C   0  0  2  0  0  3  0  0  0  0  0  0
  190.8470  177.9550  143.4800 O   0  0  0  0  0  0  0  0  0  0  0  0
  189.5810  177.3410  143.4710 C   0  0  1  0  0  3  0  0  0  0  0  0
  189.4180  177.3170  141.0690 C   0  0  0  0  0  0  0  0  0  0  0  0
  185.3260  177.6440  143.4520 C   0  0  0  0  0  2  0  0  0  0  0  0
  187.3240  177.8280  142.1850 C   0  0  2  0  0  3  0  0  0  0  0  0
  189.9960  177.0170  139.9420 C   0  0  0  0  0  3  0  0  0  0  0  0
  181.9330  180.5220  143.6510 O   0  0  0  0  0  0  0  0  0  0  0  0
  182.4670  179.4210  143.9440 C   0  0  0  0  0  0  0  0  0  0  0  0
  183.8450  179.3890  144.3270 N   0  0  0  0  0  2  0  0  0  0  0  0
  181.6410  178.1780  143.9180 C   0  0  0  0  0  2  0  0  0  0  0  0
  180.1910  178.5270  143.6360 C   0  0  0  0  0  2  0  0  0  0  0  0
  179.8440  178.1410  142.2430 C   0  0  0  0  0  0  0  0  0  0  0  0
  180.1600  178.9860  141.1880 O   0  0  0  0  0  0  0  0  0  0  0  0
  179.2900  177.0330  142.0160 O   0  0  0  0  0  1  0  0  0  0  0  0
  189.0340  179.2650  138.5090 O   0  0  0  0  0  1  0  0  0  0  0  0
  189.3000  177.5960  138.4030 P   0  0  1  0  0  0  0  0  0  0  0  0
  190.2720  177.3080  137.2810 O   0  0  0  0  0  0  0  0  0  0  0  0
  187.8360  176.7880  138.1210 O   0  0  0  0  0  0  0  0  0  0  0  0
  187.2090  177.4990  137.0960 C   0  0  0  0  0  1  0  0  0  0  0  0
  186.9880  179.0050  141.2680 C   0  0  0  0  0  2  0  0  0  0  0  0
  185.8120  178.6650  140.3730 C   0  0  0  0  0  1  0  0  0  0  0  0
  1 15  1  6  0  0  0
  1  8  1  0  0  0  0
  2  7  1  0  0  0  0
  3  2  1  0  0  0  0
  4 20  1  6  0  0  0
  4 11  1  0  0  0  0
  8  9  1  0  0  0  0
  8  5  1  1  0  0  0
  9  7  1  1  0  0  0
 11  5  1  0  0  0  0
 11  6  1  1  0  0  0
 12  3  1  0  0  0  0
 13 10  1  6  0  0  0
 13 12  1  0  0  0  0
 13  9  1  0  0  0  0
 14 10  2  0  0  0  0
 15  4  1  0  0  0  0
 16 31  1  6  0  0  0
 16 10  1  0  0  0  0
 16  1  1  0  0  0  0
 17 14  2  0  0  0  0
 18 19  2  0  0  0  0
 19 20  1  0  0  0  0
 21 19  1  0  0  0  0
 22 21  1  0  0  0  0
 23 22  1  0  0  0  0
 24 23  2  0  0  0  0
 25 23  1  0  0  0  0
 27 28  2  6  0  0  0
 27 26  1  0  0  0  0
 27 17  1  0  0  0  0
 29 27  1  0  0  0  0
 30 29  1  0  0  0  0
 32 31  1  0  0  0  0
M  END
>  <MODEL>
3

>  <REMARK>
 VINA RESULT:      -7.4      3.647      7.295
  Name = 
  7 active torsions:
  status: ('A' for Active; 'I' for Inactive)
    1  A    between atoms: C_1  and  C_10
    2  A    between atoms: C_6  and  C_31
    3  A    between atoms: C_8  and  N_23
    4  A    between atoms: C_10  and  C_24
    5  A    between atoms: P_11  and  O_18
    6  A    between atoms: P_11  and  C_32
    7  A    between atoms: C_19  and  C_24
                            x       y       z     vdW  Elec       q    Type
                         _______ _______ _______ _____ _____    ______ ____

>  <TORSDO>
F 7

$$$$
=
 OpenBabel10262421223D

 32 34  0  0  1  0  0  0  0  0999 V2000
  186.3220  178.0410  143.5960 N   0  0  2  0  0  0  0  0  0  0  0  0
  187.2050  178.8980  138.8330 C   0  0  0  0  0  2  0  0  0  0  0  0
  185.6760  178.9520  138.7000 C   0  0  0  0  0  2  0  0  0  0  0  0
  188.0440  177.2520  145.1720 C   0  0  2  0  0  3  0  0  0  0  0  0
  188.4780  177.1610  142.6800 C   0  0  0  0  0  2  0  0  0  0  0  0
  190.2520  177.3110  144.2640 F   0  0  0  0  0  0  0  0  0  0  0  0
  187.5830  177.9770  139.9940 C   0  0  0  0  0  2  0  0  0  0  0  0
  186.9780  177.4390  142.4200 C   0  0  2  0  0  3  0  0  0  0  0  0
  186.7880  178.3770  141.2380 C   0  0  2  0  0  3  0  0  0  0  0  0
  184.3970  178.5030  142.0330 C   0  0  0  0  0  0  0  0  0  0  0  0
  188.9510  177.7100  144.0260 C   0  0  2  0  0  3  0  0  0  0  0  0
  185.0900  179.3970  139.9030 O   0  0  0  0  0  0  0  0  0  0  0  0
  185.3160  178.3800  140.8480 C   0  0  1  0  0  3  0  0  0  0  0  0
  183.1100  178.5340  141.7990 C   0  0  0  0  0  0  0  0  0  0  0  0
  186.5760  177.1620  144.7370 C   0  0  0  0  0  2  0  0  0  0  0  0
  184.8570  178.1620  143.4410 C   0  0  2  0  0  3  0  0  0  0  0  0
  181.8270  178.5690  141.5740 C   0  0  0  0  0  3  0  0  0  0  0  0
  189.0680  178.7740  148.3500 O   0  0  0  0  0  0  0  0  0  0  0  0
  189.0160  177.9280  147.4200 C   0  0  0  0  0  0  0  0  0  0  0  0
  188.1770  178.1780  146.2880 N   0  0  0  0  0  2  0  0  0  0  0  0
  189.8600  176.6990  147.5030 C   0  0  0  0  0  2  0  0  0  0  0  0
  191.3290  177.0790  147.4880 C   0  0  0  0  0  2  0  0  0  0  0  0
  192.1540  175.8810  147.1800 C   0  0  0  0  0  0  0  0  0  0  0  0
  192.9340  175.3000  148.1710 O   0  0  0  0  0  1  0  0  0  0  0  0
  192.1210  175.3740  146.0280 O   0  0  0  0  0  0  0  0  0  0  0  0
  179.2880  178.0980  142.7420 O   0  0  0  0  0  0  0  0  0  0  0  0
  180.7060  179.0120  142.8910 P   0  0  1  0  0  0  0  0  0  0  0  0
  181.3630  178.7130  144.2200 O   0  0  0  0  0  1  0  0  0  0  0  0
  180.3500  180.6660  142.7800 O   0  0  0  0  0  0  0  0  0  0  0  0
  179.4140  180.7780  141.7500 C   0  0  0  0  0  1  0  0  0  0  0  0
  184.3380  179.2280  144.4070 C   0  0  0  0  0  2  0  0  0  0  0  0
  184.3200  178.6980  145.8280 C   0  0  0  0  0  1  0  0  0  0  0  0
  1 15  1  1  0  0  0
  2  7  1  0  0  0  0
  3  2  1  0  0  0  0
  3 12  1  0  0  0  0
  4 20  1  1  0  0  0
  5 11  1  0  0  0  0
  8  5  1  1  0  0  0
  8  1  1  0  0  0  0
  9  7  1  6  0  0  0
  9  8  1  0  0  0  0
 10 16  1  0  0  0  0
 11  6  1  1  0  0  0
 11  4  1  0  0  0  0
 13 12  1  6  0  0  0
 13  9  1  0  0  0  0
 13 10  1  0  0  0  0
 14 10  2  0  0  0  0
 15  4  1  0  0  0  0
 16  1  1  0  0  0  0
 16 31  1  1  0  0  0
 17 14  2  0  0  0  0
 17 27  1  0  0  0  0
 19 21  1  0  0  0  0
 19 18  2  0  0  0  0
 20 19  1  0  0  0  0
 22 21  1  0  0  0  0
 23 22  1  0  0  0  0
 23 24  1  0  0  0  0
 25 23  2  0  0  0  0
 27 26  2  6  0  0  0
 27 28  1  0  0  0  0
 29 27  1  0  0  0  0
 30 29  1  0  0  0  0
 31 32  1  0  0  0  0
M  END
>  <MODEL>
4

>  <REMARK>
 VINA RESULT:      -7.3      3.846      8.525
  Name = 
  7 active torsions:
  status: ('A' for Active; 'I' for Inactive)
    1  A    between atoms: C_1  and  C_10
    2  A    between atoms: C_6  and  C_31
    3  A    between atoms: C_8  and  N_23
    4  A    between atoms: C_10  and  C_24
    5  A    between atoms: P_11  and  O_18
    6  A    between atoms: P_11  and  C_32
    7  A    between atoms: C_19  and  C_24
                            x       y       z     vdW  Elec       q    Type
                         _______ _______ _______ _____ _____    ______ ____

>  <TORSDO>
F 7

$$$$
=
 OpenBabel10262421223D

 32 34  0  0  1  0  0  0  0  0999 V2000
  187.5290  177.8990  144.9590 N   0  0  2  0  0  0  0  0  0  0  0  0
  182.6810  178.5740  144.4710 C   0  0  0  0  0  2  0  0  0  0  0  0
  182.9940  178.7550  142.9790 C   0  0  0  0  0  2  0  0  0  0  0  0
  188.6850  177.9020  147.1350 C   0  0  2  0  0  3  0  0  0  0  0  0
  186.3100  178.7630  146.9660 C   0  0  0  0  0  2  0  0  0  0  0  0
  187.1890  177.8780  148.9970 F   0  0  0  0  0  0  0  0  0  0  0  0
  183.8910  179.0030  145.3010 C   0  0  0  0  0  2  0  0  0  0  0  0
  186.4360  178.7730  145.4240 C   0  0  2  0  0  3  0  0  0  0  0  0
  185.1460  178.3120  144.7640 C   0  0  2  0  0  3  0  0  0  0  0  0
  186.5380  178.2230  142.6620 C   0  0  0  0  0  0  0  0  0  0  0  0
  187.2410  177.7440  147.6230 C   0  0  2  0  0  3  0  0  0  0  0  0
  184.1360  178.0100  142.6190 O   0  0  0  0  0  0  0  0  0  0  0  0
  185.2230  178.6190  143.2740 C   0  0  1  0  0  3  0  0  0  0  0  0
  186.6950  178.4290  141.3790 C   0  0  0  0  0  0  0  0  0  0  0  0
  188.7460  178.3100  145.6580 C   0  0  0  0  0  2  0  0  0  0  0  0
  187.7850  178.0160  143.5080 C   0  0  2  0  0  3  0  0  0  0  0  0
  186.8580  178.6280  140.1020 C   0  0  0  0  0  3  0  0  0  0  0  0
  191.2230  175.2580  146.9660 O   0  0  0  0  0  0  0  0  0  0  0  0
  190.6760  176.3700  146.7530 C   0  0  0  0  0  0  0  0  0  0  0  0
  189.3990  176.6490  147.3350 N   0  0  0  0  0  2  0  0  0  0  0  0
  191.3890  177.3890  145.9260 C   0  0  0  0  0  2  0  0  0  0  0  0
  191.6810  176.8240  144.5490 C   0  0  0  0  0  2  0  0  0  0  0  0
  191.6960  177.9230  143.5480 C   0  0  0  0  0  0  0  0  0  0  0  0
  191.6630  179.2470  143.9680 O   0  0  0  0  0  1  0  0  0  0  0  0
  191.7700  177.6550  142.3210 O   0  0  0  0  0  0  0  0  0  0  0  0
  189.1020  179.1370  138.4470 O   0  0  0  0  0  0  0  0  0  0  0  0
  188.2620  177.9130  139.2630 P   0  0  1  0  0  0  0  0  0  0  0  0
  189.1730  177.2690  140.2840 O   0  0  0  0  0  1  0  0  0  0  0  0
  187.7130  176.7470  138.1620 O   0  0  0  0  0  0  0  0  0  0  0  0
  186.6350  177.3370  137.4990 C   0  0  0  0  0  1  0  0  0  0  0  0
  188.5140  176.7620  143.0240 C   0  0  0  0  0  2  0  0  0  0  0  0
  187.8650  175.5150  143.5930 C   0  0  0  0  0  1  0  0  0  0  0  0
  1  8  1  0  0  0  0
  1 15  1  1  0  0  0
  2  7  1  0  0  0  0
  3  2  1  0  0  0  0
  4 20  1  6  0  0  0
  4 11  1  0  0  0  0
  5 11  1  0  0  0  0
  8  5  1  1  0  0  0
  9  7  1  1  0  0  0
  9  8  1  0  0  0  0
 10 13  1  0  0  0  0
 10 16  1  0  0  0  0
 11  6  1  1  0  0  0
 12  3  1  0  0  0  0
 13 12  1  6  0  0  0
 13  9  1  0  0  0  0
 14 10  2  0  0  0  0
 15  4  1  0  0  0  0
 16 31  1  6  0  0  0
 16  1  1  0  0  0  0
 17 14  2  0  0  0  0
 19 18  2  0  0  0  0
 19 20  1  0  0  0  0
 21 19  1  0  0  0  0
 22 21  1  0  0  0  0
 23 24  1  0  0  0  0
 23 22  1  0  0  0  0
 25 23  2  0  0  0  0
 27 26  2  6  0  0  0
 27 17  1  0  0  0  0
 27 28  1  0  0  0  0
 29 27  1  0  0  0  0
 30 29  1  0  0  0  0
 31 32  1  0  0  0  0
M  END
>  <MODEL>
5

>  <REMARK>
 VINA RESULT:      -7.0      3.028      6.846
  Name = 
  7 active torsions:
  status: ('A' for Active; 'I' for Inactive)
    1  A    between atoms: C_1  and  C_10
    2  A    between atoms: C_6  and  C_31
    3  A    between atoms: C_8  and  N_23
    4  A    between atoms: C_10  and  C_24
    5  A    between atoms: P_11  and  O_18
    6  A    between atoms: P_11  and  C_32
    7  A    between atoms: C_19  and  C_24
                            x       y       z     vdW  Elec       q    Type
                         _______ _______ _______ _____ _____    ______ ____

>  <TORSDO>
F 7

$$$$
=
 OpenBabel10262421223D

 32 34  0  0  1  0  0  0  0  0999 V2000
  189.3010  177.5850  139.7350 N   0  0  2  0  0  0  0  0  0  0  0  0
  189.8060  177.4110  134.8450 C   0  0  0  0  0  2  0  0  0  0  0  0
  188.2740  177.5060  134.8210 C   0  0  0  0  0  2  0  0  0  0  0  0
  191.1260  177.0570  141.3050 C   0  0  2  0  0  3  0  0  0  0  0  0
  191.3470  176.4410  138.8600 C   0  0  0  0  0  2  0  0  0  0  0  0
  193.2510  176.8310  140.2390 F   0  0  0  0  0  0  0  0  0  0  0  0
  190.2540  176.7300  136.1400 C   0  0  0  0  0  2  0  0  0  0  0  0
  189.8390  176.7260  138.6630 C   0  0  2  0  0  3  0  0  0  0  0  0
  189.5780  177.4110  137.3310 C   0  0  2  0  0  3  0  0  0  0  0  0
  187.2660  177.8040  138.2620 C   0  0  0  0  0  0  0  0  0  0  0  0
  191.9460  177.2310  140.0230 C   0  0  2  0  0  3  0  0  0  0  0  0
  187.8030  178.2130  135.9460 O   0  0  0  0  0  0  0  0  0  0  0  0
  188.0790  177.4010  137.0620 C   0  0  1  0  0  3  0  0  0  0  0  0
  185.9650  177.8450  138.1250 C   0  0  0  0  0  0  0  0  0  0  0  0
  189.6240  176.9470  141.0110 C   0  0  0  0  0  2  0  0  0  0  0  0
  187.8330  177.7380  139.6710 C   0  0  2  0  0  3  0  0  0  0  0  0
  184.6700  177.8900  137.9960 C   0  0  0  0  0  3  0  0  0  0  0  0
  191.7460  179.0750  144.3070 O   0  0  0  0  0  0  0  0  0  0  0  0
  191.5410  178.0500  143.6070 C   0  0  0  0  0  0  0  0  0  0  0  0
  191.3780  178.1850  142.1920 N   0  0  0  0  0  2  0  0  0  0  0  0
  191.5090  176.7100  144.2670 C   0  0  0  0  0  2  0  0  0  0  0  0
  190.7490  176.7970  145.5770 C   0  0  0  0  0  2  0  0  0  0  0  0
  191.6330  176.3840  146.6980 C   0  0  0  0  0  0  0  0  0  0  0  0
  192.4300  175.2530  146.5750 O   0  0  0  0  0  0  0  0  0  0  0  0
  191.6830  177.0760  147.7480 O   0  0  0  0  0  1  0  0  0  0  0  0
  183.7110  177.6610  140.6540 O   0  0  0  0  0  1  0  0  0  0  0  0
  183.6750  178.6430  139.2740 P   0  0  1  0  0  0  0  0  0  0  0  0
  184.2450  180.0040  139.6060 O   0  0  0  0  0  0  0  0  0  0  0  0
  182.0830  178.8040  138.7120 O   0  0  0  0  0  0  0  0  0  0  0  0
  181.9340  180.1560  138.3980 C   0  0  0  0  0  1  0  0  0  0  0  0
  187.4260  179.0000  140.4320 C   0  0  0  0  0  2  0  0  0  0  0  0
  186.7520  178.6400  141.7420 C   0  0  0  0  0  1  0  0  0  0  0  0
  1 15  1  1  0  0  0
  2  7  1  0  0  0  0
  3  2  1  0  0  0  0
  3 12  1  0  0  0  0
  4 20  1  1  0  0  0
  5 11  1  0  0  0  0
  8  5  1  1  0  0  0
  8  1  1  0  0  0  0
  9  7  1  6  0  0  0
  9  8  1  0  0  0  0
 10 16  1  0  0  0  0
 11  6  1  1  0  0  0
 11  4  1  0  0  0  0
 13 12  1  6  0  0  0
 13  9  1  0  0  0  0
 13 10  1  0  0  0  0
 14 10  2  0  0  0  0
 15  4  1  0  0  0  0
 16  1  1  0  0  0  0
 16 31  1  1  0  0  0
 17 14  2  0  0  0  0
 17 27  1  0  0  0  0
 19 21  1  0  0  0  0
 19 18  2  0  0  0  0
 20 19  1  0  0  0  0
 21 22  1  0  0  0  0
 22 23  1  0  0  0  0
 23 25  1  0  0  0  0
 24 23  2  0  0  0  0
 27 28  2  1  0  0  0
 27 26  1  0  0  0  0
 29 27  1  0  0  0  0
 30 29  1  0  0  0  0
 31 32  1  0  0  0  0
M  END
>  <MODEL>
6

>  <REMARK>
 VINA RESULT:      -6.9      3.614      8.759
  Name = 
  7 active torsions:
  status: ('A' for Active; 'I' for Inactive)
    1  A    between atoms: C_1  and  C_10
    2  A    between atoms: C_6  and  C_31
    3  A    between atoms: C_8  and  N_23
    4  A    between atoms: C_10  and  C_24
    5  A    between atoms: P_11  and  O_18
    6  A    between atoms: P_11  and  C_32
    7  A    between atoms: C_19  and  C_24
                            x       y       z     vdW  Elec       q    Type
                         _______ _______ _______ _____ _____    ______ ____

>  <TORSDO>
F 7

$$$$
=
 OpenBabel10262421223D

 32 34  0  0  1  0  0  0  0  0999 V2000
  188.4350  177.6530  144.1580 N   0  0  2  0  0  0  0  0  0  0  0  0
  183.5840  178.2530  144.7140 C   0  0  0  0  0  2  0  0  0  0  0  0
  183.5920  178.5890  143.2170 C   0  0  0  0  0  2  0  0  0  0  0  0
  190.0030  177.4680  146.0490 C   0  0  2  0  0  3  0  0  0  0  0  0
  187.6390  178.2820  146.4450 C   0  0  0  0  0  2  0  0  0  0  0  0
  188.9110  177.2220  148.1590 F   0  0  0  0  0  0  0  0  0  0  0  0
  184.9350  178.6270  145.3270 C   0  0  0  0  0  2  0  0  0  0  0  0
  187.4530  178.4500  144.9180 C   0  0  2  0  0  3  0  0  0  0  0  0
  186.0590  178.0250  144.4830 C   0  0  2  0  0  3  0  0  0  0  0  0
  187.0030  178.1790  142.1490 C   0  0  0  0  0  0  0  0  0  0  0  0
  188.6870  177.2270  146.7950 C   0  0  2  0  0  3  0  0  0  0  0  0
  184.6420  177.9130  142.5630 O   0  0  0  0  0  0  0  0  0  0  0  0
  185.8350  178.4800  143.0470 C   0  0  1  0  0  3  0  0  0  0  0  0
  186.8990  178.5160  140.8890 C   0  0  0  0  0  0  0  0  0  0  0  0
  189.7650  178.0230  144.6390 C   0  0  0  0  0  2  0  0  0  0  0  0
  188.3950  177.9210  142.7050 C   0  0  2  0  0  3  0  0  0  0  0  0
  186.8020  178.8450  139.6320 C   0  0  0  0  0  3  0  0  0  0  0  0
  192.3620  174.7550  146.7800 O   0  0  0  0  0  0  0  0  0  0  0  0
  191.7550  175.8470  146.9210 C   0  0  0  0  0  0  0  0  0  0  0  0
  190.7480  176.2190  145.9740 N   0  0  0  0  0  2  0  0  0  0  0  0
  192.0750  176.7150  148.0930 C   0  0  0  0  0  2  0  0  0  0  0  0
  193.1510  176.0620  148.9410 C   0  0  0  0  0  2  0  0  0  0  0  0
  193.7330  177.0640  149.8720 C   0  0  0  0  0  0  0  0  0  0  0  0
  193.1730  178.3320  149.9690 O   0  0  0  0  0  0  0  0  0  0  0  0
  194.7140  176.7540  150.5960 O   0  0  0  0  0  1  0  0  0  0  0  0
  187.7270  178.9720  136.9560 O   0  0  0  0  0  0  0  0  0  0  0  0
  188.0130  178.2520  138.4610 P   0  0  1  0  0  0  0  0  0  0  0  0
  189.3950  178.6280  138.9480 O   0  0  0  0  0  1  0  0  0  0  0  0
  187.8830  176.5660  138.3380 O   0  0  0  0  0  0  0  0  0  0  0  0
  188.9930  176.1590  137.5960 C   0  0  0  0  0  1  0  0  0  0  0  0
  189.0170  176.7390  141.9600 C   0  0  0  0  0  2  0  0  0  0  0  0
  190.4220  177.0790  141.5000 C   0  0  0  0  0  1  0  0  0  0  0  0
  1 15  1  1  0  0  0
  1  8  1  0  0  0  0
  2  7  1  0  0  0  0
  3  2  1  0  0  0  0
  4 20  1  6  0  0  0
  4 11  1  0  0  0  0
  5 11  1  0  0  0  0
  8  5  1  1  0  0  0
  9  8  1  0  0  0  0
  9  7  1  1  0  0  0
 10 16  1  0  0  0  0
 11  6  1  1  0  0  0
 12 13  1  0  0  0  0
 12  3  1  0  0  0  0
 13 10  1  6  0  0  0
 13  9  1  0  0  0  0
 14 10  2  0  0  0  0
 15  4  1  0  0  0  0
 16 31  1  6  0  0  0
 16  1  1  0  0  0  0
 17 14  2  0  0  0  0
 18 19  2  0  0  0  0
 19 21  1  0  0  0  0
 20 19  1  0  0  0  0
 21 22  1  0  0  0  0
 22 23  1  0  0  0  0
 23 24  2  0  0  0  0
 23 25  1  0  0  0  0
 27 26  2  6  0  0  0
 27 28  1  0  0  0  0
 27 17  1  0  0  0  0
 29 27  1  0  0  0  0
 30 29  1  0  0  0  0
 32 31  1  0  0  0  0
M  END
>  <MODEL>
7

>  <REMARK>
 VINA RESULT:      -6.6      2.995      8.050
  Name = 
  7 active torsions:
  status: ('A' for Active; 'I' for Inactive)
    1  A    between atoms: C_1  and  C_10
    2  A    between atoms: C_6  and  C_31
    3  A    between atoms: C_8  and  N_23
    4  A    between atoms: C_10  and  C_24
    5  A    between atoms: P_11  and  O_18
    6  A    between atoms: P_11  and  C_32
    7  A    between atoms: C_19  and  C_24
                            x       y       z     vdW  Elec       q    Type
                         _______ _______ _______ _____ _____    ______ ____

>  <TORSDO>
F 7

$$$$
=
 OpenBabel10262421223D

 32 34  0  0  1  0  0  0  0  0999 V2000
  183.9250  178.3750  141.9590 N   0  0  2  0  0  0  0  0  0  0  0  0
  179.6000  178.7100  144.2780 C   0  0  0  0  0  2  0  0  0  0  0  0
  179.0220  178.9540  142.8770 C   0  0  0  0  0  2  0  0  0  0  0  0
  186.0940  178.4010  143.1270 C   0  0  2  0  0  3  0  0  0  0  0  0
  183.9920  179.0920  144.3550 C   0  0  0  0  0  2  0  0  0  0  0  0
  185.8900  178.2180  145.5000 F   0  0  0  0  0  0  0  0  0  0  0  0
  181.0470  179.2020  144.3260 C   0  0  0  0  0  2  0  0  0  0  0  0
  183.2370  179.1540  143.0060 C   0  0  2  0  0  3  0  0  0  0  0  0
  181.8200  178.6190  143.1410 C   0  0  2  0  0  3  0  0  0  0  0  0
  181.8110  178.6890  140.6200 C   0  0  0  0  0  0  0  0  0  0  0  0
  185.1750  178.1260  144.3210 C   0  0  2  0  0  3  0  0  0  0  0  0
  179.8040  178.3040  141.8990 O   0  0  0  0  0  0  0  0  0  0  0  0
  181.0420  178.9720  141.8800 C   0  0  1  0  0  3  0  0  0  0  0  0
  181.2190  178.9420  139.4800 C   0  0  0  0  0  0  0  0  0  0  0  0
  185.3050  178.8540  141.8920 C   0  0  0  0  0  2  0  0  0  0  0  0
  183.3260  178.5500  140.6200 C   0  0  2  0  0  3  0  0  0  0  0  0
  180.6350  179.1870  138.3420 C   0  0  0  0  0  3  0  0  0  0  0  0
  188.7810  175.9070  142.9700 O   0  0  0  0  0  0  0  0  0  0  0  0
  188.1870  176.9680  143.2890 C   0  0  0  0  0  0  0  0  0  0  0  0
  186.8550  177.1980  142.8190 N   0  0  0  0  0  2  0  0  0  0  0  0
  188.8730  177.9490  144.1820 C   0  0  0  0  0  2  0  0  0  0  0  0
  189.5690  177.2180  145.3140 C   0  0  0  0  0  2  0  0  0  0  0  0
  191.0380  177.4280  145.2200 C   0  0  0  0  0  0  0  0  0  0  0  0
  191.5850  178.0160  144.0860 O   0  0  0  0  0  0  0  0  0  0  0  0
  191.7830  177.1010  146.1800 O   0  0  0  0  0  1  0  0  0  0  0  0
  183.0330  178.4060  137.0480 O   0  0  0  0  0  1  0  0  0  0  0  0
  181.3660  178.5990  136.8230 P   0  0  1  0  0  0  0  0  0  0  0  0
  180.7470  177.2680  136.4600 O   0  0  0  0  0  0  0  0  0  0  0  0
  181.0680  179.7290  135.5930 O   0  0  0  0  0  0  0  0  0  0  0  0
  180.5920  180.8690  136.2420 C   0  0  0  0  0  1  0  0  0  0  0  0
  183.7180  177.3660  139.7360 C   0  0  0  0  0  2  0  0  0  0  0  0
  182.6920  176.2540  139.8470 C   0  0  0  0  0  1  0  0  0  0  0  0
  1 15  1  6  0  0  0
  1  8  1  0  0  0  0
  2  7  1  0  0  0  0
  3  2  1  0  0  0  0
  4 20  1  6  0  0  0
  4 11  1  0  0  0  0
  8  9  1  0  0  0  0
  8  5  1  1  0  0  0
  9  7  1  1  0  0  0
 11  5  1  0  0  0  0
 11  6  1  1  0  0  0
 12  3  1  0  0  0  0
 13 10  1  6  0  0  0
 13 12  1  0  0  0  0
 13  9  1  0  0  0  0
 14 10  2  0  0  0  0
 15  4  1  0  0  0  0
 16 31  1  6  0  0  0
 16 10  1  0  0  0  0
 16  1  1  0  0  0  0
 17 14  2  0  0  0  0
 18 19  2  0  0  0  0
 19 21  1  0  0  0  0
 20 19  1  0  0  0  0
 21 22  1  0  0  0  0
 23 22  1  0  0  0  0
 23 25  1  0  0  0  0
 24 23  2  0  0  0  0
 27 28  2  6  0  0  0
 27 26  1  0  0  0  0
 27 17  1  0  0  0  0
 29 30  1  0  0  0  0
 29 27  1  0  0  0  0
 31 32  1  0  0  0  0
M  END
>  <MODEL>
8

>  <REMARK>
 VINA RESULT:      -6.5      4.862      8.778
  Name = 
  7 active torsions:
  status: ('A' for Active; 'I' for Inactive)
    1  A    between atoms: C_1  and  C_10
    2  A    between atoms: C_6  and  C_31
    3  A    between atoms: C_8  and  N_23
    4  A    between atoms: C_10  and  C_24
    5  A    between atoms: P_11  and  O_18
    6  A    between atoms: P_11  and  C_32
    7  A    between atoms: C_19  and  C_24
                            x       y       z     vdW  Elec       q    Type
                         _______ _______ _______ _____ _____    ______ ____

>  <TORSDO>
F 7

$$$$
=
 OpenBabel10262421223D

 32 34  0  0  1  0  0  0  0  0999 V2000
  190.7340  176.6670  138.5180 N   0  0  2  0  0  0  0  0  0  0  0  0
  186.1330  178.2530  137.8080 C   0  0  0  0  0  2  0  0  0  0  0  0
  186.0840  178.3760  139.3370 C   0  0  0  0  0  2  0  0  0  0  0  0
  192.0790  175.5800  136.7620 C   0  0  2  0  0  3  0  0  0  0  0  0
  189.5860  175.8790  136.4390 C   0  0  0  0  0  2  0  0  0  0  0  0
  191.0860  175.7160  134.5940 F   0  0  0  0  0  0  0  0  0  0  0  0
  187.1120  177.1450  137.4160 C   0  0  0  0  0  2  0  0  0  0  0  0
  189.4470  176.2420  137.9360 C   0  0  2  0  0  3  0  0  0  0  0  0
  188.4410  177.3640  138.1400 C   0  0  2  0  0  3  0  0  0  0  0  0
  189.3610  177.4350  140.4880 C   0  0  0  0  0  0  0  0  0  0  0  0
  190.9780  176.1880  135.8880 C   0  0  2  0  0  3  0  0  0  0  0  0
  187.3700  178.6390  139.8540 O   0  0  0  0  0  0  0  0  0  0  0  0
  188.1290  177.4760  139.6270 C   0  0  1  0  0  3  0  0  0  0  0  0
  189.1980  177.5440  141.7820 C   0  0  0  0  0  0  0  0  0  0  0  0
  191.7070  175.6080  138.2500 C   0  0  0  0  0  2  0  0  0  0  0  0
  190.6730  176.8570  139.9820 C   0  0  2  0  0  3  0  0  0  0  0  0
  189.0440  177.6550  143.0710 C   0  0  0  0  0  3  0  0  0  0  0  0
  195.6170  176.3690  136.1930 O   0  0  0  0  0  0  0  0  0  0  0  0
  194.5870  175.6670  136.3640 C   0  0  0  0  0  0  0  0  0  0  0  0
  193.3210  176.3080  136.5450 N   0  0  0  0  0  2  0  0  0  0  0  0
  194.7050  174.1790  136.3400 C   0  0  0  0  0  2  0  0  0  0  0  0
  195.9960  173.7510  137.0130 C   0  0  0  0  0  2  0  0  0  0  0  0
  195.7250  173.3820  138.4280 C   0  0  0  0  0  0  0  0  0  0  0  0
  195.8030  174.3450  139.4250 O   0  0  0  0  0  1  0  0  0  0  0  0
  195.3940  172.2030  138.7180 O   0  0  0  0  0  0  0  0  0  0  0  0
  191.6820  176.8160  143.6830 O   0  0  0  0  0  0  0  0  0  0  0  0
  190.4680  177.9140  144.1170 P   0  0  1  0  0  0  0  0  0  0  0  0
  190.9710  179.3270  143.9240 O   0  0  0  0  0  1  0  0  0  0  0  0
  190.0150  177.6780  145.7340 O   0  0  0  0  0  0  0  0  0  0  0  0
  188.6230  177.5760  145.7210 C   0  0  0  0  0  1  0  0  0  0  0  0
  191.8210  177.7690  140.4180 C   0  0  0  0  0  2  0  0  0  0  0  0
  193.1590  177.1270  140.1080 C   0  0  0  0  0  1  0  0  0  0  0  0
  1 15  1  1  0  0  0
  1 16  1  0  0  0  0
  2  3  1  0  0  0  0
  3 12  1  0  0  0  0
  4 20  1  1  0  0  0
  4 15  1  0  0  0  0
  7  2  1  0  0  0  0
  8  5  1  6  0  0  0
  8  9  1  0  0  0  0
  8  1  1  0  0  0  0
  9  7  1  6  0  0  0
  9 13  1  0  0  0  0
 10 14  2  0  0  0  0
 11  6  1  6  0  0  0
 11  5  1  0  0  0  0
 11  4  1  0  0  0  0
 13 12  1  6  0  0  0
 13 10  1  0  0  0  0
 14 17  2  0  0  0  0
 16 31  1  6  0  0  0
 16 10  1  0  0  0  0
 17 27  1  0  0  0  0
 18 19  2  0  0  0  0
 19 20  1  0  0  0  0
 21 19  1  0  0  0  0
 21 22  1  0  0  0  0
 22 23  1  0  0  0  0
 23 25  2  0  0  0  0
 23 24  1  0  0  0  0
 27 26  2  6  0  0  0
 27 29  1  0  0  0  0
 28 27  1  0  0  0  0
 30 29  1  0  0  0  0
 32 31  1  0  0  0  0
M  END
>  <MODEL>
9

>  <REMARK>
 VINA RESULT:      -6.5      4.084      6.072
  Name = 
  7 active torsions:
  status: ('A' for Active; 'I' for Inactive)
    1  A    between atoms: C_1  and  C_10
    2  A    between atoms: C_6  and  C_31
    3  A    between atoms: C_8  and  N_23
    4  A    between atoms: C_10  and  C_24
    5  A    between atoms: P_11  and  O_18
    6  A    between atoms: P_11  and  C_32
    7  A    between atoms: C_19  and  C_24
                            x       y       z     vdW  Elec       q    Type
                         _______ _______ _______ _____ _____    ______ ____

>  <TORSDO>
F 7

$$$$
