=
 OpenBabel10262420523D

 28 32  0  0  1  0  0  0  0  0999 V2000
  186.8100  178.5900  141.0120 C   0  0  0  0  0  0  0  0  0  0  0  0
  184.2490  178.3270  144.9920 O   0  0  0  0  0  0  0  0  0  0  0  0
  187.9330  178.2880  144.4800 C   0  0  1  0  0  3  0  0  0  0  0  0
  186.5560  178.2450  146.4860 N   0  0  0  0  0  2  0  0  0  0  0  0
  185.4380  178.4240  142.9760 N   0  0  0  0  0  0  0  0  0  0  0  0
  187.8710  177.7040  143.0680 C   0  0  0  0  0  2  0  0  0  0  0  0
  184.4860  179.1640  140.8390 C   0  0  0  0  0  3  0  0  0  0  0  0
  185.3660  178.3060  144.4070 C   0  0  0  0  0  0  0  0  0  0  0  0
  184.2060  178.5830  142.1970 C   0  0  0  0  0  2  0  0  0  0  0  0
  186.6080  178.1740  145.1940 C   0  0  0  0  0  0  0  0  0  0  0  0
  185.6750  179.1240  140.3160 N   0  0  0  0  0  0  0  0  0  0  0  0
  186.7040  178.2650  142.3090 C   0  0  0  0  0  0  0  0  0  0  0  0
  188.8030  177.0440  146.4570 C   0  0  0  0  0  3  0  0  0  0  0  0
  190.4060  177.7490  144.7790 C   0  0  0  0  0  0  0  0  0  0  0  0
  191.1530  176.5420  146.7420 C   0  0  0  0  0  0  0  0  0  0  0  0
  189.0770  177.6830  145.2430 C   0  0  0  0  0  0  0  0  0  0  0  0
  191.4360  177.1770  145.5310 C   0  0  0  0  0  3  0  0  0  0  0  0
  190.7030  178.3630  143.6060 F   0  0  0  0  0  0  0  0  0  0  0  0
  192.2520  175.9370  147.5390 C   0  0  0  0  0  1  0  0  0  0  0  0
  189.8370  176.4750  147.2060 C   0  0  0  0  0  3  0  0  0  0  0  0
  188.0510  178.4610  140.3180 N   0  0  0  0  0  0  0  0  0  0  0  0
  188.9290  178.6970  139.1660 N   0  0  1  0  0  0  0  0  0  0  0  0
  189.4110  177.9570  140.2010 C   0  0  2  0  0  3  0  0  0  0  0  0
  189.3800  176.5710  139.9850 O   0  0  0  0  0  1  0  0  0  0  0  0
  189.2140  178.1670  136.8110 C   0  0  2  0  0  3  0  0  0  0  0  0
  188.3790  177.9230  138.0540 C   0  0  2  0  0  3  0  0  0  0  0  0
  187.8850  178.8680  136.9780 C   0  0  0  0  0  2  0  0  0  0  0  0
  189.0460  176.9930  135.8700 C   0  0  0  0  0  1  0  0  0  0  0  0
  1 12  2  0  0  0  0
  3 10  1  0  0  0  0
  3 16  1  1  0  0  0
  5  8  1  0  0  0  0
  6  3  1  0  0  0  0
  7  9  1  0  0  0  0
  8  2  2  0  0  0  0
  8 10  1  0  0  0  0
  9  5  1  0  0  0  0
 10  4  2  0  0  0  0
 11  7  2  0  0  0  0
 11  1  1  0  0  0  0
 12  5  1  0  0  0  0
 12  6  1  0  0  0  0
 13 20  1  0  0  0  0
 14 16  1  0  0  0  0
 14 17  2  0  0  0  0
 15 20  2  0  0  0  0
 15 19  1  0  0  0  0
 16 13  2  0  0  0  0
 17 15  1  0  0  0  0
 18 14  1  0  0  0  0
 21  1  1  0  0  0  0
 22 23  1  0  0  0  0
 22 21  1  1  0  0  0
 23 24  1  6  0  0  0
 23 21  1  0  0  0  0
 25 28  1  6  0  0  0
 25 27  1  0  0  0  0
 25 26  1  0  0  0  0
 26 27  1  6  0  0  0
 26 22  1  0  0  0  0
M  END
>  <MODEL>
1

>  <REMARK>
 VINA RESULT:      -9.8      0.000      0.000
  Name = 
  3 active torsions:
  status: ('A' for Active; 'I' for Inactive)
    1  A    between atoms: C_1  and  N_2
    2  A    between atoms: N_3  and  C_7
    3  A    between atoms: C_10  and  C_13
                            x       y       z     vdW  Elec       q    Type
                         _______ _______ _______ _____ _____    ______ ____

>  <TORSDO>
F 3

$$$$
=
 OpenBabel10262420523D

 28 32  0  0  1  0  0  0  0  0999 V2000
  186.8850  178.4610  139.9700 C   0  0  0  0  0  0  0  0  0  0  0  0
  191.3480  176.9880  140.5800 O   0  0  0  0  0  0  0  0  0  0  0  0
  188.5220  177.2050  142.9890 C   0  0  1  0  0  3  0  0  0  0  0  0
  190.8030  176.3820  143.2060 N   0  0  0  0  0  2  0  0  0  0  0  0
  189.1730  177.7680  140.2020 N   0  0  0  0  0  0  0  0  0  0  0  0
  187.8100  178.3480  142.2650 C   0  0  0  0  0  2  0  0  0  0  0  0
  188.1650  178.0470  137.9820 C   0  0  0  0  0  3  0  0  0  0  0  0
  190.2090  177.2490  141.0530 C   0  0  0  0  0  0  0  0  0  0  0  0
  189.4390  177.9790  138.7760 C   0  0  0  0  0  2  0  0  0  0  0  0
  189.9320  177.0100  142.4820 C   0  0  0  0  0  0  0  0  0  0  0  0
  187.0240  178.2980  138.5520 N   0  0  0  0  0  0  0  0  0  0  0  0
  187.9200  178.1880  140.7760 C   0  0  0  0  0  0  0  0  0  0  0  0
  189.5870  177.8490  145.1490 C   0  0  0  0  0  3  0  0  0  0  0  0
  187.2670  177.1440  145.2060 C   0  0  0  0  0  0  0  0  0  0  0  0
  188.3940  177.7810  147.2540 C   0  0  0  0  0  0  0  0  0  0  0  0
  188.4440  177.4020  144.4770 C   0  0  0  0  0  0  0  0  0  0  0  0
  187.2480  177.3350  146.5910 C   0  0  0  0  0  3  0  0  0  0  0  0
  186.1440  176.7090  144.5810 F   0  0  0  0  0  0  0  0  0  0  0  0
  188.3700  177.9820  148.7260 C   0  0  0  0  0  1  0  0  0  0  0  0
  189.5630  178.0380  146.5340 C   0  0  0  0  0  3  0  0  0  0  0  0
  185.6230  178.8660  140.5000 N   0  0  0  0  0  0  0  0  0  0  0  0
  184.7880  179.6030  141.4570 N   0  0  1  0  0  0  0  0  0  0  0  0
  184.1680  178.8310  140.5230 C   0  0  2  0  0  3  0  0  0  0  0  0
  183.7370  177.5830  140.9970 O   0  0  0  0  0  1  0  0  0  0  0  0
  183.9590  179.5080  143.7400 C   0  0  2  0  0  3  0  0  0  0  0  0
  184.9800  178.9640  142.7580 C   0  0  2  0  0  3  0  0  0  0  0  0
  185.3850  180.0090  143.7780 C   0  0  0  0  0  2  0  0  0  0  0  0
  183.7560  178.4960  144.8470 C   0  0  0  0  0  1  0  0  0  0  0  0
  1 21  1  0  0  0  0
  1 12  2  0  0  0  0
  2  8  2  0  0  0  0
  3 16  1  1  0  0  0
  5 12  1  0  0  0  0
  5  8  1  0  0  0  0
  6  3  1  0  0  0  0
  7 11  2  0  0  0  0
  7  9  1  0  0  0  0
  8 10  1  0  0  0  0
  9  5  1  0  0  0  0
 10  3  1  0  0  0  0
 10  4  2  0  0  0  0
 11  1  1  0  0  0  0
 12  6  1  0  0  0  0
 13 20  1  0  0  0  0
 14 17  2  0  0  0  0
 15 19  1  0  0  0  0
 16 13  2  0  0  0  0
 16 14  1  0  0  0  0
 17 15  1  0  0  0  0
 18 14  1  0  0  0  0
 20 15  2  0  0  0  0
 21 23  1  0  0  0  0
 22 21  1  6  0  0  0
 22 26  1  0  0  0  0
 23 24  1  1  0  0  0
 23 22  1  0  0  0  0
 25 27  1  0  0  0  0
 25 28  1  1  0  0  0
 26 25  1  0  0  0  0
 26 27  1  1  0  0  0
M  END
>  <MODEL>
2

>  <REMARK>
 VINA RESULT:      -9.6      2.180      5.065
  Name = 
  3 active torsions:
  status: ('A' for Active; 'I' for Inactive)
    1  A    between atoms: C_1  and  N_2
    2  A    between atoms: N_3  and  C_7
    3  A    between atoms: C_10  and  C_13
                            x       y       z     vdW  Elec       q    Type
                         _______ _______ _______ _____ _____    ______ ____

>  <TORSDO>
F 3

$$$$
=
 OpenBabel10262420523D

 28 32  0  0  1  0  0  0  0  0999 V2000
  186.0240  178.2820  142.3870 C   0  0  0  0  0  0  0  0  0  0  0  0
  184.4730  178.6140  146.8530 O   0  0  0  0  0  0  0  0  0  0  0  0
  187.9160  178.1790  145.5150 C   0  0  1  0  0  3  0  0  0  0  0  0
  187.0560  178.4430  147.7770 N   0  0  0  0  0  2  0  0  0  0  0  0
  185.1510  178.4200  144.6200 N   0  0  0  0  0  0  0  0  0  0  0  0
  187.4770  177.4820  144.2270 C   0  0  0  0  0  2  0  0  0  0  0  0
  183.7740  179.0590  142.6910 C   0  0  0  0  0  3  0  0  0  0  0  0
  185.4140  178.4360  146.0330 C   0  0  0  0  0  0  0  0  0  0  0  0
  183.7840  178.6280  144.1310 C   0  0  0  0  0  2  0  0  0  0  0  0
  186.7940  178.2550  146.5230 C   0  0  0  0  0  0  0  0  0  0  0  0
  184.7990  178.8590  141.9170 N   0  0  0  0  0  0  0  0  0  0  0  0
  186.2070  178.0830  143.7000 C   0  0  0  0  0  0  0  0  0  0  0  0
  189.0340  176.6050  147.0920 C   0  0  0  0  0  3  0  0  0  0  0  0
  190.4430  177.8500  145.5600 C   0  0  0  0  0  0  0  0  0  0  0  0
  191.4350  176.3020  147.1370 C   0  0  0  0  0  0  0  0  0  0  0  0
  189.1620  177.5360  146.0560 C   0  0  0  0  0  0  0  0  0  0  0  0
  191.5720  177.2300  146.1030 C   0  0  0  0  0  3  0  0  0  0  0  0
  190.5980  178.7500  144.5560 F   0  0  0  0  0  0  0  0  0  0  0  0
  192.6390  175.6470  147.7120 C   0  0  0  0  0  1  0  0  0  0  0  0
  190.1670  175.9880  147.6320 C   0  0  0  0  0  3  0  0  0  0  0  0
  187.0520  177.9750  141.4440 N   0  0  0  0  0  0  0  0  0  0  0  0
  188.1870  177.1740  140.9690 N   0  0  1  0  0  0  0  0  0  0  0  0
  187.7990  178.2460  140.2250 C   0  0  2  0  0  3  0  0  0  0  0  0
  188.5890  179.3910  140.4050 O   0  0  0  0  0  1  0  0  0  0  0  0
  190.5570  176.7880  141.3480 C   0  0  2  0  0  3  0  0  0  0  0  0
  189.2940  177.4290  141.8910 C   0  0  2  0  0  3  0  0  0  0  0  0
  189.7860  176.1150  142.4620 C   0  0  0  0  0  2  0  0  0  0  0  0
  191.7580  177.5010  141.9320 C   0  0  0  0  0  1  0  0  0  0  0  0
  1 12  2  0  0  0  0
  3 16  1  1  0  0  0
  3 10  1  0  0  0  0
  5  8  1  0  0  0  0
  6  3  1  0  0  0  0
  7  9  1  0  0  0  0
  8 10  1  0  0  0  0
  8  2  2  0  0  0  0
  9  5  1  0  0  0  0
 10  4  2  0  0  0  0
 11  1  1  0  0  0  0
 11  7  2  0  0  0  0
 12  6  1  0  0  0  0
 12  5  1  0  0  0  0
 13 20  1  0  0  0  0
 14 16  1  0  0  0  0
 14 17  2  0  0  0  0
 15 20  2  0  0  0  0
 15 19  1  0  0  0  0
 16 13  2  0  0  0  0
 17 15  1  0  0  0  0
 18 14  1  0  0  0  0
 21  1  1  0  0  0  0
 22 21  1  1  0  0  0
 22 26  1  0  0  0  0
 23 24  1  1  0  0  0
 23 22  1  0  0  0  0
 23 21  1  0  0  0  0
 25 26  1  0  0  0  0
 25 28  1  1  0  0  0
 25 27  1  0  0  0  0
 26 27  1  1  0  0  0
M  END
>  <MODEL>
3

>  <REMARK>
 VINA RESULT:      -9.5      1.879      2.548
  Name = 
  3 active torsions:
  status: ('A' for Active; 'I' for Inactive)
    1  A    between atoms: C_1  and  N_2
    2  A    between atoms: N_3  and  C_7
    3  A    between atoms: C_10  and  C_13
                            x       y       z     vdW  Elec       q    Type
                         _______ _______ _______ _____ _____    ______ ____

>  <TORSDO>
F 3

$$$$
=
 OpenBabel10262420523D

 28 32  0  0  1  0  0  0  0  0999 V2000
  189.3060  177.3670  142.6390 C   0  0  0  0  0  0  0  0  0  0  0  0
  187.3840  178.4470  138.4430 O   0  0  0  0  0  0  0  0  0  0  0  0
  186.0440  178.8420  141.8910 C   0  0  1  0  0  3  0  0  0  0  0  0
  185.1580  179.4500  139.7070 N   0  0  0  0  0  2  0  0  0  0  0  0
  188.3910  177.8490  140.4710 N   0  0  0  0  0  0  0  0  0  0  0  0
  186.8550  177.6910  142.4870 C   0  0  0  0  0  2  0  0  0  0  0  0
  190.7840  177.3800  140.7480 C   0  0  0  0  0  3  0  0  0  0  0  0
  187.2960  178.3680  139.6990 C   0  0  0  0  0  0  0  0  0  0  0  0
  189.6210  177.4230  139.7970 C   0  0  0  0  0  2  0  0  0  0  0  0
  186.0680  178.8230  140.3810 C   0  0  0  0  0  0  0  0  0  0  0  0
  190.6060  177.3250  142.0340 N   0  0  0  0  0  0  0  0  0  0  0  0
  188.2300  177.6380  141.8880 C   0  0  0  0  0  0  0  0  0  0  0  0
  183.6440  178.1800  141.7740 C   0  0  0  0  0  3  0  0  0  0  0  0
  184.3480  179.5250  143.6650 C   0  0  0  0  0  0  0  0  0  0  0  0
  182.0340  178.8380  143.4570 C   0  0  0  0  0  0  0  0  0  0  0  0
  184.6560  178.8540  142.4660 C   0  0  0  0  0  0  0  0  0  0  0  0
  183.0380  179.5130  144.1540 C   0  0  0  0  0  3  0  0  0  0  0  0
  185.3080  180.1870  144.3580 F   0  0  0  0  0  0  0  0  0  0  0  0
  180.6430  178.8300  143.9800 C   0  0  0  0  0  1  0  0  0  0  0  0
  182.3350  178.1720  142.2660 C   0  0  0  0  0  3  0  0  0  0  0  0
  189.1910  177.1670  144.0480 N   0  0  0  0  0  0  0  0  0  0  0  0
  188.4320  176.8290  145.2580 N   0  0  1  0  0  0  0  0  0  0  0  0
  189.7390  177.1790  145.3960 C   0  0  2  0  0  3  0  0  0  0  0  0
  189.9430  178.5050  145.8070 O   0  0  0  0  0  1  0  0  0  0  0  0
  186.8740  177.7920  146.8560 C   0  0  2  0  0  3  0  0  0  0  0  0
  187.4750  177.9150  145.4680 C   0  0  2  0  0  3  0  0  0  0  0  0
  186.0860  177.3350  145.6490 C   0  0  0  0  0  2  0  0  0  0  0  0
  186.3720  179.1520  147.2940 C   0  0  0  0  0  1  0  0  0  0  0  0
  1 21  1  0  0  0  0
  2  8  2  0  0  0  0
  3 16  1  6  0  0  0
  3  6  1  0  0  0  0
  4 10  2  0  0  0  0
  5 12  1  0  0  0  0
  7 11  2  0  0  0  0
  8 10  1  0  0  0  0
  8  5  1  0  0  0  0
  9  5  1  0  0  0  0
  9  7  1  0  0  0  0
 10  3  1  0  0  0  0
 11  1  1  0  0  0  0
 12  6  1  0  0  0  0
 12  1  2  0  0  0  0
 13 20  2  0  0  0  0
 13 16  1  0  0  0  0
 14 17  1  0  0  0  0
 14 18  1  0  0  0  0
 15 19  1  0  0  0  0
 15 17  2  0  0  0  0
 16 14  2  0  0  0  0
 20 15  1  0  0  0  0
 21 23  1  0  0  0  0
 22 21  1  6  0  0  0
 22 23  1  0  0  0  0
 22 26  1  0  0  0  0
 23 24  1  1  0  0  0
 25 28  1  6  0  0  0
 26 27  1  6  0  0  0
 26 25  1  0  0  0  0
 27 25  1  0  0  0  0
M  END
>  <MODEL>
4

>  <REMARK>
 VINA RESULT:      -9.5      2.500      7.020
  Name = 
  3 active torsions:
  status: ('A' for Active; 'I' for Inactive)
    1  A    between atoms: C_1  and  N_2
    2  A    between atoms: N_3  and  C_7
    3  A    between atoms: C_10  and  C_13
                            x       y       z     vdW  Elec       q    Type
                         _______ _______ _______ _____ _____    ______ ____

>  <TORSDO>
F 3

$$$$
=
 OpenBabel10262420523D

 28 32  0  0  1  0  0  0  0  0999 V2000
  186.9380  178.2970  139.3480 C   0  0  0  0  0  0  0  0  0  0  0  0
  191.4610  177.2230  140.2680 O   0  0  0  0  0  0  0  0  0  0  0  0
  188.4700  177.1880  142.4780 C   0  0  1  0  0  3  0  0  0  0  0  0
  190.7940  176.5700  142.8540 N   0  0  0  0  0  2  0  0  0  0  0  0
  189.2560  177.8080  139.7390 N   0  0  0  0  0  0  0  0  0  0  0  0
  187.7110  178.2640  141.7010 C   0  0  0  0  0  2  0  0  0  0  0  0
  188.3810  177.9980  137.4540 C   0  0  0  0  0  3  0  0  0  0  0  0
  190.2740  177.3820  140.6610 C   0  0  0  0  0  0  0  0  0  0  0  0
  189.6000  178.0430  138.3330 C   0  0  0  0  0  2  0  0  0  0  0  0
  189.9220  177.1190  142.0690 C   0  0  0  0  0  0  0  0  0  0  0  0
  187.1870  178.1470  137.9430 N   0  0  0  0  0  0  0  0  0  0  0  0
  187.9360  178.1160  140.2240 C   0  0  0  0  0  0  0  0  0  0  0  0
  189.4040  177.5610  144.7590 C   0  0  0  0  0  3  0  0  0  0  0  0
  186.9960  177.3650  144.5490 C   0  0  0  0  0  0  0  0  0  0  0  0
  188.0020  177.7190  146.7250 C   0  0  0  0  0  0  0  0  0  0  0  0
  188.2730  177.3760  143.9560 C   0  0  0  0  0  0  0  0  0  0  0  0
  186.8670  177.5360  145.9310 C   0  0  0  0  0  3  0  0  0  0  0  0
  185.8810  177.1870  143.7960 F   0  0  0  0  0  0  0  0  0  0  0  0
  187.8600  177.9000  148.1930 C   0  0  0  0  0  1  0  0  0  0  0  0
  189.2710  177.7310  146.1400 C   0  0  0  0  0  3  0  0  0  0  0  0
  185.6120  178.5890  139.7890 N   0  0  0  0  0  0  0  0  0  0  0  0
  184.2380  178.2010  140.1320 N   0  0  1  0  0  0  0  0  0  0  0  0
  184.5740  179.5170  140.2120 C   0  0  2  0  0  3  0  0  0  0  0  0
  184.1600  180.2880  139.1150 O   0  0  0  0  0  1  0  0  0  0  0  0
  182.1190  177.5410  139.1400 C   0  0  2  0  0  3  0  0  0  0  0  0
  183.5920  177.8020  138.8820 C   0  0  2  0  0  3  0  0  0  0  0  0
  183.0810  176.3810  139.0100 C   0  0  0  0  0  2  0  0  0  0  0  0
  181.3580  177.7070  137.8410 C   0  0  0  0  0  1  0  0  0  0  0  0
  1 21  1  0  0  0  0
  1 12  2  0  0  0  0
  2  8  2  0  0  0  0
  3 16  1  1  0  0  0
  5 12  1  0  0  0  0
  5  8  1  0  0  0  0
  6  3  1  0  0  0  0
  7 11  2  0  0  0  0
  7  9  1  0  0  0  0
  8 10  1  0  0  0  0
  9  5  1  0  0  0  0
 10  3  1  0  0  0  0
 10  4  2  0  0  0  0
 11  1  1  0  0  0  0
 12  6  1  0  0  0  0
 13 20  1  0  0  0  0
 14 17  2  0  0  0  0
 15 19  1  0  0  0  0
 16 14  1  0  0  0  0
 16 13  2  0  0  0  0
 17 15  1  0  0  0  0
 18 14  1  0  0  0  0
 20 15  2  0  0  0  0
 21 23  1  0  0  0  0
 22 21  1  6  0  0  0
 22 23  1  0  0  0  0
 23 24  1  6  0  0  0
 25 28  1  6  0  0  0
 26 27  1  1  0  0  0
 26 25  1  0  0  0  0
 26 22  1  0  0  0  0
 27 25  1  0  0  0  0
M  END
>  <MODEL>
5

>  <REMARK>
 VINA RESULT:      -9.4      2.481      4.887
  Name = 
  3 active torsions:
  status: ('A' for Active; 'I' for Inactive)
    1  A    between atoms: C_1  and  N_2
    2  A    between atoms: N_3  and  C_7
    3  A    between atoms: C_10  and  C_13
                            x       y       z     vdW  Elec       q    Type
                         _______ _______ _______ _____ _____    ______ ____

>  <TORSDO>
F 3

$$$$
=
 OpenBabel10262420523D

 28 32  0  0  1  0  0  0  0  0999 V2000
  189.6780  177.5270  141.5150 C   0  0  0  0  0  0  0  0  0  0  0  0
  189.4060  177.9750  146.2260 O   0  0  0  0  0  0  0  0  0  0  0  0
  186.7240  177.6590  143.6680 C   0  0  1  0  0  3  0  0  0  0  0  0
  186.6650  177.8040  146.0960 N   0  0  0  0  0  2  0  0  0  0  0  0
  189.6280  177.7950  143.9020 N   0  0  0  0  0  0  0  0  0  0  0  0
  187.5440  178.2690  142.5310 C   0  0  0  0  0  2  0  0  0  0  0  0
  191.7080  177.1880  142.7500 C   0  0  0  0  0  3  0  0  0  0  0  0
  188.8420  177.8960  145.1010 C   0  0  0  0  0  0  0  0  0  0  0  0
  191.0910  177.7710  143.9900 C   0  0  0  0  0  2  0  0  0  0  0  0
  187.3690  177.8910  145.0130 C   0  0  0  0  0  0  0  0  0  0  0  0
  191.0480  177.1200  141.6330 N   0  0  0  0  0  0  0  0  0  0  0  0
  188.9790  177.8390  142.6160 C   0  0  0  0  0  0  0  0  0  0  0  0
  184.6730  178.5340  144.7820 C   0  0  0  0  0  3  0  0  0  0  0  0
  184.5850  178.1800  142.3840 C   0  0  0  0  0  0  0  0  0  0  0  0
  182.6410  179.0200  143.5610 C   0  0  0  0  0  0  0  0  0  0  0  0
  185.3000  178.1340  143.5970 C   0  0  0  0  0  0  0  0  0  0  0  0
  183.2590  178.6230  142.3730 C   0  0  0  0  0  3  0  0  0  0  0  0
  185.1660  177.7980  141.2190 F   0  0  0  0  0  0  0  0  0  0  0  0
  181.2310  179.4890  143.5440 C   0  0  0  0  0  1  0  0  0  0  0  0
  183.3470  178.9760  144.7660 C   0  0  0  0  0  3  0  0  0  0  0  0
  189.0680  177.5450  140.2250 N   0  0  0  0  0  0  0  0  0  0  0  0
  188.7770  176.9520  138.9140 N   0  0  1  0  0  0  0  0  0  0  0  0
  188.2820  178.1900  139.1840 C   0  0  2  0  0  3  0  0  0  0  0  0
  189.0200  179.2440  138.6250 O   0  0  0  0  0  1  0  0  0  0  0  0
  189.9440  175.9290  137.0430 C   0  0  2  0  0  3  0  0  0  0  0  0
  190.0380  176.9390  138.1710 C   0  0  2  0  0  3  0  0  0  0  0  0
  190.6900  175.5780  138.3110 C   0  0  0  0  0  2  0  0  0  0  0  0
  190.9400  176.3050  135.9660 C   0  0  0  0  0  1  0  0  0  0  0  0
  1 11  1  0  0  0  0
  1 12  2  0  0  0  0
  3 16  1  1  0  0  0
  3 10  1  0  0  0  0
  5  9  1  0  0  0  0
  5  8  1  0  0  0  0
  6 12  1  0  0  0  0
  6  3  1  0  0  0  0
  7  9  1  0  0  0  0
  8  2  2  0  0  0  0
 10  8  1  0  0  0  0
 10  4  2  0  0  0  0
 11  7  2  0  0  0  0
 12  5  1  0  0  0  0
 14 16  1  0  0  0  0
 15 20  2  0  0  0  0
 16 13  2  0  0  0  0
 17 14  2  0  0  0  0
 17 15  1  0  0  0  0
 18 14  1  0  0  0  0
 19 15  1  0  0  0  0
 20 13  1  0  0  0  0
 21  1  1  0  0  0  0
 22 23  1  0  0  0  0
 22 21  1  1  0  0  0
 23 24  1  6  0  0  0
 23 21  1  0  0  0  0
 25 28  1  6  0  0  0
 25 26  1  0  0  0  0
 25 27  1  0  0  0  0
 26 27  1  1  0  0  0
 26 22  1  0  0  0  0
M  END
>  <MODEL>
6

>  <REMARK>
 VINA RESULT:      -9.2      2.473      5.220
  Name = 
  3 active torsions:
  status: ('A' for Active; 'I' for Inactive)
    1  A    between atoms: C_1  and  N_2
    2  A    between atoms: N_3  and  C_7
    3  A    between atoms: C_10  and  C_13
                            x       y       z     vdW  Elec       q    Type
                         _______ _______ _______ _____ _____    ______ ____

>  <TORSDO>
F 3

$$$$
=
 OpenBabel10262420523D

 28 32  0  0  1  0  0  0  0  0999 V2000
  189.3380  177.9190  143.0960 C   0  0  0  0  0  0  0  0  0  0  0  0
  187.4850  178.1100  138.7370 O   0  0  0  0  0  0  0  0  0  0  0  0
  186.0070  178.9940  142.0340 C   0  0  1  0  0  3  0  0  0  0  0  0
  185.1530  179.1470  139.7600 N   0  0  0  0  0  2  0  0  0  0  0  0
  188.4630  177.9490  140.8590 N   0  0  0  0  0  0  0  0  0  0  0  0
  186.8770  178.0280  142.8400 C   0  0  0  0  0  2  0  0  0  0  0  0
  190.8730  177.7160  141.2620 C   0  0  0  0  0  3  0  0  0  0  0  0
  187.3610  178.2440  139.9850 C   0  0  0  0  0  0  0  0  0  0  0  0
  189.7420  177.5070  140.2940 C   0  0  0  0  0  2  0  0  0  0  0  0
  186.0830  178.7160  140.5520 C   0  0  0  0  0  0  0  0  0  0  0  0
  190.6560  177.8700  142.5340 N   0  0  0  0  0  0  0  0  0  0  0  0
  188.2700  177.9750  142.2860 C   0  0  0  0  0  0  0  0  0  0  0  0
  183.5620  178.6270  141.7130 C   0  0  0  0  0  3  0  0  0  0  0  0
  184.3080  179.3790  143.8940 C   0  0  0  0  0  0  0  0  0  0  0  0
  181.9510  179.0020  143.4790 C   0  0  0  0  0  0  0  0  0  0  0  0
  184.6030  179.0020  142.5700 C   0  0  0  0  0  0  0  0  0  0  0  0
  182.9840  179.3770  144.3420 C   0  0  0  0  0  3  0  0  0  0  0  0
  185.2960  179.7480  144.7480 F   0  0  0  0  0  0  0  0  0  0  0  0
  180.5450  179.0030  143.9590 C   0  0  0  0  0  1  0  0  0  0  0  0
  182.2390  178.6280  142.1650 C   0  0  0  0  0  3  0  0  0  0  0  0
  189.1900  177.9580  144.5150 N   0  0  0  0  0  0  0  0  0  0  0  0
  189.7280  177.9570  145.8810 N   0  0  1  0  0  0  0  0  0  0  0  0
  188.3770  177.9920  145.7210 C   0  0  2  0  0  3  0  0  0  0  0  0
  187.7420  176.7520  145.8940 O   0  0  0  0  0  1  0  0  0  0  0  0
  191.4920  176.7410  147.0270 C   0  0  2  0  0  3  0  0  0  0  0  0
  190.2900  176.6260  146.1090 C   0  0  2  0  0  3  0  0  0  0  0  0
  191.6930  176.5680  145.5380 C   0  0  0  0  0  2  0  0  0  0  0  0
  191.7090  175.4110  147.7180 C   0  0  0  0  0  1  0  0  0  0  0  0
  1 21  1  0  0  0  0
  2  8  2  0  0  0  0
  3 16  1  1  0  0  0
  3  6  1  0  0  0  0
  4 10  2  0  0  0  0
  5 12  1  0  0  0  0
  7 11  2  0  0  0  0
  8 10  1  0  0  0  0
  8  5  1  0  0  0  0
  9  5  1  0  0  0  0
  9  7  1  0  0  0  0
 10  3  1  0  0  0  0
 11  1  1  0  0  0  0
 12  6  1  0  0  0  0
 12  1  2  0  0  0  0
 13 20  2  0  0  0  0
 13 16  1  0  0  0  0
 14 17  1  0  0  0  0
 14 18  1  0  0  0  0
 15 19  1  0  0  0  0
 15 17  2  0  0  0  0
 16 14  2  0  0  0  0
 20 15  1  0  0  0  0
 21 23  1  0  0  0  0
 22 21  1  6  0  0  0
 22 26  1  0  0  0  0
 23 22  1  0  0  0  0
 23 24  1  1  0  0  0
 25 28  1  1  0  0  0
 26 27  1  6  0  0  0
 26 25  1  0  0  0  0
 27 25  1  0  0  0  0
M  END
>  <MODEL>
7

>  <REMARK>
 VINA RESULT:      -9.1      2.317      7.152
  Name = 
  3 active torsions:
  status: ('A' for Active; 'I' for Inactive)
    1  A    between atoms: C_1  and  N_2
    2  A    between atoms: N_3  and  C_7
    3  A    between atoms: C_10  and  C_13
                            x       y       z     vdW  Elec       q    Type
                         _______ _______ _______ _____ _____    ______ ____

>  <TORSDO>
F 3

$$$$
=
 OpenBabel10262420523D

 28 32  0  0  1  0  0  0  0  0999 V2000
  187.9150  177.7750  142.4090 C   0  0  0  0  0  0  0  0  0  0  0  0
  186.5100  178.6130  137.9610 O   0  0  0  0  0  0  0  0  0  0  0  0
  189.3240  176.5570  139.2610 C   0  0  1  0  0  3  0  0  0  0  0  0
  188.4920  176.9620  137.0100 N   0  0  0  0  0  2  0  0  0  0  0  0
  187.1600  178.2810  140.1850 N   0  0  0  0  0  0  0  0  0  0  0  0
  189.4990  177.3620  140.5500 C   0  0  0  0  0  2  0  0  0  0  0  0
  185.7440  178.7600  142.1310 C   0  0  0  0  0  3  0  0  0  0  0  0
  187.3250  178.0930  138.7700 C   0  0  0  0  0  0  0  0  0  0  0  0
  186.0310  179.0690  140.6890 C   0  0  0  0  0  2  0  0  0  0  0  0
  188.4460  177.2760  138.2650 C   0  0  0  0  0  0  0  0  0  0  0  0
  186.6330  178.1980  142.8940 N   0  0  0  0  0  0  0  0  0  0  0  0
  188.1690  177.7970  141.0930 C   0  0  0  0  0  0  0  0  0  0  0  0
  191.7650  176.9840  138.9870 C   0  0  0  0  0  3  0  0  0  0  0  0
  190.8390  175.0200  137.9060 C   0  0  0  0  0  0  0  0  0  0  0  0
  193.1990  175.5270  137.6920 C   0  0  0  0  0  0  0  0  0  0  0  0
  190.6640  176.1680  138.7040 C   0  0  0  0  0  0  0  0  0  0  0  0
  192.1060  174.7060  137.4050 C   0  0  0  0  0  3  0  0  0  0  0  0
  189.7900  174.2100  137.6140 F   0  0  0  0  0  0  0  0  0  0  0  0
  194.5430  175.1900  137.1560 C   0  0  0  0  0  1  0  0  0  0  0  0
  193.0290  176.6660  138.4830 C   0  0  0  0  0  3  0  0  0  0  0  0
  188.8830  177.2890  143.3390 N   0  0  0  0  0  0  0  0  0  0  0  0
  189.2710  176.7080  144.6300 N   0  0  1  0  0  0  0  0  0  0  0  0
  190.2550  177.0250  143.7450 C   0  0  2  0  0  3  0  0  0  0  0  0
  190.9060  178.2380  144.0140 O   0  0  0  0  0  1  0  0  0  0  0  0
  188.8800  177.0590  147.0030 C   0  0  2  0  0  3  0  0  0  0  0  0
  189.0010  177.7260  145.6460 C   0  0  2  0  0  3  0  0  0  0  0  0
  187.6350  177.4800  146.2540 C   0  0  0  0  0  2  0  0  0  0  0  0
  189.1850  178.0810  148.0790 C   0  0  0  0  0  1  0  0  0  0  0  0
  1 11  1  0  0  0  0
  1 21  1  0  0  0  0
  2  8  2  0  0  0  0
  3 16  1  6  0  0  0
  3  6  1  0  0  0  0
  4 10  2  0  0  0  0
  5  9  1  0  0  0  0
  5 12  1  0  0  0  0
  6 12  1  0  0  0  0
  7 11  2  0  0  0  0
  8  5  1  0  0  0  0
  9  7  1  0  0  0  0
 10  8  1  0  0  0  0
 10  3  1  0  0  0  0
 12  1  2  0  0  0  0
 14 16  2  0  0  0  0
 15 20  1  0  0  0  0
 16 13  1  0  0  0  0
 17 15  2  0  0  0  0
 17 14  1  0  0  0  0
 18 14  1  0  0  0  0
 19 15  1  0  0  0  0
 20 13  2  0  0  0  0
 21 23  1  0  0  0  0
 22 21  1  6  0  0  0
 22 26  1  0  0  0  0
 23 24  1  1  0  0  0
 23 22  1  0  0  0  0
 25 28  1  1  0  0  0
 26 27  1  6  0  0  0
 26 25  1  0  0  0  0
 27 25  1  0  0  0  0
M  END
>  <MODEL>
8

>  <REMARK>
 VINA RESULT:      -9.0      3.064      7.015
  Name = 
  3 active torsions:
  status: ('A' for Active; 'I' for Inactive)
    1  A    between atoms: C_1  and  N_2
    2  A    between atoms: N_3  and  C_7
    3  A    between atoms: C_10  and  C_13
                            x       y       z     vdW  Elec       q    Type
                         _______ _______ _______ _____ _____    ______ ____

>  <TORSDO>
F 3

$$$$
=
 OpenBabel10262420523D

 28 32  0  0  1  0  0  0  0  0999 V2000
  182.3220  178.8000  140.7770 C   0  0  0  0  0  0  0  0  0  0  0  0
  182.8980  179.2150  145.4630 O   0  0  0  0  0  0  0  0  0  0  0  0
  185.3880  178.6290  142.7630 C   0  0  1  0  0  3  0  0  0  0  0  0
  185.6170  178.9390  145.1660 N   0  0  0  0  0  2  0  0  0  0  0  0
  182.5210  178.9840  143.1640 N   0  0  0  0  0  0  0  0  0  0  0  0
  184.4040  177.9470  141.8120 C   0  0  0  0  0  2  0  0  0  0  0  0
  180.4630  179.6720  142.0190 C   0  0  0  0  0  3  0  0  0  0  0  0
  183.3770  178.9940  144.3180 C   0  0  0  0  0  0  0  0  0  0  0  0
  181.0870  179.2470  143.3180 C   0  0  0  0  0  2  0  0  0  0  0  0
  184.8250  178.7570  144.1590 C   0  0  0  0  0  0  0  0  0  0  0  0
  181.0360  179.4270  140.8790 N   0  0  0  0  0  0  0  0  0  0  0  0
  183.0540  178.5990  141.8820 C   0  0  0  0  0  0  0  0  0  0  0  0
  187.0280  177.0180  143.7270 C   0  0  0  0  0  3  0  0  0  0  0  0
  187.6640  178.1930  141.7030 C   0  0  0  0  0  0  0  0  0  0  0  0
  189.1920  176.6120  142.7220 C   0  0  0  0  0  0  0  0  0  0  0  0
  186.7210  177.9370  142.7180 C   0  0  0  0  0  0  0  0  0  0  0  0
  188.8940  177.5280  141.7100 C   0  0  0  0  0  3  0  0  0  0  0  0
  187.3950  179.0800  140.7120 F   0  0  0  0  0  0  0  0  0  0  0  0
  190.5010  175.9090  142.7260 C   0  0  0  0  0  1  0  0  0  0  0  0
  188.2590  176.3560  143.7300 C   0  0  0  0  0  3  0  0  0  0  0  0
  182.8200  178.4460  139.4870 N   0  0  0  0  0  0  0  0  0  0  0  0
  182.8270  177.6170  138.2760 N   0  0  1  0  0  0  0  0  0  0  0  0
  183.7450  178.6170  138.3760 C   0  0  2  0  0  3  0  0  0  0  0  0
  185.0240  178.1910  138.7620 O   0  0  0  0  0  1  0  0  0  0  0  0
  183.1710  175.3360  137.5090 C   0  0  2  0  0  3  0  0  0  0  0  0
  183.3070  176.2940  138.6780 C   0  0  2  0  0  3  0  0  0  0  0  0
  182.1590  175.3070  138.6320 C   0  0  0  0  0  2  0  0  0  0  0  0
  184.1540  174.1980  137.6930 C   0  0  0  0  0  1  0  0  0  0  0  0
  1 11  1  0  0  0  0
  1 12  2  0  0  0  0
  3 16  1  1  0  0  0
  3 10  1  0  0  0  0
  5  9  1  0  0  0  0
  5  8  1  0  0  0  0
  6 12  1  0  0  0  0
  6  3  1  0  0  0  0
  7  9  1  0  0  0  0
  8  2  2  0  0  0  0
 10  8  1  0  0  0  0
 10  4  2  0  0  0  0
 11  7  2  0  0  0  0
 12  5  1  0  0  0  0
 13 20  1  0  0  0  0
 14 17  2  0  0  0  0
 14 16  1  0  0  0  0
 15 19  1  0  0  0  0
 15 20  2  0  0  0  0
 16 13  2  0  0  0  0
 17 15  1  0  0  0  0
 18 14  1  0  0  0  0
 21  1  1  0  0  0  0
 22 23  1  0  0  0  0
 22 26  1  0  0  0  0
 22 21  1  1  0  0  0
 23 24  1  1  0  0  0
 23 21  1  0  0  0  0
 25 28  1  1  0  0  0
 25 27  1  0  0  0  0
 25 26  1  0  0  0  0
 26 27  1  1  0  0  0
M  END
>  <MODEL>
9

>  <REMARK>
 VINA RESULT:      -8.5      3.406      4.460
  Name = 
  3 active torsions:
  status: ('A' for Active; 'I' for Inactive)
    1  A    between atoms: C_1  and  N_2
    2  A    between atoms: N_3  and  C_7
    3  A    between atoms: C_10  and  C_13
                            x       y       z     vdW  Elec       q    Type
                         _______ _______ _______ _____ _____    ______ ____

>  <TORSDO>
F 3

$$$$
