=
 OpenBabel10262422023D

 30 32  0  0  1  0  0  0  0  0999 V2000
  183.8530  179.0140  139.0290 C   0  0  1  0  0  3  0  0  0  0  0  0
  185.2570  179.3230  141.9380 C   0  0  0  0  0  2  0  0  0  0  0  0
  180.4020  179.7070  142.4440 C   0  0  0  0  0  1  0  0  0  0  0  0
  182.8060  178.1850  138.2440 C   0  0  2  0  0  3  0  0  0  0  0  0
  183.1920  180.1420  139.7010 N   0  0  0  0  0  2  0  0  0  0  0  0
  181.5270  180.3700  138.0930 C   0  0  2  0  0  3  0  0  0  0  0  0
  180.9150  176.4910  138.1190 C   0  0  0  0  0  2  0  0  0  0  0  0
  180.0040  177.6800  140.4030 O   0  0  0  0  0  0  0  0  0  0  0  0
  182.6830  181.0120  138.7190 N   0  0  0  0  0  2  0  0  0  0  0  0
  182.0060  179.1330  137.3230 C   0  0  2  0  0  3  0  0  0  0  0  0
  184.7060  178.1300  142.7130 C   0  0  0  0  0  2  0  0  0  0  0  0
  180.0490  177.5250  137.4110 C   0  0  2  0  0  3  0  0  0  0  0  0
  185.5890  178.9280  140.5000 C   0  0  0  0  0  2  0  0  0  0  0  0
  182.0500  178.2560  141.3590 N   0  0  0  0  0  2  0  0  0  0  0  0
  183.7990  178.5730  143.8580 C   0  0  0  0  0  2  0  0  0  0  0  0
  184.5280  178.1950  139.9500 O   0  0  0  0  0  0  0  0  0  0  0  0
  182.8400  176.0060  139.5020 C   0  0  0  0  0  1  0  0  0  0  0  0
  181.2600  177.7210  140.2890 C   0  0  0  0  0  0  0  0  0  0  0  0
  181.9430  177.1480  139.0530 C   0  0  1  0  0  0  0  0  0  0  0  0
  178.9320  176.8490  136.6370 C   0  0  0  0  0  1  0  0  0  0  0  0
  181.5460  178.7270  142.6470 C   0  0  1  0  0  3  0  0  0  0  0  0
  182.6510  179.4690  143.3930 C   0  0  0  0  0  2  0  0  0  0  0  0
  180.8990  178.4380  136.5220 C   0  0  2  0  0  3  0  0  0  0  0  0
  182.4560  178.3260  134.6420 C   0  0  0  0  0  2  0  0  0  0  0  0
  180.9730  176.5250  134.8890 O   0  0  0  0  0  1  0  0  0  0  0  0
  181.4660  177.7550  135.3100 C   0  0  0  0  0  0  0  0  0  0  0  0
  180.8210  181.3690  137.1810 C   0  0  0  0  0  2  0  0  0  0  0  0
  180.7950  182.6410  137.7630 O   0  0  0  0  0  0  0  0  0  0  0  0
  180.9010  183.4780  136.7510 O   0  0  0  0  0  0  0  0  0  0  0  0
  181.6490  184.5460  137.2480 C   0  0  0  0  0  1  0  0  0  0  0  0
  1  5  1  1  0  0  0
  1 16  1  0  0  0  0
  2 11  1  0  0  0  0
  3 21  1  0  0  0  0
  4  1  1  0  0  0  0
  4 19  1  0  0  0  0
  6  9  1  0  0  0  0
  7 19  1  0  0  0  0
  9  5  1  0  0  0  0
 10  6  1  0  0  0  0
 10  4  1  0  0  0  0
 11 15  1  0  0  0  0
 12  7  1  0  0  0  0
 13  2  1  0  0  0  0
 14 21  1  0  0  0  0
 16 13  1  0  0  0  0
 18  8  2  0  0  0  0
 18 14  1  0  0  0  0
 19 17  1  0  0  0  0
 19 18  1  0  0  0  0
 20 12  1  0  0  0  0
 21 22  1  0  0  0  0
 22 15  1  0  0  0  0
 23 10  1  0  0  0  0
 23 12  1  0  0  0  0
 24 26  2  0  0  0  0
 25 26  1  0  0  0  0
 26 23  1  0  0  0  0
 27 28  1  0  0  0  0
 27  6  1  0  0  0  0
 29 30  1  0  0  0  0
 29 28  1  0  0  0  0
M  END
>  <MODEL>
1

>  <REMARK>
 VINA RESULT:      -5.3      0.000      0.000
  Name = 
  4 active torsions:
  status: ('A' for Active; 'I' for Inactive)
    1  A    between atoms: C_6  and  C_8
    2  A    between atoms: C_6  and  O_21
    3  A    between atoms: O_9  and  O_21
    4  A    between atoms: C_27  and  C_30
                            x       y       z     vdW  Elec       q    Type
                         _______ _______ _______ _____ _____    ______ ____

>  <TORSDO>
F 4

$$$$
=
 OpenBabel10262422023D

 30 32  0  0  1  0  0  0  0  0999 V2000
  182.1160  177.5350  140.3030 C   0  0  1  0  0  3  0  0  0  0  0  0
  180.4230  179.7330  141.9850 C   0  0  0  0  0  2  0  0  0  0  0  0
  181.2040  181.4250  137.4560 C   0  0  0  0  0  1  0  0  0  0  0  0
  182.0890  176.6780  139.0120 C   0  0  2  0  0  3  0  0  0  0  0  0
  182.7190  178.8450  140.0160 N   0  0  0  0  0  2  0  0  0  0  0  0
  184.1130  178.0470  138.3340 C   0  0  2  0  0  3  0  0  0  0  0  0
  181.1230  176.0580  136.7440 C   0  0  0  0  0  2  0  0  0  0  0  0
  180.8640  178.7520  136.3730 O   0  0  0  0  0  0  0  0  0  0  0  0
  184.0690  178.6500  139.6660 N   0  0  0  0  0  2  0  0  0  0  0  0
  183.5110  176.6390  138.4090 C   0  0  2  0  0  3  0  0  0  0  0  0
  179.1090  179.8180  141.2140 C   0  0  0  0  0  2  0  0  0  0  0  0
  182.4980  176.2520  136.1180 C   0  0  2  0  0  3  0  0  0  0  0  0
  180.9040  178.2870  142.0780 C   0  0  0  0  0  2  0  0  0  0  0  0
  180.4310  179.3870  138.5730 N   0  0  0  0  0  2  0  0  0  0  0  0
  178.9310  181.1830  140.5550 C   0  0  0  0  0  2  0  0  0  0  0  0
  180.8170  177.6740  140.8200 O   0  0  0  0  0  0  0  0  0  0  0  0
  179.6170  176.4760  138.5920 C   0  0  0  0  0  1  0  0  0  0  0  0
  180.7640  178.4050  137.5830 C   0  0  0  0  0  0  0  0  0  0  0  0
  180.9290  176.9450  137.9850 C   0  0  1  0  0  0  0  0  0  0  0  0
  182.5970  175.5040  134.8010 C   0  0  0  0  0  1  0  0  0  0  0  0
  180.1260  180.7940  138.3220 C   0  0  1  0  0  3  0  0  0  0  0  0
  180.0980  181.5590  139.6410 C   0  0  0  0  0  2  0  0  0  0  0  0
  183.6090  175.8550  137.0940 C   0  0  2  0  0  3  0  0  0  0  0  0
  184.8750  173.8130  137.5370 C   0  0  0  0  0  2  0  0  0  0  0  0
  182.5410  173.6020  137.4280 O   0  0  0  0  0  1  0  0  0  0  0  0
  183.6910  174.3790  137.3580 C   0  0  0  0  0  0  0  0  0  0  0  0
  185.5550  178.0230  137.8330 C   0  0  0  0  0  2  0  0  0  0  0  0
  186.4060  178.6620  138.7420 O   0  0  0  0  0  0  0  0  0  0  0  0
  187.6230  178.3770  138.3220 O   0  0  0  0  0  0  0  0  0  0  0  0
  188.3090  177.9670  139.4650 C   0  0  0  0  0  1  0  0  0  0  0  0
  1  5  1  6  0  0  0
  1 16  1  0  0  0  0
  2 13  1  0  0  0  0
  3 21  1  0  0  0  0
  4  1  1  0  0  0  0
  6 10  1  0  0  0  0
  6  9  1  0  0  0  0
  7 19  1  0  0  0  0
  8 18  2  0  0  0  0
  9  5  1  0  0  0  0
 10  4  1  0  0  0  0
 11  2  1  0  0  0  0
 12  7  1  0  0  0  0
 12 23  1  0  0  0  0
 15 11  1  0  0  0  0
 16 13  1  0  0  0  0
 18 19  1  0  0  0  0
 18 14  1  0  0  0  0
 19 17  1  0  0  0  0
 19  4  1  0  0  0  0
 20 12  1  0  0  0  0
 21 14  1  0  0  0  0
 21 22  1  0  0  0  0
 22 15  1  0  0  0  0
 23 26  1  0  0  0  0
 23 10  1  0  0  0  0
 26 25  1  0  0  0  0
 26 24  2  0  0  0  0
 27  6  1  0  0  0  0
 27 28  1  0  0  0  0
 29 28  1  0  0  0  0
 29 30  1  0  0  0  0
M  END
>  <MODEL>
2

>  <REMARK>
 VINA RESULT:      -5.0      2.280      4.757
  Name = 
  4 active torsions:
  status: ('A' for Active; 'I' for Inactive)
    1  A    between atoms: C_6  and  C_8
    2  A    between atoms: C_6  and  O_21
    3  A    between atoms: O_9  and  O_21
    4  A    between atoms: C_27  and  C_30
                            x       y       z     vdW  Elec       q    Type
                         _______ _______ _______ _____ _____    ______ ____

>  <TORSDO>
F 4

$$$$
=
 OpenBabel10262422023D

 30 32  0  0  1  0  0  0  0  0999 V2000
  182.0630  177.6990  136.3850 C   0  0  1  0  0  3  0  0  0  0  0  0
  181.9220  174.6300  135.3430 C   0  0  0  0  0  2  0  0  0  0  0  0
  180.1450  174.8650  139.9000 C   0  0  0  0  0  1  0  0  0  0  0  0
  181.1970  178.8540  136.9470 C   0  0  2  0  0  3  0  0  0  0  0  0
  182.5400  176.8540  137.4900 N   0  0  0  0  0  2  0  0  0  0  0  0
  182.6050  178.5870  139.0390 C   0  0  2  0  0  3  0  0  0  0  0  0
  179.0360  179.7790  137.9150 C   0  0  0  0  0  2  0  0  0  0  0  0
  178.9310  177.4380  139.3200 O   0  0  0  0  0  0  0  0  0  0  0  0
  183.4070  177.6170  138.2950 N   0  0  0  0  0  2  0  0  0  0  0  0
  181.9940  179.5860  138.0490 C   0  0  2  0  0  3  0  0  0  0  0  0
  180.4250  174.3340  135.3470 C   0  0  0  0  0  2  0  0  0  0  0  0
  179.8100  180.2970  139.1200 C   0  0  2  0  0  3  0  0  0  0  0  0
  182.1940  176.0410  134.8290 C   0  0  0  0  0  2  0  0  0  0  0  0
  179.9230  176.0250  137.7540 N   0  0  0  0  0  2  0  0  0  0  0  0
  180.0620  173.2820  136.3910 C   0  0  0  0  0  2  0  0  0  0  0  0
  181.3270  176.9510  135.4510 O   0  0  0  0  0  0  0  0  0  0  0  0
  178.9310  178.2870  136.0120 C   0  0  0  0  0  1  0  0  0  0  0  0
  179.5050  177.3210  138.2020 C   0  0  0  0  0  0  0  0  0  0  0  0
  179.6980  178.5350  137.3010 C   0  0  1  0  0  0  0  0  0  0  0  0
  179.0430  181.4100  139.8110 C   0  0  0  0  0  1  0  0  0  0  0  0
  179.6970  174.7610  138.4520 C   0  0  1  0  0  3  0  0  0  0  0  0
  180.5250  173.6580  137.7990 C   0  0  0  0  0  2  0  0  0  0  0  0
  181.2240  180.7290  138.7220 C   0  0  2  0  0  3  0  0  0  0  0  0
  182.0280  182.9890  138.2540 C   0  0  0  0  0  2  0  0  0  0  0  0
  180.5320  182.0620  136.7040 O   0  0  0  0  0  1  0  0  0  0  0  0
  181.2680  181.9710  137.8790 C   0  0  0  0  0  0  0  0  0  0  0  0
  183.4800  179.2800  140.0800 C   0  0  0  0  0  2  0  0  0  0  0  0
  184.6630  179.7500  139.5000 O   0  0  0  0  0  0  0  0  0  0  0  0
  185.6200  179.3460  140.3120 O   0  0  0  0  0  0  0  0  0  0  0  0
  184.9780  179.0950  141.5250 C   0  0  0  0  0  1  0  0  0  0  0  0
  1 16  1  6  0  0  0
  1  4  1  0  0  0  0
  1  5  1  0  0  0  0
  2 11  1  0  0  0  0
  4 19  1  0  0  0  0
  4 10  1  0  0  0  0
  5  9  1  0  0  0  0
  6 27  1  0  0  0  0
  7 12  1  0  0  0  0
  9  6  1  0  0  0  0
 10 23  1  0  0  0  0
 10  6  1  0  0  0  0
 11 15  1  0  0  0  0
 12 20  1  0  0  0  0
 13  2  1  0  0  0  0
 13 16  1  0  0  0  0
 14 18  1  0  0  0  0
 14 21  1  0  0  0  0
 15 22  1  0  0  0  0
 17 19  1  0  0  0  0
 18  8  2  0  0  0  0
 19  7  1  0  0  0  0
 19 18  1  0  0  0  0
 21  3  1  0  0  0  0
 22 21  1  0  0  0  0
 23 12  1  0  0  0  0
 25 26  1  0  0  0  0
 26 24  2  0  0  0  0
 26 23  1  0  0  0  0
 28 27  1  0  0  0  0
 28 29  1  0  0  0  0
 29 30  1  0  0  0  0
M  END
>  <MODEL>
3

>  <REMARK>
 VINA RESULT:      -4.7      2.231      5.552
  Name = 
  4 active torsions:
  status: ('A' for Active; 'I' for Inactive)
    1  A    between atoms: C_6  and  C_8
    2  A    between atoms: C_6  and  O_21
    3  A    between atoms: O_9  and  O_21
    4  A    between atoms: C_27  and  C_30
                            x       y       z     vdW  Elec       q    Type
                         _______ _______ _______ _____ _____    ______ ____

>  <TORSDO>
F 4

$$$$
=
 OpenBabel10262422023D

 30 32  0  0  1  0  0  0  0  0999 V2000
  183.0810  177.1600  139.3900 C   0  0  1  0  0  3  0  0  0  0  0  0
  180.8480  179.1950  140.5750 C   0  0  0  0  0  2  0  0  0  0  0  0
  181.0820  179.7170  135.7120 C   0  0  0  0  0  1  0  0  0  0  0  0
  183.2870  176.0060  138.3770 C   0  0  2  0  0  3  0  0  0  0  0  0
  183.2860  178.4530  138.7190 N   0  0  0  0  0  2  0  0  0  0  0  0
  184.8350  177.6290  137.1930 C   0  0  2  0  0  3  0  0  0  0  0  0
  182.5180  174.5480  136.4420 C   0  0  0  0  0  2  0  0  0  0  0  0
  181.5040  176.8610  135.4010 O   0  0  0  0  0  0  0  0  0  0  0  0
  184.6330  178.5400  138.3190 N   0  0  0  0  0  2  0  0  0  0  0  0
  184.6570  176.1870  137.6860 C   0  0  2  0  0  3  0  0  0  0  0  0
  179.5580  178.7060  139.9240 C   0  0  0  0  0  2  0  0  0  0  0  0
  183.7760  174.9250  135.6720 C   0  0  2  0  0  3  0  0  0  0  0  0
  181.7190  178.0160  141.0030 C   0  0  0  0  0  2  0  0  0  0  0  0
  180.9270  177.9370  137.3860 N   0  0  0  0  0  2  0  0  0  0  0  0
  178.9950  179.7350  138.9470 C   0  0  0  0  0  2  0  0  0  0  0  0
  181.8000  177.0800  139.9620 O   0  0  0  0  0  0  0  0  0  0  0  0
  180.9700  175.0370  138.2370 C   0  0  0  0  0  1  0  0  0  0  0  0
  181.5160  176.8480  136.6630 C   0  0  0  0  0  0  0  0  0  0  0  0
  182.0910  175.6560  137.4180 C   0  0  1  0  0  0  0  0  0  0  0  0
  184.0730  173.8980  134.5940 C   0  0  0  0  0  1  0  0  0  0  0  0
  180.2340  179.0820  136.8010 C   0  0  1  0  0  3  0  0  0  0  0  0
  180.0010  180.1450  137.8710 C   0  0  0  0  0  2  0  0  0  0  0  0
  184.9620  175.1280  136.6190 C   0  0  2  0  0  3  0  0  0  0  0  0
  186.7400  173.5350  137.1410 C   0  0  0  0  0  2  0  0  0  0  0  0
  184.6010  173.0340  137.9660 O   0  0  0  0  0  1  0  0  0  0  0  0
  185.4610  173.8620  137.2530 C   0  0  0  0  0  0  0  0  0  0  0  0
  186.2210  177.8570  136.5950 C   0  0  0  0  0  2  0  0  0  0  0  0
  186.9840  178.6930  137.4170 O   0  0  0  0  0  0  0  0  0  0  0  0
  187.8890  177.9020  137.9570 O   0  0  0  0  0  0  0  0  0  0  0  0
  189.0120  178.7110  138.1350 C   0  0  0  0  0  1  0  0  0  0  0  0
  1  5  1  6  0  0  0
  1 16  1  0  0  0  0
  2 13  1  0  0  0  0
  3 21  1  0  0  0  0
  4  1  1  0  0  0  0
  6 10  1  0  0  0  0
  6  9  1  0  0  0  0
  7 19  1  0  0  0  0
  8 18  2  0  0  0  0
  9  5  1  0  0  0  0
 10  4  1  0  0  0  0
 11  2  1  0  0  0  0
 12  7  1  0  0  0  0
 12 23  1  0  0  0  0
 15 11  1  0  0  0  0
 16 13  1  0  0  0  0
 18 14  1  0  0  0  0
 18 19  1  0  0  0  0
 19 17  1  0  0  0  0
 19  4  1  0  0  0  0
 20 12  1  0  0  0  0
 21 14  1  0  0  0  0
 21 22  1  0  0  0  0
 22 15  1  0  0  0  0
 23 26  1  0  0  0  0
 23 10  1  0  0  0  0
 24 26  2  0  0  0  0
 26 25  1  0  0  0  0
 27  6  1  0  0  0  0
 27 28  1  0  0  0  0
 28 29  1  0  0  0  0
 29 30  1  0  0  0  0
M  END
>  <MODEL>
4

>  <REMARK>
 VINA RESULT:      -4.6      2.959      5.355
  Name = 
  4 active torsions:
  status: ('A' for Active; 'I' for Inactive)
    1  A    between atoms: C_6  and  C_8
    2  A    between atoms: C_6  and  O_21
    3  A    between atoms: O_9  and  O_21
    4  A    between atoms: C_27  and  C_30
                            x       y       z     vdW  Elec       q    Type
                         _______ _______ _______ _____ _____    ______ ____

>  <TORSDO>
F 4

$$$$
=
 OpenBabel10262422023D

 30 32  0  0  1  0  0  0  0  0999 V2000
  181.7030  178.9120  137.4320 C   0  0  1  0  0  3  0  0  0  0  0  0
  182.3670  177.4460  134.6150 C   0  0  0  0  0  2  0  0  0  0  0  0
  183.3270  174.3660  138.2990 C   0  0  0  0  0  1  0  0  0  0  0  0
  180.8620  178.7790  138.7270 C   0  0  2  0  0  3  0  0  0  0  0  0
  182.9920  178.2260  137.6050 N   0  0  0  0  0  2  0  0  0  0  0  0
  183.1060  178.6130  139.8950 C   0  0  2  0  0  3  0  0  0  0  0  0
  179.3740  177.4670  140.3160 C   0  0  0  0  0  2  0  0  0  0  0  0
  181.0280  175.3630  139.7650 O   0  0  0  0  0  0  0  0  0  0  0  0
  183.7260  178.8970  138.6010 N   0  0  0  0  0  2  0  0  0  0  0  0
  181.7120  179.2520  139.9260 C   0  0  2  0  0  3  0  0  0  0  0  0
  181.3900  176.2740  134.5990 C   0  0  0  0  0  2  0  0  0  0  0  0
  180.3520  177.7490  141.4490 C   0  0  2  0  0  3  0  0  0  0  0  0
  181.6970  178.7030  135.1650 C   0  0  0  0  0  2  0  0  0  0  0  0
  181.5500  175.8750  137.5520 N   0  0  0  0  0  2  0  0  0  0  0  0
  182.1150  174.9350  134.6890 C   0  0  0  0  0  2  0  0  0  0  0  0
  180.9920  178.3940  136.3370 O   0  0  0  0  0  0  0  0  0  0  0  0
  178.9430  177.3550  137.9370 C   0  0  0  0  0  1  0  0  0  0  0  0
  180.9200  176.1750  138.8050 C   0  0  0  0  0  0  0  0  0  0  0  0
  180.0750  177.4350  138.9490 C   0  0  1  0  0  0  0  0  0  0  0  0
  179.6700  177.5990  142.7960 C   0  0  0  0  0  1  0  0  0  0  0  0
  182.2860  174.6550  137.2310 C   0  0  1  0  0  3  0  0  0  0  0  0
  183.0300  174.8350  135.9100 C   0  0  0  0  0  2  0  0  0  0  0  0
  181.0050  179.1240  141.2810 C   0  0  2  0  0  3  0  0  0  0  0  0
  179.3830  180.7690  140.4830 C   0  0  0  0  0  2  0  0  0  0  0  0
  179.9010  180.8250  142.7700 O   0  0  0  0  0  1  0  0  0  0  0  0
  180.0680  180.2770  141.5040 C   0  0  0  0  0  0  0  0  0  0  0  0
  183.9990  179.1420  141.0150 C   0  0  0  0  0  2  0  0  0  0  0  0
  185.2980  179.3720  140.5480 O   0  0  0  0  0  0  0  0  0  0  0  0
  186.0120  179.5930  141.6330 O   0  0  0  0  0  0  0  0  0  0  0  0
  185.5860  178.6270  142.5450 C   0  0  0  0  0  1  0  0  0  0  0  0
  1 16  1  6  0  0  0
  1  5  1  0  0  0  0
  1  4  1  0  0  0  0
  2 13  1  0  0  0  0
  4 19  1  0  0  0  0
  4 10  1  0  0  0  0
  5  9  1  0  0  0  0
  6 10  1  0  0  0  0
  6 27  1  0  0  0  0
  7 12  1  0  0  0  0
  9  6  1  0  0  0  0
 10 23  1  0  0  0  0
 11  2  1  0  0  0  0
 11 15  1  0  0  0  0
 12 20  1  0  0  0  0
 13 16  1  0  0  0  0
 14 18  1  0  0  0  0
 15 22  1  0  0  0  0
 17 19  1  0  0  0  0
 18 19  1  0  0  0  0
 18  8  2  0  0  0  0
 19  7  1  0  0  0  0
 21 14  1  0  0  0  0
 21  3  1  0  0  0  0
 22 21  1  0  0  0  0
 23 12  1  0  0  0  0
 23 26  1  0  0  0  0
 24 26  2  0  0  0  0
 26 25  1  0  0  0  0
 28 27  1  0  0  0  0
 28 29  1  0  0  0  0
 29 30  1  0  0  0  0
M  END
>  <MODEL>
5

>  <REMARK>
 VINA RESULT:      -4.5      2.312      5.962
  Name = 
  4 active torsions:
  status: ('A' for Active; 'I' for Inactive)
    1  A    between atoms: C_6  and  C_8
    2  A    between atoms: C_6  and  O_21
    3  A    between atoms: O_9  and  O_21
    4  A    between atoms: C_27  and  C_30
                            x       y       z     vdW  Elec       q    Type
                         _______ _______ _______ _____ _____    ______ ____

>  <TORSDO>
F 4

$$$$
=
 OpenBabel10262422023D

 30 32  0  0  1  0  0  0  0  0999 V2000
  183.0070  175.5310  138.2010 C   0  0  1  0  0  3  0  0  0  0  0  0
  179.9390  174.5620  137.7770 C   0  0  0  0  0  2  0  0  0  0  0  0
  180.6780  178.7080  135.2780 C   0  0  0  0  0  1  0  0  0  0  0  0
  184.3050  175.8930  137.4370 C   0  0  2  0  0  3  0  0  0  0  0  0
  182.1620  176.7260  138.3400 N   0  0  0  0  0  2  0  0  0  0  0  0
  183.9480  178.2140  138.3930 C   0  0  2  0  0  3  0  0  0  0  0  0
  185.5870  176.4230  135.3070 C   0  0  0  0  0  2  0  0  0  0  0  0
  183.3660  177.8460  134.5960 O   0  0  0  0  0  0  0  0  0  0  0  0
  182.8320  177.6560  139.1560 N   0  0  0  0  0  2  0  0  0  0  0  0
  184.9710  177.1030  138.1290 C   0  0  2  0  0  3  0  0  0  0  0  0
  179.8660  174.3000  136.2760 C   0  0  0  0  0  2  0  0  0  0  0  0
  186.0500  177.7350  135.9250 C   0  0  2  0  0  3  0  0  0  0  0  0
  181.2660  174.0690  138.3500 C   0  0  0  0  0  2  0  0  0  0  0  0
  181.7400  176.5280  135.6210 N   0  0  0  0  0  2  0  0  0  0  0  0
  178.9360  175.2870  135.5770 C   0  0  0  0  0  2  0  0  0  0  0  0
  182.3250  174.4980  137.5360 O   0  0  0  0  0  0  0  0  0  0  0  0
  184.0250  174.5730  135.3130 C   0  0  0  0  0  1  0  0  0  0  0  0
  183.1060  176.8560  135.3350 C   0  0  0  0  0  0  0  0  0  0  0  0
  184.2280  175.9740  135.8690 C   0  0  1  0  0  0  0  0  0  0  0  0
  187.2990  178.2440  135.2280 C   0  0  0  0  0  1  0  0  0  0  0  0
  180.5620  177.2050  135.0830 C   0  0  1  0  0  3  0  0  0  0  0  0
  179.3160  176.7460  135.8340 C   0  0  0  0  0  2  0  0  0  0  0  0
  186.2490  177.5920  137.4360 C   0  0  2  0  0  3  0  0  0  0  0  0
  188.3450  177.2250  138.6370 C   0  0  0  0  0  2  0  0  0  0  0  0
  187.5500  175.4410  137.3380 O   0  0  0  0  0  1  0  0  0  0  0  0
  187.4240  176.7390  137.8200 C   0  0  0  0  0  0  0  0  0  0  0  0
  184.5610  179.3790  139.1660 C   0  0  0  0  0  2  0  0  0  0  0  0
  184.3840  179.2100  140.5430 O   0  0  0  0  0  0  0  0  0  0  0  0
  185.4600  179.7390  141.0900 O   0  0  0  0  0  0  0  0  0  0  0  0
  186.2320  178.6470  141.4890 C   0  0  0  0  0  1  0  0  0  0  0  0
  1 16  1  6  0  0  0
  1  5  1  0  0  0  0
  2 13  1  0  0  0  0
  4 10  1  0  0  0  0
  4  1  1  0  0  0  0
  5  9  1  0  0  0  0
  6  9  1  0  0  0  0
  6 27  1  0  0  0  0
  7 19  1  0  0  0  0
  7 12  1  0  0  0  0
  8 18  2  0  0  0  0
 10  6  1  0  0  0  0
 11  2  1  0  0  0  0
 12 23  1  0  0  0  0
 15 22  1  0  0  0  0
 15 11  1  0  0  0  0
 16 13  1  0  0  0  0
 17 19  1  0  0  0  0
 18 14  1  0  0  0  0
 18 19  1  0  0  0  0
 19  4  1  0  0  0  0
 20 12  1  0  0  0  0
 21  3  1  0  0  0  0
 21 14  1  0  0  0  0
 21 22  1  0  0  0  0
 23 26  1  0  0  0  0
 23 10  1  0  0  0  0
 25 26  1  0  0  0  0
 26 24  2  0  0  0  0
 27 28  1  0  0  0  0
 28 29  1  0  0  0  0
 29 30  1  0  0  0  0
M  END
>  <MODEL>
6

>  <REMARK>
 VINA RESULT:      -4.3      3.242      6.400
  Name = 
  4 active torsions:
  status: ('A' for Active; 'I' for Inactive)
    1  A    between atoms: C_6  and  C_8
    2  A    between atoms: C_6  and  O_21
    3  A    between atoms: O_9  and  O_21
    4  A    between atoms: C_27  and  C_30
                            x       y       z     vdW  Elec       q    Type
                         _______ _______ _______ _____ _____    ______ ____

>  <TORSDO>
F 4

$$$$
=
 OpenBabel10262422023D

 30 32  0  0  1  0  0  0  0  0999 V2000
  183.5900  177.0040  138.0530 C   0  0  1  0  0  3  0  0  0  0  0  0
  184.3950  173.9910  137.1570 C   0  0  0  0  0  2  0  0  0  0  0  0
  179.5880  174.1680  138.0760 C   0  0  0  0  0  1  0  0  0  0  0  0
  182.6570  178.1900  137.7020 C   0  0  2  0  0  3  0  0  0  0  0  0
  182.9040  176.0890  138.9780 N   0  0  0  0  0  2  0  0  0  0  0  0
  181.6260  177.7550  139.9770 C   0  0  2  0  0  3  0  0  0  0  0  0
  180.6940  179.2130  136.4520 C   0  0  0  0  0  2  0  0  0  0  0  0
  179.4420  176.8330  136.9320 O   0  0  0  0  0  0  0  0  0  0  0  0
  182.6810  176.7650  140.1920 N   0  0  0  0  0  2  0  0  0  0  0  0
  182.1450  178.8280  139.0120 C   0  0  2  0  0  3  0  0  0  0  0  0
  183.5990  173.7910  135.8710 C   0  0  0  0  0  2  0  0  0  0  0  0
  180.0810  179.6350  137.7810 C   0  0  2  0  0  3  0  0  0  0  0  0
  184.9770  175.4010  137.2200 C   0  0  0  0  0  2  0  0  0  0  0  0
  181.2930  175.4190  136.8410 N   0  0  0  0  0  2  0  0  0  0  0  0
  182.5200  172.7260  136.0370 C   0  0  0  0  0  2  0  0  0  0  0  0
  183.9920  176.3400  136.8820 O   0  0  0  0  0  0  0  0  0  0  0  0
  182.2510  177.8030  135.2490 C   0  0  0  0  0  1  0  0  0  0  0  0
  180.6950  176.7210  136.8190 C   0  0  0  0  0  0  0  0  0  0  0  0
  181.5630  177.9540  136.5970 C   0  0  1  0  0  0  0  0  0  0  0  0
  179.0910  180.7670  137.5790 C   0  0  0  0  0  1  0  0  0  0  0  0
  180.5800  174.1460  136.9240 C   0  0  1  0  0  3  0  0  0  0  0  0
  181.5700  173.0180  137.1990 C   0  0  0  0  0  2  0  0  0  0  0  0
  181.1680  179.9910  138.7990 C   0  0  2  0  0  3  0  0  0  0  0  0
  181.2500  182.2940  137.9850 C   0  0  0  0  0  2  0  0  0  0  0  0
  183.2750  181.3640  138.7190 O   0  0  0  0  0  1  0  0  0  0  0  0
  181.9090  181.2590  138.4840 C   0  0  0  0  0  0  0  0  0  0  0  0
  181.2070  178.3520  141.3180 C   0  0  0  0  0  2  0  0  0  0  0  0
  182.3080  178.9050  141.9810 O   0  0  0  0  0  0  0  0  0  0  0  0
  181.9110  179.0530  143.2290 O   0  0  0  0  0  0  0  0  0  0  0  0
  183.0840  179.0030  143.9850 C   0  0  0  0  0  1  0  0  0  0  0  0
  1 16  1  6  0  0  0
  1  5  1  0  0  0  0
  2 13  1  0  0  0  0
  4  1  1  0  0  0  0
  4 10  1  0  0  0  0
  5  9  1  0  0  0  0
  6  9  1  0  0  0  0
  6 27  1  0  0  0  0
  7 19  1  0  0  0  0
  7 12  1  0  0  0  0
 10  6  1  0  0  0  0
 11 15  1  0  0  0  0
 11  2  1  0  0  0  0
 12 23  1  0  0  0  0
 14 21  1  0  0  0  0
 15 22  1  0  0  0  0
 16 13  1  0  0  0  0
 17 19  1  0  0  0  0
 18 14  1  0  0  0  0
 18  8  2  0  0  0  0
 19 18  1  0  0  0  0
 19  4  1  0  0  0  0
 20 12  1  0  0  0  0
 21 22  1  0  0  0  0
 21  3  1  0  0  0  0
 23 10  1  0  0  0  0
 24 26  2  0  0  0  0
 26 25  1  0  0  0  0
 26 23  1  0  0  0  0
 27 28  1  0  0  0  0
 28 29  1  0  0  0  0
 29 30  1  0  0  0  0
M  END
>  <MODEL>
7

>  <REMARK>
 VINA RESULT:      -4.2      2.608      5.517
  Name = 
  4 active torsions:
  status: ('A' for Active; 'I' for Inactive)
    1  A    between atoms: C_6  and  C_8
    2  A    between atoms: C_6  and  O_21
    3  A    between atoms: O_9  and  O_21
    4  A    between atoms: C_27  and  C_30
                            x       y       z     vdW  Elec       q    Type
                         _______ _______ _______ _____ _____    ______ ____

>  <TORSDO>
F 4

$$$$
=
 OpenBabel10262422023D

 30 32  0  0  1  0  0  0  0  0999 V2000
  180.4210  175.5230  139.4790 C   0  0  1  0  0  3  0  0  0  0  0  0
  178.9310  173.3650  137.5690 C   0  0  0  0  0  2  0  0  0  0  0  0
  179.5420  177.5480  135.0990 C   0  0  0  0  0  1  0  0  0  0  0  0
  181.6670  176.4400  139.5700 C   0  0  2  0  0  3  0  0  0  0  0  0
  179.3270  176.2380  138.8050 N   0  0  0  0  0  2  0  0  0  0  0  0
  179.9870  178.3390  139.5500 C   0  0  2  0  0  3  0  0  0  0  0  0
  183.7070  177.5680  138.5580 C   0  0  0  0  0  2  0  0  0  0  0  0
  182.1260  177.9450  136.3620 O   0  0  0  0  0  0  0  0  0  0  0  0
  178.9370  177.3230  139.6130 N   0  0  0  0  0  2  0  0  0  0  0  0
  181.2530  177.7820  140.2120 C   0  0  2  0  0  3  0  0  0  0  0  0
  179.9250  173.1700  136.4290 C   0  0  0  0  0  2  0  0  0  0  0  0
  183.1650  178.9210  138.9990 C   0  0  2  0  0  3  0  0  0  0  0  0
  179.6540  173.4550  138.9110 C   0  0  0  0  0  2  0  0  0  0  0  0
  180.8310  176.0130  136.5040 N   0  0  0  0  0  2  0  0  0  0  0  0
  179.3780  173.7010  135.1080 C   0  0  0  0  0  2  0  0  0  0  0  0
  180.7430  174.3320  138.8070 O   0  0  0  0  0  0  0  0  0  0  0  0
  183.2920  175.2320  138.0760 C   0  0  0  0  0  1  0  0  0  0  0  0
  181.8330  176.9040  137.0120 C   0  0  0  0  0  0  0  0  0  0  0  0
  182.5790  176.5570  138.2950 C   0  0  1  0  0  0  0  0  0  0  0  0
  184.2820  179.9460  139.0780 C   0  0  0  0  0  1  0  0  0  0  0  0
  180.1220  176.1510  135.2340 C   0  0  1  0  0  3  0  0  0  0  0  0
  178.9550  175.1690  135.1870 C   0  0  0  0  0  2  0  0  0  0  0  0
  182.3950  178.8020  140.3170 C   0  0  2  0  0  3  0  0  0  0  0  0
  182.7590  178.6270  142.7270 C   0  0  0  0  0  2  0  0  0  0  0  0
  184.5830  178.1100  141.3460 O   0  0  0  0  0  1  0  0  0  0  0  0
  183.2620  178.5110  141.5070 C   0  0  0  0  0  0  0  0  0  0  0  0
  179.5020  179.6150  140.2340 C   0  0  0  0  0  2  0  0  0  0  0  0
  178.9950  179.3340  141.5080 O   0  0  0  0  0  0  0  0  0  0  0  0
  179.5900  180.1960  142.3070 O   0  0  0  0  0  0  0  0  0  0  0  0
  178.9330  180.0620  143.5300 C   0  0  0  0  0  1  0  0  0  0  0  0
  1  5  1  6  0  0  0
  1  4  1  0  0  0  0
  2 13  1  0  0  0  0
  3 21  1  0  0  0  0
  4 10  1  0  0  0  0
  5  9  1  0  0  0  0
  6  9  1  0  0  0  0
  6 10  1  0  0  0  0
  6 27  1  0  0  0  0
  7 12  1  0  0  0  0
  8 18  2  0  0  0  0
 10 23  1  0  0  0  0
 11  2  1  0  0  0  0
 12 20  1  0  0  0  0
 12 23  1  0  0  0  0
 14 18  1  0  0  0  0
 15 22  1  0  0  0  0
 15 11  1  0  0  0  0
 16 13  1  0  0  0  0
 16  1  1  0  0  0  0
 17 19  1  0  0  0  0
 18 19  1  0  0  0  0
 19  7  1  0  0  0  0
 19  4  1  0  0  0  0
 21 14  1  0  0  0  0
 22 21  1  0  0  0  0
 23 26  1  0  0  0  0
 25 26  1  0  0  0  0
 26 24  2  0  0  0  0
 27 28  1  0  0  0  0
 28 29  1  0  0  0  0
 29 30  1  0  0  0  0
M  END
>  <MODEL>
8

>  <REMARK>
 VINA RESULT:      -4.2      2.854      6.324
  Name = 
  4 active torsions:
  status: ('A' for Active; 'I' for Inactive)
    1  A    between atoms: C_6  and  C_8
    2  A    between atoms: C_6  and  O_21
    3  A    between atoms: O_9  and  O_21
    4  A    between atoms: C_27  and  C_30
                            x       y       z     vdW  Elec       q    Type
                         _______ _______ _______ _____ _____    ______ ____

>  <TORSDO>
F 4

$$$$
=
 OpenBabel10262422023D

 30 32  0  0  1  0  0  0  0  0999 V2000
  183.4280  176.2410  138.7350 C   0  0  1  0  0  3  0  0  0  0  0  0
  182.7700  178.9550  140.3860 C   0  0  0  0  0  2  0  0  0  0  0  0
  180.9300  179.3360  135.8640 C   0  0  0  0  0  1  0  0  0  0  0  0
  182.7670  175.0870  137.9400 C   0  0  2  0  0  3  0  0  0  0  0  0
  183.7140  177.3660  137.8320 N   0  0  0  0  0  2  0  0  0  0  0  0
  184.0410  176.0270  135.9600 C   0  0  2  0  0  3  0  0  0  0  0  0
  180.7790  174.0030  136.7850 C   0  0  0  0  0  2  0  0  0  0  0  0
  180.2140  176.5220  135.8920 O   0  0  0  0  0  0  0  0  0  0  0  0
  184.6790  176.9540  136.8940 N   0  0  0  0  0  2  0  0  0  0  0  0
  183.6490  174.7520  136.7180 C   0  0  2  0  0  3  0  0  0  0  0  0
  181.2460  178.9690  140.4310 C   0  0  0  0  0  2  0  0  0  0  0  0
  181.5970  173.8910  135.5050 C   0  0  2  0  0  3  0  0  0  0  0  0
  183.3060  177.5410  140.6010 C   0  0  0  0  0  2  0  0  0  0  0  0
  180.9830  177.7420  137.7230 N   0  0  0  0  0  2  0  0  0  0  0  0
  180.6690  180.1280  139.6240 C   0  0  0  0  0  2  0  0  0  0  0  0
  182.5980  176.6360  139.7970 O   0  0  0  0  0  0  0  0  0  0  0  0
  180.4640  175.0310  138.9540 C   0  0  0  0  0  1  0  0  0  0  0  0
  180.7910  176.5110  137.0150 C   0  0  0  0  0  0  0  0  0  0  0  0
  181.2250  175.1940  137.6480 C   0  0  1  0  0  0  0  0  0  0  0  0
  181.0220  172.8220  134.5940 C   0  0  0  0  0  1  0  0  0  0  0  0
  180.5140  179.0600  137.2990 C   0  0  1  0  0  3  0  0  0  0  0  0
  181.1490  180.1380  138.1720 C   0  0  0  0  0  2  0  0  0  0  0  0
  183.0770  173.6510  135.8170 C   0  0  2  0  0  3  0  0  0  0  0  0
  184.5110  171.6920  136.0930 C   0  0  0  0  0  2  0  0  0  0  0  0
  182.4580  171.6610  137.2270 O   0  0  0  0  0  1  0  0  0  0  0  0
  183.3680  172.2920  136.3870 C   0  0  0  0  0  0  0  0  0  0  0  0
  184.9950  175.7310  134.8050 C   0  0  0  0  0  2  0  0  0  0  0  0
  186.3170  175.6640  135.2590 O   0  0  0  0  0  0  0  0  0  0  0  0
  186.6930  174.4230  135.0250 O   0  0  0  0  0  0  0  0  0  0  0  0
  187.5190  174.0910  136.1000 C   0  0  0  0  0  1  0  0  0  0  0  0
  1  5  1  6  0  0  0
  1 16  1  0  0  0  0
  2 11  1  0  0  0  0
  2 13  1  0  0  0  0
  3 21  1  0  0  0  0
  4  1  1  0  0  0  0
  6 10  1  0  0  0  0
  6  9  1  0  0  0  0
  7 19  1  0  0  0  0
  8 18  2  0  0  0  0
  9  5  1  0  0  0  0
 10  4  1  0  0  0  0
 12 23  1  0  0  0  0
 12  7  1  0  0  0  0
 15 11  1  0  0  0  0
 16 13  1  0  0  0  0
 18 19  1  0  0  0  0
 18 14  1  0  0  0  0
 19  4  1  0  0  0  0
 19 17  1  0  0  0  0
 20 12  1  0  0  0  0
 21 14  1  0  0  0  0
 21 22  1  0  0  0  0
 22 15  1  0  0  0  0
 23 26  1  0  0  0  0
 23 10  1  0  0  0  0
 24 26  2  0  0  0  0
 26 25  1  0  0  0  0
 27 28  1  0  0  0  0
 27  6  1  0  0  0  0
 29 28  1  0  0  0  0
 29 30  1  0  0  0  0
M  END
>  <MODEL>
9

>  <REMARK>
 VINA RESULT:      -4.2      3.503      5.600
  Name = 
  4 active torsions:
  status: ('A' for Active; 'I' for Inactive)
    1  A    between atoms: C_6  and  C_8
    2  A    between atoms: C_6  and  O_21
    3  A    between atoms: O_9  and  O_21
    4  A    between atoms: C_27  and  C_30
                            x       y       z     vdW  Elec       q    Type
                         _______ _______ _______ _____ _____    ______ ____

>  <TORSDO>
F 4

$$$$
