=
 OpenBabel10262422183D

 43 50  0  0  1  0  0  0  0  0999 V2000
  184.7570  178.2580  143.6200 N   0  0  0  0  0  0  0  0  0  0  0  0
  191.2310  176.6210  146.7600 C   0  0  0  0  0  0  0  0  0  0  0  0
  187.0150  177.8610  144.2380 N   0  0  0  0  0  0  0  0  0  0  0  0
  187.6950  177.7780  141.4760 C   0  0  1  0  0  3  0  0  0  0  0  0
  188.9140  177.1200  146.1580 C   0  0  0  0  0  0  0  0  0  0  0  0
  191.6910  176.8760  145.5320 C   0  0  0  0  0  3  0  0  0  0  0  0
  192.1790  176.1860  147.8190 C   0  0  0  0  0  1  0  0  0  0  0  0
  189.3410  177.4090  144.7680 C   0  0  0  0  0  0  0  0  0  0  0  0
  189.8010  176.7530  147.0800 C   0  0  0  0  0  3  0  0  0  0  0  0
  190.8060  177.3260  144.4000 C   0  0  0  0  0  2  0  0  0  0  0  0
  188.8230  178.0920  142.4480 C   0  0  0  0  0  2  0  0  0  0  0  0
  188.4110  177.7540  143.8550 C   0  0  0  0  0  0  0  0  0  0  0  0
  186.6100  177.5880  145.5930 C   0  0  0  0  0  3  0  0  0  0  0  0
  186.0110  178.1980  143.2570 C   0  0  0  0  0  0  0  0  0  0  0  0
  186.4460  178.5550  141.8610 C   0  0  0  0  0  2  0  0  0  0  0  0
  187.4990  177.2340  146.5190 C   0  0  0  0  0  3  0  0  0  0  0  0
  188.1070  178.1030  140.0780 C   0  0  0  0  0  0  0  0  0  0  0  0
  187.9550  176.2570  136.7310 N   0  0  0  0  0  2  0  0  0  0  0  0
  187.8810  177.1350  139.0480 N   0  0  0  0  0  2  0  0  0  0  0  0
  188.6580  179.2070  139.8200 O   0  0  0  0  0  0  0  0  0  0  0  0
  188.1900  177.3150  137.6610 C   0  0  0  0  0  0  0  0  0  0  0  0
  188.6660  178.4040  137.2430 O   0  0  0  0  0  0  0  0  0  0  0  0
  187.4510  174.9530  137.1430 C   0  0  2  0  0  3  0  0  0  0  0  0
  185.9940  173.7380  135.4960 N   0  0  0  0  0  2  0  0  0  0  0  0
  184.9790  175.7730  136.6840 C   0  0  2  0  0  3  0  0  0  0  0  0
  188.5070  173.6510  136.4510 S   0  0  0  0  0  0  0  0  0  0  0  0
  186.0770  174.7250  136.5600 C   0  0  2  0  0  0  0  0  0  0  0  0
  184.9950  174.5490  137.5990 C   0  0  0  0  0  2  0  0  0  0  0  0
  187.0620  172.7840  135.7590 C   0  0  0  0  0  2  0  0  0  0  0  0
  183.9660  175.6070  135.6390 N   0  0  2  0  0  0  0  0  0  0  0  0
  182.4530  177.1470  136.8490 C   0  0  0  0  0  2  0  0  0  0  0  0
  183.0560  177.5600  134.6230 C   0  0  0  0  0  2  0  0  0  0  0  0
  182.0100  176.9920  135.4550 N   0  0  1  0  0  0  0  0  0  0  0  0
  184.2080  176.5880  134.5940 C   0  0  0  0  0  2  0  0  0  0  0  0
  182.6140  175.8490  136.1720 C   0  0  1  0  0  3  0  0  0  0  0  0
  182.3750  178.6810  140.7310 C   0  0  0  0  0  3  0  0  0  0  0  0
  181.2400  179.1640  141.4020 C   0  0  0  0  0  0  0  0  0  0  0  0
  182.4540  179.0430  143.4980 C   0  0  0  0  0  3  0  0  0  0  0  0
  183.5390  178.3830  141.4430 C   0  0  0  0  0  3  0  0  0  0  0  0
  183.5910  178.5700  142.8350 C   0  0  0  0  0  0  0  0  0  0  0  0
  181.2880  179.3410  142.7870 C   0  0  0  0  0  3  0  0  0  0  0  0
  180.0610  179.4740  140.7190 O   0  0  0  0  0  0  0  0  0  0  0  0
  179.5500  180.7970  140.6310 C   0  0  0  0  0  1  0  0  0  0  0  0
  2  9  1  0  0  0  0
  2  7  1  0  0  0  0
  3 13  1  0  0  0  0
  4 17  1  6  0  0  0
  4 15  1  0  0  0  0
  4 11  1  0  0  0  0
  5 16  1  0  0  0  0
  5  9  2  0  0  0  0
  6  2  2  0  0  0  0
  8  5  1  0  0  0  0
 10  8  1  0  0  0  0
 10  6  1  0  0  0  0
 11 12  1  0  0  0  0
 12  3  1  0  0  0  0
 12  8  2  0  0  0  0
 13 16  2  0  0  0  0
 14  1  2  0  0  0  0
 14  3  1  0  0  0  0
 15 14  1  0  0  0  0
 18 21  1  0  0  0  0
 19 17  1  0  0  0  0
 20 17  2  0  0  0  0
 21 19  1  0  0  0  0
 22 21  2  0  0  0  0
 23 18  1  6  0  0  0
 24 29  1  0  0  0  0
 24 27  1  0  0  0  0
 25 28  1  1  0  0  0
 26 23  1  0  0  0  0
 27 25  1  0  0  0  0
 27 23  1  0  0  0  0
 27 28  1  1  0  0  0
 29 26  1  0  0  0  0
 30 34  1  6  0  0  0
 30 35  1  0  0  0  0
 30 25  1  0  0  0  0
 33 32  1  6  0  0  0
 33 35  1  0  0  0  0
 33 31  1  0  0  0  0
 34 32  1  0  0  0  0
 35 31  1  1  0  0  0
 36 37  2  0  0  0  0
 36 39  1  0  0  0  0
 37 41  1  0  0  0  0
 39 40  2  0  0  0  0
 40 38  1  0  0  0  0
 40  1  1  0  0  0  0
 41 38  2  0  0  0  0
 42 37  1  0  0  0  0
 43 42  1  0  0  0  0
M  END
>  <MODEL>
1

>  <REMARK>
 VINA RESULT:     -10.3      0.000      0.000
  Name = 
  5 active torsions:
  status: ('A' for Active; 'I' for Inactive)
    1  A    between atoms: N_1  and  C_35
    2  A    between atoms: C_2  and  C_13
    3  A    between atoms: N_3  and  C_4
    4  A    between atoms: N_11  and  C_14
    5  A    between atoms: C_19  and  O_25
                            x       y       z     vdW  Elec       q    Type
                         _______ _______ _______ _____ _____    ______ ____

>  <TORSDO>
F 5

$$$$
=
 OpenBabel10262422183D

 43 50  0  0  1  0  0  0  0  0999 V2000
  190.2720  176.9080  140.7410 N   0  0  0  0  0  0  0  0  0  0  0  0
  188.1380  177.9360  147.7290 C   0  0  0  0  0  0  0  0  0  0  0  0
  189.1770  177.2930  142.8120 N   0  0  0  0  0  0  0  0  0  0  0  0
  187.0410  178.5210  141.3880 C   0  0  1  0  0  3  0  0  0  0  0  0
  189.2500  177.4450  145.6070 C   0  0  2  0  0  3  0  0  0  0  0  0
  186.9740  178.2340  147.1450 C   0  0  0  0  0  3  0  0  0  0  0  0
  188.2580  178.0320  149.2080 C   0  0  0  0  0  1  0  0  0  0  0  0
  187.9990  177.7700  144.8810 C   0  0  0  0  0  0  0  0  0  0  0  0
  189.3060  177.5250  146.9350 C   0  0  0  0  0  3  0  0  0  0  0  0
  186.7600  178.1590  145.6560 C   0  0  0  0  0  3  0  0  0  0  0  0
  186.7190  177.9880  142.7760 C   0  0  0  0  0  2  0  0  0  0  0  0
  187.9860  177.7020  143.5350 C   0  0  0  0  0  0  0  0  0  0  0  0
  190.3850  176.9690  143.5270 C   0  0  0  0  0  3  0  0  0  0  0  0
  189.1790  177.2500  141.3690 C   0  0  0  0  0  0  0  0  0  0  0  0
  187.8950  177.5160  140.6300 C   0  0  0  0  0  2  0  0  0  0  0  0
  190.4380  177.0350  144.8550 C   0  0  0  0  0  3  0  0  0  0  0  0
  185.7850  178.8150  140.6380 C   0  0  0  0  0  0  0  0  0  0  0  0
  184.1580  177.4300  137.4650 N   0  0  0  0  0  2  0  0  0  0  0  0
  185.4940  178.0650  139.4540 N   0  0  0  0  0  2  0  0  0  0  0  0
  185.0050  179.7220  141.0380 O   0  0  0  0  0  0  0  0  0  0  0  0
  184.3170  178.2100  138.6500 C   0  0  0  0  0  0  0  0  0  0  0  0
  183.4080  179.0180  138.9790 O   0  0  0  0  0  0  0  0  0  0  0  0
  185.1820  176.5080  136.9940 C   0  0  2  0  0  3  0  0  0  0  0  0
  184.7970  175.4470  134.7500 N   0  0  0  0  0  2  0  0  0  0  0  0
  183.3450  174.6280  136.7010 C   0  0  2  0  0  3  0  0  0  0  0  0
  186.3030  177.3770  135.8640 S   0  0  0  0  0  0  0  0  0  0  0  0
  184.5480  175.4040  136.1810 C   0  0  2  0  0  0  0  0  0  0  0  0
  184.7480  174.0250  136.7630 C   0  0  0  0  0  2  0  0  0  0  0  0
  186.0950  176.0870  134.5940 C   0  0  0  0  0  2  0  0  0  0  0  0
  182.5870  174.0260  135.6020 N   0  0  2  0  0  0  0  0  0  0  0  0
  181.0960  172.9090  137.2310 C   0  0  0  0  0  2  0  0  0  0  0  0
  180.2210  174.3100  135.5680 C   0  0  0  0  0  2  0  0  0  0  0  0
  180.4750  172.9180  135.8980 N   0  0  1  0  0  0  0  0  0  0  0  0
  181.5370  174.9470  135.1980 C   0  0  0  0  0  2  0  0  0  0  0  0
  181.9400  172.7740  136.0320 C   0  0  1  0  0  3  0  0  0  0  0  0
  190.0330  177.3280  137.0040 C   0  0  0  0  0  3  0  0  0  0  0  0
  191.1160  176.5390  136.5860 C   0  0  0  0  0  0  0  0  0  0  0  0
  191.6010  176.0150  138.9040 C   0  0  0  0  0  3  0  0  0  0  0  0
  189.7390  177.4560  138.3640 C   0  0  0  0  0  3  0  0  0  0  0  0
  190.5170  176.7930  139.3270 C   0  0  0  0  0  0  0  0  0  0  0  0
  191.8970  175.8860  137.5440 C   0  0  0  0  0  3  0  0  0  0  0  0
  191.4350  176.3880  135.2340 O   0  0  0  0  0  0  0  0  0  0  0  0
  191.8080  175.1390  134.6690 C   0  0  0  0  0  1  0  0  0  0  0  0
  1 14  2  0  0  0  0
  2  7  1  0  0  0  0
  3 13  1  0  0  0  0
  3 12  1  0  0  0  0
  4 17  1  6  0  0  0
  4 11  1  0  0  0  0
  5 16  1  6  0  0  0
  5  9  1  0  0  0  0
  6  2  1  0  0  0  0
  8  5  1  0  0  0  0
  8 10  1  0  0  0  0
  9  2  2  0  0  0  0
 10  6  2  0  0  0  0
 11 12  1  0  0  0  0
 12  8  2  0  0  0  0
 13 16  2  0  0  0  0
 14  3  1  0  0  0  0
 15 14  1  0  0  0  0
 15  4  1  0  0  0  0
 17 20  2  0  0  0  0
 18 21  1  0  0  0  0
 19 17  1  0  0  0  0
 21 22  2  0  0  0  0
 21 19  1  0  0  0  0
 23 18  1  6  0  0  0
 24 27  1  0  0  0  0
 25 28  1  1  0  0  0
 26 23  1  0  0  0  0
 27 25  1  0  0  0  0
 27 28  1  1  0  0  0
 27 23  1  0  0  0  0
 29 24  1  0  0  0  0
 29 26  1  0  0  0  0
 30 34  1  1  0  0  0
 30 35  1  0  0  0  0
 30 25  1  0  0  0  0
 33 32  1  6  0  0  0
 33 35  1  0  0  0  0
 33 31  1  0  0  0  0
 34 32  1  0  0  0  0
 35 31  1  1  0  0  0
 36 39  1  0  0  0  0
 37 36  2  0  0  0  0
 37 41  1  0  0  0  0
 38 40  1  0  0  0  0
 39 40  2  0  0  0  0
 40  1  1  0  0  0  0
 41 38  2  0  0  0  0
 42 37  1  0  0  0  0
 43 42  1  0  0  0  0
M  END
>  <MODEL>
2

>  <REMARK>
 VINA RESULT:      -9.2      2.717      5.664
  Name = 
  5 active torsions:
  status: ('A' for Active; 'I' for Inactive)
    1  A    between atoms: N_1  and  C_35
    2  A    between atoms: C_2  and  C_13
    3  A    between atoms: N_3  and  C_4
    4  A    between atoms: N_11  and  C_14
    5  A    between atoms: C_19  and  O_25
                            x       y       z     vdW  Elec       q    Type
                         _______ _______ _______ _____ _____    ______ ____

>  <TORSDO>
F 5

$$$$
=
 OpenBabel10262422183D

 43 50  0  0  1  0  0  0  0  0999 V2000
  184.2970  178.3470  143.8260 N   0  0  0  0  0  0  0  0  0  0  0  0
  191.0060  176.7830  146.4710 C   0  0  0  0  0  0  0  0  0  0  0  0
  186.5990  177.9700  144.2700 N   0  0  0  0  0  0  0  0  0  0  0  0
  187.0630  177.8590  141.4650 C   0  0  1  0  0  3  0  0  0  0  0  0
  188.6460  177.2620  146.0450 C   0  0  0  0  0  0  0  0  0  0  0  0
  191.3680  177.0260  145.2080 C   0  0  0  0  0  3  0  0  0  0  0  0
  192.0360  176.3660  147.4580 C   0  0  0  0  0  1  0  0  0  0  0  0
  188.9620  177.5370  144.6230 C   0  0  0  0  0  0  0  0  0  0  0  0
  189.6050  176.9110  146.9000 C   0  0  0  0  0  3  0  0  0  0  0  0
  190.3940  177.4580  144.1430 C   0  0  0  0  0  2  0  0  0  0  0  0
  188.2600  178.1910  142.3430 C   0  0  0  0  0  2  0  0  0  0  0  0
  187.9620  177.8660  143.7810 C   0  0  0  0  0  0  0  0  0  0  0  0
  186.3020  177.7100  145.6560 C   0  0  0  0  0  3  0  0  0  0  0  0
  185.5190  178.2900  143.3670 C   0  0  0  0  0  0  0  0  0  0  0  0
  185.8420  178.6340  141.9380 C   0  0  0  0  0  2  0  0  0  0  0  0
  187.2620  177.3730  146.5140 C   0  0  0  0  0  3  0  0  0  0  0  0
  187.3620  178.1700  140.0360 C   0  0  0  0  0  0  0  0  0  0  0  0
  186.1880  176.7710  136.6750 N   0  0  0  0  0  2  0  0  0  0  0  0
  186.7070  177.4150  139.0120 N   0  0  0  0  0  2  0  0  0  0  0  0
  188.1910  179.0740  139.7440 O   0  0  0  0  0  0  0  0  0  0  0  0
  186.8670  177.6180  137.6030 C   0  0  0  0  0  0  0  0  0  0  0  0
  187.5990  178.5450  137.1650 O   0  0  0  0  0  0  0  0  0  0  0  0
  185.3620  175.6500  137.1010 C   0  0  2  0  0  3  0  0  0  0  0  0
  183.6540  174.8210  135.4570 N   0  0  0  0  0  2  0  0  0  0  0  0
  183.1890  177.0710  136.5980 C   0  0  2  0  0  3  0  0  0  0  0  0
  186.0520  174.1070  136.4450 S   0  0  0  0  0  0  0  0  0  0  0  0
  183.9800  175.7720  136.5060 C   0  0  2  0  0  0  0  0  0  0  0  0
  182.8810  175.9020  137.5330 C   0  0  0  0  0  2  0  0  0  0  0  0
  184.4370  173.6280  135.7490 C   0  0  0  0  0  2  0  0  0  0  0  0
  182.1760  177.1520  135.5430 N   0  0  2  0  0  0  0  0  0  0  0  0
  180.8870  178.7770  136.8940 C   0  0  0  0  0  2  0  0  0  0  0  0
  181.5720  179.3020  134.7140 C   0  0  0  0  0  2  0  0  0  0  0  0
  180.4440  178.8170  135.4920 N   0  0  1  0  0  0  0  0  0  0  0  0
  182.5710  178.1790  134.5940 C   0  0  0  0  0  2  0  0  0  0  0  0
  180.8670  177.5380  136.0980 C   0  0  1  0  0  3  0  0  0  0  0  0
  181.7010  178.7400  141.1230 C   0  0  0  0  0  3  0  0  0  0  0  0
  180.6120  179.2050  141.8770 C   0  0  0  0  0  0  0  0  0  0  0  0
  181.9800  179.0980  143.8780 C   0  0  0  0  0  3  0  0  0  0  0  0
  182.9190  178.4590  141.7460 C   0  0  0  0  0  3  0  0  0  0  0  0
  183.0720  178.6430  143.1300 C   0  0  0  0  0  0  0  0  0  0  0  0
  180.7600  179.3800  143.2560 C   0  0  0  0  0  3  0  0  0  0  0  0
  179.3820  179.4990  141.2850 O   0  0  0  0  0  0  0  0  0  0  0  0
  179.0400  180.8020  140.8310 C   0  0  0  0  0  1  0  0  0  0  0  0
  2  9  1  0  0  0  0
  2  7  1  0  0  0  0
  3 13  1  0  0  0  0
  4 17  1  6  0  0  0
  4 15  1  0  0  0  0
  4 11  1  0  0  0  0
  5 16  1  0  0  0  0
  5  9  2  0  0  0  0
  6  2  2  0  0  0  0
  8  5  1  0  0  0  0
 10  8  1  0  0  0  0
 10  6  1  0  0  0  0
 11 12  1  0  0  0  0
 12  3  1  0  0  0  0
 12  8  2  0  0  0  0
 13 16  2  0  0  0  0
 14  1  2  0  0  0  0
 14  3  1  0  0  0  0
 15 14  1  0  0  0  0
 18 21  1  0  0  0  0
 19 17  1  0  0  0  0
 20 17  2  0  0  0  0
 21 19  1  0  0  0  0
 22 21  2  0  0  0  0
 23 18  1  6  0  0  0
 24 29  1  0  0  0  0
 24 27  1  0  0  0  0
 25 28  1  1  0  0  0
 26 23  1  0  0  0  0
 27 25  1  0  0  0  0
 27 23  1  0  0  0  0
 27 28  1  1  0  0  0
 29 26  1  0  0  0  0
 30 34  1  6  0  0  0
 30 35  1  0  0  0  0
 30 25  1  0  0  0  0
 33 32  1  6  0  0  0
 33 35  1  0  0  0  0
 33 31  1  0  0  0  0
 34 32  1  0  0  0  0
 35 31  1  1  0  0  0
 36 39  2  0  0  0  0
 36 37  1  0  0  0  0
 37 41  2  0  0  0  0
 39 40  1  0  0  0  0
 40  1  1  0  0  0  0
 40 38  2  0  0  0  0
 41 38  1  0  0  0  0
 42 37  1  0  0  0  0
 43 42  1  0  0  0  0
M  END
>  <MODEL>
3

>  <REMARK>
 VINA RESULT:      -8.9      1.113      1.455
  Name = 
  5 active torsions:
  status: ('A' for Active; 'I' for Inactive)
    1  A    between atoms: N_1  and  C_35
    2  A    between atoms: C_2  and  C_13
    3  A    between atoms: N_3  and  C_4
    4  A    between atoms: N_11  and  C_14
    5  A    between atoms: C_19  and  O_25
                            x       y       z     vdW  Elec       q    Type
                         _______ _______ _______ _____ _____    ______ ____

>  <TORSDO>
F 5

$$$$
=
 OpenBabel10262422183D

 43 50  0  0  1  0  0  0  0  0999 V2000
  186.4150  178.0550  145.5320 N   0  0  0  0  0  0  0  0  0  0  0  0
  180.3600  179.5090  141.5750 C   0  0  0  0  0  0  0  0  0  0  0  0
  184.7210  178.4080  143.9070 N   0  0  0  0  0  0  0  0  0  0  0  0
  186.7480  178.5970  141.9190 C   0  0  1  0  0  3  0  0  0  0  0  0
  182.0740  179.0550  143.2570 C   0  0  0  0  0  0  0  0  0  0  0  0
  181.1920  179.3010  140.5510 C   0  0  0  0  0  3  0  0  0  0  0  0
  178.9490  179.8930  141.3030 C   0  0  0  0  0  1  0  0  0  0  0  0
  183.0640  178.8190  142.1800 C   0  0  0  0  0  0  0  0  0  0  0  0
  180.8150  179.3760  142.9670 C   0  0  0  0  0  3  0  0  0  0  0  0
  182.6330  178.9040  140.7320 C   0  0  0  0  0  2  0  0  0  0  0  0
  185.3500  178.2340  141.4370 C   0  0  0  0  0  2  0  0  0  0  0  0
  184.3360  178.5190  142.5110 C   0  0  0  0  0  0  0  0  0  0  0  0
  183.7500  178.6300  144.9480 C   0  0  0  0  0  3  0  0  0  0  0  0
  186.0880  178.1200  144.2690 C   0  0  0  0  0  0  0  0  0  0  0  0
  187.0820  177.8150  143.1800 C   0  0  0  0  0  2  0  0  0  0  0  0
  182.4880  178.9380  144.6580 C   0  0  0  0  0  3  0  0  0  0  0  0
  187.7530  178.3250  140.8500 C   0  0  0  0  0  0  0  0  0  0  0  0
  187.5970  177.9160  137.0490 N   0  0  0  0  0  2  0  0  0  0  0  0
  187.3120  178.2420  139.4900 N   0  0  0  0  0  2  0  0  0  0  0  0
  188.9670  178.1580  141.1480 O   0  0  0  0  0  0  0  0  0  0  0  0
  188.1610  178.0210  138.3570 C   0  0  0  0  0  0  0  0  0  0  0  0
  189.4090  177.9220  138.4960 O   0  0  0  0  0  0  0  0  0  0  0  0
  186.1610  177.9730  136.8110 C   0  0  2  0  0  3  0  0  0  0  0  0
  184.7960  176.0590  137.6930 N   0  0  0  0  0  2  0  0  0  0  0  0
  186.2690  175.6040  135.6420 C   0  0  2  0  0  3  0  0  0  0  0  0
  185.3300  178.6280  138.2840 S   0  0  0  0  0  0  0  0  0  0  0  0
  185.6150  176.5800  136.6120 C   0  0  2  0  0  0  0  0  0  0  0  0
  184.9950  176.3550  135.2540 C   0  0  0  0  0  2  0  0  0  0  0  0
  184.1730  177.2200  138.3110 C   0  0  0  0  0  2  0  0  0  0  0  0
  185.9490  174.2170  135.9890 N   0  0  2  0  0  0  0  0  0  0  0  0
  187.8370  173.4260  134.5970 C   0  0  0  0  0  2  0  0  0  0  0  0
  187.6850  172.8390  136.8610 C   0  0  0  0  0  2  0  0  0  0  0  0
  187.4040  172.3630  135.5170 N   0  0  1  0  0  0  0  0  0  0  0  0
  186.6450  173.8710  137.2170 C   0  0  0  0  0  2  0  0  0  0  0  0
  186.4100  173.2920  134.9390 C   0  0  1  0  0  3  0  0  0  0  0  0
  189.1690  177.5470  148.0540 C   0  0  0  0  0  3  0  0  0  0  0  0
  190.2310  177.1910  147.2070 C   0  0  0  0  0  0  0  0  0  0  0  0
  188.7560  177.4210  145.2950 C   0  0  0  0  0  3  0  0  0  0  0  0
  187.9120  177.8390  147.5200 C   0  0  0  0  0  3  0  0  0  0  0  0
  187.6960  177.7860  146.1330 C   0  0  0  0  0  0  0  0  0  0  0  0
  190.0150  177.1280  145.8280 C   0  0  0  0  0  3  0  0  0  0  0  0
  191.5010  176.8960  147.7090 O   0  0  0  0  0  0  0  0  0  0  0  0
  192.1530  175.6570  147.4660 C   0  0  0  0  0  1  0  0  0  0  0  0
  1 40  1  0  0  0  0
  2  9  1  0  0  0  0
  3 14  1  0  0  0  0
  3 13  1  0  0  0  0
  4 17  1  6  0  0  0
  4 15  1  0  0  0  0
  5 16  1  0  0  0  0
  6 10  1  0  0  0  0
  6  2  2  0  0  0  0
  7  2  1  0  0  0  0
  8 12  2  0  0  0  0
  8  5  1  0  0  0  0
  9  5  2  0  0  0  0
 10  8  1  0  0  0  0
 11  4  1  0  0  0  0
 11 12  1  0  0  0  0
 12  3  1  0  0  0  0
 14  1  2  0  0  0  0
 15 14  1  0  0  0  0
 16 13  2  0  0  0  0
 17 20  2  0  0  0  0
 18 21  1  0  0  0  0
 19 17  1  0  0  0  0
 21 22  2  0  0  0  0
 21 19  1  0  0  0  0
 23 18  1  1  0  0  0
 23 26  1  0  0  0  0
 24 29  1  0  0  0  0
 25 28  1  6  0  0  0
 25 30  1  0  0  0  0
 25 27  1  0  0  0  0
 26 29  1  0  0  0  0
 27 28  1  6  0  0  0
 27 23  1  0  0  0  0
 27 24  1  0  0  0  0
 30 34  1  1  0  0  0
 32 34  1  0  0  0  0
 33 31  1  6  0  0  0
 33 32  1  0  0  0  0
 35 31  1  6  0  0  0
 35 33  1  0  0  0  0
 35 30  1  0  0  0  0
 37 42  1  0  0  0  0
 37 36  2  0  0  0  0
 38 41  2  0  0  0  0
 38 40  1  0  0  0  0
 39 36  1  0  0  0  0
 40 39  2  0  0  0  0
 41 37  1  0  0  0  0
 43 42  1  0  0  0  0
M  END
>  <MODEL>
4

>  <REMARK>
 VINA RESULT:      -8.6      2.178      6.967
  Name = 
  5 active torsions:
  status: ('A' for Active; 'I' for Inactive)
    1  A    between atoms: N_1  and  C_35
    2  A    between atoms: C_2  and  C_13
    3  A    between atoms: N_3  and  C_4
    4  A    between atoms: N_11  and  C_14
    5  A    between atoms: C_19  and  O_25
                            x       y       z     vdW  Elec       q    Type
                         _______ _______ _______ _____ _____    ______ ____

>  <TORSDO>
F 5

$$$$
=
 OpenBabel10262422183D

 43 50  0  0  1  0  0  0  0  0999 V2000
  188.9200  177.5800  140.1420 N   0  0  0  0  0  0  0  0  0  0  0  0
  191.2090  176.7730  147.1100 C   0  0  0  0  0  0  0  0  0  0  0  0
  189.2180  177.3250  142.4830 N   0  0  0  0  0  0  0  0  0  0  0  0
  186.5940  178.3540  142.8710 C   0  0  1  0  0  3  0  0  0  0  0  0
  190.8990  176.9390  144.6900 C   0  0  2  0  0  3  0  0  0  0  0  0
  189.9090  176.9390  147.3710 C   0  0  0  0  0  3  0  0  0  0  0  0
  192.1630  176.6000  148.2360 C   0  0  0  0  0  1  0  0  0  0  0  0
  189.4450  177.1430  144.8940 C   0  0  0  0  0  0  0  0  0  0  0  0
  191.7150  176.7670  145.7290 C   0  0  0  0  0  3  0  0  0  0  0  0
  188.8720  177.1160  146.2930 C   0  0  0  0  0  3  0  0  0  0  0  0
  187.1690  177.5060  143.9960 C   0  0  0  0  0  2  0  0  0  0  0  0
  188.6530  177.3380  143.8200 C   0  0  0  0  0  0  0  0  0  0  0  0
  190.6320  177.1170  142.2940 C   0  0  0  0  0  3  0  0  0  0  0  0
  188.3820  177.5660  141.3320 C   0  0  0  0  0  0  0  0  0  0  0  0
  186.8960  177.7090  141.5280 C   0  0  0  0  0  2  0  0  0  0  0  0
  191.4450  176.9320  143.3310 C   0  0  0  0  0  3  0  0  0  0  0  0
  185.1230  178.5310  143.0510 C   0  0  0  0  0  0  0  0  0  0  0  0
  182.1020  178.4920  140.7060 N   0  0  0  0  0  2  0  0  0  0  0  0
  184.2710  178.4430  141.9050 N   0  0  0  0  0  2  0  0  0  0  0  0
  184.6480  178.7690  144.1950 O   0  0  0  0  0  0  0  0  0  0  0  0
  182.8420  178.5570  141.9250 C   0  0  0  0  0  0  0  0  0  0  0  0
  182.2240  178.7100  143.0110 O   0  0  0  0  0  0  0  0  0  0  0  0
  182.7460  178.3620  139.4060 C   0  0  2  0  0  3  0  0  0  0  0  0
  181.2320  178.1800  137.4110 N   0  0  0  0  0  2  0  0  0  0  0  0
  181.3840  176.1400  138.9600 C   0  0  2  0  0  3  0  0  0  0  0  0
  182.8240  179.9880  138.6060 S   0  0  0  0  0  0  0  0  0  0  0  0
  181.9080  177.4940  138.4990 C   0  0  2  0  0  0  0  0  0  0  0  0
  182.6050  176.2330  138.0460 C   0  0  0  0  0  2  0  0  0  0  0  0
  182.0680  179.3260  137.0860 C   0  0  0  0  0  2  0  0  0  0  0  0
  180.2070  175.7360  138.1880 N   0  0  2  0  0  0  0  0  0  0  0  0
  181.0700  173.4190  138.0690 C   0  0  0  0  0  2  0  0  0  0  0  0
  178.9420  173.8640  138.9460 C   0  0  0  0  0  2  0  0  0  0  0  0
  179.6370  173.4440  137.7410 N   0  0  1  0  0  0  0  0  0  0  0  0
  179.1530  175.3480  139.1110 C   0  0  0  0  0  2  0  0  0  0  0  0
  180.5080  174.5690  137.3400 C   0  0  1  0  0  3  0  0  0  0  0  0
  186.3570  178.0880  137.4260 C   0  0  0  0  0  3  0  0  0  0  0  0
  187.1940  178.2730  136.3140 C   0  0  0  0  0  0  0  0  0  0  0  0
  189.1290  177.9900  137.7490 C   0  0  0  0  0  3  0  0  0  0  0  0
  186.9070  177.8550  138.6890 C   0  0  0  0  0  3  0  0  0  0  0  0
  188.3000  177.7960  138.8600 C   0  0  0  0  0  0  0  0  0  0  0  0
  188.5800  178.2240  136.4840 C   0  0  0  0  0  3  0  0  0  0  0  0
  186.6760  178.5060  135.0370 O   0  0  0  0  0  0  0  0  0  0  0  0
  185.4480  177.9450  134.5940 C   0  0  0  0  0  1  0  0  0  0  0  0
  1 14  2  0  0  0  0
  2  6  1  0  0  0  0
  2  7  1  0  0  0  0
  3 12  1  0  0  0  0
  4 17  1  1  0  0  0
  4 11  1  0  0  0  0
  5 16  1  1  0  0  0
  5  8  1  0  0  0  0
  5  9  1  0  0  0  0
  8 10  1  0  0  0  0
  9  2  2  0  0  0  0
 10  6  2  0  0  0  0
 12 11  1  0  0  0  0
 12  8  2  0  0  0  0
 13  3  1  0  0  0  0
 13 16  2  0  0  0  0
 14 15  1  0  0  0  0
 14  3  1  0  0  0  0
 15  4  1  0  0  0  0
 17 20  2  0  0  0  0
 18 21  1  0  0  0  0
 19 21  1  0  0  0  0
 19 17  1  0  0  0  0
 21 22  2  0  0  0  0
 23 18  1  1  0  0  0
 24 27  1  0  0  0  0
 25 28  1  6  0  0  0
 26 23  1  0  0  0  0
 27 28  1  6  0  0  0
 27 25  1  0  0  0  0
 27 23  1  0  0  0  0
 29 24  1  0  0  0  0
 29 26  1  0  0  0  0
 30 25  1  0  0  0  0
 30 34  1  1  0  0  0
 32 34  1  0  0  0  0
 33 31  1  1  0  0  0
 33 32  1  0  0  0  0
 35 33  1  0  0  0  0
 35 31  1  1  0  0  0
 35 30  1  0  0  0  0
 36 39  1  0  0  0  0
 37 41  1  0  0  0  0
 37 36  2  0  0  0  0
 38 40  1  0  0  0  0
 39 40  2  0  0  0  0
 40  1  1  0  0  0  0
 41 38  2  0  0  0  0
 42 37  1  0  0  0  0
 43 42  1  0  0  0  0
M  END
>  <MODEL>
5

>  <REMARK>
 VINA RESULT:      -8.3      2.849      5.543
  Name = 
  5 active torsions:
  status: ('A' for Active; 'I' for Inactive)
    1  A    between atoms: N_1  and  C_35
    2  A    between atoms: C_2  and  C_13
    3  A    between atoms: N_3  and  C_4
    4  A    between atoms: N_11  and  C_14
    5  A    between atoms: C_19  and  O_25
                            x       y       z     vdW  Elec       q    Type
                         _______ _______ _______ _____ _____    ______ ____

>  <TORSDO>
F 5

$$$$
=
 OpenBabel10262422183D

 43 50  0  0  1  0  0  0  0  0999 V2000
  188.5870  177.7740  140.9440 N   0  0  0  0  0  0  0  0  0  0  0  0
  193.9400  175.6710  136.3210 C   0  0  0  0  0  0  0  0  0  0  0  0
  189.9960  177.1470  139.1390 N   0  0  0  0  0  0  0  0  0  0  0  0
  187.6720  176.5940  137.5940 C   0  0  1  0  0  3  0  0  0  0  0  0
  192.5170  176.4090  138.1680 C   0  0  0  0  0  0  0  0  0  0  0  0
  192.9400  175.6890  135.4350 C   0  0  0  0  0  3  0  0  0  0  0  0
  195.2970  175.2530  135.8830 C   0  0  0  0  0  1  0  0  0  0  0  0
  191.3520  176.4430  137.2520 C   0  0  0  0  0  0  0  0  0  0  0  0
  193.7200  176.0480  137.7260 C   0  0  0  0  0  3  0  0  0  0  0  0
  191.5370  176.1030  135.7900 C   0  0  0  0  0  2  0  0  0  0  0  0
  188.9540  176.8730  136.8230 C   0  0  0  0  0  2  0  0  0  0  0  0
  190.1440  176.7900  137.7400 C   0  0  0  0  0  0  0  0  0  0  0  0
  191.1360  177.1200  140.0210 C   0  0  0  0  0  3  0  0  0  0  0  0
  188.7000  177.4870  139.6750 C   0  0  0  0  0  0  0  0  0  0  0  0
  187.5270  177.5860  138.7370 C   0  0  0  0  0  2  0  0  0  0  0  0
  192.3410  176.7720  139.5760 C   0  0  0  0  0  3  0  0  0  0  0  0
  186.4920  176.6650  136.6830 C   0  0  0  0  0  0  0  0  0  0  0  0
  182.7730  177.4280  137.1520 N   0  0  0  0  0  2  0  0  0  0  0  0
  185.2120  176.9960  137.2330 N   0  0  0  0  0  2  0  0  0  0  0  0
  186.6240  176.4200  135.4530 O   0  0  0  0  0  0  0  0  0  0  0  0
  183.9990  177.1330  136.4830 C   0  0  0  0  0  0  0  0  0  0  0  0
  183.9980  177.0020  135.2300 O   0  0  0  0  0  0  0  0  0  0  0  0
  182.6830  177.5490  138.6010 C   0  0  2  0  0  3  0  0  0  0  0  0
  180.4110  178.0390  139.5520 N   0  0  0  0  0  2  0  0  0  0  0  0
  181.6080  179.9490  138.3260 C   0  0  2  0  0  3  0  0  0  0  0  0
  182.1180  175.9760  139.3040 S   0  0  0  0  0  0  0  0  0  0  0  0
  181.6320  178.5680  138.9690 C   0  0  2  0  0  0  0  0  0  0  0  0
  182.1720  179.7530  139.7330 C   0  0  0  0  0  2  0  0  0  0  0  0
  180.7990  176.8160  140.2390 C   0  0  0  0  0  2  0  0  0  0  0  0
  180.2720  180.5450  138.3990 N   0  0  2  0  0  0  0  0  0  0  0  0
  181.1810  182.7020  137.5940 C   0  0  0  0  0  2  0  0  0  0  0  0
  179.4160  181.6470  136.4680 C   0  0  0  0  0  2  0  0  0  0  0  0
  179.7170  182.6790  137.4440 N   0  0  1  0  0  0  0  0  0  0  0  0
  179.5850  180.3070  137.1400 C   0  0  0  0  0  2  0  0  0  0  0  0
  180.3550  182.0030  138.5930 C   0  0  1  0  0  3  0  0  0  0  0  0
  185.3000  179.3080  141.9670 C   0  0  0  0  0  3  0  0  0  0  0  0
  185.1410  178.7470  143.2440 C   0  0  0  0  0  0  0  0  0  0  0  0
  187.2480  177.5770  142.9700 C   0  0  0  0  0  3  0  0  0  0  0  0
  186.4280  179.0030  141.2010 C   0  0  0  0  0  3  0  0  0  0  0  0
  187.4170  178.1390  141.7000 C   0  0  0  0  0  0  0  0  0  0  0  0
  186.1200  177.8800  143.7380 C   0  0  0  0  0  3  0  0  0  0  0  0
  184.0270  179.0340  144.0370 O   0  0  0  0  0  0  0  0  0  0  0  0
  182.6980  179.0030  143.5330 C   0  0  0  0  0  1  0  0  0  0  0  0
  1 40  1  0  0  0  0
  2  9  1  0  0  0  0
  3 14  1  0  0  0  0
  3 13  1  0  0  0  0
  4 17  1  6  0  0  0
  4 15  1  0  0  0  0
  5 16  1  0  0  0  0
  6 10  1  0  0  0  0
  6  2  2  0  0  0  0
  7  2  1  0  0  0  0
  8 12  2  0  0  0  0
  8  5  1  0  0  0  0
  9  5  2  0  0  0  0
 10  8  1  0  0  0  0
 11  4  1  0  0  0  0
 11 12  1  0  0  0  0
 12  3  1  0  0  0  0
 14  1  2  0  0  0  0
 15 14  1  0  0  0  0
 16 13  2  0  0  0  0
 17 19  1  0  0  0  0
 20 17  2  0  0  0  0
 21 18  1  0  0  0  0
 21 19  1  0  0  0  0
 22 21  2  0  0  0  0
 23 18  1  6  0  0  0
 23 27  1  0  0  0  0
 23 26  1  0  0  0  0
 24 29  1  0  0  0  0
 25 30  1  0  0  0  0
 25 27  1  0  0  0  0
 25 28  1  1  0  0  0
 26 29  1  0  0  0  0
 27 24  1  0  0  0  0
 27 28  1  1  0  0  0
 30 34  1  6  0  0  0
 30 35  1  0  0  0  0
 32 34  1  0  0  0  0
 33 32  1  6  0  0  0
 33 31  1  0  0  0  0
 33 35  1  0  0  0  0
 35 31  1  6  0  0  0
 36 37  1  0  0  0  0
 37 41  2  0  0  0  0
 37 42  1  0  0  0  0
 38 41  1  0  0  0  0
 39 40  1  0  0  0  0
 39 36  2  0  0  0  0
 40 38  2  0  0  0  0
 43 42  1  0  0  0  0
M  END
>  <MODEL>
6

>  <REMARK>
 VINA RESULT:      -8.2      3.598      6.592
  Name = 
  5 active torsions:
  status: ('A' for Active; 'I' for Inactive)
    1  A    between atoms: N_1  and  C_35
    2  A    between atoms: C_2  and  C_13
    3  A    between atoms: N_3  and  C_4
    4  A    between atoms: N_11  and  C_14
    5  A    between atoms: C_19  and  O_25
                            x       y       z     vdW  Elec       q    Type
                         _______ _______ _______ _____ _____    ______ ____

>  <TORSDO>
F 5

$$$$
=
 OpenBabel10262422183D

 43 50  0  0  1  0  0  0  0  0999 V2000
  191.6540  176.1770  139.5380 N   0  0  0  0  0  0  0  0  0  0  0  0
  187.4310  177.9240  145.3310 C   0  0  0  0  0  0  0  0  0  0  0  0
  189.9640  176.7630  141.0990 N   0  0  0  0  0  0  0  0  0  0  0  0
  188.4010  177.7670  138.9440 C   0  0  1  0  0  3  0  0  0  0  0  0
  189.1510  177.2280  143.7380 C   0  0  0  0  0  0  0  0  0  0  0  0
  186.5150  178.1240  144.3800 C   0  0  0  0  0  3  0  0  0  0  0  0
  187.0790  178.1880  146.7510 C   0  0  0  0  0  1  0  0  0  0  0  0
  188.1980  177.4370  142.6230 C   0  0  0  0  0  0  0  0  0  0  0  0
  188.7860  177.4570  144.9980 C   0  0  0  0  0  3  0  0  0  0  0  0
  186.7810  177.8770  142.9180 C   0  0  0  0  0  2  0  0  0  0  0  0
  187.6510  177.3830  140.2110 C   0  0  0  0  0  2  0  0  0  0  0  0
  188.6110  177.2180  141.3580 C   0  0  0  0  0  0  0  0  0  0  0  0
  190.8820  176.5530  142.1910 C   0  0  0  0  0  3  0  0  0  0  0  0
  190.4220  176.5580  139.7460 C   0  0  0  0  0  0  0  0  0  0  0  0
  189.4400  176.7060  138.6140 C   0  0  0  0  0  2  0  0  0  0  0  0
  190.5120  176.7690  143.4510 C   0  0  0  0  0  3  0  0  0  0  0  0
  187.4490  177.9420  137.8080 C   0  0  0  0  0  0  0  0  0  0  0  0
  185.4660  175.5580  135.5680 N   0  0  0  0  0  2  0  0  0  0  0  0
  186.8810  176.7790  137.1970 N   0  0  0  0  0  2  0  0  0  0  0  0
  187.1670  179.0970  137.3890 O   0  0  0  0  0  0  0  0  0  0  0  0
  185.9310  176.7880  136.1230 C   0  0  0  0  0  0  0  0  0  0  0  0
  185.4920  177.8740  135.6620 O   0  0  0  0  0  0  0  0  0  0  0  0
  185.9590  174.2620  136.0160 C   0  0  2  0  0  3  0  0  0  0  0  0
  184.9990  172.2380  134.8810 N   0  0  0  0  0  2  0  0  0  0  0  0
  183.4780  173.4990  136.5180 C   0  0  2  0  0  3  0  0  0  0  0  0
  187.2620  173.6910  134.8910 S   0  0  0  0  0  0  0  0  0  0  0  0
  184.8580  173.2330  135.9310 C   0  0  2  0  0  0  0  0  0  0  0  0
  184.4860  172.6240  137.2610 C   0  0  0  0  0  2  0  0  0  0  0  0
  186.4320  172.0840  134.6740 C   0  0  0  0  0  2  0  0  0  0  0  0
  182.4600  172.6610  135.8800 N   0  0  2  0  0  0  0  0  0  0  0  0
  180.8050  173.3610  137.5830 C   0  0  0  0  0  2  0  0  0  0  0  0
  180.3750  173.6570  135.2980 C   0  0  0  0  0  2  0  0  0  0  0  0
  180.1210  172.7720  136.4220 N   0  0  1  0  0  0  0  0  0  0  0  0
  181.7960  173.4380  134.8450 C   0  0  0  0  0  2  0  0  0  0  0  0
  181.4330  172.2470  136.8520 C   0  0  1  0  0  3  0  0  0  0  0  0
  193.9750  176.4380  136.5800 C   0  0  0  0  0  3  0  0  0  0  0  0
  193.6320  175.2710  135.8800 C   0  0  0  0  0  0  0  0  0  0  0  0
  192.0010  174.7450  137.5970 C   0  0  0  0  0  3  0  0  0  0  0  0
  193.3330  176.7530  137.7800 C   0  0  0  0  0  3  0  0  0  0  0  0
  192.3330  175.9120  138.2960 C   0  0  0  0  0  0  0  0  0  0  0  0
  192.6440  174.4280  136.3970 C   0  0  0  0  0  3  0  0  0  0  0  0
  194.2530  174.9280  134.6760 O   0  0  0  0  0  0  0  0  0  0  0  0
  195.6310  174.5900  134.5940 C   0  0  0  0  0  1  0  0  0  0  0  0
  1 14  2  0  0  0  0
  2  7  1  0  0  0  0
  3 12  1  0  0  0  0
  3 13  1  0  0  0  0
  4 17  1  6  0  0  0
  4 11  1  0  0  0  0
  5  9  2  0  0  0  0
  6  2  2  0  0  0  0
  8 10  1  0  0  0  0
  8  5  1  0  0  0  0
  9  2  1  0  0  0  0
 10  6  1  0  0  0  0
 11 12  1  0  0  0  0
 12  8  2  0  0  0  0
 13 16  2  0  0  0  0
 14  3  1  0  0  0  0
 15  4  1  0  0  0  0
 15 14  1  0  0  0  0
 16  5  1  0  0  0  0
 18 21  1  0  0  0  0
 19 17  1  0  0  0  0
 20 17  2  0  0  0  0
 21 19  1  0  0  0  0
 22 21  2  0  0  0  0
 23 18  1  6  0  0  0
 24 27  1  0  0  0  0
 25 28  1  1  0  0  0
 26 23  1  0  0  0  0
 27 23  1  0  0  0  0
 27 25  1  0  0  0  0
 27 28  1  1  0  0  0
 29 24  1  0  0  0  0
 29 26  1  0  0  0  0
 30 34  1  6  0  0  0
 30 25  1  0  0  0  0
 30 35  1  0  0  0  0
 33 32  1  6  0  0  0
 33 35  1  0  0  0  0
 33 31  1  0  0  0  0
 34 32  1  0  0  0  0
 35 31  1  1  0  0  0
 36 39  1  0  0  0  0
 37 41  1  0  0  0  0
 37 36  2  0  0  0  0
 38 40  1  0  0  0  0
 39 40  2  0  0  0  0
 40  1  1  0  0  0  0
 41 38  2  0  0  0  0
 42 37  1  0  0  0  0
 43 42  1  0  0  0  0
M  END
>  <MODEL>
7

>  <REMARK>
 VINA RESULT:      -8.1      3.288      6.844
  Name = 
  5 active torsions:
  status: ('A' for Active; 'I' for Inactive)
    1  A    between atoms: N_1  and  C_35
    2  A    between atoms: C_2  and  C_13
    3  A    between atoms: N_3  and  C_4
    4  A    between atoms: N_11  and  C_14
    5  A    between atoms: C_19  and  O_25
                            x       y       z     vdW  Elec       q    Type
                         _______ _______ _______ _____ _____    ______ ____

>  <TORSDO>
F 5

$$$$
=
 OpenBabel10262422183D

 43 50  0  0  1  0  0  0  0  0999 V2000
  184.3610  178.3970  141.8150 N   0  0  0  0  0  0  0  0  0  0  0  0
  190.2180  177.1180  146.1180 C   0  0  0  0  0  0  0  0  0  0  0  0
  186.4840  178.1110  142.8400 N   0  0  0  0  0  0  0  0  0  0  0  0
  187.6530  177.9820  140.2500 C   0  0  1  0  0  3  0  0  0  0  0  0
  188.0310  177.5030  145.0940 C   0  0  0  0  0  0  0  0  0  0  0  0
  190.8820  177.3580  144.9840 C   0  0  0  0  0  3  0  0  0  0  0  0
  190.9740  176.7510  147.3440 C   0  0  0  0  0  1  0  0  0  0  0  0
  188.6900  177.7710  143.7940 C   0  0  0  0  0  0  0  0  0  0  0  0
  188.7500  177.1990  146.1720 C   0  0  0  0  0  3  0  0  0  0  0  0
  190.2000  177.7400  143.6970 C   0  0  0  0  0  2  0  0  0  0  0  0
  188.5750  178.3690  141.3970 C   0  0  0  0  0  2  0  0  0  0  0  0
  187.9290  178.0520  142.7180 C   0  0  0  0  0  0  0  0  0  0  0  0
  185.8510  177.8580  144.1100 C   0  0  0  0  0  3  0  0  0  0  0  0
  185.6610  178.3790  141.6850 C   0  0  0  0  0  0  0  0  0  0  0  0
  186.3270  178.7160  140.3780 C   0  0  0  0  0  2  0  0  0  0  0  0
  186.5710  177.5680  145.1920 C   0  0  0  0  0  3  0  0  0  0  0  0
  188.2980  178.2850  138.9380 C   0  0  0  0  0  0  0  0  0  0  0  0
  187.5090  177.4370  135.2920 N   0  0  0  0  0  2  0  0  0  0  0  0
  187.6940  177.7870  137.7390 N   0  0  0  0  0  2  0  0  0  0  0  0
  189.3640  178.9560  138.8960 O   0  0  0  0  0  0  0  0  0  0  0  0
  188.1760  178.0230  136.4100 C   0  0  0  0  0  0  0  0  0  0  0  0
  189.1850  178.7500  136.2110 O   0  0  0  0  0  0  0  0  0  0  0  0
  186.3650  176.5480  135.4430 C   0  0  2  0  0  3  0  0  0  0  0  0
  186.4710  174.8840  137.3210 N   0  0  0  0  0  2  0  0  0  0  0  0
  187.9780  174.4580  135.2880 C   0  0  2  0  0  3  0  0  0  0  0  0
  185.2530  177.2050  136.7160 S   0  0  0  0  0  0  0  0  0  0  0  0
  186.8220  175.2000  135.9470 C   0  0  2  0  0  0  0  0  0  0  0  0
  186.5310  174.0620  134.9980 C   0  0  0  0  0  2  0  0  0  0  0  0
  185.2350  175.6050  137.5890 C   0  0  0  0  0  2  0  0  0  0  0  0
  188.5860  173.4980  136.2120 N   0  0  2  0  0  0  0  0  0  0  0  0
  190.4130  173.0860  134.5940 C   0  0  0  0  0  2  0  0  0  0  0  0
  190.8820  173.7750  136.7840 C   0  0  0  0  0  2  0  0  0  0  0  0
  190.7990  172.6040  135.9280 N   0  0  1  0  0  0  0  0  0  0  0  0
  189.4770  174.2140  137.1110 C   0  0  0  0  0  2  0  0  0  0  0  0
  189.3930  172.5040  135.4830 C   0  0  1  0  0  3  0  0  0  0  0  0
  182.6000  179.4310  138.6480 C   0  0  0  0  0  3  0  0  0  0  0  0
  181.2900  179.0160  138.9340 C   0  0  0  0  0  0  0  0  0  0  0  0
  182.0390  178.2170  141.0990 C   0  0  0  0  0  3  0  0  0  0  0  0
  183.6190  179.2400  139.5840 C   0  0  0  0  0  3  0  0  0  0  0  0
  183.3450  178.6370  140.8240 C   0  0  0  0  0  0  0  0  0  0  0  0
  181.0180  178.4070  140.1630 C   0  0  0  0  0  3  0  0  0  0  0  0
  180.2480  179.1940  138.0210 O   0  0  0  0  0  0  0  0  0  0  0  0
  180.4390  179.7950  136.7470 C   0  0  0  0  0  1  0  0  0  0  0  0
  2  9  1  0  0  0  0
  2  7  1  0  0  0  0
  3 13  1  0  0  0  0
  4 17  1  6  0  0  0
  4 15  1  0  0  0  0
  4 11  1  0  0  0  0
  5 16  1  0  0  0  0
  5  9  2  0  0  0  0
  6  2  2  0  0  0  0
  8  5  1  0  0  0  0
 10  8  1  0  0  0  0
 10  6  1  0  0  0  0
 11 12  1  0  0  0  0
 12  3  1  0  0  0  0
 12  8  2  0  0  0  0
 13 16  2  0  0  0  0
 14  1  2  0  0  0  0
 14  3  1  0  0  0  0
 15 14  1  0  0  0  0
 18 21  1  0  0  0  0
 19 17  1  0  0  0  0
 20 17  2  0  0  0  0
 21 19  1  0  0  0  0
 22 21  2  0  0  0  0
 23 18  1  1  0  0  0
 23 27  1  0  0  0  0
 23 26  1  0  0  0  0
 24 29  1  0  0  0  0
 25 28  1  6  0  0  0
 25 27  1  0  0  0  0
 25 30  1  0  0  0  0
 26 29  1  0  0  0  0
 27 28  1  6  0  0  0
 27 24  1  0  0  0  0
 30 34  1  1  0  0  0
 32 34  1  0  0  0  0
 33 31  1  6  0  0  0
 33 32  1  0  0  0  0
 35 31  1  6  0  0  0
 35 33  1  0  0  0  0
 35 30  1  0  0  0  0
 36 37  2  0  0  0  0
 36 39  1  0  0  0  0
 37 41  1  0  0  0  0
 39 40  2  0  0  0  0
 40 38  1  0  0  0  0
 40  1  1  0  0  0  0
 41 38  2  0  0  0  0
 42 37  1  0  0  0  0
 43 42  1  0  0  0  0
M  END
>  <MODEL>
8

>  <REMARK>
 VINA RESULT:      -8.1      1.993      3.610
  Name = 
  5 active torsions:
  status: ('A' for Active; 'I' for Inactive)
    1  A    between atoms: N_1  and  C_35
    2  A    between atoms: C_2  and  C_13
    3  A    between atoms: N_3  and  C_4
    4  A    between atoms: N_11  and  C_14
    5  A    between atoms: C_19  and  O_25
                            x       y       z     vdW  Elec       q    Type
                         _______ _______ _______ _____ _____    ______ ____

>  <TORSDO>
F 5

$$$$
=
 OpenBabel10262422183D

 43 50  0  0  1  0  0  0  0  0999 V2000
  184.3210  178.7490  141.5740 N   0  0  0  0  0  0  0  0  0  0  0  0
  190.5680  177.1050  145.1420 C   0  0  0  0  0  0  0  0  0  0  0  0
  186.5260  178.2810  142.3220 N   0  0  0  0  0  0  0  0  0  0  0  0
  187.2690  177.7650  139.6240 C   0  0  1  0  0  3  0  0  0  0  0  0
  188.3120  177.6800  144.3940 C   0  0  0  0  0  0  0  0  0  0  0  0
  191.0780  177.1520  143.9080 C   0  0  0  0  0  3  0  0  0  0  0  0
  191.4520  176.7550  146.2850 C   0  0  0  0  0  1  0  0  0  0  0  0
  188.7960  177.7410  142.9940 C   0  0  0  0  0  0  0  0  0  0  0  0
  189.1450  177.3830  145.3890 C   0  0  0  0  0  3  0  0  0  0  0  0
  190.2590  177.5020  142.6940 C   0  0  0  0  0  2  0  0  0  0  0  0
  188.3910  178.1290  140.5850 C   0  0  0  0  0  2  0  0  0  0  0  0
  187.9190  178.0210  142.0090 C   0  0  0  0  0  0  0  0  0  0  0  0
  186.0660  178.2290  143.6870 C   0  0  0  0  0  3  0  0  0  0  0  0
  185.5760  178.5490  141.2690 C   0  0  0  0  0  0  0  0  0  0  0  0
  186.0730  178.6760  139.8540 C   0  0  0  0  0  2  0  0  0  0  0  0
  186.9010  177.9460  144.6840 C   0  0  0  0  0  3  0  0  0  0  0  0
  187.7400  177.8600  138.2120 C   0  0  0  0  0  0  0  0  0  0  0  0
  188.8250  175.3260  135.5590 N   0  0  0  0  0  2  0  0  0  0  0  0
  188.0620  176.6570  137.5070 N   0  0  0  0  0  2  0  0  0  0  0  0
  187.8650  178.9870  137.6600 O   0  0  0  0  0  0  0  0  0  0  0  0
  188.4930  176.5870  136.1420 C   0  0  0  0  0  0  0  0  0  0  0  0
  188.5800  177.6290  135.4400 O   0  0  0  0  0  0  0  0  0  0  0  0
  188.7950  174.0830  136.3180 C   0  0  2  0  0  3  0  0  0  0  0  0
  187.2810  172.2740  135.4560 N   0  0  0  0  0  2  0  0  0  0  0  0
  186.1710  174.3050  136.5630 C   0  0  2  0  0  3  0  0  0  0  0  0
  189.9010  172.8740  135.5410 S   0  0  0  0  0  0  0  0  0  0  0  0
  187.4130  173.4770  136.2600 C   0  0  2  0  0  0  0  0  0  0  0  0
  186.7450  173.3490  137.6080 C   0  0  0  0  0  2  0  0  0  0  0  0
  188.5800  171.6190  135.5080 C   0  0  0  0  0  2  0  0  0  0  0  0
  184.9790  173.7180  135.9450 N   0  0  2  0  0  0  0  0  0  0  0  0
  183.5840  175.5260  136.9020 C   0  0  0  0  0  2  0  0  0  0  0  0
  183.5990  175.1150  134.5940 C   0  0  0  0  0  2  0  0  0  0  0  0
  182.8610  174.8470  135.8160 N   0  0  1  0  0  0  0  0  0  0  0  0
  184.8380  174.2540  134.6010 C   0  0  0  0  0  2  0  0  0  0  0  0
  183.7650  174.0790  136.6980 C   0  0  1  0  0  3  0  0  0  0  0  0
  182.2150  179.9840  138.7040 C   0  0  0  0  0  3  0  0  0  0  0  0
  180.9570  179.4820  139.0730 C   0  0  0  0  0  0  0  0  0  0  0  0
  181.9490  178.5250  141.0690 C   0  0  0  0  0  3  0  0  0  0  0  0
  183.3290  179.7570  139.5160 C   0  0  0  0  0  3  0  0  0  0  0  0
  183.2030  179.0310  140.7120 C   0  0  0  0  0  0  0  0  0  0  0  0
  180.8330  178.7510  140.2580 C   0  0  0  0  0  3  0  0  0  0  0  0
  179.8230  179.6930  138.2850 O   0  0  0  0  0  0  0  0  0  0  0  0
  179.8700  180.3830  137.0430 C   0  0  0  0  0  1  0  0  0  0  0  0
  2  9  1  0  0  0  0
  2  7  1  0  0  0  0
  3 13  1  0  0  0  0
  4 17  1  6  0  0  0
  4 15  1  0  0  0  0
  4 11  1  0  0  0  0
  5 16  1  0  0  0  0
  5  9  2  0  0  0  0
  6  2  2  0  0  0  0
  8  5  1  0  0  0  0
 10  8  1  0  0  0  0
 10  6  1  0  0  0  0
 11 12  1  0  0  0  0
 12  3  1  0  0  0  0
 12  8  2  0  0  0  0
 13 16  2  0  0  0  0
 14  1  2  0  0  0  0
 14  3  1  0  0  0  0
 15 14  1  0  0  0  0
 18 21  1  0  0  0  0
 19 17  1  0  0  0  0
 20 17  2  0  0  0  0
 21 19  1  0  0  0  0
 22 21  2  0  0  0  0
 23 18  1  6  0  0  0
 24 29  1  0  0  0  0
 24 27  1  0  0  0  0
 25 28  1  1  0  0  0
 26 23  1  0  0  0  0
 27 23  1  0  0  0  0
 27 25  1  0  0  0  0
 27 28  1  1  0  0  0
 29 26  1  0  0  0  0
 30 34  1  6  0  0  0
 30 25  1  0  0  0  0
 30 35  1  0  0  0  0
 32 34  1  0  0  0  0
 33 32  1  6  0  0  0
 33 35  1  0  0  0  0
 33 31  1  0  0  0  0
 35 31  1  1  0  0  0
 36 37  2  0  0  0  0
 36 39  1  0  0  0  0
 37 41  1  0  0  0  0
 39 40  2  0  0  0  0
 40 38  1  0  0  0  0
 40  1  1  0  0  0  0
 41 38  2  0  0  0  0
 42 37  1  0  0  0  0
 43 42  1  0  0  0  0
M  END
>  <MODEL>
9

>  <REMARK>
 VINA RESULT:      -8.0      1.562      2.119
  Name = 
  5 active torsions:
  status: ('A' for Active; 'I' for Inactive)
    1  A    between atoms: N_1  and  C_35
    2  A    between atoms: C_2  and  C_13
    3  A    between atoms: N_3  and  C_4
    4  A    between atoms: N_11  and  C_14
    5  A    between atoms: C_19  and  O_25
                            x       y       z     vdW  Elec       q    Type
                         _______ _______ _______ _____ _____    ______ ____

>  <TORSDO>
F 5

$$$$
