=
 OpenBabel10262421583D

 30 32  0  0  1  0  0  0  0  0999 V2000
  188.1370  178.6070  141.2290 N   0  0  0  0  0  2  0  0  0  0  0  0
  186.2610  178.4470  139.6570 C   0  0  0  0  0  0  0  0  0  0  0  0
  189.4810  178.2800  141.6940 C   0  0  2  0  0  3  0  0  0  0  0  0
  185.7410  178.0430  138.4240 C   0  0  0  0  0  3  0  0  0  0  0  0
  185.2000  179.2460  140.8040 Cl  0  0  0  0  0  0  0  0  0  0  0  0
  189.8350  177.3480  139.3290 N   0  0  0  0  0  0  0  0  0  0  0  0
  186.5610  177.4080  137.4920 C   0  0  0  0  0  3  0  0  0  0  0  0
  187.6110  178.2070  139.9620 C   0  0  0  0  0  0  0  0  0  0  0  0
  190.3710  177.7280  140.6090 C   0  0  0  0  0  0  0  0  0  0  0  0
  191.6090  177.6280  140.8310 O   0  0  0  0  0  0  0  0  0  0  0  0
  187.9050  177.1750  137.7890 C   0  0  0  0  0  3  0  0  0  0  0  0
  188.4440  177.5710  139.0250 C   0  0  0  0  0  0  0  0  0  0  0  0
  190.7380  176.8200  138.3050 C   0  0  0  0  0  2  0  0  0  0  0  0
  190.8590  175.3080  138.4160 C   0  0  0  0  0  2  0  0  0  0  0  0
  190.6260  174.6620  137.0660 C   0  0  0  0  0  1  0  0  0  0  0  0
  189.4290  177.4560  142.9960 C   0  0  1  0  0  3  0  0  0  0  0  0
  190.9400  179.3090  143.9440 C   0  0  0  0  0  1  0  0  0  0  0  0
  190.1780  178.0190  144.2200 C   0  0  2  0  0  3  0  0  0  0  0  0
  191.1470  177.0930  146.3600 N   0  0  0  0  0  2  0  0  0  0  0  0
  191.5370  176.0420  144.3110 O   0  0  0  0  0  0  0  0  0  0  0  0
  191.0000  176.9950  144.9420 C   0  0  0  0  0  0  0  0  0  0  0  0
  192.4880  175.3290  147.7360 C   0  0  0  0  0  3  0  0  0  0  0  0
  191.8680  176.1440  147.1000 C   0  0  0  0  0  0  0  0  0  0  0  0
  188.0060  177.0410  143.3530 C   0  0  0  0  0  2  0  0  0  0  0  0
  186.4390  177.2730  145.2440 C   0  0  1  0  0  3  0  0  0  0  0  0
  185.9060  178.1110  144.0960 C   0  0  0  0  0  2  0  0  0  0  0  0
  187.3960  178.0210  144.3360 C   0  0  2  0  0  3  0  0  0  0  0  0
  185.0400  178.4810  146.9280 O   0  0  0  0  0  0  0  0  0  0  0  0
  186.2860  178.0120  146.5320 C   0  0  0  0  0  0  0  0  0  0  0  0
  187.2820  178.1770  147.2860 O   0  0  0  0  0  1  0  0  0  0  0  0
  1  3  1  0  0  0  0
  2  8  1  0  0  0  0
  2  5  1  0  0  0  0
  3 16  1  1  0  0  0
  4  2  2  0  0  0  0
  6  9  1  0  0  0  0
  7 11  2  0  0  0  0
  7  4  1  0  0  0  0
  8  1  1  0  0  0  0
  9 10  2  0  0  0  0
  9  3  1  0  0  0  0
 11 12  1  0  0  0  0
 12  6  1  0  0  0  0
 12  8  2  0  0  0  0
 13 14  1  0  0  0  0
 13  6  1  0  0  0  0
 15 14  1  0  0  0  0
 16 24  1  1  0  0  0
 16 18  1  0  0  0  0
 18 17  1  6  0  0  0
 18 21  1  0  0  0  0
 19 23  1  0  0  0  0
 20 21  2  0  0  0  0
 21 19  1  0  0  0  0
 23 22  3  0  0  0  0
 25 29  1  1  0  0  0
 26 27  1  0  0  0  0
 26 25  1  0  0  0  0
 27 24  1  6  0  0  0
 27 25  1  0  0  0  0
 29 28  2  0  0  0  0
 29 30  1  0  0  0  0
M  END
>  <MODEL>
1

>  <REMARK>
 VINA RESULT:      -7.7      0.000      0.000
  Name = 
  9 active torsions:
  status: ('A' for Active; 'I' for Inactive)
    1  A    between atoms: C_3  and  C_11
    2  A    between atoms: C_3  and  N_19
    3  A    between atoms: C_4  and  C_13
    4  A    between atoms: N_5  and  C_21
    5  A    between atoms: C_7  and  C_15
    6  A    between atoms: C_8  and  C_12
    7  A    between atoms: C_8  and  C_13
    8  A    between atoms: C_13  and  C_27
    9  A    between atoms: C_27  and  C_30
                            x       y       z     vdW  Elec       q    Type
                         _______ _______ _______ _____ _____    ______ ____

>  <TORSDO>
F 9

$$$$
=
 OpenBabel10262421583D

 30 32  0  0  1  0  0  0  0  0999 V2000
  186.8660  177.4770  142.9780 N   0  0  0  0  0  2  0  0  0  0  0  0
  184.6840  178.5400  142.6190 C   0  0  0  0  0  0  0  0  0  0  0  0
  188.0230  177.1160  143.7900 C   0  0  2  0  0  3  0  0  0  0  0  0
  183.5410  179.1660  143.1220 C   0  0  0  0  0  3  0  0  0  0  0  0
  184.8360  178.3190  140.8840 Cl  0  0  0  0  0  0  0  0  0  0  0  0
  186.5660  177.8130  145.7840 N   0  0  0  0  0  0  0  0  0  0  0  0
  183.3920  179.3530  144.4970 C   0  0  0  0  0  3  0  0  0  0  0  0
  185.6900  178.1030  143.4960 C   0  0  0  0  0  0  0  0  0  0  0  0
  187.7620  177.2000  145.2730 C   0  0  0  0  0  0  0  0  0  0  0  0
  188.6020  176.6950  146.0670 O   0  0  0  0  0  0  0  0  0  0  0  0
  184.3870  178.9130  145.3720 C   0  0  0  0  0  3  0  0  0  0  0  0
  185.5440  178.2850  144.8830 C   0  0  0  0  0  0  0  0  0  0  0  0
  186.3540  177.8690  147.2310 C   0  0  0  0  0  2  0  0  0  0  0  0
  187.2920  178.8760  147.8790 C   0  0  0  0  0  2  0  0  0  0  0  0
  188.2060  178.1820  148.8670 C   0  0  0  0  0  1  0  0  0  0  0  0
  189.2910  177.8400  143.2950 C   0  0  1  0  0  3  0  0  0  0  0  0
  190.5110  175.6370  142.7720 C   0  0  0  0  0  1  0  0  0  0  0  0
  190.6150  177.0520  143.3280 C   0  0  2  0  0  3  0  0  0  0  0  0
  191.4290  175.9190  145.4330 N   0  0  0  0  0  2  0  0  0  0  0  0
  191.8170  178.1930  145.0650 O   0  0  0  0  0  0  0  0  0  0  0  0
  191.3140  177.1110  144.6530 C   0  0  0  0  0  0  0  0  0  0  0  0
  192.6910  175.8790  147.7160 C   0  0  0  0  0  3  0  0  0  0  0  0
  192.1080  175.8980  146.6610 C   0  0  0  0  0  0  0  0  0  0  0  0
  189.0740  178.5130  141.9450 C   0  0  0  0  0  2  0  0  0  0  0  0
  189.7760  178.0460  139.6250 C   0  0  1  0  0  3  0  0  0  0  0  0
  188.2590  178.0190  139.6640 C   0  0  0  0  0  2  0  0  0  0  0  0
  189.0530  177.4810  140.8330 C   0  0  2  0  0  3  0  0  0  0  0  0
  190.3570  177.0720  137.3970 O   0  0  0  0  0  0  0  0  0  0  0  0
  190.2880  176.9290  138.7780 C   0  0  0  0  0  0  0  0  0  0  0  0
  190.6970  175.8660  139.3160 O   0  0  0  0  0  1  0  0  0  0  0  0
  1  8  1  0  0  0  0
  1  3  1  0  0  0  0
  2  4  2  0  0  0  0
  2  8  1  0  0  0  0
  3 16  1  6  0  0  0
  3  9  1  0  0  0  0
  4  7  1  0  0  0  0
  5  2  1  0  0  0  0
  6 13  1  0  0  0  0
  7 11  2  0  0  0  0
  8 12  2  0  0  0  0
  9  6  1  0  0  0  0
  9 10  2  0  0  0  0
 12 11  1  0  0  0  0
 12  6  1  0  0  0  0
 13 14  1  0  0  0  0
 14 15  1  0  0  0  0
 16 24  1  6  0  0  0
 16 18  1  0  0  0  0
 18 17  1  1  0  0  0
 18 21  1  0  0  0  0
 19 23  1  0  0  0  0
 21 20  2  0  0  0  0
 21 19  1  0  0  0  0
 23 22  3  0  0  0  0
 25 29  1  6  0  0  0
 25 26  1  0  0  0  0
 25 27  1  0  0  0  0
 26 27  1  0  0  0  0
 27 24  1  1  0  0  0
 28 29  2  0  0  0  0
 29 30  1  0  0  0  0
M  END
>  <MODEL>
2

>  <REMARK>
 VINA RESULT:      -7.1      1.970      6.149
  Name = 
  9 active torsions:
  status: ('A' for Active; 'I' for Inactive)
    1  A    between atoms: C_3  and  C_11
    2  A    between atoms: C_3  and  N_19
    3  A    between atoms: C_4  and  C_13
    4  A    between atoms: N_5  and  C_21
    5  A    between atoms: C_7  and  C_15
    6  A    between atoms: C_8  and  C_12
    7  A    between atoms: C_8  and  C_13
    8  A    between atoms: C_13  and  C_27
    9  A    between atoms: C_27  and  C_30
                            x       y       z     vdW  Elec       q    Type
                         _______ _______ _______ _____ _____    ______ ____

>  <TORSDO>
F 9

$$$$
=
 OpenBabel10262421583D

 30 32  0  0  1  0  0  0  0  0999 V2000
  189.4730  178.1930  141.9250 N   0  0  0  0  0  2  0  0  0  0  0  0
  189.9300  177.6760  144.2790 C   0  0  0  0  0  0  0  0  0  0  0  0
  188.6040  178.3030  140.7590 C   0  0  2  0  0  3  0  0  0  0  0  0
  189.4770  177.3730  145.5650 C   0  0  0  0  0  3  0  0  0  0  0  0
  191.6590  177.7640  143.9880 Cl  0  0  0  0  0  0  0  0  0  0  0  0
  186.6810  178.0840  142.4450 N   0  0  0  0  0  0  0  0  0  0  0  0
  188.1080  177.2980  145.8280 C   0  0  0  0  0  3  0  0  0  0  0  0
  189.0070  177.8990  143.2440 C   0  0  0  0  0  0  0  0  0  0  0  0
  187.1380  178.3610  141.1090 C   0  0  0  0  0  0  0  0  0  0  0  0
  186.3120  178.6860  140.2130 O   0  0  0  0  0  0  0  0  0  0  0  0
  187.1890  177.5280  144.8020 C   0  0  0  0  0  3  0  0  0  0  0  0
  187.6270  177.8290  143.5020 C   0  0  0  0  0  0  0  0  0  0  0  0
  185.2490  178.1550  142.7390 C   0  0  0  0  0  2  0  0  0  0  0  0
  184.8790  179.5150  143.3100 C   0  0  0  0  0  2  0  0  0  0  0  0
  183.7680  179.3720  144.3290 C   0  0  0  0  0  1  0  0  0  0  0  0
  188.9910  177.2670  139.6830 C   0  0  1  0  0  3  0  0  0  0  0  0
  188.8740  179.1870  137.9760 C   0  0  0  0  0  1  0  0  0  0  0  0
  188.8230  177.6820  138.2090 C   0  0  2  0  0  3  0  0  0  0  0  0
  186.6630  177.8370  136.9100 N   0  0  0  0  0  2  0  0  0  0  0  0
  187.5750  175.7640  137.4820 O   0  0  0  0  0  0  0  0  0  0  0  0
  187.6610  177.0230  137.5290 C   0  0  0  0  0  0  0  0  0  0  0  0
  184.6390  176.8050  135.6300 C   0  0  0  0  0  3  0  0  0  0  0  0
  185.5740  177.2820  136.2220 C   0  0  0  0  0  0  0  0  0  0  0  0
  190.3660  176.6630  139.9420 C   0  0  0  0  0  2  0  0  0  0  0  0
  192.3090  175.9760  138.5860 C   0  0  1  0  0  3  0  0  0  0  0  0
  192.7480  177.1260  139.4720 C   0  0  0  0  0  2  0  0  0  0  0  0
  191.3540  177.1150  138.8850 C   0  0  2  0  0  3  0  0  0  0  0  0
  194.2500  176.1490  137.0190 O   0  0  0  0  0  1  0  0  0  0  0  0
  192.8740  176.1400  137.2130 C   0  0  0  0  0  0  0  0  0  0  0  0
  192.1040  176.2310  136.2210 O   0  0  0  0  0  0  0  0  0  0  0  0
  1  8  1  0  0  0  0
  2  4  1  0  0  0  0
  3 16  1  6  0  0  0
  3  9  1  0  0  0  0
  3  1  1  0  0  0  0
  4  7  2  0  0  0  0
  5  2  1  0  0  0  0
  6 13  1  0  0  0  0
  6 12  1  0  0  0  0
  8 12  1  0  0  0  0
  8  2  2  0  0  0  0
  9  6  1  0  0  0  0
 10  9  2  0  0  0  0
 11  7  1  0  0  0  0
 12 11  2  0  0  0  0
 13 14  1  0  0  0  0
 14 15  1  0  0  0  0
 16 24  1  6  0  0  0
 18 17  1  1  0  0  0
 18 16  1  0  0  0  0
 19 21  1  0  0  0  0
 20 21  2  0  0  0  0
 21 18  1  0  0  0  0
 22 23  3  0  0  0  0
 23 19  1  0  0  0  0
 25 29  1  6  0  0  0
 25 27  1  0  0  0  0
 25 26  1  0  0  0  0
 27 26  1  0  0  0  0
 27 24  1  1  0  0  0
 28 29  1  0  0  0  0
 30 29  2  0  0  0  0
M  END
>  <MODEL>
3

>  <REMARK>
 VINA RESULT:      -6.9      3.309      8.182
  Name = 
  9 active torsions:
  status: ('A' for Active; 'I' for Inactive)
    1  A    between atoms: C_3  and  C_11
    2  A    between atoms: C_3  and  N_19
    3  A    between atoms: C_4  and  C_13
    4  A    between atoms: N_5  and  C_21
    5  A    between atoms: C_7  and  C_15
    6  A    between atoms: C_8  and  C_12
    7  A    between atoms: C_8  and  C_13
    8  A    between atoms: C_13  and  C_27
    9  A    between atoms: C_27  and  C_30
                            x       y       z     vdW  Elec       q    Type
                         _______ _______ _______ _____ _____    ______ ____

>  <TORSDO>
F 9

$$$$
=
 OpenBabel10262421583D

 30 32  0  0  1  0  0  0  0  0999 V2000
  186.7570  177.2880  144.6830 N   0  0  0  0  0  2  0  0  0  0  0  0
  186.8760  178.1210  146.9870 C   0  0  0  0  0  0  0  0  0  0  0  0
  187.3440  176.8610  143.4180 C   0  0  2  0  0  3  0  0  0  0  0  0
  187.6190  178.4260  148.1310 C   0  0  0  0  0  3  0  0  0  0  0  0
  185.1480  178.4270  146.9930 Cl  0  0  0  0  0  0  0  0  0  0  0  0
  189.5490  176.7680  144.7280 N   0  0  0  0  0  0  0  0  0  0  0  0
  188.9940  178.1920  148.1570 C   0  0  0  0  0  3  0  0  0  0  0  0
  187.5150  177.5840  145.8580 C   0  0  0  0  0  0  0  0  0  0  0  0
  188.8000  176.4840  143.5330 C   0  0  0  0  0  0  0  0  0  0  0  0
  189.3500  175.8850  142.5690 O   0  0  0  0  0  0  0  0  0  0  0  0
  189.6310  177.6510  147.0380 C   0  0  0  0  0  3  0  0  0  0  0  0
  188.9000  177.3420  145.8780 C   0  0  0  0  0  0  0  0  0  0  0  0
  190.9600  176.3800  144.7940 C   0  0  0  0  0  2  0  0  0  0  0  0
  191.7880  177.1700  143.7940 C   0  0  0  0  0  2  0  0  0  0  0  0
  191.6300  178.6560  144.0390 C   0  0  0  0  0  1  0  0  0  0  0  0
  187.0010  177.8530  142.2880 C   0  0  1  0  0  3  0  0  0  0  0  0
  184.8510  178.2720  143.6350 C   0  0  0  0  0  1  0  0  0  0  0  0
  185.6930  178.6560  142.4250 C   0  0  2  0  0  3  0  0  0  0  0  0
  183.8320  177.7980  140.9490 N   0  0  0  0  0  2  0  0  0  0  0  0
  185.1490  179.6120  140.2910 O   0  0  0  0  0  0  0  0  0  0  0  0
  184.8980  178.7270  141.1570 C   0  0  0  0  0  0  0  0  0  0  0  0
  182.3300  177.8730  138.8190 C   0  0  0  0  0  3  0  0  0  0  0  0
  183.0240  177.8380  139.8030 C   0  0  0  0  0  0  0  0  0  0  0  0
  188.1790  178.7570  141.9440 C   0  0  0  0  0  2  0  0  0  0  0  0
  188.1830  177.4240  139.8680 C   0  0  1  0  0  3  0  0  0  0  0  0
  189.5850  177.9680  140.0710 C   0  0  0  0  0  2  0  0  0  0  0  0
  188.3870  178.8130  140.4430 C   0  0  2  0  0  3  0  0  0  0  0  0
  187.5090  178.7670  137.8690 O   0  0  0  0  0  1  0  0  0  0  0  0
  187.7950  177.5290  138.4290 C   0  0  0  0  0  0  0  0  0  0  0  0
  187.7670  176.4960  137.7080 O   0  0  0  0  0  0  0  0  0  0  0  0
  1  8  1  0  0  0  0
  2  5  1  0  0  0  0
  2  4  1  0  0  0  0
  3 16  1  6  0  0  0
  3  9  1  0  0  0  0
  3  1  1  0  0  0  0
  4  7  2  0  0  0  0
  6 13  1  0  0  0  0
  6 12  1  0  0  0  0
  8 12  1  0  0  0  0
  8  2  2  0  0  0  0
  9  6  1  0  0  0  0
 10  9  2  0  0  0  0
 11  7  1  0  0  0  0
 12 11  2  0  0  0  0
 14 15  1  0  0  0  0
 14 13  1  0  0  0  0
 16 24  1  1  0  0  0
 16 18  1  0  0  0  0
 18 17  1  1  0  0  0
 19 21  1  0  0  0  0
 20 21  2  0  0  0  0
 21 18  1  0  0  0  0
 22 23  3  0  0  0  0
 23 19  1  0  0  0  0
 25 29  1  6  0  0  0
 25 26  1  0  0  0  0
 25 27  1  0  0  0  0
 26 27  1  0  0  0  0
 27 24  1  1  0  0  0
 28 29  1  0  0  0  0
 30 29  2  0  0  0  0
M  END
>  <MODEL>
4

>  <REMARK>
 VINA RESULT:      -6.9      2.978      7.385
  Name = 
  9 active torsions:
  status: ('A' for Active; 'I' for Inactive)
    1  A    between atoms: C_3  and  C_11
    2  A    between atoms: C_3  and  N_19
    3  A    between atoms: C_4  and  C_13
    4  A    between atoms: N_5  and  C_21
    5  A    between atoms: C_7  and  C_15
    6  A    between atoms: C_8  and  C_12
    7  A    between atoms: C_8  and  C_13
    8  A    between atoms: C_13  and  C_27
    9  A    between atoms: C_27  and  C_30
                            x       y       z     vdW  Elec       q    Type
                         _______ _______ _______ _____ _____    ______ ____

>  <TORSDO>
F 9

$$$$
=
 OpenBabel10262421583D

 30 32  0  0  1  0  0  0  0  0999 V2000
  185.6010  178.8340  143.0090 N   0  0  0  0  0  2  0  0  0  0  0  0
  183.1750  178.8390  143.3710 C   0  0  0  0  0  0  0  0  0  0  0  0
  186.7990  178.6350  142.2000 C   0  0  2  0  0  3  0  0  0  0  0  0
  181.8730  178.7650  142.8700 C   0  0  0  0  0  3  0  0  0  0  0  0
  183.4090  179.0100  145.1030 Cl  0  0  0  0  0  0  0  0  0  0  0  0
  185.1810  178.6010  140.2080 N   0  0  0  0  0  0  0  0  0  0  0  0
  181.6550  178.6310  141.4990 C   0  0  0  0  0  3  0  0  0  0  0  0
  184.2690  178.7730  142.4930 C   0  0  0  0  0  0  0  0  0  0  0  0
  186.5260  178.6410  140.7170 C   0  0  0  0  0  0  0  0  0  0  0  0
  187.5010  178.7100  139.9200 O   0  0  0  0  0  0  0  0  0  0  0  0
  182.7410  178.5730  140.6230 C   0  0  0  0  0  3  0  0  0  0  0  0
  184.0570  178.6430  141.1100 C   0  0  0  0  0  0  0  0  0  0  0  0
  184.9640  178.6120  138.7600 C   0  0  0  0  0  2  0  0  0  0  0  0
  184.8050  177.1980  138.2250 C   0  0  0  0  0  2  0  0  0  0  0  0
  185.9510  176.8550  137.2960 C   0  0  0  0  0  1  0  0  0  0  0  0
  187.6230  177.4410  142.7200 C   0  0  1  0  0  3  0  0  0  0  0  0
  189.6350  179.0410  142.7800 C   0  0  0  0  0  1  0  0  0  0  0  0
  189.1560  177.5960  142.7430 C   0  0  2  0  0  3  0  0  0  0  0  0
  190.0380  177.3120  140.3930 N   0  0  0  0  0  2  0  0  0  0  0  0
  190.3040  175.6260  141.9870 O   0  0  0  0  0  0  0  0  0  0  0  0
  189.8570  176.7730  141.7040 C   0  0  0  0  0  0  0  0  0  0  0  0
  191.3090  176.0100  138.5260 C   0  0  0  0  0  3  0  0  0  0  0  0
  190.7210  176.6110  139.3890 C   0  0  0  0  0  0  0  0  0  0  0  0
  187.0940  176.9180  144.0510 C   0  0  0  0  0  2  0  0  0  0  0  0
  187.3040  176.9880  146.5080 C   0  0  1  0  0  3  0  0  0  0  0  0
  186.8590  178.3620  146.0430 C   0  0  0  0  0  2  0  0  0  0  0  0
  187.8330  177.5620  145.2080 C   0  0  2  0  0  3  0  0  0  0  0  0
  187.9900  177.5650  148.8420 O   0  0  0  0  0  1  0  0  0  0  0  0
  188.3410  177.1180  147.5740 C   0  0  0  0  0  0  0  0  0  0  0  0
  189.5320  176.7840  147.3390 O   0  0  0  0  0  0  0  0  0  0  0  0
  2  5  1  0  0  0  0
  3 16  1  1  0  0  0
  3  1  1  0  0  0  0
  4  2  1  0  0  0  0
  6  9  1  0  0  0  0
  6 12  1  0  0  0  0
  7  4  2  0  0  0  0
  8  1  1  0  0  0  0
  8  2  2  0  0  0  0
  9  3  1  0  0  0  0
 10  9  2  0  0  0  0
 11 12  2  0  0  0  0
 11  7  1  0  0  0  0
 12  8  1  0  0  0  0
 13  6  1  0  0  0  0
 14 13  1  0  0  0  0
 15 14  1  0  0  0  0
 16 18  1  0  0  0  0
 16 24  1  1  0  0  0
 18 17  1  6  0  0  0
 19 21  1  0  0  0  0
 21 20  2  0  0  0  0
 21 18  1  0  0  0  0
 22 23  3  0  0  0  0
 23 19  1  0  0  0  0
 25 29  1  1  0  0  0
 26 25  1  0  0  0  0
 27 24  1  6  0  0  0
 27 26  1  0  0  0  0
 27 25  1  0  0  0  0
 29 28  1  0  0  0  0
 30 29  2  0  0  0  0
M  END
>  <MODEL>
5

>  <REMARK>
 VINA RESULT:      -6.8      2.473      4.583
  Name = 
  9 active torsions:
  status: ('A' for Active; 'I' for Inactive)
    1  A    between atoms: C_3  and  C_11
    2  A    between atoms: C_3  and  N_19
    3  A    between atoms: C_4  and  C_13
    4  A    between atoms: N_5  and  C_21
    5  A    between atoms: C_7  and  C_15
    6  A    between atoms: C_8  and  C_12
    7  A    between atoms: C_8  and  C_13
    8  A    between atoms: C_13  and  C_27
    9  A    between atoms: C_27  and  C_30
                            x       y       z     vdW  Elec       q    Type
                         _______ _______ _______ _____ _____    ______ ____

>  <TORSDO>
F 9

$$$$
=
 OpenBabel10262421583D

 30 32  0  0  1  0  0  0  0  0999 V2000
  187.8520  178.3200  139.8850 N   0  0  0  0  0  2  0  0  0  0  0  0
  186.3130  177.8770  138.0260 C   0  0  0  0  0  0  0  0  0  0  0  0
  189.0440  178.0560  140.6820 C   0  0  2  0  0  3  0  0  0  0  0  0
  186.0120  177.2210  136.8300 C   0  0  0  0  0  3  0  0  0  0  0  0
  185.1210  178.9620  138.7220 Cl  0  0  0  0  0  0  0  0  0  0  0  0
  189.7720  176.5890  138.7060 N   0  0  0  0  0  0  0  0  0  0  0  0
  186.9400  176.3540  136.2520 C   0  0  0  0  0  3  0  0  0  0  0  0
  187.5510  177.6600  138.6530 C   0  0  0  0  0  0  0  0  0  0  0  0
  190.0780  177.2330  139.9560 C   0  0  0  0  0  0  0  0  0  0  0  0
  191.2350  177.1360  140.4500 O   0  0  0  0  0  0  0  0  0  0  0  0
  188.1740  176.1430  136.8690 C   0  0  0  0  0  3  0  0  0  0  0  0
  188.4930  176.7910  138.0750 C   0  0  0  0  0  0  0  0  0  0  0  0
  190.8090  175.8020  138.0360 C   0  0  0  0  0  2  0  0  0  0  0  0
  191.6870  176.6890  137.1670 C   0  0  0  0  0  2  0  0  0  0  0  0
  193.1490  176.3620  137.3910 C   0  0  0  0  0  1  0  0  0  0  0  0
  188.6660  177.5580  142.0920 C   0  0  1  0  0  3  0  0  0  0  0  0
  190.0550  175.6180  143.0530 C   0  0  0  0  0  1  0  0  0  0  0  0
  189.8170  177.1220  143.0200 C   0  0  2  0  0  3  0  0  0  0  0  0
  189.1480  176.9950  145.4520 N   0  0  0  0  0  2  0  0  0  0  0  0
  190.2350  178.8800  144.6020 O   0  0  0  0  0  0  0  0  0  0  0  0
  189.7480  177.7350  144.3860 C   0  0  0  0  0  0  0  0  0  0  0  0
  189.0410  177.9230  147.8870 C   0  0  0  0  0  3  0  0  0  0  0  0
  189.0900  177.4940  146.7620 C   0  0  0  0  0  0  0  0  0  0  0  0
  187.7090  178.5120  142.7960 C   0  0  0  0  0  2  0  0  0  0  0  0
  185.3700  178.9230  143.4640 C   0  0  1  0  0  3  0  0  0  0  0  0
  185.9410  177.8770  144.4030 C   0  0  0  0  0  2  0  0  0  0  0  0
  186.3390  177.8790  142.9440 C   0  0  2  0  0  3  0  0  0  0  0  0
  182.9310  178.7090  143.9750 O   0  0  0  0  0  1  0  0  0  0  0  0
  183.9760  178.5550  143.0720 C   0  0  0  0  0  0  0  0  0  0  0  0
  183.7380  178.1410  141.9070 O   0  0  0  0  0  0  0  0  0  0  0  0
  1  3  1  0  0  0  0
  2  8  1  0  0  0  0
  2  5  1  0  0  0  0
  3 16  1  1  0  0  0
  4  2  2  0  0  0  0
  6  9  1  0  0  0  0
  7  4  1  0  0  0  0
  7 11  2  0  0  0  0
  8  1  1  0  0  0  0
  9 10  2  0  0  0  0
  9  3  1  0  0  0  0
 11 12  1  0  0  0  0
 12  8  2  0  0  0  0
 12  6  1  0  0  0  0
 13  6  1  0  0  0  0
 14 15  1  0  0  0  0
 14 13  1  0  0  0  0
 16 24  1  1  0  0  0
 16 18  1  0  0  0  0
 18 17  1  1  0  0  0
 18 21  1  0  0  0  0
 19 23  1  0  0  0  0
 21 20  2  0  0  0  0
 21 19  1  0  0  0  0
 23 22  3  0  0  0  0
 25 29  1  6  0  0  0
 25 26  1  0  0  0  0
 27 24  1  1  0  0  0
 27 25  1  0  0  0  0
 27 26  1  0  0  0  0
 29 28  1  0  0  0  0
 30 29  2  0  0  0  0
M  END
>  <MODEL>
6

>  <REMARK>
 VINA RESULT:      -6.5      1.956      2.507
  Name = 
  9 active torsions:
  status: ('A' for Active; 'I' for Inactive)
    1  A    between atoms: C_3  and  C_11
    2  A    between atoms: C_3  and  N_19
    3  A    between atoms: C_4  and  C_13
    4  A    between atoms: N_5  and  C_21
    5  A    between atoms: C_7  and  C_15
    6  A    between atoms: C_8  and  C_12
    7  A    between atoms: C_8  and  C_13
    8  A    between atoms: C_13  and  C_27
    9  A    between atoms: C_27  and  C_30
                            x       y       z     vdW  Elec       q    Type
                         _______ _______ _______ _____ _____    ______ ____

>  <TORSDO>
F 9

$$$$
=
 OpenBabel10262421583D

 30 32  0  0  1  0  0  0  0  0999 V2000
  186.1360  179.0480  142.7450 N   0  0  0  0  0  2  0  0  0  0  0  0
  184.4060  179.0590  144.4850 C   0  0  0  0  0  0  0  0  0  0  0  0
  186.6300  178.7830  141.3990 C   0  0  2  0  0  3  0  0  0  0  0  0
  183.0700  178.9160  144.8690 C   0  0  0  0  0  3  0  0  0  0  0  0
  185.6090  179.4100  145.7140 Cl  0  0  0  0  0  0  0  0  0  0  0  0
  184.1530  178.5220  140.7790 N   0  0  0  0  0  0  0  0  0  0  0  0
  182.0910  178.6390  143.9150 C   0  0  0  0  0  3  0  0  0  0  0  0
  184.7670  178.9170  143.1350 C   0  0  0  0  0  0  0  0  0  0  0  0
  185.5300  178.6320  140.3780 C   0  0  0  0  0  0  0  0  0  0  0  0
  185.8340  178.6310  139.1540 O   0  0  0  0  0  0  0  0  0  0  0  0
  182.4460  178.5050  142.5710 C   0  0  0  0  0  3  0  0  0  0  0  0
  183.7850  178.6420  142.1670 C   0  0  0  0  0  0  0  0  0  0  0  0
  183.1200  178.3800  139.7520 C   0  0  0  0  0  2  0  0  0  0  0  0
  182.8960  176.9170  139.4050 C   0  0  0  0  0  2  0  0  0  0  0  0
  181.4290  176.5640  139.5360 C   0  0  0  0  0  1  0  0  0  0  0  0
  187.6860  177.6590  141.4110 C   0  0  1  0  0  3  0  0  0  0  0  0
  189.0560  179.2350  139.9100 C   0  0  0  0  0  1  0  0  0  0  0  0
  189.0370  177.9510  140.7290 C   0  0  2  0  0  3  0  0  0  0  0  0
  189.2090  176.5540  138.6320 N   0  0  0  0  0  2  0  0  0  0  0  0
  190.4290  176.0030  140.5460 O   0  0  0  0  0  0  0  0  0  0  0  0
  189.6000  176.7750  139.9880 C   0  0  0  0  0  0  0  0  0  0  0  0
  190.1810  174.5900  137.2180 C   0  0  0  0  0  3  0  0  0  0  0  0
  189.7320  175.4970  137.8710 C   0  0  0  0  0  0  0  0  0  0  0  0
  187.8780  177.0710  142.8040 C   0  0  0  0  0  2  0  0  0  0  0  0
  189.7710  176.7660  144.3570 C   0  0  1  0  0  3  0  0  0  0  0  0
  188.7710  177.6920  145.0230 C   0  0  0  0  0  2  0  0  0  0  0  0
  189.0030  177.7810  143.5310 C   0  0  2  0  0  3  0  0  0  0  0  0
  191.7790  178.0820  143.6590 O   0  0  0  0  0  0  0  0  0  0  0  0
  191.1610  177.2580  144.5910 C   0  0  0  0  0  0  0  0  0  0  0  0
  191.7640  176.9600  145.6570 O   0  0  0  0  0  1  0  0  0  0  0  0
  1  8  1  0  0  0  0
  2  4  1  0  0  0  0
  2  5  1  0  0  0  0
  3 16  1  1  0  0  0
  3  1  1  0  0  0  0
  6 12  1  0  0  0  0
  7  4  2  0  0  0  0
  8  2  2  0  0  0  0
  9  6  1  0  0  0  0
  9  3  1  0  0  0  0
 10  9  2  0  0  0  0
 11  7  1  0  0  0  0
 12 11  2  0  0  0  0
 12  8  1  0  0  0  0
 13  6  1  0  0  0  0
 14 15  1  0  0  0  0
 14 13  1  0  0  0  0
 16 24  1  1  0  0  0
 18 17  1  6  0  0  0
 18 16  1  0  0  0  0
 19 21  1  0  0  0  0
 21 20  2  0  0  0  0
 21 18  1  0  0  0  0
 22 23  3  0  0  0  0
 23 19  1  0  0  0  0
 25 29  1  1  0  0  0
 25 26  1  0  0  0  0
 27 24  1  6  0  0  0
 27 25  1  0  0  0  0
 27 26  1  0  0  0  0
 28 29  2  0  0  0  0
 29 30  1  0  0  0  0
M  END
>  <MODEL>
7

>  <REMARK>
 VINA RESULT:      -6.3      2.831      6.028
  Name = 
  9 active torsions:
  status: ('A' for Active; 'I' for Inactive)
    1  A    between atoms: C_3  and  C_11
    2  A    between atoms: C_3  and  N_19
    3  A    between atoms: C_4  and  C_13
    4  A    between atoms: N_5  and  C_21
    5  A    between atoms: C_7  and  C_15
    6  A    between atoms: C_8  and  C_12
    7  A    between atoms: C_8  and  C_13
    8  A    between atoms: C_13  and  C_27
    9  A    between atoms: C_27  and  C_30
                            x       y       z     vdW  Elec       q    Type
                         _______ _______ _______ _____ _____    ______ ____

>  <TORSDO>
F 9

$$$$
=
 OpenBabel10262421583D

 30 32  0  0  1  0  0  0  0  0999 V2000
  187.7830  177.1550  144.9660 N   0  0  0  0  0  2  0  0  0  0  0  0
  187.1870  178.0440  147.1740 C   0  0  0  0  0  0  0  0  0  0  0  0
  188.7330  176.7560  143.9340 C   0  0  2  0  0  3  0  0  0  0  0  0
  187.5540  178.4370  148.4630 C   0  0  0  0  0  3  0  0  0  0  0  0
  185.5070  178.1960  146.6870 Cl  0  0  0  0  0  0  0  0  0  0  0  0
  190.4840  176.8860  145.8050 N   0  0  0  0  0  0  0  0  0  0  0  0
  188.8810  178.3270  148.8790 C   0  0  0  0  0  3  0  0  0  0  0  0
  188.1570  177.5420  146.2900 C   0  0  0  0  0  0  0  0  0  0  0  0
  190.1230  176.5110  144.4640 C   0  0  0  0  0  0  0  0  0  0  0  0
  190.9670  175.9440  143.7170 O   0  0  0  0  0  0  0  0  0  0  0  0
  189.8460  177.8210  148.0060 C   0  0  0  0  0  3  0  0  0  0  0  0
  189.4950  177.4250  146.7040 C   0  0  0  0  0  0  0  0  0  0  0  0
  191.8460  176.6260  146.2770 C   0  0  0  0  0  2  0  0  0  0  0  0
  191.8990  175.3520  147.1050 C   0  0  0  0  0  2  0  0  0  0  0  0
  192.6810  175.5870  148.3810 C   0  0  0  0  0  1  0  0  0  0  0  0
  188.6420  177.6890  142.7090 C   0  0  1  0  0  3  0  0  0  0  0  0
  190.8380  178.8300  142.0110 C   0  0  0  0  0  1  0  0  0  0  0  0
  189.8420  177.7090  141.7440 C   0  0  2  0  0  3  0  0  0  0  0  0
  189.0670  178.7850  139.5950 N   0  0  0  0  0  2  0  0  0  0  0  0
  189.4840  176.4900  139.7060 O   0  0  0  0  0  0  0  0  0  0  0  0
  189.4510  177.6040  140.3000 C   0  0  0  0  0  0  0  0  0  0  0  0
  188.4430  178.7400  137.0630 C   0  0  0  0  0  3  0  0  0  0  0  0
  188.7310  178.7610  138.2330 C   0  0  0  0  0  0  0  0  0  0  0  0
  187.3240  177.5220  141.9610 C   0  0  0  0  0  2  0  0  0  0  0  0
  184.9590  178.1100  142.3480 C   0  0  1  0  0  3  0  0  0  0  0  0
  185.4350  178.8830  141.1330 C   0  0  0  0  0  2  0  0  0  0  0  0
  186.3740  178.6550  142.2960 C   0  0  2  0  0  3  0  0  0  0  0  0
  182.7450  178.7710  143.3020 O   0  0  0  0  0  0  0  0  0  0  0  0
  184.1150  178.9850  143.2140 C   0  0  0  0  0  0  0  0  0  0  0  0
  184.6490  179.8950  143.9020 O   0  0  0  0  0  1  0  0  0  0  0  0
  1  8  1  0  0  0  0
  2  4  1  0  0  0  0
  3 16  1  6  0  0  0
  3  9  1  0  0  0  0
  3  1  1  0  0  0  0
  4  7  2  0  0  0  0
  5  2  1  0  0  0  0
  6 13  1  0  0  0  0
  6 12  1  0  0  0  0
  8 12  1  0  0  0  0
  8  2  2  0  0  0  0
  9  6  1  0  0  0  0
 10  9  2  0  0  0  0
 11  7  1  0  0  0  0
 12 11  2  0  0  0  0
 13 14  1  0  0  0  0
 14 15  1  0  0  0  0
 16 24  1  6  0  0  0
 18 17  1  6  0  0  0
 18 16  1  0  0  0  0
 19 21  1  0  0  0  0
 20 21  2  0  0  0  0
 21 18  1  0  0  0  0
 22 23  3  0  0  0  0
 23 19  1  0  0  0  0
 25 29  1  1  0  0  0
 26 27  1  0  0  0  0
 26 25  1  0  0  0  0
 27 24  1  6  0  0  0
 27 25  1  0  0  0  0
 29 28  2  0  0  0  0
 29 30  1  0  0  0  0
M  END
>  <MODEL>
8

>  <REMARK>
 VINA RESULT:      -6.3      2.389      6.705
  Name = 
  9 active torsions:
  status: ('A' for Active; 'I' for Inactive)
    1  A    between atoms: C_3  and  C_11
    2  A    between atoms: C_3  and  N_19
    3  A    between atoms: C_4  and  C_13
    4  A    between atoms: N_5  and  C_21
    5  A    between atoms: C_7  and  C_15
    6  A    between atoms: C_8  and  C_12
    7  A    between atoms: C_8  and  C_13
    8  A    between atoms: C_13  and  C_27
    9  A    between atoms: C_27  and  C_30
                            x       y       z     vdW  Elec       q    Type
                         _______ _______ _______ _____ _____    ______ ____

>  <TORSDO>
F 9

$$$$
=
 OpenBabel10262421583D

 30 32  0  0  1  0  0  0  0  0999 V2000
  187.0440  178.5760  140.6450 N   0  0  0  0  0  2  0  0  0  0  0  0
  189.1210  177.4650  141.3290 C   0  0  0  0  0  0  0  0  0  0  0  0
  185.6360  178.9250  140.8080 C   0  0  2  0  0  3  0  0  0  0  0  0
  189.8690  176.7710  142.2830 C   0  0  0  0  0  3  0  0  0  0  0  0
  189.8430  177.7980  139.7630 Cl  0  0  0  0  0  0  0  0  0  0  0  0
  185.9260  178.0570  143.2050 N   0  0  0  0  0  0  0  0  0  0  0  0
  189.3240  176.4940  143.5370 C   0  0  0  0  0  3  0  0  0  0  0  0
  187.8130  177.8800  141.6280 C   0  0  0  0  0  0  0  0  0  0  0  0
  185.1340  178.7410  142.2180 C   0  0  0  0  0  0  0  0  0  0  0  0
  184.0110  179.2230  142.5300 O   0  0  0  0  0  0  0  0  0  0  0  0
  188.0270  176.9130  143.8400 C   0  0  0  0  0  3  0  0  0  0  0  0
  187.2580  177.6080  142.8910 C   0  0  0  0  0  0  0  0  0  0  0  0
  185.3980  177.9050  144.5630 C   0  0  0  0  0  2  0  0  0  0  0  0
  185.6770  179.1460  145.3960 C   0  0  0  0  0  2  0  0  0  0  0  0
  185.7450  178.7870  146.8660 C   0  0  0  0  0  1  0  0  0  0  0  0
  184.7770  178.2750  139.7050 C   0  0  1  0  0  3  0  0  0  0  0  0
  182.4350  177.2150  139.6300 C   0  0  0  0  0  1  0  0  0  0  0  0
  183.2530  178.4920  139.7760 C   0  0  2  0  0  3  0  0  0  0  0  0
  181.6710  179.3620  138.0100 N   0  0  0  0  0  2  0  0  0  0  0  0
  183.2960  180.7490  138.9550 O   0  0  0  0  0  0  0  0  0  0  0  0
  182.7650  179.6040  138.8970 C   0  0  0  0  0  0  0  0  0  0  0  0
  180.6830  181.2370  136.4900 C   0  0  0  0  0  3  0  0  0  0  0  0
  181.1400  180.3710  137.1930 C   0  0  0  0  0  0  0  0  0  0  0  0
  185.3200  178.5690  138.3110 C   0  0  0  0  0  2  0  0  0  0  0  0
  187.0310  177.0270  137.4270 C   0  0  1  0  0  3  0  0  0  0  0  0
  186.2580  177.5850  136.2470 C   0  0  0  0  0  2  0  0  0  0  0  0
  185.5400  177.2810  137.5420 C   0  0  2  0  0  3  0  0  0  0  0  0
  186.2260  174.6630  137.3060 O   0  0  0  0  0  1  0  0  0  0  0  0
  187.2790  175.5670  137.2340 C   0  0  0  0  0  0  0  0  0  0  0  0
  188.4380  175.1550  136.9630 O   0  0  0  0  0  0  0  0  0  0  0  0
  1  3  1  0  0  0  0
  1  8  1  0  0  0  0
  2  8  2  0  0  0  0
  2  4  1  0  0  0  0
  3 16  1  6  0  0  0
  3  9  1  0  0  0  0
  4  7  2  0  0  0  0
  5  2  1  0  0  0  0
  6 13  1  0  0  0  0
  7 11  1  0  0  0  0
  8 12  1  0  0  0  0
  9 10  2  0  0  0  0
  9  6  1  0  0  0  0
 12  6  1  0  0  0  0
 12 11  2  0  0  0  0
 13 14  1  0  0  0  0
 14 15  1  0  0  0  0
 16 24  1  6  0  0  0
 16 18  1  0  0  0  0
 18 17  1  6  0  0  0
 19 21  1  0  0  0  0
 21 20  2  0  0  0  0
 21 18  1  0  0  0  0
 22 23  3  0  0  0  0
 23 19  1  0  0  0  0
 25 29  1  6  0  0  0
 25 27  1  0  0  0  0
 26 25  1  0  0  0  0
 26 27  1  0  0  0  0
 27 24  1  1  0  0  0
 29 28  1  0  0  0  0
 30 29  2  0  0  0  0
M  END
>  <MODEL>
9

>  <REMARK>
 VINA RESULT:      -6.2      3.606      8.680
  Name = 
  9 active torsions:
  status: ('A' for Active; 'I' for Inactive)
    1  A    between atoms: C_3  and  C_11
    2  A    between atoms: C_3  and  N_19
    3  A    between atoms: C_4  and  C_13
    4  A    between atoms: N_5  and  C_21
    5  A    between atoms: C_7  and  C_15
    6  A    between atoms: C_8  and  C_12
    7  A    between atoms: C_8  and  C_13
    8  A    between atoms: C_13  and  C_27
    9  A    between atoms: C_27  and  C_30
                            x       y       z     vdW  Elec       q    Type
                         _______ _______ _______ _____ _____    ______ ____

>  <TORSDO>
F 9

$$$$
