=
 OpenBabel10262420113D

 27 32  0  0  1  0  0  0  0  0999 V2000
  186.3950  178.0550  142.1480 C   0  0  2  0  0  3  0  0  0  0  0  0
  184.9680  177.9560  141.7870 N   0  0  2  0  0  0  0  0  0  0  0  0
  185.0300  179.0280  143.8370 C   0  0  2  0  0  0  0  0  0  0  0  0
  180.9070  178.1860  141.2950 N   0  0  0  0  0  0  0  0  0  0  0  0
  178.9320  178.9250  142.6340 C   0  0  0  0  0  1  0  0  0  0  0  0
  184.6090  178.0410  140.3690 C   0  0  0  0  0  2  0  0  0  0  0  0
  181.5880  179.3260  143.4530 S   0  0  0  0  0  0  0  0  0  0  0  0
  186.3920  177.6990  145.9730 C   0  0  0  0  0  0  0  0  0  0  0  0
  184.9000  180.2900  144.6520 C   0  0  0  0  0  2  0  0  0  0  0  0
  187.2590  177.2350  147.0980 C   0  0  0  0  0  1  0  0  0  0  0  0
  182.8230  178.7350  142.4770 C   0  0  0  0  0  0  0  0  0  0  0  0
  180.3900  178.7660  142.4030 C   0  0  0  0  0  0  0  0  0  0  0  0
  182.2650  178.1930  141.3250 C   0  0  0  0  0  0  0  0  0  0  0  0
  186.4470  178.5240  143.6130 C   0  0  1  0  0  3  0  0  0  0  0  0
  184.2890  179.0100  142.5280 C   0  0  2  0  0  3  0  0  0  0  0  0
  185.3080  178.4370  146.2610 C   0  0  0  0  0  3  0  0  0  0  0  0
  183.1210  177.6500  140.2010 C   0  0  0  0  0  2  0  0  0  0  0  0
  188.0490  176.9360  144.4150 O   0  0  0  0  0  1  0  0  0  0  0  0
  186.7180  177.3400  144.5400 C   0  0  1  0  0  3  0  0  0  0  0  0
  184.3650  178.9650  145.2070 C   0  0  2  0  0  3  0  0  0  0  0  0
  187.2280  178.9560  141.2150 C   0  0  0  0  0  2  0  0  0  0  0  0
  190.6040  176.7020  139.8470 C   0  0  0  0  0  2  0  0  0  0  0  0
  188.6150  178.4100  140.9000 C   0  0  2  0  0  3  0  0  0  0  0  0
  188.8640  178.4850  139.3860 C   0  0  0  0  0  2  0  0  0  0  0  0
  189.5520  177.2220  138.8620 C   0  0  0  0  0  2  0  0  0  0  0  0
  190.1090  176.7780  141.3010 C   0  0  0  0  0  2  0  0  0  0  0  0
  188.7370  177.0880  141.3670 O   0  0  0  0  0  0  0  0  0  0  0  0
  1 21  1  6  0  0  0
  1 14  1  0  0  0  0
  2  6  1  6  0  0  0
  2  1  1  0  0  0  0
  2 15  1  0  0  0  0
  3  9  1  1  0  0  0
  3 20  1  0  0  0  0
  4 13  1  0  0  0  0
  4 12  2  0  0  0  0
  8 16  2  0  0  0  0
  8 10  1  0  0  0  0
  9 20  1  0  0  0  0
 11 15  1  0  0  0  0
 11  7  1  0  0  0  0
 12  5  1  0  0  0  0
 12  7  1  0  0  0  0
 13 11  2  0  0  0  0
 14  3  1  0  0  0  0
 14 19  1  0  0  0  0
 15  3  1  0  0  0  0
 17  6  1  0  0  0  0
 17 13  1  0  0  0  0
 18 19  1  0  0  0  0
 19  8  1  0  0  0  0
 20 16  1  0  0  0  0
 22 26  1  0  0  0  0
 23 21  1  0  0  0  0
 23 27  1  0  0  0  0
 24 23  1  0  0  0  0
 25 24  1  0  0  0  0
 25 22  1  0  0  0  0
 26 27  1  0  0  0  0
M  END
>  <MODEL>
1

>  <REMARK>
 VINA RESULT:      -7.6      0.000      0.000
  Name = 
  2 active torsions:
  status: ('A' for Active; 'I' for Inactive)
    1  A    between atoms: C_1  and  C_15
    2  A    between atoms: C_9  and  C_15
                            x       y       z     vdW  Elec       q    Type
                         _______ _______ _______ _____ _____    ______ ____

>  <TORSDO>
F 2

$$$$
=
 OpenBabel10262420113D

 27 32  0  0  1  0  0  0  0  0999 V2000
  188.1930  178.3410  141.6240 C   0  0  2  0  0  3  0  0  0  0  0  0
  189.3000  178.2500  142.5940 N   0  0  2  0  0  0  0  0  0  0  0  0
  187.4500  177.3590  143.6600 C   0  0  2  0  0  0  0  0  0  0  0  0
  191.9480  177.5280  145.6360 N   0  0  0  0  0  0  0  0  0  0  0  0
  191.8640  176.6810  147.9850 C   0  0  0  0  0  1  0  0  0  0  0  0
  190.6500  178.0130  142.0770 C   0  0  0  0  0  2  0  0  0  0  0  0
  189.6540  176.6480  146.2520 S   0  0  0  0  0  0  0  0  0  0  0  0
  185.1100  178.9990  143.8210 C   0  0  0  0  0  0  0  0  0  0  0  0
  186.6930  176.1600  144.1710 C   0  0  0  0  0  2  0  0  0  0  0  0
  183.7650  179.6450  143.7710 C   0  0  0  0  0  1  0  0  0  0  0  0
  189.8360  177.2940  144.7110 C   0  0  0  0  0  0  0  0  0  0  0  0
  191.2560  176.9850  146.6640 C   0  0  0  0  0  0  0  0  0  0  0  0
  191.1620  177.6760  144.5390 C   0  0  0  0  0  0  0  0  0  0  0  0
  186.9040  177.9990  142.3930 C   0  0  1  0  0  3  0  0  0  0  0  0
  188.9380  177.1900  143.5240 C   0  0  2  0  0  3  0  0  0  0  0  0
  185.3870  178.1700  144.8400 C   0  0  0  0  0  3  0  0  0  0  0  0
  191.6720  178.2200  143.2210 C   0  0  0  0  0  2  0  0  0  0  0  0
  185.5560  179.8160  141.6100 O   0  0  0  0  0  1  0  0  0  0  0  0
  186.1470  179.2770  142.7550 C   0  0  1  0  0  3  0  0  0  0  0  0
  186.7100  177.4570  144.9890 C   0  0  2  0  0  3  0  0  0  0  0  0
  188.3730  177.4680  140.3660 C   0  0  0  0  0  2  0  0  0  0  0  0
  187.5530  178.6340  136.3270 C   0  0  0  0  0  2  0  0  0  0  0  0
  188.1520  178.2120  139.0560 C   0  0  2  0  0  3  0  0  0  0  0  0
  186.6760  178.0970  138.6430 C   0  0  0  0  0  2  0  0  0  0  0  0
  186.5280  177.8390  137.1420 C   0  0  0  0  0  2  0  0  0  0  0  0
  188.9400  178.6200  136.9900 C   0  0  0  0  0  2  0  0  0  0  0  0
  188.9980  177.7010  138.0550 O   0  0  0  0  0  0  0  0  0  0  0  0
  1 21  1  6  0  0  0
  1 14  1  0  0  0  0
  1  2  1  0  0  0  0
  2  6  1  6  0  0  0
  2 15  1  0  0  0  0
  3  9  1  6  0  0  0
  3 20  1  0  0  0  0
  4 12  2  0  0  0  0
  6 17  1  0  0  0  0
  7 12  1  0  0  0  0
  8 16  2  0  0  0  0
  9 20  1  0  0  0  0
 10  8  1  0  0  0  0
 11  7  1  0  0  0  0
 12  5  1  0  0  0  0
 13 11  2  0  0  0  0
 13  4  1  0  0  0  0
 14 19  1  0  0  0  0
 14  3  1  0  0  0  0
 15  3  1  0  0  0  0
 15 11  1  0  0  0  0
 16 20  1  0  0  0  0
 17 13  1  0  0  0  0
 18 19  1  0  0  0  0
 19  8  1  0  0  0  0
 22 26  1  0  0  0  0
 22 25  1  0  0  0  0
 23 21  1  0  0  0  0
 24 23  1  0  0  0  0
 25 24  1  0  0  0  0
 26 27  1  0  0  0  0
 27 23  1  0  0  0  0
M  END
>  <MODEL>
2

>  <REMARK>
 VINA RESULT:      -7.6      3.411      6.302
  Name = 
  2 active torsions:
  status: ('A' for Active; 'I' for Inactive)
    1  A    between atoms: C_1  and  C_15
    2  A    between atoms: C_9  and  C_15
                            x       y       z     vdW  Elec       q    Type
                         _______ _______ _______ _____ _____    ______ ____

>  <TORSDO>
F 2

$$$$
=
 OpenBabel10262420113D

 27 32  0  0  1  0  0  0  0  0999 V2000
  187.9650  177.8210  143.5050 C   0  0  2  0  0  3  0  0  0  0  0  0
  188.4690  177.9980  142.1300 N   0  0  2  0  0  0  0  0  0  0  0  0
  189.7860  176.3500  143.0790 C   0  0  2  0  0  0  0  0  0  0  0  0
  190.1920  177.8510  138.4160 N   0  0  0  0  0  0  0  0  0  0  0  0
  192.1240  176.6980  137.3290 C   0  0  0  0  0  1  0  0  0  0  0  0
  187.5040  178.3460  141.0830 C   0  0  0  0  0  2  0  0  0  0  0  0
  191.2450  176.1170  139.9330 S   0  0  0  0  0  0  0  0  0  0  0  0
  191.1220  176.9850  145.5290 C   0  0  0  0  0  0  0  0  0  0  0  0
  190.1680  174.8960  143.2020 C   0  0  0  0  0  2  0  0  0  0  0  0
  191.6810  177.0980  146.9090 C   0  0  0  0  0  1  0  0  0  0  0  0
  189.9610  177.0030  140.5600 C   0  0  0  0  0  0  0  0  0  0  0  0
  191.1990  176.9490  138.4650 C   0  0  0  0  0  0  0  0  0  0  0  0
  189.4860  177.8620  139.5750 C   0  0  0  0  0  0  0  0  0  0  0  0
  188.9830  176.9260  144.2340 C   0  0  1  0  0  3  0  0  0  0  0  0
  189.1420  176.7550  141.7820 C   0  0  2  0  0  3  0  0  0  0  0  0
  191.7350  176.1730  144.6530 C   0  0  0  0  0  3  0  0  0  0  0  0
  188.2740  178.7410  139.8000 C   0  0  0  0  0  2  0  0  0  0  0  0
  189.1920  178.2220  146.2360 O   0  0  0  0  0  1  0  0  0  0  0  0
  189.8980  177.7730  145.1180 C   0  0  1  0  0  3  0  0  0  0  0  0
  191.2560  175.9760  143.2340 C   0  0  2  0  0  3  0  0  0  0  0  0
  186.5290  177.2670  143.5930 C   0  0  0  0  0  2  0  0  0  0  0  0
  182.9240  179.5450  143.9940 C   0  0  0  0  0  2  0  0  0  0  0  0
  185.4480  178.3400  143.5930 C   0  0  2  0  0  3  0  0  0  0  0  0
  185.0630  178.6800  145.0410 C   0  0  0  0  0  2  0  0  0  0  0  0
  183.5490  178.8390  145.2010 C   0  0  0  0  0  2  0  0  0  0  0  0
  183.5230  179.0430  142.6690 C   0  0  0  0  0  2  0  0  0  0  0  0
  184.3280  177.9050  142.8610 O   0  0  0  0  0  0  0  0  0  0  0  0
  1 21  1  6  0  0  0
  1 14  1  0  0  0  0
  2  6  1  6  0  0  0
  2  1  1  0  0  0  0
  3  9  1  1  0  0  0
  3 20  1  0  0  0  0
  3 14  1  0  0  0  0
  4 12  2  0  0  0  0
  4 13  1  0  0  0  0
  5 12  1  0  0  0  0
  7 11  1  0  0  0  0
  8 10  1  0  0  0  0
  9 20  1  0  0  0  0
 11 15  1  0  0  0  0
 12  7  1  0  0  0  0
 13 17  1  0  0  0  0
 13 11  2  0  0  0  0
 14 19  1  0  0  0  0
 15  2  1  0  0  0  0
 15  3  1  0  0  0  0
 16  8  2  0  0  0  0
 17  6  1  0  0  0  0
 19  8  1  0  0  0  0
 19 18  1  0  0  0  0
 20 16  1  0  0  0  0
 21 23  1  0  0  0  0
 22 25  1  0  0  0  0
 23 24  1  0  0  0  0
 24 25  1  0  0  0  0
 26 27  1  0  0  0  0
 26 22  1  0  0  0  0
 27 23  1  0  0  0  0
M  END
>  <MODEL>
3

>  <REMARK>
 VINA RESULT:      -6.9      3.323      7.006
  Name = 
  2 active torsions:
  status: ('A' for Active; 'I' for Inactive)
    1  A    between atoms: C_1  and  C_15
    2  A    between atoms: C_9  and  C_15
                            x       y       z     vdW  Elec       q    Type
                         _______ _______ _______ _____ _____    ______ ____

>  <TORSDO>
F 2

$$$$
=
 OpenBabel10262420113D

 27 32  0  0  1  0  0  0  0  0999 V2000
  187.6230  178.1310  142.6560 C   0  0  2  0  0  3  0  0  0  0  0  0
  188.0790  177.5690  143.9420 N   0  0  2  0  0  0  0  0  0  0  0  0
  190.0000  178.0920  142.7630 C   0  0  2  0  0  0  0  0  0  0  0  0
  189.9820  176.3080  147.3440 N   0  0  0  0  0  0  0  0  0  0  0  0
  192.3300  175.9010  148.0930 C   0  0  0  0  0  1  0  0  0  0  0  0
  187.2630  177.8240  145.1320 C   0  0  0  0  0  2  0  0  0  0  0  0
  191.6800  177.1070  145.6420 S   0  0  0  0  0  0  0  0  0  0  0  0
  190.2900  176.9530  140.1530 C   0  0  0  0  0  0  0  0  0  0  0  0
  191.1940  178.9870  142.5480 C   0  0  0  0  0  2  0  0  0  0  0  0
  190.4610  176.6240  138.7070 C   0  0  0  0  0  1  0  0  0  0  0  0
  190.0560  177.2780  145.2400 C   0  0  0  0  0  0  0  0  0  0  0  0
  191.3150  176.3770  147.1190 C   0  0  0  0  0  0  0  0  0  0  0  0
  189.2820  176.8350  146.3060 C   0  0  0  0  0  0  0  0  0  0  0  0
  188.8680  178.2420  141.7580 C   0  0  1  0  0  3  0  0  0  0  0  0
  189.4250  178.0810  144.1520 C   0  0  2  0  0  3  0  0  0  0  0  0
  191.3880  177.1280  140.9060 C   0  0  0  0  0  3  0  0  0  0  0  0
  187.7710  176.9340  146.2910 C   0  0  0  0  0  2  0  0  0  0  0  0
  187.9410  177.2650  139.7790 O   0  0  0  0  0  1  0  0  0  0  0  0
  188.9120  177.0800  140.7660 C   0  0  1  0  0  3  0  0  0  0  0  0
  191.3370  177.4700  142.3760 C   0  0  2  0  0  3  0  0  0  0  0  0
  186.8670  179.4690  142.7760 C   0  0  0  0  0  2  0  0  0  0  0  0
  182.7130  178.4620  142.5010 C   0  0  0  0  0  2  0  0  0  0  0  0
  185.3850  179.3780  142.4370 C   0  0  2  0  0  3  0  0  0  0  0  0
  184.5510  179.7530  143.6720 C   0  0  0  0  0  2  0  0  0  0  0  0
  183.3490  178.8230  143.8460 C   0  0  0  0  0  2  0  0  0  0  0  0
  183.7770  178.1730  141.4280 C   0  0  0  0  0  2  0  0  0  0  0  0
  185.0660  178.0840  141.9860 O   0  0  0  0  0  0  0  0  0  0  0  0
  1 21  1  1  0  0  0
  1  2  1  0  0  0  0
  2 15  1  0  0  0  0
  2  6  1  1  0  0  0
  3  9  1  6  0  0  0
  3 15  1  0  0  0  0
  6 17  1  0  0  0  0
  7 12  1  0  0  0  0
  8 19  1  0  0  0  0
  8 16  2  0  0  0  0
 10  8  1  0  0  0  0
 11  7  1  0  0  0  0
 11 13  2  0  0  0  0
 12  4  2  0  0  0  0
 12  5  1  0  0  0  0
 13  4  1  0  0  0  0
 14  1  1  0  0  0  0
 14  3  1  0  0  0  0
 15 11  1  0  0  0  0
 16 20  1  0  0  0  0
 17 13  1  0  0  0  0
 18 19  1  0  0  0  0
 19 14  1  0  0  0  0
 20  9  1  0  0  0  0
 20  3  1  0  0  0  0
 22 25  1  0  0  0  0
 23 21  1  0  0  0  0
 23 24  1  0  0  0  0
 24 25  1  0  0  0  0
 26 27  1  0  0  0  0
 26 22  1  0  0  0  0
 27 23  1  0  0  0  0
M  END
>  <MODEL>
4

>  <REMARK>
 VINA RESULT:      -6.6      3.361      7.460
  Name = 
  2 active torsions:
  status: ('A' for Active; 'I' for Inactive)
    1  A    between atoms: C_1  and  C_15
    2  A    between atoms: C_9  and  C_15
                            x       y       z     vdW  Elec       q    Type
                         _______ _______ _______ _____ _____    ______ ____

>  <TORSDO>
F 2

$$$$
=
 OpenBabel10262420113D

 27 32  0  0  1  0  0  0  0  0999 V2000
  190.6380  176.9900  139.6710 C   0  0  2  0  0  3  0  0  0  0  0  0
  189.4000  177.4000  138.9820 N   0  0  2  0  0  0  0  0  0  0  0  0
  190.2790  175.6680  137.7250 C   0  0  2  0  0  0  0  0  0  0  0  0
  186.0160  177.9040  136.7290 N   0  0  0  0  0  0  0  0  0  0  0  0
  185.0770  177.0040  134.5950 C   0  0  0  0  0  1  0  0  0  0  0  0
  188.2830  177.8760  139.8020 C   0  0  0  0  0  2  0  0  0  0  0  0
  187.3960  175.9880  135.8100 S   0  0  0  0  0  0  0  0  0  0  0  0
  192.9730  175.9520  136.8010 C   0  0  0  0  0  0  0  0  0  0  0  0
  190.2370  174.2280  137.2820 C   0  0  0  0  0  2  0  0  0  0  0  0
  194.4240  175.8640  136.4570 C   0  0  0  0  0  1  0  0  0  0  0  0
  187.9460  176.7190  137.2210 C   0  0  0  0  0  0  0  0  0  0  0  0
  186.0820  177.0400  135.6890 C   0  0  0  0  0  0  0  0  0  0  0  0
  187.0410  177.7060  137.5960 C   0  0  0  0  0  0  0  0  0  0  0  0
  191.3710  176.0260  138.7210 C   0  0  1  0  0  3  0  0  0  0  0  0
  188.9760  176.2520  138.1950 C   0  0  2  0  0  3  0  0  0  0  0  0
  192.0880  175.3120  136.0200 C   0  0  0  0  0  3  0  0  0  0  0  0
  187.2070  178.4960  138.8770 C   0  0  0  0  0  2  0  0  0  0  0  0
  193.5550  176.9940  138.8820 O   0  0  0  0  0  1  0  0  0  0  0  0
  192.5030  176.7530  137.9950 C   0  0  1  0  0  3  0  0  0  0  0  0
  190.6000  175.3250  136.2740 C   0  0  2  0  0  3  0  0  0  0  0  0
  190.4190  176.3790  141.0700 C   0  0  0  0  0  2  0  0  0  0  0  0
  191.4980  178.2090  144.7890 C   0  0  0  0  0  2  0  0  0  0  0  0
  191.0760  177.1630  142.1990 C   0  0  2  0  0  3  0  0  0  0  0  0
  191.5950  176.1870  143.2660 C   0  0  0  0  0  2  0  0  0  0  0  0
  191.3090  176.6930  144.6820 C   0  0  0  0  0  2  0  0  0  0  0  0
  190.9220  178.9420  143.5650 C   0  0  0  0  0  2  0  0  0  0  0  0
  190.1630  178.0790  142.7530 O   0  0  0  0  0  0  0  0  0  0  0  0
  1 21  1  1  0  0  0
  2  1  1  0  0  0  0
  2  6  1  1  0  0  0
  3  9  1  1  0  0  0
  3 15  1  0  0  0  0
  3 14  1  0  0  0  0
  4 13  1  0  0  0  0
  5 12  1  0  0  0  0
  7 11  1  0  0  0  0
  8 19  1  0  0  0  0
 10  8  1  0  0  0  0
 11 13  2  0  0  0  0
 11 15  1  0  0  0  0
 12  7  1  0  0  0  0
 12  4  2  0  0  0  0
 13 17  1  0  0  0  0
 14  1  1  0  0  0  0
 15  2  1  0  0  0  0
 16 20  1  0  0  0  0
 16  8  2  0  0  0  0
 17  6  1  0  0  0  0
 19 14  1  0  0  0  0
 19 18  1  0  0  0  0
 20  9  1  0  0  0  0
 20  3  1  0  0  0  0
 21 23  1  0  0  0  0
 23 27  1  0  0  0  0
 23 24  1  0  0  0  0
 24 25  1  0  0  0  0
 25 22  1  0  0  0  0
 26 22  1  0  0  0  0
 27 26  1  0  0  0  0
M  END
>  <MODEL>
5

>  <REMARK>
 VINA RESULT:      -6.5      5.108      7.882
  Name = 
  2 active torsions:
  status: ('A' for Active; 'I' for Inactive)
    1  A    between atoms: C_1  and  C_15
    2  A    between atoms: C_9  and  C_15
                            x       y       z     vdW  Elec       q    Type
                         _______ _______ _______ _____ _____    ______ ____

>  <TORSDO>
F 2

$$$$
=
 OpenBabel10262420113D

 27 32  0  0  1  0  0  0  0  0999 V2000
  189.7520  177.7690  145.9160 C   0  0  2  0  0  3  0  0  0  0  0  0
  188.3840  178.3170  145.9820 N   0  0  2  0  0  0  0  0  0  0  0  0
  188.4870  177.1070  144.0120 C   0  0  2  0  0  0  0  0  0  0  0  0
  184.4310  179.3450  145.6570 N   0  0  0  0  0  0  0  0  0  0  0  0
  182.6040  179.1150  143.9690 C   0  0  0  0  0  1  0  0  0  0  0  0
  187.7630  178.4620  147.3010 C   0  0  0  0  0  2  0  0  0  0  0  0
  185.1110  177.8780  143.7080 S   0  0  0  0  0  0  0  0  0  0  0  0
  190.5600  177.7880  142.1600 C   0  0  0  0  0  0  0  0  0  0  0  0
  188.1280  175.8770  143.2190 C   0  0  0  0  0  2  0  0  0  0  0  0
  191.7180  177.8780  141.2210 C   0  0  0  0  0  1  0  0  0  0  0  0
  186.2680  178.1550  144.8960 C   0  0  0  0  0  0  0  0  0  0  0  0
  183.9730  178.8540  144.4830 C   0  0  0  0  0  0  0  0  0  0  0  0
  185.7020  178.9330  145.9000 C   0  0  0  0  0  0  0  0  0  0  0  0
  189.9250  177.1850  144.5030 C   0  0  1  0  0  3  0  0  0  0  0  0
  187.5620  177.4540  145.1460 C   0  0  2  0  0  3  0  0  0  0  0  0
  189.3730  177.3840  141.6790 C   0  0  0  0  0  3  0  0  0  0  0  0
  186.4640  179.2900  147.1590 C   0  0  0  0  0  2  0  0  0  0  0  0
  192.0550  178.1530  143.9990 O   0  0  0  0  0  1  0  0  0  0  0  0
  190.7110  178.1540  143.6210 C   0  0  1  0  0  3  0  0  0  0  0  0
  188.1370  177.2500  142.5360 C   0  0  2  0  0  3  0  0  0  0  0  0
  190.0820  176.7430  147.0180 C   0  0  0  0  0  2  0  0  0  0  0  0
  193.5290  176.6990  149.5610 C   0  0  0  0  0  2  0  0  0  0  0  0
  191.4410  176.9520  147.6750 C   0  0  2  0  0  3  0  0  0  0  0  0
  192.2200  175.6280  147.6750 C   0  0  0  0  0  2  0  0  0  0  0  0
  192.9450  175.3980  149.0030 C   0  0  0  0  0  2  0  0  0  0  0  0
  192.5560  177.8780  149.3940 C   0  0  0  0  0  2  0  0  0  0  0  0
  191.2810  177.4450  148.9830 O   0  0  0  0  0  0  0  0  0  0  0  0
  1  2  1  0  0  0  0
  1 21  1  1  0  0  0
  2  6  1  1  0  0  0
  3  9  1  1  0  0  0
  3 14  1  0  0  0  0
  3 15  1  0  0  0  0
  4 13  1  0  0  0  0
  5 12  1  0  0  0  0
  7 12  1  0  0  0  0
  7 11  1  0  0  0  0
  8 19  1  0  0  0  0
 10  8  1  0  0  0  0
 11 15  1  0  0  0  0
 11 13  2  0  0  0  0
 12  4  2  0  0  0  0
 13 17  1  0  0  0  0
 14  1  1  0  0  0  0
 15  2  1  0  0  0  0
 16  8  2  0  0  0  0
 16 20  1  0  0  0  0
 17  6  1  0  0  0  0
 19 18  1  0  0  0  0
 19 14  1  0  0  0  0
 20  9  1  0  0  0  0
 20  3  1  0  0  0  0
 21 23  1  0  0  0  0
 23 24  1  0  0  0  0
 23 27  1  0  0  0  0
 24 25  1  0  0  0  0
 25 22  1  0  0  0  0
 26 22  1  0  0  0  0
 27 26  1  0  0  0  0
M  END
>  <MODEL>
6

>  <REMARK>
 VINA RESULT:      -6.5      3.544      6.448
  Name = 
  2 active torsions:
  status: ('A' for Active; 'I' for Inactive)
    1  A    between atoms: C_1  and  C_15
    2  A    between atoms: C_9  and  C_15
                            x       y       z     vdW  Elec       q    Type
                         _______ _______ _______ _____ _____    ______ ____

>  <TORSDO>
F 2

$$$$
=
 OpenBabel10262420113D

 27 32  0  0  1  0  0  0  0  0999 V2000
  185.0780  178.6470  142.6050 C   0  0  2  0  0  3  0  0  0  0  0  0
  186.2910  178.6520  141.7660 N   0  0  2  0  0  0  0  0  0  0  0  0
  186.8460  177.4630  143.6710 C   0  0  2  0  0  0  0  0  0  0  0  0
  189.8790  178.1240  139.8600 N   0  0  0  0  0  0  0  0  0  0  0  0
  192.1150  177.1440  140.3890 C   0  0  0  0  0  1  0  0  0  0  0  0
  186.1200  178.6280  140.3110 C   0  0  0  0  0  2  0  0  0  0  0  0
  189.8880  176.9100  142.0830 S   0  0  0  0  0  0  0  0  0  0  0  0
  186.4550  178.7620  146.1910 C   0  0  0  0  0  0  0  0  0  0  0  0
  187.1270  176.1460  144.3490 C   0  0  0  0  0  2  0  0  0  0  0  0
  186.0870  179.2230  147.5630 C   0  0  0  0  0  1  0  0  0  0  0  0
  188.4540  177.6600  141.6270 C   0  0  0  0  0  0  0  0  0  0  0  0
  190.6910  177.4360  140.6950 C   0  0  0  0  0  0  0  0  0  0  0  0
  188.6240  178.2260  140.3680 C   0  0  0  0  0  0  0  0  0  0  0  0
  185.4970  178.0930  143.9790 C   0  0  1  0  0  3  0  0  0  0  0  0
  187.0790  177.5030  142.1860 C   0  0  2  0  0  3  0  0  0  0  0  0
  187.4930  177.9210  146.0530 C   0  0  0  0  0  3  0  0  0  0  0  0
  187.4860  178.9060  139.6380 C   0  0  0  0  0  2  0  0  0  0  0  0
  184.4410  179.7530  145.3440 O   0  0  0  0  0  1  0  0  0  0  0  0
  185.6850  179.2350  144.9770 C   0  0  1  0  0  3  0  0  0  0  0  0
  187.9510  177.3850  144.7180 C   0  0  2  0  0  3  0  0  0  0  0  0
  183.8870  177.8780  142.0020 C   0  0  0  0  0  2  0  0  0  0  0  0
  179.8940  179.4200  141.8430 C   0  0  0  0  0  2  0  0  0  0  0  0
  182.6310  178.7210  141.8190 C   0  0  2  0  0  3  0  0  0  0  0  0
  181.9980  179.0030  143.1900 C   0  0  0  0  0  2  0  0  0  0  0  0
  180.4740  178.8680  143.1480 C   0  0  0  0  0  2  0  0  0  0  0  0
  180.7480  179.0220  140.6270 C   0  0  0  0  0  2  0  0  0  0  0  0
  181.7220  178.0640  140.9680 O   0  0  0  0  0  0  0  0  0  0  0  0
  1 21  1  6  0  0  0
  1 14  1  0  0  0  0
  2  6  1  6  0  0  0
  2 15  1  0  0  0  0
  2  1  1  0  0  0  0
  3 14  1  0  0  0  0
  3  9  1  1  0  0  0
  3 20  1  0  0  0  0
  4 13  1  0  0  0  0
  4 12  2  0  0  0  0
  5 12  1  0  0  0  0
  8 10  1  0  0  0  0
  9 20  1  0  0  0  0
 11  7  1  0  0  0  0
 11 15  1  0  0  0  0
 12  7  1  0  0  0  0
 13 11  2  0  0  0  0
 14 19  1  0  0  0  0
 15  3  1  0  0  0  0
 16  8  2  0  0  0  0
 17  6  1  0  0  0  0
 17 13  1  0  0  0  0
 19 18  1  0  0  0  0
 19  8  1  0  0  0  0
 20 16  1  0  0  0  0
 22 25  1  0  0  0  0
 23 21  1  0  0  0  0
 23 24  1  0  0  0  0
 25 24  1  0  0  0  0
 26 27  1  0  0  0  0
 26 22  1  0  0  0  0
 27 23  1  0  0  0  0
M  END
>  <MODEL>
7

>  <REMARK>
 VINA RESULT:      -6.5      2.793      6.478
  Name = 
  2 active torsions:
  status: ('A' for Active; 'I' for Inactive)
    1  A    between atoms: C_1  and  C_15
    2  A    between atoms: C_9  and  C_15
                            x       y       z     vdW  Elec       q    Type
                         _______ _______ _______ _____ _____    ______ ____

>  <TORSDO>
F 2

$$$$
=
 OpenBabel10262420113D

 27 32  0  0  1  0  0  0  0  0999 V2000
  183.3050  179.3440  138.8800 C   0  0  2  0  0  3  0  0  0  0  0  0
  184.0420  179.3020  140.1570 N   0  0  2  0  0  0  0  0  0  0  0  0
  181.8080  179.0620  140.7090 C   0  0  2  0  0  0  0  0  0  0  0  0
  185.4810  178.9060  143.9730 N   0  0  0  0  0  0  0  0  0  0  0  0
  184.5430  178.7120  146.2800 C   0  0  0  0  0  1  0  0  0  0  0  0
  185.3780  178.7010  140.1610 C   0  0  0  0  0  2  0  0  0  0  0  0
  182.9610  178.6430  143.9610 S   0  0  0  0  0  0  0  0  0  0  0  0
  180.0040  181.0860  139.7930 C   0  0  0  0  0  0  0  0  0  0  0  0
  180.6630  178.1900  141.1580 C   0  0  0  0  0  2  0  0  0  0  0  0
  178.9310  181.9320  139.1900 C   0  0  0  0  0  1  0  0  0  0  0  0
  183.7170  178.8330  142.4710 C   0  0  0  0  0  0  0  0  0  0  0  0
  184.4190  178.7760  144.8010 C   0  0  0  0  0  0  0  0  0  0  0  0
  185.0910  178.9110  142.6720 C   0  0  0  0  0  0  0  0  0  0  0  0
  181.8110  179.4480  139.2380 C   0  0  1  0  0  3  0  0  0  0  0  0
  183.1840  178.5970  141.0970 C   0  0  2  0  0  3  0  0  0  0  0  0
  179.7720  180.5060  140.9810 C   0  0  0  0  0  3  0  0  0  0  0  0
  186.0630  179.0020  141.5150 C   0  0  0  0  0  2  0  0  0  0  0  0
  181.2310  181.2210  137.7370 O   0  0  0  0  0  1  0  0  0  0  0  0
  181.3300  180.8910  139.0900 C   0  0  1  0  0  3  0  0  0  0  0  0
  180.7790  179.6260  141.6820 C   0  0  2  0  0  3  0  0  0  0  0  0
  183.5990  178.1630  137.9340 C   0  0  0  0  0  2  0  0  0  0  0  0
  180.9610  174.9650  136.8560 C   0  0  0  0  0  2  0  0  0  0  0  0
  182.4160  177.2250  137.7240 C   0  0  2  0  0  3  0  0  0  0  0  0
  182.6650  175.9090  138.4760 C   0  0  0  0  0  2  0  0  0  0  0  0
  182.2460  174.6950  137.6430 C   0  0  0  0  0  2  0  0  0  0  0  0
  180.9560  176.3740  136.2410 C   0  0  0  0  0  2  0  0  0  0  0  0
  182.2160  176.9930  136.3500 O   0  0  0  0  0  0  0  0  0  0  0  0
  1 21  1  1  0  0  0
  1 14  1  0  0  0  0
  1  2  1  0  0  0  0
  2  6  1  6  0  0  0
  2 15  1  0  0  0  0
  3 15  1  0  0  0  0
  3  9  1  6  0  0  0
  3 20  1  0  0  0  0
  4 12  2  0  0  0  0
  6 17  1  0  0  0  0
  7 12  1  0  0  0  0
  8 16  2  0  0  0  0
  9 20  1  0  0  0  0
 10  8  1  0  0  0  0
 11 13  2  0  0  0  0
 11  7  1  0  0  0  0
 12  5  1  0  0  0  0
 13  4  1  0  0  0  0
 14  3  1  0  0  0  0
 15 11  1  0  0  0  0
 16 20  1  0  0  0  0
 17 13  1  0  0  0  0
 18 19  1  0  0  0  0
 19 14  1  0  0  0  0
 19  8  1  0  0  0  0
 22 25  1  0  0  0  0
 23 21  1  0  0  0  0
 23 24  1  0  0  0  0
 25 24  1  0  0  0  0
 26 27  1  0  0  0  0
 26 22  1  0  0  0  0
 27 23  1  0  0  0  0
M  END
>  <MODEL>
8

>  <REMARK>
 VINA RESULT:      -6.3      3.455      6.741
  Name = 
  2 active torsions:
  status: ('A' for Active; 'I' for Inactive)
    1  A    between atoms: C_1  and  C_15
    2  A    between atoms: C_9  and  C_15
                            x       y       z     vdW  Elec       q    Type
                         _______ _______ _______ _____ _____    ______ ____

>  <TORSDO>
F 2

$$$$
=
 OpenBabel10262420113D

 27 32  0  0  1  0  0  0  0  0999 V2000
  185.0600  178.4730  139.2920 C   0  0  2  0  0  3  0  0  0  0  0  0
  185.5150  178.2010  140.6690 N   0  0  2  0  0  0  0  0  0  0  0  0
  187.4280  178.2510  139.3690 C   0  0  2  0  0  0  0  0  0  0  0  0
  187.4310  177.6370  144.2460 N   0  0  0  0  0  0  0  0  0  0  0  0
  189.7640  177.2180  145.0360 C   0  0  0  0  0  1  0  0  0  0  0  0
  184.7660  178.8070  141.7730 C   0  0  0  0  0  2  0  0  0  0  0  0
  189.1260  177.8480  142.3750 S   0  0  0  0  0  0  0  0  0  0  0  0
  187.5280  176.4950  137.1120 C   0  0  0  0  0  0  0  0  0  0  0  0
  188.6830  178.9590  138.9240 C   0  0  0  0  0  2  0  0  0  0  0  0
  187.6180  175.8110  135.7870 C   0  0  0  0  0  1  0  0  0  0  0  0
  187.5080  178.0590  141.9680 C   0  0  0  0  0  0  0  0  0  0  0  0
  188.7560  177.5320  143.9910 C   0  0  0  0  0  0  0  0  0  0  0  0
  186.7390  177.9570  143.1220 C   0  0  0  0  0  0  0  0  0  0  0  0
  186.2760  178.2530  138.3750 C   0  0  1  0  0  3  0  0  0  0  0  0
  186.9050  178.6280  140.7270 C   0  0  2  0  0  3  0  0  0  0  0  0
  188.6630  176.7480  137.7820 C   0  0  0  0  0  3  0  0  0  0  0  0
  185.2420  178.1830  143.1070 C   0  0  0  0  0  2  0  0  0  0  0  0
  185.2010  176.9120  136.7090 O   0  0  0  0  0  1  0  0  0  0  0  0
  186.1890  176.8870  137.6960 C   0  0  1  0  0  3  0  0  0  0  0  0
  188.6940  177.4380  139.1240 C   0  0  2  0  0  3  0  0  0  0  0  0
  184.4210  179.8620  139.0940 C   0  0  0  0  0  2  0  0  0  0  0  0
  180.3290  180.0160  137.8360 C   0  0  0  0  0  2  0  0  0  0  0  0
  182.9010  179.8380  138.9920 C   0  0  2  0  0  3  0  0  0  0  0  0
  182.4660  178.6770  138.0830 C   0  0  0  0  0  2  0  0  0  0  0  0
  181.3330  179.0910  137.1410 C   0  0  0  0  0  2  0  0  0  0  0  0
  181.0340  181.0600  138.7180 C   0  0  0  0  0  2  0  0  0  0  0  0
  182.4250  181.0680  138.5030 O   0  0  0  0  0  0  0  0  0  0  0  0
  1 21  1  1  0  0  0
  1  2  1  0  0  0  0
  2 15  1  0  0  0  0
  2  6  1  1  0  0  0
  3  9  1  6  0  0  0
  3 15  1  0  0  0  0
  6 17  1  0  0  0  0
  7 12  1  0  0  0  0
  8 19  1  0  0  0  0
  8 16  2  0  0  0  0
  9 20  1  0  0  0  0
 10  8  1  0  0  0  0
 11  7  1  0  0  0  0
 11 13  2  0  0  0  0
 12  4  2  0  0  0  0
 12  5  1  0  0  0  0
 13  4  1  0  0  0  0
 14  1  1  0  0  0  0
 14  3  1  0  0  0  0
 15 11  1  0  0  0  0
 16 20  1  0  0  0  0
 17 13  1  0  0  0  0
 18 19  1  0  0  0  0
 19 14  1  0  0  0  0
 20  3  1  0  0  0  0
 22 26  1  0  0  0  0
 23 21  1  0  0  0  0
 24 23  1  0  0  0  0
 25 22  1  0  0  0  0
 25 24  1  0  0  0  0
 27 26  1  0  0  0  0
 27 23  1  0  0  0  0
M  END
>  <MODEL>
9

>  <REMARK>
 VINA RESULT:      -6.2      3.391      7.274
  Name = 
  2 active torsions:
  status: ('A' for Active; 'I' for Inactive)
    1  A    between atoms: C_1  and  C_15
    2  A    between atoms: C_9  and  C_15
                            x       y       z     vdW  Elec       q    Type
                         _______ _______ _______ _____ _____    ______ ____

>  <TORSDO>
F 2

$$$$
