=
 OpenBabel10262419463D

 25 27  0  0  1  0  0  0  0  0999 V2000
  184.4020  178.3970  143.1510 C   0  0  0  0  0  0  0  0  0  0  0  0
  185.5770  177.9950  143.8270 C   0  0  0  0  0  0  0  0  0  0  0  0
  183.4140  178.9940  145.2230 C   0  0  0  0  0  3  0  0  0  0  0  0
  184.5400  178.6370  145.8870 N   0  0  0  0  0  0  0  0  0  0  0  0
  186.8240  177.6990  146.0390 C   0  0  2  0  0  3  0  0  0  0  0  0
  187.1600  178.6920  147.1370 C   0  0  0  0  0  1  0  0  0  0  0  0
  186.7530  177.4360  143.0670 C   0  0  0  0  0  2  0  0  0  0  0  0
  183.3550  178.8770  143.8740 N   0  0  0  0  0  0  0  0  0  0  0  0
  188.0720  177.4650  145.1920 C   0  0  0  0  0  2  0  0  0  0  0  0
  187.7150  176.6550  143.9550 C   0  0  2  0  0  3  0  0  0  0  0  0
  185.6320  178.1630  145.2300 C   0  0  0  0  0  0  0  0  0  0  0  0
  184.2660  178.3200  141.6760 C   0  0  0  0  0  0  0  0  0  0  0  0
  184.0350  178.0930  138.8840 C   0  0  0  0  0  3  0  0  0  0  0  0
  185.1220  179.0520  140.8280 C   0  0  0  0  0  0  0  0  0  0  0  0
  185.0000  178.9360  139.4380 C   0  0  0  0  0  3  0  0  0  0  0  0
  183.1900  177.3580  139.7160 C   0  0  0  0  0  3  0  0  0  0  0  0
  186.0860  179.9080  141.3490 O   0  0  0  0  0  1  0  0  0  0  0  0
  183.3080  177.4680  141.1040 C   0  0  0  0  0  3  0  0  0  0  0  0
  188.9650  176.1480  143.2100 C   0  0  0  0  0  2  0  0  0  0  0  0
  189.8440  177.1770  142.6200 N   0  0  0  0  0  0  0  0  0  0  0  0
  189.8340  177.0620  141.2680 O   0  0  0  0  0  1  0  0  0  0  0  0
  191.2200  177.0060  143.0960 C   0  0  2  0  0  3  0  0  0  0  0  0
  191.3690  175.7670  143.7260 O   0  0  0  0  0  1  0  0  0  0  0  0
  190.8350  179.2560  143.8480 O   0  0  0  0  0  1  0  0  0  0  0  0
  191.6070  178.1150  144.0720 C   0  0  0  0  0  2  0  0  0  0  0  0
  1  2  2  0  0  0  0
  1  8  1  0  0  0  0
  2 11  1  0  0  0  0
  3  4  1  0  0  0  0
  5  6  1  1  0  0  0
  7  2  1  0  0  0  0
  7 10  1  0  0  0  0
  8  3  2  0  0  0  0
  9  5  1  0  0  0  0
 10 19  1  6  0  0  0
 10  9  1  0  0  0  0
 11  4  2  0  0  0  0
 11  5  1  0  0  0  0
 12  1  1  0  0  0  0
 13 15  2  0  0  0  0
 13 16  1  0  0  0  0
 14 17  1  0  0  0  0
 14 12  2  0  0  0  0
 15 14  1  0  0  0  0
 16 18  2  0  0  0  0
 18 12  1  0  0  0  0
 20 22  1  0  0  0  0
 20 19  1  0  0  0  0
 21 20  1  0  0  0  0
 22 23  1  1  0  0  0
 22 25  1  0  0  0  0
 24 25  1  0  0  0  0
M  END
>  <MODEL>
1

>  <REMARK>
 VINA RESULT:      -8.2      0.000      0.000
  Name = 
  5 active torsions:
  status: ('A' for Active; 'I' for Inactive)
    1  A    between atoms: C_1  and  C_5
    2  A    between atoms: C_2  and  N_15
    3  A    between atoms: C_2  and  C_21
    4  A    between atoms: C_6  and  N_15
    5  A    between atoms: C_6  and  C_23
                            x       y       z     vdW  Elec       q    Type
                         _______ _______ _______ _____ _____    ______ ____

>  <TORSDO>
F 5

$$$$
=
 OpenBabel10262419463D

 25 27  0  0  1  0  0  0  0  0999 V2000
  187.5370  178.1600  146.0010 C   0  0  0  0  0  0  0  0  0  0  0  0
  186.8240  178.2500  144.7830 C   0  0  0  0  0  0  0  0  0  0  0  0
  185.6620  179.0290  147.1640 C   0  0  0  0  0  3  0  0  0  0  0  0
  184.9530  179.1010  146.0110 N   0  0  0  0  0  0  0  0  0  0  0  0
  184.6720  178.8930  143.5620 C   0  0  2  0  0  3  0  0  0  0  0  0
  183.2360  178.4430  143.7650 C   0  0  0  0  0  1  0  0  0  0  0  0
  187.4630  177.8390  143.4810 C   0  0  0  0  0  2  0  0  0  0  0  0
  186.9340  178.5610  147.1520 N   0  0  0  0  0  0  0  0  0  0  0  0
  185.2510  178.1580  142.3580 C   0  0  0  0  0  2  0  0  0  0  0  0
  186.7470  178.4130  142.2630 C   0  0  2  0  0  3  0  0  0  0  0  0
  185.4850  178.7040  144.8240 C   0  0  0  0  0  0  0  0  0  0  0  0
  188.9240  177.6400  146.0740 C   0  0  0  0  0  0  0  0  0  0  0  0
  191.5380  176.6060  146.1440 C   0  0  0  0  0  3  0  0  0  0  0  0
  189.3190  176.7670  147.1100 C   0  0  0  0  0  0  0  0  0  0  0  0
  190.6230  176.2590  147.1400 C   0  0  0  0  0  3  0  0  0  0  0  0
  191.1520  177.4620  145.1110 C   0  0  0  0  0  3  0  0  0  0  0  0
  188.4350  176.4100  148.1210 O   0  0  0  0  0  1  0  0  0  0  0  0
  189.8520  177.9710  145.0740 C   0  0  0  0  0  3  0  0  0  0  0  0
  187.3370  177.9340  140.9220 C   0  0  0  0  0  2  0  0  0  0  0  0
  188.6990  178.3980  140.5960 N   0  0  0  0  0  0  0  0  0  0  0  0
  188.7070  178.9490  139.3560 O   0  0  0  0  0  1  0  0  0  0  0  0
  189.6410  177.2740  140.6170 C   0  0  2  0  0  3  0  0  0  0  0  0
  190.5930  177.4550  141.6250 O   0  0  0  0  0  1  0  0  0  0  0  0
  190.6690  175.7880  139.0330 O   0  0  0  0  0  1  0  0  0  0  0  0
  190.3520  177.1260  139.2750 C   0  0  0  0  0  2  0  0  0  0  0  0
  1 12  1  0  0  0  0
  1  8  1  0  0  0  0
  2 11  1  0  0  0  0
  2  1  2  0  0  0  0
  4  3  1  0  0  0  0
  5  6  1  1  0  0  0
  5 11  1  0  0  0  0
  7  2  1  0  0  0  0
  8  3  2  0  0  0  0
  9  5  1  0  0  0  0
 10 19  1  6  0  0  0
 10  9  1  0  0  0  0
 10  7  1  0  0  0  0
 11  4  2  0  0  0  0
 12 14  1  0  0  0  0
 13 15  1  0  0  0  0
 14 15  2  0  0  0  0
 14 17  1  0  0  0  0
 16 13  2  0  0  0  0
 18 16  1  0  0  0  0
 18 12  2  0  0  0  0
 20 22  1  0  0  0  0
 20 19  1  0  0  0  0
 21 20  1  0  0  0  0
 22 23  1  1  0  0  0
 24 25  1  0  0  0  0
 25 22  1  0  0  0  0
M  END
>  <MODEL>
2

>  <REMARK>
 VINA RESULT:      -8.1      2.286      5.474
  Name = 
  5 active torsions:
  status: ('A' for Active; 'I' for Inactive)
    1  A    between atoms: C_1  and  C_5
    2  A    between atoms: C_2  and  N_15
    3  A    between atoms: C_2  and  C_21
    4  A    between atoms: C_6  and  N_15
    5  A    between atoms: C_6  and  C_23
                            x       y       z     vdW  Elec       q    Type
                         _______ _______ _______ _____ _____    ______ ____

>  <TORSDO>
F 5

$$$$
=
 OpenBabel10262419463D

 25 27  0  0  1  0  0  0  0  0999 V2000
  186.8250  177.8760  145.1860 C   0  0  0  0  0  0  0  0  0  0  0  0
  187.9390  177.6160  144.3550 C   0  0  0  0  0  0  0  0  0  0  0  0
  188.1640  177.4860  147.1040 C   0  0  0  0  0  3  0  0  0  0  0  0
  189.2500  177.2570  146.3250 N   0  0  0  0  0  0  0  0  0  0  0  0
  190.4070  176.9820  144.1560 C   0  0  2  0  0  3  0  0  0  0  0  0
  191.6540  177.6240  144.7390 C   0  0  0  0  0  1  0  0  0  0  0  0
  187.8120  177.6730  142.8530 C   0  0  0  0  0  2  0  0  0  0  0  0
  186.9730  177.7940  146.5360 N   0  0  0  0  0  0  0  0  0  0  0  0
  190.2910  177.3800  142.6880 C   0  0  0  0  0  2  0  0  0  0  0  0
  188.9420  176.9430  142.1370 C   0  0  2  0  0  3  0  0  0  0  0  0
  189.1810  177.3350  144.9700 C   0  0  0  0  0  0  0  0  0  0  0  0
  185.4930  178.2400  144.6430 C   0  0  0  0  0  0  0  0  0  0  0  0
  183.0050  178.9990  143.5770 C   0  0  0  0  0  3  0  0  0  0  0  0
  184.4580  178.6820  145.4930 C   0  0  0  0  0  0  0  0  0  0  0  0
  183.2210  179.0550  144.9550 C   0  0  0  0  0  3  0  0  0  0  0  0
  184.0280  178.5710  142.7280 C   0  0  0  0  0  3  0  0  0  0  0  0
  184.6380  178.7400  146.8700 O   0  0  0  0  0  1  0  0  0  0  0  0
  185.2650  178.1990  143.2590 C   0  0  0  0  0  3  0  0  0  0  0  0
  188.8740  177.0630  140.6010 C   0  0  0  0  0  2  0  0  0  0  0  0
  188.5690  178.4010  140.0570 N   0  0  0  0  0  0  0  0  0  0  0  0
  187.2510  178.4740  139.7430 O   0  0  0  0  0  1  0  0  0  0  0  0
  189.3560  178.6500  138.8450 C   0  0  2  0  0  3  0  0  0  0  0  0
  188.5910  179.3420  137.9000 O   0  0  0  0  0  1  0  0  0  0  0  0
  189.9060  177.4460  136.8390 O   0  0  0  0  0  1  0  0  0  0  0  0
  189.8500  177.3430  138.2300 C   0  0  0  0  0  2  0  0  0  0  0  0
  1  8  1  0  0  0  0
  2 11  1  0  0  0  0
  2  1  2  0  0  0  0
  4  3  1  0  0  0  0
  5  6  1  1  0  0  0
  5 11  1  0  0  0  0
  7  2  1  0  0  0  0
  8  3  2  0  0  0  0
  9  5  1  0  0  0  0
 10 19  1  6  0  0  0
 10  9  1  0  0  0  0
 10  7  1  0  0  0  0
 11  4  2  0  0  0  0
 12  1  1  0  0  0  0
 12 14  1  0  0  0  0
 13 15  1  0  0  0  0
 14 17  1  0  0  0  0
 15 14  2  0  0  0  0
 16 18  1  0  0  0  0
 16 13  2  0  0  0  0
 18 12  2  0  0  0  0
 20 19  1  0  0  0  0
 21 20  1  0  0  0  0
 22 23  1  6  0  0  0
 22 20  1  0  0  0  0
 24 25  1  0  0  0  0
 25 22  1  0  0  0  0
M  END
>  <MODEL>
3

>  <REMARK>
 VINA RESULT:      -8.1      2.725      4.505
  Name = 
  5 active torsions:
  status: ('A' for Active; 'I' for Inactive)
    1  A    between atoms: C_1  and  C_5
    2  A    between atoms: C_2  and  N_15
    3  A    between atoms: C_2  and  C_21
    4  A    between atoms: C_6  and  N_15
    5  A    between atoms: C_6  and  C_23
                            x       y       z     vdW  Elec       q    Type
                         _______ _______ _______ _____ _____    ______ ____

>  <TORSDO>
F 5

$$$$
=
 OpenBabel10262419463D

 25 27  0  0  1  0  0  0  0  0999 V2000
  186.7620  177.9240  144.9170 C   0  0  0  0  0  0  0  0  0  0  0  0
  185.6540  178.2120  144.0860 C   0  0  0  0  0  0  0  0  0  0  0  0
  185.5700  178.7510  146.7930 C   0  0  0  0  0  3  0  0  0  0  0  0
  184.4890  179.0120  146.0180 N   0  0  0  0  0  0  0  0  0  0  0  0
  183.2810  179.1350  143.8630 C   0  0  2  0  0  3  0  0  0  0  0  0
  181.9900  178.7510  144.5640 C   0  0  0  0  0  1  0  0  0  0  0  0
  185.7050  177.9300  142.6050 C   0  0  0  0  0  2  0  0  0  0  0  0
  186.6860  178.2110  146.2440 N   0  0  0  0  0  0  0  0  0  0  0  0
  183.2800  178.5250  142.4650 C   0  0  0  0  0  2  0  0  0  0  0  0
  184.6470  178.6980  141.8210 C   0  0  2  0  0  3  0  0  0  0  0  0
  184.4870  178.7380  144.6860 C   0  0  0  0  0  0  0  0  0  0  0  0
  188.0100  177.3140  144.3970 C   0  0  0  0  0  0  0  0  0  0  0  0
  190.3480  176.0810  143.4380 C   0  0  0  0  0  3  0  0  0  0  0  0
  189.2540  177.5660  145.0130 C   0  0  0  0  0  0  0  0  0  0  0  0
  190.4140  176.9510  144.5280 C   0  0  0  0  0  3  0  0  0  0  0  0
  189.1200  175.8200  142.8280 C   0  0  0  0  0  3  0  0  0  0  0  0
  189.3540  178.4340  146.0940 O   0  0  0  0  0  1  0  0  0  0  0  0
  187.9580  176.4290  143.3080 C   0  0  0  0  0  3  0  0  0  0  0  0
  184.6300  178.3570  140.3180 C   0  0  0  0  0  2  0  0  0  0  0  0
  185.3420  179.2890  139.4220 N   0  0  0  0  0  0  0  0  0  0  0  0
  184.5020  180.2830  139.0390 O   0  0  0  0  0  1  0  0  0  0  0  0
  185.8150  178.5860  138.2260 C   0  0  2  0  0  3  0  0  0  0  0  0
  184.8870  177.6180  137.8290 O   0  0  0  0  0  1  0  0  0  0  0  0
  187.9070  178.6430  139.4080 O   0  0  0  0  0  1  0  0  0  0  0  0
  187.1640  177.9150  138.4770 C   0  0  0  0  0  2  0  0  0  0  0  0
  1  8  1  0  0  0  0
  2 11  1  0  0  0  0
  2  1  2  0  0  0  0
  4  3  1  0  0  0  0
  5  6  1  1  0  0  0
  5 11  1  0  0  0  0
  7  2  1  0  0  0  0
  8  3  2  0  0  0  0
  9  5  1  0  0  0  0
 10 19  1  6  0  0  0
 10  9  1  0  0  0  0
 10  7  1  0  0  0  0
 11  4  2  0  0  0  0
 12  1  1  0  0  0  0
 12 14  1  0  0  0  0
 13 15  1  0  0  0  0
 14 17  1  0  0  0  0
 15 14  2  0  0  0  0
 16 18  1  0  0  0  0
 16 13  2  0  0  0  0
 18 12  2  0  0  0  0
 20 19  1  0  0  0  0
 21 20  1  0  0  0  0
 22 23  1  1  0  0  0
 22 25  1  0  0  0  0
 22 20  1  0  0  0  0
 25 24  1  0  0  0  0
M  END
>  <MODEL>
4

>  <REMARK>
 VINA RESULT:      -8.0      2.033      5.509
  Name = 
  5 active torsions:
  status: ('A' for Active; 'I' for Inactive)
    1  A    between atoms: C_1  and  C_5
    2  A    between atoms: C_2  and  N_15
    3  A    between atoms: C_2  and  C_21
    4  A    between atoms: C_6  and  N_15
    5  A    between atoms: C_6  and  C_23
                            x       y       z     vdW  Elec       q    Type
                         _______ _______ _______ _____ _____    ______ ____

>  <TORSDO>
F 5

$$$$
=
 OpenBabel10262419463D

 25 27  0  0  1  0  0  0  0  0999 V2000
  186.8840  177.8070  145.0210 C   0  0  0  0  0  0  0  0  0  0  0  0
  185.8480  178.1980  144.1410 C   0  0  0  0  0  0  0  0  0  0  0  0
  185.5110  178.3500  146.8770 C   0  0  0  0  0  3  0  0  0  0  0  0
  184.4980  178.7060  146.0510 N   0  0  0  0  0  0  0  0  0  0  0  0
  183.4840  179.1190  143.8330 C   0  0  2  0  0  3  0  0  0  0  0  0
  182.1440  178.6280  144.3530 C   0  0  0  0  0  1  0  0  0  0  0  0
  186.0370  178.1290  142.6460 C   0  0  0  0  0  2  0  0  0  0  0  0
  186.6830  177.9040  146.3630 N   0  0  0  0  0  0  0  0  0  0  0  0
  183.6210  178.7130  142.3690 C   0  0  0  0  0  2  0  0  0  0  0  0
  185.0360  178.9890  141.8830 C   0  0  2  0  0  3  0  0  0  0  0  0
  184.6210  178.6230  144.6990 C   0  0  0  0  0  0  0  0  0  0  0  0
  188.1870  177.2890  144.5370 C   0  0  0  0  0  0  0  0  0  0  0  0
  190.6290  176.2280  143.6360 C   0  0  0  0  0  3  0  0  0  0  0  0
  189.3720  177.5050  145.2710 C   0  0  0  0  0  0  0  0  0  0  0  0
  190.5850  176.9760  144.8150 C   0  0  0  0  0  3  0  0  0  0  0  0
  189.4590  176.0020  142.9100 C   0  0  0  0  0  3  0  0  0  0  0  0
  189.3630  178.2530  146.4420 O   0  0  0  0  0  1  0  0  0  0  0  0
  188.2460  176.5260  143.3600 C   0  0  0  0  0  3  0  0  0  0  0  0
  185.1610  178.8630  140.3520 C   0  0  0  0  0  2  0  0  0  0  0  0
  183.9630  178.3950  139.6280 N   0  0  0  0  0  0  0  0  0  0  0  0
  184.2940  177.3480  138.8320 O   0  0  0  0  0  1  0  0  0  0  0  0
  183.4210  179.4700  138.7900 C   0  0  2  0  0  3  0  0  0  0  0  0
  184.1810  180.6350  138.9390 O   0  0  0  0  0  1  0  0  0  0  0  0
  181.2970  178.5940  139.4940 O   0  0  0  0  0  1  0  0  0  0  0  0
  181.9680  179.7680  139.1480 C   0  0  0  0  0  2  0  0  0  0  0  0
  1  8  1  0  0  0  0
  2 11  1  0  0  0  0
  2  1  2  0  0  0  0
  4  3  1  0  0  0  0
  5  6  1  1  0  0  0
  5 11  1  0  0  0  0
  7  2  1  0  0  0  0
  8  3  2  0  0  0  0
  9  5  1  0  0  0  0
 10 19  1  6  0  0  0
 10  9  1  0  0  0  0
 10  7  1  0  0  0  0
 11  4  2  0  0  0  0
 12  1  1  0  0  0  0
 12 14  1  0  0  0  0
 13 15  1  0  0  0  0
 14 17  1  0  0  0  0
 15 14  2  0  0  0  0
 16 18  1  0  0  0  0
 16 13  2  0  0  0  0
 18 12  2  0  0  0  0
 20 19  1  0  0  0  0
 21 20  1  0  0  0  0
 22 23  1  1  0  0  0
 22 25  1  0  0  0  0
 22 20  1  0  0  0  0
 25 24  1  0  0  0  0
M  END
>  <MODEL>
5

>  <REMARK>
 VINA RESULT:      -8.0      2.236      6.264
  Name = 
  5 active torsions:
  status: ('A' for Active; 'I' for Inactive)
    1  A    between atoms: C_1  and  C_5
    2  A    between atoms: C_2  and  N_15
    3  A    between atoms: C_2  and  C_21
    4  A    between atoms: C_6  and  N_15
    5  A    between atoms: C_6  and  C_23
                            x       y       z     vdW  Elec       q    Type
                         _______ _______ _______ _____ _____    ______ ____

>  <TORSDO>
F 5

$$$$
=
 OpenBabel10262419463D

 25 27  0  0  1  0  0  0  0  0999 V2000
  187.0630  177.7900  145.1430 C   0  0  0  0  0  0  0  0  0  0  0  0
  186.0800  178.2080  144.2170 C   0  0  0  0  0  0  0  0  0  0  0  0
  185.5840  178.2740  146.9320 C   0  0  0  0  0  3  0  0  0  0  0  0
  184.6200  178.6560  146.0590 N   0  0  0  0  0  0  0  0  0  0  0  0
  183.7360  179.1380  143.8000 C   0  0  2  0  0  3  0  0  0  0  0  0
  182.3700  178.6310  144.2240 C   0  0  0  0  0  1  0  0  0  0  0  0
  186.3570  178.1860  142.7340 C   0  0  0  0  0  2  0  0  0  0  0  0
  186.7840  177.8450  146.4730 N   0  0  0  0  0  0  0  0  0  0  0  0
  183.9590  178.7780  142.3340 C   0  0  0  0  0  2  0  0  0  0  0  0
  185.4000  179.0690  141.9410 C   0  0  2  0  0  3  0  0  0  0  0  0
  184.8210  178.6150  144.7150 C   0  0  0  0  0  0  0  0  0  0  0  0
  188.3940  177.2880  144.7200 C   0  0  0  0  0  0  0  0  0  0  0  0
  190.8880  176.2560  143.9340 C   0  0  0  0  0  3  0  0  0  0  0  0
  189.5400  177.5090  145.5120 C   0  0  0  0  0  0  0  0  0  0  0  0
  190.7780  176.9950  145.1130 C   0  0  0  0  0  3  0  0  0  0  0  0
  189.7570  176.0250  143.1490 C   0  0  0  0  0  3  0  0  0  0  0  0
  189.4660  178.2490  146.6870 O   0  0  0  0  0  1  0  0  0  0  0  0
  188.5180  176.5340  143.5430 C   0  0  0  0  0  3  0  0  0  0  0  0
  185.6150  178.9920  140.4170 C   0  0  0  0  0  2  0  0  0  0  0  0
  186.8010  178.2480  139.9540 N   0  0  0  0  0  0  0  0  0  0  0  0
  187.9130  179.0040  140.1380 O   0  0  0  0  0  1  0  0  0  0  0  0
  186.6800  177.9290  138.5280 C   0  0  2  0  0  3  0  0  0  0  0  0
  187.4580  178.8040  137.7640 O   0  0  0  0  0  1  0  0  0  0  0  0
  184.8790  176.8770  137.3340 O   0  0  0  0  0  1  0  0  0  0  0  0
  185.2280  178.0140  138.0650 C   0  0  0  0  0  2  0  0  0  0  0  0
  1  8  1  0  0  0  0
  2 11  1  0  0  0  0
  2  1  2  0  0  0  0
  4  3  1  0  0  0  0
  5  6  1  1  0  0  0
  5 11  1  0  0  0  0
  7  2  1  0  0  0  0
  8  3  2  0  0  0  0
  9  5  1  0  0  0  0
 10 19  1  6  0  0  0
 10  9  1  0  0  0  0
 10  7  1  0  0  0  0
 11  4  2  0  0  0  0
 12  1  1  0  0  0  0
 12 14  1  0  0  0  0
 13 15  1  0  0  0  0
 14 17  1  0  0  0  0
 15 14  2  0  0  0  0
 16 18  1  0  0  0  0
 16 13  2  0  0  0  0
 18 12  2  0  0  0  0
 20 21  1  0  0  0  0
 20 19  1  0  0  0  0
 22 23  1  6  0  0  0
 22 20  1  0  0  0  0
 24 25  1  0  0  0  0
 25 22  1  0  0  0  0
M  END
>  <MODEL>
6

>  <REMARK>
 VINA RESULT:      -7.7      2.095      5.648
  Name = 
  5 active torsions:
  status: ('A' for Active; 'I' for Inactive)
    1  A    between atoms: C_1  and  C_5
    2  A    between atoms: C_2  and  N_15
    3  A    between atoms: C_2  and  C_21
    4  A    between atoms: C_6  and  N_15
    5  A    between atoms: C_6  and  C_23
                            x       y       z     vdW  Elec       q    Type
                         _______ _______ _______ _____ _____    ______ ____

>  <TORSDO>
F 5

$$$$
=
 OpenBabel10262419463D

 25 27  0  0  1  0  0  0  0  0999 V2000
  189.8920  177.8710  142.6690 C   0  0  0  0  0  0  0  0  0  0  0  0
  189.2840  177.7260  143.9370 C   0  0  0  0  0  0  0  0  0  0  0  0
  192.0240  177.9700  143.7030 C   0  0  0  0  0  3  0  0  0  0  0  0
  191.4630  177.8080  144.9260 N   0  0  0  0  0  0  0  0  0  0  0  0
  189.5480  177.5730  146.4750 C   0  0  2  0  0  3  0  0  0  0  0  0
  190.3630  176.6270  147.3400 C   0  0  0  0  0  1  0  0  0  0  0  0
  187.7860  177.6070  144.0670 C   0  0  0  0  0  2  0  0  0  0  0  0
  191.2440  177.9960  142.5950 N   0  0  0  0  0  0  0  0  0  0  0  0
  188.0890  177.1290  146.5030 C   0  0  0  0  0  2  0  0  0  0  0  0
  187.2880  177.9130  145.4750 C   0  0  2  0  0  3  0  0  0  0  0  0
  190.1190  177.6610  145.0760 C   0  0  0  0  0  0  0  0  0  0  0  0
  189.1110  177.8880  141.4080 C   0  0  0  0  0  0  0  0  0  0  0  0
  187.5670  177.8780  139.0590 C   0  0  0  0  0  3  0  0  0  0  0  0
  189.5150  177.1260  140.2920 C   0  0  0  0  0  0  0  0  0  0  0  0
  188.7430  177.1290  139.1250 C   0  0  0  0  0  3  0  0  0  0  0  0
  187.1550  178.6270  140.1620 C   0  0  0  0  0  3  0  0  0  0  0  0
  190.6860  176.3770  140.3230 O   0  0  0  0  0  1  0  0  0  0  0  0
  187.9200  178.6280  141.3300 C   0  0  0  0  0  3  0  0  0  0  0  0
  185.7690  177.7140  145.6450 C   0  0  0  0  0  2  0  0  0  0  0  0
  184.9090  178.8580  145.2870 N   0  0  0  0  0  0  0  0  0  0  0  0
  183.9330  179.0030  146.2180 O   0  0  0  0  0  1  0  0  0  0  0  0
  184.2820  178.6350  143.9800 C   0  0  2  0  0  3  0  0  0  0  0  0
  184.9260  179.3910  142.9950 O   0  0  0  0  0  1  0  0  0  0  0  0
  182.2050  178.7320  142.7760 O   0  0  0  0  0  1  0  0  0  0  0  0
  182.8010  179.0050  144.0080 C   0  0  0  0  0  2  0  0  0  0  0  0
  1  2  1  0  0  0  0
  2  7  1  0  0  0  0
  2 11  2  0  0  0  0
  3  4  2  0  0  0  0
  4 11  1  0  0  0  0
  5  9  1  0  0  0  0
  5  6  1  1  0  0  0
  7 10  1  0  0  0  0
  8  1  2  0  0  0  0
  8  3  1  0  0  0  0
 10 19  1  6  0  0  0
 10  9  1  0  0  0  0
 11  5  1  0  0  0  0
 12  1  1  0  0  0  0
 13 15  2  0  0  0  0
 13 16  1  0  0  0  0
 14 17  1  0  0  0  0
 14 12  2  0  0  0  0
 15 14  1  0  0  0  0
 16 18  2  0  0  0  0
 18 12  1  0  0  0  0
 20 19  1  0  0  0  0
 20 21  1  0  0  0  0
 22 23  1  6  0  0  0
 22 25  1  0  0  0  0
 22 20  1  0  0  0  0
 24 25  1  0  0  0  0
M  END
>  <MODEL>
7

>  <REMARK>
 VINA RESULT:      -7.7      2.431      5.711
  Name = 
  5 active torsions:
  status: ('A' for Active; 'I' for Inactive)
    1  A    between atoms: C_1  and  C_5
    2  A    between atoms: C_2  and  N_15
    3  A    between atoms: C_2  and  C_21
    4  A    between atoms: C_6  and  N_15
    5  A    between atoms: C_6  and  C_23
                            x       y       z     vdW  Elec       q    Type
                         _______ _______ _______ _____ _____    ______ ____

>  <TORSDO>
F 5

$$$$
=
 OpenBabel10262419463D

 25 27  0  0  1  0  0  0  0  0999 V2000
  186.0850  178.4700  142.6010 C   0  0  0  0  0  0  0  0  0  0  0  0
  187.3240  178.2040  141.9740 C   0  0  0  0  0  0  0  0  0  0  0  0
  185.1060  178.9010  140.4850 C   0  0  0  0  0  3  0  0  0  0  0  0
  186.2780  178.6270  139.8620 N   0  0  0  0  0  0  0  0  0  0  0  0
  188.6830  178.0520  139.8140 C   0  0  2  0  0  3  0  0  0  0  0  0
  188.4640  177.2380  138.5510 C   0  0  0  0  0  1  0  0  0  0  0  0
  188.5390  177.8370  142.7880 C   0  0  0  0  0  2  0  0  0  0  0  0
  185.0170  178.8180  141.8340 N   0  0  0  0  0  0  0  0  0  0  0  0
  189.7600  177.3720  140.6540 C   0  0  0  0  0  2  0  0  0  0  0  0
  189.8440  178.0310  142.0230 C   0  0  2  0  0  3  0  0  0  0  0  0
  187.3840  178.2580  140.5620 C   0  0  0  0  0  0  0  0  0  0  0  0
  185.9000  178.3800  144.0700 C   0  0  0  0  0  0  0  0  0  0  0  0
  185.5330  178.1260  146.8460 C   0  0  0  0  0  3  0  0  0  0  0  0
  184.8040  179.0010  144.7040 C   0  0  0  0  0  0  0  0  0  0  0  0
  184.6290  178.8730  146.0870 C   0  0  0  0  0  3  0  0  0  0  0  0
  186.6160  177.5020  146.2240 C   0  0  0  0  0  3  0  0  0  0  0  0
  183.8920  179.7580  143.9790 O   0  0  0  0  0  1  0  0  0  0  0  0
  186.7950  177.6250  144.8450 C   0  0  0  0  0  3  0  0  0  0  0  0
  191.0900  177.5810  142.8110 C   0  0  0  0  0  2  0  0  0  0  0  0
  191.1620  177.9970  144.2250 N   0  0  0  0  0  0  0  0  0  0  0  0
  191.9920  179.0630  144.3430 O   0  0  0  0  0  1  0  0  0  0  0  0
  191.6810  176.9030  145.0530 C   0  0  2  0  0  3  0  0  0  0  0  0
  191.6480  175.6980  144.3450 O   0  0  0  0  0  1  0  0  0  0  0  0
  191.7100  176.7860  147.4530 O   0  0  0  0  0  1  0  0  0  0  0  0
  190.8710  176.7530  146.3380 C   0  0  0  0  0  2  0  0  0  0  0  0
  1 12  1  0  0  0  0
  2  1  1  0  0  0  0
  2  7  1  0  0  0  0
  3  8  1  0  0  0  0
  4  3  2  0  0  0  0
  4 11  1  0  0  0  0
  5  6  1  6  0  0  0
  5 11  1  0  0  0  0
  5  9  1  0  0  0  0
  8  1  2  0  0  0  0
  9 10  1  0  0  0  0
 10  7  1  0  0  0  0
 10 19  1  1  0  0  0
 11  2  2  0  0  0  0
 12 14  2  0  0  0  0
 12 18  1  0  0  0  0
 14 15  1  0  0  0  0
 15 13  2  0  0  0  0
 16 13  1  0  0  0  0
 17 14  1  0  0  0  0
 18 16  2  0  0  0  0
 19 20  1  0  0  0  0
 20 21  1  0  0  0  0
 20 22  1  0  0  0  0
 22 23  1  6  0  0  0
 22 25  1  0  0  0  0
 25 24  1  0  0  0  0
M  END
>  <MODEL>
8

>  <REMARK>
 VINA RESULT:      -7.7      2.344      4.692
  Name = 
  5 active torsions:
  status: ('A' for Active; 'I' for Inactive)
    1  A    between atoms: C_1  and  C_5
    2  A    between atoms: C_2  and  N_15
    3  A    between atoms: C_2  and  C_21
    4  A    between atoms: C_6  and  N_15
    5  A    between atoms: C_6  and  C_23
                            x       y       z     vdW  Elec       q    Type
                         _______ _______ _______ _____ _____    ______ ____

>  <TORSDO>
F 5

$$$$
=
 OpenBabel10262419463D

 25 27  0  0  1  0  0  0  0  0999 V2000
  189.2950  177.0770  144.3670 C   0  0  0  0  0  0  0  0  0  0  0  0
  188.5470  177.5040  143.2450 C   0  0  0  0  0  0  0  0  0  0  0  0
  190.9270  176.1420  142.9230 C   0  0  0  0  0  3  0  0  0  0  0  0
  190.2370  176.5630  141.8350 N   0  0  0  0  0  0  0  0  0  0  0  0
  188.3080  177.6200  140.7030 C   0  0  2  0  0  3  0  0  0  0  0  0
  189.2370  178.1730  139.6360 C   0  0  0  0  0  1  0  0  0  0  0  0
  187.2400  178.2350  143.4210 C   0  0  0  0  0  2  0  0  0  0  0  0
  190.4590  176.4020  144.1680 N   0  0  0  0  0  0  0  0  0  0  0  0
  187.1910  178.6280  140.9510 C   0  0  0  0  0  2  0  0  0  0  0  0
  186.3750  178.2100  142.1660 C   0  0  2  0  0  3  0  0  0  0  0  0
  189.0740  177.2560  141.9570 C   0  0  0  0  0  0  0  0  0  0  0  0
  188.8620  177.3420  145.7610 C   0  0  0  0  0  0  0  0  0  0  0  0
  188.0200  177.9230  148.3790 C   0  0  0  0  0  3  0  0  0  0  0  0
  189.7970  177.3990  146.8150 C   0  0  0  0  0  0  0  0  0  0  0  0
  189.3710  177.6850  148.1160 C   0  0  0  0  0  3  0  0  0  0  0  0
  187.0890  177.8770  147.3410 C   0  0  0  0  0  3  0  0  0  0  0  0
  191.1470  177.1580  146.5870 O   0  0  0  0  0  1  0  0  0  0  0  0
  187.5090  177.5930  146.0390 C   0  0  0  0  0  3  0  0  0  0  0  0
  185.0730  179.0250  142.3010 C   0  0  0  0  0  2  0  0  0  0  0  0
  183.8230  178.2530  142.4380 N   0  0  0  0  0  0  0  0  0  0  0  0
  183.0520  178.4380  141.3380 O   0  0  0  0  0  1  0  0  0  0  0  0
  183.0740  178.6990  143.6180 C   0  0  2  0  0  3  0  0  0  0  0  0
  181.9660  179.4610  143.2330 O   0  0  0  0  0  1  0  0  0  0  0  0
  183.9330  179.0040  145.8410 O   0  0  0  0  0  1  0  0  0  0  0  0
  183.9550  179.5290  144.5480 C   0  0  0  0  0  2  0  0  0  0  0  0
  1 12  1  0  0  0  0
  2  7  1  0  0  0  0
  2  1  2  0  0  0  0
  3  8  2  0  0  0  0
  4 11  2  0  0  0  0
  4  3  1  0  0  0  0
  5  6  1  6  0  0  0
  5  9  1  0  0  0  0
  5 11  1  0  0  0  0
  8  1  1  0  0  0  0
  9 10  1  0  0  0  0
 10 19  1  1  0  0  0
 10  7  1  0  0  0  0
 11  2  1  0  0  0  0
 12 18  2  0  0  0  0
 12 14  1  0  0  0  0
 14 15  2  0  0  0  0
 15 13  1  0  0  0  0
 16 13  2  0  0  0  0
 17 14  1  0  0  0  0
 18 16  1  0  0  0  0
 19 20  1  0  0  0  0
 20 22  1  0  0  0  0
 21 20  1  0  0  0  0
 22 23  1  6  0  0  0
 22 25  1  0  0  0  0
 25 24  1  0  0  0  0
M  END
>  <MODEL>
9

>  <REMARK>
 VINA RESULT:      -7.7      2.434      7.017
  Name = 
  5 active torsions:
  status: ('A' for Active; 'I' for Inactive)
    1  A    between atoms: C_1  and  C_5
    2  A    between atoms: C_2  and  N_15
    3  A    between atoms: C_2  and  C_21
    4  A    between atoms: C_6  and  N_15
    5  A    between atoms: C_6  and  C_23
                            x       y       z     vdW  Elec       q    Type
                         _______ _______ _______ _____ _____    ______ ____

>  <TORSDO>
F 5

$$$$
