=
 OpenBabel10262421123D

 32 37  0  0  1  0  0  0  0  0999 V2000
  186.1000  178.4000  141.9740 C   0  0  0  0  0  0  0  0  0  0  0  0
  187.2050  178.4280  139.8860 N   0  0  0  0  0  0  0  0  0  0  0  0
  184.8050  178.2840  142.6830 C   0  0  0  0  0  3  0  0  0  0  0  0
  186.0720  178.6570  140.6680 C   0  0  0  0  0  0  0  0  0  0  0  0
  186.7810  178.2080  138.5650 C   0  0  0  0  0  0  0  0  0  0  0  0
  191.5280  176.5590  138.7300 C   0  0  0  0  0  3  0  0  0  0  0  0
  188.4020  177.8710  140.4030 C   0  0  0  0  0  0  0  0  0  0  0  0
  189.8390  176.8810  137.0850 C   0  0  0  0  0  3  0  0  0  0  0  0
  188.9460  177.3400  138.0540 C   0  0  0  0  0  0  0  0  0  0  0  0
  184.8330  178.8120  139.8450 C   0  0  2  0  0  3  0  0  0  0  0  0
  187.5880  177.6830  137.6880 N   0  0  0  0  0  0  0  0  0  0  0  0
  183.6870  177.9960  140.4740 C   0  0  0  0  0  2  0  0  0  0  0  0
  188.4960  177.6920  141.7300 C   0  0  0  0  0  3  0  0  0  0  0  0
  187.3720  178.0420  142.5820 N   0  0  0  0  0  0  0  0  0  0  0  0
  189.3760  177.3990  139.4050 C   0  0  0  0  0  0  0  0  0  0  0  0
  185.2920  178.3850  138.4080 C   0  0  2  0  0  3  0  0  0  0  0  0
  183.6670  178.1430  141.9820 C   0  0  0  0  0  3  0  0  0  0  0  0
  191.0990  176.5090  137.4390 N   0  0  0  0  0  0  0  0  0  0  0  0
  190.6720  177.0030  139.7410 C   0  0  0  0  0  3  0  0  0  0  0  0
  188.7460  177.1360  145.9620 C   0  0  0  0  0  0  0  0  0  0  0  0
  189.8500  176.5870  146.5270 F   0  0  0  0  0  0  0  0  0  0  0  0
  187.4980  177.8620  144.0010 C   0  0  0  0  0  0  0  0  0  0  0  0
  187.6920  177.5440  146.7830 C   0  0  0  0  0  3  0  0  0  0  0  0
  186.4450  178.2570  144.8380 C   0  0  0  0  0  3  0  0  0  0  0  0
  188.6550  177.2840  144.5690 C   0  0  0  0  0  0  0  0  0  0  0  0
  189.7700  176.7860  143.7080 C   0  0  0  0  0  1  0  0  0  0  0  0
  186.5390  178.0950  146.2220 C   0  0  0  0  0  0  0  0  0  0  0  0
  184.2740  178.7430  146.3380 O   0  0  0  0  0  1  0  0  0  0  0  0
  185.4260  178.5460  147.1000 C   0  0  0  0  0  2  0  0  0  0  0  0
  184.6870  177.1220  138.0050 N   0  0  0  0  0  2  0  0  0  0  0  0
  184.0780  177.3360  136.7040 C   0  0  0  0  0  2  0  0  0  0  0  0
  182.6180  177.6920  136.8840 C   0  0  0  0  0  1  0  0  0  0  0  0
  1 14  1  0  0  0  0
  1  3  1  0  0  0  0
  2  7  1  0  0  0  0
  2  4  1  0  0  0  0
  4  1  2  0  0  0  0
  5  2  1  0  0  0  0
  6 19  1  0  0  0  0
  7 13  2  0  0  0  0
  8 18  1  0  0  0  0
  8  9  2  0  0  0  0
  9 15  1  0  0  0  0
 10 12  1  1  0  0  0
 10  4  1  0  0  0  0
 11  9  1  0  0  0  0
 11  5  2  0  0  0  0
 12 17  1  0  0  0  0
 13 14  1  0  0  0  0
 14 22  1  0  0  0  0
 15 19  2  0  0  0  0
 15  7  1  0  0  0  0
 16 30  1  1  0  0  0
 16  5  1  0  0  0  0
 16 10  1  0  0  0  0
 17  3  2  0  0  0  0
 18  6  2  0  0  0  0
 20 21  1  0  0  0  0
 20 23  1  0  0  0  0
 22 25  1  0  0  0  0
 22 24  2  0  0  0  0
 24 27  1  0  0  0  0
 25 20  2  0  0  0  0
 26 25  1  0  0  0  0
 27 23  2  0  0  0  0
 27 29  1  0  0  0  0
 28 29  1  0  0  0  0
 31 32  1  0  0  0  0
 31 30  1  0  0  0  0
M  END
>  <MODEL>
1

>  <REMARK>
 VINA RESULT:      -9.8      0.000      0.000
  Name = 
  4 active torsions:
  status: ('A' for Active; 'I' for Inactive)
    1  A    between atoms: C_13  and  N_18
    2  A    between atoms: C_15  and  C_26
    3  A    between atoms: C_16  and  N_27
    4  A    between atoms: N_18  and  C_29
                            x       y       z     vdW  Elec       q    Type
                         _______ _______ _______ _____ _____    ______ ____

>  <TORSDO>
F 4

$$$$
=
 OpenBabel10262421123D

 32 37  0  0  1  0  0  0  0  0999 V2000
  186.9640  178.3820  143.3000 C   0  0  0  0  0  0  0  0  0  0  0  0
  187.2320  178.6410  140.9670 N   0  0  0  0  0  0  0  0  0  0  0  0
  186.0110  178.2360  144.4230 C   0  0  0  0  0  3  0  0  0  0  0  0
  186.4900  178.8180  142.1340 C   0  0  0  0  0  0  0  0  0  0  0  0
  186.3380  178.6270  139.8840 C   0  0  0  0  0  0  0  0  0  0  0  0
  190.6320  176.7270  138.0860 C   0  0  0  0  0  3  0  0  0  0  0  0
  188.4740  177.9560  140.9360 C   0  0  0  0  0  0  0  0  0  0  0  0
  188.5020  177.3610  137.2350 C   0  0  0  0  0  3  0  0  0  0  0  0
  188.0730  177.7280  138.5110 C   0  0  0  0  0  0  0  0  0  0  0  0
  185.0580  179.1500  141.8560 C   0  0  2  0  0  3  0  0  0  0  0  0
  186.7150  178.1880  138.7170 N   0  0  0  0  0  0  0  0  0  0  0  0
  184.1440  178.3150  142.7730 C   0  0  0  0  0  2  0  0  0  0  0  0
  189.0260  177.5910  142.1040 C   0  0  0  0  0  3  0  0  0  0  0  0
  188.3290  177.8780  143.3460 N   0  0  0  0  0  0  0  0  0  0  0  0
  188.9670  177.5770  139.6020 C   0  0  0  0  0  0  0  0  0  0  0  0
  184.9200  178.9020  140.3140 C   0  0  2  0  0  3  0  0  0  0  0  0
  184.6880  178.2530  144.1860 C   0  0  0  0  0  3  0  0  0  0  0  0
  189.7610  176.8790  137.0500 N   0  0  0  0  0  0  0  0  0  0  0  0
  190.2510  177.0710  139.3850 C   0  0  0  0  0  3  0  0  0  0  0  0
  190.8660  176.7510  145.8810 C   0  0  0  0  0  0  0  0  0  0  0  0
  192.1670  176.3740  145.9600 F   0  0  0  0  0  0  0  0  0  0  0  0
  188.9420  177.4970  144.5870 C   0  0  0  0  0  0  0  0  0  0  0  0
  190.0920  176.7730  147.0430 C   0  0  0  0  0  3  0  0  0  0  0  0
  188.1770  177.5050  145.7620 C   0  0  0  0  0  3  0  0  0  0  0  0
  190.2980  177.1050  144.6470 C   0  0  0  0  0  0  0  0  0  0  0  0
  191.1290  177.0160  143.4090 C   0  0  0  0  0  1  0  0  0  0  0  0
  188.7470  177.1410  146.9840 C   0  0  0  0  0  0  0  0  0  0  0  0
  188.3380  178.2520  149.0230 O   0  0  0  0  0  1  0  0  0  0  0  0
  187.9300  177.1820  148.2260 C   0  0  0  0  0  2  0  0  0  0  0  0
  184.0870  177.7390  140.0300 N   0  0  0  0  0  2  0  0  0  0  0  0
  183.1340  178.1360  139.0090 C   0  0  0  0  0  2  0  0  0  0  0  0
  182.9010  179.6290  139.0910 C   0  0  0  0  0  1  0  0  0  0  0  0
  1 14  1  0  0  0  0
  1  3  1  0  0  0  0
  2  4  1  0  0  0  0
  4  1  2  0  0  0  0
  5 16  1  0  0  0  0
  5  2  1  0  0  0  0
  6 19  1  0  0  0  0
  7  2  1  0  0  0  0
  7 13  2  0  0  0  0
  8  9  2  0  0  0  0
  9 11  1  0  0  0  0
  9 15  1  0  0  0  0
 10  4  1  0  0  0  0
 10 12  1  1  0  0  0
 11  5  2  0  0  0  0
 12 17  1  0  0  0  0
 13 14  1  0  0  0  0
 14 22  1  0  0  0  0
 15  7  1  0  0  0  0
 16 30  1  1  0  0  0
 16 10  1  0  0  0  0
 17  3  2  0  0  0  0
 18  8  1  0  0  0  0
 18  6  2  0  0  0  0
 19 15  2  0  0  0  0
 20 21  1  0  0  0  0
 20 23  1  0  0  0  0
 22 25  1  0  0  0  0
 22 24  2  0  0  0  0
 24 27  1  0  0  0  0
 25 20  2  0  0  0  0
 26 25  1  0  0  0  0
 27 23  2  0  0  0  0
 27 29  1  0  0  0  0
 29 28  1  0  0  0  0
 31 32  1  0  0  0  0
 31 30  1  0  0  0  0
M  END
>  <MODEL>
2

>  <REMARK>
 VINA RESULT:      -9.8      1.620      2.034
  Name = 
  4 active torsions:
  status: ('A' for Active; 'I' for Inactive)
    1  A    between atoms: C_13  and  N_18
    2  A    between atoms: C_15  and  C_26
    3  A    between atoms: C_16  and  N_27
    4  A    between atoms: N_18  and  C_29
                            x       y       z     vdW  Elec       q    Type
                         _______ _______ _______ _____ _____    ______ ____

>  <TORSDO>
F 4

$$$$
=
 OpenBabel10262421123D

 32 37  0  0  1  0  0  0  0  0999 V2000
  186.9960  178.4830  141.0560 C   0  0  0  0  0  0  0  0  0  0  0  0
  189.1400  178.1830  142.0030 N   0  0  0  0  0  0  0  0  0  0  0  0
  186.1600  178.3740  139.8400 C   0  0  0  0  0  3  0  0  0  0  0  0
  188.3190  178.4430  140.9060 C   0  0  0  0  0  0  0  0  0  0  0  0
  190.3390  177.6310  141.5240 C   0  0  0  0  0  0  0  0  0  0  0  0
  190.2860  176.6250  146.4510 C   0  0  0  0  0  3  0  0  0  0  0  0
  188.6340  177.8960  143.2970 C   0  0  0  0  0  0  0  0  0  0  0  0
  191.7940  176.3800  144.6260 C   0  0  0  0  0  3  0  0  0  0  0  0
  190.8620  176.9320  143.7470 C   0  0  0  0  0  0  0  0  0  0  0  0
  189.0340  178.2680  139.6040 C   0  0  2  0  0  3  0  0  0  0  0  0
  191.1610  177.0250  142.3330 N   0  0  0  0  0  0  0  0  0  0  0  0
  188.1430  177.4810  138.6240 C   0  0  0  0  0  2  0  0  0  0  0  0
  187.3140  178.0240  143.5040 C   0  0  0  0  0  3  0  0  0  0  0  0
  186.4510  178.4180  142.4030 N   0  0  0  0  0  0  0  0  0  0  0  0
  189.6000  177.3350  144.2560 C   0  0  0  0  0  0  0  0  0  0  0  0
  190.3880  177.5940  140.0180 C   0  0  2  0  0  3  0  0  0  0  0  0
  186.7040  177.9510  138.6860 C   0  0  0  0  0  3  0  0  0  0  0  0
  191.4930  176.2450  145.9460 N   0  0  0  0  0  0  0  0  0  0  0  0
  189.3140  177.1760  145.6130 C   0  0  0  0  0  3  0  0  0  0  0  0
  183.1640  178.9590  144.1450 C   0  0  0  0  0  0  0  0  0  0  0  0
  182.6650  179.1890  145.3850 F   0  0  0  0  0  0  0  0  0  0  0  0
  185.0440  178.5690  142.6470 C   0  0  0  0  0  0  0  0  0  0  0  0
  182.2850  178.8650  143.0650 C   0  0  0  0  0  3  0  0  0  0  0  0
  184.1470  178.4670  141.5750 C   0  0  0  0  0  3  0  0  0  0  0  0
  184.5450  178.8050  143.9480 C   0  0  0  0  0  0  0  0  0  0  0  0
  185.4600  178.8500  145.1280 C   0  0  0  0  0  1  0  0  0  0  0  0
  182.7740  178.6110  141.7820 C   0  0  0  0  0  0  0  0  0  0  0  0
  180.8460  179.5050  140.7590 O   0  0  0  0  0  1  0  0  0  0  0  0
  181.8360  178.5300  140.6300 C   0  0  0  0  0  2  0  0  0  0  0  0
  190.4600  176.2120  139.5630 N   0  0  0  0  0  2  0  0  0  0  0  0
  191.4560  176.1610  138.5080 C   0  0  0  0  0  2  0  0  0  0  0  0
  190.9470  175.2960  137.3750 C   0  0  0  0  0  1  0  0  0  0  0  0
  1 14  1  0  0  0  0
  2  7  1  0  0  0  0
  3  1  1  0  0  0  0
  4  1  2  0  0  0  0
  4  2  1  0  0  0  0
  5  2  1  0  0  0  0
  5 11  2  0  0  0  0
  7 13  2  0  0  0  0
  7 15  1  0  0  0  0
  8 18  2  0  0  0  0
  9 15  2  0  0  0  0
  9  8  1  0  0  0  0
 10 12  1  6  0  0  0
 10 16  1  0  0  0  0
 10  4  1  0  0  0  0
 11  9  1  0  0  0  0
 12 17  1  0  0  0  0
 14 22  1  0  0  0  0
 14 13  1  0  0  0  0
 15 19  1  0  0  0  0
 16 30  1  1  0  0  0
 16  5  1  0  0  0  0
 17  3  2  0  0  0  0
 18  6  1  0  0  0  0
 19  6  2  0  0  0  0
 20 21  1  0  0  0  0
 22 25  2  0  0  0  0
 23 20  2  0  0  0  0
 24 27  2  0  0  0  0
 24 22  1  0  0  0  0
 25 20  1  0  0  0  0
 25 26  1  0  0  0  0
 27 23  1  0  0  0  0
 29 28  1  0  0  0  0
 29 27  1  0  0  0  0
 31 30  1  0  0  0  0
 32 31  1  0  0  0  0
M  END
>  <MODEL>
3

>  <REMARK>
 VINA RESULT:      -9.3      2.579      5.567
  Name = 
  4 active torsions:
  status: ('A' for Active; 'I' for Inactive)
    1  A    between atoms: C_13  and  N_18
    2  A    between atoms: C_15  and  C_26
    3  A    between atoms: C_16  and  N_27
    4  A    between atoms: N_18  and  C_29
                            x       y       z     vdW  Elec       q    Type
                         _______ _______ _______ _____ _____    ______ ____

>  <TORSDO>
F 4

$$$$
=
 OpenBabel10262421123D

 32 37  0  0  1  0  0  0  0  0999 V2000
  185.7260  178.6330  139.6300 C   0  0  0  0  0  0  0  0  0  0  0  0
  186.7070  178.7940  141.7730 N   0  0  0  0  0  0  0  0  0  0  0  0
  185.8830  178.1670  138.2340 C   0  0  0  0  0  3  0  0  0  0  0  0
  186.8200  178.7130  140.3860 C   0  0  0  0  0  0  0  0  0  0  0  0
  187.8930  178.2910  142.3330 C   0  0  0  0  0  0  0  0  0  0  0  0
  184.5740  178.3860  146.1100 C   0  0  0  0  0  3  0  0  0  0  0  0
  185.4630  178.7410  142.4530 C   0  0  0  0  0  0  0  0  0  0  0  0
  186.8900  177.9220  145.8210 C   0  0  0  0  0  3  0  0  0  0  0  0
  186.7930  178.1590  144.4500 C   0  0  0  0  0  0  0  0  0  0  0  0
  188.2000  178.3410  139.9460 C   0  0  2  0  0  3  0  0  0  0  0  0
  187.9490  177.9740  143.5960 N   0  0  0  0  0  0  0  0  0  0  0  0
  188.1230  177.2620  138.8480 C   0  0  0  0  0  2  0  0  0  0  0  0
  184.3390  178.7590  141.7190 C   0  0  0  0  0  3  0  0  0  0  0  0
  184.4300  178.8020  140.2700 N   0  0  0  0  0  0  0  0  0  0  0  0
  185.5320  178.5160  143.9060 C   0  0  0  0  0  0  0  0  0  0  0  0
  188.9110  177.9320  141.2830 C   0  0  2  0  0  3  0  0  0  0  0  0
  187.0230  177.5670  137.8510 C   0  0  0  0  0  3  0  0  0  0  0  0
  185.7920  178.0450  146.6150 N   0  0  0  0  0  0  0  0  0  0  0  0
  184.4200  178.6260  144.7430 C   0  0  0  0  0  3  0  0  0  0  0  0
  181.2570  177.7590  138.5440 C   0  0  0  0  0  0  0  0  0  0  0  0
  180.4970  176.6550  138.3340 F   0  0  0  0  0  0  0  0  0  0  0  0
  183.2180  178.8410  139.5020 C   0  0  0  0  0  0  0  0  0  0  0  0
  180.8510  178.9790  137.9990 C   0  0  0  0  0  3  0  0  0  0  0  0
  182.8010  180.0560  138.9390 C   0  0  0  0  0  3  0  0  0  0  0  0
  182.4430  177.6790  139.2920 C   0  0  0  0  0  0  0  0  0  0  0  0
  182.8880  176.3510  139.8140 C   0  0  0  0  0  1  0  0  0  0  0  0
  181.6260  180.1250  138.1880 C   0  0  0  0  0  0  0  0  0  0  0  0
  181.7680  182.4740  138.3300 O   0  0  0  0  0  1  0  0  0  0  0  0
  181.1800  181.4260  137.6220 C   0  0  0  0  0  2  0  0  0  0  0  0
  189.1820  176.5010  141.3300 N   0  0  0  0  0  2  0  0  0  0  0  0
  190.4730  176.3320  141.9730 C   0  0  0  0  0  2  0  0  0  0  0  0
  191.3770  177.4860  141.5980 C   0  0  0  0  0  1  0  0  0  0  0  0
  1 14  1  0  0  0  0
  1  4  2  0  0  0  0
  2  5  1  0  0  0  0
  2  7  1  0  0  0  0
  3  1  1  0  0  0  0
  4  2  1  0  0  0  0
  5 11  2  0  0  0  0
  6 18  1  0  0  0  0
  7 15  1  0  0  0  0
  8 18  2  0  0  0  0
  9  8  1  0  0  0  0
 10 12  1  6  0  0  0
 10  4  1  0  0  0  0
 10 16  1  0  0  0  0
 11  9  1  0  0  0  0
 13  7  2  0  0  0  0
 14 13  1  0  0  0  0
 15  9  2  0  0  0  0
 15 19  1  0  0  0  0
 16 30  1  6  0  0  0
 16  5  1  0  0  0  0
 17  3  2  0  0  0  0
 17 12  1  0  0  0  0
 19  6  2  0  0  0  0
 20 25  1  0  0  0  0
 21 20  1  0  0  0  0
 22 14  1  0  0  0  0
 23 27  1  0  0  0  0
 23 20  2  0  0  0  0
 24 22  1  0  0  0  0
 25 22  2  0  0  0  0
 25 26  1  0  0  0  0
 27 24  2  0  0  0  0
 29 27  1  0  0  0  0
 29 28  1  0  0  0  0
 30 31  1  0  0  0  0
 32 31  1  0  0  0  0
M  END
>  <MODEL>
4

>  <REMARK>
 VINA RESULT:      -9.1      3.312      7.448
  Name = 
  4 active torsions:
  status: ('A' for Active; 'I' for Inactive)
    1  A    between atoms: C_13  and  N_18
    2  A    between atoms: C_15  and  C_26
    3  A    between atoms: C_16  and  N_27
    4  A    between atoms: N_18  and  C_29
                            x       y       z     vdW  Elec       q    Type
                         _______ _______ _______ _____ _____    ______ ____

>  <TORSDO>
F 4

$$$$
=
 OpenBabel10262421123D

 32 37  0  0  1  0  0  0  0  0999 V2000
  187.1360  178.3170  144.8210 C   0  0  0  0  0  0  0  0  0  0  0  0
  186.0800  179.0810  142.8500 N   0  0  0  0  0  0  0  0  0  0  0  0
  186.9620  177.8930  146.2280 C   0  0  0  0  0  3  0  0  0  0  0  0
  186.1320  178.9720  144.2390 C   0  0  0  0  0  0  0  0  0  0  0  0
  184.7370  179.2600  142.4810 C   0  0  0  0  0  0  0  0  0  0  0  0
  187.1200  177.9780  138.2430 C   0  0  0  0  0  3  0  0  0  0  0  0
  187.0300  178.4730  141.9900 C   0  0  0  0  0  0  0  0  0  0  0  0
  184.9400  178.6860  138.8850 C   0  0  0  0  0  3  0  0  0  0  0  0
  185.3270  178.7520  140.2230 C   0  0  0  0  0  0  0  0  0  0  0  0
  184.8220  179.2930  144.8870 C   0  0  2  0  0  3  0  0  0  0  0  0
  184.3600  179.0980  141.2440 N   0  0  0  0  0  0  0  0  0  0  0  0
  184.5070  178.2420  145.9690 C   0  0  0  0  0  2  0  0  0  0  0  0
  188.1050  177.8910  142.5440 C   0  0  0  0  0  3  0  0  0  0  0  0
  188.2460  177.8740  143.9900 N   0  0  0  0  0  0  0  0  0  0  0  0
  186.6610  178.4100  140.5660 C   0  0  0  0  0  0  0  0  0  0  0  0
  183.8280  179.3750  143.6770 C   0  0  2  0  0  3  0  0  0  0  0  0
  185.7390  177.9030  146.7850 C   0  0  0  0  0  3  0  0  0  0  0  0
  185.8360  178.3100  137.9320 N   0  0  0  0  0  0  0  0  0  0  0  0
  187.5570  178.0190  139.5690 C   0  0  0  0  0  3  0  0  0  0  0  0
  191.4130  175.8870  144.3850 C   0  0  0  0  0  0  0  0  0  0  0  0
  192.2560  175.1130  143.6590 F   0  0  0  0  0  0  0  0  0  0  0  0
  189.4110  177.2640  144.5640 C   0  0  0  0  0  0  0  0  0  0  0  0
  191.6820  176.1050  145.7380 C   0  0  0  0  0  3  0  0  0  0  0  0
  189.6900  177.4640  145.9230 C   0  0  0  0  0  3  0  0  0  0  0  0
  190.2750  176.4580  143.7910 C   0  0  0  0  0  0  0  0  0  0  0  0
  189.9770  176.1630  142.3570 C   0  0  0  0  0  1  0  0  0  0  0  0
  190.8180  176.8840  146.5100 C   0  0  0  0  0  0  0  0  0  0  0  0
  192.4300  176.7460  148.2250 O   0  0  0  0  0  1  0  0  0  0  0  0
  191.1180  177.1280  147.9460 C   0  0  0  0  0  2  0  0  0  0  0  0
  182.8830  178.2650  143.6840 N   0  0  0  0  0  2  0  0  0  0  0  0
  181.5520  178.8380  143.7760 C   0  0  0  0  0  2  0  0  0  0  0  0
  180.9720  178.9890  142.3860 C   0  0  0  0  0  1  0  0  0  0  0  0
  1  3  1  0  0  0  0
  2  4  1  0  0  0  0
  3 17  2  0  0  0  0
  4  1  2  0  0  0  0
  4 10  1  0  0  0  0
  5  2  1  0  0  0  0
  5 16  1  0  0  0  0
  6 19  1  0  0  0  0
  7 13  2  0  0  0  0
  7  2  1  0  0  0  0
  8  9  2  0  0  0  0
  9 15  1  0  0  0  0
  9 11  1  0  0  0  0
 10 12  1  1  0  0  0
 11  5  2  0  0  0  0
 12 17  1  0  0  0  0
 13 14  1  0  0  0  0
 14 22  1  0  0  0  0
 14  1  1  0  0  0  0
 15  7  1  0  0  0  0
 16 30  1  1  0  0  0
 16 10  1  0  0  0  0
 18  6  2  0  0  0  0
 18  8  1  0  0  0  0
 19 15  2  0  0  0  0
 20 23  1  0  0  0  0
 21 20  1  0  0  0  0
 22 24  2  0  0  0  0
 23 27  2  0  0  0  0
 24 27  1  0  0  0  0
 25 20  2  0  0  0  0
 25 22  1  0  0  0  0
 26 25  1  0  0  0  0
 27 29  1  0  0  0  0
 29 28  1  0  0  0  0
 30 31  1  0  0  0  0
 32 31  1  0  0  0  0
M  END
>  <MODEL>
5

>  <REMARK>
 VINA RESULT:      -8.9      2.574      4.579
  Name = 
  4 active torsions:
  status: ('A' for Active; 'I' for Inactive)
    1  A    between atoms: C_13  and  N_18
    2  A    between atoms: C_15  and  C_26
    3  A    between atoms: C_16  and  N_27
    4  A    between atoms: N_18  and  C_29
                            x       y       z     vdW  Elec       q    Type
                         _______ _______ _______ _____ _____    ______ ____

>  <TORSDO>
F 4

$$$$
=
 OpenBabel10262421123D

 32 37  0  0  1  0  0  0  0  0999 V2000
  189.4550  177.1450  142.9360 C   0  0  0  0  0  0  0  0  0  0  0  0
  187.6030  177.3480  141.4820 N   0  0  0  0  0  0  0  0  0  0  0  0
  190.9250  177.2300  143.0790 C   0  0  0  0  0  3  0  0  0  0  0  0
  188.9530  177.0730  141.7040 C   0  0  0  0  0  0  0  0  0  0  0  0
  187.4630  177.7710  140.1500 C   0  0  0  0  0  0  0  0  0  0  0  0
  183.1940  179.1300  142.4340 C   0  0  0  0  0  3  0  0  0  0  0  0
  186.7190  177.7650  142.5090 C   0  0  0  0  0  0  0  0  0  0  0  0
  184.0780  179.1270  140.2240 C   0  0  0  0  0  3  0  0  0  0  0  0
  185.2810  178.5860  140.6770 C   0  0  0  0  0  0  0  0  0  0  0  0
  189.7560  177.0980  140.4430 C   0  0  2  0  0  3  0  0  0  0  0  0
  186.3750  178.3680  139.7540 N   0  0  0  0  0  0  0  0  0  0  0  0
  191.0640  177.8780  140.6760 C   0  0  0  0  0  2  0  0  0  0  0  0
  187.1670  177.7540  143.7740 C   0  0  0  0  0  3  0  0  0  0  0  0
  188.5360  177.3490  144.0460 N   0  0  0  0  0  0  0  0  0  0  0  0
  185.4300  178.3190  142.0630 C   0  0  0  0  0  0  0  0  0  0  0  0
  188.7610  177.6950  139.3880 C   0  0  2  0  0  3  0  0  0  0  0  0
  191.6870  177.5260  142.0120 C   0  0  0  0  0  3  0  0  0  0  0  0
  183.0680  179.3800  141.1010 N   0  0  0  0  0  0  0  0  0  0  0  0
  184.3810  178.5960  142.9420 C   0  0  0  0  0  3  0  0  0  0  0  0
  188.6760  177.7860  147.7770 C   0  0  0  0  0  0  0  0  0  0  0  0
  187.9280  178.2700  148.8000 F   0  0  0  0  0  0  0  0  0  0  0  0
  188.9930  177.3250  145.4070 C   0  0  0  0  0  0  0  0  0  0  0  0
  189.9320  177.2410  148.0500 C   0  0  0  0  0  3  0  0  0  0  0  0
  190.2560  176.7910  145.6970 C   0  0  0  0  0  3  0  0  0  0  0  0
  188.2000  177.8380  146.4570 C   0  0  0  0  0  0  0  0  0  0  0  0
  186.8790  178.4790  146.1830 C   0  0  0  0  0  1  0  0  0  0  0  0
  190.7260  176.7520  147.0110 C   0  0  0  0  0  0  0  0  0  0  0  0
  192.5800  176.7260  148.4680 O   0  0  0  0  0  1  0  0  0  0  0  0
  192.0560  176.1560  147.3080 C   0  0  0  0  0  2  0  0  0  0  0  0
  189.1630  179.0310  138.9680 N   0  0  0  0  0  2  0  0  0  0  0  0
  189.0550  179.0740  137.5210 C   0  0  0  0  0  2  0  0  0  0  0  0
  189.4000  177.7160  136.9500 C   0  0  0  0  0  1  0  0  0  0  0  0
  1  3  1  0  0  0  0
  1 14  1  0  0  0  0
  2  4  1  0  0  0  0
  2  7  1  0  0  0  0
  4  1  2  0  0  0  0
  5  2  1  0  0  0  0
  6 19  1  0  0  0  0
  7 13  2  0  0  0  0
  8  9  2  0  0  0  0
  8 18  1  0  0  0  0
  9 15  1  0  0  0  0
 10 12  1  1  0  0  0
 10  4  1  0  0  0  0
 11  5  2  0  0  0  0
 11  9  1  0  0  0  0
 12 17  1  0  0  0  0
 13 14  1  0  0  0  0
 14 22  1  0  0  0  0
 15  7  1  0  0  0  0
 15 19  2  0  0  0  0
 16 30  1  1  0  0  0
 16  5  1  0  0  0  0
 16 10  1  0  0  0  0
 17  3  2  0  0  0  0
 18  6  2  0  0  0  0
 20 23  1  0  0  0  0
 20 21  1  0  0  0  0
 22 24  2  0  0  0  0
 22 25  1  0  0  0  0
 24 27  1  0  0  0  0
 25 20  2  0  0  0  0
 26 25  1  0  0  0  0
 27 29  1  0  0  0  0
 27 23  2  0  0  0  0
 29 28  1  0  0  0  0
 31 30  1  0  0  0  0
 32 31  1  0  0  0  0
M  END
>  <MODEL>
6

>  <REMARK>
 VINA RESULT:      -8.9      2.381      5.269
  Name = 
  4 active torsions:
  status: ('A' for Active; 'I' for Inactive)
    1  A    between atoms: C_13  and  N_18
    2  A    between atoms: C_15  and  C_26
    3  A    between atoms: C_16  and  N_27
    4  A    between atoms: N_18  and  C_29
                            x       y       z     vdW  Elec       q    Type
                         _______ _______ _______ _____ _____    ______ ____

>  <TORSDO>
F 4

$$$$
=
 OpenBabel10262421123D

 32 37  0  0  1  0  0  0  0  0999 V2000
  189.0450  177.0790  143.7250 C   0  0  0  0  0  0  0  0  0  0  0  0
  188.8740  176.9060  141.3750 N   0  0  0  0  0  0  0  0  0  0  0  0
  189.9510  177.1800  144.8910 C   0  0  0  0  0  3  0  0  0  0  0  0
  189.5670  176.6840  142.5650 C   0  0  0  0  0  0  0  0  0  0  0  0
  189.8130  176.9550  140.3310 C   0  0  0  0  0  0  0  0  0  0  0  0
  185.6030  178.9390  138.4260 C   0  0  0  0  0  3  0  0  0  0  0  0
  187.6370  177.5980  141.3170 C   0  0  0  0  0  0  0  0  0  0  0  0
  187.7660  178.3270  137.6420 C   0  0  0  0  0  3  0  0  0  0  0  0
  188.1400  177.9120  138.9200 C   0  0  0  0  0  0  0  0  0  0  0  0
  191.0070  176.3560  142.3340 C   0  0  2  0  0  3  0  0  0  0  0  0
  189.4870  177.4390  139.1660 N   0  0  0  0  0  0  0  0  0  0  0  0
  191.8850  177.1520  143.3190 C   0  0  0  0  0  2  0  0  0  0  0  0
  187.0380  177.9230  142.4740 C   0  0  0  0  0  3  0  0  0  0  0  0
  187.6820  177.5880  143.7330 N   0  0  0  0  0  0  0  0  0  0  0  0
  187.2010  178.0280  139.9780 C   0  0  0  0  0  0  0  0  0  0  0  0
  191.2110  176.6590  140.8090 C   0  0  2  0  0  3  0  0  0  0  0  0
  191.2830  177.1650  144.7090 C   0  0  0  0  0  3  0  0  0  0  0  0
  186.5170  178.8210  137.4230 N   0  0  0  0  0  0  0  0  0  0  0  0
  185.9290  178.5470  139.7260 C   0  0  0  0  0  3  0  0  0  0  0  0
  185.0330  178.5930  146.2040 C   0  0  0  0  0  0  0  0  0  0  0  0
  183.7210  178.9320  146.2470 F   0  0  0  0  0  0  0  0  0  0  0  0
  187.0180  177.9260  144.9600 C   0  0  0  0  0  0  0  0  0  0  0  0
  185.7700  178.5680  147.3900 C   0  0  0  0  0  3  0  0  0  0  0  0
  187.7450  177.9150  146.1580 C   0  0  0  0  0  3  0  0  0  0  0  0
  185.6510  178.2800  144.9820 C   0  0  0  0  0  0  0  0  0  0  0  0
  184.8570  178.3720  143.7200 C   0  0  0  0  0  1  0  0  0  0  0  0
  187.1260  178.2380  147.3680 C   0  0  0  0  0  0  0  0  0  0  0  0
  189.2660  178.1150  148.3510 O   0  0  0  0  0  1  0  0  0  0  0  0
  187.9030  178.1940  148.6360 C   0  0  0  0  0  2  0  0  0  0  0  0
  192.0590  177.8270  140.6030 N   0  0  0  0  0  2  0  0  0  0  0  0
  193.2870  177.3590  139.9860 C   0  0  0  0  0  2  0  0  0  0  0  0
  192.9660  176.6970  138.6630 C   0  0  0  0  0  1  0  0  0  0  0  0
  1 14  1  0  0  0  0
  1  3  1  0  0  0  0
  2  4  1  0  0  0  0
  4  1  2  0  0  0  0
  5 16  1  0  0  0  0
  5  2  1  0  0  0  0
  6 19  1  0  0  0  0
  7  2  1  0  0  0  0
  7 13  2  0  0  0  0
  8  9  2  0  0  0  0
  9 11  1  0  0  0  0
  9 15  1  0  0  0  0
 10  4  1  0  0  0  0
 10 12  1  1  0  0  0
 11  5  2  0  0  0  0
 12 17  1  0  0  0  0
 13 14  1  0  0  0  0
 14 22  1  0  0  0  0
 15  7  1  0  0  0  0
 16 30  1  1  0  0  0
 16 10  1  0  0  0  0
 17  3  2  0  0  0  0
 18  8  1  0  0  0  0
 18  6  2  0  0  0  0
 19 15  2  0  0  0  0
 20 21  1  0  0  0  0
 20 23  1  0  0  0  0
 22 25  1  0  0  0  0
 22 24  2  0  0  0  0
 24 27  1  0  0  0  0
 25 20  2  0  0  0  0
 26 25  1  0  0  0  0
 27 23  2  0  0  0  0
 27 29  1  0  0  0  0
 28 29  1  0  0  0  0
 31 30  1  0  0  0  0
 32 31  1  0  0  0  0
M  END
>  <MODEL>
7

>  <REMARK>
 VINA RESULT:      -8.9      2.212      5.169
  Name = 
  4 active torsions:
  status: ('A' for Active; 'I' for Inactive)
    1  A    between atoms: C_13  and  N_18
    2  A    between atoms: C_15  and  C_26
    3  A    between atoms: C_16  and  N_27
    4  A    between atoms: N_18  and  C_29
                            x       y       z     vdW  Elec       q    Type
                         _______ _______ _______ _____ _____    ______ ____

>  <TORSDO>
F 4

$$$$
=
 OpenBabel10262421123D

 32 37  0  0  1  0  0  0  0  0999 V2000
  185.3790  177.8880  143.9730 C   0  0  0  0  0  0  0  0  0  0  0  0
  187.6120  177.1190  143.9010 N   0  0  0  0  0  0  0  0  0  0  0  0
  184.3080  178.4880  144.8000 C   0  0  0  0  0  3  0  0  0  0  0  0
  186.4320  177.3680  144.6020 C   0  0  0  0  0  0  0  0  0  0  0  0
  188.6740  177.1480  144.8190 C   0  0  0  0  0  0  0  0  0  0  0  0
  190.8240  177.5020  140.2880 C   0  0  0  0  0  3  0  0  0  0  0  0
  187.7820  177.4450  142.5310 C   0  0  0  0  0  0  0  0  0  0  0  0
  191.5270  177.2780  142.5510 C   0  0  0  0  0  3  0  0  0  0  0  0
  190.2030  177.2900  142.9900 C   0  0  0  0  0  0  0  0  0  0  0  0
  186.6360  177.3640  146.0840 C   0  0  2  0  0  3  0  0  0  0  0  0
  189.9060  177.2400  144.4070 N   0  0  0  0  0  0  0  0  0  0  0  0
  185.9060  178.5670  146.7110 C   0  0  0  0  0  2  0  0  0  0  0  0
  186.7130  177.8790  141.8460 C   0  0  0  0  0  3  0  0  0  0  0  0
  185.4380  178.0280  142.5260 N   0  0  0  0  0  0  0  0  0  0  0  0
  189.1660  177.4180  142.0300 C   0  0  0  0  0  0  0  0  0  0  0  0
  188.1970  177.3330  146.2370 C   0  0  2  0  0  3  0  0  0  0  0  0
  184.5350  178.7630  146.0960 C   0  0  0  0  0  3  0  0  0  0  0  0
  191.8070  177.3780  141.2230 N   0  0  0  0  0  0  0  0  0  0  0  0
  189.4830  177.5280  140.6740 C   0  0  0  0  0  3  0  0  0  0  0  0
  183.2640  179.1960  139.6900 C   0  0  0  0  0  0  0  0  0  0  0  0
  183.3400  179.4850  138.3670 F   0  0  0  0  0  0  0  0  0  0  0  0
  184.3000  178.4740  141.7730 C   0  0  0  0  0  0  0  0  0  0  0  0
  182.0400  179.3340  140.3480 C   0  0  0  0  0  3  0  0  0  0  0  0
  183.0660  178.6270  142.4200 C   0  0  0  0  0  3  0  0  0  0  0  0
  184.4020  178.7730  140.3960 C   0  0  0  0  0  0  0  0  0  0  0  0
  185.7130  178.6910  139.6840 C   0  0  0  0  0  1  0  0  0  0  0  0
  181.9420  179.0590  141.7130 C   0  0  0  0  0  0  0  0  0  0  0  0
  180.4580  180.5020  142.8430 O   0  0  0  0  0  1  0  0  0  0  0  0
  180.6320  179.1890  142.4060 C   0  0  0  0  0  2  0  0  0  0  0  0
  188.7080  178.5910  146.7670 N   0  0  0  0  0  2  0  0  0  0  0  0
  189.3970  178.2810  148.0080 C   0  0  0  0  0  2  0  0  0  0  0  0
  188.3980  178.2520  149.1450 C   0  0  0  0  0  1  0  0  0  0  0  0
  1  4  2  0  0  0  0
  1  3  1  0  0  0  0
  2  4  1  0  0  0  0
  2  5  1  0  0  0  0
  3 17  2  0  0  0  0
  4 10  1  0  0  0  0
  5 16  1  0  0  0  0
  6 19  2  0  0  0  0
  6 18  1  0  0  0  0
  7  2  1  0  0  0  0
  8  9  1  0  0  0  0
  9 11  1  0  0  0  0
 10 16  1  0  0  0  0
 10 12  1  6  0  0  0
 11  5  2  0  0  0  0
 13 14  1  0  0  0  0
 13  7  2  0  0  0  0
 14  1  1  0  0  0  0
 15  7  1  0  0  0  0
 15  9  2  0  0  0  0
 16 30  1  6  0  0  0
 17 12  1  0  0  0  0
 18  8  2  0  0  0  0
 19 15  1  0  0  0  0
 20 23  2  0  0  0  0
 20 25  1  0  0  0  0
 21 20  1  0  0  0  0
 22 24  1  0  0  0  0
 22 14  1  0  0  0  0
 23 27  1  0  0  0  0
 25 22  2  0  0  0  0
 26 25  1  0  0  0  0
 27 29  1  0  0  0  0
 27 24  2  0  0  0  0
 29 28  1  0  0  0  0
 30 31  1  0  0  0  0
 31 32  1  0  0  0  0
M  END
>  <MODEL>
8

>  <REMARK>
 VINA RESULT:      -8.9      3.017      6.483
  Name = 
  4 active torsions:
  status: ('A' for Active; 'I' for Inactive)
    1  A    between atoms: C_13  and  N_18
    2  A    between atoms: C_15  and  C_26
    3  A    between atoms: C_16  and  N_27
    4  A    between atoms: N_18  and  C_29
                            x       y       z     vdW  Elec       q    Type
                         _______ _______ _______ _____ _____    ______ ____

>  <TORSDO>
F 4

$$$$
=
 OpenBabel10262421123D

 32 37  0  0  1  0  0  0  0  0999 V2000
  184.8710  178.4810  139.5870 C   0  0  0  0  0  0  0  0  0  0  0  0
  186.5890  178.6210  141.2020 N   0  0  0  0  0  0  0  0  0  0  0  0
  184.5150  178.1380  138.1920 C   0  0  0  0  0  3  0  0  0  0  0  0
  186.1600  178.6520  139.8760 C   0  0  0  0  0  0  0  0  0  0  0  0
  187.9410  178.2420  141.2100 C   0  0  0  0  0  0  0  0  0  0  0  0
  186.3650  177.6330  145.9450 C   0  0  0  0  0  3  0  0  0  0  0  0
  185.7190  178.3560  142.2910 C   0  0  0  0  0  0  0  0  0  0  0  0
  188.4180  177.5020  144.7490 C   0  0  0  0  0  3  0  0  0  0  0  0
  187.7720  177.8190  143.5540 C   0  0  0  0  0  0  0  0  0  0  0  0
  187.2880  178.4990  138.9060 C   0  0  2  0  0  3  0  0  0  0  0  0
  188.5150  177.8490  142.3110 N   0  0  0  0  0  0  0  0  0  0  0  0
  186.8920  177.4980  137.8030 C   0  0  0  0  0  2  0  0  0  0  0  0
  184.4020  178.2760  142.0450 C   0  0  0  0  0  3  0  0  0  0  0  0
  183.9170  178.4310  140.6850 N   0  0  0  0  0  0  0  0  0  0  0  0
  186.3710  178.0420  143.5740 C   0  0  0  0  0  0  0  0  0  0  0  0
  188.4990  178.0960  139.8170 C   0  0  2  0  0  3  0  0  0  0  0  0
  185.4680  177.7230  137.3390 C   0  0  0  0  0  3  0  0  0  0  0  0
  187.7100  177.4220  145.9080 N   0  0  0  0  0  0  0  0  0  0  0  0
  185.6670  177.9450  144.7760 C   0  0  0  0  0  3  0  0  0  0  0  0
  180.5030  177.1350  139.7910 C   0  0  0  0  0  0  0  0  0  0  0  0
  179.8940  175.9970  139.3750 F   0  0  0  0  0  0  0  0  0  0  0  0
  182.5030  178.3620  140.4430 C   0  0  0  0  0  0  0  0  0  0  0  0
  179.7340  178.2830  139.9950 C   0  0  0  0  0  3  0  0  0  0  0  0
  181.7180  179.5080  140.6340 C   0  0  0  0  0  3  0  0  0  0  0  0
  181.8900  177.1670  140.0060 C   0  0  0  0  0  0  0  0  0  0  0  0
  182.7000  175.9440  139.7230 C   0  0  0  0  0  1  0  0  0  0  0  0
  180.3400  179.4700  140.4070 C   0  0  0  0  0  0  0  0  0  0  0  0
  179.6310  181.0840  141.9740 O   0  0  0  0  0  1  0  0  0  0  0  0
  179.5150  180.6860  140.6420 C   0  0  0  0  0  2  0  0  0  0  0  0
  188.9030  176.7140  139.5920 N   0  0  0  0  0  2  0  0  0  0  0  0
  190.3410  176.7160  139.3910 C   0  0  0  0  0  2  0  0  0  0  0  0
  190.6800  175.8840  138.1730 C   0  0  0  0  0  1  0  0  0  0  0  0
  1  4  2  0  0  0  0
  1 14  1  0  0  0  0
  2  5  1  0  0  0  0
  2  7  1  0  0  0  0
  3  1  1  0  0  0  0
  4  2  1  0  0  0  0
  5 11  2  0  0  0  0
  7 15  1  0  0  0  0
  8 18  2  0  0  0  0
  9 15  2  0  0  0  0
  9  8  1  0  0  0  0
 10 12  1  6  0  0  0
 10 16  1  0  0  0  0
 10  4  1  0  0  0  0
 11  9  1  0  0  0  0
 13  7  2  0  0  0  0
 14 13  1  0  0  0  0
 15 19  1  0  0  0  0
 16 30  1  6  0  0  0
 16  5  1  0  0  0  0
 17 12  1  0  0  0  0
 17  3  2  0  0  0  0
 18  6  1  0  0  0  0
 19  6  2  0  0  0  0
 20 23  2  0  0  0  0
 20 25  1  0  0  0  0
 21 20  1  0  0  0  0
 22 24  1  0  0  0  0
 22 14  1  0  0  0  0
 23 27  1  0  0  0  0
 25 22  2  0  0  0  0
 26 25  1  0  0  0  0
 27 24  2  0  0  0  0
 27 29  1  0  0  0  0
 29 28  1  0  0  0  0
 31 30  1  0  0  0  0
 32 31  1  0  0  0  0
M  END
>  <MODEL>
9

>  <REMARK>
 VINA RESULT:      -8.8      3.171      6.661
  Name = 
  4 active torsions:
  status: ('A' for Active; 'I' for Inactive)
    1  A    between atoms: C_13  and  N_18
    2  A    between atoms: C_15  and  C_26
    3  A    between atoms: C_16  and  N_27
    4  A    between atoms: N_18  and  C_29
                            x       y       z     vdW  Elec       q    Type
                         _______ _______ _______ _____ _____    ______ ____

>  <TORSDO>
F 4

$$$$
