=
 OpenBabel10262420143D

 27 31  0  0  1  0  0  0  0  0999 V2000
  190.8560  176.9400  142.7300 C   0  0  0  0  0  3  0  0  0  0  0  0
  188.6810  177.3300  141.6630 N   0  0  0  0  0  0  0  0  0  0  0  0
  188.0100  176.3950  143.8660 C   0  0  0  0  0  2  0  0  0  0  0  0
  188.2740  178.2240  140.7750 N   0  0  0  0  0  0  0  0  0  0  0  0
  190.6750  177.4200  146.3540 C   0  0  2  0  0  3  0  0  0  0  0  0
  189.9280  176.5640  141.6090 C   0  0  1  0  0  3  0  0  0  0  0  0
  186.7650  178.1380  142.4080 C   0  0  0  0  0  0  0  0  0  0  0  0
  190.5180  177.0180  144.0230 C   0  0  0  0  0  0  0  0  0  0  0  0
  187.7930  177.2490  142.6610 C   0  0  0  0  0  0  0  0  0  0  0  0
  189.2480  176.9780  146.0060 C   0  0  0  0  0  2  0  0  0  0  0  0
  187.1000  178.7380  141.1990 C   0  0  0  0  0  3  0  0  0  0  0  0
  191.5010  177.3760  145.0650 C   0  0  0  0  0  2  0  0  0  0  0  0
  189.2140  176.8220  144.5670 N   0  0  0  0  0  0  0  0  0  0  0  0
  184.3190  178.5810  142.6150 C   0  0  0  0  0  3  0  0  0  0  0  0
  183.2900  179.0000  144.7660 C   0  0  0  0  0  3  0  0  0  0  0  0
  184.5330  178.8560  145.3860 C   0  0  0  0  0  3  0  0  0  0  0  0
  185.6680  178.5740  144.6220 C   0  0  0  0  0  3  0  0  0  0  0  0
  185.5720  178.4350  143.2280 C   0  0  0  0  0  0  0  0  0  0  0  0
  183.1830  178.8630  143.3800 C   0  0  0  0  0  3  0  0  0  0  0  0
  191.9220  176.8100  137.8050 C   0  0  0  0  0  3  0  0  0  0  0  0
  190.6040  176.6560  140.2720 C   0  0  0  0  0  0  0  0  0  0  0  0
  191.9340  177.0870  140.2110 C   0  0  0  0  0  3  0  0  0  0  0  0
  192.5910  177.1660  138.9800 C   0  0  0  0  0  3  0  0  0  0  0  0
  190.5960  176.3740  137.8600 C   0  0  0  0  0  3  0  0  0  0  0  0
  189.9370  176.2940  139.0900 C   0  0  0  0  0  3  0  0  0  0  0  0
  192.2600  175.6860  146.7780 O   0  0  0  0  0  1  0  0  0  0  0  0
  191.2830  176.4810  147.3800 C   0  0  0  0  0  2  0  0  0  0  0  0
  1  8  2  0  0  0  0
  2  9  1  0  0  0  0
  3 13  1  0  0  0  0
  4 11  2  0  0  0  0
  4  2  1  0  0  0  0
  5 27  1  1  0  0  0
  6 21  1  6  0  0  0
  6  2  1  0  0  0  0
  6  1  1  0  0  0  0
  7  9  2  0  0  0  0
  7 18  1  0  0  0  0
  8 13  1  0  0  0  0
  8 12  1  0  0  0  0
  9  3  1  0  0  0  0
 10  5  1  0  0  0  0
 11  7  1  0  0  0  0
 12  5  1  0  0  0  0
 13 10  1  0  0  0  0
 14 18  2  0  0  0  0
 14 19  1  0  0  0  0
 15 16  1  0  0  0  0
 17 16  2  0  0  0  0
 18 17  1  0  0  0  0
 19 15  2  0  0  0  0
 20 24  2  0  0  0  0
 20 23  1  0  0  0  0
 22 21  1  0  0  0  0
 23 22  2  0  0  0  0
 24 25  1  0  0  0  0
 25 21  2  0  0  0  0
 26 27  1  0  0  0  0
M  END
>  <MODEL>
1

>  <REMARK>
 VINA RESULT:      -9.6      0.000      0.000
  Name = 
  3 active torsions:
  status: ('A' for Active; 'I' for Inactive)
    1  A    between atoms: C_9  and  C_15
    2  A    between atoms: C_13  and  C_22
    3  A    between atoms: C_14  and  C_17
                            x       y       z     vdW  Elec       q    Type
                         _______ _______ _______ _____ _____    ______ ____

>  <TORSDO>
F 3

$$$$
=
 OpenBabel10262420143D

 27 31  0  0  1  0  0  0  0  0999 V2000
  188.5480  177.3210  138.8100 C   0  0  0  0  0  3  0  0  0  0  0  0
  189.6440  177.0850  140.9920 N   0  0  0  0  0  0  0  0  0  0  0  0
  187.9800  178.8750  141.4460 C   0  0  0  0  0  2  0  0  0  0  0  0
  190.2100  176.0520  141.5950 N   0  0  0  0  0  0  0  0  0  0  0  0
  185.0210  178.2290  139.1730 C   0  0  2  0  0  3  0  0  0  0  0  0
  189.8230  177.4730  139.5920 C   0  0  1  0  0  3  0  0  0  0  0  0
  188.8780  177.0610  143.0640 C   0  0  0  0  0  0  0  0  0  0  0  0
  187.3510  177.7930  139.1800 C   0  0  0  0  0  0  0  0  0  0  0  0
  188.8350  177.7210  141.8490 C   0  0  0  0  0  0  0  0  0  0  0  0
  185.6510  178.8310  140.4360 C   0  0  0  0  0  2  0  0  0  0  0  0
  189.7640  176.0080  142.8700 C   0  0  0  0  0  3  0  0  0  0  0  0
  186.1500  177.6170  138.3390 C   0  0  0  0  0  2  0  0  0  0  0  0
  187.0510  178.4640  140.4020 N   0  0  0  0  0  0  0  0  0  0  0  0
  188.8290  177.4660  145.5250 C   0  0  0  0  0  3  0  0  0  0  0  0
  186.7560  177.9290  146.6860 C   0  0  0  0  0  3  0  0  0  0  0  0
  186.0590  177.8270  145.4800 C   0  0  0  0  0  3  0  0  0  0  0  0
  186.7470  177.5450  144.2970 C   0  0  0  0  0  3  0  0  0  0  0  0
  188.1380  177.3610  144.3080 C   0  0  0  0  0  0  0  0  0  0  0  0
  188.1410  177.7490  146.7090 C   0  0  0  0  0  3  0  0  0  0  0  0
  193.0640  175.4060  137.6600 C   0  0  0  0  0  3  0  0  0  0  0  0
  190.9670  176.7560  138.9360 C   0  0  0  0  0  0  0  0  0  0  0  0
  190.6950  175.6850  138.0770 C   0  0  0  0  0  3  0  0  0  0  0  0
  191.7410  175.0100  137.4410 C   0  0  0  0  0  3  0  0  0  0  0  0
  193.3420  176.4780  138.5130 C   0  0  0  0  0  3  0  0  0  0  0  0
  192.2970  177.1530  139.1490 C   0  0  0  0  0  3  0  0  0  0  0  0
  184.2540  180.4880  139.1070 O   0  0  0  0  0  1  0  0  0  0  0  0
  184.3200  179.3070  138.3670 C   0  0  0  0  0  2  0  0  0  0  0  0
  1  8  2  0  0  0  0
  1  6  1  0  0  0  0
  2  4  1  0  0  0  0
  2  9  1  0  0  0  0
  3  9  1  0  0  0  0
  4 11  2  0  0  0  0
  5 27  1  6  0  0  0
  5 10  1  0  0  0  0
  6 21  1  6  0  0  0
  6  2  1  0  0  0  0
  7 18  1  0  0  0  0
  8 13  1  0  0  0  0
  9  7  2  0  0  0  0
 11  7  1  0  0  0  0
 12  5  1  0  0  0  0
 12  8  1  0  0  0  0
 13 10  1  0  0  0  0
 13  3  1  0  0  0  0
 14 19  1  0  0  0  0
 15 19  2  0  0  0  0
 16 15  1  0  0  0  0
 17 18  1  0  0  0  0
 17 16  2  0  0  0  0
 18 14  2  0  0  0  0
 20 24  1  0  0  0  0
 21 25  1  0  0  0  0
 22 21  2  0  0  0  0
 23 20  2  0  0  0  0
 23 22  1  0  0  0  0
 24 25  2  0  0  0  0
 27 26  1  0  0  0  0
M  END
>  <MODEL>
2

>  <REMARK>
 VINA RESULT:      -8.8      2.984      5.290
  Name = 
  3 active torsions:
  status: ('A' for Active; 'I' for Inactive)
    1  A    between atoms: C_9  and  C_15
    2  A    between atoms: C_13  and  C_22
    3  A    between atoms: C_14  and  C_17
                            x       y       z     vdW  Elec       q    Type
                         _______ _______ _______ _____ _____    ______ ____

>  <TORSDO>
F 3

$$$$
=
 OpenBabel10262420143D

 27 31  0  0  1  0  0  0  0  0999 V2000
  189.8150  177.2230  142.5050 C   0  0  0  0  0  3  0  0  0  0  0  0
  187.9280  177.7300  143.9900 N   0  0  0  0  0  0  0  0  0  0  0  0
  187.3720  179.0790  141.9780 C   0  0  0  0  0  2  0  0  0  0  0  0
  187.3270  177.0250  144.9350 N   0  0  0  0  0  0  0  0  0  0  0  0
  188.7940  177.2360  138.9900 C   0  0  2  0  0  3  0  0  0  0  0  0
  189.3740  177.8580  143.7950 C   0  0  1  0  0  3  0  0  0  0  0  0
  185.7560  177.9300  143.6450 C   0  0  0  0  0  0  0  0  0  0  0  0
  189.2540  177.4320  141.3070 C   0  0  0  0  0  0  0  0  0  0  0  0
  187.0110  178.2940  143.1940 C   0  0  0  0  0  0  0  0  0  0  0  0
  187.8080  178.2250  139.6260 C   0  0  0  0  0  2  0  0  0  0  0  0
  185.9920  177.1270  144.7550 C   0  0  0  0  0  3  0  0  0  0  0  0
  189.7640  176.7820  140.0840 C   0  0  0  0  0  2  0  0  0  0  0  0
  188.1070  178.2360  141.0420 N   0  0  0  0  0  0  0  0  0  0  0  0
  183.4250  178.7770  143.9190 C   0  0  0  0  0  3  0  0  0  0  0  0
  181.9100  178.9340  142.0380 C   0  0  0  0  0  3  0  0  0  0  0  0
  182.9070  178.4340  141.1970 C   0  0  0  0  0  3  0  0  0  0  0  0
  184.1620  178.1060  141.7160 C   0  0  0  0  0  3  0  0  0  0  0  0
  184.4330  178.2740  143.0830 C   0  0  0  0  0  0  0  0  0  0  0  0
  182.1700  179.1060  143.4000 C   0  0  0  0  0  3  0  0  0  0  0  0
  191.5770  176.3810  147.1830 C   0  0  0  0  0  3  0  0  0  0  0  0
  190.1610  177.3440  144.9640 C   0  0  0  0  0  0  0  0  0  0  0  0
  189.7390  177.6610  146.2600 C   0  0  0  0  0  3  0  0  0  0  0  0
  190.4450  177.1830  147.3680 C   0  0  0  0  0  3  0  0  0  0  0  0
  192.0000  176.0570  145.8910 C   0  0  0  0  0  3  0  0  0  0  0  0
  191.2950  176.5350  144.7840 C   0  0  0  0  0  3  0  0  0  0  0  0
  189.1260  179.2210  137.7070 O   0  0  0  0  0  1  0  0  0  0  0  0
  189.5660  177.9060  137.8690 C   0  0  0  0  0  2  0  0  0  0  0  0
  1  6  1  0  0  0  0
  2  4  1  0  0  0  0
  3  9  1  0  0  0  0
  5 27  1  6  0  0  0
  5 10  1  0  0  0  0
  5 12  1  0  0  0  0
  6  2  1  0  0  0  0
  6 21  1  1  0  0  0
  7 11  1  0  0  0  0
  8  1  2  0  0  0  0
  9  7  2  0  0  0  0
  9  2  1  0  0  0  0
 10 13  1  0  0  0  0
 11  4  2  0  0  0  0
 12  8  1  0  0  0  0
 13  8  1  0  0  0  0
 13  3  1  0  0  0  0
 15 19  2  0  0  0  0
 16 17  2  0  0  0  0
 16 15  1  0  0  0  0
 17 18  1  0  0  0  0
 18  7  1  0  0  0  0
 18 14  2  0  0  0  0
 19 14  1  0  0  0  0
 20 23  1  0  0  0  0
 21 22  1  0  0  0  0
 22 23  2  0  0  0  0
 24 20  2  0  0  0  0
 25 21  2  0  0  0  0
 25 24  1  0  0  0  0
 26 27  1  0  0  0  0
M  END
>  <MODEL>
3

>  <REMARK>
 VINA RESULT:      -8.8      2.402      5.427
  Name = 
  3 active torsions:
  status: ('A' for Active; 'I' for Inactive)
    1  A    between atoms: C_9  and  C_15
    2  A    between atoms: C_13  and  C_22
    3  A    between atoms: C_14  and  C_17
                            x       y       z     vdW  Elec       q    Type
                         _______ _______ _______ _____ _____    ______ ____

>  <TORSDO>
F 3

$$$$
=
 OpenBabel10262420143D

 27 31  0  0  1  0  0  0  0  0999 V2000
  185.5660  178.4310  141.4040 C   0  0  0  0  0  3  0  0  0  0  0  0
  185.1390  178.3020  143.8170 N   0  0  0  0  0  0  0  0  0  0  0  0
  187.1180  176.8170  143.5670 C   0  0  0  0  0  2  0  0  0  0  0  0
  184.6240  179.1670  144.6760 N   0  0  0  0  0  0  0  0  0  0  0  0
  189.1390  178.1590  140.6590 C   0  0  2  0  0  3  0  0  0  0  0  0
  184.6170  177.9920  142.4850 C   0  0  1  0  0  3  0  0  0  0  0  0
  186.4690  178.3130  145.5810 C   0  0  0  0  0  0  0  0  0  0  0  0
  186.8770  178.1600  141.3670 C   0  0  0  0  0  0  0  0  0  0  0  0
  186.2520  177.7630  144.3310 C   0  0  0  0  0  0  0  0  0  0  0  0
  189.0100  177.3610  141.9630 C   0  0  0  0  0  2  0  0  0  0  0  0
  185.4140  179.1980  145.7710 C   0  0  0  0  0  3  0  0  0  0  0  0
  187.7350  178.6130  140.2540 C   0  0  0  0  0  2  0  0  0  0  0  0
  187.6230  177.4670  142.3650 N   0  0  0  0  0  0  0  0  0  0  0  0
  187.4130  178.3360  147.8900 C   0  0  0  0  0  3  0  0  0  0  0  0
  189.6740  177.5970  148.3370 C   0  0  0  0  0  3  0  0  0  0  0  0
  189.8500  177.3220  146.9790 C   0  0  0  0  0  3  0  0  0  0  0  0
  188.8080  177.5530  146.0770 C   0  0  0  0  0  3  0  0  0  0  0  0
  187.5790  178.0630  146.5240 C   0  0  0  0  0  0  0  0  0  0  0  0
  188.4550  178.1050  148.7930 C   0  0  0  0  0  3  0  0  0  0  0  0
  180.6500  179.5100  141.8060 C   0  0  0  0  0  3  0  0  0  0  0  0
  183.2360  178.5340  142.2660 C   0  0  0  0  0  0  0  0  0  0  0  0
  182.7610  178.6800  140.9580 C   0  0  0  0  0  3  0  0  0  0  0  0
  181.4720  179.1690  140.7270 C   0  0  0  0  0  3  0  0  0  0  0  0
  181.1160  179.3610  143.1150 C   0  0  0  0  0  3  0  0  0  0  0  0
  182.4040  178.8730  143.3460 C   0  0  0  0  0  3  0  0  0  0  0  0
  190.4830  176.2590  140.1280 O   0  0  0  0  0  1  0  0  0  0  0  0
  189.7280  177.2890  139.5640 C   0  0  0  0  0  2  0  0  0  0  0  0
  1  6  1  0  0  0  0
  2  9  1  0  0  0  0
  2  4  1  0  0  0  0
  3  9  1  0  0  0  0
  4 11  2  0  0  0  0
  5 27  1  6  0  0  0
  5 10  1  0  0  0  0
  6 21  1  6  0  0  0
  6  2  1  0  0  0  0
  7 11  1  0  0  0  0
  7 18  1  0  0  0  0
  8  1  2  0  0  0  0
  8 13  1  0  0  0  0
  9  7  2  0  0  0  0
 10 13  1  0  0  0  0
 12  5  1  0  0  0  0
 12  8  1  0  0  0  0
 13  3  1  0  0  0  0
 14 19  1  0  0  0  0
 15 19  2  0  0  0  0
 16 15  1  0  0  0  0
 17 18  1  0  0  0  0
 17 16  2  0  0  0  0
 18 14  2  0  0  0  0
 20 24  1  0  0  0  0
 21 25  1  0  0  0  0
 22 21  2  0  0  0  0
 23 22  1  0  0  0  0
 23 20  2  0  0  0  0
 24 25  2  0  0  0  0
 27 26  1  0  0  0  0
M  END
>  <MODEL>
4

>  <REMARK>
 VINA RESULT:      -8.6      2.513      6.758
  Name = 
  3 active torsions:
  status: ('A' for Active; 'I' for Inactive)
    1  A    between atoms: C_9  and  C_15
    2  A    between atoms: C_13  and  C_22
    3  A    between atoms: C_14  and  C_17
                            x       y       z     vdW  Elec       q    Type
                         _______ _______ _______ _____ _____    ______ ____

>  <TORSDO>
F 3

$$$$
=
 OpenBabel10262420143D

 27 31  0  0  1  0  0  0  0  0999 V2000
  189.9210  177.1760  142.5500 C   0  0  0  0  0  3  0  0  0  0  0  0
  188.0060  177.7050  143.9910 N   0  0  0  0  0  0  0  0  0  0  0  0
  187.5160  179.0650  141.9680 C   0  0  0  0  0  2  0  0  0  0  0  0
  187.3730  177.0060  144.9190 N   0  0  0  0  0  0  0  0  0  0  0  0
  188.9840  177.2080  139.0120 C   0  0  2  0  0  3  0  0  0  0  0  0
  189.4580  177.8130  143.8300 C   0  0  1  0  0  3  0  0  0  0  0  0
  185.8450  177.9340  143.5940 C   0  0  0  0  0  0  0  0  0  0  0  0
  189.3910  177.3940  141.3390 C   0  0  0  0  0  0  0  0  0  0  0  0
  187.1160  178.2820  143.1740 C   0  0  0  0  0  0  0  0  0  0  0  0
  187.9970  178.2090  139.6260 C   0  0  0  0  0  2  0  0  0  0  0  0
  186.0440  177.1260  144.7070 C   0  0  0  0  0  3  0  0  0  0  0  0
  189.9230  176.7400  140.1270 C   0  0  0  0  0  2  0  0  0  0  0  0
  188.2620  178.2140  141.0490 N   0  0  0  0  0  0  0  0  0  0  0  0
  184.3690  178.2530  141.6090 C   0  0  0  0  0  3  0  0  0  0  0  0
  182.0720  178.9790  141.8490 C   0  0  0  0  0  3  0  0  0  0  0  0
  182.2330  179.0240  143.2350 C   0  0  0  0  0  3  0  0  0  0  0  0
  183.4610  178.6840  143.8090 C   0  0  0  0  0  3  0  0  0  0  0  0
  184.5410  178.2960  143.0010 C   0  0  0  0  0  0  0  0  0  0  0  0
  183.1400  178.5930  141.0350 C   0  0  0  0  0  3  0  0  0  0  0  0
  191.6700  176.3100  147.2000 C   0  0  0  0  0  3  0  0  0  0  0  0
  190.2100  177.2880  145.0170 C   0  0  0  0  0  0  0  0  0  0  0  0
  191.3280  176.4720  144.8070 C   0  0  0  0  0  3  0  0  0  0  0  0
  192.0560  175.9820  145.8950 C   0  0  0  0  0  3  0  0  0  0  0  0
  190.5580  177.1280  147.4150 C   0  0  0  0  0  3  0  0  0  0  0  0
  189.8300  177.6180  146.3280 C   0  0  0  0  0  3  0  0  0  0  0  0
  188.9530  178.6350  137.0980 O   0  0  0  0  0  1  0  0  0  0  0  0
  189.7920  177.8710  137.9110 C   0  0  0  0  0  2  0  0  0  0  0  0
  1  6  1  0  0  0  0
  2  4  1  0  0  0  0
  3  9  1  0  0  0  0
  5 27  1  6  0  0  0
  5 10  1  0  0  0  0
  5 12  1  0  0  0  0
  6  2  1  0  0  0  0
  6 21  1  1  0  0  0
  7 11  1  0  0  0  0
  8  1  2  0  0  0  0
  9  7  2  0  0  0  0
  9  2  1  0  0  0  0
 10 13  1  0  0  0  0
 11  4  2  0  0  0  0
 12  8  1  0  0  0  0
 13  8  1  0  0  0  0
 13  3  1  0  0  0  0
 14 18  1  0  0  0  0
 15 16  2  0  0  0  0
 16 17  1  0  0  0  0
 18  7  1  0  0  0  0
 18 17  2  0  0  0  0
 19 14  2  0  0  0  0
 19 15  1  0  0  0  0
 20 24  1  0  0  0  0
 21 25  1  0  0  0  0
 22 21  2  0  0  0  0
 22 23  1  0  0  0  0
 23 20  2  0  0  0  0
 25 24  2  0  0  0  0
 26 27  1  0  0  0  0
M  END
>  <MODEL>
5

>  <REMARK>
 VINA RESULT:      -8.5      2.442      5.394
  Name = 
  3 active torsions:
  status: ('A' for Active; 'I' for Inactive)
    1  A    between atoms: C_9  and  C_15
    2  A    between atoms: C_13  and  C_22
    3  A    between atoms: C_14  and  C_17
                            x       y       z     vdW  Elec       q    Type
                         _______ _______ _______ _____ _____    ______ ____

>  <TORSDO>
F 3

$$$$
=
 OpenBabel10262420143D

 27 31  0  0  1  0  0  0  0  0999 V2000
  186.3850  178.2850  141.6300 C   0  0  0  0  0  3  0  0  0  0  0  0
  186.4610  177.7970  144.0340 N   0  0  0  0  0  0  0  0  0  0  0  0
  188.2860  176.3520  143.1590 C   0  0  0  0  0  2  0  0  0  0  0  0
  186.1690  178.5270  145.0980 N   0  0  0  0  0  0  0  0  0  0  0  0
  189.7130  178.1010  140.1190 C   0  0  2  0  0  3  0  0  0  0  0  0
  185.6640  177.6950  142.8100 C   0  0  1  0  0  3  0  0  0  0  0  0
  188.1270  177.5320  145.4610 C   0  0  0  0  0  0  0  0  0  0  0  0
  187.6480  178.0130  141.2790 C   0  0  0  0  0  0  0  0  0  0  0  0
  187.6350  177.1780  144.2180 C   0  0  0  0  0  0  0  0  0  0  0  0
  189.8260  177.1160  141.2900 C   0  0  0  0  0  2  0  0  0  0  0  0
  187.1690  178.3860  145.9960 C   0  0  0  0  0  3  0  0  0  0  0  0
  188.2750  178.6220  140.0890 C   0  0  0  0  0  2  0  0  0  0  0  0
  188.5570  177.1720  141.9850 N   0  0  0  0  0  0  0  0  0  0  0  0
  190.4920  176.7550  145.3120 C   0  0  0  0  0  3  0  0  0  0  0  0
  191.8230  176.3740  147.2980 C   0  0  0  0  0  3  0  0  0  0  0  0
  190.7390  176.7500  148.0940 C   0  0  0  0  0  3  0  0  0  0  0  0
  189.5320  177.1290  147.5000 C   0  0  0  0  0  3  0  0  0  0  0  0
  189.3970  177.1340  146.1030 C   0  0  0  0  0  0  0  0  0  0  0  0
  191.7000  176.3760  145.9060 C   0  0  0  0  0  3  0  0  0  0  0  0
  181.7010  179.3210  143.2150 C   0  0  0  0  0  3  0  0  0  0  0  0
  184.2890  178.2750  142.9680 C   0  0  0  0  0  0  0  0  0  0  0  0
  183.4880  178.4450  141.8330 C   0  0  0  0  0  3  0  0  0  0  0  0
  182.1970  178.9690  141.9550 C   0  0  0  0  0  3  0  0  0  0  0  0
  182.4950  179.1480  144.3520 C   0  0  0  0  0  3  0  0  0  0  0  0
  183.7850  178.6250  144.2310 C   0  0  0  0  0  3  0  0  0  0  0  0
  190.3800  176.0730  139.0510 O   0  0  0  0  0  1  0  0  0  0  0  0
  190.0290  177.4020  138.8090 C   0  0  0  0  0  2  0  0  0  0  0  0
  1  6  1  0  0  0  0
  2  9  1  0  0  0  0
  2  4  1  0  0  0  0
  3  9  1  0  0  0  0
  4 11  2  0  0  0  0
  5 27  1  6  0  0  0
  5 10  1  0  0  0  0
  6 21  1  1  0  0  0
  6  2  1  0  0  0  0
  7 11  1  0  0  0  0
  7 18  1  0  0  0  0
  8  1  2  0  0  0  0
  8 13  1  0  0  0  0
  9  7  2  0  0  0  0
 10 13  1  0  0  0  0
 12  5  1  0  0  0  0
 12  8  1  0  0  0  0
 13  3  1  0  0  0  0
 14 19  2  0  0  0  0
 14 18  1  0  0  0  0
 15 16  2  0  0  0  0
 17 16  1  0  0  0  0
 18 17  2  0  0  0  0
 19 15  1  0  0  0  0
 20 24  1  0  0  0  0
 21 25  1  0  0  0  0
 22 23  1  0  0  0  0
 22 21  2  0  0  0  0
 23 20  2  0  0  0  0
 25 24  2  0  0  0  0
 27 26  1  0  0  0  0
M  END
>  <MODEL>
6

>  <REMARK>
 VINA RESULT:      -8.4      2.083      6.857
  Name = 
  3 active torsions:
  status: ('A' for Active; 'I' for Inactive)
    1  A    between atoms: C_9  and  C_15
    2  A    between atoms: C_13  and  C_22
    3  A    between atoms: C_14  and  C_17
                            x       y       z     vdW  Elec       q    Type
                         _______ _______ _______ _____ _____    ______ ____

>  <TORSDO>
F 3

$$$$
=
 OpenBabel10262420143D

 27 31  0  0  1  0  0  0  0  0999 V2000
  187.4640  177.7010  139.0990 C   0  0  0  0  0  3  0  0  0  0  0  0
  188.6160  177.4560  141.2510 N   0  0  0  0  0  0  0  0  0  0  0  0
  186.9720  179.2510  141.7530 C   0  0  0  0  0  2  0  0  0  0  0  0
  189.1940  176.4190  141.8370 N   0  0  0  0  0  0  0  0  0  0  0  0
  183.9510  178.6220  139.5570 C   0  0  2  0  0  3  0  0  0  0  0  0
  188.7590  177.8460  139.8470 C   0  0  1  0  0  3  0  0  0  0  0  0
  187.9050  177.4300  143.3430 C   0  0  0  0  0  0  0  0  0  0  0  0
  186.2780  178.1760  139.5020 C   0  0  0  0  0  0  0  0  0  0  0  0
  187.8330  178.0930  142.1310 C   0  0  0  0  0  0  0  0  0  0  0  0
  184.6160  179.2180  140.8050 C   0  0  0  0  0  2  0  0  0  0  0  0
  188.7810  176.3740  143.1220 C   0  0  0  0  0  3  0  0  0  0  0  0
  185.0550  178.0070  138.6930 C   0  0  0  0  0  2  0  0  0  0  0  0
  186.0130  178.8460  140.7330 N   0  0  0  0  0  0  0  0  0  0  0  0
  187.8790  177.6220  145.8290 C   0  0  0  0  0  3  0  0  0  0  0  0
  185.8820  178.2930  147.0220 C   0  0  0  0  0  3  0  0  0  0  0  0
  185.1970  178.4030  145.8100 C   0  0  0  0  0  3  0  0  0  0  0  0
  185.8530  178.1230  144.6080 C   0  0  0  0  0  3  0  0  0  0  0  0
  187.2000  177.7290  144.6060 C   0  0  0  0  0  0  0  0  0  0  0  0
  187.2230  177.9020  147.0320 C   0  0  0  0  0  3  0  0  0  0  0  0
  191.9450  175.7830  137.8220 C   0  0  0  0  0  3  0  0  0  0  0  0
  189.8820  177.1260  139.1600 C   0  0  0  0  0  0  0  0  0  0  0  0
  189.5860  176.2440  138.1140 C   0  0  0  0  0  3  0  0  0  0  0  0
  190.6140  175.5720  137.4470 C   0  0  0  0  0  3  0  0  0  0  0  0
  192.2480  176.6660  138.8610 C   0  0  0  0  0  3  0  0  0  0  0  0
  191.2200  177.3380  139.5290 C   0  0  0  0  0  3  0  0  0  0  0  0
  183.9560  180.8960  138.8340 O   0  0  0  0  0  1  0  0  0  0  0  0
  183.2330  179.7040  138.7730 C   0  0  0  0  0  2  0  0  0  0  0  0
  1  8  2  0  0  0  0
  1  6  1  0  0  0  0
  2  4  1  0  0  0  0
  2  9  1  0  0  0  0
  3  9  1  0  0  0  0
  4 11  2  0  0  0  0
  5 27  1  6  0  0  0
  5 10  1  0  0  0  0
  6 21  1  6  0  0  0
  6  2  1  0  0  0  0
  7 18  1  0  0  0  0
  8 13  1  0  0  0  0
  9  7  2  0  0  0  0
 11  7  1  0  0  0  0
 12  8  1  0  0  0  0
 12  5  1  0  0  0  0
 13 10  1  0  0  0  0
 13  3  1  0  0  0  0
 14 19  1  0  0  0  0
 15 19  2  0  0  0  0
 16 15  1  0  0  0  0
 17 16  2  0  0  0  0
 18 17  1  0  0  0  0
 18 14  2  0  0  0  0
 20 24  1  0  0  0  0
 21 25  1  0  0  0  0
 22 21  2  0  0  0  0
 23 20  2  0  0  0  0
 23 22  1  0  0  0  0
 24 25  2  0  0  0  0
 27 26  1  0  0  0  0
M  END
>  <MODEL>
7

>  <REMARK>
 VINA RESULT:      -8.3      3.032      5.356
  Name = 
  3 active torsions:
  status: ('A' for Active; 'I' for Inactive)
    1  A    between atoms: C_9  and  C_15
    2  A    between atoms: C_13  and  C_22
    3  A    between atoms: C_14  and  C_17
                            x       y       z     vdW  Elec       q    Type
                         _______ _______ _______ _____ _____    ______ ____

>  <TORSDO>
F 3

$$$$
=
 OpenBabel10262420143D

 27 31  0  0  1  0  0  0  0  0999 V2000
  188.6130  177.5380  146.0980 C   0  0  0  0  0  3  0  0  0  0  0  0
  190.2910  176.9700  144.4000 N   0  0  0  0  0  0  0  0  0  0  0  0
  188.1680  176.4410  143.2190 C   0  0  0  0  0  2  0  0  0  0  0  0
  191.4980  177.4510  144.1470 N   0  0  0  0  0  0  0  0  0  0  0  0
  185.5380  178.8060  144.5710 C   0  0  2  0  0  3  0  0  0  0  0  0
  189.7530  176.6340  145.7200 C   0  0  1  0  0  3  0  0  0  0  0  0
  190.3960  177.3070  142.2190 C   0  0  0  0  0  0  0  0  0  0  0  0
  187.5580  177.8210  145.3230 C   0  0  0  0  0  0  0  0  0  0  0  0
  189.5980  176.8660  143.2590 C   0  0  0  0  0  0  0  0  0  0  0  0
  186.0910  177.8780  143.4820 C   0  0  0  0  0  2  0  0  0  0  0  0
  191.5970  177.6680  142.8170 C   0  0  0  0  0  3  0  0  0  0  0  0
  186.4690  178.7050  145.7820 C   0  0  0  0  0  2  0  0  0  0  0  0
  187.3510  177.3730  143.9850 N   0  0  0  0  0  0  0  0  0  0  0  0
  190.8640  176.7520  139.8320 C   0  0  0  0  0  3  0  0  0  0  0  0
  189.4720  177.6030  138.0430 C   0  0  0  0  0  3  0  0  0  0  0  0
  188.6760  178.2660  138.9800 C   0  0  0  0  0  3  0  0  0  0  0  0
  188.9730  178.1720  140.3420 C   0  0  0  0  0  3  0  0  0  0  0  0
  190.0700  177.4150  140.7810 C   0  0  0  0  0  0  0  0  0  0  0  0
  190.5670  176.8460  138.4690 C   0  0  0  0  0  3  0  0  0  0  0  0
  192.7460  176.5550  148.8090 C   0  0  0  0  0  3  0  0  0  0  0  0
  190.8120  176.6000  146.7820 C   0  0  0  0  0  0  0  0  0  0  0  0
  190.7540  177.5250  147.8300 C   0  0  0  0  0  3  0  0  0  0  0  0
  191.7190  177.5050  148.8410 C   0  0  0  0  0  3  0  0  0  0  0  0
  192.8050  175.6250  147.7680 C   0  0  0  0  0  3  0  0  0  0  0  0
  191.8410  175.6440  146.7580 C   0  0  0  0  0  3  0  0  0  0  0  0
  183.8140  178.9100  146.2180 O   0  0  0  0  0  1  0  0  0  0  0  0
  184.1370  178.3790  144.9690 C   0  0  0  0  0  2  0  0  0  0  0  0
  2  6  1  0  0  0  0
  3  9  1  0  0  0  0
  3 13  1  0  0  0  0
  4  2  1  0  0  0  0
  5 27  1  1  0  0  0
  5 12  1  0  0  0  0
  6  1  1  0  0  0  0
  6 21  1  1  0  0  0
  7 11  1  0  0  0  0
  7  9  2  0  0  0  0
  8 12  1  0  0  0  0
  8  1  2  0  0  0  0
  9  2  1  0  0  0  0
 10 13  1  0  0  0  0
 10  5  1  0  0  0  0
 11  4  2  0  0  0  0
 13  8  1  0  0  0  0
 14 18  1  0  0  0  0
 15 19  1  0  0  0  0
 15 16  2  0  0  0  0
 16 17  1  0  0  0  0
 17 18  2  0  0  0  0
 18  7  1  0  0  0  0
 19 14  2  0  0  0  0
 20 23  1  0  0  0  0
 21 22  1  0  0  0  0
 22 23  2  0  0  0  0
 24 20  2  0  0  0  0
 25 21  2  0  0  0  0
 25 24  1  0  0  0  0
 27 26  1  0  0  0  0
M  END
>  <MODEL>
8

>  <REMARK>
 VINA RESULT:      -8.3      2.271      6.577
  Name = 
  3 active torsions:
  status: ('A' for Active; 'I' for Inactive)
    1  A    between atoms: C_9  and  C_15
    2  A    between atoms: C_13  and  C_22
    3  A    between atoms: C_14  and  C_17
                            x       y       z     vdW  Elec       q    Type
                         _______ _______ _______ _____ _____    ______ ____

>  <TORSDO>
F 3

$$$$
=
 OpenBabel10262420143D

 27 31  0  0  1  0  0  0  0  0999 V2000
  188.0740  177.5600  145.6540 C   0  0  0  0  0  3  0  0  0  0  0  0
  188.0480  177.9850  143.2370 N   0  0  0  0  0  0  0  0  0  0  0  0
  190.4270  178.4260  143.8090 C   0  0  0  0  0  2  0  0  0  0  0  0
  187.3190  177.4820  142.2540 N   0  0  0  0  0  0  0  0  0  0  0  0
  191.2870  176.1840  146.7370 C   0  0  2  0  0  3  0  0  0  0  0  0
  187.5520  178.4270  144.5420 C   0  0  1  0  0  3  0  0  0  0  0  0
  189.4480  177.4750  141.6060 C   0  0  0  0  0  0  0  0  0  0  0  0
  189.3560  177.2190  145.8340 C   0  0  0  0  0  0  0  0  0  0  0  0
  189.3380  178.0000  142.8810 C   0  0  0  0  0  0  0  0  0  0  0  0
  191.6800  177.0210  145.5130 C   0  0  0  0  0  2  0  0  0  0  0  0
  188.1460  177.1590  141.2360 C   0  0  0  0  0  3  0  0  0  0  0  0
  189.7870  176.3780  146.9690 C   0  0  0  0  0  2  0  0  0  0  0  0
  190.4470  177.5600  144.9810 N   0  0  0  0  0  0  0  0  0  0  0  0
  190.5510  176.7900  139.4760 C   0  0  0  0  0  3  0  0  0  0  0  0
  192.9590  176.8270  139.2340 C   0  0  0  0  0  3  0  0  0  0  0  0
  193.0820  177.2900  140.5460 C   0  0  0  0  0  3  0  0  0  0  0  0
  191.9400  177.5030  141.3230 C   0  0  0  0  0  3  0  0  0  0  0  0
  190.6640  177.2540  140.7960 C   0  0  0  0  0  0  0  0  0  0  0  0
  191.6930  176.5770  138.6990 C   0  0  0  0  0  3  0  0  0  0  0  0
  183.2680  178.7880  144.7120 C   0  0  0  0  0  3  0  0  0  0  0  0
  186.0560  178.5420  144.5820 C   0  0  0  0  0  0  0  0  0  0  0  0
  185.4040  178.5070  145.8190 C   0  0  0  0  0  3  0  0  0  0  0  0
  184.0130  178.6280  145.8850 C   0  0  0  0  0  3  0  0  0  0  0  0
  183.9150  178.8300  143.4740 C   0  0  0  0  0  3  0  0  0  0  0  0
  185.3050  178.7090  143.4070 C   0  0  0  0  0  3  0  0  0  0  0  0
  193.1710  175.8310  148.1600 O   0  0  0  0  0  1  0  0  0  0  0  0
  192.0550  176.6460  147.9620 C   0  0  0  0  0  2  0  0  0  0  0  0
  1  8  2  0  0  0  0
  2  6  1  0  0  0  0
  3 13  1  0  0  0  0
  4  2  1  0  0  0  0
  5 12  1  0  0  0  0
  5 27  1  1  0  0  0
  6 21  1  6  0  0  0
  6  1  1  0  0  0  0
  7  9  2  0  0  0  0
  8 12  1  0  0  0  0
  9  2  1  0  0  0  0
  9  3  1  0  0  0  0
 10  5  1  0  0  0  0
 11  7  1  0  0  0  0
 11  4  2  0  0  0  0
 13 10  1  0  0  0  0
 13  8  1  0  0  0  0
 14 18  1  0  0  0  0
 15 16  2  0  0  0  0
 16 17  1  0  0  0  0
 18 17  2  0  0  0  0
 18  7  1  0  0  0  0
 19 15  1  0  0  0  0
 19 14  2  0  0  0  0
 20 23  1  0  0  0  0
 21 22  1  0  0  0  0
 22 23  2  0  0  0  0
 24 20  2  0  0  0  0
 25 24  1  0  0  0  0
 25 21  2  0  0  0  0
 27 26  1  0  0  0  0
M  END
>  <MODEL>
9

>  <REMARK>
 VINA RESULT:      -7.9      1.254      6.246
  Name = 
  3 active torsions:
  status: ('A' for Active; 'I' for Inactive)
    1  A    between atoms: C_9  and  C_15
    2  A    between atoms: C_13  and  C_22
    3  A    between atoms: C_14  and  C_17
                            x       y       z     vdW  Elec       q    Type
                         _______ _______ _______ _____ _____    ______ ____

>  <TORSDO>
F 3

$$$$
