=
 OpenBabel10262420123D

 27 30  0  0  1  0  0  0  0  0999 V2000
  188.1190  177.2390  143.5020 C   0  0  2  0  0  3  0  0  0  0  0  0
  188.5800  177.2040  142.0540 C   0  0  1  0  0  3  0  0  0  0  0  0
  190.4660  176.4860  143.5030 C   0  0  2  0  0  0  0  0  0  0  0  0
  188.4240  178.5570  141.3940 C   0  0  0  0  0  2  0  0  0  0  0  0
  190.4100  177.3580  146.2870 C   0  0  0  0  0  0  0  0  0  0  0  0
  191.0340  175.2100  143.4830 O   0  0  0  0  0  1  0  0  0  0  0  0
  190.4370  177.8070  147.6020 O   0  0  0  0  0  1  0  0  0  0  0  0
  190.8580  177.0280  141.0970 C   0  0  0  0  0  3  0  0  0  0  0  0
  190.4150  177.5020  139.7330 C   0  0  2  0  0  3  0  0  0  0  0  0
  189.1580  176.4620  144.3150 C   0  0  1  0  0  3  0  0  0  0  0  0
  190.0240  176.8740  142.1340 C   0  0  0  0  0  0  0  0  0  0  0  0
  191.7000  177.2850  145.5300 C   0  0  0  0  0  2  0  0  0  0  0  0
  188.7950  178.3870  139.6160 S   0  0  0  0  0  0  0  0  0  0  0  0
  188.0930  176.9940  146.5110 O   0  0  0  0  0  1  0  0  0  0  0  0
  189.2510  176.9610  145.7420 C   0  0  0  0  0  0  0  0  0  0  0  0
  191.4680  177.5080  144.0440 C   0  0  0  0  0  2  0  0  0  0  0  0
  190.4900  176.4220  138.7540 N   0  0  0  0  0  2  0  0  0  0  0  0
  191.6300  174.9370  137.0670 C   0  0  0  0  0  1  0  0  0  0  0  0
  192.7600  176.6690  138.2320 O   0  0  0  0  0  0  0  0  0  0  0  0
  191.6770  176.0560  138.0430 C   0  0  0  0  0  0  0  0  0  0  0  0
  186.7010  176.6790  143.6680 C   0  0  0  0  0  2  0  0  0  0  0  0
  183.6690  179.6990  144.0470 C   0  0  0  0  0  3  0  0  0  0  0  0
  185.6540  177.7420  143.7990 C   0  0  0  0  0  0  0  0  0  0  0  0
  184.9140  178.1380  142.6790 C   0  0  0  0  0  3  0  0  0  0  0  0
  183.9230  179.1160  142.8030 C   0  0  0  0  0  3  0  0  0  0  0  0
  184.4060  179.3060  145.1680 C   0  0  0  0  0  3  0  0  0  0  0  0
  185.3980  178.3280  145.0440 C   0  0  0  0  0  3  0  0  0  0  0  0
  1 21  1  6  0  0  0
  1 10  1  0  0  0  0
  2  4  1  1  0  0  0
  2 11  1  0  0  0  0
  2  1  1  0  0  0  0
  3  6  1  6  0  0  0
  3 16  1  0  0  0  0
  3 10  1  0  0  0  0
  5  7  1  0  0  0  0
  8 11  2  0  0  0  0
  9 17  1  6  0  0  0
  9  8  1  0  0  0  0
 10 15  1  1  0  0  0
 11  3  1  0  0  0  0
 12  5  1  0  0  0  0
 13  9  1  0  0  0  0
 13  4  1  0  0  0  0
 15  5  2  0  0  0  0
 15 14  1  0  0  0  0
 16 12  1  0  0  0  0
 18 20  1  0  0  0  0
 20 19  2  0  0  0  0
 20 17  1  0  0  0  0
 21 23  1  0  0  0  0
 22 26  1  0  0  0  0
 23 27  1  0  0  0  0
 24 25  1  0  0  0  0
 24 23  2  0  0  0  0
 25 22  2  0  0  0  0
 27 26  2  0  0  0  0
M  END
>  <MODEL>
1

>  <REMARK>
 VINA RESULT:      -8.7      0.000      0.000
  Name = 
  3 active torsions:
  status: ('A' for Active; 'I' for Inactive)
    1  A    between atoms: C_1  and  C_15
    2  A    between atoms: N_4  and  C_17
    3  A    between atoms: C_9  and  C_15
                            x       y       z     vdW  Elec       q    Type
                         _______ _______ _______ _____ _____    ______ ____

>  <TORSDO>
F 3

$$$$
=
 OpenBabel10262420123D

 27 30  0  0  1  0  0  0  0  0999 V2000
  188.1190  177.1570  143.5360 C   0  0  2  0  0  3  0  0  0  0  0  0
  188.5490  177.0170  142.0850 C   0  0  1  0  0  3  0  0  0  0  0  0
  190.4500  176.3570  143.5420 C   0  0  2  0  0  0  0  0  0  0  0  0
  188.4050  178.3260  141.3400 C   0  0  0  0  0  2  0  0  0  0  0  0
  190.4690  177.4120  146.2620 C   0  0  0  0  0  0  0  0  0  0  0  0
  190.9930  175.0710  143.5950 O   0  0  0  0  0  1  0  0  0  0  0  0
  190.5320  177.9460  147.5430 O   0  0  0  0  0  1  0  0  0  0  0  0
  190.8020  176.7310  141.0970 C   0  0  0  0  0  3  0  0  0  0  0  0
  190.3400  177.1230  139.7140 C   0  0  2  0  0  3  0  0  0  0  0  0
  189.1590  176.4130  144.3790 C   0  0  1  0  0  3  0  0  0  0  0  0
  189.9870  176.6630  142.1580 C   0  0  0  0  0  0  0  0  0  0  0  0
  191.7420  177.2630  145.4860 C   0  0  0  0  0  2  0  0  0  0  0  0
  188.7350  178.0310  139.5700 S   0  0  0  0  0  0  0  0  0  0  0  0
  188.1500  177.1110  146.5550 O   0  0  0  0  0  1  0  0  0  0  0  0
  189.2920  177.0030  145.7670 C   0  0  0  0  0  0  0  0  0  0  0  0
  191.4830  177.3920  143.9930 C   0  0  0  0  0  2  0  0  0  0  0  0
  190.3730  175.9790  138.8070 N   0  0  0  0  0  2  0  0  0  0  0  0
  190.7300  174.8180  136.5990 C   0  0  0  0  0  1  0  0  0  0  0  0
  191.0560  177.1510  136.8970 O   0  0  0  0  0  0  0  0  0  0  0  0
  190.7350  176.0540  137.4240 C   0  0  0  0  0  0  0  0  0  0  0  0
  186.6940  176.6380  143.7670 C   0  0  0  0  0  2  0  0  0  0  0  0
  183.7890  179.7940  144.0250 C   0  0  0  0  0  3  0  0  0  0  0  0
  185.6710  177.7290  143.8580 C   0  0  0  0  0  0  0  0  0  0  0  0
  185.4100  178.3430  145.0890 C   0  0  0  0  0  3  0  0  0  0  0  0
  184.4700  179.3740  145.1720 C   0  0  0  0  0  3  0  0  0  0  0  0
  184.0480  179.1810  142.7950 C   0  0  0  0  0  3  0  0  0  0  0  0
  184.9890  178.1500  142.7120 C   0  0  0  0  0  3  0  0  0  0  0  0
  1 21  1  6  0  0  0
  1 10  1  0  0  0  0
  2  4  1  6  0  0  0
  2 11  1  0  0  0  0
  2  1  1  0  0  0  0
  3  6  1  1  0  0  0
  3 16  1  0  0  0  0
  3 10  1  0  0  0  0
  5  7  1  0  0  0  0
  8 11  2  0  0  0  0
  9 17  1  6  0  0  0
  9  8  1  0  0  0  0
 10 15  1  1  0  0  0
 11  3  1  0  0  0  0
 12  5  1  0  0  0  0
 13  9  1  0  0  0  0
 13  4  1  0  0  0  0
 15  5  2  0  0  0  0
 15 14  1  0  0  0  0
 16 12  1  0  0  0  0
 18 20  1  0  0  0  0
 19 20  2  0  0  0  0
 20 17  1  0  0  0  0
 21 23  1  0  0  0  0
 22 25  1  0  0  0  0
 23 24  1  0  0  0  0
 24 25  2  0  0  0  0
 26 22  2  0  0  0  0
 27 26  1  0  0  0  0
 27 23  2  0  0  0  0
M  END
>  <MODEL>
2

>  <REMARK>
 VINA RESULT:      -8.0      0.550      1.082
  Name = 
  3 active torsions:
  status: ('A' for Active; 'I' for Inactive)
    1  A    between atoms: C_1  and  C_15
    2  A    between atoms: N_4  and  C_17
    3  A    between atoms: C_9  and  C_15
                            x       y       z     vdW  Elec       q    Type
                         _______ _______ _______ _____ _____    ______ ____

>  <TORSDO>
F 3

$$$$
=
 OpenBabel10262420123D

 27 30  0  0  1  0  0  0  0  0999 V2000
  186.3990  177.8770  144.7530 C   0  0  2  0  0  3  0  0  0  0  0  0
  187.5340  177.5290  143.8040 C   0  0  1  0  0  3  0  0  0  0  0  0
  185.8070  178.7940  142.5440 C   0  0  2  0  0  0  0  0  0  0  0  0
  187.7670  176.0350  143.7490 C   0  0  0  0  0  2  0  0  0  0  0  0
  183.0930  178.7660  143.6140 C   0  0  0  0  0  0  0  0  0  0  0  0
  186.0110  180.0520  141.9730 O   0  0  0  0  0  1  0  0  0  0  0  0
  181.7820  178.7220  144.0720 O   0  0  0  0  0  1  0  0  0  0  0  0
  187.6430  177.6120  141.3310 C   0  0  0  0  0  3  0  0  0  0  0  0
  188.8650  176.7270  141.2690 C   0  0  2  0  0  3  0  0  0  0  0  0
  185.5490  178.9430  144.0540 C   0  0  1  0  0  3  0  0  0  0  0  0
  187.0600  177.9900  142.4770 C   0  0  0  0  0  0  0  0  0  0  0  0
  183.3370  178.7250  142.1370 C   0  0  0  0  0  2  0  0  0  0  0  0
  189.2670  175.7130  142.7620 S   0  0  0  0  0  0  0  0  0  0  0  0
  183.8120  178.9820  145.8480 O   0  0  0  0  0  1  0  0  0  0  0  0
  184.1010  178.8880  144.4910 C   0  0  0  0  0  0  0  0  0  0  0  0
  184.6700  178.0620  141.8280 C   0  0  0  0  0  2  0  0  0  0  0  0
  190.0330  177.4790  140.8200 N   0  0  0  0  0  2  0  0  0  0  0  0
  192.1590  177.8430  139.5160 C   0  0  0  0  0  1  0  0  0  0  0  0
  190.9060  175.8300  139.4040 O   0  0  0  0  0  0  0  0  0  0  0  0
  191.0080  176.9830  139.8970 C   0  0  0  0  0  0  0  0  0  0  0  0
  186.9140  178.3390  146.1220 C   0  0  0  0  0  2  0  0  0  0  0  0
  190.8100  176.7870  147.0580 C   0  0  0  0  0  3  0  0  0  0  0  0
  188.2750  177.8090  146.4560 C   0  0  0  0  0  0  0  0  0  0  0  0
  188.4330  176.8980  147.5060 C   0  0  0  0  0  3  0  0  0  0  0  0
  189.7000  176.3880  147.8070 C   0  0  0  0  0  3  0  0  0  0  0  0
  190.6540  177.6980  146.0080 C   0  0  0  0  0  3  0  0  0  0  0  0
  189.3880  178.2080  145.7070 C   0  0  0  0  0  3  0  0  0  0  0  0
  1 21  1  1  0  0  0
  2  4  1  6  0  0  0
  2  1  1  0  0  0  0
  3  6  1  6  0  0  0
  3 10  1  0  0  0  0
  5  7  1  0  0  0  0
  5 15  2  0  0  0  0
  8 11  2  0  0  0  0
  9 17  1  1  0  0  0
  9  8  1  0  0  0  0
  9 13  1  0  0  0  0
 10 15  1  6  0  0  0
 10  1  1  0  0  0  0
 11  3  1  0  0  0  0
 11  2  1  0  0  0  0
 12  5  1  0  0  0  0
 13  4  1  0  0  0  0
 15 14  1  0  0  0  0
 16 12  1  0  0  0  0
 16  3  1  0  0  0  0
 18 20  1  0  0  0  0
 19 20  2  0  0  0  0
 20 17  1  0  0  0  0
 21 23  1  0  0  0  0
 22 25  1  0  0  0  0
 23 24  1  0  0  0  0
 24 25  2  0  0  0  0
 26 22  2  0  0  0  0
 27 26  1  0  0  0  0
 27 23  2  0  0  0  0
M  END
>  <MODEL>
3

>  <REMARK>
 VINA RESULT:      -6.9      2.503      5.400
  Name = 
  3 active torsions:
  status: ('A' for Active; 'I' for Inactive)
    1  A    between atoms: C_1  and  C_15
    2  A    between atoms: N_4  and  C_17
    3  A    between atoms: C_9  and  C_15
                            x       y       z     vdW  Elec       q    Type
                         _______ _______ _______ _____ _____    ______ ____

>  <TORSDO>
F 3

$$$$
=
 OpenBabel10262420123D

 27 30  0  0  1  0  0  0  0  0999 V2000
  190.8500  177.3220  138.9680 C   0  0  2  0  0  3  0  0  0  0  0  0
  189.3760  177.1360  138.6490 C   0  0  1  0  0  3  0  0  0  0  0  0
  190.6660  175.3490  137.5030 C   0  0  2  0  0  0  0  0  0  0  0  0
  188.7930  178.3740  138.0020 C   0  0  0  0  0  2  0  0  0  0  0  0
  193.4870  175.8770  136.9730 C   0  0  0  0  0  0  0  0  0  0  0  0
  190.5480  173.9870  137.7850 O   0  0  0  0  0  1  0  0  0  0  0  0
  194.8170  176.1250  136.6580 O   0  0  0  0  0  1  0  0  0  0  0  0
  188.2690  175.7450  136.9250 C   0  0  0  0  0  3  0  0  0  0  0  0
  186.9600  176.4900  137.0410 C   0  0  2  0  0  3  0  0  0  0  0  0
  191.5580  176.0260  138.5590 C   0  0  1  0  0  3  0  0  0  0  0  0
  189.3480  176.0250  137.6680 C   0  0  0  0  0  0  0  0  0  0  0  0
  192.6470  175.1270  135.9860 C   0  0  0  0  0  2  0  0  0  0  0  0
  186.9890  178.1560  137.8430 S   0  0  0  0  0  0  0  0  0  0  0  0
  193.8400  176.9090  139.0620 O   0  0  0  0  0  1  0  0  0  0  0  0
  192.9980  176.2690  138.1580 C   0  0  0  0  0  0  0  0  0  0  0  0
  191.1900  175.5550  136.0790 C   0  0  0  0  0  2  0  0  0  0  0  0
  185.9280  175.6450  137.6330 N   0  0  0  0  0  2  0  0  0  0  0  0
  184.0730  173.9390  137.6070 C   0  0  0  0  0  1  0  0  0  0  0  0
  185.2120  174.6350  135.6440 O   0  0  0  0  0  0  0  0  0  0  0  0
  185.0930  174.7480  136.8920 C   0  0  0  0  0  0  0  0  0  0  0  0
  191.0800  177.6780  140.4420 C   0  0  0  0  0  2  0  0  0  0  0  0
  187.7330  176.7990  142.9890 C   0  0  0  0  0  3  0  0  0  0  0  0
  189.9070  177.3660  141.3190 C   0  0  0  0  0  0  0  0  0  0  0  0
  189.9240  176.2270  142.1340 C   0  0  0  0  0  3  0  0  0  0  0  0
  188.8380  175.9440  142.9670 C   0  0  0  0  0  3  0  0  0  0  0  0
  187.7130  177.9370  142.1760 C   0  0  0  0  0  3  0  0  0  0  0  0
  188.7990  178.2200  141.3420 C   0  0  0  0  0  3  0  0  0  0  0  0
  1 21  1  1  0  0  0
  2  4  1  6  0  0  0
  2  1  1  0  0  0  0
  3 11  1  0  0  0  0
  3  6  1  1  0  0  0
  3 10  1  0  0  0  0
  5 15  2  0  0  0  0
  7  5  1  0  0  0  0
  8  9  1  0  0  0  0
  8 11  2  0  0  0  0
  9 17  1  1  0  0  0
  9 13  1  0  0  0  0
 10 15  1  6  0  0  0
 10  1  1  0  0  0  0
 11  2  1  0  0  0  0
 12 16  1  0  0  0  0
 12  5  1  0  0  0  0
 13  4  1  0  0  0  0
 15 14  1  0  0  0  0
 16  3  1  0  0  0  0
 19 20  2  0  0  0  0
 20 18  1  0  0  0  0
 20 17  1  0  0  0  0
 21 23  1  0  0  0  0
 23 27  2  0  0  0  0
 23 24  1  0  0  0  0
 24 25  2  0  0  0  0
 25 22  1  0  0  0  0
 26 22  2  0  0  0  0
 27 26  1  0  0  0  0
M  END
>  <MODEL>
4

>  <REMARK>
 VINA RESULT:      -6.4      3.760      6.632
  Name = 
  3 active torsions:
  status: ('A' for Active; 'I' for Inactive)
    1  A    between atoms: C_1  and  C_15
    2  A    between atoms: N_4  and  C_17
    3  A    between atoms: C_9  and  C_15
                            x       y       z     vdW  Elec       q    Type
                         _______ _______ _______ _____ _____    ______ ____

>  <TORSDO>
F 3

$$$$
=
 OpenBabel10262420123D

 27 30  0  0  1  0  0  0  0  0999 V2000
  187.1530  178.2500  141.9650 C   0  0  2  0  0  3  0  0  0  0  0  0
  187.4090  178.0120  143.4450 C   0  0  1  0  0  3  0  0  0  0  0  0
  189.5740  177.8810  142.2340 C   0  0  2  0  0  0  0  0  0  0  0  0
  186.6010  176.8420  143.9620 C   0  0  0  0  0  2  0  0  0  0  0  0
  189.4700  177.2490  139.3870 C   0  0  0  0  0  0  0  0  0  0  0  0
  190.6370  178.7680  142.4200 O   0  0  0  0  0  1  0  0  0  0  0  0
  189.4520  176.8940  138.0440 O   0  0  0  0  0  1  0  0  0  0  0  0
  189.4040  177.1140  144.6050 C   0  0  0  0  0  3  0  0  0  0  0  0
  188.6420  176.8270  145.8760 C   0  0  2  0  0  3  0  0  0  0  0  0
  188.5150  178.5200  141.3190 C   0  0  1  0  0  3  0  0  0  0  0  0
  188.8500  177.6690  143.5190 C   0  0  0  0  0  0  0  0  0  0  0  0
  190.5640  176.7070  140.2550 C   0  0  0  0  0  2  0  0  0  0  0  0
  186.7970  176.7500  145.7730 S   0  0  0  0  0  0  0  0  0  0  0  0
  187.5900  178.6160  139.0000 O   0  0  0  0  0  1  0  0  0  0  0  0
  188.5470  178.0960  139.8660 C   0  0  0  0  0  0  0  0  0  0  0  0
  190.0850  176.5440  141.6890 C   0  0  0  0  0  2  0  0  0  0  0  0
  189.0670  177.7160  146.9530 N   0  0  0  0  0  2  0  0  0  0  0  0
  190.5500  178.4760  148.8430 C   0  0  0  0  0  1  0  0  0  0  0  0
  190.9560  176.4930  147.6030 O   0  0  0  0  0  0  0  0  0  0  0  0
  190.2190  177.4990  147.7740 C   0  0  0  0  0  0  0  0  0  0  0  0
  186.1530  179.3890  141.7300 C   0  0  0  0  0  2  0  0  0  0  0  0
  182.3770  178.7250  143.6680 C   0  0  0  0  0  3  0  0  0  0  0  0
  184.8330  179.1700  142.4020 C   0  0  0  0  0  0  0  0  0  0  0  0
  183.8010  178.5130  141.7220 C   0  0  0  0  0  3  0  0  0  0  0  0
  182.5740  178.2910  142.3550 C   0  0  0  0  0  3  0  0  0  0  0  0
  183.4060  179.3830  144.3500 C   0  0  0  0  0  3  0  0  0  0  0  0
  184.6330  179.6050  143.7180 C   0  0  0  0  0  3  0  0  0  0  0  0
  1 21  1  1  0  0  0
  1  2  1  0  0  0  0
  2 11  1  0  0  0  0
  2  4  1  6  0  0  0
  3  6  1  1  0  0  0
  3 11  1  0  0  0  0
  4 13  1  0  0  0  0
  5 15  2  0  0  0  0
  5 12  1  0  0  0  0
  7  5  1  0  0  0  0
  8  9  1  0  0  0  0
  9 17  1  1  0  0  0
 10 15  1  6  0  0  0
 10  1  1  0  0  0  0
 10  3  1  0  0  0  0
 11  8  2  0  0  0  0
 12 16  1  0  0  0  0
 13  9  1  0  0  0  0
 14 15  1  0  0  0  0
 16  3  1  0  0  0  0
 17 20  1  0  0  0  0
 19 20  2  0  0  0  0
 20 18  1  0  0  0  0
 21 23  1  0  0  0  0
 22 26  1  0  0  0  0
 23 27  1  0  0  0  0
 24 25  1  0  0  0  0
 24 23  2  0  0  0  0
 25 22  2  0  0  0  0
 27 26  2  0  0  0  0
M  END
>  <MODEL>
5

>  <REMARK>
 VINA RESULT:      -6.4      2.776      5.694
  Name = 
  3 active torsions:
  status: ('A' for Active; 'I' for Inactive)
    1  A    between atoms: C_1  and  C_15
    2  A    between atoms: N_4  and  C_17
    3  A    between atoms: C_9  and  C_15
                            x       y       z     vdW  Elec       q    Type
                         _______ _______ _______ _____ _____    ______ ____

>  <TORSDO>
F 3

$$$$
=
 OpenBabel10262420123D

 27 30  0  0  1  0  0  0  0  0999 V2000
  187.4850  177.8860  142.9390 C   0  0  2  0  0  3  0  0  0  0  0  0
  188.7860  177.6640  143.6930 C   0  0  1  0  0  3  0  0  0  0  0  0
  186.9150  177.6810  145.3280 C   0  0  2  0  0  0  0  0  0  0  0  0
  189.7660  178.7890  143.4430 C   0  0  0  0  0  2  0  0  0  0  0  0
  184.4680  179.0590  144.5340 C   0  0  0  0  0  0  0  0  0  0  0  0
  186.5360  176.5830  146.1030 O   0  0  0  0  0  1  0  0  0  0  0  0
  183.3130  179.7560  144.2040 O   0  0  0  0  0  1  0  0  0  0  0  0
  189.2820  177.8030  146.1150 C   0  0  0  0  0  3  0  0  0  0  0  0
  190.7740  177.8860  145.8930 C   0  0  2  0  0  3  0  0  0  0  0  0
  186.3490  177.5340  143.9040 C   0  0  1  0  0  3  0  0  0  0  0  0
  188.3910  177.6810  145.1220 C   0  0  0  0  0  0  0  0  0  0  0  0
  184.9620  179.1200  145.9470 C   0  0  0  0  0  2  0  0  0  0  0  0
  191.3650  178.3520  144.2040 S   0  0  0  0  0  0  0  0  0  0  0  0
  184.5510  178.2480  142.3230 O   0  0  0  0  0  1  0  0  0  0  0  0
  185.0880  178.3170  143.6050 C   0  0  0  0  0  0  0  0  0  0  0  0
  186.4750  178.9850  145.9980 C   0  0  0  0  0  2  0  0  0  0  0  0
  191.4400  176.6750  146.3620 N   0  0  0  0  0  2  0  0  0  0  0  0
  192.7080  175.2520  148.0110 C   0  0  0  0  0  1  0  0  0  0  0  0
  192.0550  177.4870  148.4710 O   0  0  0  0  0  0  0  0  0  0  0  0
  192.0560  176.5360  147.6460 C   0  0  0  0  0  0  0  0  0  0  0  0
  187.4270  177.0740  141.6390 C   0  0  0  0  0  2  0  0  0  0  0  0
  190.6680  177.8790  138.9360 C   0  0  0  0  0  3  0  0  0  0  0  0
  188.5600  177.3660  140.7040 C   0  0  0  0  0  0  0  0  0  0  0  0
  189.7980  176.7390  140.8870 C   0  0  0  0  0  3  0  0  0  0  0  0
  190.8510  176.9950  140.0040 C   0  0  0  0  0  3  0  0  0  0  0  0
  189.4330  178.5070  138.7520 C   0  0  0  0  0  3  0  0  0  0  0  0
  188.3800  178.2510  139.6350 C   0  0  0  0  0  3  0  0  0  0  0  0
  1 21  1  6  0  0  0
  1  2  1  0  0  0  0
  1 10  1  0  0  0  0
  2  4  1  1  0  0  0
  2 11  1  0  0  0  0
  3 16  1  0  0  0  0
  3  6  1  1  0  0  0
  4 13  1  0  0  0  0
  5 12  1  0  0  0  0
  7  5  1  0  0  0  0
  9  8  1  0  0  0  0
  9 17  1  6  0  0  0
 10 15  1  1  0  0  0
 10  3  1  0  0  0  0
 11  3  1  0  0  0  0
 11  8  2  0  0  0  0
 12 16  1  0  0  0  0
 13  9  1  0  0  0  0
 14 15  1  0  0  0  0
 15  5  2  0  0  0  0
 17 20  1  0  0  0  0
 20 18  1  0  0  0  0
 20 19  2  0  0  0  0
 22 25  1  0  0  0  0
 23 24  1  0  0  0  0
 23 21  1  0  0  0  0
 25 24  2  0  0  0  0
 26 22  2  0  0  0  0
 26 27  1  0  0  0  0
 27 23  2  0  0  0  0
M  END
>  <MODEL>
6

>  <REMARK>
 VINA RESULT:      -6.3      3.076      6.351
  Name = 
  3 active torsions:
  status: ('A' for Active; 'I' for Inactive)
    1  A    between atoms: C_1  and  C_15
    2  A    between atoms: N_4  and  C_17
    3  A    between atoms: C_9  and  C_15
                            x       y       z     vdW  Elec       q    Type
                         _______ _______ _______ _____ _____    ______ ____

>  <TORSDO>
F 3

$$$$
=
 OpenBabel10262420123D

 27 30  0  0  1  0  0  0  0  0999 V2000
  189.3840  177.1560  138.1810 C   0  0  2  0  0  3  0  0  0  0  0  0
  190.6080  176.5120  137.5490 C   0  0  1  0  0  3  0  0  0  0  0  0
  189.0170  177.1320  135.7440 C   0  0  2  0  0  0  0  0  0  0  0  0
  190.8430  175.1220  138.0960 C   0  0  0  0  0  2  0  0  0  0  0  0
  186.2090  177.4160  136.4860 C   0  0  0  0  0  0  0  0  0  0  0  0
  189.2790  178.0810  134.7540 O   0  0  0  0  0  1  0  0  0  0  0  0
  184.8590  177.5030  136.8010 O   0  0  0  0  0  1  0  0  0  0  0  0
  190.9630  175.6430  135.2570 C   0  0  0  0  0  3  0  0  0  0  0  0
  192.1840  174.8480  135.6550 C   0  0  2  0  0  3  0  0  0  0  0  0
  188.6100  177.8390  137.0490 C   0  0  1  0  0  3  0  0  0  0  0  0
  190.2690  176.4100  136.1090 C   0  0  0  0  0  0  0  0  0  0  0  0
  186.6000  176.8200  135.1680 C   0  0  0  0  0  2  0  0  0  0  0  0
  192.4330  174.5010  137.4540 S   0  0  0  0  0  0  0  0  0  0  0  0
  186.7020  178.5000  138.5200 O   0  0  0  0  0  1  0  0  0  0  0  0
  187.1250  177.9030  137.3360 C   0  0  0  0  0  0  0  0  0  0  0  0
  187.9560  176.1390  135.2640 C   0  0  0  0  0  2  0  0  0  0  0  0
  193.3920  175.4130  135.0620 N   0  0  0  0  0  2  0  0  0  0  0  0
  195.4320  176.8910  134.9910 C   0  0  0  0  0  1  0  0  0  0  0  0
  193.9500  176.8260  136.8440 O   0  0  0  0  0  0  0  0  0  0  0  0
  194.2250  176.3880  135.6970 C   0  0  0  0  0  0  0  0  0  0  0  0
  189.7610  178.1270  139.3070 C   0  0  0  0  0  2  0  0  0  0  0  0
  188.9980  176.5250  143.2200 C   0  0  0  0  0  3  0  0  0  0  0  0
  189.5020  177.5780  140.6760 C   0  0  0  0  0  0  0  0  0  0  0  0
  188.3040  177.8770  141.3360 C   0  0  0  0  0  3  0  0  0  0  0  0
  188.0530  177.3510  142.6060 C   0  0  0  0  0  3  0  0  0  0  0  0
  190.1960  176.2250  142.5640 C   0  0  0  0  0  3  0  0  0  0  0  0
  190.4480  176.7510  141.2930 C   0  0  0  0  0  3  0  0  0  0  0  0
  1 21  1  1  0  0  0
  2  4  1  1  0  0  0
  2  1  1  0  0  0  0
  3  6  1  6  0  0  0
  3 11  1  0  0  0  0
  3 10  1  0  0  0  0
  5  7  1  0  0  0  0
  5 15  2  0  0  0  0
  8  9  1  0  0  0  0
  8 11  2  0  0  0  0
  9 17  1  1  0  0  0
  9 13  1  0  0  0  0
 10 15  1  1  0  0  0
 10  1  1  0  0  0  0
 11  2  1  0  0  0  0
 12 16  1  0  0  0  0
 12  5  1  0  0  0  0
 13  4  1  0  0  0  0
 15 14  1  0  0  0  0
 16  3  1  0  0  0  0
 17 20  1  0  0  0  0
 18 20  1  0  0  0  0
 20 19  2  0  0  0  0
 21 23  1  0  0  0  0
 23 27  2  0  0  0  0
 23 24  1  0  0  0  0
 24 25  2  0  0  0  0
 25 22  1  0  0  0  0
 26 22  2  0  0  0  0
 27 26  1  0  0  0  0
M  END
>  <MODEL>
7

>  <REMARK>
 VINA RESULT:      -6.2      3.992      7.025
  Name = 
  3 active torsions:
  status: ('A' for Active; 'I' for Inactive)
    1  A    between atoms: C_1  and  C_15
    2  A    between atoms: N_4  and  C_17
    3  A    between atoms: C_9  and  C_15
                            x       y       z     vdW  Elec       q    Type
                         _______ _______ _______ _____ _____    ______ ____

>  <TORSDO>
F 3

$$$$
=
 OpenBabel10262420123D

 27 30  0  0  1  0  0  0  0  0999 V2000
  187.5310  178.1770  139.9420 C   0  0  2  0  0  3  0  0  0  0  0  0
  186.2090  178.5580  139.2940 C   0  0  1  0  0  3  0  0  0  0  0  0
  186.0170  178.9010  141.7470 C   0  0  2  0  0  0  0  0  0  0  0  0
  185.6310  177.4050  138.5040 C   0  0  0  0  0  2  0  0  0  0  0  0
  187.8390  177.3830  143.4490 C   0  0  0  0  0  0  0  0  0  0  0  0
  185.8220  180.1420  142.3570 O   0  0  0  0  0  1  0  0  0  0  0  0
  188.6550  176.6310  144.2840 O   0  0  0  0  0  1  0  0  0  0  0  0
  183.9820  178.9520  140.3010 C   0  0  0  0  0  3  0  0  0  0  0  0
  183.2650  178.8230  138.9780 C   0  0  2  0  0  3  0  0  0  0  0  0
  187.5000  178.7320  141.3690 C   0  0  1  0  0  3  0  0  0  0  0  0
  185.3110  178.8550  140.4350 C   0  0  0  0  0  0  0  0  0  0  0  0
  186.4230  177.6330  143.8690 C   0  0  0  0  0  2  0  0  0  0  0  0
  184.1680  177.9970  137.5900 S   0  0  0  0  0  0  0  0  0  0  0  0
  189.6780  177.6900  142.0080 O   0  0  0  0  0  1  0  0  0  0  0  0
  188.3390  177.9040  142.3190 C   0  0  0  0  0  0  0  0  0  0  0  0
  185.5160  177.7750  142.6560 C   0  0  0  0  0  2  0  0  0  0  0  0
  182.7170  180.1060  138.5510 N   0  0  0  0  0  2  0  0  0  0  0  0
  180.9470  181.8900  138.3590 C   0  0  0  0  0  1  0  0  0  0  0  0
  180.6030  179.8510  139.5260 O   0  0  0  0  0  0  0  0  0  0  0  0
  181.3940  180.5610  138.8510 C   0  0  0  0  0  0  0  0  0  0  0  0
  188.7340  178.6840  139.1380 C   0  0  0  0  0  2  0  0  0  0  0  0
  190.4940  175.7170  136.5770 C   0  0  0  0  0  3  0  0  0  0  0  0
  189.3370  177.6420  138.2470 C   0  0  0  0  0  0  0  0  0  0  0  0
  189.1770  177.7290  136.8600 C   0  0  0  0  0  3  0  0  0  0  0  0
  189.7540  176.7670  136.0250 C   0  0  0  0  0  3  0  0  0  0  0  0
  190.6550  175.6280  137.9630 C   0  0  0  0  0  3  0  0  0  0  0  0
  190.0770  176.5890  138.7970 C   0  0  0  0  0  3  0  0  0  0  0  0
  1 21  1  6  0  0  0
  1 10  1  0  0  0  0
  2  4  1  1  0  0  0
  2  1  1  0  0  0  0
  2 11  1  0  0  0  0
  3  6  1  1  0  0  0
  3 16  1  0  0  0  0
  5 12  1  0  0  0  0
  5  7  1  0  0  0  0
  8 11  2  0  0  0  0
  9 17  1  6  0  0  0
  9  8  1  0  0  0  0
 10  3  1  0  0  0  0
 10 15  1  1  0  0  0
 11  3  1  0  0  0  0
 13  4  1  0  0  0  0
 13  9  1  0  0  0  0
 14 15  1  0  0  0  0
 15  5  2  0  0  0  0
 16 12  1  0  0  0  0
 17 20  1  0  0  0  0
 18 20  1  0  0  0  0
 20 19  2  0  0  0  0
 22 26  1  0  0  0  0
 23 27  1  0  0  0  0
 23 21  1  0  0  0  0
 24 23  2  0  0  0  0
 25 22  2  0  0  0  0
 25 24  1  0  0  0  0
 26 27  2  0  0  0  0
M  END
>  <MODEL>
8

>  <REMARK>
 VINA RESULT:      -6.0      3.917      7.357
  Name = 
  3 active torsions:
  status: ('A' for Active; 'I' for Inactive)
    1  A    between atoms: C_1  and  C_15
    2  A    between atoms: N_4  and  C_17
    3  A    between atoms: C_9  and  C_15
                            x       y       z     vdW  Elec       q    Type
                         _______ _______ _______ _____ _____    ______ ____

>  <TORSDO>
F 3

$$$$
=
 OpenBabel10262420123D

 27 30  0  0  1  0  0  0  0  0999 V2000
  186.5930  178.4030  141.1410 C   0  0  2  0  0  3  0  0  0  0  0  0
  187.7820  178.0360  142.0150 C   0  0  1  0  0  3  0  0  0  0  0  0
  188.4630  177.8510  139.6340 C   0  0  2  0  0  0  0  0  0  0  0  0
  187.4490  176.8880  142.9430 C   0  0  0  0  0  2  0  0  0  0  0  0
  186.3430  177.4450  137.6710 C   0  0  0  0  0  0  0  0  0  0  0  0
  189.4370  178.6480  139.0280 O   0  0  0  0  0  1  0  0  0  0  0  0
  185.3580  177.1950  136.7230 O   0  0  0  0  0  1  0  0  0  0  0  0
  189.9160  176.9200  141.4400 C   0  0  0  0  0  3  0  0  0  0  0  0
  190.2310  176.5890  142.8790 C   0  0  2  0  0  3  0  0  0  0  0  0
  187.1380  178.6280  139.7270 C   0  0  1  0  0  3  0  0  0  0  0  0
  188.8220  177.5920  141.0570 C   0  0  0  0  0  0  0  0  0  0  0  0
  187.6690  176.7660  137.5210 C   0  0  0  0  0  2  0  0  0  0  0  0
  188.8400  176.6460  144.0970 S   0  0  0  0  0  0  0  0  0  0  0  0
  184.8760  178.9610  138.7220 O   0  0  0  0  0  1  0  0  0  0  0  0
  186.1060  178.3140  138.6650 C   0  0  0  0  0  0  0  0  0  0  0  0
  188.3110  176.5280  138.8790 C   0  0  0  0  0  2  0  0  0  0  0  0
  191.3730  177.3630  143.3560 N   0  0  0  0  0  2  0  0  0  0  0  0
  192.5200  179.3780  144.3430 C   0  0  0  0  0  1  0  0  0  0  0  0
  190.1770  179.2780  143.9800 O   0  0  0  0  0  0  0  0  0  0  0  0
  191.2850  178.6890  143.8900 C   0  0  0  0  0  0  0  0  0  0  0  0
  185.8350  179.6210  141.6810 C   0  0  0  0  0  2  0  0  0  0  0  0
  182.6110  178.6280  144.3420 C   0  0  0  0  0  3  0  0  0  0  0  0
  184.7140  179.2610  142.6080 C   0  0  0  0  0  0  0  0  0  0  0  0
  184.9040  179.3210  143.9930 C   0  0  0  0  0  3  0  0  0  0  0  0
  183.8540  179.0040  144.8600 C   0  0  0  0  0  3  0  0  0  0  0  0
  182.4190  178.5670  142.9590 C   0  0  0  0  0  3  0  0  0  0  0  0
  183.4690  178.8840  142.0920 C   0  0  0  0  0  3  0  0  0  0  0  0
  1 21  1  1  0  0  0
  1  2  1  0  0  0  0
  2  4  1  1  0  0  0
  3  6  1  6  0  0  0
  3 10  1  0  0  0  0
  3 11  1  0  0  0  0
  4 13  1  0  0  0  0
  5 15  2  0  0  0  0
  7  5  1  0  0  0  0
  8  9  1  0  0  0  0
  9 17  1  1  0  0  0
  9 13  1  0  0  0  0
 10 15  1  6  0  0  0
 10  1  1  0  0  0  0
 11  8  2  0  0  0  0
 11  2  1  0  0  0  0
 12  5  1  0  0  0  0
 12 16  1  0  0  0  0
 15 14  1  0  0  0  0
 16  3  1  0  0  0  0
 17 20  1  0  0  0  0
 20 19  2  0  0  0  0
 20 18  1  0  0  0  0
 21 23  1  0  0  0  0
 22 25  1  0  0  0  0
 23 24  1  0  0  0  0
 24 25  2  0  0  0  0
 26 22  2  0  0  0  0
 27 23  2  0  0  0  0
 27 26  1  0  0  0  0
M  END
>  <MODEL>
9

>  <REMARK>
 VINA RESULT:      -5.9      3.264      5.656
  Name = 
  3 active torsions:
  status: ('A' for Active; 'I' for Inactive)
    1  A    between atoms: C_1  and  C_15
    2  A    between atoms: N_4  and  C_17
    3  A    between atoms: C_9  and  C_15
                            x       y       z     vdW  Elec       q    Type
                         _______ _______ _______ _____ _____    ______ ____

>  <TORSDO>
F 3

$$$$
