=
 OpenBabel10262419563D

 25 28  0  0  1  0  0  0  0  0999 V2000
  186.9600  177.7240  143.2800 C   0  0  0  0  0  0  0  0  0  0  0  0
  188.1410  177.3440  142.6330 C   0  0  0  0  0  0  0  0  0  0  0  0
  186.1350  178.8680  141.3240 C   0  0  0  0  0  3  0  0  0  0  0  0
  186.4520  177.3870  144.6370 C   0  0  2  0  0  3  0  0  0  0  0  0
  190.4360  177.1880  143.6390 C   0  0  2  0  0  3  0  0  0  0  0  0
  185.2660  178.6200  146.9560 C   0  0  0  0  0  3  0  0  0  0  0  0
  187.3210  178.5310  140.6570 C   0  0  0  0  0  3  0  0  0  0  0  0
  185.1460  178.1360  144.6100 C   0  0  0  0  0  0  0  0  0  0  0  0
  184.4940  178.5130  145.8660 C   0  0  0  0  0  3  0  0  0  0  0  0
  189.5550  177.4880  140.5460 N   0  0  0  0  0  0  0  0  0  0  0  0
  189.6630  177.8560  139.1420 C   0  0  0  0  0  1  0  0  0  0  0  0
  189.1140  176.4680  143.3610 C   0  0  0  0  0  2  0  0  0  0  0  0
  186.7340  178.4080  146.8740 C   0  0  0  0  0  3  0  0  0  0  0  0
  185.9800  178.4370  142.6350 C   0  0  0  0  0  0  0  0  0  0  0  0
  184.8790  178.7180  143.4830 N   0  0  0  0  0  0  0  0  0  0  0  0
  190.7450  176.8880  141.1390 C   0  0  0  0  0  2  0  0  0  0  0  0
  187.3040  177.8910  145.7740 C   0  0  0  0  0  3  0  0  0  0  0  0
  191.1710  177.6640  142.3800 C   0  0  0  0  0  2  0  0  0  0  0  0
  188.3390  177.7720  141.2850 C   0  0  0  0  0  0  0  0  0  0  0  0
  191.3450  176.3490  144.5400 C   0  0  0  0  0  2  0  0  0  0  0  0
  190.3860  177.5640  146.3560 O   0  0  0  0  0  0  0  0  0  0  0  0
  191.2370  176.7100  145.9920 C   0  0  0  0  0  0  0  0  0  0  0  0
  192.1000  176.0660  146.9920 C   0  0  0  0  0  0  0  0  0  0  0  0
  192.3730  176.7090  148.1940 O   0  0  0  0  0  1  0  0  0  0  0  0
  192.5880  174.9260  146.7730 O   0  0  0  0  0  0  0  0  0  0  0  0
  1  4  1  0  0  0  0
  2  1  2  0  0  0  0
  2 12  1  0  0  0  0
  3 14  2  0  0  0  0
  4 17  1  1  0  0  0
  5 20  1  6  0  0  0
  7 19  2  0  0  0  0
  7  3  1  0  0  0  0
  8  4  1  0  0  0  0
  8  9  1  0  0  0  0
  9  6  2  0  0  0  0
 10 16  1  0  0  0  0
 10 19  1  0  0  0  0
 11 10  1  0  0  0  0
 12  5  1  0  0  0  0
 13  6  1  0  0  0  0
 14  1  1  0  0  0  0
 14 15  1  0  0  0  0
 15  8  2  0  0  0  0
 16 18  1  0  0  0  0
 17 13  2  0  0  0  0
 18  5  1  0  0  0  0
 19  2  1  0  0  0  0
 20 22  1  0  0  0  0
 22 21  2  0  0  0  0
 22 23  1  0  0  0  0
 23 24  1  0  0  0  0
 25 23  2  0  0  0  0
M  END
>  <MODEL>
1

>  <REMARK>
 VINA RESULT:     -10.0      0.000      0.000
  Name = 
  3 active torsions:
  status: ('A' for Active; 'I' for Inactive)
    1  A    between atoms: C_2  and  C_25
    2  A    between atoms: C_6  and  C_15
    3  A    between atoms: C_15  and  C_25
                            x       y       z     vdW  Elec       q    Type
                         _______ _______ _______ _____ _____    ______ ____

>  <TORSDO>
F 3

$$$$
=
 OpenBabel10262419563D

 25 28  0  0  1  0  0  0  0  0999 V2000
  186.6810  177.9870  144.8630 C   0  0  0  0  0  0  0  0  0  0  0  0
  186.7330  177.8800  143.4690 C   0  0  0  0  0  0  0  0  0  0  0  0
  184.7430  179.4190  144.7820 C   0  0  0  0  0  3  0  0  0  0  0  0
  187.4990  177.3210  145.9130 C   0  0  2  0  0  3  0  0  0  0  0  0
  188.7910  177.7630  142.0350 C   0  0  2  0  0  3  0  0  0  0  0  0
  188.9390  177.9080  148.3380 C   0  0  0  0  0  3  0  0  0  0  0  0
  184.7860  179.3580  143.3830 C   0  0  0  0  0  3  0  0  0  0  0  0
  186.8610  177.9150  147.1410 C   0  0  0  0  0  0  0  0  0  0  0  0
  187.6020  177.9490  148.4040 C   0  0  0  0  0  3  0  0  0  0  0  0
  185.7730  178.6060  141.2490 N   0  0  0  0  0  0  0  0  0  0  0  0
  184.7060  179.2690  140.5150 C   0  0  0  0  0  1  0  0  0  0  0  0
  187.7610  176.9800  142.8520 C   0  0  0  0  0  2  0  0  0  0  0  0
  189.6370  177.8770  147.0270 C   0  0  0  0  0  3  0  0  0  0  0  0
  185.7000  178.7090  145.4950 C   0  0  0  0  0  0  0  0  0  0  0  0
  185.8470  178.6870  146.9050 N   0  0  0  0  0  0  0  0  0  0  0  0
  186.8380  178.0270  140.4370 C   0  0  0  0  0  2  0  0  0  0  0  0
  188.9660  177.6650  145.8840 C   0  0  0  0  0  3  0  0  0  0  0  0
  188.1950  178.5680  140.8730 C   0  0  0  0  0  2  0  0  0  0  0  0
  185.7680  178.5980  142.7000 C   0  0  0  0  0  0  0  0  0  0  0  0
  189.9330  176.8570  141.5670 C   0  0  0  0  0  2  0  0  0  0  0  0
  192.1330  177.6300  141.0610 O   0  0  0  0  0  0  0  0  0  0  0  0
  191.2900  177.3640  141.9570 C   0  0  0  0  0  0  0  0  0  0  0  0
  191.6360  177.5660  143.3710 C   0  0  0  0  0  0  0  0  0  0  0  0
  191.7710  178.8540  143.8770 O   0  0  0  0  0  0  0  0  0  0  0  0
  191.8010  176.5780  144.1340 O   0  0  0  0  0  1  0  0  0  0  0  0
  1 14  1  0  0  0  0
  1  4  1  0  0  0  0
  2  1  2  0  0  0  0
  3 14  2  0  0  0  0
  4 17  1  6  0  0  0
  4  8  1  0  0  0  0
  5 20  1  6  0  0  0
  5 12  1  0  0  0  0
  6  9  2  0  0  0  0
  7  3  1  0  0  0  0
  8  9  1  0  0  0  0
 10 19  1  0  0  0  0
 11 10  1  0  0  0  0
 12  2  1  0  0  0  0
 13  6  1  0  0  0  0
 14 15  1  0  0  0  0
 15  8  2  0  0  0  0
 16 18  1  0  0  0  0
 16 10  1  0  0  0  0
 17 13  2  0  0  0  0
 18  5  1  0  0  0  0
 19  7  2  0  0  0  0
 19  2  1  0  0  0  0
 20 22  1  0  0  0  0
 21 22  2  0  0  0  0
 22 23  1  0  0  0  0
 23 24  2  0  0  0  0
 23 25  1  0  0  0  0
M  END
>  <MODEL>
2

>  <REMARK>
 VINA RESULT:      -9.9      2.006      3.524
  Name = 
  3 active torsions:
  status: ('A' for Active; 'I' for Inactive)
    1  A    between atoms: C_2  and  C_25
    2  A    between atoms: C_6  and  C_15
    3  A    between atoms: C_15  and  C_25
                            x       y       z     vdW  Elec       q    Type
                         _______ _______ _______ _____ _____    ______ ____

>  <TORSDO>
F 3

$$$$
=
 OpenBabel10262419563D

 25 28  0  0  1  0  0  0  0  0999 V2000
  188.9280  177.0530  143.9880 C   0  0  0  0  0  0  0  0  0  0  0  0
  187.9520  177.2940  144.9620 C   0  0  0  0  0  0  0  0  0  0  0  0
  190.7150  177.1720  145.6020 C   0  0  0  0  0  3  0  0  0  0  0  0
  188.7880  176.7330  142.5410 C   0  0  2  0  0  3  0  0  0  0  0  0
  185.8440  178.6310  144.6950 C   0  0  2  0  0  3  0  0  0  0  0  0
  189.8590  177.4730  139.9710 C   0  0  0  0  0  3  0  0  0  0  0  0
  189.7660  177.4470  146.5960 C   0  0  0  0  0  3  0  0  0  0  0  0
  190.2420  176.6030  142.1720 C   0  0  0  0  0  0  0  0  0  0  0  0
  190.6590  176.7620  140.7770 C   0  0  0  0  0  3  0  0  0  0  0  0
  187.4570  177.8360  147.3780 N   0  0  0  0  0  0  0  0  0  0  0  0
  187.9350  177.9480  148.7490 C   0  0  0  0  0  1  0  0  0  0  0  0
  186.5080  177.2580  144.5620 C   0  0  0  0  0  2  0  0  0  0  0  0
  188.6230  178.1110  140.4920 C   0  0  0  0  0  3  0  0  0  0  0  0
  190.2600  176.9660  144.3070 C   0  0  0  0  0  0  0  0  0  0  0  0
  191.0660  176.7250  143.1650 N   0  0  0  0  0  0  0  0  0  0  0  0
  186.0420  178.1220  147.1720 C   0  0  0  0  0  2  0  0  0  0  0  0
  188.1490  177.8190  141.7140 C   0  0  0  0  0  3  0  0  0  0  0  0
  185.8660  179.2070  146.1170 C   0  0  0  0  0  2  0  0  0  0  0  0
  188.3810  177.5140  146.3060 C   0  0  0  0  0  0  0  0  0  0  0  0
  184.4290  178.6210  144.1110 C   0  0  0  0  0  2  0  0  0  0  0  0
  185.3120  179.6650  142.1570 O   0  0  0  0  0  0  0  0  0  0  0  0
  184.3860  178.9720  142.6540 C   0  0  0  0  0  0  0  0  0  0  0  0
  183.2860  178.5030  141.8010 C   0  0  0  0  0  0  0  0  0  0  0  0
  181.9760  178.8650  142.0920 O   0  0  0  0  0  1  0  0  0  0  0  0
  183.5210  177.7810  140.7970 O   0  0  0  0  0  0  0  0  0  0  0  0
  1 14  2  0  0  0  0
  1  2  1  0  0  0  0
  2 19  2  0  0  0  0
  3  7  2  0  0  0  0
  4 17  1  6  0  0  0
  4  1  1  0  0  0  0
  5 20  1  1  0  0  0
  5 18  1  0  0  0  0
  6 13  1  0  0  0  0
  6  9  2  0  0  0  0
  8  4  1  0  0  0  0
  8 15  2  0  0  0  0
  9  8  1  0  0  0  0
 10 11  1  0  0  0  0
 12  5  1  0  0  0  0
 12  2  1  0  0  0  0
 13 17  2  0  0  0  0
 14  3  1  0  0  0  0
 15 14  1  0  0  0  0
 16 10  1  0  0  0  0
 18 16  1  0  0  0  0
 19  7  1  0  0  0  0
 19 10  1  0  0  0  0
 21 22  2  0  0  0  0
 22 20  1  0  0  0  0
 23 24  1  0  0  0  0
 23 22  1  0  0  0  0
 25 23  2  0  0  0  0
M  END
>  <MODEL>
3

>  <REMARK>
 VINA RESULT:      -9.9      3.478      7.113
  Name = 
  3 active torsions:
  status: ('A' for Active; 'I' for Inactive)
    1  A    between atoms: C_2  and  C_25
    2  A    between atoms: C_6  and  C_15
    3  A    between atoms: C_15  and  C_25
                            x       y       z     vdW  Elec       q    Type
                         _______ _______ _______ _____ _____    ______ ____

>  <TORSDO>
F 3

$$$$
=
 OpenBabel10262419563D

 25 28  0  0  1  0  0  0  0  0999 V2000
  187.6440  177.4950  145.5700 C   0  0  0  0  0  0  0  0  0  0  0  0
  186.7020  177.7160  144.5590 C   0  0  0  0  0  0  0  0  0  0  0  0
  186.2620  178.5630  147.2320 C   0  0  0  0  0  3  0  0  0  0  0  0
  188.9350  176.7550  145.5410 C   0  0  2  0  0  3  0  0  0  0  0  0
  187.1640  178.2730  142.1550 C   0  0  2  0  0  3  0  0  0  0  0  0
  191.6820  177.0120  146.3700 C   0  0  0  0  0  3  0  0  0  0  0  0
  185.3110  178.8280  146.2370 C   0  0  0  0  0  3  0  0  0  0  0  0
  189.3620  176.9420  146.9730 C   0  0  0  0  0  0  0  0  0  0  0  0
  190.7760  176.8120  147.3360 C   0  0  0  0  0  3  0  0  0  0  0  0
  184.4940  178.7540  143.9090 N   0  0  0  0  0  0  0  0  0  0  0  0
  183.2450  179.3780  144.3220 C   0  0  0  0  0  1  0  0  0  0  0  0
  186.9680  177.1640  143.1910 C   0  0  0  0  0  2  0  0  0  0  0  0
  191.2630  177.3950  144.9980 C   0  0  0  0  0  3  0  0  0  0  0  0
  187.4150  177.8810  146.8680 C   0  0  0  0  0  0  0  0  0  0  0  0
  188.5040  177.5660  147.7180 N   0  0  0  0  0  0  0  0  0  0  0  0
  184.6630  178.5600  142.4730 C   0  0  0  0  0  2  0  0  0  0  0  0
  189.9760  177.3380  144.6200 C   0  0  0  0  0  3  0  0  0  0  0  0
  185.9580  179.2090  141.9970 C   0  0  0  0  0  2  0  0  0  0  0  0
  185.5040  178.4180  144.8940 C   0  0  0  0  0  0  0  0  0  0  0  0
  187.6150  177.7010  140.8090 C   0  0  0  0  0  2  0  0  0  0  0  0
  189.9060  177.8710  141.4550 O   0  0  0  0  0  0  0  0  0  0  0  0
  189.0670  177.9430  140.5190 C   0  0  0  0  0  0  0  0  0  0  0  0
  189.5180  178.2450  139.1540 C   0  0  0  0  0  0  0  0  0  0  0  0
  189.0460  179.3770  138.4990 O   0  0  0  0  0  0  0  0  0  0  0  0
  190.3420  177.4910  138.5730 O   0  0  0  0  0  1  0  0  0  0  0  0
  1 14  1  0  0  0  0
  2 19  1  0  0  0  0
  2  1  2  0  0  0  0
  4 17  1  6  0  0  0
  4  1  1  0  0  0  0
  4  8  1  0  0  0  0
  5 20  1  6  0  0  0
  5 12  1  0  0  0  0
  6  9  2  0  0  0  0
  7  3  1  0  0  0  0
  8  9  1  0  0  0  0
  8 15  2  0  0  0  0
 10 11  1  0  0  0  0
 10 19  1  0  0  0  0
 12  2  1  0  0  0  0
 13  6  1  0  0  0  0
 14  3  2  0  0  0  0
 14 15  1  0  0  0  0
 16 10  1  0  0  0  0
 17 13  2  0  0  0  0
 18  5  1  0  0  0  0
 18 16  1  0  0  0  0
 19  7  2  0  0  0  0
 22 20  1  0  0  0  0
 22 21  2  0  0  0  0
 23 22  1  0  0  0  0
 24 23  2  0  0  0  0
 25 23  1  0  0  0  0
M  END
>  <MODEL>
4

>  <REMARK>
 VINA RESULT:      -9.6      2.909      5.879
  Name = 
  3 active torsions:
  status: ('A' for Active; 'I' for Inactive)
    1  A    between atoms: C_2  and  C_25
    2  A    between atoms: C_6  and  C_15
    3  A    between atoms: C_15  and  C_25
                            x       y       z     vdW  Elec       q    Type
                         _______ _______ _______ _____ _____    ______ ____

>  <TORSDO>
F 3

$$$$
=
 OpenBabel10262419563D

 25 28  0  0  1  0  0  0  0  0999 V2000
  187.4770  178.1580  145.6580 C   0  0  0  0  0  0  0  0  0  0  0  0
  188.8190  177.8530  145.4050 C   0  0  0  0  0  0  0  0  0  0  0  0
  187.5750  177.2160  147.8750 C   0  0  0  0  0  3  0  0  0  0  0  0
  186.4840  178.9010  144.8350 C   0  0  2  0  0  3  0  0  0  0  0  0
  189.8180  177.1120  143.2240 C   0  0  2  0  0  3  0  0  0  0  0  0
  183.7600  178.7260  143.9130 C   0  0  0  0  0  3  0  0  0  0  0  0
  188.9130  176.8690  147.6420 C   0  0  0  0  0  3  0  0  0  0  0  0
  185.2940  178.8300  145.7540 C   0  0  0  0  0  0  0  0  0  0  0  0
  183.9420  178.9950  145.2130 C   0  0  0  0  0  3  0  0  0  0  0  0
  190.9360  176.7550  146.2330 N   0  0  0  0  0  0  0  0  0  0  0  0
  191.6770  176.1580  147.3350 C   0  0  0  0  0  1  0  0  0  0  0  0
  189.4290  178.2980  144.1100 C   0  0  0  0  0  2  0  0  0  0  0  0
  184.8810  178.2340  143.0720 C   0  0  0  0  0  3  0  0  0  0  0  0
  186.8870  177.8740  146.8650 C   0  0  0  0  0  0  0  0  0  0  0  0
  185.5230  178.2610  146.8960 N   0  0  0  0  0  0  0  0  0  0  0  0
  191.6460  176.8370  144.9610 C   0  0  0  0  0  2  0  0  0  0  0  0
  186.1480  178.2540  143.5160 C   0  0  0  0  0  3  0  0  0  0  0  0
  190.8410  176.1610  143.8580 C   0  0  0  0  0  2  0  0  0  0  0  0
  189.5590  177.1730  146.4190 C   0  0  0  0  0  0  0  0  0  0  0  0
  190.2650  177.5800  141.8370 C   0  0  0  0  0  2  0  0  0  0  0  0
  188.0650  178.0180  141.0250 O   0  0  0  0  0  0  0  0  0  0  0  0
  189.1840  177.4850  140.8020 C   0  0  0  0  0  0  0  0  0  0  0  0
  189.4230  176.7930  139.5280 C   0  0  0  0  0  0  0  0  0  0  0  0
  190.5560  176.0030  139.3680 O   0  0  0  0  0  1  0  0  0  0  0  0
  188.6020  176.9000  138.5800 O   0  0  0  0  0  0  0  0  0  0  0  0
  1 14  1  0  0  0  0
  2  1  2  0  0  0  0
  2 19  1  0  0  0  0
  4 17  1  6  0  0  0
  4  1  1  0  0  0  0
  4  8  1  0  0  0  0
  5 20  1  6  0  0  0
  5 18  1  0  0  0  0
  5 12  1  0  0  0  0
  6  9  2  0  0  0  0
  7  3  1  0  0  0  0
  8 15  2  0  0  0  0
  9  8  1  0  0  0  0
 10 19  1  0  0  0  0
 10 11  1  0  0  0  0
 12  2  1  0  0  0  0
 13 17  2  0  0  0  0
 13  6  1  0  0  0  0
 14 15  1  0  0  0  0
 14  3  2  0  0  0  0
 16 10  1  0  0  0  0
 18 16  1  0  0  0  0
 19  7  2  0  0  0  0
 22 21  2  0  0  0  0
 22 20  1  0  0  0  0
 23 22  1  0  0  0  0
 24 23  1  0  0  0  0
 25 23  2  0  0  0  0
M  END
>  <MODEL>
5

>  <REMARK>
 VINA RESULT:      -9.6      3.114      5.131
  Name = 
  3 active torsions:
  status: ('A' for Active; 'I' for Inactive)
    1  A    between atoms: C_2  and  C_25
    2  A    between atoms: C_6  and  C_15
    3  A    between atoms: C_15  and  C_25
                            x       y       z     vdW  Elec       q    Type
                         _______ _______ _______ _____ _____    ______ ____

>  <TORSDO>
F 3

$$$$
=
 OpenBabel10262419563D

 25 28  0  0  1  0  0  0  0  0999 V2000
  186.6580  177.8860  142.8620 C   0  0  0  0  0  0  0  0  0  0  0  0
  187.9520  177.4390  143.1540 C   0  0  0  0  0  0  0  0  0  0  0  0
  187.3310  178.7470  140.7120 C   0  0  0  0  0  3  0  0  0  0  0  0
  185.3880  177.7250  143.6200 C   0  0  2  0  0  3  0  0  0  0  0  0
  189.0880  177.4510  145.3930 C   0  0  2  0  0  3  0  0  0  0  0  0
  183.1040  179.2390  144.5110 C   0  0  0  0  0  3  0  0  0  0  0  0
  188.6430  178.3400  140.9870 C   0  0  0  0  0  3  0  0  0  0  0  0
  184.4480  178.4460  142.6900 C   0  0  0  0  0  0  0  0  0  0  0  0
  183.1820  178.9770  143.1990 C   0  0  0  0  0  3  0  0  0  0  0  0
  190.3680  177.3230  142.4300 N   0  0  0  0  0  0  0  0  0  0  0  0
  191.3610  177.5030  141.3800 C   0  0  0  0  0  1  0  0  0  0  0  0
  188.1840  176.6820  144.4260 C   0  0  0  0  0  2  0  0  0  0  0  0
  184.2780  179.0390  145.3990 C   0  0  0  0  0  3  0  0  0  0  0  0
  186.3560  178.4920  141.6680 C   0  0  0  0  0  0  0  0  0  0  0  0
  184.9910  178.8680  141.5910 N   0  0  0  0  0  0  0  0  0  0  0  0
  190.8740  176.8240  143.7050 C   0  0  0  0  0  2  0  0  0  0  0  0
  185.3720  178.3880  144.9740 C   0  0  0  0  0  3  0  0  0  0  0  0
  190.4830  177.7650  144.8380 C   0  0  0  0  0  2  0  0  0  0  0  0
  188.9830  177.6870  142.1980 C   0  0  0  0  0  0  0  0  0  0  0  0
  189.1650  176.7520  146.7530 C   0  0  0  0  0  2  0  0  0  0  0  0
  189.9790  178.3260  148.3510 O   0  0  0  0  0  0  0  0  0  0  0  0
  190.2310  177.3140  147.6470 C   0  0  0  0  0  0  0  0  0  0  0  0
  191.5570  176.6840  147.7200 C   0  0  0  0  0  0  0  0  0  0  0  0
  191.8590  175.6000  146.9040 O   0  0  0  0  0  0  0  0  0  0  0  0
  192.4300  177.1270  148.5110 O   0  0  0  0  0  1  0  0  0  0  0  0
  1  2  1  0  0  0  0
  1  4  1  0  0  0  0
  2 12  1  0  0  0  0
  3  7  2  0  0  0  0
  3 14  1  0  0  0  0
  4 17  1  1  0  0  0
  5 20  1  1  0  0  0
  6 13  1  0  0  0  0
  7 19  1  0  0  0  0
  8  9  1  0  0  0  0
  8  4  1  0  0  0  0
  9  6  2  0  0  0  0
 10 16  1  0  0  0  0
 11 10  1  0  0  0  0
 12  5  1  0  0  0  0
 14  1  2  0  0  0  0
 15 14  1  0  0  0  0
 15  8  2  0  0  0  0
 16 18  1  0  0  0  0
 17 13  2  0  0  0  0
 18  5  1  0  0  0  0
 19 10  1  0  0  0  0
 19  2  2  0  0  0  0
 20 22  1  0  0  0  0
 22 23  1  0  0  0  0
 22 21  2  0  0  0  0
 23 25  1  0  0  0  0
 24 23  2  0  0  0  0
M  END
>  <MODEL>
6

>  <REMARK>
 VINA RESULT:      -9.3      1.417      2.130
  Name = 
  3 active torsions:
  status: ('A' for Active; 'I' for Inactive)
    1  A    between atoms: C_2  and  C_25
    2  A    between atoms: C_6  and  C_15
    3  A    between atoms: C_15  and  C_25
                            x       y       z     vdW  Elec       q    Type
                         _______ _______ _______ _____ _____    ______ ____

>  <TORSDO>
F 3

$$$$
=
 OpenBabel10262419563D

 25 28  0  0  1  0  0  0  0  0999 V2000
  188.0200  177.4770  143.0680 C   0  0  0  0  0  0  0  0  0  0  0  0
  186.8180  177.7620  143.7260 C   0  0  0  0  0  0  0  0  0  0  0  0
  189.2840  177.5740  145.1180 C   0  0  0  0  0  3  0  0  0  0  0  0
  188.2820  177.1360  141.6430 C   0  0  2  0  0  3  0  0  0  0  0  0
  184.9130  179.1520  142.8640 C   0  0  2  0  0  3  0  0  0  0  0  0
  190.0560  177.8020  139.4720 C   0  0  0  0  0  3  0  0  0  0  0  0
  188.1030  177.8920  145.8030 C   0  0  0  0  0  3  0  0  0  0  0  0
  189.7770  176.9590  141.7000 C   0  0  0  0  0  0  0  0  0  0  0  0
  190.5740  177.0830  140.4770 C   0  0  0  0  0  3  0  0  0  0  0  0
  185.6810  178.3590  145.9000 N   0  0  0  0  0  0  0  0  0  0  0  0
  185.7570  178.4810  147.3480 C   0  0  0  0  0  1  0  0  0  0  0  0
  185.5440  177.7590  142.9360 C   0  0  0  0  0  2  0  0  0  0  0  0
  188.7440  178.4830  139.6180 C   0  0  0  0  0  3  0  0  0  0  0  0
  189.2060  177.3590  143.7490 C   0  0  0  0  0  0  0  0  0  0  0  0
  190.2920  177.0760  142.8830 N   0  0  0  0  0  0  0  0  0  0  0  0
  184.3900  178.6810  145.3010 C   0  0  0  0  0  2  0  0  0  0  0  0
  187.9360  178.2250  140.6590 C   0  0  0  0  0  3  0  0  0  0  0  0
  184.5520  179.7520  144.2290 C   0  0  0  0  0  2  0  0  0  0  0  0
  186.8580  177.9930  145.1340 C   0  0  0  0  0  0  0  0  0  0  0  0
  183.7200  179.1710  141.9060 C   0  0  0  0  0  2  0  0  0  0  0  0
  183.5380  177.1280  140.6870 O   0  0  0  0  0  0  0  0  0  0  0  0
  183.9270  178.3260  140.6840 C   0  0  0  0  0  0  0  0  0  0  0  0
  184.5620  178.8850  139.4830 C   0  0  0  0  0  0  0  0  0  0  0  0
  185.1630  178.0420  138.5560 O   0  0  0  0  0  0  0  0  0  0  0  0
  184.5560  180.1280  139.2800 O   0  0  0  0  0  1  0  0  0  0  0  0
  1  2  2  0  0  0  0
  1 14  1  0  0  0  0
  2 19  1  0  0  0  0
  3  7  1  0  0  0  0
  4 17  1  6  0  0  0
  4  8  1  0  0  0  0
  4  1  1  0  0  0  0
  5 20  1  6  0  0  0
  5 12  1  0  0  0  0
  5 18  1  0  0  0  0
  6 13  1  0  0  0  0
  6  9  2  0  0  0  0
  8 15  2  0  0  0  0
  9  8  1  0  0  0  0
 10 11  1  0  0  0  0
 12  2  1  0  0  0  0
 13 17  2  0  0  0  0
 14  3  2  0  0  0  0
 15 14  1  0  0  0  0
 16 10  1  0  0  0  0
 18 16  1  0  0  0  0
 19  7  2  0  0  0  0
 19 10  1  0  0  0  0
 22 21  2  0  0  0  0
 22 20  1  0  0  0  0
 23 22  1  0  0  0  0
 24 23  2  0  0  0  0
 25 23  1  0  0  0  0
M  END
>  <MODEL>
7

>  <REMARK>
 VINA RESULT:      -8.6      3.962      7.311
  Name = 
  3 active torsions:
  status: ('A' for Active; 'I' for Inactive)
    1  A    between atoms: C_2  and  C_25
    2  A    between atoms: C_6  and  C_15
    3  A    between atoms: C_15  and  C_25
                            x       y       z     vdW  Elec       q    Type
                         _______ _______ _______ _____ _____    ______ ____

>  <TORSDO>
F 3

$$$$
=
 OpenBabel10262419563D

 25 28  0  0  1  0  0  0  0  0999 V2000
  189.7720  177.1830  142.7820 C   0  0  0  0  0  0  0  0  0  0  0  0
  189.3250  177.0410  144.1000 C   0  0  0  0  0  0  0  0  0  0  0  0
  192.0570  177.5030  143.4820 C   0  0  0  0  0  3  0  0  0  0  0  0
  189.0370  177.0480  141.4950 C   0  0  2  0  0  3  0  0  0  0  0  0
  187.1510  177.8510  145.0580 C   0  0  2  0  0  3  0  0  0  0  0  0
  188.6870  178.3810  138.9640 C   0  0  0  0  0  3  0  0  0  0  0  0
  191.6380  177.3960  144.8150 C   0  0  0  0  0  3  0  0  0  0  0  0
  190.1630  177.3270  140.5340 C   0  0  0  0  0  0  0  0  0  0  0  0
  189.8660  177.7790  139.1720 C   0  0  0  0  0  3  0  0  0  0  0  0
  189.9130  177.0990  146.5550 N   0  0  0  0  0  0  0  0  0  0  0  0
  190.9400  177.1290  147.5860 C   0  0  0  0  0  1  0  0  0  0  0  0
  187.8830  176.7130  144.3430 C   0  0  0  0  0  2  0  0  0  0  0  0
  187.7440  178.6200  140.0870 C   0  0  0  0  0  3  0  0  0  0  0  0
  191.0980  177.3780  142.4850 C   0  0  0  0  0  0  0  0  0  0  0  0
  191.3200  177.5040  141.0910 N   0  0  0  0  0  0  0  0  0  0  0  0
  188.5340  177.0600  147.0320 C   0  0  0  0  0  2  0  0  0  0  0  0
  187.9320  178.0520  141.2890 C   0  0  0  0  0  3  0  0  0  0  0  0
  187.7310  178.2080  146.4330 C   0  0  0  0  0  2  0  0  0  0  0  0
  190.2810  177.1660  145.1540 C   0  0  0  0  0  0  0  0  0  0  0  0
  185.6460  177.5810  145.1330 C   0  0  0  0  0  2  0  0  0  0  0  0
  185.2710  178.5510  142.9860 O   0  0  0  0  0  0  0  0  0  0  0  0
  184.8470  178.3980  144.1620 C   0  0  0  0  0  0  0  0  0  0  0  0
  183.5720  179.0070  144.5640 C   0  0  0  0  0  0  0  0  0  0  0  0
  182.6420  179.3770  143.5990 O   0  0  0  0  0  0  0  0  0  0  0  0
  183.3090  179.1880  145.7820 O   0  0  0  0  0  1  0  0  0  0  0  0
  1  2  1  0  0  0  0
  2 12  1  0  0  0  0
  2 19  2  0  0  0  0
  3  7  2  0  0  0  0
  4 17  1  1  0  0  0
  4  1  1  0  0  0  0
  5 20  1  1  0  0  0
  5 18  1  0  0  0  0
  6  9  2  0  0  0  0
  6 13  1  0  0  0  0
  7 19  1  0  0  0  0
  8 15  2  0  0  0  0
  8  4  1  0  0  0  0
  9  8  1  0  0  0  0
 10 16  1  0  0  0  0
 10 11  1  0  0  0  0
 12  5  1  0  0  0  0
 13 17  2  0  0  0  0
 14  1  2  0  0  0  0
 14  3  1  0  0  0  0
 15 14  1  0  0  0  0
 18 16  1  0  0  0  0
 19 10  1  0  0  0  0
 21 22  2  0  0  0  0
 22 23  1  0  0  0  0
 22 20  1  0  0  0  0
 23 25  1  0  0  0  0
 24 23  2  0  0  0  0
M  END
>  <MODEL>
8

>  <REMARK>
 VINA RESULT:      -8.6      3.311      6.608
  Name = 
  3 active torsions:
  status: ('A' for Active; 'I' for Inactive)
    1  A    between atoms: C_2  and  C_25
    2  A    between atoms: C_6  and  C_15
    3  A    between atoms: C_15  and  C_25
                            x       y       z     vdW  Elec       q    Type
                         _______ _______ _______ _____ _____    ______ ____

>  <TORSDO>
F 3

$$$$
=
 OpenBabel10262419563D

 25 28  0  0  1  0  0  0  0  0999 V2000
  187.6220  177.6470  144.7880 C   0  0  0  0  0  0  0  0  0  0  0  0
  186.4160  177.8460  144.1070 C   0  0  0  0  0  0  0  0  0  0  0  0
  186.6340  178.2190  146.9120 C   0  0  0  0  0  3  0  0  0  0  0  0
  188.9350  177.1490  144.2980 C   0  0  2  0  0  3  0  0  0  0  0  0
  186.1170  178.8090  141.8070 C   0  0  2  0  0  3  0  0  0  0  0  0
  191.7510  177.7470  144.4350 C   0  0  0  0  0  3  0  0  0  0  0  0
  185.4190  178.4570  146.2560 C   0  0  0  0  0  3  0  0  0  0  0  0
  189.7170  177.2000  145.5840 C   0  0  0  0  0  0  0  0  0  0  0  0
  191.1810  177.2620  145.5460 C   0  0  0  0  0  3  0  0  0  0  0  0
  184.0020  178.5770  144.2380 N   0  0  0  0  0  0  0  0  0  0  0  0
  182.8500  178.9150  145.0600 C   0  0  0  0  0  1  0  0  0  0  0  0
  186.3570  177.5470  142.6390 C   0  0  0  0  0  2  0  0  0  0  0  0
  190.9210  178.2450  143.3080 C   0  0  0  0  0  3  0  0  0  0  0  0
  187.7160  177.8010  146.1490 C   0  0  0  0  0  0  0  0  0  0  0  0
  189.0300  177.5570  146.6230 N   0  0  0  0  0  0  0  0  0  0  0  0
  183.7880  178.6200  142.7950 C   0  0  0  0  0  2  0  0  0  0  0  0
  189.5980  178.0240  143.2640 C   0  0  0  0  0  3  0  0  0  0  0  0
  184.8070  179.5390  142.1330 C   0  0  0  0  0  2  0  0  0  0  0  0
  185.2800  178.2800  144.8560 C   0  0  0  0  0  0  0  0  0  0  0  0
  186.2430  178.5180  140.3090 C   0  0  0  0  0  2  0  0  0  0  0  0
  184.7290  180.0550  139.2900 O   0  0  0  0  0  0  0  0  0  0  0  0
  185.0030  178.8500  139.5340 C   0  0  0  0  0  0  0  0  0  0  0  0
  184.1160  177.7860  139.0460 C   0  0  0  0  0  0  0  0  0  0  0  0
  184.1160  177.4420  137.6990 O   0  0  0  0  0  0  0  0  0  0  0  0
  183.3600  177.1700  139.8430 O   0  0  0  0  0  1  0  0  0  0  0  0
  1 14  1  0  0  0  0
  2  1  2  0  0  0  0
  2 19  1  0  0  0  0
  4 17  1  6  0  0  0
  4  1  1  0  0  0  0
  4  8  1  0  0  0  0
  5 20  1  6  0  0  0
  5 18  1  0  0  0  0
  5 12  1  0  0  0  0
  6  9  2  0  0  0  0
  7  3  1  0  0  0  0
  8 15  2  0  0  0  0
  9  8  1  0  0  0  0
 10 19  1  0  0  0  0
 10 11  1  0  0  0  0
 12  2  1  0  0  0  0
 13  6  1  0  0  0  0
 14 15  1  0  0  0  0
 14  3  2  0  0  0  0
 16 10  1  0  0  0  0
 17 13  2  0  0  0  0
 18 16  1  0  0  0  0
 19  7  2  0  0  0  0
 21 22  2  0  0  0  0
 22 20  1  0  0  0  0
 23 22  1  0  0  0  0
 23 25  1  0  0  0  0
 24 23  2  0  0  0  0
M  END
>  <MODEL>
9

>  <REMARK>
 VINA RESULT:      -8.3      4.285      7.035
  Name = 
  3 active torsions:
  status: ('A' for Active; 'I' for Inactive)
    1  A    between atoms: C_2  and  C_25
    2  A    between atoms: C_6  and  C_15
    3  A    between atoms: C_15  and  C_25
                            x       y       z     vdW  Elec       q    Type
                         _______ _______ _______ _____ _____    ______ ____

>  <TORSDO>
F 3

$$$$
