=
 OpenBabel10262423103D

 34 39  0  0  1  0  0  0  0  0999 V2000
  186.0600  177.9830  144.8740 C   0  0  0  0  0  0  0  0  0  0  0  0
  188.1840  177.7150  146.0470 C   0  0  0  0  0  0  0  0  0  0  0  0
  186.2110  178.4460  147.3280 C   0  0  0  0  0  3  0  0  0  0  0  0
  184.8190  178.8500  141.7750 C   0  0  0  0  0  0  0  0  0  0  0  0
  185.8190  178.3280  142.4230 N   0  0  0  0  0  0  0  0  0  0  0  0
  184.0670  178.8450  143.8450 C   0  0  0  0  0  0  0  0  0  0  0  0
  183.4790  179.1760  145.0980 N   0  0  0  0  0  0  0  0  0  0  0  0
  183.6880  179.2450  142.6440 C   0  0  0  0  0  3  0  0  0  0  0  0
  185.3130  178.0270  146.2030 C   0  0  1  0  0  3  0  0  0  0  0  0
  185.3750  178.2890  143.7680 C   0  0  0  0  0  0  0  0  0  0  0  0
  184.0740  178.8340  146.1790 N   0  0  0  0  0  0  0  0  0  0  0  0
  189.6250  177.2940  146.1750 C   0  0  0  0  0  2  0  0  0  0  0  0
  190.3320  177.1710  144.8280 C   0  0  2  0  0  3  0  0  0  0  0  0
  189.4630  176.3630  143.8720 C   0  0  0  0  0  2  0  0  0  0  0  0
  187.5320  178.2550  147.2600 C   0  0  0  0  0  3  0  0  0  0  0  0
  188.1700  177.1250  143.6170 C   0  0  0  0  0  2  0  0  0  0  0  0
  187.4890  177.5730  144.8900 C   0  0  0  0  0  0  0  0  0  0  0  0
  191.7170  176.5550  145.0140 C   0  0  2  0  0  3  0  0  0  0  0  0
  191.8870  175.3320  144.1320 C   0  0  0  0  0  1  0  0  0  0  0  0
  191.9440  176.2130  146.3490 O   0  0  0  0  0  1  0  0  0  0  0  0
  184.8790  179.1360  140.3130 C   0  0  0  0  0  2  0  0  0  0  0  0
  187.0800  177.2630  137.9130 N   0  0  0  0  0  0  0  0  0  0  0  0
  187.2940  178.4750  140.3980 C   0  0  0  0  0  3  0  0  0  0  0  0
  190.6080  176.5730  138.6520 C   0  0  0  0  0  0  0  0  0  0  0  0
  189.3770  176.6030  137.9830 C   0  0  0  0  0  3  0  0  0  0  0  0
  188.2750  177.2360  138.5630 C   0  0  0  0  0  0  0  0  0  0  0  0
  189.6270  177.8180  140.4990 C   0  0  0  0  0  3  0  0  0  0  0  0
  188.4020  177.8470  139.8290 C   0  0  0  0  0  0  0  0  0  0  0  0
  190.7250  177.1830  139.9110 C   0  0  0  0  0  3  0  0  0  0  0  0
  186.0790  178.4940  139.7060 C   0  0  0  0  0  0  0  0  0  0  0  0
  185.9900  177.8720  138.4570 C   0  0  0  0  0  3  0  0  0  0  0  0
  191.7650  175.9050  138.0370 C   0  0  0  0  0  0  0  0  0  0  0  0
  192.7580  176.5750  137.6470 O   0  0  0  0  0  0  0  0  0  0  0  0
  191.7740  174.5230  137.8780 O   0  0  0  0  0  1  0  0  0  0  0  0
  1 17  1  0  0  0  0
  1  9  1  0  0  0  0
  2 12  1  0  0  0  0
  2 15  1  0  0  0  0
  4  5  2  0  0  0  0
  4  8  1  0  0  0  0
  5 10  1  0  0  0  0
  6  7  1  0  0  0  0
  7 11  2  0  0  0  0
  8  6  2  0  0  0  0
  9  3  1  1  0  0  0
 10  6  1  0  0  0  0
 10  1  2  0  0  0  0
 11  9  1  0  0  0  0
 13 18  1  1  0  0  0
 13 12  1  0  0  0  0
 14 13  1  0  0  0  0
 15  3  2  0  0  0  0
 16 14  1  0  0  0  0
 16 17  1  0  0  0  0
 17  2  2  0  0  0  0
 18 19  1  6  0  0  0
 18 20  1  0  0  0  0
 21  4  1  0  0  0  0
 22 31  2  0  0  0  0
 22 26  1  0  0  0  0
 24 29  1  0  0  0  0
 25 26  1  0  0  0  0
 25 24  2  0  0  0  0
 26 28  2  0  0  0  0
 28 23  1  0  0  0  0
 28 27  1  0  0  0  0
 29 27  2  0  0  0  0
 30 21  1  0  0  0  0
 30 23  2  0  0  0  0
 31 30  1  0  0  0  0
 32 24  1  0  0  0  0
 33 32  2  0  0  0  0
 34 32  1  0  0  0  0
M  END
>  <MODEL>
1

>  <REMARK>
 VINA RESULT:     -11.5      0.000      0.000
  Name = 
  4 active torsions:
  status: ('A' for Active; 'I' for Inactive)
    1  A    between atoms: C_3  and  C_25
    2  A    between atoms: C_7  and  C_11
    3  A    between atoms: C_8  and  C_18
    4  A    between atoms: C_18  and  C_30
                            x       y       z     vdW  Elec       q    Type
                         _______ _______ _______ _____ _____    ______ ____

>  <TORSDO>
F 4

$$$$
=
 OpenBabel10262423103D

 34 39  0  0  1  0  0  0  0  0999 V2000
  186.1200  177.8840  144.9340 C   0  0  0  0  0  0  0  0  0  0  0  0
  188.4930  177.6900  145.4760 C   0  0  0  0  0  0  0  0  0  0  0  0
  186.9170  178.3040  147.2690 C   0  0  0  0  0  3  0  0  0  0  0  0
  184.0480  178.7540  142.3180 C   0  0  0  0  0  0  0  0  0  0  0  0
  185.2060  178.2660  142.6530 N   0  0  0  0  0  0  0  0  0  0  0  0
  183.8900  178.6740  144.5130 C   0  0  0  0  0  0  0  0  0  0  0  0
  183.6540  178.9530  145.8890 N   0  0  0  0  0  0  0  0  0  0  0  0
  183.1830  179.0800  143.4740 C   0  0  0  0  0  3  0  0  0  0  0  0
  185.7630  177.8670  146.4170 C   0  0  1  0  0  3  0  0  0  0  0  0
  185.1480  178.1800  144.0660 C   0  0  0  0  0  0  0  0  0  0  0  0
  184.5340  178.6170  146.7560 N   0  0  0  0  0  0  0  0  0  0  0  0
  189.9290  177.3330  145.1950 C   0  0  0  0  0  2  0  0  0  0  0  0
  190.2450  177.2700  143.7030 C   0  0  2  0  0  3  0  0  0  0  0  0
  189.1810  176.4430  142.9950 C   0  0  0  0  0  2  0  0  0  0  0  0
  188.1760  178.1760  146.8380 C   0  0  0  0  0  3  0  0  0  0  0  0
  187.8390  177.1490  143.1250 C   0  0  0  0  0  2  0  0  0  0  0  0
  187.5140  177.5390  144.5480 C   0  0  0  0  0  0  0  0  0  0  0  0
  191.6520  176.7140  143.4860 C   0  0  2  0  0  3  0  0  0  0  0  0
  192.1100  176.9490  142.0590 C   0  0  0  0  0  1  0  0  0  0  0  0
  191.7080  175.3510  143.7840 O   0  0  0  0  0  1  0  0  0  0  0  0
  183.6960  179.0720  140.9050 C   0  0  0  0  0  2  0  0  0  0  0  0
  185.4810  177.6930  137.9010 N   0  0  0  0  0  0  0  0  0  0  0  0
  186.1230  178.7310  140.3900 C   0  0  0  0  0  3  0  0  0  0  0  0
  189.1390  177.4220  137.7750 C   0  0  0  0  0  0  0  0  0  0  0  0
  187.7910  177.3390  137.3990 C   0  0  0  0  0  3  0  0  0  0  0  0
  186.7890  177.7750  138.2670 C   0  0  0  0  0  0  0  0  0  0  0  0
  188.4750  178.3830  139.9100 C   0  0  0  0  0  3  0  0  0  0  0  0
  187.1350  178.3000  139.5310 C   0  0  0  0  0  0  0  0  0  0  0  0
  189.4740  177.9450  139.0340 C   0  0  0  0  0  3  0  0  0  0  0  0
  184.7880  178.6420  139.9870 C   0  0  0  0  0  0  0  0  0  0  0  0
  184.4840  178.1090  138.7300 C   0  0  0  0  0  3  0  0  0  0  0  0
  190.1910  176.9600  136.8560 C   0  0  0  0  0  0  0  0  0  0  0  0
  189.9230  176.7170  135.6490 O   0  0  0  0  0  0  0  0  0  0  0  0
  191.4930  176.7870  137.3100 O   0  0  0  0  0  1  0  0  0  0  0  0
  1  9  1  0  0  0  0
  2 15  1  0  0  0  0
  4  5  2  0  0  0  0
  4  8  1  0  0  0  0
  5 10  1  0  0  0  0
  6  7  1  0  0  0  0
  7 11  2  0  0  0  0
  8  6  2  0  0  0  0
  9 11  1  0  0  0  0
  9  3  1  1  0  0  0
 10  6  1  0  0  0  0
 10  1  2  0  0  0  0
 12  2  1  0  0  0  0
 13 18  1  1  0  0  0
 13 12  1  0  0  0  0
 14 16  1  0  0  0  0
 14 13  1  0  0  0  0
 15  3  2  0  0  0  0
 16 17  1  0  0  0  0
 17  1  1  0  0  0  0
 17  2  2  0  0  0  0
 18 19  1  6  0  0  0
 18 20  1  0  0  0  0
 21  4  1  0  0  0  0
 22 26  2  0  0  0  0
 22 31  1  0  0  0  0
 24 29  1  0  0  0  0
 25 24  2  0  0  0  0
 25 26  1  0  0  0  0
 26 28  1  0  0  0  0
 28 27  1  0  0  0  0
 28 23  2  0  0  0  0
 29 27  2  0  0  0  0
 30 23  1  0  0  0  0
 30 21  1  0  0  0  0
 31 30  2  0  0  0  0
 32 34  1  0  0  0  0
 32 24  1  0  0  0  0
 33 32  2  0  0  0  0
M  END
>  <MODEL>
2

>  <REMARK>
 VINA RESULT:     -10.9      1.260      1.491
  Name = 
  4 active torsions:
  status: ('A' for Active; 'I' for Inactive)
    1  A    between atoms: C_3  and  C_25
    2  A    between atoms: C_7  and  C_11
    3  A    between atoms: C_8  and  C_18
    4  A    between atoms: C_18  and  C_30
                            x       y       z     vdW  Elec       q    Type
                         _______ _______ _______ _____ _____    ______ ____

>  <TORSDO>
F 4

$$$$
=
 OpenBabel10262423103D

 34 39  0  0  1  0  0  0  0  0999 V2000
  188.9380  177.3010  145.3270 C   0  0  0  0  0  0  0  0  0  0  0  0
  190.6080  177.2930  143.5460 C   0  0  0  0  0  0  0  0  0  0  0  0
  191.3710  177.1170  145.8830 C   0  0  0  0  0  3  0  0  0  0  0  0
  185.8310  178.6050  146.0600 C   0  0  0  0  0  0  0  0  0  0  0  0
  186.6330  178.2080  145.1160 N   0  0  0  0  0  0  0  0  0  0  0  0
  187.5530  177.8560  147.2100 C   0  0  0  0  0  0  0  0  0  0  0  0
  188.6190  177.6770  148.1370 N   0  0  0  0  0  0  0  0  0  0  0  0
  186.3900  178.4470  147.4210 C   0  0  0  0  0  3  0  0  0  0  0  0
  189.9760  176.7940  146.3240 C   0  0  1  0  0  3  0  0  0  0  0  0
  187.7580  177.6990  145.8110 C   0  0  0  0  0  0  0  0  0  0  0  0
  189.7420  177.2270  147.7190 N   0  0  0  0  0  0  0  0  0  0  0  0
  191.0700  177.2420  142.1140 C   0  0  0  0  0  2  0  0  0  0  0  0
  189.9900  177.6700  141.1240 C   0  0  2  0  0  3  0  0  0  0  0  0
  188.6890  176.9480  141.4520 C   0  0  0  0  0  2  0  0  0  0  0  0
  191.6570  177.3030  144.5900 C   0  0  0  0  0  3  0  0  0  0  0  0
  188.2140  177.3860  142.8300 C   0  0  0  0  0  2  0  0  0  0  0  0
  189.2940  177.2870  143.8840 C   0  0  0  0  0  0  0  0  0  0  0  0
  190.4530  177.4090  139.6920 C   0  0  2  0  0  3  0  0  0  0  0  0
  189.4970  178.0330  138.6930 C   0  0  0  0  0  1  0  0  0  0  0  0
  190.5730  176.0390  139.4420 O   0  0  0  0  0  1  0  0  0  0  0  0
  184.5300  179.2740  145.7720 C   0  0  0  0  0  2  0  0  0  0  0  0
  182.4510  178.4820  142.7460 N   0  0  0  0  0  0  0  0  0  0  0  0
  185.0820  179.1270  143.3330 C   0  0  0  0  0  3  0  0  0  0  0  0
  183.8920  178.3940  139.3710 C   0  0  0  0  0  0  0  0  0  0  0  0
  182.9600  178.3160  140.4160 C   0  0  0  0  0  3  0  0  0  0  0  0
  183.3550  178.5600  141.7330 C   0  0  0  0  0  0  0  0  0  0  0  0
  185.6310  178.9640  140.9760 C   0  0  0  0  0  3  0  0  0  0  0  0
  184.7000  178.8870  142.0130 C   0  0  0  0  0  0  0  0  0  0  0  0
  185.2270  178.7190  139.6590 C   0  0  0  0  0  3  0  0  0  0  0  0
  184.1310  179.0470  144.3540 C   0  0  0  0  0  0  0  0  0  0  0  0
  182.8100  178.7140  144.0380 C   0  0  0  0  0  3  0  0  0  0  0  0
  183.4700  178.1340  137.9860 C   0  0  0  0  0  0  0  0  0  0  0  0
  182.3680  178.5730  137.5610 O   0  0  0  0  0  1  0  0  0  0  0  0
  184.2840  177.4000  137.1300 O   0  0  0  0  0  0  0  0  0  0  0  0
  1 10  2  0  0  0  0
  1  9  1  0  0  0  0
  2 17  2  0  0  0  0
  2 15  1  0  0  0  0
  4  8  1  0  0  0  0
  5 10  1  0  0  0  0
  5  4  2  0  0  0  0
  6  8  2  0  0  0  0
  6  7  1  0  0  0  0
  9  3  1  6  0  0  0
  9 11  1  0  0  0  0
 10  6  1  0  0  0  0
 11  7  2  0  0  0  0
 12  2  1  0  0  0  0
 13 18  1  6  0  0  0
 13 14  1  0  0  0  0
 13 12  1  0  0  0  0
 14 16  1  0  0  0  0
 15  3  2  0  0  0  0
 16 17  1  0  0  0  0
 17  1  1  0  0  0  0
 18 19  1  6  0  0  0
 20 18  1  0  0  0  0
 21  4  1  0  0  0  0
 22 31  1  0  0  0  0
 23 30  1  0  0  0  0
 24 29  1  0  0  0  0
 24 25  2  0  0  0  0
 25 26  1  0  0  0  0
 26 28  1  0  0  0  0
 26 22  2  0  0  0  0
 27 28  1  0  0  0  0
 28 23  2  0  0  0  0
 29 27  2  0  0  0  0
 30 21  1  0  0  0  0
 31 30  2  0  0  0  0
 32 24  1  0  0  0  0
 33 32  1  0  0  0  0
 34 32  2  0  0  0  0
M  END
>  <MODEL>
3

>  <REMARK>
 VINA RESULT:     -10.9      2.942      5.553
  Name = 
  4 active torsions:
  status: ('A' for Active; 'I' for Inactive)
    1  A    between atoms: C_3  and  C_25
    2  A    between atoms: C_7  and  C_11
    3  A    between atoms: C_8  and  C_18
    4  A    between atoms: C_18  and  C_30
                            x       y       z     vdW  Elec       q    Type
                         _______ _______ _______ _____ _____    ______ ____

>  <TORSDO>
F 4

$$$$
=
 OpenBabel10262423103D

 34 39  0  0  1  0  0  0  0  0999 V2000
  184.9270  178.8850  140.4490 C   0  0  0  0  0  0  0  0  0  0  0  0
  186.8470  178.0650  139.1840 C   0  0  0  0  0  0  0  0  0  0  0  0
  184.6750  178.2660  138.0370 C   0  0  0  0  0  3  0  0  0  0  0  0
  183.6450  178.8750  143.6500 C   0  0  0  0  0  0  0  0  0  0  0  0
  184.7250  178.8340  142.9270 N   0  0  0  0  0  2  0  0  0  0  0  0
  182.8380  179.1110  141.6150 C   0  0  0  0  0  0  0  0  0  0  0  0
  182.0780  179.0220  140.4150 N   0  0  0  0  0  0  0  0  0  0  0  0
  182.4020  179.0040  142.8570 C   0  0  0  0  0  3  0  0  0  0  0  0
  184.1530  179.1190  139.1550 C   0  0  0  0  0  0  0  0  0  0  0  0
  184.2560  178.9980  141.5990 C   0  0  0  0  0  0  0  0  0  0  0  0
  182.6870  178.9850  139.2900 N   0  0  0  0  0  0  0  0  0  0  0  0
  188.3060  177.7590  138.9700 C   0  0  0  0  0  2  0  0  0  0  0  0
  189.0820  177.6150  140.2770 C   0  0  2  0  0  3  0  0  0  0  0  0
  188.7530  178.7870  141.1930 C   0  0  0  0  0  2  0  0  0  0  0  0
  185.9360  177.8230  138.0430 C   0  0  0  0  0  3  0  0  0  0  0  0
  187.2760  178.7320  141.5550 C   0  0  0  0  0  2  0  0  0  0  0  0
  186.3780  178.5810  140.3480 C   0  0  0  0  0  0  0  0  0  0  0  0
  190.5780  177.5030  139.9930 C   0  0  2  0  0  3  0  0  0  0  0  0
  190.8540  176.4180  138.9690 C   0  0  0  0  0  1  0  0  0  0  0  0
  191.2970  177.2460  141.1630 O   0  0  0  0  0  1  0  0  0  0  0  0
  183.6680  178.6790  145.1280 C   0  0  0  0  0  2  0  0  0  0  0  0
  186.7000  178.3590  147.3220 N   0  0  0  0  0  0  0  0  0  0  0  0
  185.9830  177.8230  144.6980 C   0  0  0  0  0  3  0  0  0  0  0  0
  189.8770  177.0270  146.0570 C   0  0  0  0  0  0  0  0  0  0  0  0
  188.9210  177.5680  146.9270 C   0  0  0  0  0  3  0  0  0  0  0  0
  187.6260  177.8320  146.4760 C   0  0  0  0  0  0  0  0  0  0  0  0
  188.2280  177.0160  144.2660 C   0  0  0  0  0  3  0  0  0  0  0  0
  187.2790  177.5540  145.1370 C   0  0  0  0  0  0  0  0  0  0  0  0
  189.5230  176.7530  144.7260 C   0  0  0  0  0  3  0  0  0  0  0  0
  185.0480  178.3590  145.5890 C   0  0  0  0  0  0  0  0  0  0  0  0
  185.4310  178.6280  146.9070 C   0  0  0  0  0  3  0  0  0  0  0  0
  191.2400  176.7510  146.5380 C   0  0  0  0  0  0  0  0  0  0  0  0
  192.0550  176.1160  145.8170 O   0  0  0  0  0  0  0  0  0  0  0  0
  191.6420  177.1880  147.7950 O   0  0  0  0  0  1  0  0  0  0  0  0
  1 10  1  0  0  0  0
  2 17  1  0  0  0  0
  3 15  1  0  0  0  0
  3  9  2  0  0  0  0
  4 21  1  0  0  0  0
  5  4  1  0  0  0  0
  6  8  1  0  0  0  0
  7  6  1  0  0  0  0
  8  4  2  0  0  0  0
  9 11  1  0  0  0  0
  9  1  1  0  0  0  0
 10  6  2  0  0  0  0
 10  5  1  0  0  0  0
 11  7  2  0  0  0  0
 12  2  1  0  0  0  0
 12 13  1  0  0  0  0
 13 18  1  6  0  0  0
 13 14  1  0  0  0  0
 14 16  1  0  0  0  0
 15  2  2  0  0  0  0
 17  1  2  0  0  0  0
 17 16  1  0  0  0  0
 18 19  1  6  0  0  0
 18 20  1  0  0  0  0
 21 30  1  0  0  0  0
 23 28  2  0  0  0  0
 23 30  1  0  0  0  0
 24 32  1  0  0  0  0
 24 25  2  0  0  0  0
 26 25  1  0  0  0  0
 26 22  2  0  0  0  0
 27 29  2  0  0  0  0
 27 28  1  0  0  0  0
 28 26  1  0  0  0  0
 29 24  1  0  0  0  0
 30 31  2  0  0  0  0
 31 22  1  0  0  0  0
 32 34  1  0  0  0  0
 33 32  2  0  0  0  0
M  END
>  <MODEL>
4

>  <REMARK>
 VINA RESULT:     -10.7      1.731      6.324
  Name = 
  4 active torsions:
  status: ('A' for Active; 'I' for Inactive)
    1  A    between atoms: C_3  and  C_25
    2  A    between atoms: C_7  and  C_11
    3  A    between atoms: C_8  and  C_18
    4  A    between atoms: C_18  and  C_30
                            x       y       z     vdW  Elec       q    Type
                         _______ _______ _______ _____ _____    ______ ____

>  <TORSDO>
F 4

$$$$
=
 OpenBabel10262423103D

 34 39  0  0  1  0  0  0  0  0999 V2000
  184.7560  178.1620  143.5000 C   0  0  0  0  0  0  0  0  0  0  0  0
  186.5510  178.1360  145.1550 C   0  0  0  0  0  0  0  0  0  0  0  0
  184.2910  178.8060  145.8730 C   0  0  0  0  0  3  0  0  0  0  0  0
  184.2440  178.7140  140.1350 C   0  0  0  0  0  0  0  0  0  0  0  0
  185.0880  178.3150  141.0410 N   0  0  0  0  0  0  0  0  0  0  0  0
  183.0210  178.7990  141.9640 C   0  0  0  0  0  0  0  0  0  0  0  0
  182.1330  179.1720  143.0130 N   0  0  0  0  0  0  0  0  0  0  0  0
  182.9180  179.0840  140.6790 C   0  0  0  0  0  3  0  0  0  0  0  0
  183.7120  178.2430  144.6100 C   0  0  1  0  0  3  0  0  0  0  0  0
  184.3380  178.3370  142.2430 C   0  0  0  0  0  0  0  0  0  0  0  0
  182.4720  178.9520  144.2280 N   0  0  0  0  0  0  0  0  0  0  0  0
  187.9400  177.8340  145.6520 C   0  0  0  0  0  2  0  0  0  0  0  0
  188.9540  177.6700  144.5230 C   0  0  2  0  0  3  0  0  0  0  0  0
  188.3850  176.7350  143.4640 C   0  0  0  0  0  2  0  0  0  0  0  0
  185.5980  178.7100  146.1320 C   0  0  0  0  0  3  0  0  0  0  0  0
  187.1490  177.3780  142.8490 C   0  0  0  0  0  2  0  0  0  0  0  0
  186.1600  177.8610  143.8850 C   0  0  0  0  0  0  0  0  0  0  0  0
  190.2870  177.1730  145.0790 C   0  0  2  0  0  3  0  0  0  0  0  0
  190.2300  177.0490  146.5900 C   0  0  0  0  0  1  0  0  0  0  0  0
  191.3350  178.0210  144.7110 O   0  0  0  0  0  1  0  0  0  0  0  0
  184.6350  178.9010  138.7090 C   0  0  0  0  0  2  0  0  0  0  0  0
  187.0360  176.4630  137.1580 N   0  0  0  0  0  0  0  0  0  0  0  0
  187.0490  178.3930  139.1480 C   0  0  0  0  0  3  0  0  0  0  0  0
  190.5130  176.1750  138.2970 C   0  0  0  0  0  0  0  0  0  0  0  0
  189.3330  175.9480  137.5760 C   0  0  0  0  0  3  0  0  0  0  0  0
  188.1810  176.6860  137.8580 C   0  0  0  0  0  0  0  0  0  0  0  0
  189.3790  177.8930  139.5960 C   0  0  0  0  0  3  0  0  0  0  0  0
  188.2060  177.6640  138.8750 C   0  0  0  0  0  0  0  0  0  0  0  0
  190.5280  177.1500  139.3070 C   0  0  0  0  0  3  0  0  0  0  0  0
  185.8870  178.1490  138.4100 C   0  0  0  0  0  0  0  0  0  0  0  0
  185.8990  177.1670  137.4150 C   0  0  0  0  0  3  0  0  0  0  0  0
  191.7230  175.3940  137.9960 C   0  0  0  0  0  0  0  0  0  0  0  0
  191.6390  174.1680  137.7160 O   0  0  0  0  0  0  0  0  0  0  0  0
  192.9730  176.0020  138.0180 O   0  0  0  0  0  1  0  0  0  0  0  0
  1 17  1  0  0  0  0
  1  9  1  0  0  0  0
  2 12  1  0  0  0  0
  2 15  1  0  0  0  0
  3 15  2  0  0  0  0
  4  8  1  0  0  0  0
  4  5  2  0  0  0  0
  5 10  1  0  0  0  0
  6 10  1  0  0  0  0
  6  7  1  0  0  0  0
  7 11  2  0  0  0  0
  8  6  2  0  0  0  0
  9  3  1  1  0  0  0
 10  1  2  0  0  0  0
 11  9  1  0  0  0  0
 13 18  1  1  0  0  0
 13 12  1  0  0  0  0
 14 13  1  0  0  0  0
 16 14  1  0  0  0  0
 16 17  1  0  0  0  0
 17  2  2  0  0  0  0
 18 19  1  1  0  0  0
 20 18  1  0  0  0  0
 21  4  1  0  0  0  0
 22 31  2  0  0  0  0
 22 26  1  0  0  0  0
 24 29  1  0  0  0  0
 25 26  1  0  0  0  0
 25 24  2  0  0  0  0
 26 28  2  0  0  0  0
 28 23  1  0  0  0  0
 28 27  1  0  0  0  0
 29 27  2  0  0  0  0
 30 21  1  0  0  0  0
 30 23  2  0  0  0  0
 31 30  1  0  0  0  0
 32 34  1  0  0  0  0
 32 24  1  0  0  0  0
 33 32  2  0  0  0  0
M  END
>  <MODEL>
5

>  <REMARK>
 VINA RESULT:     -10.6      1.187      1.800
  Name = 
  4 active torsions:
  status: ('A' for Active; 'I' for Inactive)
    1  A    between atoms: C_3  and  C_25
    2  A    between atoms: C_7  and  C_11
    3  A    between atoms: C_8  and  C_18
    4  A    between atoms: C_18  and  C_30
                            x       y       z     vdW  Elec       q    Type
                         _______ _______ _______ _____ _____    ______ ____

>  <TORSDO>
F 4

$$$$
=
 OpenBabel10262423103D

 34 39  0  0  1  0  0  0  0  0999 V2000
  186.0110  177.9370  144.8630 C   0  0  0  0  0  0  0  0  0  0  0  0
  188.1700  177.7140  145.9790 C   0  0  0  0  0  0  0  0  0  0  0  0
  186.2180  178.4120  147.3120 C   0  0  0  0  0  3  0  0  0  0  0  0
  184.6700  178.7680  141.7970 C   0  0  0  0  0  0  0  0  0  0  0  0
  185.6970  178.2680  142.4190 N   0  0  0  0  0  0  0  0  0  0  0  0
  183.9750  178.7570  143.8860 C   0  0  0  0  0  0  0  0  0  0  0  0
  183.4140  179.0820  145.1530 N   0  0  0  0  0  0  0  0  0  0  0  0
  183.5560  179.1450  142.6950 C   0  0  0  0  0  3  0  0  0  0  0  0
  185.2990  177.9720  146.2120 C   0  0  1  0  0  3  0  0  0  0  0  0
  185.2900  178.2260  143.7760 C   0  0  0  0  0  0  0  0  0  0  0  0
  184.0450  178.7550  146.2190 N   0  0  0  0  0  0  0  0  0  0  0  0
  189.6210  177.3210  146.0710 C   0  0  0  0  0  2  0  0  0  0  0  0
  190.2940  177.2060  144.7050 C   0  0  2  0  0  3  0  0  0  0  0  0
  189.4150  176.3790  143.7760 C   0  0  0  0  0  2  0  0  0  0  0  0
  187.5410  178.2470  147.2080 C   0  0  0  0  0  3  0  0  0  0  0  0
  188.1020  177.1150  143.5530 C   0  0  0  0  0  2  0  0  0  0  0  0
  187.4470  177.5540  144.8430 C   0  0  0  0  0  0  0  0  0  0  0  0
  191.6960  176.6170  144.8560 C   0  0  2  0  0  3  0  0  0  0  0  0
  191.7870  175.2610  144.1820 C   0  0  0  0  0  1  0  0  0  0  0  0
  192.0550  176.5040  146.2010 O   0  0  0  0  0  1  0  0  0  0  0  0
  184.6860  179.0490  140.3330 C   0  0  0  0  0  2  0  0  0  0  0  0
  183.8970  176.5320  137.6590 N   0  0  0  0  0  0  0  0  0  0  0  0
  182.8480  177.3650  140.0860 C   0  0  0  0  0  3  0  0  0  0  0  0
  180.9710  174.3270  137.8750 C   0  0  0  0  0  0  0  0  0  0  0  0
  182.1390  174.9330  137.3930 C   0  0  0  0  0  3  0  0  0  0  0  0
  182.7640  175.9430  138.1280 C   0  0  0  0  0  0  0  0  0  0  0  0
  181.0510  175.7540  139.8440 C   0  0  0  0  0  3  0  0  0  0  0  0
  182.2150  176.3550  139.3620 C   0  0  0  0  0  0  0  0  0  0  0  0
  180.4320  174.7430  139.1020 C   0  0  0  0  0  3  0  0  0  0  0  0
  184.0140  177.9490  139.5840 C   0  0  0  0  0  0  0  0  0  0  0  0
  184.5240  177.5190  138.3550 C   0  0  0  0  0  3  0  0  0  0  0  0
  180.3170  173.2640  137.0950 C   0  0  0  0  0  0  0  0  0  0  0  0
  180.3920  173.2550  135.8380 O   0  0  0  0  0  0  0  0  0  0  0  0
  179.6080  172.2560  137.7400 O   0  0  0  0  0  1  0  0  0  0  0  0
  1  9  1  0  0  0  0
  2 12  1  0  0  0  0
  2 15  1  0  0  0  0
  4  5  2  0  0  0  0
  4  8  1  0  0  0  0
  5 10  1  0  0  0  0
  6  7  1  0  0  0  0
  7 11  2  0  0  0  0
  8  6  2  0  0  0  0
  9 11  1  0  0  0  0
  9  3  1  1  0  0  0
 10  6  1  0  0  0  0
 10  1  2  0  0  0  0
 13 18  1  1  0  0  0
 13 12  1  0  0  0  0
 14 13  1  0  0  0  0
 15  3  2  0  0  0  0
 16 14  1  0  0  0  0
 16 17  1  0  0  0  0
 17  1  1  0  0  0  0
 17  2  2  0  0  0  0
 18 19  1  1  0  0  0
 18 20  1  0  0  0  0
 21  4  1  0  0  0  0
 22 26  2  0  0  0  0
 22 31  1  0  0  0  0
 24 29  1  0  0  0  0
 25 24  2  0  0  0  0
 25 26  1  0  0  0  0
 26 28  1  0  0  0  0
 28 27  1  0  0  0  0
 28 23  2  0  0  0  0
 29 27  2  0  0  0  0
 30 23  1  0  0  0  0
 30 21  1  0  0  0  0
 31 30  2  0  0  0  0
 32 34  1  0  0  0  0
 32 24  1  0  0  0  0
 33 32  2  0  0  0  0
M  END
>  <MODEL>
6

>  <REMARK>
 VINA RESULT:     -10.6      3.936      5.191
  Name = 
  4 active torsions:
  status: ('A' for Active; 'I' for Inactive)
    1  A    between atoms: C_3  and  C_25
    2  A    between atoms: C_7  and  C_11
    3  A    between atoms: C_8  and  C_18
    4  A    between atoms: C_18  and  C_30
                            x       y       z     vdW  Elec       q    Type
                         _______ _______ _______ _____ _____    ______ ____

>  <TORSDO>
F 4

$$$$
=
 OpenBabel10262423103D

 34 39  0  0  1  0  0  0  0  0999 V2000
  187.0690  178.1810  139.4210 C   0  0  0  0  0  0  0  0  0  0  0  0
  189.3090  177.2830  139.7890 C   0  0  0  0  0  0  0  0  0  0  0  0
  188.3330  177.1320  137.5320 C   0  0  0  0  0  3  0  0  0  0  0  0
  184.0810  178.6480  141.0770 C   0  0  0  0  0  0  0  0  0  0  0  0
  185.3720  178.5520  141.1990 N   0  0  0  0  0  2  0  0  0  0  0  0
  184.7250  178.4670  138.9790 C   0  0  0  0  0  0  0  0  0  0  0  0
  184.8690  178.1170  137.6070 N   0  0  0  0  0  0  0  0  0  0  0  0
  183.6080  178.5500  139.6780 C   0  0  0  0  0  3  0  0  0  0  0  0
  187.2800  178.1310  137.9110 C   0  0  0  0  0  0  0  0  0  0  0  0
  185.8380  178.4490  139.8650 C   0  0  0  0  0  0  0  0  0  0  0  0
  186.0410  177.9240  137.1300 N   0  0  0  0  0  0  0  0  0  0  0  0
  190.5660  177.0430  140.5840 C   0  0  0  0  0  2  0  0  0  0  0  0
  190.3540  177.1830  142.0890 C   0  0  2  0  0  3  0  0  0  0  0  0
  189.5970  178.4740  142.3760 C   0  0  0  0  0  2  0  0  0  0  0  0
  189.2900  176.7830  138.3970 C   0  0  0  0  0  3  0  0  0  0  0  0
  188.2130  178.3830  141.7480 C   0  0  0  0  0  2  0  0  0  0  0  0
  188.2510  177.9630  140.2970 C   0  0  0  0  0  0  0  0  0  0  0  0
  191.6960  177.1250  142.8190 C   0  0  2  0  0  3  0  0  0  0  0  0
  191.6920  176.0290  143.8680 C   0  0  0  0  0  1  0  0  0  0  0  0
  192.0020  178.3510  143.4130 O   0  0  0  0  0  1  0  0  0  0  0  0
  183.1710  178.7160  142.2560 C   0  0  0  0  0  2  0  0  0  0  0  0
  184.1370  179.0560  145.8700 N   0  0  0  0  0  0  0  0  0  0  0  0
  185.2450  178.0960  143.5170 C   0  0  0  0  0  3  0  0  0  0  0  0
  187.4120  177.9600  147.1130 C   0  0  0  0  0  0  0  0  0  0  0  0
  186.1160  178.4920  147.0880 C   0  0  0  0  0  3  0  0  0  0  0  0
  185.3950  178.5370  145.8930 C   0  0  0  0  0  0  0  0  0  0  0  0
  187.2660  177.5140  144.7250 C   0  0  0  0  0  3  0  0  0  0  0  0
  185.9750  178.0440  144.7050 C   0  0  0  0  0  0  0  0  0  0  0  0
  187.9810  177.4720  145.9260 C   0  0  0  0  0  3  0  0  0  0  0  0
  183.9530  178.6280  143.5220 C   0  0  0  0  0  0  0  0  0  0  0  0
  183.4140  179.1130  144.7180 C   0  0  0  0  0  3  0  0  0  0  0  0
  188.1670  177.9160  148.3750 C   0  0  0  0  0  0  0  0  0  0  0  0
  189.3820  178.2450  148.4040 O   0  0  0  0  0  0  0  0  0  0  0  0
  187.5450  177.5090  149.5500 O   0  0  0  0  0  1  0  0  0  0  0  0
  1 10  1  0  0  0  0
  1 17  2  0  0  0  0
  2 17  1  0  0  0  0
  2 12  1  0  0  0  0
  3  9  2  0  0  0  0
  3 15  1  0  0  0  0
  4  5  1  0  0  0  0
  4 21  1  0  0  0  0
  6  8  1  0  0  0  0
  6 10  2  0  0  0  0
  7  6  1  0  0  0  0
  8  4  2  0  0  0  0
  9  1  1  0  0  0  0
 10  5  1  0  0  0  0
 11  7  2  0  0  0  0
 11  9  1  0  0  0  0
 12 13  1  0  0  0  0
 13 14  1  0  0  0  0
 13 18  1  1  0  0  0
 15  2  2  0  0  0  0
 16 14  1  0  0  0  0
 17 16  1  0  0  0  0
 18 20  1  0  0  0  0
 18 19  1  1  0  0  0
 21 30  1  0  0  0  0
 22 26  1  0  0  0  0
 23 30  2  0  0  0  0
 23 28  1  0  0  0  0
 24 32  1  0  0  0  0
 25 24  1  0  0  0  0
 26 25  2  0  0  0  0
 27 29  1  0  0  0  0
 28 27  2  0  0  0  0
 28 26  1  0  0  0  0
 29 24  2  0  0  0  0
 30 31  1  0  0  0  0
 31 22  2  0  0  0  0
 32 33  2  0  0  0  0
 32 34  1  0  0  0  0
M  END
>  <MODEL>
7

>  <REMARK>
 VINA RESULT:     -10.5      1.998      6.732
  Name = 
  4 active torsions:
  status: ('A' for Active; 'I' for Inactive)
    1  A    between atoms: C_3  and  C_25
    2  A    between atoms: C_7  and  C_11
    3  A    between atoms: C_8  and  C_18
    4  A    between atoms: C_18  and  C_30
                            x       y       z     vdW  Elec       q    Type
                         _______ _______ _______ _____ _____    ______ ____

>  <TORSDO>
F 4

$$$$
=
 OpenBabel10262423103D

 34 39  0  0  1  0  0  0  0  0999 V2000
  184.3700  178.9030  140.6310 C   0  0  0  0  0  0  0  0  0  0  0  0
  186.0260  178.1250  139.0150 C   0  0  0  0  0  0  0  0  0  0  0  0
  183.6730  178.2990  138.3050 C   0  0  0  0  0  3  0  0  0  0  0  0
  183.7220  178.8470  144.0180 C   0  0  0  0  0  0  0  0  0  0  0  0
  184.6450  178.8280  143.1010 N   0  0  0  0  0  0  0  0  0  0  0  0
  182.5390  179.0860  142.1760 C   0  0  0  0  0  0  0  0  0  0  0  0
  181.5650  178.9930  141.1420 N   0  0  0  0  0  0  0  0  0  0  0  0
  182.3490  178.9610  143.4770 C   0  0  0  0  0  2  0  0  0  0  0  0
  183.3620  179.1340  139.5110 C   0  0  0  0  0  0  0  0  0  0  0  0
  183.9300  178.9960  141.8890 C   0  0  0  0  0  0  0  0  0  0  0  0
  181.9490  178.9750  139.9200 N   0  0  0  0  0  0  0  0  0  0  0  0
  187.4220  177.8440  138.5240 C   0  0  0  0  0  2  0  0  0  0  0  0
  188.4350  177.7020  139.6570 C   0  0  2  0  0  3  0  0  0  0  0  0
  188.2700  178.8620  140.6310 C   0  0  0  0  0  2  0  0  0  0  0  0
  184.9180  177.8760  138.0660 C   0  0  0  0  0  3  0  0  0  0  0  0
  186.8890  178.7790  141.2680 C   0  0  0  0  0  2  0  0  0  0  0  0
  185.7810  178.6240  140.2520 C   0  0  0  0  0  0  0  0  0  0  0  0
  189.8510  177.6170  139.0920 C   0  0  2  0  0  3  0  0  0  0  0  0
  189.8240  177.2660  137.6160 C   0  0  0  0  0  1  0  0  0  0  0  0
  190.6180  176.6800  139.7890 O   0  0  0  0  0  1  0  0  0  0  0  0
  184.0290  178.6380  145.4610 C   0  0  0  0  0  2  0  0  0  0  0  0
  187.4510  177.2620  144.7510 N   0  0  0  0  0  0  0  0  0  0  0  0
  186.0860  178.4120  146.8730 C   0  0  0  0  0  3  0  0  0  0  0  0
  190.0790  177.1820  147.3130 C   0  0  0  0  0  0  0  0  0  0  0  0
  189.4180  177.0160  146.0870 C   0  0  0  0  0  3  0  0  0  0  0  0
  188.0910  177.4250  145.9410 C   0  0  0  0  0  0  0  0  0  0  0  0
  188.0660  178.1740  148.2540 C   0  0  0  0  0  3  0  0  0  0  0  0
  187.4120  178.0080  147.0320 C   0  0  0  0  0  0  0  0  0  0  0  0
  189.3950  177.7620  148.3930 C   0  0  0  0  0  3  0  0  0  0  0  0
  185.4540  178.2380  145.6390 C   0  0  0  0  0  0  0  0  0  0  0  0
  186.1570  177.6500  144.5830 C   0  0  0  0  0  3  0  0  0  0  0  0
  191.4770  176.7480  147.4610 C   0  0  0  0  0  0  0  0  0  0  0  0
  192.1640  177.1340  148.4440 O   0  0  0  0  0  1  0  0  0  0  0  0
  192.0540  175.9060  146.5170 O   0  0  0  0  0  0  0  0  0  0  0  0
  1 10  1  0  0  0  0
  2 17  1  0  0  0  0
  3  9  2  0  0  0  0
  4 21  1  0  0  0  0
  5  4  2  0  0  0  0
  6  8  1  0  0  0  0
  7  6  1  0  0  0  0
  8  4  1  0  0  0  0
  9 11  1  0  0  0  0
  9  1  1  0  0  0  0
 10  6  2  0  0  0  0
 10  5  1  0  0  0  0
 11  7  2  0  0  0  0
 12  2  1  0  0  0  0
 12 13  1  0  0  0  0
 13 18  1  6  0  0  0
 13 14  1  0  0  0  0
 14 16  1  0  0  0  0
 15  3  1  0  0  0  0
 15  2  2  0  0  0  0
 17  1  2  0  0  0  0
 17 16  1  0  0  0  0
 18 19  1  6  0  0  0
 18 20  1  0  0  0  0
 21 30  1  0  0  0  0
 22 26  1  0  0  0  0
 23 28  1  0  0  0  0
 24 32  1  0  0  0  0
 24 29  1  0  0  0  0
 25 24  2  0  0  0  0
 26 25  1  0  0  0  0
 26 28  2  0  0  0  0
 27 29  2  0  0  0  0
 28 27  1  0  0  0  0
 30 23  2  0  0  0  0
 31 22  2  0  0  0  0
 31 30  1  0  0  0  0
 32 33  1  0  0  0  0
 34 32  2  0  0  0  0
M  END
>  <MODEL>
8

>  <REMARK>
 VINA RESULT:     -10.5      1.902      6.716
  Name = 
  4 active torsions:
  status: ('A' for Active; 'I' for Inactive)
    1  A    between atoms: C_3  and  C_25
    2  A    between atoms: C_7  and  C_11
    3  A    between atoms: C_8  and  C_18
    4  A    between atoms: C_18  and  C_30
                            x       y       z     vdW  Elec       q    Type
                         _______ _______ _______ _____ _____    ______ ____

>  <TORSDO>
F 4

$$$$
=
 OpenBabel10262423103D

 34 39  0  0  1  0  0  0  0  0999 V2000
  188.5790  178.0570  141.7260 C   0  0  0  0  0  0  0  0  0  0  0  0
  187.2370  177.7710  143.7460 C   0  0  0  0  0  0  0  0  0  0  0  0
  189.5990  177.0710  143.7880 C   0  0  0  0  0  3  0  0  0  0  0  0
  188.2610  178.0450  138.2930 C   0  0  0  0  0  0  0  0  0  0  0  0
  187.6630  178.2730  139.4250 N   0  0  0  0  0  0  0  0  0  0  0  0
  189.8880  177.7190  139.7400 C   0  0  0  0  0  0  0  0  0  0  0  0
  191.0000  177.2170  140.4740 N   0  0  0  0  0  0  0  0  0  0  0  0
  189.6760  177.6380  138.4390 C   0  0  0  0  0  3  0  0  0  0  0  0
  189.8590  177.8390  142.5270 C   0  0  1  0  0  3  0  0  0  0  0  0
  188.6800  178.0900  140.3950 C   0  0  0  0  0  0  0  0  0  0  0  0
  190.9660  177.2370  141.7530 N   0  0  0  0  0  0  0  0  0  0  0  0
  186.0100  177.9490  144.6020 C   0  0  0  0  0  2  0  0  0  0  0  0
  184.7550  178.2530  143.7880 C   0  0  2  0  0  3  0  0  0  0  0  0
  185.0580  179.3570  142.7830 C   0  0  0  0  0  2  0  0  0  0  0  0
  188.3930  177.0840  144.3640 C   0  0  0  0  0  3  0  0  0  0  0  0
  186.1040  178.8550  141.7980 C   0  0  0  0  0  2  0  0  0  0  0  0
  187.3110  178.2500  142.4780 C   0  0  0  0  0  0  0  0  0  0  0  0
  183.5990  178.6160  144.7180 C   0  0  2  0  0  3  0  0  0  0  0  0
  182.5190  179.3720  143.9670 C   0  0  0  0  0  1  0  0  0  0  0  0
  184.0420  179.3740  145.8040 O   0  0  0  0  0  1  0  0  0  0  0  0
  187.5360  178.0670  136.9900 C   0  0  0  0  0  2  0  0  0  0  0  0
  184.2580  176.2370  136.8580 N   0  0  0  0  0  0  0  0  0  0  0  0
  186.9620  175.6290  136.9540 C   0  0  0  0  0  3  0  0  0  0  0  0
  184.0840  172.5700  136.8640 C   0  0  0  0  0  0  0  0  0  0  0  0
  183.6880  173.9150  136.8450 C   0  0  0  0  0  3  0  0  0  0  0  0
  184.6440  174.9320  136.8750 C   0  0  0  0  0  0  0  0  0  0  0  0
  186.4140  173.2660  136.9440 C   0  0  0  0  0  3  0  0  0  0  0  0
  186.0160  174.6040  136.9240 C   0  0  0  0  0  0  0  0  0  0  0  0
  185.4500  172.2540  136.9140 C   0  0  0  0  0  3  0  0  0  0  0  0
  186.5390  176.9610  136.9300 C   0  0  0  0  0  0  0  0  0  0  0  0
  185.1700  177.2470  136.8880 C   0  0  0  0  0  3  0  0  0  0  0  0
  183.0710  171.5030  136.8340 C   0  0  0  0  0  0  0  0  0  0  0  0
  183.3820  170.3380  136.4680 O   0  0  0  0  0  0  0  0  0  0  0  0
  181.7590  171.7710  137.2080 O   0  0  0  0  0  1  0  0  0  0  0  0
  1 17  1  0  0  0  0
  1  9  1  0  0  0  0
  2 15  1  0  0  0  0
  2 12  1  0  0  0  0
  3 15  2  0  0  0  0
  4  8  1  0  0  0  0
  4  5  2  0  0  0  0
  5 10  1  0  0  0  0
  6 10  1  0  0  0  0
  6  7  1  0  0  0  0
  7 11  2  0  0  0  0
  8  6  2  0  0  0  0
  9  3  1  1  0  0  0
 10  1  2  0  0  0  0
 11  9  1  0  0  0  0
 13 12  1  0  0  0  0
 13 18  1  1  0  0  0
 14 13  1  0  0  0  0
 16 17  1  0  0  0  0
 16 14  1  0  0  0  0
 17  2  2  0  0  0  0
 18 19  1  6  0  0  0
 18 20  1  0  0  0  0
 21  4  1  0  0  0  0
 22 26  2  0  0  0  0
 22 31  1  0  0  0  0
 24 29  1  0  0  0  0
 25 24  2  0  0  0  0
 25 26  1  0  0  0  0
 26 28  1  0  0  0  0
 28 27  1  0  0  0  0
 28 23  2  0  0  0  0
 29 27  2  0  0  0  0
 30 23  1  0  0  0  0
 30 21  1  0  0  0  0
 31 30  2  0  0  0  0
 32 24  1  0  0  0  0
 32 34  1  0  0  0  0
 33 32  2  0  0  0  0
M  END
>  <MODEL>
9

>  <REMARK>
 VINA RESULT:     -10.2      4.080      6.427
  Name = 
  4 active torsions:
  status: ('A' for Active; 'I' for Inactive)
    1  A    between atoms: C_3  and  C_25
    2  A    between atoms: C_7  and  C_11
    3  A    between atoms: C_8  and  C_18
    4  A    between atoms: C_18  and  C_30
                            x       y       z     vdW  Elec       q    Type
                         _______ _______ _______ _____ _____    ______ ____

>  <TORSDO>
F 4

$$$$
