=
 OpenBabel10262420053D

 27 30  0  0  1  0  0  0  0  0999 V2000
  189.5520  178.7180  143.2720 C   0  0  0  0  0  2  0  0  0  0  0  0
  191.0450  177.6300  141.5280 C   0  0  0  0  0  0  0  0  0  0  0  0
  188.5780  177.9190  141.2010 C   0  0  0  0  0  2  0  0  0  0  0  0
  191.2880  175.7080  138.0390 N   0  0  0  0  0  0  0  0  0  0  0  0
  189.5670  174.3110  136.8990 C   0  0  0  0  0  1  0  0  0  0  0  0
  192.2730  177.5080  140.9950 C   0  0  0  0  0  3  0  0  0  0  0  0
  189.0440  176.2330  138.5210 C   0  0  2  0  0  3  0  0  0  0  0  0
  188.1030  177.0400  137.6460 C   0  0  0  0  0  1  0  0  0  0  0  0
  189.9770  177.1790  139.2810 C   0  0  2  0  0  3  0  0  0  0  0  0
  190.9210  178.0950  142.9500 C   0  0  2  0  0  3  0  0  0  0  0  0
  189.9610  175.4630  137.6920 N   0  0  0  0  0  0  0  0  0  0  0  0
  191.3170  176.6560  138.9050 C   0  0  0  0  0  0  0  0  0  0  0  0
  188.4070  178.0350  142.6530 N   0  0  0  0  0  0  0  0  0  0  0  0
  189.8130  177.1060  140.8030 C   0  0  1  0  0  3  0  0  0  0  0  0
  192.4680  176.9530  139.6880 N   0  0  0  0  0  2  0  0  0  0  0  0
  192.0750  175.1960  145.9230 C   0  0  0  0  0  3  0  0  0  0  0  0
  191.3410  177.0690  143.9690 C   0  0  0  0  0  0  0  0  0  0  0  0
  191.6820  175.7570  143.6020 C   0  0  0  0  0  3  0  0  0  0  0  0
  192.0500  174.8250  144.5760 C   0  0  0  0  0  3  0  0  0  0  0  0
  191.7320  176.4990  146.2960 C   0  0  0  0  0  3  0  0  0  0  0  0
  191.3640  177.4310  145.3210 C   0  0  0  0  0  3  0  0  0  0  0  0
  188.1820  176.7280  143.2650 C   0  0  0  0  0  2  0  0  0  0  0  0
  187.7270  176.8840  144.7080 C   0  0  0  0  0  2  0  0  0  0  0  0
  186.4120  177.6460  144.7990 C   0  0  0  0  0  2  0  0  0  0  0  0
  186.0790  178.0100  146.2350 C   0  0  1  0  0  3  0  0  0  0  0  0
  187.3390  177.9410  147.0720 C   0  0  0  0  0  1  0  0  0  0  0  0
  185.5660  179.3060  146.2880 O   0  0  0  0  0  1  0  0  0  0  0  0
  2 10  1  0  0  0  0
  3 13  1  0  0  0  0
  4 12  2  0  0  0  0
  5 11  1  0  0  0  0
  6  2  2  0  0  0  0
  7  8  1  6  0  0  0
  7  9  1  0  0  0  0
  9 12  1  1  0  0  0
  9 14  1  0  0  0  0
 10  1  1  0  0  0  0
 10 17  1  1  0  0  0
 11  4  1  0  0  0  0
 11  7  1  0  0  0  0
 12 15  1  0  0  0  0
 13 22  1  0  0  0  0
 13  1  1  0  0  0  0
 14  3  1  1  0  0  0
 14  2  1  0  0  0  0
 15  6  1  0  0  0  0
 16 20  1  0  0  0  0
 17 21  1  0  0  0  0
 18 17  2  0  0  0  0
 18 19  1  0  0  0  0
 19 16  2  0  0  0  0
 21 20  2  0  0  0  0
 22 23  1  0  0  0  0
 23 24  1  0  0  0  0
 24 25  1  0  0  0  0
 25 27  1  0  0  0  0
 25 26  1  1  0  0  0
M  END
>  <MODEL>
1

>  <REMARK>
 VINA RESULT:      -7.6      0.000      0.000
  Name = 
  5 active torsions:
  status: ('A' for Active; 'I' for Inactive)
    1  A    between atoms: C_9  and  C_15
    2  A    between atoms: C_10  and  C_13
    3  A    between atoms: C_10  and  C_20
    4  A    between atoms: N_18  and  C_26
    5  A    between atoms: C_20  and  C_26
                            x       y       z     vdW  Elec       q    Type
                         _______ _______ _______ _____ _____    ______ ____

>  <TORSDO>
F 5

$$$$
=
 OpenBabel10262420053D

 27 30  0  0  1  0  0  0  0  0999 V2000
  189.3180  178.8260  139.4570 C   0  0  0  0  0  2  0  0  0  0  0  0
  189.9130  176.4930  138.6490 C   0  0  0  0  0  0  0  0  0  0  0  0
  187.7390  177.6010  138.0860 C   0  0  0  0  0  2  0  0  0  0  0  0
  188.7280  173.1900  136.7480 N   0  0  0  0  0  0  0  0  0  0  0  0
  186.4180  172.3040  136.4420 C   0  0  0  0  0  1  0  0  0  0  0  0
  190.8730  175.6070  138.3310 C   0  0  0  0  0  3  0  0  0  0  0  0
  186.9990  174.7870  136.7530 C   0  0  2  0  0  3  0  0  0  0  0  0
  186.2980  175.3550  135.5340 C   0  0  0  0  0  1  0  0  0  0  0  0
  188.3510  175.4800  136.9380 C   0  0  2  0  0  3  0  0  0  0  0  0
  190.2510  177.6110  139.5930 C   0  0  2  0  0  3  0  0  0  0  0  0
  187.3700  173.3990  136.5150 N   0  0  0  0  0  0  0  0  0  0  0  0
  189.2860  174.3240  136.9740 C   0  0  0  0  0  0  0  0  0  0  0  0
  187.9030  178.4920  139.2390 N   0  0  0  0  0  0  0  0  0  0  0  0
  188.4620  176.2620  138.2520 C   0  0  1  0  0  3  0  0  0  0  0  0
  190.5870  174.4480  137.5370 N   0  0  0  0  0  2  0  0  0  0  0  0
  190.7880  176.4300  143.7030 C   0  0  0  0  0  3  0  0  0  0  0  0
  190.4230  177.1740  141.0230 C   0  0  0  0  0  0  0  0  0  0  0  0
  189.4630  176.3840  141.6780 C   0  0  0  0  0  3  0  0  0  0  0  0
  189.6470  176.0120  143.0120 C   0  0  0  0  0  3  0  0  0  0  0  0
  191.7450  177.2200  143.0590 C   0  0  0  0  0  3  0  0  0  0  0  0
  191.5610  177.5920  141.7230 C   0  0  0  0  0  3  0  0  0  0  0  0
  187.3080  177.9160  140.4420 C   0  0  0  0  0  2  0  0  0  0  0  0
  186.6950  179.0050  141.3100 C   0  0  0  0  0  2  0  0  0  0  0  0
  185.2090  178.7650  141.5380 C   0  0  0  0  0  2  0  0  0  0  0  0
  184.4420  178.7440  140.2270 C   0  0  1  0  0  3  0  0  0  0  0  0
  182.9690  178.5460  140.5160 C   0  0  0  0  0  1  0  0  0  0  0  0
  184.6160  179.9560  139.5590 O   0  0  0  0  0  1  0  0  0  0  0  0
  1 10  1  0  0  0  0
  2 10  1  0  0  0  0
  3 13  1  0  0  0  0
  4 12  2  0  0  0  0
  5 11  1  0  0  0  0
  6  2  2  0  0  0  0
  7  8  1  6  0  0  0
  7  9  1  0  0  0  0
  9 12  1  1  0  0  0
  9 14  1  0  0  0  0
 10 17  1  1  0  0  0
 11  4  1  0  0  0  0
 11  7  1  0  0  0  0
 12 15  1  0  0  0  0
 13  1  1  0  0  0  0
 13 22  1  0  0  0  0
 14  3  1  6  0  0  0
 14  2  1  0  0  0  0
 15  6  1  0  0  0  0
 17 18  2  0  0  0  0
 17 21  1  0  0  0  0
 18 19  1  0  0  0  0
 19 16  2  0  0  0  0
 20 16  1  0  0  0  0
 21 20  2  0  0  0  0
 22 23  1  0  0  0  0
 23 24  1  0  0  0  0
 25 26  1  1  0  0  0
 25 24  1  0  0  0  0
 27 25  1  0  0  0  0
M  END
>  <MODEL>
2

>  <REMARK>
 VINA RESULT:      -5.9      2.702      3.994
  Name = 
  5 active torsions:
  status: ('A' for Active; 'I' for Inactive)
    1  A    between atoms: C_9  and  C_15
    2  A    between atoms: C_10  and  C_13
    3  A    between atoms: C_10  and  C_20
    4  A    between atoms: N_18  and  C_26
    5  A    between atoms: C_20  and  C_26
                            x       y       z     vdW  Elec       q    Type
                         _______ _______ _______ _____ _____    ______ ____

>  <TORSDO>
F 5

$$$$
=
 OpenBabel10262420053D

 27 30  0  0  1  0  0  0  0  0999 V2000
  188.8720  179.0880  139.8290 C   0  0  0  0  0  2  0  0  0  0  0  0
  189.9970  176.9020  139.1880 C   0  0  0  0  0  0  0  0  0  0  0  0
  187.8440  177.6640  138.1580 C   0  0  0  0  0  2  0  0  0  0  0  0
  189.7970  173.5040  137.1040 N   0  0  0  0  0  0  0  0  0  0  0  0
  187.7810  172.2710  136.3120 C   0  0  0  0  0  1  0  0  0  0  0  0
  191.1330  176.1890  139.0930 C   0  0  0  0  0  3  0  0  0  0  0  0
  187.8730  174.8050  136.7200 C   0  0  2  0  0  3  0  0  0  0  0  0
  187.3680  175.2870  135.3730 C   0  0  0  0  0  1  0  0  0  0  0  0
  189.0230  175.7000  137.1880 C   0  0  2  0  0  3  0  0  0  0  0  0
  189.9380  178.0330  140.1730 C   0  0  2  0  0  3  0  0  0  0  0  0
  188.5050  173.5010  136.5800 N   0  0  0  0  0  0  0  0  0  0  0  0
  190.1020  174.7070  137.4350 C   0  0  0  0  0  0  0  0  0  0  0  0
  187.6110  178.5390  139.3120 N   0  0  0  0  0  0  0  0  0  0  0  0
  188.7210  176.4530  138.4880 C   0  0  1  0  0  3  0  0  0  0  0  0
  191.2150  175.0220  138.2650 N   0  0  0  0  0  2  0  0  0  0  0  0
  189.7110  176.8450  144.3100 C   0  0  0  0  0  3  0  0  0  0  0  0
  189.8670  177.5910  141.6110 C   0  0  0  0  0  0  0  0  0  0  0  0
  189.5680  176.2650  141.9640 C   0  0  0  0  0  3  0  0  0  0  0  0
  189.4930  175.8930  143.3090 C   0  0  0  0  0  3  0  0  0  0  0  0
  190.0040  178.1680  143.9650 C   0  0  0  0  0  3  0  0  0  0  0  0
  190.0800  178.5390  142.6190 C   0  0  0  0  0  3  0  0  0  0  0  0
  186.8720  177.8430  140.3620 C   0  0  0  0  0  2  0  0  0  0  0  0
  186.5000  178.8040  141.4820 C   0  0  0  0  0  2  0  0  0  0  0  0
  186.4790  178.1030  142.8330 C   0  0  0  0  0  2  0  0  0  0  0  0
  185.1720  178.3490  143.5660 C   0  0  1  0  0  3  0  0  0  0  0  0
  185.4680  178.6910  145.0120 C   0  0  0  0  0  1  0  0  0  0  0  0
  184.4920  179.4140  142.9760 O   0  0  0  0  0  1  0  0  0  0  0  0
  1 10  1  0  0  0  0
  2 10  1  0  0  0  0
  3 13  1  0  0  0  0
  4 12  2  0  0  0  0
  5 11  1  0  0  0  0
  6  2  2  0  0  0  0
  7  8  1  6  0  0  0
  7  9  1  0  0  0  0
  9 12  1  1  0  0  0
  9 14  1  0  0  0  0
 10 17  1  1  0  0  0
 11  7  1  0  0  0  0
 11  4  1  0  0  0  0
 12 15  1  0  0  0  0
 13  1  1  0  0  0  0
 13 22  1  0  0  0  0
 14  3  1  6  0  0  0
 14  2  1  0  0  0  0
 15  6  1  0  0  0  0
 17 18  2  0  0  0  0
 17 21  1  0  0  0  0
 18 19  1  0  0  0  0
 19 16  2  0  0  0  0
 20 16  1  0  0  0  0
 21 20  2  0  0  0  0
 22 23  1  0  0  0  0
 23 24  1  0  0  0  0
 24 25  1  0  0  0  0
 25 26  1  1  0  0  0
 27 25  1  0  0  0  0
M  END
>  <MODEL>
3

>  <REMARK>
 VINA RESULT:      -5.9      1.996      2.987
  Name = 
  5 active torsions:
  status: ('A' for Active; 'I' for Inactive)
    1  A    between atoms: C_9  and  C_15
    2  A    between atoms: C_10  and  C_13
    3  A    between atoms: C_10  and  C_20
    4  A    between atoms: N_18  and  C_26
    5  A    between atoms: C_20  and  C_26
                            x       y       z     vdW  Elec       q    Type
                         _______ _______ _______ _____ _____    ______ ____

>  <TORSDO>
F 5

$$$$
=
 OpenBabel10262420053D

 27 30  0  0  1  0  0  0  0  0999 V2000
  182.7560  177.1380  139.8030 C   0  0  0  0  0  2  0  0  0  0  0  0
  181.3040  179.1530  140.3330 C   0  0  0  0  0  0  0  0  0  0  0  0
  182.2460  178.7340  138.0510 C   0  0  0  0  0  2  0  0  0  0  0  0
  179.7290  182.5910  139.0570 N   0  0  0  0  0  0  0  0  0  0  0  0
  180.5530  184.1210  137.2690 C   0  0  0  0  0  1  0  0  0  0  0  0
  180.3450  179.6970  141.1040 C   0  0  0  0  0  3  0  0  0  0  0  0
  180.9920  181.5910  137.3400 C   0  0  2  0  0  3  0  0  0  0  0  0
  180.4910  181.2180  135.9580 C   0  0  0  0  0  1  0  0  0  0  0  0
  180.5500  180.5290  138.3500 C   0  0  2  0  0  3  0  0  0  0  0  0
  182.1160  178.0190  140.8890 C   0  0  2  0  0  3  0  0  0  0  0  0
  180.3170  182.7930  137.8100 N   0  0  0  0  0  0  0  0  0  0  0  0
  179.8400  181.3500  139.3670 C   0  0  0  0  0  0  0  0  0  0  0  0
  183.2770  177.8750  138.6430 N   0  0  0  0  0  0  0  0  0  0  0  0
  181.7190  179.7970  139.0180 C   0  0  1  0  0  3  0  0  0  0  0  0
  179.6190  180.8590  140.6840 N   0  0  0  0  0  2  0  0  0  0  0  0
  184.8790  179.1930  143.9810 C   0  0  0  0  0  3  0  0  0  0  0  0
  183.1020  178.4330  141.9490 C   0  0  0  0  0  0  0  0  0  0  0  0
  184.4820  178.2120  141.8040 C   0  0  0  0  0  3  0  0  0  0  0  0
  185.3670  178.5930  142.8160 C   0  0  0  0  0  3  0  0  0  0  0  0
  183.5060  179.4100  144.1330 C   0  0  0  0  0  3  0  0  0  0  0  0
  182.6210  179.0300  143.1200 C   0  0  0  0  0  3  0  0  0  0  0  0
  184.4650  178.6450  139.0010 C   0  0  0  0  0  2  0  0  0  0  0  0
  185.6500  178.2340  138.1400 C   0  0  0  0  0  2  0  0  0  0  0  0
  186.9370  178.1820  138.9520 C   0  0  0  0  0  2  0  0  0  0  0  0
  188.1620  178.2310  138.0550 C   0  0  1  0  0  3  0  0  0  0  0  0
  187.7360  178.6070  136.6510 C   0  0  0  0  0  1  0  0  0  0  0  0
  189.0580  179.1860  138.5310 O   0  0  0  0  0  1  0  0  0  0  0  0
  1 10  1  0  0  0  0
  2 10  1  0  0  0  0
  2  6  2  0  0  0  0
  3 13  1  0  0  0  0
  4 12  2  0  0  0  0
  5 11  1  0  0  0  0
  7  8  1  6  0  0  0
  7 11  1  0  0  0  0
  7  9  1  0  0  0  0
  9 14  1  0  0  0  0
  9 12  1  1  0  0  0
 10 17  1  1  0  0  0
 11  4  1  0  0  0  0
 12 15  1  0  0  0  0
 13 22  1  0  0  0  0
 13  1  1  0  0  0  0
 14  3  1  6  0  0  0
 14  2  1  0  0  0  0
 15  6  1  0  0  0  0
 16 20  1  0  0  0  0
 17 21  1  0  0  0  0
 18 17  2  0  0  0  0
 18 19  1  0  0  0  0
 19 16  2  0  0  0  0
 21 20  2  0  0  0  0
 23 24  1  0  0  0  0
 23 22  1  0  0  0  0
 25 26  1  6  0  0  0
 25 27  1  0  0  0  0
 25 24  1  0  0  0  0
M  END
>  <MODEL>
4

>  <REMARK>
 VINA RESULT:      -5.7      6.681      9.582
  Name = 
  5 active torsions:
  status: ('A' for Active; 'I' for Inactive)
    1  A    between atoms: C_9  and  C_15
    2  A    between atoms: C_10  and  C_13
    3  A    between atoms: C_10  and  C_20
    4  A    between atoms: N_18  and  C_26
    5  A    between atoms: C_20  and  C_26
                            x       y       z     vdW  Elec       q    Type
                         _______ _______ _______ _____ _____    ______ ____

>  <TORSDO>
F 5

$$$$
=
 OpenBabel10262420053D

 27 30  0  0  1  0  0  0  0  0999 V2000
  190.1610  177.3760  137.0020 C   0  0  0  0  0  2  0  0  0  0  0  0
  188.1140  177.8220  138.4400 C   0  0  0  0  0  0  0  0  0  0  0  0
  190.4000  177.5000  139.4120 C   0  0  0  0  0  2  0  0  0  0  0  0
  186.5880  178.1150  142.1160 N   0  0  0  0  0  0  0  0  0  0  0  0
  187.3840  177.0600  144.2290 C   0  0  0  0  0  1  0  0  0  0  0  0
  186.8830  178.3550  138.5380 C   0  0  0  0  0  3  0  0  0  0  0  0
  188.8890  177.6360  142.2300 C   0  0  2  0  0  3  0  0  0  0  0  0
  189.9430  178.4590  142.9480 C   0  0  0  0  0  1  0  0  0  0  0  0
  188.5570  178.2880  140.8850 C   0  0  2  0  0  3  0  0  0  0  0  0
  188.6250  177.4380  137.0820 C   0  0  2  0  0  3  0  0  0  0  0  0
  187.6250  177.7040  142.9500 N   0  0  0  0  0  0  0  0  0  0  0  0
  187.0820  178.4490  140.9790 C   0  0  0  0  0  0  0  0  0  0  0  0
  190.8130  176.8040  138.1880 N   0  0  0  0  0  0  0  0  0  0  0  0
  188.8950  177.4060  139.6790 C   0  0  1  0  0  3  0  0  0  0  0  0
  186.2870  178.6280  139.8120 N   0  0  0  0  0  2  0  0  0  0  0  0
  186.6780  173.9470  135.4700 C   0  0  0  0  0  3  0  0  0  0  0  0
  187.9690  176.2120  136.5040 C   0  0  0  0  0  0  0  0  0  0  0  0
  188.3190  175.7120  135.2380 C   0  0  0  0  0  3  0  0  0  0  0  0
  187.6770  174.5820  134.7250 C   0  0  0  0  0  3  0  0  0  0  0  0
  186.3230  174.4430  136.7270 C   0  0  0  0  0  3  0  0  0  0  0  0
  186.9650  175.5740  137.2410 C   0  0  0  0  0  3  0  0  0  0  0  0
  190.5600  175.3690  138.2850 C   0  0  0  0  0  2  0  0  0  0  0  0
  191.3470  174.6130  137.2250 C   0  0  0  0  0  2  0  0  0  0  0  0
  192.8250  174.5330  137.5800 C   0  0  0  0  0  2  0  0  0  0  0  0
  193.6740  175.3410  136.6130 C   0  0  1  0  0  3  0  0  0  0  0  0
  192.9100  175.5320  135.3190 C   0  0  0  0  0  1  0  0  0  0  0  0
  193.9570  176.5900  137.1640 O   0  0  0  0  0  1  0  0  0  0  0  0
  1 10  1  0  0  0  0
  1 13  1  0  0  0  0
  2  6  2  0  0  0  0
  2 14  1  0  0  0  0
  4 11  1  0  0  0  0
  6 15  1  0  0  0  0
  7  8  1  1  0  0  0
  7 11  1  0  0  0  0
  9 12  1  1  0  0  0
  9  7  1  0  0  0  0
 10 17  1  1  0  0  0
 10  2  1  0  0  0  0
 11  5  1  0  0  0  0
 12  4  2  0  0  0  0
 13 22  1  0  0  0  0
 13  3  1  0  0  0  0
 14  3  1  6  0  0  0
 14  9  1  0  0  0  0
 15 12  1  0  0  0  0
 16 20  1  0  0  0  0
 17 21  1  0  0  0  0
 18 17  2  0  0  0  0
 19 18  1  0  0  0  0
 19 16  2  0  0  0  0
 20 21  2  0  0  0  0
 23 24  1  0  0  0  0
 23 22  1  0  0  0  0
 25 26  1  6  0  0  0
 25 27  1  0  0  0  0
 25 24  1  0  0  0  0
M  END
>  <MODEL>
5

>  <REMARK>
 VINA RESULT:      -5.7      3.333      8.081
  Name = 
  5 active torsions:
  status: ('A' for Active; 'I' for Inactive)
    1  A    between atoms: C_9  and  C_15
    2  A    between atoms: C_10  and  C_13
    3  A    between atoms: C_10  and  C_20
    4  A    between atoms: N_18  and  C_26
    5  A    between atoms: C_20  and  C_26
                            x       y       z     vdW  Elec       q    Type
                         _______ _______ _______ _____ _____    ______ ____

>  <TORSDO>
F 5

$$$$
=
 OpenBabel10262420053D

 27 30  0  0  1  0  0  0  0  0999 V2000
  189.0550  178.6500  137.4570 C   0  0  0  0  0  2  0  0  0  0  0  0
  187.6980  176.9750  136.1120 C   0  0  0  0  0  0  0  0  0  0  0  0
  186.7180  178.2980  138.0000 C   0  0  0  0  0  2  0  0  0  0  0  0
  184.2330  175.0460  135.6600 N   0  0  0  0  0  0  0  0  0  0  0  0
  182.5080  174.5060  137.3760 C   0  0  0  0  0  1  0  0  0  0  0  0
  187.5240  176.3170  134.9520 C   0  0  0  0  0  3  0  0  0  0  0  0
  184.1140  176.5060  137.5030 C   0  0  2  0  0  3  0  0  0  0  0  0
  183.1010  177.6180  137.7030 C   0  0  0  0  0  1  0  0  0  0  0  0
  185.2050  176.9730  136.5360 C   0  0  2  0  0  3  0  0  0  0  0  0
  189.0690  177.4850  136.4520 C   0  0  2  0  0  3  0  0  0  0  0  0
  183.5000  175.3930  136.7930 N   0  0  0  0  0  0  0  0  0  0  0  0
  185.1700  175.9090  135.4980 C   0  0  0  0  0  0  0  0  0  0  0  0
  188.0660  178.5160  138.5360 N   0  0  0  0  0  0  0  0  0  0  0  0
  186.6010  177.0190  137.1670 C   0  0  1  0  0  3  0  0  0  0  0  0
  186.2750  175.6980  134.6250 N   0  0  0  0  0  2  0  0  0  0  0  0
  191.9080  174.4510  137.5950 C   0  0  0  0  0  3  0  0  0  0  0  0
  190.0470  176.4060  136.8330 C   0  0  0  0  0  0  0  0  0  0  0  0
  189.6860  175.0480  136.8420 C   0  0  0  0  0  3  0  0  0  0  0  0
  190.6150  174.0740  137.2190 C   0  0  0  0  0  3  0  0  0  0  0  0
  192.2710  175.8010  137.5940 C   0  0  0  0  0  3  0  0  0  0  0  0
  191.3420  176.7750  137.2160 C   0  0  0  0  0  3  0  0  0  0  0  0
  188.4440  177.4540  139.4650 C   0  0  0  0  0  2  0  0  0  0  0  0
  189.5700  177.9150  140.3770 C   0  0  0  0  0  2  0  0  0  0  0  0
  190.4610  176.7530  140.7940 C   0  0  0  0  0  2  0  0  0  0  0  0
  190.6520  176.7100  142.3000 C   0  0  1  0  0  3  0  0  0  0  0  0
  189.8730  177.8450  142.9320 C   0  0  0  0  0  1  0  0  0  0  0  0
  190.1800  175.4980  142.8020 O   0  0  0  0  0  1  0  0  0  0  0  0
  1 13  1  0  0  0  0
  2 10  1  0  0  0  0
  2 14  1  0  0  0  0
  3 13  1  0  0  0  0
  4 11  1  0  0  0  0
  6  2  2  0  0  0  0
  7  8  1  6  0  0  0
  9 12  1  6  0  0  0
  9 14  1  0  0  0  0
  9  7  1  0  0  0  0
 10 17  1  1  0  0  0
 10  1  1  0  0  0  0
 11  5  1  0  0  0  0
 11  7  1  0  0  0  0
 12  4  2  0  0  0  0
 13 22  1  0  0  0  0
 14  3  1  6  0  0  0
 15  6  1  0  0  0  0
 15 12  1  0  0  0  0
 17 18  2  0  0  0  0
 17 21  1  0  0  0  0
 18 19  1  0  0  0  0
 19 16  2  0  0  0  0
 20 16  1  0  0  0  0
 21 20  2  0  0  0  0
 22 23  1  0  0  0  0
 23 24  1  0  0  0  0
 24 25  1  0  0  0  0
 25 27  1  0  0  0  0
 25 26  1  1  0  0  0
M  END
>  <MODEL>
6

>  <REMARK>
 VINA RESULT:      -5.6      3.416      6.484
  Name = 
  5 active torsions:
  status: ('A' for Active; 'I' for Inactive)
    1  A    between atoms: C_9  and  C_15
    2  A    between atoms: C_10  and  C_13
    3  A    between atoms: C_10  and  C_20
    4  A    between atoms: N_18  and  C_26
    5  A    between atoms: C_20  and  C_26
                            x       y       z     vdW  Elec       q    Type
                         _______ _______ _______ _____ _____    ______ ____

>  <TORSDO>
F 5

$$$$
=
 OpenBabel10262420053D

 27 30  0  0  1  0  0  0  0  0999 V2000
  188.1570  177.9050  135.5920 C   0  0  0  0  0  2  0  0  0  0  0  0
  187.4260  178.0830  138.0190 C   0  0  0  0  0  0  0  0  0  0  0  0
  189.7480  177.4190  137.3540 C   0  0  0  0  0  2  0  0  0  0  0  0
  188.3640  177.5350  141.8590 N   0  0  0  0  0  0  0  0  0  0  0  0
  190.0120  175.9540  142.8570 C   0  0  0  0  0  1  0  0  0  0  0  0
  186.5980  178.6350  138.9230 C   0  0  0  0  0  3  0  0  0  0  0  0
  190.1790  176.9310  140.4880 C   0  0  2  0  0  3  0  0  0  0  0  0
  191.5840  177.4990  140.5570 C   0  0  0  0  0  1  0  0  0  0  0  0
  189.2660  177.9100  139.7450 C   0  0  2  0  0  3  0  0  0  0  0  0
  186.9870  178.0200  136.5840 C   0  0  2  0  0  3  0  0  0  0  0  0
  189.5930  176.8810  141.8200 N   0  0  0  0  0  0  0  0  0  0  0  0
  188.1700  178.1140  140.7290 C   0  0  0  0  0  0  0  0  0  0  0  0
  189.2490  177.0270  136.0320 N   0  0  0  0  0  0  0  0  0  0  0  0
  188.6820  177.3370  138.4490 C   0  0  1  0  0  3  0  0  0  0  0  0
  186.9010  178.6140  140.3230 N   0  0  0  0  0  2  0  0  0  0  0  0
  183.8960  175.1380  135.7420 C   0  0  0  0  0  3  0  0  0  0  0  0
  185.9040  177.0080  136.3180 C   0  0  0  0  0  0  0  0  0  0  0  0
  185.6980  175.9050  137.1640 C   0  0  0  0  0  3  0  0  0  0  0  0
  184.6950  174.9750  136.8770 C   0  0  0  0  0  3  0  0  0  0  0  0
  184.1000  176.2300  134.8940 C   0  0  0  0  0  3  0  0  0  0  0  0
  185.1030  177.1610  135.1810 C   0  0  0  0  0  3  0  0  0  0  0  0
  188.8350  175.6260  136.0170 C   0  0  0  0  0  2  0  0  0  0  0  0
  188.4250  175.2040  134.6140 C   0  0  0  0  0  2  0  0  0  0  0  0
  187.6620  173.8870  134.6300 C   0  0  0  0  0  2  0  0  0  0  0  0
  188.1440  172.9780  135.7470 C   0  0  1  0  0  3  0  0  0  0  0  0
  186.9700  172.1900  136.2890 C   0  0  0  0  0  1  0  0  0  0  0  0
  189.1010  172.0910  135.2550 O   0  0  0  0  0  1  0  0  0  0  0  0
  1 13  1  0  0  0  0
  1 10  1  0  0  0  0
  2 14  1  0  0  0  0
  2  6  2  0  0  0  0
  6 15  1  0  0  0  0
  7  8  1  1  0  0  0
  7 11  1  0  0  0  0
  9  7  1  0  0  0  0
  9 12  1  1  0  0  0
 10 17  1  1  0  0  0
 10  2  1  0  0  0  0
 11  4  1  0  0  0  0
 11  5  1  0  0  0  0
 12  4  2  0  0  0  0
 13  3  1  0  0  0  0
 14  3  1  6  0  0  0
 14  9  1  0  0  0  0
 15 12  1  0  0  0  0
 16 19  1  0  0  0  0
 17 18  1  0  0  0  0
 19 18  2  0  0  0  0
 20 21  1  0  0  0  0
 20 16  2  0  0  0  0
 21 17  2  0  0  0  0
 22 13  1  0  0  0  0
 23 24  1  0  0  0  0
 23 22  1  0  0  0  0
 24 25  1  0  0  0  0
 25 26  1  6  0  0  0
 27 25  1  0  0  0  0
M  END
>  <MODEL>
7

>  <REMARK>
 VINA RESULT:      -5.5      3.803      8.487
  Name = 
  5 active torsions:
  status: ('A' for Active; 'I' for Inactive)
    1  A    between atoms: C_9  and  C_15
    2  A    between atoms: C_10  and  C_13
    3  A    between atoms: C_10  and  C_20
    4  A    between atoms: N_18  and  C_26
    5  A    between atoms: C_20  and  C_26
                            x       y       z     vdW  Elec       q    Type
                         _______ _______ _______ _____ _____    ______ ____

>  <TORSDO>
F 5

$$$$
=
 OpenBabel10262420053D

 27 30  0  0  1  0  0  0  0  0999 V2000
  188.3460  177.7500  135.4160 C   0  0  0  0  0  2  0  0  0  0  0  0
  187.5930  177.9430  137.8350 C   0  0  0  0  0  0  0  0  0  0  0  0
  189.9280  177.2970  137.1960 C   0  0  0  0  0  2  0  0  0  0  0  0
  188.5040  177.4430  141.6880 N   0  0  0  0  0  0  0  0  0  0  0  0
  190.1610  175.8890  142.7150 C   0  0  0  0  0  1  0  0  0  0  0  0
  186.7520  178.4950  138.7260 C   0  0  0  0  0  3  0  0  0  0  0  0
  190.3370  176.8450  140.3380 C   0  0  2  0  0  3  0  0  0  0  0  0
  191.7360  177.4280  140.4130 C   0  0  0  0  0  1  0  0  0  0  0  0
  189.4200  177.8060  139.5770 C   0  0  2  0  0  3  0  0  0  0  0  0
  187.1670  177.8620  136.3970 C   0  0  2  0  0  3  0  0  0  0  0  0
  189.7410  176.8010  141.6660 N   0  0  0  0  0  0  0  0  0  0  0  0
  188.3140  178.0090  140.5510 C   0  0  0  0  0  0  0  0  0  0  0  0
  189.4440  176.8870  135.8730 N   0  0  0  0  0  0  0  0  0  0  0  0
  188.8530  177.2140  138.2830 C   0  0  1  0  0  3  0  0  0  0  0  0
  187.0430  178.4910  140.1290 N   0  0  0  0  0  2  0  0  0  0  0  0
  184.0920  174.9180  135.7210 C   0  0  0  0  0  3  0  0  0  0  0  0
  186.0970  176.8360  136.1320 C   0  0  0  0  0  0  0  0  0  0  0  0
  185.3280  176.8540  134.9560 C   0  0  0  0  0  3  0  0  0  0  0  0
  184.3310  175.8970  134.7510 C   0  0  0  0  0  3  0  0  0  0  0  0
  184.8500  174.8990  136.8950 C   0  0  0  0  0  3  0  0  0  0  0  0
  185.8480  175.8560  137.1000 C   0  0  0  0  0  3  0  0  0  0  0  0
  189.0450  175.4820  135.8690 C   0  0  0  0  0  2  0  0  0  0  0  0
  190.1590  174.6110  135.3090 C   0  0  0  0  0  2  0  0  0  0  0  0
  190.6110  173.5670  136.3210 C   0  0  0  0  0  2  0  0  0  0  0  0
  191.9780  173.9020  136.8920 C   0  0  1  0  0  3  0  0  0  0  0  0
  192.7480  174.7330  135.8870 C   0  0  0  0  0  1  0  0  0  0  0  0
  191.8320  174.6320  138.0710 O   0  0  0  0  0  1  0  0  0  0  0  0
  1 13  1  0  0  0  0
  1 10  1  0  0  0  0
  2 14  1  0  0  0  0
  2  6  2  0  0  0  0
  6 15  1  0  0  0  0
  7  8  1  1  0  0  0
  7 11  1  0  0  0  0
  9  7  1  0  0  0  0
  9 12  1  1  0  0  0
 10 17  1  1  0  0  0
 10  2  1  0  0  0  0
 11  4  1  0  0  0  0
 11  5  1  0  0  0  0
 12  4  2  0  0  0  0
 13  3  1  0  0  0  0
 14  3  1  6  0  0  0
 14  9  1  0  0  0  0
 15 12  1  0  0  0  0
 16 20  1  0  0  0  0
 17 21  1  0  0  0  0
 18 17  2  0  0  0  0
 19 18  1  0  0  0  0
 19 16  2  0  0  0  0
 20 21  2  0  0  0  0
 22 13  1  0  0  0  0
 23 22  1  0  0  0  0
 23 24  1  0  0  0  0
 24 25  1  0  0  0  0
 25 26  1  6  0  0  0
 25 27  1  0  0  0  0
M  END
>  <MODEL>
8

>  <REMARK>
 VINA RESULT:      -5.4      3.550      8.328
  Name = 
  5 active torsions:
  status: ('A' for Active; 'I' for Inactive)
    1  A    between atoms: C_9  and  C_15
    2  A    between atoms: C_10  and  C_13
    3  A    between atoms: C_10  and  C_20
    4  A    between atoms: N_18  and  C_26
    5  A    between atoms: C_20  and  C_26
                            x       y       z     vdW  Elec       q    Type
                         _______ _______ _______ _____ _____    ______ ____

>  <TORSDO>
F 5

$$$$
=
 OpenBabel10262420053D

 27 30  0  0  1  0  0  0  0  0999 V2000
  182.5640  179.4720  139.1640 C   0  0  0  0  0  2  0  0  0  0  0  0
  183.2140  178.7730  141.5190 C   0  0  0  0  0  0  0  0  0  0  0  0
  184.8970  179.0770  139.6900 C   0  0  0  0  0  2  0  0  0  0  0  0
  186.1090  177.5760  143.9910 N   0  0  0  0  0  0  0  0  0  0  0  0
  188.2390  176.3990  143.4530 C   0  0  0  0  0  1  0  0  0  0  0  0
  182.9220  178.7800  142.8320 C   0  0  0  0  0  3  0  0  0  0  0  0
  186.9860  177.9570  141.8410 C   0  0  2  0  0  3  0  0  0  0  0  0
  188.1180  178.9020  141.4870 C   0  0  0  0  0  1  0  0  0  0  0  0
  185.6910  178.7520  142.0250 C   0  0  2  0  0  3  0  0  0  0  0  0
  182.0950  178.9480  140.5330 C   0  0  2  0  0  3  0  0  0  0  0  0
  187.2090  177.3800  143.1590 N   0  0  0  0  0  0  0  0  0  0  0  0
  185.2670  178.3360  143.3880 C   0  0  0  0  0  0  0  0  0  0  0  0
  183.8350  178.9030  138.6930 N   0  0  0  0  0  0  0  0  0  0  0  0
  184.5970  178.3790  141.0190 C   0  0  1  0  0  3  0  0  0  0  0  0
  183.9200  178.4940  143.8200 N   0  0  0  0  0  2  0  0  0  0  0  0
  179.4430  175.5700  140.1720 C   0  0  0  0  0  3  0  0  0  0  0  0
  181.1910  177.7500  140.4120 C   0  0  0  0  0  0  0  0  0  0  0  0
  181.6660  176.5060  139.9650 C   0  0  0  0  0  3  0  0  0  0  0  0
  180.7950  175.4200  139.8470 C   0  0  0  0  0  3  0  0  0  0  0  0
  178.9640  176.8070  140.6130 C   0  0  0  0  0  3  0  0  0  0  0  0
  179.8350  177.8940  140.7300 C   0  0  0  0  0  3  0  0  0  0  0  0
  183.6770  177.4980  138.3270 C   0  0  0  0  0  2  0  0  0  0  0  0
  184.2290  177.2430  136.9330 C   0  0  0  0  0  2  0  0  0  0  0  0
  185.6820  176.7900  136.9820 C   0  0  0  0  0  2  0  0  0  0  0  0
  186.6310  177.9330  136.6660 C   0  0  1  0  0  3  0  0  0  0  0  0
  187.7890  177.9030  137.6420 C   0  0  0  0  0  1  0  0  0  0  0  0
  187.1240  177.7910  135.3690 O   0  0  0  0  0  1  0  0  0  0  0  0
  1 10  1  0  0  0  0
  2  6  2  0  0  0  0
  6 15  1  0  0  0  0
  7  8  1  1  0  0  0
  7  9  1  0  0  0  0
  7 11  1  0  0  0  0
  9 12  1  1  0  0  0
 10 17  1  6  0  0  0
 10  2  1  0  0  0  0
 11  5  1  0  0  0  0
 11  4  1  0  0  0  0
 12 15  1  0  0  0  0
 12  4  2  0  0  0  0
 13  1  1  0  0  0  0
 13  3  1  0  0  0  0
 14  3  1  6  0  0  0
 14  2  1  0  0  0  0
 14  9  1  0  0  0  0
 16 20  1  0  0  0  0
 17 21  1  0  0  0  0
 18 17  2  0  0  0  0
 19 18  1  0  0  0  0
 19 16  2  0  0  0  0
 20 21  2  0  0  0  0
 22 13  1  0  0  0  0
 23 24  1  0  0  0  0
 23 22  1  0  0  0  0
 25 24  1  0  0  0  0
 25 26  1  1  0  0  0
 27 25  1  0  0  0  0
M  END
>  <MODEL>
9

>  <REMARK>
 VINA RESULT:      -5.3      5.339      8.964
  Name = 
  5 active torsions:
  status: ('A' for Active; 'I' for Inactive)
    1  A    between atoms: C_9  and  C_15
    2  A    between atoms: C_10  and  C_13
    3  A    between atoms: C_10  and  C_20
    4  A    between atoms: N_18  and  C_26
    5  A    between atoms: C_20  and  C_26
                            x       y       z     vdW  Elec       q    Type
                         _______ _______ _______ _____ _____    ______ ____

>  <TORSDO>
F 5

$$$$
