=
 OpenBabel10262422003D

 30 31  0  0  1  0  0  0  0  0999 V2000
  189.0430  177.7590  146.8020 C   0  0  0  0  0  0  0  0  0  0  0  0
  191.4200  177.1660  145.0780 C   0  0  0  0  0  0  0  0  0  0  0  0
  191.7750  177.9420  143.8010 C   0  0  1  0  0  3  0  0  0  0  0  0
  189.3610  176.4130  146.9970 O   0  0  0  0  0  0  0  0  0  0  0  0
  189.4350  178.6210  147.6330 O   0  0  0  0  0  0  0  0  0  0  0  0
  191.7340  176.5610  146.2180 C   0  0  0  0  0  3  0  0  0  0  0  0
  190.6880  175.9740  147.0670 C   0  0  0  0  0  0  0  0  0  0  0  0
  188.3630  178.2090  145.5440 C   0  0  1  0  0  3  0  0  0  0  0  0
  190.3970  177.5970  144.0290 C   0  0  2  0  0  0  0  0  0  0  0  0
  192.1520  179.3680  144.1810 C   0  0  0  0  0  1  0  0  0  0  0  0
  190.9880  175.0370  147.8510 O   0  0  0  0  0  0  0  0  0  0  0  0
  189.3980  178.6740  144.5040 C   0  0  0  0  0  2  0  0  0  0  0  0
  187.3460  177.1940  144.9910 C   0  0  1  0  0  3  0  0  0  0  0  0
  186.1980  176.9360  145.9580 C   0  0  0  0  0  1  0  0  0  0  0  0
  186.8360  177.5310  143.5750 C   0  0  0  0  0  2  0  0  0  0  0  0
  185.3550  177.9150  143.4180 C   0  0  2  0  0  3  0  0  0  0  0  0
  184.8340  177.7460  141.9950 C   0  0  0  0  0  2  0  0  0  0  0  0
  183.8840  179.2130  140.2090 C   0  0  0  0  0  1  0  0  0  0  0  0
  186.2260  178.9680  140.5060 O   0  0  0  0  0  1  0  0  0  0  0  0
  185.0190  179.0280  141.2000 C   0  0  2  0  0  3  0  0  0  0  0  0
  185.0460  179.2970  143.9770 C   0  0  0  0  0  2  0  0  0  0  0  0
  182.5650  179.5270  143.8470 O   0  0  0  0  0  0  0  0  0  0  0  0
  183.5900  179.1220  145.8580 O   0  0  0  0  0  1  0  0  0  0  0  0
  183.7010  179.3200  144.6200 C   0  0  0  0  0  0  0  0  0  0  0  0
  189.8860  176.4250  143.1980 C   0  0  0  0  0  2  0  0  0  0  0  0
  190.2890  176.5520  141.7360 C   0  0  0  0  0  2  0  0  0  0  0  0
  189.3110  177.4310  140.9780 C   0  0  0  0  0  2  0  0  0  0  0  0
  189.7140  177.5160  139.5480 C   0  0  0  0  0  0  0  0  0  0  0  0
  190.4390  176.4850  138.9670 O   0  0  0  0  0  1  0  0  0  0  0  0
  189.4260  178.5380  138.8740 O   0  0  0  0  0  0  0  0  0  0  0  0
  1  4  1  0  0  0  0
  1  5  2  0  0  0  0
  2  6  2  0  0  0  0
  3  9  1  0  0  0  0
  3 10  1  1  0  0  0
  3  2  1  0  0  0  0
  4  7  1  0  0  0  0
  6  7  1  0  0  0  0
  7 11  2  0  0  0  0
  8 13  1  6  0  0  0
  8  1  1  0  0  0  0
  9 25  1  6  0  0  0
  9 12  1  0  0  0  0
  9  2  1  0  0  0  0
 12  8  1  0  0  0  0
 13 14  1  1  0  0  0
 15 13  1  0  0  0  0
 16 17  1  6  0  0  0
 16 15  1  0  0  0  0
 16 21  1  0  0  0  0
 19 20  1  0  0  0  0
 20 18  1  6  0  0  0
 20 17  1  0  0  0  0
 21 24  1  0  0  0  0
 22 24  2  0  0  0  0
 24 23  1  0  0  0  0
 26 25  1  0  0  0  0
 27 26  1  0  0  0  0
 28 27  1  0  0  0  0
 29 28  1  0  0  0  0
 30 28  2  0  0  0  0
M  END
>  <MODEL>
1

>  <REMARK>
 VINA RESULT:      -6.5      0.000      0.000
  Name = 
  11 active torsions:
  status: ('A' for Active; 'I' for Inactive)
    1  A    between atoms: C_1  and  C_4
    2  A    between atoms: C_1  and  C_22
    3  A    between atoms: C_4  and  C_12
    4  A    between atoms: C_7  and  C_23
    5  A    between atoms: C_7  and  C_25
    6  A    between atoms: C_8  and  C_12
    7  A    between atoms: C_8  and  C_30
    8  A    between atoms: C_9  and  C_12
    9  A    between atoms: C_9  and  C_21
   10  A    between atoms: C_10  and  C_15
   11  A    between atoms: C_15  and  C_25
                            x       y       z     vdW  Elec       q    Type
                         _______ _______ _______ _____ _____    ______ ____

>  <TORSDO>
F 11

$$$$
=
 OpenBabel10262422003D

 30 31  0  0  1  0  0  0  0  0999 V2000
  191.2480  176.6930  142.7630 C   0  0  0  0  0  0  0  0  0  0  0  0
  189.0740  178.2460  144.1190 C   0  0  0  0  0  0  0  0  0  0  0  0
  187.5860  177.8680  144.0720 C   0  0  1  0  0  3  0  0  0  0  0  0
  191.7030  178.0080  142.8870 O   0  0  0  0  0  0  0  0  0  0  0  0
  191.6130  175.8230  143.5990 O   0  0  0  0  0  0  0  0  0  0  0  0
  190.1640  178.6730  144.7450 C   0  0  0  0  0  3  0  0  0  0  0  0
  191.4470  178.7690  144.0320 C   0  0  0  0  0  0  0  0  0  0  0  0
  190.2190  176.3340  141.7330 C   0  0  1  0  0  3  0  0  0  0  0  0
  188.3530  177.7690  142.8590 C   0  0  2  0  0  0  0  0  0  0  0  0
  187.3890  176.5530  144.8160 C   0  0  0  0  0  1  0  0  0  0  0  0
  192.3190  179.5760  144.4460 O   0  0  0  0  0  0  0  0  0  0  0  0
  188.8040  176.3880  142.3380 C   0  0  0  0  0  2  0  0  0  0  0  0
  190.3580  177.1230  140.4170 C   0  0  1  0  0  3  0  0  0  0  0  0
  191.7890  177.1430  139.9010 C   0  0  0  0  0  1  0  0  0  0  0  0
  189.3600  176.6870  139.3230 C   0  0  0  0  0  2  0  0  0  0  0  0
  189.9090  176.4510  137.9060 C   0  0  2  0  0  3  0  0  0  0  0  0
  189.6690  177.6240  136.9620 C   0  0  0  0  0  2  0  0  0  0  0  0
  187.3480  178.4010  136.4610 C   0  0  0  0  0  1  0  0  0  0  0  0
  188.9160  179.7950  137.5690 O   0  0  0  0  0  1  0  0  0  0  0  0
  188.5020  178.4710  137.4440 C   0  0  2  0  0  3  0  0  0  0  0  0
  189.4380  175.1330  137.3080 C   0  0  0  0  0  2  0  0  0  0  0  0
  191.7270  174.2950  137.8360 O   0  0  0  0  0  1  0  0  0  0  0  0
  190.5280  173.3850  136.1060 O   0  0  0  0  0  0  0  0  0  0  0  0
  190.5920  174.2300  137.0380 C   0  0  0  0  0  0  0  0  0  0  0  0
  188.1160  178.8980  141.8610 C   0  0  0  0  0  2  0  0  0  0  0  0
  186.9560  178.5920  140.9250 C   0  0  0  0  0  2  0  0  0  0  0  0
  185.6330  178.9770  141.5600 C   0  0  0  0  0  2  0  0  0  0  0  0
  184.5990  179.1490  140.5040 C   0  0  0  0  0  0  0  0  0  0  0  0
  183.3160  178.6540  140.6980 O   0  0  0  0  0  1  0  0  0  0  0  0
  184.8970  179.7130  139.4190 O   0  0  0  0  0  0  0  0  0  0  0  0
  1  4  1  0  0  0  0
  1  5  2  0  0  0  0
  2  6  2  0  0  0  0
  3  2  1  0  0  0  0
  3 10  1  1  0  0  0
  4  7  1  0  0  0  0
  7 11  2  0  0  0  0
  7  6  1  0  0  0  0
  8 13  1  6  0  0  0
  8 12  1  0  0  0  0
  8  1  1  0  0  0  0
  9 25  1  6  0  0  0
  9  3  1  0  0  0  0
  9  2  1  0  0  0  0
 12  9  1  0  0  0  0
 13 14  1  6  0  0  0
 15 13  1  0  0  0  0
 16 17  1  6  0  0  0
 16 15  1  0  0  0  0
 17 20  1  0  0  0  0
 20 18  1  6  0  0  0
 20 19  1  0  0  0  0
 21 16  1  0  0  0  0
 23 24  2  0  0  0  0
 24 21  1  0  0  0  0
 24 22  1  0  0  0  0
 26 27  1  0  0  0  0
 26 25  1  0  0  0  0
 28 29  1  0  0  0  0
 28 27  1  0  0  0  0
 30 28  2  0  0  0  0
M  END
>  <MODEL>
2

>  <REMARK>
 VINA RESULT:      -6.4      2.484      6.362
  Name = 
  11 active torsions:
  status: ('A' for Active; 'I' for Inactive)
    1  A    between atoms: C_1  and  C_4
    2  A    between atoms: C_1  and  C_22
    3  A    between atoms: C_4  and  C_12
    4  A    between atoms: C_7  and  C_23
    5  A    between atoms: C_7  and  C_25
    6  A    between atoms: C_8  and  C_12
    7  A    between atoms: C_8  and  C_30
    8  A    between atoms: C_9  and  C_12
    9  A    between atoms: C_9  and  C_21
   10  A    between atoms: C_10  and  C_15
   11  A    between atoms: C_15  and  C_25
                            x       y       z     vdW  Elec       q    Type
                         _______ _______ _______ _____ _____    ______ ____

>  <TORSDO>
F 11

$$$$
=
 OpenBabel10262422003D

 30 31  0  0  1  0  0  0  0  0999 V2000
  189.0290  177.7550  146.7740 C   0  0  0  0  0  0  0  0  0  0  0  0
  191.4160  177.2060  145.0490 C   0  0  0  0  0  0  0  0  0  0  0  0
  191.7350  177.9640  143.7510 C   0  0  1  0  0  3  0  0  0  0  0  0
  189.3970  176.4270  146.9990 O   0  0  0  0  0  0  0  0  0  0  0  0
  189.3950  178.6510  147.5820 O   0  0  0  0  0  0  0  0  0  0  0  0
  191.7590  176.6410  146.2000 C   0  0  0  0  0  3  0  0  0  0  0  0
  190.7390  176.0380  147.0710 C   0  0  0  0  0  0  0  0  0  0  0  0
  188.3260  178.1500  145.5110 C   0  0  1  0  0  3  0  0  0  0  0  0
  190.3710  177.5750  143.9970 C   0  0  2  0  0  0  0  0  0  0  0  0
  192.0620  179.4110  144.0940 C   0  0  0  0  0  1  0  0  0  0  0  0
  191.0780  175.1320  147.8750 O   0  0  0  0  0  0  0  0  0  0  0  0
  189.3370  178.6270  144.4520 C   0  0  0  0  0  2  0  0  0  0  0  0
  187.3430  177.0850  144.9900 C   0  0  1  0  0  3  0  0  0  0  0  0
  186.1650  176.8720  145.9300 C   0  0  0  0  0  1  0  0  0  0  0  0
  186.8800  177.3240  143.5370 C   0  0  0  0  0  2  0  0  0  0  0  0
  185.9170  178.4950  143.2750 C   0  0  2  0  0  3  0  0  0  0  0  0
  184.4820  178.0510  143.0150 C   0  0  0  0  0  2  0  0  0  0  0  0
  183.2910  178.9470  145.0210 C   0  0  0  0  0  1  0  0  0  0  0  0
  182.2760  178.9240  142.8750 O   0  0  0  0  0  1  0  0  0  0  0  0
  183.4980  179.0910  143.5240 C   0  0  2  0  0  3  0  0  0  0  0  0
  186.4260  179.4390  142.1940 C   0  0  0  0  0  2  0  0  0  0  0  0
  184.8700  179.6490  140.2550 O   0  0  0  0  0  1  0  0  0  0  0  0
  186.5500  178.0870  140.2330 O   0  0  0  0  0  0  0  0  0  0  0  0
  185.9520  179.0090  140.8480 C   0  0  0  0  0  0  0  0  0  0  0  0
  189.8980  176.3660  143.1970 C   0  0  0  0  0  2  0  0  0  0  0  0
  190.4410  176.3810  141.7760 C   0  0  0  0  0  2  0  0  0  0  0  0
  189.7200  177.4170  140.9320 C   0  0  0  0  0  2  0  0  0  0  0  0
  190.2530  177.3940  139.5430 C   0  0  0  0  0  0  0  0  0  0  0  0
  191.5850  177.0770  139.3140 O   0  0  0  0  0  1  0  0  0  0  0  0
  189.5040  177.6960  138.5780 O   0  0  0  0  0  0  0  0  0  0  0  0
  1  4  1  0  0  0  0
  1  5  2  0  0  0  0
  2  6  2  0  0  0  0
  3  9  1  0  0  0  0
  3 10  1  1  0  0  0
  3  2  1  0  0  0  0
  4  7  1  0  0  0  0
  6  7  1  0  0  0  0
  7 11  2  0  0  0  0
  8 13  1  6  0  0  0
  8  1  1  0  0  0  0
  9 25  1  6  0  0  0
  9 12  1  0  0  0  0
  9  2  1  0  0  0  0
 12  8  1  0  0  0  0
 13 14  1  1  0  0  0
 15 13  1  0  0  0  0
 16 21  1  6  0  0  0
 16 15  1  0  0  0  0
 17 16  1  0  0  0  0
 17 20  1  0  0  0  0
 19 20  1  0  0  0  0
 20 18  1  1  0  0  0
 22 24  1  0  0  0  0
 23 24  2  0  0  0  0
 24 21  1  0  0  0  0
 26 25  1  0  0  0  0
 27 26  1  0  0  0  0
 28 27  1  0  0  0  0
 29 28  1  0  0  0  0
 30 28  2  0  0  0  0
M  END
>  <MODEL>
3

>  <REMARK>
 VINA RESULT:      -6.1      0.936      2.175
  Name = 
  11 active torsions:
  status: ('A' for Active; 'I' for Inactive)
    1  A    between atoms: C_1  and  C_4
    2  A    between atoms: C_1  and  C_22
    3  A    between atoms: C_4  and  C_12
    4  A    between atoms: C_7  and  C_23
    5  A    between atoms: C_7  and  C_25
    6  A    between atoms: C_8  and  C_12
    7  A    between atoms: C_8  and  C_30
    8  A    between atoms: C_9  and  C_12
    9  A    between atoms: C_9  and  C_21
   10  A    between atoms: C_10  and  C_15
   11  A    between atoms: C_15  and  C_25
                            x       y       z     vdW  Elec       q    Type
                         _______ _______ _______ _____ _____    ______ ____

>  <TORSDO>
F 11

$$$$
=
 OpenBabel10262422003D

 30 31  0  0  1  0  0  0  0  0999 V2000
  190.8050  177.0540  140.1230 C   0  0  0  0  0  0  0  0  0  0  0  0
  189.1500  177.4230  137.6520 C   0  0  0  0  0  0  0  0  0  0  0  0
  188.2550  178.6420  137.3880 C   0  0  1  0  0  3  0  0  0  0  0  0
  190.5360  175.7790  139.6190 O   0  0  0  0  0  0  0  0  0  0  0  0
  191.9110  177.6050  139.8740 O   0  0  0  0  0  0  0  0  0  0  0  0
  190.0240  176.4960  137.2770 C   0  0  0  0  0  3  0  0  0  0  0  0
  190.5400  175.5170  138.2450 C   0  0  0  0  0  0  0  0  0  0  0  0
  189.7420  177.8340  140.8360 C   0  0  1  0  0  3  0  0  0  0  0  0
  188.2520  178.0670  138.7070 C   0  0  2  0  0  0  0  0  0  0  0  0
  189.1360  179.8740  137.2270 C   0  0  0  0  0  1  0  0  0  0  0  0
  190.9640  174.4080  137.8290 O   0  0  0  0  0  0  0  0  0  0  0  0
  189.0040  178.7670  139.8590 C   0  0  0  0  0  2  0  0  0  0  0  0
  188.7990  176.9620  141.6870 C   0  0  1  0  0  3  0  0  0  0  0  0
  189.5430  175.8710  142.4450 C   0  0  0  0  0  1  0  0  0  0  0  0
  187.8700  177.7720  142.6150 C   0  0  0  0  0  2  0  0  0  0  0  0
  187.7790  177.3450  144.0890 C   0  0  2  0  0  3  0  0  0  0  0  0
  186.3510  177.3130  144.6220 C   0  0  0  0  0  2  0  0  0  0  0  0
  185.3860  178.4140  146.6470 C   0  0  0  0  0  1  0  0  0  0  0  0
  185.0720  179.3100  144.4720 O   0  0  0  0  0  1  0  0  0  0  0  0
  185.9920  178.6390  145.2740 C   0  0  2  0  0  3  0  0  0  0  0  0
  188.7060  178.1490  144.9900 C   0  0  0  0  0  2  0  0  0  0  0  0
  188.8070  176.8810  147.1360 O   0  0  0  0  0  1  0  0  0  0  0  0
  190.5680  176.8220  145.6670 O   0  0  0  0  0  0  0  0  0  0  0  0
  189.4210  177.2580  145.9480 C   0  0  0  0  0  0  0  0  0  0  0  0
  187.0290  177.2140  139.0290 C   0  0  0  0  0  2  0  0  0  0  0  0
  185.8100  177.6510  138.2300 C   0  0  0  0  0  2  0  0  0  0  0  0
  184.6360  177.9380  139.1490 C   0  0  0  0  0  2  0  0  0  0  0  0
  184.7440  179.3220  139.6860 C   0  0  0  0  0  0  0  0  0  0  0  0
  185.3190  179.5430  140.9300 O   0  0  0  0  0  1  0  0  0  0  0  0
  184.2820  180.2900  139.0270 O   0  0  0  0  0  0  0  0  0  0  0  0
  1  8  1  0  0  0  0
  2  9  1  0  0  0  0
  3 10  1  1  0  0  0
  3  2  1  0  0  0  0
  3  9  1  0  0  0  0
  4  1  1  0  0  0  0
  5  1  2  0  0  0  0
  6  2  2  0  0  0  0
  6  7  1  0  0  0  0
  7  4  1  0  0  0  0
  8 13  1  6  0  0  0
  9 25  1  1  0  0  0
  9 12  1  0  0  0  0
 11  7  2  0  0  0  0
 12  8  1  0  0  0  0
 13 14  1  1  0  0  0
 13 15  1  0  0  0  0
 16 15  1  6  0  0  0
 16 17  1  0  0  0  0
 16 21  1  0  0  0  0
 17 20  1  0  0  0  0
 19 20  1  0  0  0  0
 20 18  1  1  0  0  0
 21 24  1  0  0  0  0
 23 24  2  0  0  0  0
 24 22  1  0  0  0  0
 26 25  1  0  0  0  0
 26 27  1  0  0  0  0
 27 28  1  0  0  0  0
 28 29  1  0  0  0  0
 30 28  2  0  0  0  0
M  END
>  <MODEL>
4

>  <REMARK>
 VINA RESULT:      -5.9      1.932      6.238
  Name = 
  11 active torsions:
  status: ('A' for Active; 'I' for Inactive)
    1  A    between atoms: C_1  and  C_4
    2  A    between atoms: C_1  and  C_22
    3  A    between atoms: C_4  and  C_12
    4  A    between atoms: C_7  and  C_23
    5  A    between atoms: C_7  and  C_25
    6  A    between atoms: C_8  and  C_12
    7  A    between atoms: C_8  and  C_30
    8  A    between atoms: C_9  and  C_12
    9  A    between atoms: C_9  and  C_21
   10  A    between atoms: C_10  and  C_15
   11  A    between atoms: C_15  and  C_25
                            x       y       z     vdW  Elec       q    Type
                         _______ _______ _______ _____ _____    ______ ____

>  <TORSDO>
F 11

$$$$
=
 OpenBabel10262422003D

 30 31  0  0  1  0  0  0  0  0999 V2000
  191.3590  176.5470  142.9660 C   0  0  0  0  0  0  0  0  0  0  0  0
  189.1620  178.2280  144.1170 C   0  0  0  0  0  0  0  0  0  0  0  0
  187.6670  177.9000  143.9880 C   0  0  1  0  0  3  0  0  0  0  0  0
  191.8540  177.8490  143.0700 O   0  0  0  0  0  0  0  0  0  0  0  0
  191.6370  175.6990  143.8560 O   0  0  0  0  0  0  0  0  0  0  0  0
  190.2260  178.6420  144.7960 C   0  0  0  0  0  3  0  0  0  0  0  0
  191.5540  178.6640  144.1660 C   0  0  0  0  0  0  0  0  0  0  0  0
  190.3850  176.1830  141.8860 C   0  0  1  0  0  3  0  0  0  0  0  0
  188.5060  177.7270  142.8320 C   0  0  2  0  0  0  0  0  0  0  0  0
  187.3740  176.6240  144.7670 C   0  0  0  0  0  1  0  0  0  0  0  0
  192.4270  179.4560  144.6050 O   0  0  0  0  0  0  0  0  0  0  0  0
  188.9370  176.3110  142.3940 C   0  0  0  0  0  2  0  0  0  0  0  0
  190.6370  176.9130  140.5530 C   0  0  1  0  0  3  0  0  0  0  0  0
  191.9410  177.6980  140.5580 C   0  0  0  0  0  1  0  0  0  0  0  0
  190.5230  176.0010  139.3130 C   0  0  0  0  0  2  0  0  0  0  0  0
  189.9060  176.5980  138.0380 C   0  0  2  0  0  3  0  0  0  0  0  0
  190.8070  176.4730  136.8150 C   0  0  0  0  0  2  0  0  0  0  0  0
  193.2990  176.3790  136.9640 C   0  0  0  0  0  1  0  0  0  0  0  0
  192.0220  174.5110  136.2460 O   0  0  0  0  0  1  0  0  0  0  0  0
  192.0090  175.5950  137.1210 C   0  0  2  0  0  3  0  0  0  0  0  0
  189.4140  178.0250  138.2390 C   0  0  0  0  0  2  0  0  0  0  0  0
  187.2200  177.1730  137.4120 O   0  0  0  0  0  1  0  0  0  0  0  0
  187.7830  179.3810  137.1470 O   0  0  0  0  0  0  0  0  0  0  0  0
  188.1030  178.2350  137.5600 C   0  0  0  0  0  0  0  0  0  0  0  0
  188.3770  178.8220  141.7790 C   0  0  0  0  0  2  0  0  0  0  0  0
  187.1480  178.6220  140.9040 C   0  0  0  0  0  2  0  0  0  0  0  0
  185.8830  179.0000  141.6520 C   0  0  0  0  0  2  0  0  0  0  0  0
  184.7490  179.1170  140.6960 C   0  0  0  0  0  0  0  0  0  0  0  0
  184.9300  179.7520  139.4750 O   0  0  0  0  0  0  0  0  0  0  0  0
  183.6140  178.6700  141.0080 O   0  0  0  0  0  1  0  0  0  0  0  0
  1  4  1  0  0  0  0
  1  5  2  0  0  0  0
  2  6  2  0  0  0  0
  3  2  1  0  0  0  0
  3 10  1  1  0  0  0
  4  7  1  0  0  0  0
  7 11  2  0  0  0  0
  7  6  1  0  0  0  0
  8 13  1  6  0  0  0
  8 12  1  0  0  0  0
  8  1  1  0  0  0  0
  9 25  1  6  0  0  0
  9  3  1  0  0  0  0
  9  2  1  0  0  0  0
 12  9  1  0  0  0  0
 13 14  1  1  0  0  0
 15 13  1  0  0  0  0
 16 17  1  6  0  0  0
 16 21  1  0  0  0  0
 16 15  1  0  0  0  0
 17 20  1  0  0  0  0
 19 20  1  0  0  0  0
 20 18  1  6  0  0  0
 22 24  1  0  0  0  0
 23 24  2  0  0  0  0
 24 21  1  0  0  0  0
 26 27  1  0  0  0  0
 26 25  1  0  0  0  0
 28 30  1  0  0  0  0
 28 27  1  0  0  0  0
 29 28  2  0  0  0  0
M  END
>  <MODEL>
5

>  <REMARK>
 VINA RESULT:      -5.7      2.473      6.204
  Name = 
  11 active torsions:
  status: ('A' for Active; 'I' for Inactive)
    1  A    between atoms: C_1  and  C_4
    2  A    between atoms: C_1  and  C_22
    3  A    between atoms: C_4  and  C_12
    4  A    between atoms: C_7  and  C_23
    5  A    between atoms: C_7  and  C_25
    6  A    between atoms: C_8  and  C_12
    7  A    between atoms: C_8  and  C_30
    8  A    between atoms: C_9  and  C_12
    9  A    between atoms: C_9  and  C_21
   10  A    between atoms: C_10  and  C_15
   11  A    between atoms: C_15  and  C_25
                            x       y       z     vdW  Elec       q    Type
                         _______ _______ _______ _____ _____    ______ ____

>  <TORSDO>
F 11

$$$$
=
 OpenBabel10262422003D

 30 31  0  0  1  0  0  0  0  0999 V2000
  181.5140  178.5500  140.9590 C   0  0  0  0  0  0  0  0  0  0  0  0
  182.6430  178.6920  138.1870 C   0  0  0  0  0  0  0  0  0  0  0  0
  183.5140  177.5970  137.5530 C   0  0  1  0  0  3  0  0  0  0  0  0
  181.6220  179.9030  140.6320 O   0  0  0  0  0  0  0  0  0  0  0  0
  180.4040  177.9650  140.8410 O   0  0  0  0  0  0  0  0  0  0  0  0
  181.6740  179.5990  138.1490 C   0  0  0  0  0  3  0  0  0  0  0  0
  181.3280  180.3750  139.3490 C   0  0  0  0  0  0  0  0  0  0  0  0
  182.7310  177.7480  141.3110 C   0  0  1  0  0  3  0  0  0  0  0  0
  183.7620  177.9590  138.9240 C   0  0  2  0  0  0  0  0  0  0  0  0
  182.6690  176.3440  137.3630 C   0  0  0  0  0  1  0  0  0  0  0  0
  180.7830  181.5010  139.2150 O   0  0  0  0  0  0  0  0  0  0  0  0
  183.2910  177.0350  140.0660 C   0  0  0  0  0  2  0  0  0  0  0  0
  183.7910  178.5440  142.0950 C   0  0  1  0  0  3  0  0  0  0  0  0
  183.2110  179.2300  143.3230 C   0  0  0  0  0  1  0  0  0  0  0  0
  185.0540  177.7260  142.4380 C   0  0  0  0  0  2  0  0  0  0  0  0
  185.9490  178.2360  143.5800 C   0  0  2  0  0  3  0  0  0  0  0  0
  187.4390  178.1180  143.2790 C   0  0  0  0  0  2  0  0  0  0  0  0
  189.4340  177.2040  144.4760 C   0  0  0  0  0  1  0  0  0  0  0  0
  188.0860  175.8400  143.0770 O   0  0  0  0  0  1  0  0  0  0  0  0
  188.0330  176.9030  143.9750 C   0  0  2  0  0  3  0  0  0  0  0  0
  185.5900  177.6210  144.9260 C   0  0  0  0  0  2  0  0  0  0  0  0
  186.9050  178.3640  146.9110 O   0  0  0  0  0  1  0  0  0  0  0  0
  185.1310  179.6100  146.1610 O   0  0  0  0  0  0  0  0  0  0  0  0
  185.8500  178.5830  146.0350 C   0  0  0  0  0  0  0  0  0  0  0  0
  184.9900  178.8380  139.1390 C   0  0  0  0  0  2  0  0  0  0  0  0
  186.2320  178.2430  138.4910 C   0  0  0  0  0  2  0  0  0  0  0  0
  187.3910  178.2110  139.4700 C   0  0  0  0  0  2  0  0  0  0  0  0
  188.6590  178.5260  138.7590 C   0  0  0  0  0  0  0  0  0  0  0  0
  188.6600  179.4260  137.7020 O   0  0  0  0  0  0  0  0  0  0  0  0
  189.7270  177.9490  139.0930 O   0  0  0  0  0  1  0  0  0  0  0  0
  1  8  1  0  0  0  0
  2  9  1  0  0  0  0
  3 10  1  1  0  0  0
  3  2  1  0  0  0  0
  3  9  1  0  0  0  0
  4  1  1  0  0  0  0
  5  1  2  0  0  0  0
  6  2  2  0  0  0  0
  6  7  1  0  0  0  0
  7  4  1  0  0  0  0
  8 13  1  6  0  0  0
  9 25  1  1  0  0  0
  9 12  1  0  0  0  0
 11  7  2  0  0  0  0
 12  8  1  0  0  0  0
 13 15  1  0  0  0  0
 13 14  1  1  0  0  0
 16 15  1  6  0  0  0
 16 21  1  0  0  0  0
 17 16  1  0  0  0  0
 17 20  1  0  0  0  0
 19 20  1  0  0  0  0
 20 18  1  6  0  0  0
 21 24  1  0  0  0  0
 24 23  2  0  0  0  0
 24 22  1  0  0  0  0
 26 25  1  0  0  0  0
 26 27  1  0  0  0  0
 28 30  1  0  0  0  0
 28 27  1  0  0  0  0
 29 28  2  0  0  0  0
M  END
>  <MODEL>
6

>  <REMARK>
 VINA RESULT:      -5.5      2.521      7.635
  Name = 
  11 active torsions:
  status: ('A' for Active; 'I' for Inactive)
    1  A    between atoms: C_1  and  C_4
    2  A    between atoms: C_1  and  C_22
    3  A    between atoms: C_4  and  C_12
    4  A    between atoms: C_7  and  C_23
    5  A    between atoms: C_7  and  C_25
    6  A    between atoms: C_8  and  C_12
    7  A    between atoms: C_8  and  C_30
    8  A    between atoms: C_9  and  C_12
    9  A    between atoms: C_9  and  C_21
   10  A    between atoms: C_10  and  C_15
   11  A    between atoms: C_15  and  C_25
                            x       y       z     vdW  Elec       q    Type
                         _______ _______ _______ _____ _____    ______ ____

>  <TORSDO>
F 11

$$$$
=
 OpenBabel10262422003D

 30 31  0  0  1  0  0  0  0  0999 V2000
  191.1120  176.4610  138.1370 C   0  0  0  0  0  0  0  0  0  0  0  0
  188.9090  175.9370  136.1750 C   0  0  0  0  0  0  0  0  0  0  0  0
  187.9760  177.0220  135.6160 C   0  0  1  0  0  3  0  0  0  0  0  0
  190.7290  175.1270  138.3010 O   0  0  0  0  0  0  0  0  0  0  0  0
  192.1250  176.7390  137.4410 O   0  0  0  0  0  0  0  0  0  0  0  0
  189.6660  174.8530  136.0530 C   0  0  0  0  0  3  0  0  0  0  0  0
  190.4000  174.3180  137.2090 C   0  0  0  0  0  0  0  0  0  0  0  0
  190.2530  177.5730  138.6600 C   0  0  1  0  0  3  0  0  0  0  0  0
  188.2930  177.0510  137.0190 C   0  0  2  0  0  0  0  0  0  0  0  0
  188.7920  177.9750  134.7530 C   0  0  0  0  0  1  0  0  0  0  0  0
  190.7100  173.0990  137.2280 O   0  0  0  0  0  0  0  0  0  0  0  0
  189.3010  178.0850  137.5640 C   0  0  0  0  0  2  0  0  0  0  0  0
  189.5450  177.2380  139.9850 C   0  0  1  0  0  3  0  0  0  0  0  0
  190.5110  176.7390  141.0510 C   0  0  0  0  0  1  0  0  0  0  0  0
  188.6450  178.3740  140.5150 C   0  0  0  0  0  2  0  0  0  0  0  0
  187.7210  178.0620  141.7040 C   0  0  2  0  0  3  0  0  0  0  0  0
  186.4180  178.8530  141.6810 C   0  0  0  0  0  2  0  0  0  0  0  0
  184.0330  178.2400  142.1060 C   0  0  0  0  0  1  0  0  0  0  0  0
  185.4230  179.1060  143.8240 O   0  0  0  0  0  1  0  0  0  0  0  0
  185.4320  178.2930  142.6930 C   0  0  2  0  0  3  0  0  0  0  0  0
  188.4340  178.1780  143.0450 C   0  0  0  0  0  2  0  0  0  0  0  0
  188.9790  176.7760  145.0340 O   0  0  0  0  0  1  0  0  0  0  0  0
  187.9210  175.8550  143.2190 O   0  0  0  0  0  0  0  0  0  0  0  0
  188.4370  176.8700  143.7590 C   0  0  0  0  0  0  0  0  0  0  0  0
  187.1840  176.5430  137.9350 C   0  0  0  0  0  2  0  0  0  0  0  0
  185.8350  177.1530  137.5810 C   0  0  0  0  0  2  0  0  0  0  0  0
  185.7770  178.6130  137.9910 C   0  0  0  0  0  2  0  0  0  0  0  0
  184.4460  178.9170  138.5810 C   0  0  0  0  0  0  0  0  0  0  0  0
  184.1860  180.1780  139.1010 O   0  0  0  0  0  1  0  0  0  0  0  0
  183.5650  178.0200  138.6410 O   0  0  0  0  0  0  0  0  0  0  0  0
  1  4  1  0  0  0  0
  1  8  1  0  0  0  0
  2  9  1  0  0  0  0
  3 10  1  6  0  0  0
  3  2  1  0  0  0  0
  3  9  1  0  0  0  0
  5  1  2  0  0  0  0
  6  2  2  0  0  0  0
  6  7  1  0  0  0  0
  7 11  2  0  0  0  0
  7  4  1  0  0  0  0
  8 13  1  1  0  0  0
  9 12  1  0  0  0  0
  9 25  1  1  0  0  0
 12  8  1  0  0  0  0
 13 15  1  0  0  0  0
 13 14  1  1  0  0  0
 16 15  1  6  0  0  0
 16 21  1  0  0  0  0
 17 16  1  0  0  0  0
 17 20  1  0  0  0  0
 20 18  1  6  0  0  0
 20 19  1  0  0  0  0
 21 24  1  0  0  0  0
 23 24  2  0  0  0  0
 24 22  1  0  0  0  0
 26 25  1  0  0  0  0
 26 27  1  0  0  0  0
 27 28  1  0  0  0  0
 28 30  2  0  0  0  0
 28 29  1  0  0  0  0
M  END
>  <MODEL>
7

>  <REMARK>
 VINA RESULT:      -5.4      2.792      7.042
  Name = 
  11 active torsions:
  status: ('A' for Active; 'I' for Inactive)
    1  A    between atoms: C_1  and  C_4
    2  A    between atoms: C_1  and  C_22
    3  A    between atoms: C_4  and  C_12
    4  A    between atoms: C_7  and  C_23
    5  A    between atoms: C_7  and  C_25
    6  A    between atoms: C_8  and  C_12
    7  A    between atoms: C_8  and  C_30
    8  A    between atoms: C_9  and  C_12
    9  A    between atoms: C_9  and  C_21
   10  A    between atoms: C_10  and  C_15
   11  A    between atoms: C_15  and  C_25
                            x       y       z     vdW  Elec       q    Type
                         _______ _______ _______ _____ _____    ______ ____

>  <TORSDO>
F 11

$$$$
=
 OpenBabel10262422003D

 30 31  0  0  1  0  0  0  0  0999 V2000
  182.1190  177.2540  137.7610 C   0  0  0  0  0  0  0  0  0  0  0  0
  181.1430  177.9090  140.5170 C   0  0  0  0  0  0  0  0  0  0  0  0
  181.3050  179.2820  141.1860 C   0  0  1  0  0  3  0  0  0  0  0  0
  182.0730  176.0530  138.4730 O   0  0  0  0  0  0  0  0  0  0  0  0
  181.1730  177.5590  136.9860 O   0  0  0  0  0  0  0  0  0  0  0  0
  180.4530  176.8140  140.2210 C   0  0  0  0  0  3  0  0  0  0  0  0
  181.0360  175.7690  139.3680 C   0  0  0  0  0  0  0  0  0  0  0  0
  183.2100  178.2510  138.0130 C   0  0  1  0  0  3  0  0  0  0  0  0
  182.4200  178.7460  140.4500 C   0  0  2  0  0  0  0  0  0  0  0  0
  180.4650  180.3010  140.4270 C   0  0  0  0  0  1  0  0  0  0  0  0
  180.6140  174.5880  139.4690 O   0  0  0  0  0  0  0  0  0  0  0  0
  182.7600  179.2970  139.0490 C   0  0  0  0  0  2  0  0  0  0  0  0
  184.5730  177.6100  138.3350 C   0  0  1  0  0  3  0  0  0  0  0  0
  185.0110  176.6140  137.2710 C   0  0  0  0  0  1  0  0  0  0  0  0
  185.6820  178.6350  138.6520 C   0  0  0  0  0  2  0  0  0  0  0  0
  187.0610  178.0930  139.0670 C   0  0  2  0  0  3  0  0  0  0  0  0
  187.4990  178.5530  140.4520 C   0  0  0  0  0  2  0  0  0  0  0  0
  187.9500  177.3110  142.5730 C   0  0  0  0  0  1  0  0  0  0  0  0
  189.6950  177.8870  141.0710 O   0  0  0  0  0  1  0  0  0  0  0  0
  188.3590  177.4940  141.1230 C   0  0  2  0  0  3  0  0  0  0  0  0
  188.1320  178.3500  138.0160 C   0  0  0  0  0  2  0  0  0  0  0  0
  190.2860  177.1590  137.6110 O   0  0  0  0  0  0  0  0  0  0  0  0
  188.3040  176.0050  137.6210 O   0  0  0  0  0  1  0  0  0  0  0  0
  188.9030  177.1070  137.7280 C   0  0  0  0  0  0  0  0  0  0  0  0
  183.5380  178.1720  141.3140 C   0  0  0  0  0  2  0  0  0  0  0  0
  183.4240  178.6280  142.7610 C   0  0  0  0  0  2  0  0  0  0  0  0
  184.7210  178.3790  143.5110 C   0  0  0  0  0  2  0  0  0  0  0  0
  184.5790  178.8240  144.9230 C   0  0  0  0  0  0  0  0  0  0  0  0
  185.7060  179.0020  145.7140 O   0  0  0  0  0  1  0  0  0  0  0  0
  183.4340  179.0060  145.4130 O   0  0  0  0  0  0  0  0  0  0  0  0
  1  8  1  0  0  0  0
  1  4  1  0  0  0  0
  2  3  1  0  0  0  0
  3 10  1  6  0  0  0
  4  7  1  0  0  0  0
  5  1  2  0  0  0  0
  6  2  2  0  0  0  0
  7 11  2  0  0  0  0
  7  6  1  0  0  0  0
  8 13  1  1  0  0  0
  8 12  1  0  0  0  0
  9  2  1  0  0  0  0
  9  3  1  0  0  0  0
  9 25  1  1  0  0  0
 12  9  1  0  0  0  0
 13 14  1  6  0  0  0
 13 15  1  0  0  0  0
 15 16  1  0  0  0  0
 16 21  1  6  0  0  0
 16 17  1  0  0  0  0
 17 20  1  0  0  0  0
 19 20  1  0  0  0  0
 20 18  1  1  0  0  0
 22 24  2  0  0  0  0
 23 24  1  0  0  0  0
 24 21  1  0  0  0  0
 25 26  1  0  0  0  0
 26 27  1  0  0  0  0
 27 28  1  0  0  0  0
 28 30  2  0  0  0  0
 28 29  1  0  0  0  0
M  END
>  <MODEL>
8

>  <REMARK>
 VINA RESULT:      -5.2      3.239      9.078
  Name = 
  11 active torsions:
  status: ('A' for Active; 'I' for Inactive)
    1  A    between atoms: C_1  and  C_4
    2  A    between atoms: C_1  and  C_22
    3  A    between atoms: C_4  and  C_12
    4  A    between atoms: C_7  and  C_23
    5  A    between atoms: C_7  and  C_25
    6  A    between atoms: C_8  and  C_12
    7  A    between atoms: C_8  and  C_30
    8  A    between atoms: C_9  and  C_12
    9  A    between atoms: C_9  and  C_21
   10  A    between atoms: C_10  and  C_15
   11  A    between atoms: C_15  and  C_25
                            x       y       z     vdW  Elec       q    Type
                         _______ _______ _______ _____ _____    ______ ____

>  <TORSDO>
F 11

$$$$
=
 OpenBabel10262422003D

 30 31  0  0  1  0  0  0  0  0999 V2000
  190.9840  177.1760  140.2470 C   0  0  0  0  0  0  0  0  0  0  0  0
  189.4990  177.3320  137.6500 C   0  0  0  0  0  0  0  0  0  0  0  0
  188.4700  178.4200  137.3090 C   0  0  1  0  0  3  0  0  0  0  0  0
  190.9330  175.8800  139.7290 O   0  0  0  0  0  0  0  0  0  0  0  0
  192.0200  177.8740  140.0860 O   0  0  0  0  0  0  0  0  0  0  0  0
  190.5190  176.5360  137.3500 C   0  0  0  0  0  3  0  0  0  0  0  0
  191.0830  175.6300  138.3610 C   0  0  0  0  0  0  0  0  0  0  0  0
  189.7700  177.7990  140.8690 C   0  0  1  0  0  3  0  0  0  0  0  0
  188.4390  177.8410  138.6250 C   0  0  2  0  0  0  0  0  0  0  0  0
  189.1850  179.7620  137.2130 C   0  0  0  0  0  1  0  0  0  0  0  0
  191.6860  174.5920  137.9850 O   0  0  0  0  0  0  0  0  0  0  0  0
  188.9930  178.6290  139.8310 C   0  0  0  0  0  2  0  0  0  0  0  0
  188.8890  176.8010  141.6440 C   0  0  1  0  0  3  0  0  0  0  0  0
  189.7110  175.8280  142.4780 C   0  0  0  0  0  1  0  0  0  0  0  0
  187.7750  177.4700  142.4760 C   0  0  0  0  0  2  0  0  0  0  0  0
  187.8020  177.2700  144.0010 C   0  0  2  0  0  3  0  0  0  0  0  0
  186.4130  177.2370  144.6300 C   0  0  0  0  0  2  0  0  0  0  0  0
  185.6790  178.4680  146.6770 C   0  0  0  0  0  1  0  0  0  0  0  0
  184.9760  179.1250  144.5080 O   0  0  0  0  0  1  0  0  0  0  0  0
  186.0540  178.5950  145.2120 C   0  0  2  0  0  3  0  0  0  0  0  0
  188.7220  178.2580  144.7050 C   0  0  0  0  0  2  0  0  0  0  0  0
  190.8870  177.2850  145.4720 O   0  0  0  0  0  0  0  0  0  0  0  0
  189.0540  177.2730  146.8510 O   0  0  0  0  0  1  0  0  0  0  0  0
  189.5530  177.5690  145.7340 C   0  0  0  0  0  0  0  0  0  0  0  0
  187.3220  176.8270  138.8510 C   0  0  0  0  0  2  0  0  0  0  0  0
  186.6240  176.4570  137.5500 C   0  0  0  0  0  2  0  0  0  0  0  0
  186.8590  174.9970  137.2070 C   0  0  0  0  0  2  0  0  0  0  0  0
  185.5650  174.2620  137.2240 C   0  0  0  0  0  0  0  0  0  0  0  0
  185.4930  172.9930  137.7820 O   0  0  0  0  0  1  0  0  0  0  0  0
  184.5420  174.7770  136.7020 O   0  0  0  0  0  0  0  0  0  0  0  0
  1  8  1  0  0  0  0
  2  9  1  0  0  0  0
  3 10  1  1  0  0  0
  3  2  1  0  0  0  0
  3  9  1  0  0  0  0
  4  1  1  0  0  0  0
  5  1  2  0  0  0  0
  6  2  2  0  0  0  0
  6  7  1  0  0  0  0
  7  4  1  0  0  0  0
  8 13  1  6  0  0  0
  9 25  1  1  0  0  0
  9 12  1  0  0  0  0
 11  7  2  0  0  0  0
 12  8  1  0  0  0  0
 13 15  1  0  0  0  0
 13 14  1  1  0  0  0
 16 15  1  6  0  0  0
 16 17  1  0  0  0  0
 16 21  1  0  0  0  0
 17 20  1  0  0  0  0
 19 20  1  0  0  0  0
 20 18  1  1  0  0  0
 21 24  1  0  0  0  0
 22 24  2  0  0  0  0
 24 23  1  0  0  0  0
 26 25  1  0  0  0  0
 27 28  1  0  0  0  0
 27 26  1  0  0  0  0
 28 29  1  0  0  0  0
 30 28  2  0  0  0  0
M  END
>  <MODEL>
9

>  <REMARK>
 VINA RESULT:      -5.0      2.751      6.245
  Name = 
  11 active torsions:
  status: ('A' for Active; 'I' for Inactive)
    1  A    between atoms: C_1  and  C_4
    2  A    between atoms: C_1  and  C_22
    3  A    between atoms: C_4  and  C_12
    4  A    between atoms: C_7  and  C_23
    5  A    between atoms: C_7  and  C_25
    6  A    between atoms: C_8  and  C_12
    7  A    between atoms: C_8  and  C_30
    8  A    between atoms: C_9  and  C_12
    9  A    between atoms: C_9  and  C_21
   10  A    between atoms: C_10  and  C_15
   11  A    between atoms: C_15  and  C_25
                            x       y       z     vdW  Elec       q    Type
                         _______ _______ _______ _____ _____    ______ ____

>  <TORSDO>
F 11

$$$$
