=
 OpenBabel10252414543D

 34 38  0  0  1  0  0  0  0  0999 V2000
  189.8870  176.8410  141.7420 C   0  0  1  0  0  0  0  0  0  0  0  0
  187.7580  178.0990  140.5100 S   0  0  0  0  0  0  0  0  0  0  0  0
  188.7150  176.7690  142.7050 C   0  0  0  0  0  2  0  0  0  0  0  0
  190.5650  175.6210  141.7380 O   0  0  0  0  0  1  0  0  0  0  0  0
  187.7250  177.8560  142.3170 C   0  0  2  0  0  3  0  0  0  0  0  0
  189.2650  177.0780  140.3690 C   0  0  1  0  0  3  0  0  0  0  0  0
  190.9170  175.4720  137.7480 C   0  0  0  0  0  0  0  0  0  0  0  0
  192.6470  176.6200  139.0590 C   0  0  0  0  0  0  0  0  0  0  0  0
  190.2370  177.4450  139.2350 C   0  0  1  0  0  3  0  0  0  0  0  0
  193.2530  174.7290  137.6090 C   0  0  0  0  0  3  0  0  0  0  0  0
  193.6340  175.7830  138.3460 C   0  0  0  0  0  3  0  0  0  0  0  0
  191.1860  176.2600  138.9990 C   0  0  1  0  0  3  0  0  0  0  0  0
  191.8080  174.3030  137.4890 C   0  0  0  0  0  2  0  0  0  0  0  0
  189.5540  177.9520  137.9800 C   0  0  0  0  0  0  0  0  0  0  0  0
  190.1590  175.9600  136.7700 C   0  0  0  0  0  3  0  0  0  0  0  0
  193.0440  177.5850  139.7650 O   0  0  0  0  0  0  0  0  0  0  0  0
  188.9130  179.2280  138.0110 N   0  0  0  0  0  2  0  0  0  0  0  0
  189.5000  177.2240  136.9020 N   0  0  0  0  0  0  0  0  0  0  0  0
  188.2090  179.7810  136.8650 C   0  0  0  0  0  2  0  0  0  0  0  0
  186.8950  179.3190  136.8620 O   0  0  0  0  0  1  0  0  0  0  0  0
  186.3210  177.5510  142.8280 C   0  0  0  0  0  2  0  0  0  0  0  0
  185.9110  178.4720  143.9770 C   0  0  0  0  0  2  0  0  0  0  0  0
  184.1340  178.9850  146.2830 O   0  0  0  0  0  0  0  0  0  0  0  0
  185.9780  177.7730  145.3320 C   0  0  2  0  0  3  0  0  0  0  0  0
  185.3150  178.5750  146.4290 C   0  0  0  0  0  0  0  0  0  0  0  0
  187.2730  178.4150  147.8690 C   0  0  0  0  0  3  0  0  0  0  0  0
  187.9750  177.6480  146.8270 C   0  0  0  0  0  3  0  0  0  0  0  0
  187.3910  177.3570  145.6610 C   0  0  0  0  0  3  0  0  0  0  0  0
  186.0270  178.8530  147.6850 C   0  0  0  0  0  3  0  0  0  0  0  0
  190.8450  177.9690  142.1400 C   0  0  0  0  0  2  0  0  0  0  0  0
  191.3760  178.2080  144.6120 C   0  0  1  0  0  3  0  0  0  0  0  0
  191.7510  177.5790  143.3090 C   0  0  2  0  0  3  0  0  0  0  0  0
  192.3970  178.7300  143.7980 O   0  0  0  0  0  0  0  0  0  0  0  0
  190.2460  179.0260  144.5190 O   0  0  0  0  0  1  0  0  0  0  0  0
  1  4  1  1  0  0  0
  1 30  1  0  0  0  0
  1  3  1  0  0  0  0
  2  5  1  0  0  0  0
  5  3  1  0  0  0  0
  5 21  1  6  0  0  0
  6  2  1  1  0  0  0
  6  1  1  0  0  0  0
  8 16  2  0  0  0  0
  9 14  1  6  0  0  0
  9  6  1  0  0  0  0
 10 11  2  0  0  0  0
 11  8  1  0  0  0  0
 12  7  1  6  0  0  0
 12  8  1  0  0  0  0
 12  9  1  0  0  0  0
 13 10  1  0  0  0  0
 13  7  1  0  0  0  0
 14 17  1  0  0  0  0
 15 18  1  0  0  0  0
 15  7  2  0  0  0  0
 18 14  2  0  0  0  0
 19 17  1  0  0  0  0
 20 19  1  0  0  0  0
 21 22  1  0  0  0  0
 23 25  2  0  0  0  0
 24 22  1  6  0  0  0
 24 28  1  0  0  0  0
 24 25  1  0  0  0  0
 25 29  1  0  0  0  0
 27 26  1  0  0  0  0
 28 27  2  0  0  0  0
 29 26  2  0  0  0  0
 31 34  1  6  0  0  0
 32 30  1  6  0  0  0
 32 33  1  0  0  0  0
 32 31  1  0  0  0  0
 33 31  1  0  0  0  0
M  END
>  <MODEL>
1

>  <REMARK>
 VINA RESULT:      -7.9      0.000      0.000
  Name = 
  7 active torsions:
  status: ('A' for Active; 'I' for Inactive)
    1  A    between atoms: C_3  and  C_13
    2  A    between atoms: C_3  and  C_17
    3  A    between atoms: C_4  and  C_31
    4  A    between atoms: C_5  and  C_27
    5  A    between atoms: C_8  and  C_27
    6  A    between atoms: C_12  and  N_28
    7  A    between atoms: C_17  and  C_29
                            x       y       z     vdW  Elec       q    Type
                         _______ _______ _______ _____ _____    ______ ____

>  <TORSDO>
F 7

$$$$
=
 OpenBabel10252414543D

 34 38  0  0  1  0  0  0  0  0999 V2000
  189.8990  176.8190  141.8790 C   0  0  1  0  0  0  0  0  0  0  0  0
  187.7300  178.0060  140.6450 S   0  0  0  0  0  0  0  0  0  0  0  0
  188.7250  176.6920  142.8330 C   0  0  0  0  0  2  0  0  0  0  0  0
  190.6240  175.6260  141.8670 O   0  0  0  0  0  1  0  0  0  0  0  0
  187.6960  177.7430  142.4500 C   0  0  2  0  0  3  0  0  0  0  0  0
  189.2760  177.0450  140.5040 C   0  0  1  0  0  3  0  0  0  0  0  0
  190.9880  175.5340  137.8640 C   0  0  0  0  0  0  0  0  0  0  0  0
  192.6760  176.7160  139.2000 C   0  0  0  0  0  0  0  0  0  0  0  0
  190.2400  177.4610  139.3790 C   0  0  1  0  0  3  0  0  0  0  0  0
  193.3460  174.8680  137.7230 C   0  0  0  0  0  3  0  0  0  0  0  0
  193.6910  175.9220  138.4780 C   0  0  0  0  0  3  0  0  0  0  0  0
  191.2270  176.3110  139.1280 C   0  0  1  0  0  3  0  0  0  0  0  0
  191.9160  174.3990  137.5910 C   0  0  0  0  0  2  0  0  0  0  0  0
  189.5460  177.9660  138.1310 C   0  0  0  0  0  0  0  0  0  0  0  0
  190.2180  176.0140  136.8910 C   0  0  0  0  0  3  0  0  0  0  0  0
  193.0400  177.6810  139.9230 O   0  0  0  0  0  0  0  0  0  0  0  0
  188.8640  179.2210  138.1790 N   0  0  0  0  0  2  0  0  0  0  0  0
  189.5190  177.2550  137.0410 N   0  0  0  0  0  0  0  0  0  0  0  0
  188.1470  179.7690  137.0390 C   0  0  0  0  0  2  0  0  0  0  0  0
  186.8530  179.2560  137.0160 O   0  0  0  0  0  1  0  0  0  0  0  0
  186.3010  177.3790  142.9490 C   0  0  0  0  0  2  0  0  0  0  0  0
  185.8590  178.2560  144.1200 C   0  0  0  0  0  2  0  0  0  0  0  0
  183.7020  179.1300  145.9430 O   0  0  0  0  0  0  0  0  0  0  0  0
  184.6910  179.1680  143.7530 C   0  0  2  0  0  3  0  0  0  0  0  0
  183.5230  179.0210  144.7020 C   0  0  0  0  0  0  0  0  0  0  0  0
  181.9510  178.6790  142.8730 C   0  0  0  0  0  3  0  0  0  0  0  0
  183.0550  178.7930  141.9050 C   0  0  0  0  0  3  0  0  0  0  0  0
  184.3120  179.0090  142.3010 C   0  0  0  0  0  3  0  0  0  0  0  0
  182.1670  178.7830  144.1840 C   0  0  0  0  0  3  0  0  0  0  0  0
  190.8100  177.9790  142.2930 C   0  0  0  0  0  2  0  0  0  0  0  0
  191.3420  178.0470  144.7760 C   0  0  1  0  0  3  0  0  0  0  0  0
  191.7710  177.5920  143.4190 C   0  0  2  0  0  3  0  0  0  0  0  0
  192.2840  178.7610  144.0120 O   0  0  0  0  0  0  0  0  0  0  0  0
  190.1230  178.7310  144.7630 O   0  0  0  0  0  1  0  0  0  0  0  0
  1  4  1  6  0  0  0
  1 30  1  0  0  0  0
  1  3  1  0  0  0  0
  2  5  1  0  0  0  0
  5  3  1  0  0  0  0
  5 21  1  6  0  0  0
  6  2  1  1  0  0  0
  6  1  1  0  0  0  0
  8 16  2  0  0  0  0
  9 14  1  6  0  0  0
  9  6  1  0  0  0  0
 10 11  2  0  0  0  0
 11  8  1  0  0  0  0
 12  7  1  6  0  0  0
 12  8  1  0  0  0  0
 12  9  1  0  0  0  0
 13 10  1  0  0  0  0
 13  7  1  0  0  0  0
 14 17  1  0  0  0  0
 15 18  1  0  0  0  0
 15  7  2  0  0  0  0
 18 14  2  0  0  0  0
 19 17  1  0  0  0  0
 20 19  1  0  0  0  0
 21 22  1  0  0  0  0
 24 22  1  1  0  0  0
 24 25  1  0  0  0  0
 25 23  2  0  0  0  0
 26 29  2  0  0  0  0
 27 28  2  0  0  0  0
 27 26  1  0  0  0  0
 28 24  1  0  0  0  0
 29 25  1  0  0  0  0
 31 34  1  6  0  0  0
 32 30  1  6  0  0  0
 32 33  1  0  0  0  0
 32 31  1  0  0  0  0
 33 31  1  0  0  0  0
M  END
>  <MODEL>
2

>  <REMARK>
 VINA RESULT:      -7.7      1.318      2.220
  Name = 
  7 active torsions:
  status: ('A' for Active; 'I' for Inactive)
    1  A    between atoms: C_3  and  C_13
    2  A    between atoms: C_3  and  C_17
    3  A    between atoms: C_4  and  C_31
    4  A    between atoms: C_5  and  C_27
    5  A    between atoms: C_8  and  C_27
    6  A    between atoms: C_12  and  N_28
    7  A    between atoms: C_17  and  C_29
                            x       y       z     vdW  Elec       q    Type
                         _______ _______ _______ _____ _____    ______ ____

>  <TORSDO>
F 7

$$$$
=
 OpenBabel10252414543D

 34 38  0  0  1  0  0  0  0  0999 V2000
  191.1440  175.3980  137.7200 C   0  0  1  0  0  0  0  0  0  0  0  0
  189.2110  176.9480  138.9410 S   0  0  0  0  0  0  0  0  0  0  0  0
  191.7430  175.9060  139.0200 C   0  0  0  0  0  2  0  0  0  0  0  0
  191.4930  174.0590  137.5370 O   0  0  0  0  0  1  0  0  0  0  0  0
  190.9530  177.1320  139.4490 C   0  0  2  0  0  3  0  0  0  0  0  0
  189.6330  175.5060  137.9030 C   0  0  1  0  0  3  0  0  0  0  0  0
  186.6700  173.8860  137.0240 C   0  0  0  0  0  0  0  0  0  0  0  0
  188.4010  173.0430  135.5000 C   0  0  0  0  0  0  0  0  0  0  0  0
  188.7770  175.2950  136.6430 C   0  0  1  0  0  3  0  0  0  0  0  0
  186.3570  171.7320  135.8880 C   0  0  0  0  0  3  0  0  0  0  0  0
  187.4620  171.9520  135.1610 C   0  0  0  0  0  3  0  0  0  0  0  0
  188.1400  173.8980  136.7110 C   0  0  1  0  0  3  0  0  0  0  0  0
  186.0160  172.5470  137.1140 C   0  0  0  0  0  2  0  0  0  0  0  0
  187.7900  176.4140  136.3760 C   0  0  0  0  0  0  0  0  0  0  0  0
  185.9270  174.9830  136.9070 C   0  0  0  0  0  3  0  0  0  0  0  0
  189.4440  173.2020  134.8110 O   0  0  0  0  0  0  0  0  0  0  0  0
  188.2870  177.6920  135.9740 N   0  0  0  0  0  2  0  0  0  0  0  0
  186.5120  176.2420  136.5570 N   0  0  0  0  0  0  0  0  0  0  0  0
  187.4170  178.8290  135.7250 C   0  0  0  0  0  2  0  0  0  0  0  0
  187.3810  179.6410  136.8570 O   0  0  0  0  0  1  0  0  0  0  0  0
  191.0870  177.3980  140.9440 C   0  0  0  0  0  2  0  0  0  0  0  0
  189.7640  177.2140  141.6860 C   0  0  0  0  0  2  0  0  0  0  0  0
  187.6080  176.5410  143.5950 O   0  0  0  0  0  0  0  0  0  0  0  0
  189.9290  176.4240  142.9810 C   0  0  2  0  0  3  0  0  0  0  0  0
  188.8050  176.6780  143.9600 C   0  0  0  0  0  0  0  0  0  0  0  0
  190.3580  177.1870  145.7670 C   0  0  0  0  0  3  0  0  0  0  0  0
  191.4910  176.9730  144.8510 C   0  0  0  0  0  3  0  0  0  0  0  0
  191.3020  176.6310  143.5730 C   0  0  0  0  0  3  0  0  0  0  0  0
  189.0980  177.0520  145.3520 C   0  0  0  0  0  3  0  0  0  0  0  0
  191.6390  176.2320  136.5340 C   0  0  0  0  0  2  0  0  0  0  0  0
  193.9310  175.7400  135.5570 C   0  0  1  0  0  3  0  0  0  0  0  0
  192.4740  175.4100  135.5500 C   0  0  2  0  0  3  0  0  0  0  0  0
  193.0500  176.2720  134.5980 O   0  0  0  0  0  0  0  0  0  0  0  0
  194.2620  176.7340  136.4830 O   0  0  0  0  0  1  0  0  0  0  0  0
  1  4  1  6  0  0  0
  1  6  1  0  0  0  0
  1  3  1  0  0  0  0
  2  5  1  0  0  0  0
  3  5  1  0  0  0  0
  5 21  1  1  0  0  0
  6  2  1  6  0  0  0
  7 13  1  0  0  0  0
  9 14  1  1  0  0  0
  9 12  1  0  0  0  0
  9  6  1  0  0  0  0
 10 13  1  0  0  0  0
 11  8  1  0  0  0  0
 11 10  2  0  0  0  0
 12  8  1  6  0  0  0
 12  7  1  0  0  0  0
 14 18  2  0  0  0  0
 15  7  2  0  0  0  0
 16  8  2  0  0  0  0
 17 14  1  0  0  0  0
 18 15  1  0  0  0  0
 19 17  1  0  0  0  0
 19 20  1  0  0  0  0
 21 22  1  0  0  0  0
 23 25  2  0  0  0  0
 24 22  1  6  0  0  0
 24 28  1  0  0  0  0
 24 25  1  0  0  0  0
 25 29  1  0  0  0  0
 27 26  1  0  0  0  0
 28 27  2  0  0  0  0
 29 26  2  0  0  0  0
 30  1  1  0  0  0  0
 31 34  1  1  0  0  0
 32 31  1  0  0  0  0
 32 30  1  1  0  0  0
 33 32  1  0  0  0  0
 33 31  1  0  0  0  0
M  END
>  <MODEL>
3

>  <REMARK>
 VINA RESULT:      -7.6      3.106      5.477
  Name = 
  7 active torsions:
  status: ('A' for Active; 'I' for Inactive)
    1  A    between atoms: C_3  and  C_13
    2  A    between atoms: C_3  and  C_17
    3  A    between atoms: C_4  and  C_31
    4  A    between atoms: C_5  and  C_27
    5  A    between atoms: C_8  and  C_27
    6  A    between atoms: C_12  and  N_28
    7  A    between atoms: C_17  and  C_29
                            x       y       z     vdW  Elec       q    Type
                         _______ _______ _______ _____ _____    ______ ____

>  <TORSDO>
F 7

$$$$
=
 OpenBabel10252414543D

 34 38  0  0  1  0  0  0  0  0999 V2000
  181.6250  178.9150  140.8830 C   0  0  1  0  0  0  0  0  0  0  0  0
  184.3170  178.8190  141.4960 S   0  0  0  0  0  0  0  0  0  0  0  0
  181.7350  178.9790  142.3970 C   0  0  0  0  0  2  0  0  0  0  0  0
  180.6520  179.8150  140.4470 O   0  0  0  0  0  1  0  0  0  0  0  0
  183.0940  178.4220  142.7890 C   0  0  2  0  0  3  0  0  0  0  0  0
  182.9900  179.3540  140.3620 C   0  0  1  0  0  3  0  0  0  0  0  0
  182.9520  176.7210  138.0720 C   0  0  0  0  0  0  0  0  0  0  0  0
  185.1670  177.7650  137.8930 C   0  0  0  0  0  0  0  0  0  0  0  0
  183.2470  179.1420  138.8600 C   0  0  1  0  0  3  0  0  0  0  0  0
  184.8320  175.4490  137.1380 C   0  0  0  0  0  3  0  0  0  0  0  0
  185.5950  176.5520  137.1640 C   0  0  0  0  0  3  0  0  0  0  0  0
  183.8720  177.7520  138.6610 C   0  0  1  0  0  3  0  0  0  0  0  0
  183.5170  175.3540  137.8760 C   0  0  0  0  0  2  0  0  0  0  0  0
  182.0370  179.4080  137.9870 C   0  0  0  0  0  0  0  0  0  0  0  0
  181.8210  177.0670  137.4620 C   0  0  0  0  0  3  0  0  0  0  0  0
  185.9220  178.7730  137.9190 O   0  0  0  0  0  0  0  0  0  0  0  0
  181.5710  180.7510  137.8430 N   0  0  0  0  0  2  0  0  0  0  0  0
  181.3930  178.4330  137.4120 N   0  0  0  0  0  0  0  0  0  0  0  0
  180.4040  181.0960  137.0490 C   0  0  0  0  0  2  0  0  0  0  0  0
  180.8020  181.4100  135.7520 O   0  0  0  0  0  1  0  0  0  0  0  0
  183.5330  178.9150  144.1640 C   0  0  0  0  0  2  0  0  0  0  0  0
  185.0480  179.0880  144.2590 C   0  0  0  0  0  2  0  0  0  0  0  0
  185.1500  178.6980  147.1880 O   0  0  0  0  0  0  0  0  0  0  0  0
  185.7210  177.9260  144.9850 C   0  0  2  0  0  3  0  0  0  0  0  0
  186.0470  178.2550  146.4240 C   0  0  0  0  0  0  0  0  0  0  0  0
  188.3630  177.5460  146.1670 C   0  0  0  0  0  3  0  0  0  0  0  0
  188.1070  177.2280  144.7520 C   0  0  0  0  0  3  0  0  0  0  0  0
  186.9030  177.4070  144.2030 C   0  0  0  0  0  3  0  0  0  0  0  0
  187.4000  178.0290  146.9530 C   0  0  0  0  0  3  0  0  0  0  0  0
  181.2650  177.4970  140.4270 C   0  0  0  0  0  2  0  0  0  0  0  0
  179.5200  175.6590  140.5830 C   0  0  1  0  0  3  0  0  0  0  0  0
  179.8460  177.0960  140.8310 C   0  0  2  0  0  3  0  0  0  0  0  0
  179.1400  176.6760  139.6880 O   0  0  0  0  0  0  0  0  0  0  0  0
  180.5900  174.9410  140.0400 O   0  0  0  0  0  1  0  0  0  0  0  0
  1  4  1  6  0  0  0
  1  3  1  0  0  0  0
  2  5  1  0  0  0  0
  3  5  1  0  0  0  0
  5 21  1  1  0  0  0
  6  1  1  0  0  0  0
  6  2  1  1  0  0  0
  7 12  1  0  0  0  0
  8 16  2  0  0  0  0
  9 14  1  6  0  0  0
  9  6  1  0  0  0  0
 10 11  2  0  0  0  0
 10 13  1  0  0  0  0
 11  8  1  0  0  0  0
 12  8  1  6  0  0  0
 12  9  1  0  0  0  0
 13  7  1  0  0  0  0
 15  7  2  0  0  0  0
 17 14  1  0  0  0  0
 18 15  1  0  0  0  0
 18 14  2  0  0  0  0
 19 17  1  0  0  0  0
 20 19  1  0  0  0  0
 21 22  1  0  0  0  0
 24 22  1  6  0  0  0
 24 25  1  0  0  0  0
 25 29  1  0  0  0  0
 25 23  2  0  0  0  0
 26 29  2  0  0  0  0
 27 26  1  0  0  0  0
 28 27  2  0  0  0  0
 28 24  1  0  0  0  0
 30  1  1  0  0  0  0
 31 34  1  6  0  0  0
 31 32  1  0  0  0  0
 32 30  1  6  0  0  0
 33 31  1  0  0  0  0
 33 32  1  0  0  0  0
M  END
>  <MODEL>
4

>  <REMARK>
 VINA RESULT:      -7.1      5.200      7.558
  Name = 
  7 active torsions:
  status: ('A' for Active; 'I' for Inactive)
    1  A    between atoms: C_3  and  C_13
    2  A    between atoms: C_3  and  C_17
    3  A    between atoms: C_4  and  C_31
    4  A    between atoms: C_5  and  C_27
    5  A    between atoms: C_8  and  C_27
    6  A    between atoms: C_12  and  N_28
    7  A    between atoms: C_17  and  C_29
                            x       y       z     vdW  Elec       q    Type
                         _______ _______ _______ _____ _____    ______ ____

>  <TORSDO>
F 7

$$$$
=
 OpenBabel10252414543D

 34 38  0  0  1  0  0  0  0  0999 V2000
  180.9130  178.1530  139.1220 C   0  0  1  0  0  0  0  0  0  0  0  0
  182.5390  180.3820  138.9890 S   0  0  0  0  0  0  0  0  0  0  0  0
  180.0000  179.3550  138.9540 C   0  0  0  0  0  2  0  0  0  0  0  0
  180.4570  177.1040  138.3220 O   0  0  0  0  0  1  0  0  0  0  0  0
  180.7720  180.5910  139.3870 C   0  0  2  0  0  3  0  0  0  0  0  0
  182.2790  178.6130  138.6220 C   0  0  1  0  0  3  0  0  0  0  0  0
  185.2280  177.5980  137.0560 C   0  0  0  0  0  0  0  0  0  0  0  0
  183.9890  175.5480  137.5970 C   0  0  0  0  0  0  0  0  0  0  0  0
  183.4620  177.6730  138.9120 C   0  0  1  0  0  3  0  0  0  0  0  0
  185.7010  175.5230  135.8330 C   0  0  0  0  0  3  0  0  0  0  0  0
  184.8950  174.8470  136.6630 C   0  0  0  0  0  3  0  0  0  0  0  0
  183.9320  177.0530  137.5870 C   0  0  1  0  0  3  0  0  0  0  0  0
  185.7120  177.0330  135.7630 C   0  0  0  0  0  2  0  0  0  0  0  0
  184.5700  178.3120  139.7250 C   0  0  0  0  0  0  0  0  0  0  0  0
  186.0570  178.2930  137.8310 C   0  0  0  0  0  3  0  0  0  0  0  0
  183.2240  174.8800  138.3430 O   0  0  0  0  0  0  0  0  0  0  0  0
  184.3260  178.6280  141.0970 N   0  0  0  0  0  2  0  0  0  0  0  0
  185.7120  178.6210  139.1810 N   0  0  0  0  0  0  0  0  0  0  0  0
  185.3180  179.2680  141.9440 C   0  0  0  0  0  2  0  0  0  0  0  0
  186.0820  178.2920  142.5800 O   0  0  0  0  0  1  0  0  0  0  0  0
  180.1940  181.8630  138.7770 C   0  0  0  0  0  2  0  0  0  0  0  0
  179.4910  181.5980  137.4460 C   0  0  0  0  0  2  0  0  0  0  0  0
  180.8160  182.1800  134.8680 O   0  0  0  0  0  0  0  0  0  0  0  0
  179.3200  182.8680  136.6170 C   0  0  2  0  0  3  0  0  0  0  0  0
  180.4680  183.0940  135.6610 C   0  0  0  0  0  0  0  0  0  0  0  0
  180.8050  185.3760  136.4420 C   0  0  0  0  0  3  0  0  0  0  0  0
  179.7070  185.2050  137.4080 C   0  0  0  0  0  3  0  0  0  0  0  0
  179.0280  184.0580  137.4990 C   0  0  0  0  0  3  0  0  0  0  0  0
  181.1650  184.3880  135.6230 C   0  0  0  0  0  3  0  0  0  0  0  0
  180.9570  177.7090  140.5880 C   0  0  0  0  0  2  0  0  0  0  0  0
  179.7320  178.7380  142.5600 C   0  0  1  0  0  3  0  0  0  0  0  0
  179.6250  177.9320  141.3060 C   0  0  2  0  0  3  0  0  0  0  0  0
  179.6790  177.3330  142.5790 O   0  0  0  0  0  0  0  0  0  0  0  0
  181.0380  179.1560  142.8330 O   0  0  0  0  0  1  0  0  0  0  0  0
  1  4  1  6  0  0  0
  1 30  1  0  0  0  0
  2  5  1  0  0  0  0
  3  1  1  0  0  0  0
  3  5  1  0  0  0  0
  5 21  1  6  0  0  0
  6  9  1  0  0  0  0
  6  2  1  1  0  0  0
  6  1  1  0  0  0  0
  7 15  2  0  0  0  0
  8 16  2  0  0  0  0
  9 14  1  6  0  0  0
 10 11  2  0  0  0  0
 11  8  1  0  0  0  0
 12  7  1  1  0  0  0
 12  8  1  0  0  0  0
 12  9  1  0  0  0  0
 13 10  1  0  0  0  0
 13  7  1  0  0  0  0
 14 17  1  0  0  0  0
 15 18  1  0  0  0  0
 17 19  1  0  0  0  0
 18 14  2  0  0  0  0
 19 20  1  0  0  0  0
 22 21  1  0  0  0  0
 23 25  2  0  0  0  0
 24 22  1  1  0  0  0
 24 28  1  0  0  0  0
 25 24  1  0  0  0  0
 26 27  1  0  0  0  0
 27 28  2  0  0  0  0
 29 25  1  0  0  0  0
 29 26  2  0  0  0  0
 31 33  1  0  0  0  0
 31 34  1  6  0  0  0
 32 30  1  6  0  0  0
 32 31  1  0  0  0  0
 32 33  1  0  0  0  0
M  END
>  <MODEL>
5

>  <REMARK>
 VINA RESULT:      -6.9      6.557      9.737
  Name = 
  7 active torsions:
  status: ('A' for Active; 'I' for Inactive)
    1  A    between atoms: C_3  and  C_13
    2  A    between atoms: C_3  and  C_17
    3  A    between atoms: C_4  and  C_31
    4  A    between atoms: C_5  and  C_27
    5  A    between atoms: C_8  and  C_27
    6  A    between atoms: C_12  and  N_28
    7  A    between atoms: C_17  and  C_29
                            x       y       z     vdW  Elec       q    Type
                         _______ _______ _______ _____ _____    ______ ____

>  <TORSDO>
F 7

$$$$
=
 OpenBabel10252414543D

 34 38  0  0  1  0  0  0  0  0999 V2000
  186.8790  177.4810  143.7290 C   0  0  1  0  0  0  0  0  0  0  0  0
  186.0230  179.3850  141.9190 S   0  0  0  0  0  0  0  0  0  0  0  0
  185.3690  177.5770  143.8700 C   0  0  0  0  0  2  0  0  0  0  0  0
  187.2690  176.1420  143.7790 O   0  0  0  0  0  1  0  0  0  0  0  0
  184.9320  178.9180  143.3040 C   0  0  2  0  0  3  0  0  0  0  0  0
  187.1900  178.0470  142.3470 C   0  0  1  0  0  3  0  0  0  0  0  0
  190.2320  176.3580  142.6190 C   0  0  0  0  0  0  0  0  0  0  0  0
  190.5180  178.4970  143.7910 C   0  0  0  0  0  0  0  0  0  0  0  0
  188.6740  178.3070  142.0350 C   0  0  1  0  0  3  0  0  0  0  0  0
  191.9960  176.6010  144.3080 C   0  0  0  0  0  3  0  0  0  0  0  0
  191.7320  177.9130  144.3980 C   0  0  0  0  0  3  0  0  0  0  0  0
  189.5290  177.5980  143.0960 C   0  0  1  0  0  3  0  0  0  0  0  0
  191.0620  175.6310  143.6230 C   0  0  0  0  0  2  0  0  0  0  0  0
  189.0660  177.9890  140.6070 C   0  0  0  0  0  0  0  0  0  0  0  0
  190.3770  176.0990  141.3220 C   0  0  0  0  0  3  0  0  0  0  0  0
  190.2880  179.7290  143.9200 O   0  0  0  0  0  0  0  0  0  0  0  0
  188.5720  178.8170  139.5530 N   0  0  0  0  0  2  0  0  0  0  0  0
  189.7990  176.9500  140.3260 N   0  0  0  0  0  0  0  0  0  0  0  0
  188.8740  178.5700  138.1530 C   0  0  0  0  0  2  0  0  0  0  0  0
  188.9530  179.7840  137.4750 O   0  0  0  0  0  1  0  0  0  0  0  0
  183.4630  178.9100  142.8980 C   0  0  0  0  0  2  0  0  0  0  0  0
  183.2690  178.5070  141.4360 C   0  0  0  0  0  2  0  0  0  0  0  0
  182.2740  179.0670  138.7090 O   0  0  0  0  0  0  0  0  0  0  0  0
  181.8050  178.5570  141.0100 C   0  0  2  0  0  3  0  0  0  0  0  0
  181.6000  179.3440  139.7350 C   0  0  0  0  0  0  0  0  0  0  0  0
  179.8550  180.7130  140.7420 C   0  0  0  0  0  3  0  0  0  0  0  0
  180.0260  179.9940  142.0150 C   0  0  0  0  0  3  0  0  0  0  0  0
  180.9220  179.0110  142.1470 C   0  0  0  0  0  3  0  0  0  0  0  0
  180.5920  180.4130  139.6720 C   0  0  0  0  0  3  0  0  0  0  0  0
  187.5770  178.2690  144.8420 C   0  0  0  0  0  2  0  0  0  0  0  0
  186.8200  178.0560  147.2570 C   0  0  1  0  0  3  0  0  0  0  0  0
  187.6510  177.4860  146.1540 C   0  0  2  0  0  3  0  0  0  0  0  0
  188.2000  178.3090  147.1550 O   0  0  0  0  0  0  0  0  0  0  0  0
  186.1110  179.1990  146.8730 O   0  0  0  0  0  1  0  0  0  0  0  0
  1  4  1  1  0  0  0
  1  3  1  0  0  0  0
  1 30  1  0  0  0  0
  2  5  1  0  0  0  0
  5 21  1  6  0  0  0
  5  3  1  0  0  0  0
  6  2  1  1  0  0  0
  6  1  1  0  0  0  0
  7 13  1  0  0  0  0
  8 16  2  0  0  0  0
  8 11  1  0  0  0  0
  9 14  1  6  0  0  0
  9  6  1  0  0  0  0
  9 12  1  0  0  0  0
 10 11  2  0  0  0  0
 12  7  1  6  0  0  0
 12  8  1  0  0  0  0
 13 10  1  0  0  0  0
 15  7  2  0  0  0  0
 17 14  1  0  0  0  0
 18 14  2  0  0  0  0
 18 15  1  0  0  0  0
 19 17  1  0  0  0  0
 20 19  1  0  0  0  0
 22 21  1  0  0  0  0
 23 25  2  0  0  0  0
 24 22  1  1  0  0  0
 24 28  1  0  0  0  0
 25 24  1  0  0  0  0
 26 27  1  0  0  0  0
 27 28  2  0  0  0  0
 29 25  1  0  0  0  0
 29 26  2  0  0  0  0
 31 34  1  6  0  0  0
 32 30  1  6  0  0  0
 32 33  1  0  0  0  0
 32 31  1  0  0  0  0
 33 31  1  0  0  0  0
M  END
>  <MODEL>
6

>  <REMARK>
 VINA RESULT:      -6.7      3.232      5.502
  Name = 
  7 active torsions:
  status: ('A' for Active; 'I' for Inactive)
    1  A    between atoms: C_3  and  C_13
    2  A    between atoms: C_3  and  C_17
    3  A    between atoms: C_4  and  C_31
    4  A    between atoms: C_5  and  C_27
    5  A    between atoms: C_8  and  C_27
    6  A    between atoms: C_12  and  N_28
    7  A    between atoms: C_17  and  C_29
                            x       y       z     vdW  Elec       q    Type
                         _______ _______ _______ _____ _____    ______ ____

>  <TORSDO>
F 7

$$$$
=
 OpenBabel10252414543D

 34 38  0  0  1  0  0  0  0  0999 V2000
  184.2490  179.1130  139.0370 C   0  0  1  0  0  0  0  0  0  0  0  0
  183.9200  177.0350  137.2460 S   0  0  0  0  0  0  0  0  0  0  0  0
  185.6380  178.6900  138.5930 C   0  0  0  0  0  2  0  0  0  0  0  0
  184.1800  180.5060  139.0930 O   0  0  0  0  0  1  0  0  0  0  0  0
  185.5420  177.2750  138.0450 C   0  0  2  0  0  3  0  0  0  0  0  0
  183.3070  178.6050  137.9490 C   0  0  1  0  0  3  0  0  0  0  0  0
  180.3400  179.3620  136.2760 C   0  0  0  0  0  0  0  0  0  0  0  0
  180.4090  180.8120  138.2560 C   0  0  0  0  0  0  0  0  0  0  0  0
  181.8030  178.6730  138.2640 C   0  0  1  0  0  3  0  0  0  0  0  0
  179.0110  181.4260  136.3290 C   0  0  0  0  0  3  0  0  0  0  0  0
  179.3400  181.6070  137.6170 C   0  0  0  0  0  3  0  0  0  0  0  0
  181.1800  179.8100  137.4390 C   0  0  1  0  0  3  0  0  0  0  0  0
  179.7280  180.4370  135.4400 C   0  0  0  0  0  2  0  0  0  0  0  0
  181.0870  177.3440  138.1280 C   0  0  0  0  0  0  0  0  0  0  0  0
  179.8970  178.1120  136.1810 C   0  0  0  0  0  3  0  0  0  0  0  0
  180.7110  181.0300  139.4600 O   0  0  0  0  0  0  0  0  0  0  0  0
  181.3640  176.3100  139.0750 N   0  0  0  0  0  2  0  0  0  0  0  0
  180.2690  177.1170  137.1410 N   0  0  0  0  0  0  0  0  0  0  0  0
  180.7460  174.9960  139.0060 C   0  0  0  0  0  2  0  0  0  0  0  0
  180.1080  174.7220  140.2130 O   0  0  0  0  0  1  0  0  0  0  0  0
  186.6970  176.9520  137.1040 C   0  0  0  0  0  2  0  0  0  0  0  0
  187.3830  178.2120  136.5770 C   0  0  0  0  0  2  0  0  0  0  0  0
  189.5370  176.6290  135.3120 O   0  0  0  0  0  0  0  0  0  0  0  0
  188.8640  178.2620  136.9420 C   0  0  2  0  0  3  0  0  0  0  0  0
  189.6090  177.0210  136.5060 C   0  0  0  0  0  0  0  0  0  0  0  0
  190.5550  176.6860  138.7250 C   0  0  0  0  0  3  0  0  0  0  0  0
  189.8350  177.8750  139.2100 C   0  0  0  0  0  3  0  0  0  0  0  0
  189.0540  178.5970  138.4010 C   0  0  0  0  0  3  0  0  0  0  0  0
  190.4500  176.2810  137.4590 C   0  0  0  0  0  3  0  0  0  0  0  0
  183.9150  178.5180  140.4080 C   0  0  0  0  0  2  0  0  0  0  0  0
  184.7710  178.6040  142.7980 C   0  0  1  0  0  3  0  0  0  0  0  0
  185.1210  178.5060  141.3480 C   0  0  2  0  0  3  0  0  0  0  0  0
  185.1760  179.7250  142.0500 O   0  0  0  0  0  0  0  0  0  0  0  0
  183.3930  178.6720  143.0240 O   0  0  0  0  0  1  0  0  0  0  0  0
  1  4  1  1  0  0  0
  1 30  1  0  0  0  0
  2  5  1  0  0  0  0
  3  1  1  0  0  0  0
  5 21  1  6  0  0  0
  5  3  1  0  0  0  0
  6  2  1  1  0  0  0
  6  9  1  0  0  0  0
  6  1  1  0  0  0  0
  8 16  2  0  0  0  0
  9 14  1  6  0  0  0
 10 11  2  0  0  0  0
 11  8  1  0  0  0  0
 12  7  1  6  0  0  0
 12  8  1  0  0  0  0
 12  9  1  0  0  0  0
 13  7  1  0  0  0  0
 13 10  1  0  0  0  0
 14 17  1  0  0  0  0
 15  7  2  0  0  0  0
 15 18  1  0  0  0  0
 18 14  2  0  0  0  0
 19 17  1  0  0  0  0
 19 20  1  0  0  0  0
 22 21  1  0  0  0  0
 23 25  2  0  0  0  0
 24 22  1  1  0  0  0
 24 28  1  0  0  0  0
 25 24  1  0  0  0  0
 25 29  1  0  0  0  0
 26 27  1  0  0  0  0
 28 27  2  0  0  0  0
 29 26  2  0  0  0  0
 31 34  1  6  0  0  0
 32 30  1  6  0  0  0
 32 33  1  0  0  0  0
 32 31  1  0  0  0  0
 33 31  1  0  0  0  0
M  END
>  <MODEL>
7

>  <REMARK>
 VINA RESULT:      -6.6      5.694      9.555
  Name = 
  7 active torsions:
  status: ('A' for Active; 'I' for Inactive)
    1  A    between atoms: C_3  and  C_13
    2  A    between atoms: C_3  and  C_17
    3  A    between atoms: C_4  and  C_31
    4  A    between atoms: C_5  and  C_27
    5  A    between atoms: C_8  and  C_27
    6  A    between atoms: C_12  and  N_28
    7  A    between atoms: C_17  and  C_29
                            x       y       z     vdW  Elec       q    Type
                         _______ _______ _______ _____ _____    ______ ____

>  <TORSDO>
F 7

$$$$
=
 OpenBabel10252414543D

 34 38  0  0  1  0  0  0  0  0999 V2000
  189.4590  176.7520  139.9560 C   0  0  1  0  0  0  0  0  0  0  0  0
  188.3260  178.7770  141.4560 S   0  0  0  0  0  0  0  0  0  0  0  0
  189.9310  176.5580  141.3860 C   0  0  0  0  0  2  0  0  0  0  0  0
  189.1330  175.5140  139.3990 O   0  0  0  0  0  1  0  0  0  0  0  0
  189.7750  177.8840  142.1130 C   0  0  2  0  0  3  0  0  0  0  0  0
  188.1980  177.6050  140.0620 C   0  0  1  0  0  3  0  0  0  0  0  0
  187.3460  176.4240  136.8900 C   0  0  0  0  0  0  0  0  0  0  0  0
  188.9390  178.2600  136.5420 C   0  0  0  0  0  0  0  0  0  0  0  0
  187.6450  178.1700  138.7420 C   0  0  1  0  0  3  0  0  0  0  0  0
  188.6090  176.5670  134.7900 C   0  0  0  0  0  3  0  0  0  0  0  0
  189.0910  177.7630  135.1590 C   0  0  0  0  0  3  0  0  0  0  0  0
  188.2710  177.3910  137.5740 C   0  0  1  0  0  3  0  0  0  0  0  0
  187.9200  175.6360  135.7600 C   0  0  0  0  0  2  0  0  0  0  0  0
  186.1330  178.2510  138.6940 C   0  0  0  0  0  0  0  0  0  0  0  0
  186.0280  176.4910  137.0530 C   0  0  0  0  0  3  0  0  0  0  0  0
  189.4300  179.3760  136.8600 O   0  0  0  0  0  0  0  0  0  0  0  0
  185.4650  179.2030  139.5240 N   0  0  0  0  0  2  0  0  0  0  0  0
  185.4380  177.4380  137.9520 N   0  0  0  0  0  0  0  0  0  0  0  0
  184.0180  179.3310  139.5650 C   0  0  0  0  0  2  0  0  0  0  0  0
  183.6480  180.5680  139.0430 O   0  0  0  0  0  1  0  0  0  0  0  0
  189.6940  177.6960  143.6240 C   0  0  0  0  0  2  0  0  0  0  0  0
  188.2710  177.8660  144.1530 C   0  0  0  0  0  2  0  0  0  0  0  0
  185.8170  177.9740  145.8000 O   0  0  0  0  0  0  0  0  0  0  0  0
  188.0720  177.1950  145.5100 C   0  0  2  0  0  3  0  0  0  0  0  0
  186.9590  177.8300  146.3110 C   0  0  0  0  0  0  0  0  0  0  0  0
  188.3820  178.0960  148.2700 C   0  0  0  0  0  3  0  0  0  0  0  0
  189.5090  177.5020  147.5290 C   0  0  0  0  0  3  0  0  0  0  0  0
  189.3750  177.0950  146.2640 C   0  0  0  0  0  3  0  0  0  0  0  0
  187.1870  178.2520  147.7010 C   0  0  0  0  0  3  0  0  0  0  0  0
  190.5440  177.4330  139.1160 C   0  0  0  0  0  2  0  0  0  0  0  0
  192.9110  176.5210  139.0100 C   0  0  1  0  0  3  0  0  0  0  0  0
  191.5130  176.4290  138.4900 C   0  0  2  0  0  3  0  0  0  0  0  0
  192.5230  177.1270  137.8020 O   0  0  0  0  0  0  0  0  0  0  0  0
  193.0660  177.5040  139.9920 O   0  0  0  0  0  1  0  0  0  0  0  0
  1  4  1  6  0  0  0
  1  6  1  0  0  0  0
  1  3  1  0  0  0  0
  2  5  1  0  0  0  0
  3  5  1  0  0  0  0
  5 21  1  1  0  0  0
  6  2  1  1  0  0  0
  7 15  2  0  0  0  0
  7 12  1  0  0  0  0
  8 16  2  0  0  0  0
  9 14  1  1  0  0  0
  9  6  1  0  0  0  0
 10 11  2  0  0  0  0
 10 13  1  0  0  0  0
 11  8  1  0  0  0  0
 12  8  1  6  0  0  0
 12  9  1  0  0  0  0
 13  7  1  0  0  0  0
 14 17  1  0  0  0  0
 15 18  1  0  0  0  0
 17 19  1  0  0  0  0
 18 14  2  0  0  0  0
 20 19  1  0  0  0  0
 21 22  1  0  0  0  0
 23 25  2  0  0  0  0
 24 22  1  6  0  0  0
 24 28  1  0  0  0  0
 24 25  1  0  0  0  0
 25 29  1  0  0  0  0
 27 26  1  0  0  0  0
 28 27  2  0  0  0  0
 29 26  2  0  0  0  0
 30  1  1  0  0  0  0
 31 34  1  1  0  0  0
 32 31  1  0  0  0  0
 32 30  1  1  0  0  0
 33 32  1  0  0  0  0
 33 31  1  0  0  0  0
M  END
>  <MODEL>
8

>  <REMARK>
 VINA RESULT:      -6.6      2.236      3.735
  Name = 
  7 active torsions:
  status: ('A' for Active; 'I' for Inactive)
    1  A    between atoms: C_3  and  C_13
    2  A    between atoms: C_3  and  C_17
    3  A    between atoms: C_4  and  C_31
    4  A    between atoms: C_5  and  C_27
    5  A    between atoms: C_8  and  C_27
    6  A    between atoms: C_12  and  N_28
    7  A    between atoms: C_17  and  C_29
                            x       y       z     vdW  Elec       q    Type
                         _______ _______ _______ _____ _____    ______ ____

>  <TORSDO>
F 7

$$$$
=
 OpenBabel10252414543D

 34 38  0  0  1  0  0  0  0  0999 V2000
  180.2480  177.4490  141.0700 C   0  0  1  0  0  0  0  0  0  0  0  0
  182.3170  176.7060  139.3960 S   0  0  0  0  0  0  0  0  0  0  0  0
  179.7740  176.2300  140.2970 C   0  0  0  0  0  2  0  0  0  0  0  0
  179.8500  177.3400  142.4030 O   0  0  0  0  0  1  0  0  0  0  0  0
  180.6300  176.1100  139.0460 C   0  0  2  0  0  3  0  0  0  0  0  0
  181.7710  177.4070  140.9920 C   0  0  1  0  0  3  0  0  0  0  0  0
  184.9450  178.2510  142.1710 C   0  0  0  0  0  0  0  0  0  0  0  0
  183.3460  179.0330  143.8630 C   0  0  0  0  0  0  0  0  0  0  0  0
  182.5130  178.6640  141.4770 C   0  0  1  0  0  3  0  0  0  0  0  0
  185.6930  178.6350  144.4780 C   0  0  0  0  0  3  0  0  0  0  0  0
  184.4970  179.1620  144.7800 C   0  0  0  0  0  3  0  0  0  0  0  0
  183.5000  178.2560  142.5820 C   0  0  1  0  0  3  0  0  0  0  0  0
  185.9350  177.8460  143.2120 C   0  0  0  0  0  2  0  0  0  0  0  0
  183.1350  179.4800  140.3610 C   0  0  0  0  0  0  0  0  0  0  0  0
  185.3550  178.8740  141.0690 C   0  0  0  0  0  3  0  0  0  0  0  0
  182.2300  179.5160  144.1930 O   0  0  0  0  0  0  0  0  0  0  0  0
  182.2780  180.1830  139.4600 N   0  0  0  0  0  2  0  0  0  0  0  0
  184.4240  179.5060  140.1840 N   0  0  0  0  0  0  0  0  0  0  0  0
  182.7840  180.9660  138.3440 C   0  0  0  0  0  2  0  0  0  0  0  0
  182.3690  182.2880  138.4810 O   0  0  0  0  0  1  0  0  0  0  0  0
  180.6280  174.6900  138.4920 C   0  0  0  0  0  2  0  0  0  0  0  0
  180.4350  174.6590  136.9770 C   0  0  0  0  0  2  0  0  0  0  0  0
  180.1830  171.7260  136.7060 O   0  0  0  0  0  0  0  0  0  0  0  0
  181.4320  173.7350  136.2830 C   0  0  2  0  0  3  0  0  0  0  0  0
  181.3030  172.2990  136.7390 C   0  0  0  0  0  0  0  0  0  0  0  0
  183.6850  172.1310  137.2210 C   0  0  0  0  0  3  0  0  0  0  0  0
  183.8650  173.5330  136.8080 C   0  0  0  0  0  3  0  0  0  0  0  0
  182.8370  174.2750  136.3850 C   0  0  0  0  0  3  0  0  0  0  0  0
  182.4850  171.5510  137.1920 C   0  0  0  0  0  3  0  0  0  0  0  0
  179.6770  178.7320  140.4590 C   0  0  0  0  0  2  0  0  0  0  0  0
  178.9330  181.0750  141.0980 C   0  0  1  0  0  3  0  0  0  0  0  0
  179.0320  179.6410  141.5070 C   0  0  2  0  0  3  0  0  0  0  0  0
  179.9690  180.6040  141.9250 O   0  0  0  0  0  0  0  0  0  0  0  0
  179.4370  181.3140  139.8160 O   0  0  0  0  0  1  0  0  0  0  0  0
  1  4  1  1  0  0  0
  3  1  1  0  0  0  0
  5 21  1  1  0  0  0
  5  2  1  0  0  0  0
  5  3  1  0  0  0  0
  6  2  1  6  0  0  0
  6  1  1  0  0  0  0
  6  9  1  0  0  0  0
  7 13  1  0  0  0  0
  8 16  2  0  0  0  0
  8 11  1  0  0  0  0
  9 14  1  6  0  0  0
  9 12  1  0  0  0  0
 10 11  2  0  0  0  0
 12  7  1  6  0  0  0
 12  8  1  0  0  0  0
 13 10  1  0  0  0  0
 15  7  2  0  0  0  0
 17 14  1  0  0  0  0
 18 14  2  0  0  0  0
 18 15  1  0  0  0  0
 19 20  1  0  0  0  0
 19 17  1  0  0  0  0
 22 21  1  0  0  0  0
 23 25  2  0  0  0  0
 24 28  1  0  0  0  0
 24 25  1  0  0  0  0
 24 22  1  1  0  0  0
 25 29  1  0  0  0  0
 27 26  1  0  0  0  0
 28 27  2  0  0  0  0
 29 26  2  0  0  0  0
 30  1  1  0  0  0  0
 31 34  1  6  0  0  0
 31 32  1  0  0  0  0
 31 33  1  0  0  0  0
 32 30  1  6  0  0  0
 32 33  1  0  0  0  0
M  END
>  <MODEL>
9

>  <REMARK>
 VINA RESULT:      -6.4      6.342     10.077
  Name = 
  7 active torsions:
  status: ('A' for Active; 'I' for Inactive)
    1  A    between atoms: C_3  and  C_13
    2  A    between atoms: C_3  and  C_17
    3  A    between atoms: C_4  and  C_31
    4  A    between atoms: C_5  and  C_27
    5  A    between atoms: C_8  and  C_27
    6  A    between atoms: C_12  and  N_28
    7  A    between atoms: C_17  and  C_29
                            x       y       z     vdW  Elec       q    Type
                         _______ _______ _______ _____ _____    ______ ____

>  <TORSDO>
F 7

$$$$
