=
 OpenBabel10262419443D

 25 27  0  0  1  0  0  0  0  0999 V2000
  187.1550  177.8230  146.0630 C   0  0  0  0  0  0  0  0  0  0  0  0
  188.3610  177.4160  145.4460 C   0  0  0  0  0  0  0  0  0  0  0  0
  188.2090  177.6830  148.1890 C   0  0  0  0  0  3  0  0  0  0  0  0
  189.3760  177.3020  147.6150 N   0  0  0  0  0  0  0  0  0  0  0  0
  190.6960  176.7480  145.6880 C   0  0  0  0  0  0  0  0  0  0  0  0
  191.9000  176.4760  146.5240 C   0  0  0  0  0  1  0  0  0  0  0  0
  188.4730  177.2330  144.0590 C   0  0  0  0  0  3  0  0  0  0  0  0
  187.1200  177.9360  147.4200 N   0  0  0  0  0  0  0  0  0  0  0  0
  190.7840  176.5830  144.3040 C   0  0  0  0  0  3  0  0  0  0  0  0
  189.6760  176.8200  143.4820 C   0  0  0  0  0  0  0  0  0  0  0  0
  189.4820  177.1590  146.2670 C   0  0  0  0  0  0  0  0  0  0  0  0
  185.9180  178.1360  145.3010 C   0  0  0  0  0  0  0  0  0  0  0  0
  183.6140  179.1280  143.9340 C   0  0  0  0  0  3  0  0  0  0  0  0
  184.6830  178.5670  145.9920 C   0  0  0  0  0  0  0  0  0  0  0  0
  183.6110  179.1350  145.2330 N   0  0  0  0  0  0  0  0  0  0  0  0
  184.6990  178.4490  143.1440 C   0  0  0  0  0  2  0  0  0  0  0  0
  184.5730  178.4690  147.2430 O   0  0  0  0  0  0  0  0  0  0  0  0
  185.9270  178.1540  143.9630 C   0  0  0  0  0  3  0  0  0  0  0  0
  189.7360  176.6540  142.0590 N   0  0  0  0  0  2  0  0  0  0  0  0
  189.2320  177.5590  141.0680 C   0  0  0  0  0  0  0  0  0  0  0  0
  188.6730  178.6400  141.3980 O   0  0  0  0  0  0  0  0  0  0  0  0
  189.0730  178.3910  138.7230 C   0  0  0  0  0  1  0  0  0  0  0  0
  189.3990  177.2100  139.6230 C   0  0  1  0  0  3  0  0  0  0  0  0
  190.7860  176.6480  139.3280 C   0  0  0  0  0  2  0  0  0  0  0  0
  190.7010  175.4320  138.6440 O   0  0  0  0  0  1  0  0  0  0  0  0
  1  8  1  0  0  0  0
  2  1  2  0  0  0  0
  2 11  1  0  0  0  0
  4  3  1  0  0  0  0
  5 11  1  0  0  0  0
  5  6  1  0  0  0  0
  7  2  1  0  0  0  0
  8  3  2  0  0  0  0
  9  5  2  0  0  0  0
 10  7  2  0  0  0  0
 10  9  1  0  0  0  0
 11  4  2  0  0  0  0
 12 14  1  0  0  0  0
 12  1  1  0  0  0  0
 13 15  2  0  0  0  0
 14 17  2  0  0  0  0
 15 14  1  0  0  0  0
 16 13  1  0  0  0  0
 16 18  1  0  0  0  0
 18 12  2  0  0  0  0
 19 10  1  0  0  0  0
 20 21  2  0  0  0  0
 20 19  1  0  0  0  0
 23 22  1  6  0  0  0
 23 20  1  0  0  0  0
 24 23  1  0  0  0  0
 25 24  1  0  0  0  0
M  END
>  <MODEL>
1

>  <REMARK>
 VINA RESULT:     -10.1      0.000      0.000
  Name = 
  4 active torsions:
  status: ('A' for Active; 'I' for Inactive)
    1  A    between atoms: C_1  and  C_5
    2  A    between atoms: C_2  and  C_21
    3  A    between atoms: N_6  and  C_23
    4  A    between atoms: C_15  and  C_21
                            x       y       z     vdW  Elec       q    Type
                         _______ _______ _______ _____ _____    ______ ____

>  <TORSDO>
F 4

$$$$
=
 OpenBabel10262419443D

 25 27  0  0  1  0  0  0  0  0999 V2000
  190.6980  176.9870  144.8110 C   0  0  0  0  0  0  0  0  0  0  0  0
  189.4410  177.3040  145.3750 C   0  0  0  0  0  0  0  0  0  0  0  0
  191.5880  176.6800  146.9940 C   0  0  0  0  0  3  0  0  0  0  0  0
  190.3880  176.9710  147.5530 N   0  0  0  0  0  0  0  0  0  0  0  0
  188.0780  177.5990  147.3790 C   0  0  0  0  0  0  0  0  0  0  0  0
  187.9060  177.5810  148.8600 C   0  0  0  0  0  1  0  0  0  0  0  0
  188.3330  177.6620  144.5930 C   0  0  0  0  0  3  0  0  0  0  0  0
  191.7340  176.6910  145.6440 N   0  0  0  0  0  0  0  0  0  0  0  0
  186.9880  177.9420  146.5770 C   0  0  0  0  0  3  0  0  0  0  0  0
  187.1070  177.9800  145.1830 C   0  0  0  0  0  0  0  0  0  0  0  0
  189.3120  177.2850  146.7830 C   0  0  0  0  0  0  0  0  0  0  0  0
  190.9470  176.9590  143.3450 C   0  0  0  0  0  0  0  0  0  0  0  0
  191.0470  177.0590  140.4920 C   0  0  0  0  0  3  0  0  0  0  0  0
  190.2530  175.9880  142.4710 C   0  0  0  0  0  0  0  0  0  0  0  0
  190.2850  176.1680  141.0520 N   0  0  0  0  0  0  0  0  0  0  0  0
  192.0080  177.8990  141.2890 C   0  0  0  0  0  2  0  0  0  0  0  0
  189.6090  175.0220  142.9600 O   0  0  0  0  0  0  0  0  0  0  0  0
  191.7120  177.8910  142.7660 C   0  0  0  0  0  3  0  0  0  0  0  0
  186.0060  178.3330  144.3350 N   0  0  0  0  0  2  0  0  0  0  0  0
  184.7390  178.8590  144.7490 C   0  0  0  0  0  0  0  0  0  0  0  0
  184.4900  179.0750  145.9660 O   0  0  0  0  0  0  0  0  0  0  0  0
  184.0630  178.5370  142.3710 C   0  0  0  0  0  1  0  0  0  0  0  0
  183.7130  179.1740  143.7070 C   0  0  1  0  0  3  0  0  0  0  0  0
  182.3070  178.7940  144.1560 C   0  0  0  0  0  2  0  0  0  0  0  0
  181.3450  179.2740  143.2620 O   0  0  0  0  0  1  0  0  0  0  0  0
  1  2  2  0  0  0  0
  1  8  1  0  0  0  0
  2 11  1  0  0  0  0
  3  4  1  0  0  0  0
  5  6  1  0  0  0  0
  7 10  2  0  0  0  0
  7  2  1  0  0  0  0
  8  3  2  0  0  0  0
  9  5  2  0  0  0  0
 10  9  1  0  0  0  0
 11  5  1  0  0  0  0
 11  4  2  0  0  0  0
 12  1  1  0  0  0  0
 13 15  2  0  0  0  0
 13 16  1  0  0  0  0
 14 17  2  0  0  0  0
 14 12  1  0  0  0  0
 15 14  1  0  0  0  0
 16 18  1  0  0  0  0
 18 12  2  0  0  0  0
 19 20  1  0  0  0  0
 19 10  1  0  0  0  0
 20 21  2  0  0  0  0
 23 22  1  6  0  0  0
 23 24  1  0  0  0  0
 23 20  1  0  0  0  0
 25 24  1  0  0  0  0
M  END
>  <MODEL>
2

>  <REMARK>
 VINA RESULT:     -10.0      1.907      6.014
  Name = 
  4 active torsions:
  status: ('A' for Active; 'I' for Inactive)
    1  A    between atoms: C_1  and  C_5
    2  A    between atoms: C_2  and  C_21
    3  A    between atoms: N_6  and  C_23
    4  A    between atoms: C_15  and  C_21
                            x       y       z     vdW  Elec       q    Type
                         _______ _______ _______ _____ _____    ______ ____

>  <TORSDO>
F 4

$$$$
=
 OpenBabel10262419443D

 25 27  0  0  1  0  0  0  0  0999 V2000
  187.1280  177.7340  145.9310 C   0  0  0  0  0  0  0  0  0  0  0  0
  188.3430  177.4100  145.2840 C   0  0  0  0  0  0  0  0  0  0  0  0
  188.1750  177.4000  148.0390 C   0  0  0  0  0  3  0  0  0  0  0  0
  189.3510  177.0980  147.4370 N   0  0  0  0  0  0  0  0  0  0  0  0
  190.6880  176.7610  145.4730 C   0  0  0  0  0  0  0  0  0  0  0  0
  191.8930  176.4270  146.2850 C   0  0  0  0  0  1  0  0  0  0  0  0
  188.4640  177.3680  143.8870 C   0  0  0  0  0  3  0  0  0  0  0  0
  187.0850  177.7110  147.2920 N   0  0  0  0  0  0  0  0  0  0  0  0
  190.7860  176.7350  144.0800 C   0  0  0  0  0  3  0  0  0  0  0  0
  189.6770  177.0340  143.2790 C   0  0  0  0  0  0  0  0  0  0  0  0
  189.4650  177.0910  146.0830 C   0  0  0  0  0  0  0  0  0  0  0  0
  185.8890  178.1000  145.1960 C   0  0  0  0  0  0  0  0  0  0  0  0
  183.6020  179.1920  143.8760 C   0  0  0  0  0  3  0  0  0  0  0  0
  184.6940  178.5980  145.9130 C   0  0  0  0  0  0  0  0  0  0  0  0
  183.6330  179.2110  145.1750 N   0  0  0  0  0  0  0  0  0  0  0  0
  184.6330  178.4530  143.0660 C   0  0  0  0  0  2  0  0  0  0  0  0
  184.6110  178.5160  147.1670 O   0  0  0  0  0  0  0  0  0  0  0  0
  185.8660  178.1050  143.8590 C   0  0  0  0  0  3  0  0  0  0  0  0
  189.7470  177.0120  141.8470 N   0  0  0  0  0  2  0  0  0  0  0  0
  189.1100  177.9240  140.9430 C   0  0  0  0  0  0  0  0  0  0  0  0
  188.4060  178.8790  141.3700 O   0  0  0  0  0  0  0  0  0  0  0  0
  190.1770  176.5250  139.1770 C   0  0  0  0  0  1  0  0  0  0  0  0
  189.3110  177.7380  139.4720 C   0  0  1  0  0  3  0  0  0  0  0  0
  187.9870  177.6770  138.7180 C   0  0  0  0  0  2  0  0  0  0  0  0
  187.8310  178.7870  137.8830 O   0  0  0  0  0  1  0  0  0  0  0  0
  1  8  1  0  0  0  0
  2  1  2  0  0  0  0
  2 11  1  0  0  0  0
  4  3  1  0  0  0  0
  5 11  1  0  0  0  0
  5  6  1  0  0  0  0
  7  2  1  0  0  0  0
  8  3  2  0  0  0  0
  9  5  2  0  0  0  0
 10  7  2  0  0  0  0
 10  9  1  0  0  0  0
 11  4  2  0  0  0  0
 12 14  1  0  0  0  0
 12  1  1  0  0  0  0
 13 15  2  0  0  0  0
 14 17  2  0  0  0  0
 15 14  1  0  0  0  0
 16 18  1  0  0  0  0
 16 13  1  0  0  0  0
 18 12  2  0  0  0  0
 19 10  1  0  0  0  0
 20 21  2  0  0  0  0
 20 19  1  0  0  0  0
 23 22  1  1  0  0  0
 23 20  1  0  0  0  0
 24 23  1  0  0  0  0
 25 24  1  0  0  0  0
M  END
>  <MODEL>
3

>  <REMARK>
 VINA RESULT:      -9.8      0.960      1.196
  Name = 
  4 active torsions:
  status: ('A' for Active; 'I' for Inactive)
    1  A    between atoms: C_1  and  C_5
    2  A    between atoms: C_2  and  C_21
    3  A    between atoms: N_6  and  C_23
    4  A    between atoms: C_15  and  C_21
                            x       y       z     vdW  Elec       q    Type
                         _______ _______ _______ _____ _____    ______ ____

>  <TORSDO>
F 4

$$$$
=
 OpenBabel10262419443D

 25 27  0  0  1  0  0  0  0  0999 V2000
  183.6880  178.4390  142.4470 C   0  0  0  0  0  0  0  0  0  0  0  0
  184.8020  178.2350  143.2940 C   0  0  0  0  0  0  0  0  0  0  0  0
  182.4590  179.3040  144.2890 C   0  0  0  0  0  3  0  0  0  0  0  0
  183.5190  179.1250  145.1140 N   0  0  0  0  0  0  0  0  0  0  0  0
  185.7710  178.4060  145.5280 C   0  0  0  0  0  0  0  0  0  0  0  0
  185.6850  178.7850  146.9680 C   0  0  0  0  0  1  0  0  0  0  0  0
  186.0000  177.6620  142.8400 C   0  0  0  0  0  3  0  0  0  0  0  0
  182.5490  178.9620  142.9780 N   0  0  0  0  0  0  0  0  0  0  0  0
  186.9560  177.8430  145.0490 C   0  0  0  0  0  3  0  0  0  0  0  0
  187.0770  177.4650  143.7070 C   0  0  0  0  0  0  0  0  0  0  0  0
  184.6860  178.5990  144.6560 C   0  0  0  0  0  0  0  0  0  0  0  0
  183.7000  178.1100  140.9970 C   0  0  0  0  0  0  0  0  0  0  0  0
  184.0860  177.3030  138.2840 C   0  0  0  0  0  3  0  0  0  0  0  0
  184.6210  178.7980  140.0660 C   0  0  0  0  0  0  0  0  0  0  0  0
  184.8190  178.2690  138.7510 N   0  0  0  0  0  0  0  0  0  0  0  0
  182.9290  176.7350  139.0610 C   0  0  0  0  0  2  0  0  0  0  0  0
  185.2570  179.8250  140.4240 O   0  0  0  0  0  0  0  0  0  0  0  0
  182.9650  177.0990  140.5220 C   0  0  0  0  0  3  0  0  0  0  0  0
  188.2800  176.8810  143.1880 N   0  0  0  0  0  2  0  0  0  0  0  0
  189.1280  177.4250  142.1690 C   0  0  0  0  0  0  0  0  0  0  0  0
  188.8660  178.5330  141.6280 O   0  0  0  0  0  0  0  0  0  0  0  0
  190.9390  177.1970  140.4700 C   0  0  0  0  0  1  0  0  0  0  0  0
  190.3510  176.6640  141.7660 C   0  0  1  0  0  3  0  0  0  0  0  0
  191.3930  176.6280  142.8800 C   0  0  0  0  0  2  0  0  0  0  0  0
  191.6950  177.9160  143.3280 O   0  0  0  0  0  1  0  0  0  0  0  0
  1  8  2  0  0  0  0
  1  2  1  0  0  0  0
  2 11  1  0  0  0  0
  3  4  2  0  0  0  0
  5  6  1  0  0  0  0
  7  2  2  0  0  0  0
  7 10  1  0  0  0  0
  8  3  1  0  0  0  0
  9  5  1  0  0  0  0
 10  9  2  0  0  0  0
 11  4  1  0  0  0  0
 11  5  2  0  0  0  0
 12  1  1  0  0  0  0
 13 15  2  0  0  0  0
 13 16  1  0  0  0  0
 14 17  2  0  0  0  0
 14 12  1  0  0  0  0
 15 14  1  0  0  0  0
 16 18  1  0  0  0  0
 18 12  2  0  0  0  0
 19 10  1  0  0  0  0
 20 19  1  0  0  0  0
 21 20  2  0  0  0  0
 23 22  1  6  0  0  0
 23 20  1  0  0  0  0
 23 24  1  0  0  0  0
 24 25  1  0  0  0  0
M  END
>  <MODEL>
4

>  <REMARK>
 VINA RESULT:      -9.4      2.707      4.911
  Name = 
  4 active torsions:
  status: ('A' for Active; 'I' for Inactive)
    1  A    between atoms: C_1  and  C_5
    2  A    between atoms: C_2  and  C_21
    3  A    between atoms: N_6  and  C_23
    4  A    between atoms: C_15  and  C_21
                            x       y       z     vdW  Elec       q    Type
                         _______ _______ _______ _____ _____    ______ ____

>  <TORSDO>
F 4

$$$$
=
 OpenBabel10262419443D

 25 27  0  0  1  0  0  0  0  0999 V2000
  187.3260  177.8800  145.8430 C   0  0  0  0  0  0  0  0  0  0  0  0
  186.7530  178.1280  144.5740 C   0  0  0  0  0  0  0  0  0  0  0  0
  185.1970  178.1840  146.8540 C   0  0  0  0  0  3  0  0  0  0  0  0
  184.6270  178.4140  145.6460 N   0  0  0  0  0  0  0  0  0  0  0  0
  184.7620  178.6510  143.2610 C   0  0  0  0  0  0  0  0  0  0  0  0
  183.3020  178.9300  143.1520 C   0  0  0  0  0  1  0  0  0  0  0  0
  187.5110  178.1450  143.3940 C   0  0  0  0  0  3  0  0  0  0  0  0
  186.5260  177.9240  146.9430 N   0  0  0  0  0  0  0  0  0  0  0  0
  185.5380  178.6520  142.1000 C   0  0  0  0  0  3  0  0  0  0  0  0
  186.9150  178.4030  142.1580 C   0  0  0  0  0  0  0  0  0  0  0  0
  185.3660  178.3960  144.5050 C   0  0  0  0  0  0  0  0  0  0  0  0
  188.7680  177.5710  146.0350 C   0  0  0  0  0  0  0  0  0  0  0  0
  191.4100  176.6390  146.5950 C   0  0  0  0  0  3  0  0  0  0  0  0
  189.3950  177.6520  147.3730 C   0  0  0  0  0  0  0  0  0  0  0  0
  190.6890  177.0790  147.5820 N   0  0  0  0  0  0  0  0  0  0  0  0
  190.9710  176.7810  145.1620 C   0  0  0  0  0  2  0  0  0  0  0  0
  188.7930  178.1940  148.3380 O   0  0  0  0  0  0  0  0  0  0  0  0
  189.5040  177.0940  145.0250 C   0  0  0  0  0  3  0  0  0  0  0  0
  187.7360  178.4020  140.9830 N   0  0  0  0  0  2  0  0  0  0  0  0
  188.8700  177.5620  140.7290 C   0  0  0  0  0  0  0  0  0  0  0  0
  189.2430  176.7010  141.5710 O   0  0  0  0  0  0  0  0  0  0  0  0
  190.3540  176.4390  139.0700 C   0  0  0  0  0  1  0  0  0  0  0  0
  189.5980  177.7080  139.4300 C   0  0  1  0  0  3  0  0  0  0  0  0
  188.6700  178.1450  138.3020 C   0  0  0  0  0  2  0  0  0  0  0  0
  188.9650  179.4460  137.8840 O   0  0  0  0  0  1  0  0  0  0  0  0
  1 12  1  0  0  0  0
  1  8  1  0  0  0  0
  2  1  2  0  0  0  0
  3  8  2  0  0  0  0
  4  3  1  0  0  0  0
  5 11  1  0  0  0  0
  6  5  1  0  0  0  0
  7  2  1  0  0  0  0
  9 10  1  0  0  0  0
  9  5  2  0  0  0  0
 10  7  2  0  0  0  0
 11  2  1  0  0  0  0
 11  4  2  0  0  0  0
 12 14  1  0  0  0  0
 13 15  2  0  0  0  0
 14 15  1  0  0  0  0
 14 17  2  0  0  0  0
 16 13  1  0  0  0  0
 18 16  1  0  0  0  0
 18 12  2  0  0  0  0
 19 10  1  0  0  0  0
 20 19  1  0  0  0  0
 20 21  2  0  0  0  0
 23 22  1  6  0  0  0
 23 20  1  0  0  0  0
 24 23  1  0  0  0  0
 25 24  1  0  0  0  0
M  END
>  <MODEL>
5

>  <REMARK>
 VINA RESULT:      -9.3      1.626      4.672
  Name = 
  4 active torsions:
  status: ('A' for Active; 'I' for Inactive)
    1  A    between atoms: C_1  and  C_5
    2  A    between atoms: C_2  and  C_21
    3  A    between atoms: N_6  and  C_23
    4  A    between atoms: C_15  and  C_21
                            x       y       z     vdW  Elec       q    Type
                         _______ _______ _______ _____ _____    ______ ____

>  <TORSDO>
F 4

$$$$
=
 OpenBabel10262419443D

 25 27  0  0  1  0  0  0  0  0999 V2000
  187.6740  177.8430  144.7010 C   0  0  0  0  0  0  0  0  0  0  0  0
  186.6690  178.1560  143.7560 C   0  0  0  0  0  0  0  0  0  0  0  0
  186.0840  178.0690  146.4530 C   0  0  0  0  0  3  0  0  0  0  0  0
  185.1050  178.3610  145.5630 N   0  0  0  0  0  0  0  0  0  0  0  0
  184.3380  178.7330  143.3190 C   0  0  0  0  0  0  0  0  0  0  0  0
  182.9460  179.0030  143.7810 C   0  0  0  0  0  1  0  0  0  0  0  0
  186.9290  178.2470  142.3810 C   0  0  0  0  0  3  0  0  0  0  0  0
  187.3460  177.8170  146.0220 N   0  0  0  0  0  0  0  0  0  0  0  0
  184.6210  178.8070  141.9530 C   0  0  0  0  0  3  0  0  0  0  0  0
  185.9150  178.5680  141.4760 C   0  0  0  0  0  0  0  0  0  0  0  0
  185.3610  178.4140  144.2290 C   0  0  0  0  0  0  0  0  0  0  0  0
  189.0790  177.5380  144.3200 C   0  0  0  0  0  0  0  0  0  0  0  0
  191.6710  177.0730  143.2130 C   0  0  0  0  0  3  0  0  0  0  0  0
  189.4030  176.3750  143.4640 C   0  0  0  0  0  0  0  0  0  0  0  0
  190.7050  176.2710  142.8800 N   0  0  0  0  0  0  0  0  0  0  0  0
  191.5100  178.1070  144.2950 C   0  0  0  0  0  2  0  0  0  0  0  0
  188.5400  175.4910  143.2190 O   0  0  0  0  0  0  0  0  0  0  0  0
  190.0700  178.3770  144.6420 C   0  0  0  0  0  3  0  0  0  0  0  0
  186.2350  178.6410  140.0800 N   0  0  0  0  0  2  0  0  0  0  0  0
  187.4680  178.2520  139.4610 C   0  0  0  0  0  0  0  0  0  0  0  0
  188.4170  177.7770  140.1420 O   0  0  0  0  0  0  0  0  0  0  0  0
  189.0580  178.6030  137.5730 C   0  0  0  0  0  1  0  0  0  0  0  0
  187.6080  178.3990  137.9790 C   0  0  1  0  0  3  0  0  0  0  0  0
  186.9750  177.2320  137.2280 C   0  0  0  0  0  2  0  0  0  0  0  0
  187.6210  176.0300  137.5290 O   0  0  0  0  0  1  0  0  0  0  0  0
  1  8  1  0  0  0  0
  2 11  1  0  0  0  0
  2  1  2  0  0  0  0
  4  3  1  0  0  0  0
  5  6  1  0  0  0  0
  5 11  1  0  0  0  0
  7  2  1  0  0  0  0
  8  3  2  0  0  0  0
  9  5  2  0  0  0  0
 10  9  1  0  0  0  0
 10  7  2  0  0  0  0
 11  4  2  0  0  0  0
 12 18  2  0  0  0  0
 12  1  1  0  0  0  0
 13 16  1  0  0  0  0
 14 12  1  0  0  0  0
 15 13  2  0  0  0  0
 15 14  1  0  0  0  0
 16 18  1  0  0  0  0
 17 14  2  0  0  0  0
 19 10  1  0  0  0  0
 20 19  1  0  0  0  0
 20 21  2  0  0  0  0
 23 22  1  1  0  0  0
 23 20  1  0  0  0  0
 24 25  1  0  0  0  0
 24 23  1  0  0  0  0
M  END
>  <MODEL>
6

>  <REMARK>
 VINA RESULT:      -9.2      2.231      5.047
  Name = 
  4 active torsions:
  status: ('A' for Active; 'I' for Inactive)
    1  A    between atoms: C_1  and  C_5
    2  A    between atoms: C_2  and  C_21
    3  A    between atoms: N_6  and  C_23
    4  A    between atoms: C_15  and  C_21
                            x       y       z     vdW  Elec       q    Type
                         _______ _______ _______ _____ _____    ______ ____

>  <TORSDO>
F 4

$$$$
=
 OpenBabel10262419443D

 25 27  0  0  1  0  0  0  0  0999 V2000
  188.0460  177.7730  144.7710 C   0  0  0  0  0  0  0  0  0  0  0  0
  186.8260  178.1410  144.1570 C   0  0  0  0  0  0  0  0  0  0  0  0
  186.9880  177.8520  146.8980 C   0  0  0  0  0  3  0  0  0  0  0  0
  185.8070  178.1950  146.3280 N   0  0  0  0  0  0  0  0  0  0  0  0
  184.4680  178.7200  144.4060 C   0  0  0  0  0  0  0  0  0  0  0  0
  183.2540  178.9390  145.2450 C   0  0  0  0  0  1  0  0  0  0  0  0
  186.7070  178.3340  142.7730 C   0  0  0  0  0  3  0  0  0  0  0  0
  188.0850  177.6470  146.1260 N   0  0  0  0  0  0  0  0  0  0  0  0
  184.3730  178.8950  143.0240 C   0  0  0  0  0  3  0  0  0  0  0  0
  185.4890  178.7080  142.2000 C   0  0  0  0  0  0  0  0  0  0  0  0
  185.6960  178.3480  144.9820 C   0  0  0  0  0  0  0  0  0  0  0  0
  189.2940  177.5130  144.0060 C   0  0  0  0  0  0  0  0  0  0  0  0
  191.4750  177.1180  142.2040 C   0  0  0  0  0  3  0  0  0  0  0  0
  189.4140  176.3370  143.1170 C   0  0  0  0  0  0  0  0  0  0  0  0
  190.4950  176.2660  142.1820 N   0  0  0  0  0  0  0  0  0  0  0  0
  191.5830  178.1810  143.2640 C   0  0  0  0  0  2  0  0  0  0  0  0
  188.5610  175.4100  143.1500 O   0  0  0  0  0  0  0  0  0  0  0  0
  190.2930  178.4030  144.0090 C   0  0  0  0  0  3  0  0  0  0  0  0
  185.4220  178.8850  140.7790 N   0  0  0  0  0  2  0  0  0  0  0  0
  184.4830  178.2800  139.8820 C   0  0  0  0  0  0  0  0  0  0  0  0
  183.5830  177.5060  140.3070 O   0  0  0  0  0  0  0  0  0  0  0  0
  185.9180  178.1920  137.8450 C   0  0  0  0  0  1  0  0  0  0  0  0
  184.5720  178.5980  138.4230 C   0  0  1  0  0  3  0  0  0  0  0  0
  183.4180  177.9870  137.6340 C   0  0  0  0  0  2  0  0  0  0  0  0
  182.3100  178.8390  137.6230 O   0  0  0  0  0  1  0  0  0  0  0  0
  1  8  1  0  0  0  0
  2  1  2  0  0  0  0
  2 11  1  0  0  0  0
  4  3  1  0  0  0  0
  5 11  1  0  0  0  0
  5  6  1  0  0  0  0
  7  2  1  0  0  0  0
  8  3  2  0  0  0  0
  9  5  2  0  0  0  0
 10  7  2  0  0  0  0
 10  9  1  0  0  0  0
 11  4  2  0  0  0  0
 12 18  2  0  0  0  0
 12  1  1  0  0  0  0
 13 16  1  0  0  0  0
 14 17  2  0  0  0  0
 14 12  1  0  0  0  0
 15 13  2  0  0  0  0
 15 14  1  0  0  0  0
 16 18  1  0  0  0  0
 19 10  1  0  0  0  0
 20 21  2  0  0  0  0
 20 19  1  0  0  0  0
 23 22  1  6  0  0  0
 23 20  1  0  0  0  0
 24 23  1  0  0  0  0
 25 24  1  0  0  0  0
M  END
>  <MODEL>
7

>  <REMARK>
 VINA RESULT:      -9.1      2.989      5.650
  Name = 
  4 active torsions:
  status: ('A' for Active; 'I' for Inactive)
    1  A    between atoms: C_1  and  C_5
    2  A    between atoms: C_2  and  C_21
    3  A    between atoms: N_6  and  C_23
    4  A    between atoms: C_15  and  C_21
                            x       y       z     vdW  Elec       q    Type
                         _______ _______ _______ _____ _____    ______ ____

>  <TORSDO>
F 4

$$$$
=
 OpenBabel10262419443D

 25 27  0  0  1  0  0  0  0  0999 V2000
  187.5220  178.2900  140.8560 C   0  0  0  0  0  0  0  0  0  0  0  0
  188.8230  178.0130  141.3360 C   0  0  0  0  0  0  0  0  0  0  0  0
  188.3280  178.1530  138.6240 C   0  0  0  0  0  3  0  0  0  0  0  0
  189.5790  177.8760  139.0640 N   0  0  0  0  0  0  0  0  0  0  0  0
  191.1630  177.5290  140.8340 C   0  0  0  0  0  0  0  0  0  0  0  0
  192.2740  177.2960  139.8680 C   0  0  0  0  0  1  0  0  0  0  0  0
  189.1280  177.9670  142.7050 C   0  0  0  0  0  3  0  0  0  0  0  0
  187.3210  178.3570  139.5110 N   0  0  0  0  0  0  0  0  0  0  0  0
  191.4380  177.4790  142.2020 C   0  0  0  0  0  3  0  0  0  0  0  0
  190.4260  177.7010  143.1450 C   0  0  0  0  0  0  0  0  0  0  0  0
  189.8560  177.8030  140.3930 C   0  0  0  0  0  0  0  0  0  0  0  0
  186.3560  178.5110  141.7520 C   0  0  0  0  0  0  0  0  0  0  0  0
  183.9380  178.6320  143.2680 C   0  0  0  0  0  3  0  0  0  0  0  0
  185.1050  179.1130  141.2430 C   0  0  0  0  0  0  0  0  0  0  0  0
  183.9170  179.0490  142.0370 N   0  0  0  0  0  0  0  0  0  0  0  0
  185.2220  178.2710  143.9640 C   0  0  0  0  0  2  0  0  0  0  0  0
  185.0630  179.6550  140.1060 O   0  0  0  0  0  0  0  0  0  0  0  0
  186.3690  178.0600  143.0110 C   0  0  0  0  0  3  0  0  0  0  0  0
  190.6810  177.6600  144.5560 N   0  0  0  0  0  2  0  0  0  0  0  0
  191.3890  176.6390  145.2710 C   0  0  0  0  0  0  0  0  0  0  0  0
  191.8810  175.6460  144.6700 O   0  0  0  0  0  0  0  0  0  0  0  0
  190.2240  177.0030  147.4440 C   0  0  0  0  0  1  0  0  0  0  0  0
  191.5580  176.7810  146.7500 C   0  0  1  0  0  3  0  0  0  0  0  0
  192.3130  175.6020  147.3540 C   0  0  0  0  0  2  0  0  0  0  0  0
  193.0630  176.0000  148.4650 O   0  0  0  0  0  1  0  0  0  0  0  0
  1  2  1  0  0  0  0
  1 12  1  0  0  0  0
  2  7  1  0  0  0  0
  3  4  2  0  0  0  0
  3  8  1  0  0  0  0
  4 11  1  0  0  0  0
  5  9  2  0  0  0  0
  6  5  1  0  0  0  0
  7 10  2  0  0  0  0
  8  1  2  0  0  0  0
  9 10  1  0  0  0  0
 10 19  1  0  0  0  0
 11  5  1  0  0  0  0
 11  2  2  0  0  0  0
 12 18  2  0  0  0  0
 13 16  1  0  0  0  0
 14 12  1  0  0  0  0
 14 15  1  0  0  0  0
 15 13  2  0  0  0  0
 17 14  2  0  0  0  0
 18 16  1  0  0  0  0
 19 20  1  0  0  0  0
 20 23  1  0  0  0  0
 21 20  2  0  0  0  0
 23 24  1  0  0  0  0
 23 22  1  1  0  0  0
 24 25  1  0  0  0  0
M  END
>  <MODEL>
8

>  <REMARK>
 VINA RESULT:      -9.1      2.844      5.850
  Name = 
  4 active torsions:
  status: ('A' for Active; 'I' for Inactive)
    1  A    between atoms: C_1  and  C_5
    2  A    between atoms: C_2  and  C_21
    3  A    between atoms: N_6  and  C_23
    4  A    between atoms: C_15  and  C_21
                            x       y       z     vdW  Elec       q    Type
                         _______ _______ _______ _____ _____    ______ ____

>  <TORSDO>
F 4

$$$$
=
 OpenBabel10262419443D

 25 27  0  0  1  0  0  0  0  0999 V2000
  186.8540  177.8320  145.3560 C   0  0  0  0  0  0  0  0  0  0  0  0
  188.0030  177.6800  144.5470 C   0  0  0  0  0  0  0  0  0  0  0  0
  188.1390  177.2610  147.2720 C   0  0  0  0  0  3  0  0  0  0  0  0
  189.2550  177.1210  146.5150 N   0  0  0  0  0  0  0  0  0  0  0  0
  190.3820  177.1530  144.3960 C   0  0  0  0  0  0  0  0  0  0  0  0
  191.6830  176.7780  145.0210 C   0  0  0  0  0  1  0  0  0  0  0  0
  187.9720  177.8480  143.1540 C   0  0  0  0  0  3  0  0  0  0  0  0
  186.9610  177.6100  146.6950 N   0  0  0  0  0  0  0  0  0  0  0  0
  190.3270  177.3350  143.0130 C   0  0  0  0  0  3  0  0  0  0  0  0
  189.1240  177.6800  142.3830 C   0  0  0  0  0  0  0  0  0  0  0  0
  189.2200  177.3170  145.1700 C   0  0  0  0  0  0  0  0  0  0  0  0
  185.5260  178.2270  144.8150 C   0  0  0  0  0  0  0  0  0  0  0  0
  183.0880  179.3680  143.8580 C   0  0  0  0  0  3  0  0  0  0  0  0
  184.4560  178.7280  145.7050 C   0  0  0  0  0  0  0  0  0  0  0  0
  183.3080  179.3660  145.1380 N   0  0  0  0  0  0  0  0  0  0  0  0
  183.9790  178.6280  142.8960 C   0  0  0  0  0  2  0  0  0  0  0  0
  184.5560  178.6280  146.9570 O   0  0  0  0  0  0  0  0  0  0  0  0
  185.3090  178.2520  143.4950 C   0  0  0  0  0  3  0  0  0  0  0  0
  189.0370  177.8700  140.9640 N   0  0  0  0  0  2  0  0  0  0  0  0
  189.6450  177.0580  139.9510 C   0  0  0  0  0  0  0  0  0  0  0  0
  190.3340  176.0470  140.2540 O   0  0  0  0  0  0  0  0  0  0  0  0
  189.0560  178.8820  138.3570 C   0  0  0  0  0  1  0  0  0  0  0  0
  189.4290  177.4170  138.5150 C   0  0  1  0  0  3  0  0  0  0  0  0
  190.6290  177.0500  137.6480 C   0  0  0  0  0  2  0  0  0  0  0  0
  190.2380  176.2850  136.5460 O   0  0  0  0  0  1  0  0  0  0  0  0
  1  8  1  0  0  0  0
  2 11  1  0  0  0  0
  2  1  2  0  0  0  0
  4  3  1  0  0  0  0
  5  6  1  0  0  0  0
  5 11  1  0  0  0  0
  7  2  1  0  0  0  0
  8  3  2  0  0  0  0
  9  5  2  0  0  0  0
 10  9  1  0  0  0  0
 10  7  2  0  0  0  0
 11  4  2  0  0  0  0
 12  1  1  0  0  0  0
 12 14  1  0  0  0  0
 13 15  2  0  0  0  0
 14 17  2  0  0  0  0
 15 14  1  0  0  0  0
 16 18  1  0  0  0  0
 16 13  1  0  0  0  0
 18 12  2  0  0  0  0
 19 10  1  0  0  0  0
 20 21  2  0  0  0  0
 20 19  1  0  0  0  0
 23 22  1  1  0  0  0
 23 20  1  0  0  0  0
 24 23  1  0  0  0  0
 25 24  1  0  0  0  0
M  END
>  <MODEL>
9

>  <REMARK>
 VINA RESULT:      -8.9      1.183      1.331
  Name = 
  4 active torsions:
  status: ('A' for Active; 'I' for Inactive)
    1  A    between atoms: C_1  and  C_5
    2  A    between atoms: C_2  and  C_21
    3  A    between atoms: N_6  and  C_23
    4  A    between atoms: C_15  and  C_21
                            x       y       z     vdW  Elec       q    Type
                         _______ _______ _______ _____ _____    ______ ____

>  <TORSDO>
F 4

$$$$
