=
 OpenBabel10262420453D

 28 30  0  0  1  0  0  0  0  0999 V2000
  183.6060  179.1290  142.0830 C   0  0  0  0  0  2  0  0  0  0  0  0
  183.0650  178.6070  144.4670 C   0  0  0  0  0  1  0  0  0  0  0  0
  184.8340  180.2800  143.9320 C   0  0  0  0  0  1  0  0  0  0  0  0
  184.1780  178.9750  143.4930 C   0  0  0  0  0  0  0  0  0  0  0  0
  185.2220  177.8540  143.4400 C   0  0  0  0  0  2  0  0  0  0  0  0
  186.7820  177.7760  145.6160 C   0  0  0  0  0  0  0  0  0  0  0  0
  186.0800  177.8050  144.6360 C   0  0  0  0  0  0  0  0  0  0  0  0
  187.6350  177.7530  146.8070 C   0  0  0  0  0  2  0  0  0  0  0  0
  190.8580  177.7400  144.8160 C   0  0  0  0  0  3  0  0  0  0  0  0
  189.0520  177.5080  146.4160 C   0  0  0  0  0  0  0  0  0  0  0  0
  191.2150  176.5130  146.8740 C   0  0  0  0  0  0  0  0  0  0  0  0
  189.5350  177.9900  145.1940 C   0  0  0  0  0  3  0  0  0  0  0  0
  189.8930  176.7630  147.2540 C   0  0  0  0  0  3  0  0  0  0  0  0
  192.0670  175.7580  147.7260 N   0  0  0  0  0  1  0  0  0  0  0  0
  191.6980  177.0020  145.6560 C   0  0  0  0  0  3  0  0  0  0  0  0
  182.1300  177.9560  140.4590 C   0  0  0  0  0  2  0  0  0  0  0  0
  183.5180  177.7770  139.8800 C   0  0  2  0  0  3  0  0  0  0  0  0
  183.3070  177.7910  141.3990 C   0  0  1  0  0  3  0  0  0  0  0  0
  184.0840  179.3560  139.1480 S   0  0  0  0  0  0  0  0  0  0  0  0
  185.7510  178.7140  138.7970 C   0  0  0  0  0  2  0  0  0  0  0  0
  186.5070  178.5620  140.0340 N   0  0  0  0  0  0  0  0  0  0  0  0
  187.7800  178.2980  140.1290 C   0  0  0  0  0  0  0  0  0  0  0  0
  190.5500  177.4960  140.4820 C   0  0  0  0  0  2  0  0  0  0  0  0
  188.3620  178.1450  141.5010 C   0  0  0  0  0  2  0  0  0  0  0  0
  188.4080  178.7580  137.8260 N   0  0  0  0  0  2  0  0  0  0  0  0
  188.6980  178.2080  138.9600 C   0  0  0  0  0  0  0  0  0  0  0  0
  189.9620  177.4100  139.0760 C   0  0  0  0  0  2  0  0  0  0  0  0
  189.4950  177.1220  141.5180 C   0  0  0  0  0  2  0  0  0  0  0  0
  1  4  1  0  0  0  0
  4  3  1  0  0  0  0
  4  2  1  0  0  0  0
  5  4  1  0  0  0  0
  5  7  1  0  0  0  0
  6  8  1  0  0  0  0
  7  6  3  0  0  0  0
  9 12  2  0  0  0  0
  9 15  1  0  0  0  0
 10  8  1  0  0  0  0
 10 13  2  0  0  0  0
 11 13  1  0  0  0  0
 11 14  1  0  0  0  0
 12 10  1  0  0  0  0
 15 11  2  0  0  0  0
 16 18  1  0  0  0  0
 17 19  1  1  0  0  0
 17 16  1  0  0  0  0
 17 18  1  0  0  0  0
 18  1  1  1  0  0  0
 20 19  1  0  0  0  0
 20 21  1  0  0  0  0
 21 22  2  0  0  0  0
 22 24  1  0  0  0  0
 23 28  1  0  0  0  0
 24 28  1  0  0  0  0
 25 26  2  0  0  0  0
 26 27  1  0  0  0  0
 26 22  1  0  0  0  0
 27 23  1  0  0  0  0
M  END
>  <MODEL>
1

>  <REMARK>
 VINA RESULT:      -8.0      0.000      0.000
  Name = 
  9 active torsions:
  status: ('A' for Active; 'I' for Inactive)
    1  A    between atoms: C_1  and  N_2
    2  A    between atoms: C_1  and  S_26
    3  A    between atoms: C_5  and  C_21
    4  A    between atoms: C_5  and  C_27
    5  A    between atoms: C_9  and  C_18
    6  A    between atoms: C_14  and  C_18
    7  A    between atoms: C_19  and  S_26
    8  A    between atoms: C_20  and  C_25
    9  A    between atoms: C_20  and  C_27
                            x       y       z     vdW  Elec       q    Type
                         _______ _______ _______ _____ _____    ______ ____

>  <TORSDO>
F 9

$$$$
=
 OpenBabel10262420453D

 28 30  0  0  1  0  0  0  0  0999 V2000
  189.9910  177.0010  145.3400 C   0  0  0  0  0  2  0  0  0  0  0  0
  190.4770  178.4010  147.3530 C   0  0  0  0  0  1  0  0  0  0  0  0
  191.3290  176.0610  147.2310 C   0  0  0  0  0  1  0  0  0  0  0  0
  190.1790  176.9900  146.8570 C   0  0  0  0  0  0  0  0  0  0  0  0
  188.8720  176.4830  147.4740 C   0  0  0  0  0  2  0  0  0  0  0  0
  186.7840  178.0940  147.0070 C   0  0  0  0  0  0  0  0  0  0  0  0
  187.7270  177.3730  147.2200 C   0  0  0  0  0  0  0  0  0  0  0  0
  185.6330  178.9610  146.7400 C   0  0  0  0  0  2  0  0  0  0  0  0
  185.5540  178.0930  143.0540 C   0  0  0  0  0  3  0  0  0  0  0  0
  185.1380  178.7400  145.3520 C   0  0  0  0  0  0  0  0  0  0  0  0
  183.3490  178.8410  143.7200 C   0  0  0  0  0  0  0  0  0  0  0  0
  186.0130  178.2790  144.3620 C   0  0  0  0  0  3  0  0  0  0  0  0
  183.8050  179.0260  145.0280 C   0  0  0  0  0  3  0  0  0  0  0  0
  181.9960  179.1310  143.3920 N   0  0  0  0  0  1  0  0  0  0  0  0
  184.2230  178.3730  142.7330 C   0  0  0  0  0  3  0  0  0  0  0  0
  191.4820  178.3560  143.8780 C   0  0  0  0  0  2  0  0  0  0  0  0
  190.1390  178.4150  143.1780 C   0  0  2  0  0  3  0  0  0  0  0  0
  190.2150  178.3800  144.7090 C   0  0  1  0  0  3  0  0  0  0  0  0
  189.8000  176.8080  142.3700 S   0  0  0  0  0  0  0  0  0  0  0  0
  188.6460  177.5410  141.1670 C   0  0  0  0  0  2  0  0  0  0  0  0
  189.2980  177.7010  139.8720 N   0  0  0  0  0  0  0  0  0  0  0  0
  188.7030  177.9370  138.7370 C   0  0  0  0  0  0  0  0  0  0  0  0
  187.4900  178.2440  136.1150 C   0  0  0  0  0  2  0  0  0  0  0  0
  189.5550  178.0330  137.5080 C   0  0  0  0  0  2  0  0  0  0  0  0
  186.5230  178.5710  139.6070 N   0  0  0  0  0  2  0  0  0  0  0  0
  187.2410  178.1860  138.6030 C   0  0  0  0  0  0  0  0  0  0  0  0
  186.5680  177.9250  137.2890 C   0  0  0  0  0  2  0  0  0  0  0  0
  188.8180  177.5120  136.2750 C   0  0  0  0  0  2  0  0  0  0  0  0
  1  4  1  0  0  0  0
  4  3  1  0  0  0  0
  4  2  1  0  0  0  0
  4  5  1  0  0  0  0
  6  7  3  0  0  0  0
  7  5  1  0  0  0  0
  8  6  1  0  0  0  0
  9 12  1  0  0  0  0
 10  8  1  0  0  0  0
 11 13  2  0  0  0  0
 12 10  2  0  0  0  0
 13 10  1  0  0  0  0
 14 11  1  0  0  0  0
 15  9  2  0  0  0  0
 15 11  1  0  0  0  0
 16 18  1  0  0  0  0
 17 19  1  6  0  0  0
 17 16  1  0  0  0  0
 17 18  1  0  0  0  0
 18  1  1  6  0  0  0
 20 19  1  0  0  0  0
 21 20  1  0  0  0  0
 22 21  2  0  0  0  0
 23 28  1  0  0  0  0
 23 27  1  0  0  0  0
 24 22  1  0  0  0  0
 26 22  1  0  0  0  0
 26 25  2  0  0  0  0
 27 26  1  0  0  0  0
 28 24  1  0  0  0  0
M  END
>  <MODEL>
2

>  <REMARK>
 VINA RESULT:      -7.7      2.536      6.162
  Name = 
  9 active torsions:
  status: ('A' for Active; 'I' for Inactive)
    1  A    between atoms: C_1  and  N_2
    2  A    between atoms: C_1  and  S_26
    3  A    between atoms: C_5  and  C_21
    4  A    between atoms: C_5  and  C_27
    5  A    between atoms: C_9  and  C_18
    6  A    between atoms: C_14  and  C_18
    7  A    between atoms: C_19  and  S_26
    8  A    between atoms: C_20  and  C_25
    9  A    between atoms: C_20  and  C_27
                            x       y       z     vdW  Elec       q    Type
                         _______ _______ _______ _____ _____    ______ ____

>  <TORSDO>
F 9

$$$$
=
 OpenBabel10262420453D

 28 30  0  0  1  0  0  0  0  0999 V2000
  189.9800  177.7840  145.7840 C   0  0  0  0  0  2  0  0  0  0  0  0
  190.0210  178.4110  148.2030 C   0  0  0  0  0  1  0  0  0  0  0  0
  191.0900  176.2880  147.4510 C   0  0  0  0  0  1  0  0  0  0  0  0
  189.9320  177.2520  147.2170 C   0  0  0  0  0  0  0  0  0  0  0  0
  188.5960  176.5210  147.3870 C   0  0  0  0  0  2  0  0  0  0  0  0
  186.4770  178.0760  146.8750 C   0  0  0  0  0  0  0  0  0  0  0  0
  187.4290  177.3740  147.1110 C   0  0  0  0  0  0  0  0  0  0  0  0
  185.3260  178.9320  146.5760 C   0  0  0  0  0  2  0  0  0  0  0  0
  185.4490  178.1870  142.8640 C   0  0  0  0  0  3  0  0  0  0  0  0
  184.9050  178.7460  145.1590 C   0  0  0  0  0  0  0  0  0  0  0  0
  183.1950  178.8560  143.4450 C   0  0  0  0  0  0  0  0  0  0  0  0
  185.8390  178.3400  144.1980 C   0  0  0  0  0  3  0  0  0  0  0  0
  183.5820  179.0090  144.7790 C   0  0  0  0  0  3  0  0  0  0  0  0
  181.8510  179.1230  143.0610 N   0  0  0  0  0  1  0  0  0  0  0  0
  184.1270  178.4440  142.4880 C   0  0  0  0  0  3  0  0  0  0  0  0
  191.0800  176.2740  144.1400 C   0  0  0  0  0  2  0  0  0  0  0  0
  191.2570  177.6530  143.5380 C   0  0  2  0  0  3  0  0  0  0  0  0
  191.2900  177.4610  145.0590 C   0  0  1  0  0  3  0  0  0  0  0  0
  189.6610  178.2300  142.8530 S   0  0  0  0  0  0  0  0  0  0  0  0
  189.8970  177.3410  141.2820 C   0  0  0  0  0  2  0  0  0  0  0  0
  188.8570  177.7100  140.3290 N   0  0  0  0  0  0  0  0  0  0  0  0
  188.8750  177.4840  139.0460 C   0  0  0  0  0  0  0  0  0  0  0  0
  188.8890  177.2400  136.1510 C   0  0  0  0  0  2  0  0  0  0  0  0
  187.7180  177.9770  138.2320 C   0  0  0  0  0  2  0  0  0  0  0  0
  190.7000  175.8780  138.9970 N   0  0  0  0  0  2  0  0  0  0  0  0
  189.9410  176.7060  138.3560 C   0  0  0  0  0  0  0  0  0  0  0  0
  190.1870  176.9290  136.8940 C   0  0  0  0  0  2  0  0  0  0  0  0
  188.1570  178.3920  136.8290 C   0  0  0  0  0  2  0  0  0  0  0  0
  1  4  1  0  0  0  0
  4  5  1  0  0  0  0
  4  3  1  0  0  0  0
  4  2  1  0  0  0  0
  6  7  3  0  0  0  0
  7  5  1  0  0  0  0
  8  6  1  0  0  0  0
  9 12  1  0  0  0  0
 10  8  1  0  0  0  0
 11 13  2  0  0  0  0
 12 10  2  0  0  0  0
 13 10  1  0  0  0  0
 14 11  1  0  0  0  0
 15  9  2  0  0  0  0
 15 11  1  0  0  0  0
 16 18  1  0  0  0  0
 17 19  1  1  0  0  0
 17 16  1  0  0  0  0
 17 18  1  0  0  0  0
 18  1  1  1  0  0  0
 20 19  1  0  0  0  0
 21 20  1  0  0  0  0
 22 21  2  0  0  0  0
 23 28  1  0  0  0  0
 23 27  1  0  0  0  0
 24 22  1  0  0  0  0
 26 25  2  0  0  0  0
 26 22  1  0  0  0  0
 27 26  1  0  0  0  0
 28 24  1  0  0  0  0
M  END
>  <MODEL>
3

>  <REMARK>
 VINA RESULT:      -7.7      2.491      6.265
  Name = 
  9 active torsions:
  status: ('A' for Active; 'I' for Inactive)
    1  A    between atoms: C_1  and  N_2
    2  A    between atoms: C_1  and  S_26
    3  A    between atoms: C_5  and  C_21
    4  A    between atoms: C_5  and  C_27
    5  A    between atoms: C_9  and  C_18
    6  A    between atoms: C_14  and  C_18
    7  A    between atoms: C_19  and  S_26
    8  A    between atoms: C_20  and  C_25
    9  A    between atoms: C_20  and  C_27
                            x       y       z     vdW  Elec       q    Type
                         _______ _______ _______ _____ _____    ______ ____

>  <TORSDO>
F 9

$$$$
=
 OpenBabel10262420453D

 28 30  0  0  1  0  0  0  0  0999 V2000
  189.5310  177.8520  145.7150 C   0  0  0  0  0  2  0  0  0  0  0  0
  191.6940  176.6070  145.8460 C   0  0  0  0  0  1  0  0  0  0  0  0
  191.4590  178.5280  144.2750 C   0  0  0  0  0  1  0  0  0  0  0  0
  190.7380  177.3500  144.9210 C   0  0  0  0  0  0  0  0  0  0  0  0
  190.2090  176.4010  143.8400 C   0  0  0  0  0  2  0  0  0  0  0  0
  189.1260  177.6890  141.7550 C   0  0  0  0  0  0  0  0  0  0  0  0
  189.6170  177.1050  142.6900 C   0  0  0  0  0  0  0  0  0  0  0  0
  188.5240  178.4060  140.6280 C   0  0  0  0  0  2  0  0  0  0  0  0
  189.3900  178.1320  136.9510 C   0  0  0  0  0  3  0  0  0  0  0  0
  189.0810  177.8970  139.3440 C   0  0  0  0  0  0  0  0  0  0  0  0
  190.2710  176.1910  138.1000 C   0  0  0  0  0  0  0  0  0  0  0  0
  188.8870  178.6200  138.1610 C   0  0  0  0  0  3  0  0  0  0  0  0
  189.7700  176.6780  139.3110 C   0  0  0  0  0  3  0  0  0  0  0  0
  190.9710  174.9520  138.0680 N   0  0  0  0  0  1  0  0  0  0  0  0
  190.0830  176.9180  136.9210 C   0  0  0  0  0  3  0  0  0  0  0  0
  189.2760  177.9530  148.1880 C   0  0  0  0  0  2  0  0  0  0  0  0
  187.9540  177.3870  147.7120 C   0  0  2  0  0  3  0  0  0  0  0  0
  189.2560  177.0360  146.9820 C   0  0  1  0  0  3  0  0  0  0  0  0
  186.9580  178.7190  146.9490 S   0  0  0  0  0  0  0  0  0  0  0  0
  185.8810  177.5480  146.0640 C   0  0  0  0  0  2  0  0  0  0  0  0
  185.9830  177.7540  144.6240 N   0  0  0  0  0  0  0  0  0  0  0  0
  185.0480  178.2250  143.8480 C   0  0  0  0  0  0  0  0  0  0  0  0
  182.9840  179.0530  141.9780 C   0  0  0  0  0  2  0  0  0  0  0  0
  185.3410  178.3270  142.3820 C   0  0  0  0  0  2  0  0  0  0  0  0
  183.5720  179.1050  145.5680 N   0  0  0  0  0  2  0  0  0  0  0  0
  183.7370  178.7310  144.3410 C   0  0  0  0  0  0  0  0  0  0  0  0
  182.5600  178.7510  143.4140 C   0  0  0  0  0  2  0  0  0  0  0  0
  184.0870  178.0940  141.5430 C   0  0  0  0  0  2  0  0  0  0  0  0
  3  4  1  0  0  0  0
  4  1  1  0  0  0  0
  4  2  1  0  0  0  0
  5  4  1  0  0  0  0
  6  7  3  0  0  0  0
  7  5  1  0  0  0  0
  8  6  1  0  0  0  0
  9 12  1  0  0  0  0
 10  8  1  0  0  0  0
 11 13  2  0  0  0  0
 12 10  2  0  0  0  0
 13 10  1  0  0  0  0
 14 11  1  0  0  0  0
 15  9  2  0  0  0  0
 15 11  1  0  0  0  0
 17 19  1  6  0  0  0
 17 16  1  0  0  0  0
 18  1  1  6  0  0  0
 18 17  1  0  0  0  0
 18 16  1  0  0  0  0
 20 19  1  0  0  0  0
 21 20  1  0  0  0  0
 22 26  1  0  0  0  0
 22 21  2  0  0  0  0
 23 27  1  0  0  0  0
 24 22  1  0  0  0  0
 26 25  2  0  0  0  0
 27 26  1  0  0  0  0
 28 23  1  0  0  0  0
 28 24  1  0  0  0  0
M  END
>  <MODEL>
4

>  <REMARK>
 VINA RESULT:      -7.6      2.676      7.439
  Name = 
  9 active torsions:
  status: ('A' for Active; 'I' for Inactive)
    1  A    between atoms: C_1  and  N_2
    2  A    between atoms: C_1  and  S_26
    3  A    between atoms: C_5  and  C_21
    4  A    between atoms: C_5  and  C_27
    5  A    between atoms: C_9  and  C_18
    6  A    between atoms: C_14  and  C_18
    7  A    between atoms: C_19  and  S_26
    8  A    between atoms: C_20  and  C_25
    9  A    between atoms: C_20  and  C_27
                            x       y       z     vdW  Elec       q    Type
                         _______ _______ _______ _____ _____    ______ ____

>  <TORSDO>
F 9

$$$$
=
 OpenBabel10262420453D

 28 30  0  0  1  0  0  0  0  0999 V2000
  190.7830  177.7010  144.8140 C   0  0  0  0  0  2  0  0  0  0  0  0
  189.4870  178.4320  142.8050 C   0  0  0  0  0  1  0  0  0  0  0  0
  189.8530  176.0030  143.2330 C   0  0  0  0  0  1  0  0  0  0  0  0
  190.4630  177.3950  143.3500 C   0  0  0  0  0  0  0  0  0  0  0  0
  191.7830  177.4570  142.5730 C   0  0  0  0  0  2  0  0  0  0  0  0
  191.4630  177.0850  139.9400 C   0  0  0  0  0  0  0  0  0  0  0  0
  191.6130  177.2520  141.1250 C   0  0  0  0  0  0  0  0  0  0  0  0
  191.2670  176.8830  138.5020 C   0  0  0  0  0  2  0  0  0  0  0  0
  188.2690  177.8100  136.3800 C   0  0  0  0  0  3  0  0  0  0  0  0
  189.9000  177.3230  138.1060 C   0  0  0  0  0  0  0  0  0  0  0  0
  187.7040  178.1550  138.7100 C   0  0  0  0  0  0  0  0  0  0  0  0
  189.5440  177.3750  136.7530 C   0  0  0  0  0  3  0  0  0  0  0  0
  188.9790  177.7190  139.0850 C   0  0  0  0  0  3  0  0  0  0  0  0
  186.7700  178.5560  139.7050 N   0  0  0  0  0  1  0  0  0  0  0  0
  187.3490  178.1990  137.3590 C   0  0  0  0  0  3  0  0  0  0  0  0
  191.4590  176.8110  147.0370 C   0  0  0  0  0  2  0  0  0  0  0  0
  189.9810  176.4880  146.9540 C   0  0  2  0  0  3  0  0  0  0  0  0
  190.8560  176.4500  145.6950 C   0  0  1  0  0  3  0  0  0  0  0  0
  189.0070  178.0190  147.1890 S   0  0  0  0  0  0  0  0  0  0  0  0
  187.4400  177.2140  146.7300 C   0  0  0  0  0  2  0  0  0  0  0  0
  187.1360  177.4590  145.3250 N   0  0  0  0  0  0  0  0  0  0  0  0
  186.0910  178.0860  144.8640 C   0  0  0  0  0  0  0  0  0  0  0  0
  183.7050  179.2660  143.6970 C   0  0  0  0  0  2  0  0  0  0  0  0
  185.9440  178.2030  143.3770 C   0  0  0  0  0  2  0  0  0  0  0  0
  185.3380  179.0960  146.9440 N   0  0  0  0  0  2  0  0  0  0  0  0
  185.0740  178.7500  145.7260 C   0  0  0  0  0  0  0  0  0  0  0  0
  183.6890  178.9700  145.1960 C   0  0  0  0  0  2  0  0  0  0  0  0
  184.4770  178.1800  142.9560 C   0  0  0  0  0  2  0  0  0  0  0  0
  2  4  1  0  0  0  0
  3  4  1  0  0  0  0
  4  1  1  0  0  0  0
  5  4  1  0  0  0  0
  6  7  3  0  0  0  0
  7  5  1  0  0  0  0
  8  6  1  0  0  0  0
  9 12  2  0  0  0  0
  9 15  1  0  0  0  0
 10  8  1  0  0  0  0
 10 13  2  0  0  0  0
 11 13  1  0  0  0  0
 11 14  1  0  0  0  0
 12 10  1  0  0  0  0
 15 11  2  0  0  0  0
 17 16  1  0  0  0  0
 17 19  1  6  0  0  0
 18  1  1  6  0  0  0
 18 17  1  0  0  0  0
 18 16  1  0  0  0  0
 20 19  1  0  0  0  0
 21 20  1  0  0  0  0
 22 21  2  0  0  0  0
 22 26  1  0  0  0  0
 23 27  1  0  0  0  0
 24 22  1  0  0  0  0
 26 25  2  0  0  0  0
 27 26  1  0  0  0  0
 28 24  1  0  0  0  0
 28 23  1  0  0  0  0
M  END
>  <MODEL>
5

>  <REMARK>
 VINA RESULT:      -7.5      2.790      8.062
  Name = 
  9 active torsions:
  status: ('A' for Active; 'I' for Inactive)
    1  A    between atoms: C_1  and  N_2
    2  A    between atoms: C_1  and  S_26
    3  A    between atoms: C_5  and  C_21
    4  A    between atoms: C_5  and  C_27
    5  A    between atoms: C_9  and  C_18
    6  A    between atoms: C_14  and  C_18
    7  A    between atoms: C_19  and  S_26
    8  A    between atoms: C_20  and  C_25
    9  A    between atoms: C_20  and  C_27
                            x       y       z     vdW  Elec       q    Type
                         _______ _______ _______ _____ _____    ______ ____

>  <TORSDO>
F 9

$$$$
=
 OpenBabel10262420453D

 28 30  0  0  1  0  0  0  0  0999 V2000
  189.2070  177.7860  139.3640 C   0  0  0  0  0  2  0  0  0  0  0  0
  190.2570  176.8340  137.3060 C   0  0  0  0  0  1  0  0  0  0  0  0
  189.0560  179.0150  137.1920 C   0  0  0  0  0  1  0  0  0  0  0  0
  189.0810  177.6380  137.8470 C   0  0  0  0  0  0  0  0  0  0  0  0
  187.7670  176.9000  137.5690 C   0  0  0  0  0  2  0  0  0  0  0  0
  185.5970  178.2530  138.3640 C   0  0  0  0  0  0  0  0  0  0  0  0
  186.5780  177.6490  138.0060 C   0  0  0  0  0  0  0  0  0  0  0  0
  184.3990  178.9760  138.7990 C   0  0  0  0  0  2  0  0  0  0  0  0
  185.3540  178.9470  142.4640 C   0  0  0  0  0  3  0  0  0  0  0  0
  184.2940  178.9420  140.2850 C   0  0  0  0  0  0  0  0  0  0  0  0
  182.9450  178.7580  142.2900 C   0  0  0  0  0  0  0  0  0  0  0  0
  185.4500  179.0020  141.0710 C   0  0  0  0  0  3  0  0  0  0  0  0
  183.0400  178.8140  140.8970 C   0  0  0  0  0  3  0  0  0  0  0  0
  181.6710  178.6290  142.9110 N   0  0  0  0  0  1  0  0  0  0  0  0
  184.1010  178.8260  143.0740 C   0  0  0  0  0  3  0  0  0  0  0  0
  191.2740  177.4840  140.7150 C   0  0  0  0  0  2  0  0  0  0  0  0
  190.2060  176.7860  141.5310 C   0  0  2  0  0  3  0  0  0  0  0  0
  190.1530  176.7610  139.9980 C   0  0  1  0  0  3  0  0  0  0  0  0
  189.1370  178.0340  142.3350 S   0  0  0  0  0  0  0  0  0  0  0  0
  188.4150  176.8240  143.4880 C   0  0  0  0  0  2  0  0  0  0  0  0
  189.1770  176.7920  144.7310 N   0  0  0  0  0  0  0  0  0  0  0  0
  188.7350  177.1250  145.9110 C   0  0  0  0  0  0  0  0  0  0  0  0
  187.9470  178.0440  148.5520 C   0  0  0  0  0  2  0  0  0  0  0  0
  189.6920  177.0560  147.0620 C   0  0  0  0  0  2  0  0  0  0  0  0
  186.3580  177.1600  145.4010 N   0  0  0  0  0  2  0  0  0  0  0  0
  187.3220  177.5030  146.1920 C   0  0  0  0  0  0  0  0  0  0  0  0
  187.0110  178.3540  147.3860 C   0  0  0  0  0  2  0  0  0  0  0  0
  189.4000  178.1370  148.1000 C   0  0  0  0  0  2  0  0  0  0  0  0
  2  4  1  0  0  0  0
  3  4  1  0  0  0  0
  4  1  1  0  0  0  0
  5  4  1  0  0  0  0
  5  7  1  0  0  0  0
  6  8  1  0  0  0  0
  7  6  3  0  0  0  0
  8 10  1  0  0  0  0
  9 15  1  0  0  0  0
 10 13  2  0  0  0  0
 10 12  1  0  0  0  0
 11 14  1  0  0  0  0
 11 15  2  0  0  0  0
 12  9  2  0  0  0  0
 13 11  1  0  0  0  0
 16 17  1  0  0  0  0
 17 19  1  1  0  0  0
 18  1  1  1  0  0  0
 18 16  1  0  0  0  0
 18 17  1  0  0  0  0
 19 20  1  0  0  0  0
 20 21  1  0  0  0  0
 21 22  2  0  0  0  0
 22 26  1  0  0  0  0
 22 24  1  0  0  0  0
 24 28  1  0  0  0  0
 25 26  2  0  0  0  0
 26 27  1  0  0  0  0
 27 23  1  0  0  0  0
 28 23  1  0  0  0  0
M  END
>  <MODEL>
6

>  <REMARK>
 VINA RESULT:      -7.3      2.585      7.749
  Name = 
  9 active torsions:
  status: ('A' for Active; 'I' for Inactive)
    1  A    between atoms: C_1  and  N_2
    2  A    between atoms: C_1  and  S_26
    3  A    between atoms: C_5  and  C_21
    4  A    between atoms: C_5  and  C_27
    5  A    between atoms: C_9  and  C_18
    6  A    between atoms: C_14  and  C_18
    7  A    between atoms: C_19  and  S_26
    8  A    between atoms: C_20  and  C_25
    9  A    between atoms: C_20  and  C_27
                            x       y       z     vdW  Elec       q    Type
                         _______ _______ _______ _____ _____    ______ ____

>  <TORSDO>
F 9

$$$$
=
 OpenBabel10262420453D

 28 30  0  0  1  0  0  0  0  0999 V2000
  190.6640  177.5880  144.7210 C   0  0  0  0  0  2  0  0  0  0  0  0
  190.1180  175.7540  143.1130 C   0  0  0  0  0  1  0  0  0  0  0  0
  191.7770  177.5050  142.4850 C   0  0  0  0  0  1  0  0  0  0  0  0
  190.4850  177.2270  143.2460 C   0  0  0  0  0  0  0  0  0  0  0  0
  189.3530  178.1020  142.6970 C   0  0  0  0  0  2  0  0  0  0  0  0
  188.9230  177.7310  140.0790 C   0  0  0  0  0  0  0  0  0  0  0  0
  189.1130  177.9030  141.2580 C   0  0  0  0  0  0  0  0  0  0  0  0
  188.7020  177.5130  138.6470 C   0  0  0  0  0  2  0  0  0  0  0  0
  190.9020  175.5070  136.3060 C   0  0  0  0  0  3  0  0  0  0  0  0
  189.9040  176.8810  138.0360 C   0  0  0  0  0  0  0  0  0  0  0  0
  192.2800  176.4040  138.0840 C   0  0  0  0  0  0  0  0  0  0  0  0
  189.7780  176.1190  136.8680 C   0  0  0  0  0  3  0  0  0  0  0  0
  191.1570  177.0180  138.6470 C   0  0  0  0  0  3  0  0  0  0  0  0
  193.5520  176.5450  138.7060 N   0  0  0  0  0  1  0  0  0  0  0  0
  192.1530  175.6500  136.9140 C   0  0  0  0  0  3  0  0  0  0  0  0
  191.4750  176.7630  146.9250 C   0  0  0  0  0  2  0  0  0  0  0  0
  189.9930  176.4490  146.9460 C   0  0  2  0  0  3  0  0  0  0  0  0
  190.7860  176.3640  145.6350 C   0  0  1  0  0  3  0  0  0  0  0  0
  189.0450  177.9940  147.1930 S   0  0  0  0  0  0  0  0  0  0  0  0
  187.4650  177.2210  146.7220 C   0  0  0  0  0  2  0  0  0  0  0  0
  187.1640  177.4940  145.3220 N   0  0  0  0  0  0  0  0  0  0  0  0
  186.1180  178.1260  144.8700 C   0  0  0  0  0  0  0  0  0  0  0  0
  183.7310  179.3200  143.7210 C   0  0  0  0  0  2  0  0  0  0  0  0
  185.9750  178.2730  143.3860 C   0  0  0  0  0  2  0  0  0  0  0  0
  185.3550  179.0900  146.9680 N   0  0  0  0  0  2  0  0  0  0  0  0
  185.0960  178.7680  145.7430 C   0  0  0  0  0  0  0  0  0  0  0  0
  183.7120  178.9940  145.2130 C   0  0  0  0  0  2  0  0  0  0  0  0
  184.5090  178.2530  142.9590 C   0  0  0  0  0  2  0  0  0  0  0  0
  2  4  1  0  0  0  0
  3  4  1  0  0  0  0
  4  1  1  0  0  0  0
  5  4  1  0  0  0  0
  6  7  3  0  0  0  0
  7  5  1  0  0  0  0
  8  6  1  0  0  0  0
  9 12  2  0  0  0  0
  9 15  1  0  0  0  0
 10  8  1  0  0  0  0
 10 13  2  0  0  0  0
 11 13  1  0  0  0  0
 11 14  1  0  0  0  0
 12 10  1  0  0  0  0
 15 11  2  0  0  0  0
 16 17  1  0  0  0  0
 17 19  1  6  0  0  0
 18  1  1  6  0  0  0
 18 16  1  0  0  0  0
 18 17  1  0  0  0  0
 20 19  1  0  0  0  0
 21 20  1  0  0  0  0
 22 21  2  0  0  0  0
 22 26  1  0  0  0  0
 23 27  1  0  0  0  0
 24 22  1  0  0  0  0
 26 25  2  0  0  0  0
 27 26  1  0  0  0  0
 28 24  1  0  0  0  0
 28 23  1  0  0  0  0
M  END
>  <MODEL>
7

>  <REMARK>
 VINA RESULT:      -7.3      3.112      7.890
  Name = 
  9 active torsions:
  status: ('A' for Active; 'I' for Inactive)
    1  A    between atoms: C_1  and  N_2
    2  A    between atoms: C_1  and  S_26
    3  A    between atoms: C_5  and  C_21
    4  A    between atoms: C_5  and  C_27
    5  A    between atoms: C_9  and  C_18
    6  A    between atoms: C_14  and  C_18
    7  A    between atoms: C_19  and  S_26
    8  A    between atoms: C_20  and  C_25
    9  A    between atoms: C_20  and  C_27
                            x       y       z     vdW  Elec       q    Type
                         _______ _______ _______ _____ _____    ______ ____

>  <TORSDO>
F 9

$$$$
=
 OpenBabel10262420453D

 28 30  0  0  1  0  0  0  0  0999 V2000
  189.1460  177.0930  145.9450 C   0  0  0  0  0  2  0  0  0  0  0  0
  189.4500  178.4250  148.0390 C   0  0  0  0  0  1  0  0  0  0  0  0
  188.4220  176.1560  148.1470 C   0  0  0  0  0  1  0  0  0  0  0  0
  188.5530  177.4270  147.3150 C   0  0  0  0  0  0  0  0  0  0  0  0
  187.1700  178.0420  147.0740 C   0  0  0  0  0  2  0  0  0  0  0  0
  186.3840  177.9230  144.5170 C   0  0  0  0  0  0  0  0  0  0  0  0
  186.7410  177.9710  145.6680 C   0  0  0  0  0  0  0  0  0  0  0  0
  185.9460  177.8770  143.1190 C   0  0  0  0  0  2  0  0  0  0  0  0
  182.4620  179.0130  144.0810 C   0  0  0  0  0  3  0  0  0  0  0  0
  184.5150  178.2820  143.0200 C   0  0  0  0  0  0  0  0  0  0  0  0
  182.5150  178.6160  141.6920 C   0  0  0  0  0  0  0  0  0  0  0  0
  183.8110  178.6550  144.1710 C   0  0  0  0  0  3  0  0  0  0  0  0
  183.8640  178.2580  141.7800 C   0  0  0  0  0  3  0  0  0  0  0  0
  181.8540  178.5920  140.4320 N   0  0  0  0  0  1  0  0  0  0  0  0
  181.8140  178.9940  142.8420 C   0  0  0  0  0  3  0  0  0  0  0  0
  191.5740  176.6160  145.6790 C   0  0  0  0  0  2  0  0  0  0  0  0
  191.2020  177.3250  144.3920 C   0  0  2  0  0  3  0  0  0  0  0  0
  190.5290  177.7130  145.7150 C   0  0  1  0  0  3  0  0  0  0  0  0
  190.2440  176.1900  143.3240 S   0  0  0  0  0  0  0  0  0  0  0  0
  189.9760  177.4570  142.0440 C   0  0  0  0  0  2  0  0  0  0  0  0
  190.6630  177.0860  140.8120 N   0  0  0  0  0  0  0  0  0  0  0  0
  190.1870  177.1960  139.6040 C   0  0  0  0  0  0  0  0  0  0  0  0
  189.1660  177.1810  136.8840 C   0  0  0  0  0  2  0  0  0  0  0  0
  191.0430  176.7230  138.4690 C   0  0  0  0  0  2  0  0  0  0  0  0
  188.2990  178.6450  140.1000 N   0  0  0  0  0  2  0  0  0  0  0  0
  188.8760  177.8250  139.2830 C   0  0  0  0  0  0  0  0  0  0  0  0
  188.1730  177.4550  138.0120 C   0  0  0  0  0  2  0  0  0  0  0  0
  190.1990  176.1530  137.3310 C   0  0  0  0  0  2  0  0  0  0  0  0
  1  4  1  0  0  0  0
  4  2  1  0  0  0  0
  4  3  1  0  0  0  0
  5  4  1  0  0  0  0
  6  7  3  0  0  0  0
  7  5  1  0  0  0  0
  8  6  1  0  0  0  0
  9 12  1  0  0  0  0
 10  8  1  0  0  0  0
 10 12  2  0  0  0  0
 11 13  2  0  0  0  0
 11 15  1  0  0  0  0
 13 10  1  0  0  0  0
 14 11  1  0  0  0  0
 15  9  2  0  0  0  0
 16 18  1  0  0  0  0
 17 19  1  6  0  0  0
 17 16  1  0  0  0  0
 17 18  1  0  0  0  0
 18  1  1  6  0  0  0
 20 19  1  0  0  0  0
 21 20  1  0  0  0  0
 22 21  2  0  0  0  0
 23 28  1  0  0  0  0
 23 27  1  0  0  0  0
 24 22  1  0  0  0  0
 26 22  1  0  0  0  0
 26 25  2  0  0  0  0
 27 26  1  0  0  0  0
 28 24  1  0  0  0  0
M  END
>  <MODEL>
8

>  <REMARK>
 VINA RESULT:      -7.2      2.400      6.727
  Name = 
  9 active torsions:
  status: ('A' for Active; 'I' for Inactive)
    1  A    between atoms: C_1  and  N_2
    2  A    between atoms: C_1  and  S_26
    3  A    between atoms: C_5  and  C_21
    4  A    between atoms: C_5  and  C_27
    5  A    between atoms: C_9  and  C_18
    6  A    between atoms: C_14  and  C_18
    7  A    between atoms: C_19  and  S_26
    8  A    between atoms: C_20  and  C_25
    9  A    between atoms: C_20  and  C_27
                            x       y       z     vdW  Elec       q    Type
                         _______ _______ _______ _____ _____    ______ ____

>  <TORSDO>
F 9

$$$$
=
 OpenBabel10262420453D

 28 30  0  0  1  0  0  0  0  0999 V2000
  189.6010  177.9460  142.5120 C   0  0  0  0  0  2  0  0  0  0  0  0
  190.7930  175.9630  143.4580 C   0  0  0  0  0  1  0  0  0  0  0  0
  188.3010  175.9940  143.3780 C   0  0  0  0  0  1  0  0  0  0  0  0
  189.5530  176.8430  143.5700 C   0  0  0  0  0  0  0  0  0  0  0  0
  189.5170  177.5280  144.9400 C   0  0  0  0  0  2  0  0  0  0  0  0
  187.0400  178.1760  145.7250 C   0  0  0  0  0  0  0  0  0  0  0  0
  188.1560  177.8810  145.3770 C   0  0  0  0  0  0  0  0  0  0  0  0
  185.6820  178.5420  146.1360 C   0  0  0  0  0  2  0  0  0  0  0  0
  182.6080  179.0000  143.9690 C   0  0  0  0  0  3  0  0  0  0  0  0
  184.8090  178.6960  144.9380 C   0  0  0  0  0  0  0  0  0  0  0  0
  184.5390  178.7460  142.5300 C   0  0  0  0  0  0  0  0  0  0  0  0
  183.4300  178.8780  145.0940 C   0  0  0  0  0  3  0  0  0  0  0  0
  185.3630  178.6240  143.6530 C   0  0  0  0  0  3  0  0  0  0  0  0
  185.1030  178.6730  141.2250 N   0  0  0  0  0  1  0  0  0  0  0  0
  183.1630  178.9350  142.6870 C   0  0  0  0  0  3  0  0  0  0  0  0
  188.6840  178.8790  140.3940 C   0  0  0  0  0  2  0  0  0  0  0  0
  188.8580  177.4040  140.0940 C   0  0  2  0  0  3  0  0  0  0  0  0
  188.4540  177.8670  141.4990 C   0  0  1  0  0  3  0  0  0  0  0  0
  190.6350  177.0310  139.8690 S   0  0  0  0  0  0  0  0  0  0  0  0
  190.4850  176.9070  138.0590 C   0  0  0  0  0  2  0  0  0  0  0  0
  190.4020  175.5090  137.6520 N   0  0  0  0  0  0  0  0  0  0  0  0
  189.3490  174.9110  137.1700 C   0  0  0  0  0  0  0  0  0  0  0  0
  187.0230  173.4060  136.2940 C   0  0  0  0  0  2  0  0  0  0  0  0
  189.4610  173.4520  136.8440 C   0  0  0  0  0  2  0  0  0  0  0  0
  188.0200  176.8850  136.6710 N   0  0  0  0  0  2  0  0  0  0  0  0
  188.0690  175.6060  136.8600 C   0  0  0  0  0  0  0  0  0  0  0  0
  186.7940  174.8200  136.8250 C   0  0  0  0  0  2  0  0  0  0  0  0
  188.1390  172.7250  137.0790 C   0  0  0  0  0  2  0  0  0  0  0  0
  1  4  1  0  0  0  0
  2  4  1  0  0  0  0
  3  4  1  0  0  0  0
  4  5  1  0  0  0  0
  5  7  1  0  0  0  0
  6  8  1  0  0  0  0
  7  6  3  0  0  0  0
  9 12  1  0  0  0  0
 10 12  2  0  0  0  0
 10  8  1  0  0  0  0
 11 15  1  0  0  0  0
 11 13  2  0  0  0  0
 13 10  1  0  0  0  0
 14 11  1  0  0  0  0
 15  9  2  0  0  0  0
 16 18  1  0  0  0  0
 17 19  1  1  0  0  0
 17 16  1  0  0  0  0
 17 18  1  0  0  0  0
 18  1  1  1  0  0  0
 20 19  1  0  0  0  0
 21 20  1  0  0  0  0
 22 21  2  0  0  0  0
 23 27  1  0  0  0  0
 23 28  1  0  0  0  0
 24 28  1  0  0  0  0
 24 22  1  0  0  0  0
 25 26  2  0  0  0  0
 26 22  1  0  0  0  0
 27 26  1  0  0  0  0
M  END
>  <MODEL>
9

>  <REMARK>
 VINA RESULT:      -7.2      2.865      6.030
  Name = 
  9 active torsions:
  status: ('A' for Active; 'I' for Inactive)
    1  A    between atoms: C_1  and  N_2
    2  A    between atoms: C_1  and  S_26
    3  A    between atoms: C_5  and  C_21
    4  A    between atoms: C_5  and  C_27
    5  A    between atoms: C_9  and  C_18
    6  A    between atoms: C_14  and  C_18
    7  A    between atoms: C_19  and  S_26
    8  A    between atoms: C_20  and  C_25
    9  A    between atoms: C_20  and  C_27
                            x       y       z     vdW  Elec       q    Type
                         _______ _______ _______ _____ _____    ______ ____

>  <TORSDO>
F 9

$$$$
