=
 OpenBabel10262422523D

 37 40  0  0  1  0  0  0  0  0999 V2000
  184.3140  174.7800  135.1220 C   0  0  2  0  0  3  0  0  0  0  0  0
  188.1130  173.9760  135.5250 C   0  0  0  0  0  0  0  0  0  0  0  0
  187.7650  176.7730  137.9960 C   0  0  0  0  0  2  0  0  0  0  0  0
  183.8070  174.6170  136.4880 N   0  0  0  0  0  0  0  0  0  0  0  0
  181.8660  178.5120  136.7490 C   0  0  0  0  0  2  0  0  0  0  0  0
  188.3860  176.2760  134.8720 C   0  0  0  0  0  2  0  0  0  0  0  0
  179.6200  178.2030  135.7610 C   0  0  0  0  0  1  0  0  0  0  0  0
  180.0640  174.5600  135.9130 C   0  0  0  0  0  1  0  0  0  0  0  0
  188.5520  175.6930  137.2360 C   0  0  0  0  0  2  0  0  0  0  0  0
  183.5710  177.9600  138.3620 C   0  0  0  0  0  0  0  0  0  0  0  0
  188.6720  177.7150  135.3360 C   0  0  0  0  0  2  0  0  0  0  0  0
  182.4160  174.8620  136.7600 C   0  0  0  0  0  0  0  0  0  0  0  0
  186.1100  173.1750  135.3810 O   0  0  0  0  0  0  0  0  0  0  0  0
  188.8060  172.9860  136.4500 C   0  0  0  0  0  2  0  0  0  0  0  0
  185.9040  178.4640  137.9420 C   0  0  0  0  0  2  0  0  0  0  0  0
  187.4840  178.4000  136.0170 C   0  0  0  0  0  2  0  0  0  0  0  0
  187.1660  173.4450  134.6380 O   0  0  0  0  0  0  0  0  0  0  0  0
  181.4530  175.1180  135.6350 C   0  0  2  0  0  3  0  0  0  0  0  0
  180.8320  177.4860  136.3160 C   0  0  1  0  0  3  0  0  0  0  0  0
  186.7940  177.5660  137.1040 C   0  0  1  0  0  3  0  0  0  0  0  0
  185.0080  173.5250  134.5940 C   0  0  0  0  0  2  0  0  0  0  0  0
  187.9180  175.3790  135.9460 N   0  0  2  0  0  0  0  0  0  0  0  0
  182.3130  178.2600  138.1560 C   0  0  0  0  0  0  0  0  0  0  0  0
  189.5410  173.5520  135.2360 C   0  0  0  0  0  2  0  0  0  0  0  0
  181.4180  176.5910  135.2320 C   0  0  0  0  0  2  0  0  0  0  0  0
  182.0090  174.9210  137.9550 O   0  0  0  0  0  0  0  0  0  0  0  0
  185.1530  175.8920  135.0410 O   0  0  0  0  0  1  0  0  0  0  0  0
  184.8210  177.6660  138.5820 C   0  0  0  0  0  3  0  0  0  0  0  0
  180.9520  177.3980  140.0770 C   0  0  0  0  0  3  0  0  0  0  0  0
  181.4060  178.4800  139.3080 C   0  0  0  0  0  0  0  0  0  0  0  0
  180.9960  179.7410  139.6300 N   0  0  0  0  0  0  0  0  0  0  0  0
  179.7870  181.2560  140.9590 F   0  0  0  0  0  0  0  0  0  0  0  0
  179.7010  178.9290  141.4630 C   0  0  0  0  0  3  0  0  0  0  0  0
  180.1640  179.9860  140.6780 C   0  0  0  0  0  0  0  0  0  0  0  0
  180.0980  177.6270  141.1570 C   0  0  0  0  0  3  0  0  0  0  0  0
  184.8680  172.9890  137.9710 C   0  0  0  0  0  1  0  0  0  0  0  0
  184.7470  174.4550  137.5950 C   0  0  0  0  0  2  0  0  0  0  0  0
  1 27  1  1  0  0  0
  1  4  1  0  0  0  0
  2 22  1  0  0  0  0
  2 14  1  0  0  0  0
  4 12  1  0  0  0  0
  4 37  1  0  0  0  0
  5 23  1  0  0  0  0
  6 11  1  0  0  0  0
  9  3  1  0  0  0  0
 10 28  2  0  0  0  0
 11 16  1  0  0  0  0
 12 26  2  0  0  0  0
 15 28  1  0  0  0  0
 17 13  1  0  0  0  0
 17  2  1  0  0  0  0
 18  8  1  1  0  0  0
 18 12  1  0  0  0  0
 19  7  1  6  0  0  0
 19  5  1  0  0  0  0
 20 16  1  6  0  0  0
 20 15  1  0  0  0  0
 20  3  1  0  0  0  0
 21  1  1  0  0  0  0
 21 13  1  0  0  0  0
 22  6  1  6  0  0  0
 22  9  1  0  0  0  0
 23 10  2  0  0  0  0
 23 30  1  0  0  0  0
 24  2  1  0  0  0  0
 24 14  1  0  0  0  0
 25 18  1  0  0  0  0
 25 19  1  0  0  0  0
 29 35  1  0  0  0  0
 30 31  1  0  0  0  0
 30 29  2  0  0  0  0
 31 34  2  0  0  0  0
 34 32  1  0  0  0  0
 34 33  1  0  0  0  0
 35 33  2  0  0  0  0
 37 36  1  0  0  0  0
M  END
>  <MODEL>
1

>  <REMARK>
 VINA RESULT:      -5.5      0.000      0.000
  Name = 
  2 active torsions:
  status: ('A' for Active; 'I' for Inactive)
    1  A    between atoms: N_5  and  C_23
    2  A    between atoms: C_6  and  C_31
                            x       y       z     vdW  Elec       q    Type
                         _______ _______ _______ _____ _____    ______ ____

>  <TORSDO>
F 2

$$$$
=
 OpenBabel10262422523D

 37 40  0  0  1  0  0  0  0  0999 V2000
  183.5300  174.6380  137.9990 C   0  0  2  0  0  3  0  0  0  0  0  0
  183.0450  171.3370  135.9720 C   0  0  0  0  0  0  0  0  0  0  0  0
  180.1500  173.3370  134.6800 C   0  0  0  0  0  2  0  0  0  0  0  0
  183.6320  175.6490  136.9430 N   0  0  0  0  0  0  0  0  0  0  0  0
  180.5390  178.2920  138.5090 C   0  0  0  0  0  2  0  0  0  0  0  0
  180.9020  171.3060  137.0670 C   0  0  0  0  0  2  0  0  0  0  0  0
  181.6770  179.7430  140.1580 C   0  0  0  0  0  1  0  0  0  0  0  0
  184.9340  178.6390  138.8680 C   0  0  0  0  0  1  0  0  0  0  0  0
  181.0350  172.0820  134.7580 C   0  0  0  0  0  2  0  0  0  0  0  0
  180.2810  177.4050  136.2830 C   0  0  0  0  0  0  0  0  0  0  0  0
  179.3920  171.5720  136.9370 C   0  0  0  0  0  2  0  0  0  0  0  0
  183.7910  177.0320  137.3010 C   0  0  0  0  0  0  0  0  0  0  0  0
  184.4390  172.8430  136.6490 O   0  0  0  0  0  0  0  0  0  0  0  0
  183.6170  170.9300  134.6220 C   0  0  0  0  0  2  0  0  0  0  0  0
  179.1490  175.2970  135.8980 C   0  0  0  0  0  2  0  0  0  0  0  0
  179.0140  173.0550  136.9760 C   0  0  0  0  0  2  0  0  0  0  0  0
  183.9720  171.6540  136.9740 O   0  0  0  0  0  0  0  0  0  0  0  0
  184.0230  177.4270  138.7330 C   0  0  2  0  0  3  0  0  0  0  0  0
  181.8880  178.7790  139.0100 C   0  0  1  0  0  3  0  0  0  0  0  0
  179.8430  173.9570  136.0540 C   0  0  1  0  0  3  0  0  0  0  0  0
  184.5730  173.5300  137.8600 C   0  0  0  0  0  2  0  0  0  0  0  0
  181.7240  171.9950  136.0550 N   0  0  2  0  0  0  0  0  0  0  0  0
  180.4220  178.4720  137.0270 C   0  0  0  0  0  0  0  0  0  0  0  0
  183.0440  169.8750  135.5660 C   0  0  0  0  0  2  0  0  0  0  0  0
  182.7130  177.5970  139.5010 C   0  0  0  0  0  2  0  0  0  0  0  0
  183.6800  177.9290  136.4180 O   0  0  0  0  0  0  0  0  0  0  0  0
  182.2390  174.1110  138.0510 O   0  0  0  0  0  1  0  0  0  0  0  0
  180.1350  176.3510  135.5310 C   0  0  0  0  0  3  0  0  0  0  0  0
  180.8690  180.0740  135.1510 C   0  0  0  0  0  3  0  0  0  0  0  0
  180.3190  179.8200  136.4170 C   0  0  0  0  0  0  0  0  0  0  0  0
  179.6940  180.8320  137.0830 N   0  0  0  0  0  0  0  0  0  0  0  0
  178.9480  183.0540  137.2600 F   0  0  0  0  0  0  0  0  0  0  0  0
  180.1120  182.3620  135.2990 C   0  0  0  0  0  3  0  0  0  0  0  0
  179.5790  182.0820  136.5590 C   0  0  0  0  0  0  0  0  0  0  0  0
  180.7610  181.3490  134.5940 C   0  0  0  0  0  3  0  0  0  0  0  0
  184.4540  175.7080  134.6420 C   0  0  0  0  0  1  0  0  0  0  0  0
  183.3220  175.2860  135.5620 C   0  0  0  0  0  2  0  0  0  0  0  0
  1 27  1  6  0  0  0
  2 22  1  0  0  0  0
  2 17  1  0  0  0  0
  3  9  1  0  0  0  0
  4 12  1  0  0  0  0
  4  1  1  0  0  0  0
  5 19  1  0  0  0  0
 10 23  2  0  0  0  0
 11 16  1  0  0  0  0
 11  6  1  0  0  0  0
 12 18  1  0  0  0  0
 13 17  1  0  0  0  0
 13 21  1  0  0  0  0
 14 24  1  0  0  0  0
 14  2  1  0  0  0  0
 15 20  1  0  0  0  0
 18  8  1  6  0  0  0
 18 25  1  0  0  0  0
 19 25  1  0  0  0  0
 19  7  1  1  0  0  0
 20  3  1  6  0  0  0
 20 16  1  0  0  0  0
 21  1  1  0  0  0  0
 22  9  1  6  0  0  0
 22  6  1  0  0  0  0
 23  5  1  0  0  0  0
 24  2  1  0  0  0  0
 26 12  2  0  0  0  0
 28 15  1  0  0  0  0
 28 10  2  0  0  0  0
 29 30  1  0  0  0  0
 30 23  1  0  0  0  0
 30 31  2  0  0  0  0
 33 34  2  0  0  0  0
 34 31  1  0  0  0  0
 34 32  1  0  0  0  0
 35 29  2  0  0  0  0
 35 33  1  0  0  0  0
 36 37  1  0  0  0  0
 37  4  1  0  0  0  0
M  END
>  <MODEL>
2

>  <REMARK>
 VINA RESULT:      -4.7      2.746      5.839
  Name = 
  2 active torsions:
  status: ('A' for Active; 'I' for Inactive)
    1  A    between atoms: N_5  and  C_23
    2  A    between atoms: C_6  and  C_31
                            x       y       z     vdW  Elec       q    Type
                         _______ _______ _______ _____ _____    ______ ____

>  <TORSDO>
F 2

$$$$
=
 OpenBabel10262422523D

 37 40  0  0  1  0  0  0  0  0999 V2000
  180.0500  176.1400  136.7130 C   0  0  2  0  0  3  0  0  0  0  0  0
  180.4420  172.4030  135.6520 C   0  0  0  0  0  0  0  0  0  0  0  0
  183.6210  172.8780  137.5780 C   0  0  0  0  0  2  0  0  0  0  0  0
  180.1490  176.0680  138.1740 N   0  0  0  0  0  0  0  0  0  0  0  0
  183.2910  179.0620  138.5910 C   0  0  0  0  0  2  0  0  0  0  0  0
  182.4500  173.2020  134.5940 C   0  0  0  0  0  2  0  0  0  0  0  0
  182.1250  181.2430  138.6660 C   0  0  0  0  0  1  0  0  0  0  0  0
  178.9310  179.5070  139.1920 C   0  0  0  0  0  1  0  0  0  0  0  0
  182.6230  172.0600  136.7430 C   0  0  0  0  0  2  0  0  0  0  0  0
  183.6940  176.8400  139.4320 C   0  0  0  0  0  0  0  0  0  0  0  0
  183.9830  173.3100  134.6690 C   0  0  0  0  0  2  0  0  0  0  0  0
  180.0790  177.2780  138.9480 C   0  0  0  0  0  0  0  0  0  0  0  0
  179.1260  173.9140  136.4650 O   0  0  0  0  0  0  0  0  0  0  0  0
  179.9760  171.1370  136.3560 C   0  0  0  0  0  2  0  0  0  0  0  0
  184.6650  175.1230  138.0250 C   0  0  0  0  0  2  0  0  0  0  0  0
  184.4870  174.3640  135.6580 C   0  0  0  0  0  2  0  0  0  0  0  0
  179.4490  173.3370  135.3240 O   0  0  0  0  0  0  0  0  0  0  0  0
  179.7390  178.5860  138.2880 C   0  0  2  0  0  3  0  0  0  0  0  0
  181.9460  179.7440  138.7830 C   0  0  1  0  0  3  0  0  0  0  0  0
  183.8410  174.3060  137.0490 C   0  0  1  0  0  3  0  0  0  0  0  0
  178.9320  175.2630  136.1520 C   0  0  0  0  0  2  0  0  0  0  0  0
  181.8010  172.9320  135.8900 N   0  0  2  0  0  0  0  0  0  0  0  0
  183.5750  178.1120  139.7140 C   0  0  0  0  0  0  0  0  0  0  0  0
  180.3520  171.1020  134.8770 C   0  0  0  0  0  2  0  0  0  0  0  0
  180.9730  179.2760  137.7090 C   0  0  0  0  0  2  0  0  0  0  0  0
  180.3600  177.2560  140.1790 O   0  0  0  0  0  0  0  0  0  0  0  0
  181.2770  175.8300  136.1240 O   0  0  0  0  0  1  0  0  0  0  0  0
  183.8200  175.5700  139.1670 C   0  0  0  0  0  3  0  0  0  0  0  0
  185.1520  179.0090  141.4430 C   0  0  0  0  0  3  0  0  0  0  0  0
  183.8590  178.5990  141.0850 C   0  0  0  0  0  0  0  0  0  0  0  0
  182.8660  178.6480  142.0190 N   0  0  0  0  0  0  0  0  0  0  0  0
  182.0670  179.1180  144.1780 F   0  0  0  0  0  0  0  0  0  0  0  0
  184.3610  179.5060  143.6700 C   0  0  0  0  0  3  0  0  0  0  0  0
  183.0860  179.0870  143.2870 C   0  0  0  0  0  0  0  0  0  0  0  0
  185.4000  179.4650  142.7390 C   0  0  0  0  0  3  0  0  0  0  0  0
  179.4470  174.2830  139.6880 C   0  0  0  0  0  1  0  0  0  0  0  0
  180.5640  174.8210  138.8110 C   0  0  0  0  0  2  0  0  0  0  0  0
  1 27  1  6  0  0  0
  1  4  1  0  0  0  0
  2 22  1  0  0  0  0
  2 14  1  0  0  0  0
  4 37  1  0  0  0  0
  4 12  1  0  0  0  0
  5 19  1  0  0  0  0
  5 23  1  0  0  0  0
  6 11  1  0  0  0  0
  9  3  1  0  0  0  0
 10 23  2  0  0  0  0
 11 16  1  0  0  0  0
 12 26  2  0  0  0  0
 15 28  1  0  0  0  0
 17  2  1  0  0  0  0
 17 13  1  0  0  0  0
 18 12  1  0  0  0  0
 18  8  1  1  0  0  0
 19  7  1  6  0  0  0
 20 16  1  6  0  0  0
 20  3  1  0  0  0  0
 20 15  1  0  0  0  0
 21 13  1  0  0  0  0
 21  1  1  0  0  0  0
 22  6  1  6  0  0  0
 22  9  1  0  0  0  0
 23 30  1  0  0  0  0
 24  2  1  0  0  0  0
 24 14  1  0  0  0  0
 25 18  1  0  0  0  0
 25 19  1  0  0  0  0
 28 10  2  0  0  0  0
 29 35  1  0  0  0  0
 30 29  2  0  0  0  0
 30 31  1  0  0  0  0
 31 34  2  0  0  0  0
 34 33  1  0  0  0  0
 34 32  1  0  0  0  0
 35 33  2  0  0  0  0
 37 36  1  0  0  0  0
M  END
>  <MODEL>
3

>  <REMARK>
 VINA RESULT:      -4.1      3.316      5.351
  Name = 
  2 active torsions:
  status: ('A' for Active; 'I' for Inactive)
    1  A    between atoms: N_5  and  C_23
    2  A    between atoms: C_6  and  C_31
                            x       y       z     vdW  Elec       q    Type
                         _______ _______ _______ _____ _____    ______ ____

>  <TORSDO>
F 2

$$$$
