=
 OpenBabel10262419433D

 25 28  0  0  1  0  0  0  0  0999 V2000
  185.7300  178.3470  144.4400 C   0  0  0  0  0  0  0  0  0  0  0  0
  186.8000  177.8890  145.2270 C   0  0  0  0  0  0  0  0  0  0  0  0
  184.4470  178.8240  146.3980 N   0  0  0  0  0  0  0  0  0  0  0  0
  185.6680  178.3850  143.0180 N   0  0  0  0  0  0  0  0  0  0  0  0
  190.5290  177.5630  144.9520 N   0  0  0  0  0  2  0  0  0  0  0  0
  185.0630  178.5400  140.2590 C   0  0  0  0  0  2  0  0  0  0  0  0
  185.4600  178.3830  147.1930 C   0  0  0  0  0  3  0  0  0  0  0  0
  184.3930  178.8710  142.6000 C   0  0  0  0  0  0  0  0  0  0  0  0
  184.0940  179.0100  141.3090 C   0  0  0  0  0  3  0  0  0  0  0  0
  187.7810  177.3730  147.4880 C   0  0  2  0  0  3  0  0  0  0  0  0
  187.8530  178.0440  148.8510 C   0  0  0  0  0  1  0  0  0  0  0  0
  188.0410  177.2920  144.6220 C   0  0  0  0  0  2  0  0  0  0  0  0
  186.5120  178.6790  140.7360 C   0  0  0  0  0  2  0  0  0  0  0  0
  184.5760  178.8180  145.0470 C   0  0  0  0  0  0  0  0  0  0  0  0
  183.2860  179.3650  143.9260 S   0  0  0  0  0  0  0  0  0  0  0  0
  189.0770  177.5110  146.8210 N   0  0  0  0  0  0  0  0  0  0  0  0
  186.6950  177.9510  142.0700 C   0  0  0  0  0  2  0  0  0  0  0  0
  189.2260  177.4600  145.5290 C   0  0  0  0  0  0  0  0  0  0  0  0
  186.6650  177.9250  146.6300 C   0  0  0  0  0  0  0  0  0  0  0  0
  191.6490  177.6450  145.7200 O   0  0  0  0  0  0  0  0  0  0  0  0
  192.1360  176.3330  145.8920 C   0  0  2  0  0  3  0  0  0  0  0  0
  191.5410  175.4350  145.0160 F   0  0  0  0  0  0  0  0  0  0  0  0
  192.0250  175.8740  147.3150 C   0  0  0  0  0  0  0  0  0  0  0  0
  192.6500  176.4480  148.1910 O   0  0  0  0  0  0  0  0  0  0  0  0
  191.2410  174.8120  147.6350 F   0  0  0  0  0  0  0  0  0  0  0  0
  1 14  2  0  0  0  0
  1  2  1  0  0  0  0
  2 19  2  0  0  0  0
  3  7  2  0  0  0  0
  4  1  1  0  0  0  0
  5 18  1  0  0  0  0
  5 20  1  0  0  0  0
  6 13  1  0  0  0  0
  6  9  1  0  0  0  0
  8  4  1  0  0  0  0
  8 15  1  0  0  0  0
  9  8  2  0  0  0  0
 10 11  1  1  0  0  0
 12  2  1  0  0  0  0
 12 18  1  0  0  0  0
 13 17  1  0  0  0  0
 14  3  1  0  0  0  0
 15 14  1  0  0  0  0
 16 10  1  0  0  0  0
 17  4  1  0  0  0  0
 18 16  2  0  0  0  0
 19  7  1  0  0  0  0
 19 10  1  0  0  0  0
 20 21  1  0  0  0  0
 21 22  1  6  0  0  0
 21 23  1  0  0  0  0
 23 25  1  0  0  0  0
 23 24  2  0  0  0  0
M  END
>  <MODEL>
1

>  <REMARK>
 VINA RESULT:      -9.2      0.000      0.000
  Name = 
  3 active torsions:
  status: ('A' for Active; 'I' for Inactive)
    1  A    between atoms: C_2  and  C_21
    2  A    between atoms: N_6  and  O_15
    3  A    between atoms: O_15  and  C_21
                            x       y       z     vdW  Elec       q    Type
                         _______ _______ _______ _____ _____    ______ ____

>  <TORSDO>
F 3

$$$$
=
 OpenBabel10262419433D

 25 28  0  0  1  0  0  0  0  0999 V2000
  186.9100  177.8360  144.7680 C   0  0  0  0  0  0  0  0  0  0  0  0
  188.0210  177.3420  144.0620 C   0  0  0  0  0  0  0  0  0  0  0  0
  188.1160  177.7050  146.8260 N   0  0  0  0  0  0  0  0  0  0  0  0
  185.6400  178.1850  144.2290 N   0  0  0  0  0  0  0  0  0  0  0  0
  189.4300  177.5280  140.5890 N   0  0  0  0  0  2  0  0  0  0  0  0
  182.9650  178.8840  143.6270 C   0  0  0  0  0  2  0  0  0  0  0  0
  189.2100  177.2190  146.1780 C   0  0  0  0  0  3  0  0  0  0  0  0
  184.7640  178.5980  145.2770 C   0  0  0  0  0  0  0  0  0  0  0  0
  183.5160  178.9880  145.0230 C   0  0  0  0  0  3  0  0  0  0  0  0
  190.3760  176.4510  144.0470 C   0  0  2  0  0  3  0  0  0  0  0  0
  191.7040  176.8010  144.6980 C   0  0  0  0  0  1  0  0  0  0  0  0
  187.9660  177.0470  142.5880 C   0  0  0  0  0  2  0  0  0  0  0  0
  184.0650  179.0810  142.5790 C   0  0  0  0  0  2  0  0  0  0  0  0
  186.9880  178.0180  146.1400 C   0  0  0  0  0  0  0  0  0  0  0  0
  185.4970  178.6470  146.9160 S   0  0  0  0  0  0  0  0  0  0  0  0
  190.4010  176.8870  142.6500 N   0  0  0  0  0  0  0  0  0  0  0  0
  185.2110  178.0990  142.8320 C   0  0  0  0  0  2  0  0  0  0  0  0
  189.3270  177.1450  141.9610 C   0  0  0  0  0  0  0  0  0  0  0  0
  189.1960  177.0460  144.7820 C   0  0  0  0  0  0  0  0  0  0  0  0
  190.6260  177.5680  139.9420 O   0  0  0  0  0  0  0  0  0  0  0  0
  190.4230  177.0330  138.6530 C   0  0  2  0  0  3  0  0  0  0  0  0
  189.1480  176.5030  138.5020 F   0  0  0  0  0  0  0  0  0  0  0  0
  191.4830  176.0400  138.2820 C   0  0  0  0  0  0  0  0  0  0  0  0
  191.2110  174.8520  138.2220 O   0  0  0  0  0  0  0  0  0  0  0  0
  192.7510  176.4530  138.0230 F   0  0  0  0  0  0  0  0  0  0  0  0
  1 14  1  0  0  0  0
  2  1  2  0  0  0  0
  2 19  1  0  0  0  0
  4  1  1  0  0  0  0
  4  8  1  0  0  0  0
  5 18  1  0  0  0  0
  6  9  1  0  0  0  0
  7  3  1  0  0  0  0
  8 15  1  0  0  0  0
  9  8  2  0  0  0  0
 10 11  1  1  0  0  0
 10 19  1  0  0  0  0
 12  2  1  0  0  0  0
 13 17  1  0  0  0  0
 13  6  1  0  0  0  0
 14  3  2  0  0  0  0
 14 15  1  0  0  0  0
 16 10  1  0  0  0  0
 17  4  1  0  0  0  0
 18 12  1  0  0  0  0
 18 16  2  0  0  0  0
 19  7  2  0  0  0  0
 20  5  1  0  0  0  0
 21 22  1  1  0  0  0
 21 20  1  0  0  0  0
 23 21  1  0  0  0  0
 24 23  2  0  0  0  0
 25 23  1  0  0  0  0
M  END
>  <MODEL>
2

>  <REMARK>
 VINA RESULT:      -9.2      3.616      5.110
  Name = 
  3 active torsions:
  status: ('A' for Active; 'I' for Inactive)
    1  A    between atoms: C_2  and  C_21
    2  A    between atoms: N_6  and  O_15
    3  A    between atoms: O_15  and  C_21
                            x       y       z     vdW  Elec       q    Type
                         _______ _______ _______ _____ _____    ______ ____

>  <TORSDO>
F 3

$$$$
=
 OpenBabel10262419433D

 25 28  0  0  1  0  0  0  0  0999 V2000
  186.9370  177.8400  144.7450 C   0  0  0  0  0  0  0  0  0  0  0  0
  187.9640  177.3680  143.9110 C   0  0  0  0  0  0  0  0  0  0  0  0
  188.3620  177.6730  146.6550 N   0  0  0  0  0  0  0  0  0  0  0  0
  185.6130  178.1940  144.3570 N   0  0  0  0  0  0  0  0  0  0  0  0
  188.9820  177.6350  140.3080 N   0  0  0  0  0  2  0  0  0  0  0  0
  182.8870  178.8930  144.0680 C   0  0  0  0  0  2  0  0  0  0  0  0
  189.3790  177.2070  145.8800 C   0  0  0  0  0  3  0  0  0  0  0  0
  184.8570  178.5810  145.5040 C   0  0  0  0  0  0  0  0  0  0  0  0
  183.5880  178.9690  145.3970 C   0  0  0  0  0  3  0  0  0  0  0  0
  190.3060  176.4890  143.6180 C   0  0  2  0  0  3  0  0  0  0  0  0
  191.6970  176.8330  144.1260 C   0  0  0  0  0  1  0  0  0  0  0  0
  187.7490  177.1040  142.4460 C   0  0  0  0  0  2  0  0  0  0  0  0
  183.8640  179.1180  142.9100 C   0  0  0  0  0  2  0  0  0  0  0  0
  187.1650  177.9940  146.1040 C   0  0  0  0  0  0  0  0  0  0  0  0
  185.7660  178.5990  147.0530 S   0  0  0  0  0  0  0  0  0  0  0  0
  190.1760  176.9550  142.2360 N   0  0  0  0  0  0  0  0  0  0  0  0
  185.0340  178.1360  143.0140 C   0  0  0  0  0  2  0  0  0  0  0  0
  189.0320  177.2230  141.6750 C   0  0  0  0  0  0  0  0  0  0  0  0
  189.2130  177.0630  144.4910 C   0  0  0  0  0  0  0  0  0  0  0  0
  190.1000  177.6950  139.5350 O   0  0  0  0  0  0  0  0  0  0  0  0
  189.7000  177.4570  138.2030 C   0  0  2  0  0  3  0  0  0  0  0  0
  190.7850  177.3560  137.3430 F   0  0  0  0  0  0  0  0  0  0  0  0
  188.7050  178.4690  137.7240 C   0  0  0  0  0  0  0  0  0  0  0  0
  189.0610  179.6150  137.5040 O   0  0  0  0  0  0  0  0  0  0  0  0
  187.4040  178.1220  137.5440 F   0  0  0  0  0  0  0  0  0  0  0  0
  1 14  1  0  0  0  0
  2 19  1  0  0  0  0
  2  1  2  0  0  0  0
  4  1  1  0  0  0  0
  4  8  1  0  0  0  0
  5 18  1  0  0  0  0
  6  9  1  0  0  0  0
  7  3  1  0  0  0  0
  8 15  1  0  0  0  0
  9  8  2  0  0  0  0
 10 11  1  1  0  0  0
 10 19  1  0  0  0  0
 12  2  1  0  0  0  0
 13 17  1  0  0  0  0
 13  6  1  0  0  0  0
 14  3  2  0  0  0  0
 14 15  1  0  0  0  0
 16 10  1  0  0  0  0
 17  4  1  0  0  0  0
 18 16  2  0  0  0  0
 18 12  1  0  0  0  0
 19  7  2  0  0  0  0
 20  5  1  0  0  0  0
 21 22  1  6  0  0  0
 21 20  1  0  0  0  0
 23 21  1  0  0  0  0
 24 23  2  0  0  0  0
 25 23  1  0  0  0  0
M  END
>  <MODEL>
3

>  <REMARK>
 VINA RESULT:      -9.2      3.917      5.696
  Name = 
  3 active torsions:
  status: ('A' for Active; 'I' for Inactive)
    1  A    between atoms: C_2  and  C_21
    2  A    between atoms: N_6  and  O_15
    3  A    between atoms: O_15  and  C_21
                            x       y       z     vdW  Elec       q    Type
                         _______ _______ _______ _____ _____    ______ ____

>  <TORSDO>
F 3

$$$$
=
 OpenBabel10262419433D

 25 28  0  0  1  0  0  0  0  0999 V2000
  189.3670  177.3750  144.0830 C   0  0  0  0  0  0  0  0  0  0  0  0
  188.7020  177.5130  142.8530 C   0  0  0  0  0  0  0  0  0  0  0  0
  191.4510  177.0510  142.9610 N   0  0  0  0  0  0  0  0  0  0  0  0
  188.7850  177.4230  145.3810 N   0  0  0  0  0  0  0  0  0  0  0  0
  185.6150  179.1800  141.5190 N   0  0  0  0  0  2  0  0  0  0  0  0
  188.0580  177.3350  148.1140 C   0  0  0  0  0  2  0  0  0  0  0  0
  190.8410  177.1730  141.7500 C   0  0  0  0  0  3  0  0  0  0  0  0
  189.7860  177.1910  146.3720 C   0  0  0  0  0  0  0  0  0  0  0  0
  189.4890  177.1980  147.6700 C   0  0  0  0  0  3  0  0  0  0  0  0
  188.7480  177.5060  140.3350 C   0  0  2  0  0  3  0  0  0  0  0  0
  189.6330  178.0700  139.2350 C   0  0  0  0  0  1  0  0  0  0  0  0
  187.2090  177.6680  142.7630 C   0  0  0  0  0  2  0  0  0  0  0  0
  187.2500  178.1900  147.1320 C   0  0  0  0  0  2  0  0  0  0  0  0
  190.7360  177.1580  144.1090 C   0  0  0  0  0  0  0  0  0  0  0  0
  191.4570  176.9930  145.7440 S   0  0  0  0  0  0  0  0  0  0  0  0
  187.5340  178.3190  140.4330 N   0  0  0  0  0  0  0  0  0  0  0  0
  187.3740  177.6180  145.7180 C   0  0  0  0  0  2  0  0  0  0  0  0
  186.8100  178.3960  141.5120 C   0  0  0  0  0  0  0  0  0  0  0  0
  189.4600  177.4270  141.6670 C   0  0  0  0  0  0  0  0  0  0  0  0
  185.1610  179.8070  140.4000 O   0  0  0  0  0  0  0  0  0  0  0  0
  184.0510  179.0730  139.9320 C   0  0  2  0  0  3  0  0  0  0  0  0
  183.5560  178.2030  140.8940 F   0  0  0  0  0  0  0  0  0  0  0  0
  184.3470  178.3650  138.6440 C   0  0  0  0  0  0  0  0  0  0  0  0
  183.5600  177.5420  138.2070 O   0  0  0  0  0  0  0  0  0  0  0  0
  185.4950  178.6250  137.9650 F   0  0  0  0  0  0  0  0  0  0  0  0
  1 14  1  0  0  0  0
  1  4  1  0  0  0  0
  2  1  2  0  0  0  0
  3 14  2  0  0  0  0
  4 17  1  0  0  0  0
  4  8  1  0  0  0  0
  7  3  1  0  0  0  0
  8  9  2  0  0  0  0
  9  6  1  0  0  0  0
 10 11  1  6  0  0  0
 10 16  1  0  0  0  0
 10 19  1  0  0  0  0
 12  2  1  0  0  0  0
 13  6  1  0  0  0  0
 14 15  1  0  0  0  0
 15  8  1  0  0  0  0
 16 18  2  0  0  0  0
 17 13  1  0  0  0  0
 18  5  1  0  0  0  0
 18 12  1  0  0  0  0
 19  7  2  0  0  0  0
 19  2  1  0  0  0  0
 20  5  1  0  0  0  0
 21 20  1  0  0  0  0
 21 22  1  1  0  0  0
 23 21  1  0  0  0  0
 24 23  2  0  0  0  0
 25 23  1  0  0  0  0
M  END
>  <MODEL>
4

>  <REMARK>
 VINA RESULT:      -9.1      4.742      7.886
  Name = 
  3 active torsions:
  status: ('A' for Active; 'I' for Inactive)
    1  A    between atoms: C_2  and  C_21
    2  A    between atoms: N_6  and  O_15
    3  A    between atoms: O_15  and  C_21
                            x       y       z     vdW  Elec       q    Type
                         _______ _______ _______ _____ _____    ______ ____

>  <TORSDO>
F 3

$$$$
=
 OpenBabel10262419433D

 25 28  0  0  1  0  0  0  0  0999 V2000
  187.8300  177.6880  144.6540 C   0  0  0  0  0  0  0  0  0  0  0  0
  188.5050  177.4810  143.4390 C   0  0  0  0  0  0  0  0  0  0  0  0
  189.8120  177.1690  145.8840 N   0  0  0  0  0  0  0  0  0  0  0  0
  186.4630  178.0440  144.8240 N   0  0  0  0  0  0  0  0  0  0  0  0
  188.2540  178.6280  139.8740 N   0  0  0  0  0  2  0  0  0  0  0  0
  183.8160  178.6310  145.6330 C   0  0  0  0  0  2  0  0  0  0  0  0
  190.4970  176.9540  144.7270 C   0  0  0  0  0  3  0  0  0  0  0  0
  186.1470  178.1120  146.2140 C   0  0  0  0  0  0  0  0  0  0  0  0
  184.9250  178.4400  146.6310 C   0  0  0  0  0  3  0  0  0  0  0  0
  190.5900  176.8310  142.1840 C   0  0  2  0  0  3  0  0  0  0  0  0
  192.0780  177.1290  142.2660 C   0  0  0  0  0  1  0  0  0  0  0  0
  187.8020  177.5490  142.1110 C   0  0  0  0  0  2  0  0  0  0  0  0
  184.3500  179.1720  144.3030 C   0  0  0  0  0  2  0  0  0  0  0  0
  188.5070  177.5390  145.8550 C   0  0  0  0  0  0  0  0  0  0  0  0
  187.5250  177.8270  147.3300 S   0  0  0  0  0  0  0  0  0  0  0  0
  190.0120  177.5940  141.0760 N   0  0  0  0  0  0  0  0  0  0  0  0
  185.4630  178.2630  143.7780 C   0  0  0  0  0  2  0  0  0  0  0  0
  188.7520  177.9160  141.0080 C   0  0  0  0  0  0  0  0  0  0  0  0
  189.8690  177.1230  143.4810 C   0  0  0  0  0  0  0  0  0  0  0  0
  189.0470  178.9290  138.8100 O   0  0  0  0  0  0  0  0  0  0  0  0
  188.7380  178.0090  137.7860 C   0  0  2  0  0  3  0  0  0  0  0  0
  189.7470  177.9290  136.8350 F   0  0  0  0  0  0  0  0  0  0  0  0
  187.4070  178.2900  137.1590 C   0  0  0  0  0  0  0  0  0  0  0  0
  187.1860  179.3810  136.6610 O   0  0  0  0  0  0  0  0  0  0  0  0
  186.4360  177.3390  137.1520 F   0  0  0  0  0  0  0  0  0  0  0  0
  1  4  1  0  0  0  0
  1 14  1  0  0  0  0
  2 19  1  0  0  0  0
  2  1  2  0  0  0  0
  4  8  1  0  0  0  0
  5 18  1  0  0  0  0
  6  9  1  0  0  0  0
  7  3  1  0  0  0  0
  8  9  2  0  0  0  0
  8 15  1  0  0  0  0
 10 11  1  1  0  0  0
 10 19  1  0  0  0  0
 12  2  1  0  0  0  0
 13  6  1  0  0  0  0
 14  3  2  0  0  0  0
 14 15  1  0  0  0  0
 16 10  1  0  0  0  0
 17 13  1  0  0  0  0
 17  4  1  0  0  0  0
 18 16  2  0  0  0  0
 18 12  1  0  0  0  0
 19  7  2  0  0  0  0
 20  5  1  0  0  0  0
 21 22  1  6  0  0  0
 21 20  1  0  0  0  0
 23 21  1  0  0  0  0
 24 23  2  0  0  0  0
 25 23  1  0  0  0  0
M  END
>  <MODEL>
5

>  <REMARK>
 VINA RESULT:      -9.0      4.364      6.618
  Name = 
  3 active torsions:
  status: ('A' for Active; 'I' for Inactive)
    1  A    between atoms: C_2  and  C_21
    2  A    between atoms: N_6  and  O_15
    3  A    between atoms: O_15  and  C_21
                            x       y       z     vdW  Elec       q    Type
                         _______ _______ _______ _____ _____    ______ ____

>  <TORSDO>
F 3

$$$$
=
 OpenBabel10262419433D

 25 28  0  0  1  0  0  0  0  0999 V2000
  184.8110  178.3840  143.9400 C   0  0  0  0  0  0  0  0  0  0  0  0
  186.0640  178.0370  144.4740 C   0  0  0  0  0  0  0  0  0  0  0  0
  183.9250  178.7020  146.1360 N   0  0  0  0  0  0  0  0  0  0  0  0
  184.4490  178.4280  142.5640 N   0  0  0  0  0  0  0  0  0  0  0  0
  189.6660  178.1170  143.4220 N   0  0  0  0  0  2  0  0  0  0  0  0
  183.2670  178.5430  139.9970 C   0  0  0  0  0  2  0  0  0  0  0  0
  185.1220  178.3650  146.6900 C   0  0  0  0  0  3  0  0  0  0  0  0
  183.0710  178.7780  142.4350 C   0  0  0  0  0  0  0  0  0  0  0  0
  182.4960  178.8960  141.2400 C   0  0  0  0  0  3  0  0  0  0  0  0
  187.5450  177.6090  146.4650 C   0  0  2  0  0  3  0  0  0  0  0  0
  187.8320  178.2710  147.8040 C   0  0  0  0  0  1  0  0  0  0  0  0
  187.2060  177.5830  143.6060 C   0  0  0  0  0  2  0  0  0  0  0  0
  184.7620  178.8320  140.1680 C   0  0  0  0  0  2  0  0  0  0  0  0
  183.7680  178.7220  144.7890 C   0  0  0  0  0  0  0  0  0  0  0  0
  182.2220  179.1370  143.9770 S   0  0  0  0  0  0  0  0  0  0  0  0
  188.6510  177.8920  145.5480 N   0  0  0  0  0  0  0  0  0  0  0  0
  185.2940  178.1160  141.4110 C   0  0  0  0  0  2  0  0  0  0  0  0
  188.5310  177.8690  144.2520 C   0  0  0  0  0  0  0  0  0  0  0  0
  186.2230  178.0460  145.8750 C   0  0  0  0  0  0  0  0  0  0  0  0
  190.9070  178.3130  143.9420 O   0  0  0  0  0  0  0  0  0  0  0  0
  191.7290  177.2670  143.4710 C   0  0  2  0  0  3  0  0  0  0  0  0
  191.3440  176.8290  142.2110 F   0  0  0  0  0  0  0  0  0  0  0  0
  191.8150  176.1350  144.4490 C   0  0  0  0  0  0  0  0  0  0  0  0
  191.7650  176.3600  145.6470 O   0  0  0  0  0  0  0  0  0  0  0  0
  191.9620  174.8580  144.0100 F   0  0  0  0  0  0  0  0  0  0  0  0
  1  2  2  0  0  0  0
  1 14  1  0  0  0  0
  2 19  1  0  0  0  0
  3  7  1  0  0  0  0
  4  1  1  0  0  0  0
  5 20  1  0  0  0  0
  5 18  1  0  0  0  0
  6 13  1  0  0  0  0
  6  9  1  0  0  0  0
  8  4  1  0  0  0  0
  8 15  1  0  0  0  0
  9  8  2  0  0  0  0
 10 11  1  1  0  0  0
 12 18  1  0  0  0  0
 12  2  1  0  0  0  0
 13 17  1  0  0  0  0
 14  3  2  0  0  0  0
 15 14  1  0  0  0  0
 16 10  1  0  0  0  0
 17  4  1  0  0  0  0
 18 16  2  0  0  0  0
 19 10  1  0  0  0  0
 19  7  2  0  0  0  0
 21 22  1  6  0  0  0
 21 20  1  0  0  0  0
 21 23  1  0  0  0  0
 23 24  2  0  0  0  0
 25 23  1  0  0  0  0
M  END
>  <MODEL>
6

>  <REMARK>
 VINA RESULT:      -8.9      1.544      1.819
  Name = 
  3 active torsions:
  status: ('A' for Active; 'I' for Inactive)
    1  A    between atoms: C_2  and  C_21
    2  A    between atoms: N_6  and  O_15
    3  A    between atoms: O_15  and  C_21
                            x       y       z     vdW  Elec       q    Type
                         _______ _______ _______ _____ _____    ______ ____

>  <TORSDO>
F 3

$$$$
=
 OpenBabel10262419433D

 25 28  0  0  1  0  0  0  0  0999 V2000
  187.5830  177.8530  143.0150 C   0  0  0  0  0  0  0  0  0  0  0  0
  188.0390  177.4850  144.2930 C   0  0  0  0  0  0  0  0  0  0  0  0
  185.5470  178.6910  143.9420 N   0  0  0  0  0  0  0  0  0  0  0  0
  188.2610  177.6630  141.7780 N   0  0  0  0  0  0  0  0  0  0  0  0
  191.3160  176.9700  146.0490 N   0  0  0  0  0  2  0  0  0  0  0  0
  189.1740  177.3950  139.1130 C   0  0  0  0  0  2  0  0  0  0  0  0
  185.9510  178.3440  145.1950 C   0  0  0  0  0  3  0  0  0  0  0  0
  187.4460  178.1260  140.7010 C   0  0  0  0  0  0  0  0  0  0  0  0
  187.8680  178.0660  139.4390 C   0  0  0  0  0  3  0  0  0  0  0  0
  187.6580  177.3030  146.7760 C   0  0  2  0  0  3  0  0  0  0  0  0
  187.1030  178.1810  147.8860 C   0  0  0  0  0  1  0  0  0  0  0  0
  189.3340  176.7500  144.5010 C   0  0  0  0  0  2  0  0  0  0  0  0
  190.1800  177.5510  140.2580 C   0  0  0  0  0  2  0  0  0  0  0  0
  186.3460  178.4610  142.8700 C   0  0  0  0  0  0  0  0  0  0  0  0
  185.8850  178.8710  141.1850 S   0  0  0  0  0  0  0  0  0  0  0  0
  189.1190  177.2790  146.8730 N   0  0  0  0  0  0  0  0  0  0  0  0
  189.5690  177.0410  141.5650 C   0  0  0  0  0  2  0  0  0  0  0  0
  189.8990  177.0140  145.8660 C   0  0  0  0  0  0  0  0  0  0  0  0
  187.2110  177.7540  145.4030 C   0  0  0  0  0  0  0  0  0  0  0  0
  191.8870  177.1310  147.2720 O   0  0  0  0  0  0  0  0  0  0  0  0
  192.3920  175.8750  147.6670 C   0  0  2  0  0  3  0  0  0  0  0  0
  191.4120  174.8910  147.6540 F   0  0  0  0  0  0  0  0  0  0  0  0
  193.0940  175.9400  148.9890 C   0  0  0  0  0  0  0  0  0  0  0  0
  193.7180  176.9410  149.2990 O   0  0  0  0  0  0  0  0  0  0  0  0
  193.0500  174.8840  149.8430 F   0  0  0  0  0  0  0  0  0  0  0  0
  1  2  1  0  0  0  0
  2 12  1  0  0  0  0
  2 19  2  0  0  0  0
  3  7  2  0  0  0  0
  4  1  1  0  0  0  0
  5 20  1  0  0  0  0
  6  9  1  0  0  0  0
  6 13  1  0  0  0  0
  7 19  1  0  0  0  0
  8 15  1  0  0  0  0
  8  4  1  0  0  0  0
  9  8  2  0  0  0  0
 10 16  1  0  0  0  0
 10 11  1  1  0  0  0
 12 18  1  0  0  0  0
 13 17  1  0  0  0  0
 14  1  2  0  0  0  0
 14  3  1  0  0  0  0
 15 14  1  0  0  0  0
 17  4  1  0  0  0  0
 18  5  1  0  0  0  0
 18 16  2  0  0  0  0
 19 10  1  0  0  0  0
 20 21  1  0  0  0  0
 21 22  1  1  0  0  0
 21 23  1  0  0  0  0
 23 24  2  0  0  0  0
 23 25  1  0  0  0  0
M  END
>  <MODEL>
7

>  <REMARK>
 VINA RESULT:      -8.7      1.918      2.561
  Name = 
  3 active torsions:
  status: ('A' for Active; 'I' for Inactive)
    1  A    between atoms: C_2  and  C_21
    2  A    between atoms: N_6  and  O_15
    3  A    between atoms: O_15  and  C_21
                            x       y       z     vdW  Elec       q    Type
                         _______ _______ _______ _____ _____    ______ ____

>  <TORSDO>
F 3

$$$$
=
 OpenBabel10262419433D

 25 28  0  0  1  0  0  0  0  0999 V2000
  186.3520  178.0450  144.7510 C   0  0  0  0  0  0  0  0  0  0  0  0
  185.3100  178.4150  143.8830 C   0  0  0  0  0  0  0  0  0  0  0  0
  184.9590  178.4430  146.6510 N   0  0  0  0  0  0  0  0  0  0  0  0
  187.6690  177.6450  144.3860 N   0  0  0  0  0  0  0  0  0  0  0  0
  184.2320  177.7180  140.3570 N   0  0  0  0  0  2  0  0  0  0  0  0
  190.3900  176.9130  144.1370 C   0  0  0  0  0  2  0  0  0  0  0  0
  183.9280  178.8140  145.8430 C   0  0  0  0  0  3  0  0  0  0  0  0
  188.4440  177.3980  145.5580 C   0  0  0  0  0  0  0  0  0  0  0  0
  189.7120  176.9980  145.4780 C   0  0  0  0  0  3  0  0  0  0  0  0
  182.9630  179.2550  143.5260 C   0  0  2  0  0  3  0  0  0  0  0  0
  181.5810  178.9770  144.0960 C   0  0  0  0  0  1  0  0  0  0  0  0
  185.5010  178.5000  142.3940 C   0  0  0  0  0  2  0  0  0  0  0  0
  189.3930  176.5520  143.0310 C   0  0  0  0  0  2  0  0  0  0  0  0
  186.1470  178.0560  146.1220 C   0  0  0  0  0  0  0  0  0  0  0  0
  187.5620  177.5680  147.1140 S   0  0  0  0  0  0  0  0  0  0  0  0
  183.0700  178.6260  142.2080 N   0  0  0  0  0  0  0  0  0  0  0  0
  188.2250  177.5400  143.0360 C   0  0  0  0  0  2  0  0  0  0  0  0
  184.2050  178.2920  141.6650 C   0  0  0  0  0  0  0  0  0  0  0  0
  184.0710  178.7900  144.4440 C   0  0  0  0  0  0  0  0  0  0  0  0
  183.1010  177.5670  139.6150 O   0  0  0  0  0  0  0  0  0  0  0  0
  183.2360  178.3870  138.4750 C   0  0  2  0  0  3  0  0  0  0  0  0
  184.3850  178.0920  137.7530 F   0  0  0  0  0  0  0  0  0  0  0  0
  183.1550  179.8440  138.8170 C   0  0  0  0  0  0  0  0  0  0  0  0
  184.1760  180.5010  138.9310 O   0  0  0  0  0  0  0  0  0  0  0  0
  181.9480  180.4370  139.0120 F   0  0  0  0  0  0  0  0  0  0  0  0
  1 14  1  0  0  0  0
  2 19  1  0  0  0  0
  2  1  2  0  0  0  0
  4  1  1  0  0  0  0
  4  8  1  0  0  0  0
  5 18  1  0  0  0  0
  6  9  1  0  0  0  0
  7  3  1  0  0  0  0
  8 15  1  0  0  0  0
  9  8  2  0  0  0  0
 10 11  1  1  0  0  0
 10 19  1  0  0  0  0
 12  2  1  0  0  0  0
 13 17  1  0  0  0  0
 13  6  1  0  0  0  0
 14  3  2  0  0  0  0
 14 15  1  0  0  0  0
 16 10  1  0  0  0  0
 17  4  1  0  0  0  0
 18 16  2  0  0  0  0
 18 12  1  0  0  0  0
 19  7  2  0  0  0  0
 20  5  1  0  0  0  0
 21 22  1  1  0  0  0
 21 23  1  0  0  0  0
 21 20  1  0  0  0  0
 23 24  2  0  0  0  0
 23 25  1  0  0  0  0
M  END
>  <MODEL>
8

>  <REMARK>
 VINA RESULT:      -8.4      5.076      7.439
  Name = 
  3 active torsions:
  status: ('A' for Active; 'I' for Inactive)
    1  A    between atoms: C_2  and  C_21
    2  A    between atoms: N_6  and  O_15
    3  A    between atoms: O_15  and  C_21
                            x       y       z     vdW  Elec       q    Type
                         _______ _______ _______ _____ _____    ______ ____

>  <TORSDO>
F 3

$$$$
=
 OpenBabel10262419433D

 25 28  0  0  1  0  0  0  0  0999 V2000
  186.2120  178.2350  141.8480 C   0  0  0  0  0  0  0  0  0  0  0  0
  186.6760  177.8570  143.1190 C   0  0  0  0  0  0  0  0  0  0  0  0
  184.1410  178.9710  142.7840 N   0  0  0  0  0  0  0  0  0  0  0  0
  186.9010  178.1010  140.6090 N   0  0  0  0  0  0  0  0  0  0  0  0
  189.9650  177.4320  144.8780 N   0  0  0  0  0  2  0  0  0  0  0  0
  187.8340  177.9300  137.9440 C   0  0  0  0  0  2  0  0  0  0  0  0
  184.5530  178.6120  144.0310 C   0  0  0  0  0  3  0  0  0  0  0  0
  186.0720  178.5550  139.5400 C   0  0  0  0  0  0  0  0  0  0  0  0
  186.5000  178.5410  138.2790 C   0  0  0  0  0  3  0  0  0  0  0  0
  186.2940  177.6040  145.5950 C   0  0  2  0  0  3  0  0  0  0  0  0
  185.7000  178.4340  146.7220 C   0  0  0  0  0  1  0  0  0  0  0  0
  187.9990  177.1690  143.3160 C   0  0  0  0  0  2  0  0  0  0  0  0
  188.8290  178.0990  139.0970 C   0  0  0  0  0  2  0  0  0  0  0  0
  184.9520  178.7980  141.7110 C   0  0  0  0  0  0  0  0  0  0  0  0
  184.4810  179.2270  140.0330 S   0  0  0  0  0  0  0  0  0  0  0  0
  187.7540  177.6360  145.6990 N   0  0  0  0  0  0  0  0  0  0  0  0
  188.2330  177.5360  140.3890 C   0  0  0  0  0  2  0  0  0  0  0  0
  188.5480  177.4240  144.6900 C   0  0  0  0  0  0  0  0  0  0  0  0
  185.8350  178.0670  144.2310 C   0  0  0  0  0  0  0  0  0  0  0  0
  190.5250  177.5880  146.1080 O   0  0  0  0  0  0  0  0  0  0  0  0
  191.7070  176.8190  146.1290 C   0  0  2  0  0  3  0  0  0  0  0  0
  191.7480  175.8940  145.0930 F   0  0  0  0  0  0  0  0  0  0  0  0
  191.9320  176.1690  147.4600 C   0  0  0  0  0  0  0  0  0  0  0  0
  192.5130  176.7770  148.3440 O   0  0  0  0  0  0  0  0  0  0  0  0
  191.5040  174.9000  147.6870 F   0  0  0  0  0  0  0  0  0  0  0  0
  1  2  1  0  0  0  0
  2 12  1  0  0  0  0
  2 19  2  0  0  0  0
  3  7  2  0  0  0  0
  4  1  1  0  0  0  0
  5 20  1  0  0  0  0
  6  9  1  0  0  0  0
  6 13  1  0  0  0  0
  7 19  1  0  0  0  0
  8 15  1  0  0  0  0
  8  4  1  0  0  0  0
  9  8  2  0  0  0  0
 10 16  1  0  0  0  0
 10 11  1  1  0  0  0
 12 18  1  0  0  0  0
 13 17  1  0  0  0  0
 14  1  2  0  0  0  0
 14  3  1  0  0  0  0
 15 14  1  0  0  0  0
 17  4  1  0  0  0  0
 18  5  1  0  0  0  0
 18 16  2  0  0  0  0
 19 10  1  0  0  0  0
 20 21  1  0  0  0  0
 21 22  1  6  0  0  0
 21 23  1  0  0  0  0
 23 25  1  0  0  0  0
 23 24  2  0  0  0  0
M  END
>  <MODEL>
9

>  <REMARK>
 VINA RESULT:      -8.3      1.666      2.496
  Name = 
  3 active torsions:
  status: ('A' for Active; 'I' for Inactive)
    1  A    between atoms: C_2  and  C_21
    2  A    between atoms: N_6  and  O_15
    3  A    between atoms: O_15  and  C_21
                            x       y       z     vdW  Elec       q    Type
                         _______ _______ _______ _____ _____    ______ ____

>  <TORSDO>
F 3

$$$$
