=
 OpenBabel10262419363D

 31 35  0  0  1  0  0  0  0  0999 V2000
  179.7040  176.3740  138.2930 C   0  0  2  0  0  3  0  0  0  0  0  0
  183.2910  177.0050  138.0350 C   0  0  1  0  0  3  0  0  0  0  0  0
  184.1700  175.8490  137.5730 C   0  0  0  0  0  0  0  0  0  0  0  0
  183.7660  173.5560  136.7190 C   0  0  0  0  0  3  0  0  0  0  0  0
  182.0540  176.5420  138.6750 N   0  0  2  0  0  0  0  0  0  0  0  0
  179.0820  178.5260  139.3650 C   0  0  0  0  0  1  0  0  0  0  0  0
  183.7810  174.4410  137.9190 C   0  0  0  0  0  2  0  0  0  0  0  0
  183.5930  178.3490  140.3280 C   0  0  2  0  0  3  0  0  0  0  0  0
  179.1290  175.0610  138.7900 C   0  0  0  0  0  1  0  0  0  0  0  0
  185.9010  177.8570  136.9180 S   0  0  0  0  0  0  0  0  0  0  0  0
  184.8630  173.2840  136.0160 C   0  0  0  0  0  3  0  0  0  0  0  0
  182.1270  177.9700  140.6080 C   0  0  0  0  0  2  0  0  0  0  0  0
  184.1110  177.8980  138.9710 C   0  0  0  0  0  0  0  0  0  0  0  0
  181.0760  176.1290  137.6790 C   0  0  0  0  0  2  0  0  0  0  0  0
  186.1870  173.8810  136.2690 C   0  0  0  0  0  3  0  0  0  0  0  0
  181.4070  177.6740  139.3090 C   0  0  2  0  0  3  0  0  0  0  0  0
  179.9570  177.2920  139.4740 C   0  0  2  0  0  3  0  0  0  0  0  0
  185.3320  178.2850  138.5740 C   0  0  0  0  0  3  0  0  0  0  0  0
  185.4000  176.1320  137.0860 C   0  0  0  0  0  0  0  0  0  0  0  0
  186.4160  175.1120  136.7410 C   0  0  0  0  0  3  0  0  0  0  0  0
  185.6400  179.7880  141.6920 O   0  0  0  0  0  0  0  0  0  0  0  0
  185.4340  178.5980  142.0580 C   0  0  0  0  0  0  0  0  0  0  0  0
  184.4440  177.8160  141.3840 N   0  0  0  0  0  2  0  0  0  0  0  0
  188.1490  177.0220  145.1310 C   0  0  2  0  0  3  0  0  0  0  0  0
  187.5750  177.4040  142.7260 C   0  0  0  0  0  2  0  0  0  0  0  0
  184.7280  178.8530  144.9400 C   0  0  0  0  0  1  0  0  0  0  0  0
  189.1120  178.1950  145.2120 C   0  0  0  0  0  1  0  0  0  0  0  0
  188.1260  176.4070  143.7400 C   0  0  0  0  0  2  0  0  0  0  0  0
  185.9440  178.1270  144.4650 C   0  0  0  0  0  0  0  0  0  0  0  0
  186.2620  178.0180  143.1480 C   0  0  0  0  0  0  0  0  0  0  0  0
  186.7400  177.4380  145.5460 C   0  0  0  0  0  2  0  0  0  0  0  0
  1  9  1  1  0  0  0
  1 17  1  0  0  0  0
  2  3  1  1  0  0  0
  2  5  1  0  0  0  0
  2 13  1  0  0  0  0
  3  7  1  0  0  0  0
  4  7  1  0  0  0  0
  5 14  1  6  0  0  0
  5 16  1  0  0  0  0
  8 12  1  0  0  0  0
  8 23  1  1  0  0  0
 10 19  1  0  0  0  0
 10 18  1  0  0  0  0
 11 15  1  0  0  0  0
 11  4  2  0  0  0  0
 13  8  1  0  0  0  0
 14  1  1  0  0  0  0
 15 20  2  0  0  0  0
 16 17  1  0  0  0  0
 16 12  1  1  0  0  0
 17  6  1  6  0  0  0
 18 13  2  0  0  0  0
 19  3  2  0  0  0  0
 20 19  1  0  0  0  0
 21 22  2  0  0  0  0
 22 30  1  0  0  0  0
 23 22  1  0  0  0  0
 24 27  1  6  0  0  0
 24 31  1  0  0  0  0
 25 30  1  0  0  0  0
 25 28  1  0  0  0  0
 28 24  1  0  0  0  0
 29 26  1  0  0  0  0
 29 31  1  0  0  0  0
 30 29  2  0  0  0  0
M  END
>  <MODEL>
1

>  <REMARK>
 VINA RESULT:      -8.1      0.000      0.000
  Name = 
  2 active torsions:
  status: ('A' for Active; 'I' for Inactive)
    1  A    between atoms: C_9  and  C_22
    2  A    between atoms: C_15  and  N_23
                            x       y       z     vdW  Elec       q    Type
                         _______ _______ _______ _____ _____    ______ ____

>  <TORSDO>
F 2

$$$$
=
 OpenBabel10262419363D

 31 35  0  0  1  0  0  0  0  0999 V2000
  180.1630  178.5780  137.4120 C   0  0  2  0  0  3  0  0  0  0  0  0
  183.6350  177.4520  137.5040 C   0  0  1  0  0  3  0  0  0  0  0  0
  183.8850  175.9550  137.3660 C   0  0  0  0  0  0  0  0  0  0  0  0
  182.4840  173.9690  136.8800 C   0  0  0  0  0  3  0  0  0  0  0  0
  182.3060  177.7450  138.0530 N   0  0  2  0  0  0  0  0  0  0  0  0
  180.5870  180.9520  138.0060 C   0  0  0  0  0  1  0  0  0  0  0  0
  182.8730  174.9840  137.8990 C   0  0  0  0  0  2  0  0  0  0  0  0
  184.4580  178.9690  139.5480 C   0  0  2  0  0  3  0  0  0  0  0  0
  179.0260  177.8060  138.0530 C   0  0  0  0  0  1  0  0  0  0  0  0
  186.3740  176.7750  136.5960 S   0  0  0  0  0  0  0  0  0  0  0  0
  183.3480  173.0870  136.3790 C   0  0  0  0  0  3  0  0  0  0  0  0
  182.9780  179.3620  139.7020 C   0  0  0  0  0  2  0  0  0  0  0  0
  184.7470  178.0550  138.3670 C   0  0  0  0  0  0  0  0  0  0  0  0
  181.2800  177.6160  137.0280 C   0  0  0  0  0  2  0  0  0  0  0  0
  184.7880  173.0620  136.6910 C   0  0  0  0  0  3  0  0  0  0  0  0
  182.2430  179.1530  138.3930 C   0  0  2  0  0  3  0  0  0  0  0  0
  180.7790  179.5110  138.4370 C   0  0  2  0  0  3  0  0  0  0  0  0
  186.0200  177.7550  138.0670 C   0  0  0  0  0  3  0  0  0  0  0  0
  185.1200  175.5410  136.9970 C   0  0  0  0  0  0  0  0  0  0  0  0
  185.5510  174.1260  136.9660 C   0  0  0  0  0  3  0  0  0  0  0  0
  186.7810  179.7350  141.0100 O   0  0  0  0  0  0  0  0  0  0  0  0
  186.0850  178.7990  141.4900 C   0  0  0  0  0  0  0  0  0  0  0  0
  184.9280  178.3480  140.7800 N   0  0  0  0  0  2  0  0  0  0  0  0
  187.6570  176.9860  145.1700 C   0  0  2  0  0  3  0  0  0  0  0  0
  187.8130  177.3870  142.7040 C   0  0  0  0  0  2  0  0  0  0  0  0
  184.6480  179.1820  144.0700 C   0  0  0  0  0  1  0  0  0  0  0  0
  188.6850  178.0470  145.5280 C   0  0  0  0  0  1  0  0  0  0  0  0
  187.9500  176.3530  143.8180 C   0  0  0  0  0  2  0  0  0  0  0  0
  185.8580  178.3170  143.9380 C   0  0  0  0  0  0  0  0  0  0  0  0
  186.5120  178.1510  142.7580 C   0  0  0  0  0  0  0  0  0  0  0  0
  186.2440  177.5640  145.1870 C   0  0  0  0  0  2  0  0  0  0  0  0
  1  9  1  1  0  0  0
  1 17  1  0  0  0  0
  2  3  1  1  0  0  0
  2  5  1  0  0  0  0
  2 13  1  0  0  0  0
  3  7  1  0  0  0  0
  4  7  1  0  0  0  0
  5 14  1  6  0  0  0
  5 16  1  0  0  0  0
  8 12  1  0  0  0  0
  8 23  1  1  0  0  0
 10 19  1  0  0  0  0
 10 18  1  0  0  0  0
 11 15  1  0  0  0  0
 11  4  2  0  0  0  0
 13  8  1  0  0  0  0
 14  1  1  0  0  0  0
 15 20  2  0  0  0  0
 16 17  1  0  0  0  0
 16 12  1  1  0  0  0
 17  6  1  6  0  0  0
 18 13  2  0  0  0  0
 19  3  2  0  0  0  0
 20 19  1  0  0  0  0
 21 22  2  0  0  0  0
 22 30  1  0  0  0  0
 23 22  1  0  0  0  0
 24 31  1  0  0  0  0
 24 27  1  6  0  0  0
 25 30  1  0  0  0  0
 25 28  1  0  0  0  0
 28 24  1  0  0  0  0
 29 26  1  0  0  0  0
 29 31  1  0  0  0  0
 30 29  2  0  0  0  0
M  END
>  <MODEL>
2

>  <REMARK>
 VINA RESULT:      -7.5      1.250      1.443
  Name = 
  2 active torsions:
  status: ('A' for Active; 'I' for Inactive)
    1  A    between atoms: C_9  and  C_22
    2  A    between atoms: C_15  and  N_23
                            x       y       z     vdW  Elec       q    Type
                         _______ _______ _______ _____ _____    ______ ____

>  <TORSDO>
F 2

$$$$
=
 OpenBabel10262419363D

 31 35  0  0  1  0  0  0  0  0999 V2000
  181.5370  177.1650  136.9620 C   0  0  2  0  0  3  0  0  0  0  0  0
  185.1870  177.2780  136.9950 C   0  0  1  0  0  3  0  0  0  0  0  0
  185.9260  175.9880  136.6600 C   0  0  0  0  0  0  0  0  0  0  0  0
  185.2700  173.7310  135.8700 C   0  0  0  0  0  3  0  0  0  0  0  0
  183.8480  177.0260  137.5420 N   0  0  2  0  0  0  0  0  0  0  0  0
  181.1440  179.4370  137.8850 C   0  0  0  0  0  1  0  0  0  0  0  0
  185.3140  174.6690  137.0290 C   0  0  0  0  0  2  0  0  0  0  0  0
  185.4890  178.6880  139.2480 C   0  0  2  0  0  3  0  0  0  0  0  0
  180.7430  175.9730  137.4610 C   0  0  0  0  0  1  0  0  0  0  0  0
  187.9740  177.6990  136.0770 S   0  0  0  0  0  0  0  0  0  0  0  0
  186.3710  173.2720  135.2780 C   0  0  0  0  0  3  0  0  0  0  0  0
  183.9670  178.5320  139.4130 C   0  0  0  0  0  2  0  0  0  0  0  0
  186.0460  178.0970  137.9620 C   0  0  0  0  0  0  0  0  0  0  0  0
  182.9060  176.6990  136.4820 C   0  0  0  0  0  2  0  0  0  0  0  0
  187.7410  173.6930  135.6220 C   0  0  0  0  0  3  0  0  0  0  0  0
  183.3190  178.2680  138.0690 C   0  0  2  0  0  3  0  0  0  0  0  0
  181.8220  178.1010  138.1210 C   0  0  2  0  0  3  0  0  0  0  0  0
  187.3390  178.2890  137.6580 C   0  0  0  0  0  3  0  0  0  0  0  0
  187.2200  176.0710  136.2720 C   0  0  0  0  0  0  0  0  0  0  0  0
  188.1040  174.9030  136.0610 C   0  0  0  0  0  3  0  0  0  0  0  0
  185.5830  179.8040  141.8680 O   0  0  0  0  0  0  0  0  0  0  0  0
  186.1510  178.6890  141.6990 C   0  0  0  0  0  0  0  0  0  0  0  0
  186.1670  178.1000  140.3960 N   0  0  0  0  0  2  0  0  0  0  0  0
  188.4510  176.9350  145.0040 C   0  0  2  0  0  3  0  0  0  0  0  0
  188.2410  177.5510  142.5880 C   0  0  0  0  0  2  0  0  0  0  0  0
  184.9790  178.5790  144.4350 C   0  0  0  0  0  1  0  0  0  0  0  0
  189.3000  178.1450  145.3630 C   0  0  0  0  0  1  0  0  0  0  0  0
  188.6960  176.4790  143.5740 C   0  0  0  0  0  2  0  0  0  0  0  0
  186.3050  177.9810  144.0970 C   0  0  0  0  0  0  0  0  0  0  0  0
  186.8350  178.0390  142.8470 C   0  0  0  0  0  0  0  0  0  0  0  0
  186.9680  177.2220  145.2200 C   0  0  0  0  0  2  0  0  0  0  0  0
  1  9  1  1  0  0  0
  1 17  1  0  0  0  0
  2  3  1  1  0  0  0
  2  5  1  0  0  0  0
  2 13  1  0  0  0  0
  3  7  1  0  0  0  0
  4  7  1  0  0  0  0
  5 14  1  6  0  0  0
  5 16  1  0  0  0  0
  8 12  1  0  0  0  0
  8 23  1  1  0  0  0
 10 19  1  0  0  0  0
 10 18  1  0  0  0  0
 11 15  1  0  0  0  0
 11  4  2  0  0  0  0
 13  8  1  0  0  0  0
 14  1  1  0  0  0  0
 15 20  2  0  0  0  0
 16 17  1  0  0  0  0
 16 12  1  1  0  0  0
 17  6  1  6  0  0  0
 18 13  2  0  0  0  0
 19  3  2  0  0  0  0
 20 19  1  0  0  0  0
 22 21  2  0  0  0  0
 22 30  1  0  0  0  0
 23 22  1  0  0  0  0
 24 31  1  0  0  0  0
 24 27  1  6  0  0  0
 25 30  1  0  0  0  0
 25 28  1  0  0  0  0
 28 24  1  0  0  0  0
 29 26  1  0  0  0  0
 29 31  1  0  0  0  0
 30 29  2  0  0  0  0
M  END
>  <MODEL>
3

>  <REMARK>
 VINA RESULT:      -7.3      1.394      1.789
  Name = 
  2 active torsions:
  status: ('A' for Active; 'I' for Inactive)
    1  A    between atoms: C_9  and  C_22
    2  A    between atoms: C_15  and  N_23
                            x       y       z     vdW  Elec       q    Type
                         _______ _______ _______ _____ _____    ______ ____

>  <TORSDO>
F 2

$$$$
=
 OpenBabel10262419363D

 31 35  0  0  1  0  0  0  0  0999 V2000
  181.4490  176.9780  137.6990 C   0  0  2  0  0  3  0  0  0  0  0  0
  184.8470  176.1730  136.6300 C   0  0  1  0  0  3  0  0  0  0  0  0
  185.2370  174.7000  136.6010 C   0  0  0  0  0  0  0  0  0  0  0  0
  184.0440  172.5520  136.9320 C   0  0  0  0  0  3  0  0  0  0  0  0
  183.7740  176.4450  137.5940 N   0  0  2  0  0  0  0  0  0  0  0  0
  181.7220  179.4460  137.7820 C   0  0  0  0  0  1  0  0  0  0  0  0
  184.6260  173.7540  137.5930 C   0  0  0  0  0  2  0  0  0  0  0  0
  186.1250  178.0780  138.0070 C   0  0  2  0  0  3  0  0  0  0  0  0
  180.7340  176.2360  138.8110 C   0  0  0  0  0  1  0  0  0  0  0  0
  187.1480  175.5790  134.8600 S   0  0  0  0  0  0  0  0  0  0  0  0
  184.7870  171.6720  136.2620 C   0  0  0  0  0  3  0  0  0  0  0  0
  184.7570  178.3680  138.6510 C   0  0  0  0  0  2  0  0  0  0  0  0
  186.0980  177.0040  136.9310 C   0  0  0  0  0  0  0  0  0  0  0  0
  182.4790  176.0600  137.0520 C   0  0  0  0  0  2  0  0  0  0  0  0
  186.2320  171.8190  136.0140 C   0  0  0  0  0  3  0  0  0  0  0  0
  183.6410  177.8800  137.7500 C   0  0  2  0  0  3  0  0  0  0  0  0
  182.2540  178.1200  138.2910 C   0  0  2  0  0  3  0  0  0  0  0  0
  187.2090  176.7620  136.2180 C   0  0  0  0  0  3  0  0  0  0  0  0
  186.3030  174.3330  135.8550 C   0  0  0  0  0  0  0  0  0  0  0  0
  186.8880  172.9730  135.8460 C   0  0  0  0  0  3  0  0  0  0  0  0
  188.6850  179.2710  138.3860 O   0  0  0  0  0  0  0  0  0  0  0  0
  188.3430  178.3760  139.2070 C   0  0  0  0  0  0  0  0  0  0  0  0
  187.0840  177.7160  139.0430 N   0  0  0  0  0  2  0  0  0  0  0  0
  190.8470  177.0920  142.5790 C   0  0  2  0  0  3  0  0  0  0  0  0
  188.7650  178.1680  141.7030 C   0  0  0  0  0  2  0  0  0  0  0  0
  190.9680  177.0660  138.6970 C   0  0  0  0  0  1  0  0  0  0  0  0
  190.1810  175.7560  142.8660 C   0  0  0  0  0  1  0  0  0  0  0  0
  189.8780  178.2530  142.7430 C   0  0  0  0  0  2  0  0  0  0  0  0
  190.4800  177.3950  140.0700 C   0  0  0  0  0  0  0  0  0  0  0  0
  189.2790  177.9890  140.2950 C   0  0  0  0  0  0  0  0  0  0  0  0
  191.4600  177.1100  141.1810 C   0  0  0  0  0  2  0  0  0  0  0  0
  1 17  1  0  0  0  0
  1  9  1  1  0  0  0
  2  3  1  1  0  0  0
  2 13  1  0  0  0  0
  2  5  1  0  0  0  0
  3  7  1  0  0  0  0
  4  7  1  0  0  0  0
  5 14  1  6  0  0  0
  5 16  1  0  0  0  0
  8 12  1  0  0  0  0
  8 23  1  1  0  0  0
 10 19  1  0  0  0  0
 10 18  1  0  0  0  0
 11  4  2  0  0  0  0
 13  8  1  0  0  0  0
 14  1  1  0  0  0  0
 15 11  1  0  0  0  0
 16 17  1  0  0  0  0
 16 12  1  1  0  0  0
 17  6  1  6  0  0  0
 18 13  2  0  0  0  0
 19  3  2  0  0  0  0
 20 19  1  0  0  0  0
 20 15  2  0  0  0  0
 21 22  2  0  0  0  0
 22 30  1  0  0  0  0
 23 22  1  0  0  0  0
 24 28  1  0  0  0  0
 24 27  1  6  0  0  0
 25 28  1  0  0  0  0
 26 29  1  0  0  0  0
 29 30  2  0  0  0  0
 29 31  1  0  0  0  0
 30 25  1  0  0  0  0
 31 24  1  0  0  0  0
M  END
>  <MODEL>
4

>  <REMARK>
 VINA RESULT:      -7.1      2.494      3.543
  Name = 
  2 active torsions:
  status: ('A' for Active; 'I' for Inactive)
    1  A    between atoms: C_9  and  C_22
    2  A    between atoms: C_15  and  N_23
                            x       y       z     vdW  Elec       q    Type
                         _______ _______ _______ _____ _____    ______ ____

>  <TORSDO>
F 2

$$$$
=
 OpenBabel10262419363D

 31 35  0  0  1  0  0  0  0  0999 V2000
  188.3960  178.6570  140.6270 C   0  0  2  0  0  3  0  0  0  0  0  0
  184.8610  178.8560  139.7330 C   0  0  1  0  0  3  0  0  0  0  0  0
  183.8490  178.7340  140.8670 C   0  0  0  0  0  0  0  0  0  0  0  0
  183.9740  178.6100  143.3400 C   0  0  0  0  0  3  0  0  0  0  0  0
  186.1290  178.1860  140.0460 N   0  0  2  0  0  0  0  0  0  0  0  0
  189.3020  178.6090  138.3140 C   0  0  0  0  0  1  0  0  0  0  0  0
  184.1710  177.8780  142.0560 C   0  0  0  0  0  2  0  0  0  0  0  0
  184.9420  177.2930  137.5640 C   0  0  2  0  0  3  0  0  0  0  0  0
  188.9280  177.7170  141.6910 C   0  0  0  0  0  1  0  0  0  0  0  0
  182.2050  180.0060  139.0950 S   0  0  0  0  0  0  0  0  0  0  0  0
  182.7820  179.0490  143.7380 C   0  0  0  0  0  3  0  0  0  0  0  0
  186.3990  177.0040  137.9700 C   0  0  0  0  0  2  0  0  0  0  0  0
  184.2300  178.3010  138.4530 C   0  0  0  0  0  0  0  0  0  0  0  0
  186.9440  179.0040  140.9320 C   0  0  0  0  0  2  0  0  0  0  0  0
  181.5470  178.9540  142.9390 C   0  0  0  0  0  3  0  0  0  0  0  0
  186.9310  178.1240  138.8400 C   0  0  2  0  0  3  0  0  0  0  0  0
  188.3580  177.9370  139.2920 C   0  0  2  0  0  3  0  0  0  0  0  0
  183.0020  178.7200  138.1150 C   0  0  0  0  0  3  0  0  0  0  0  0
  182.5930  179.1910  140.6580 C   0  0  0  0  0  0  0  0  0  0  0  0
  181.4700  179.0070  141.6040 C   0  0  0  0  0  3  0  0  0  0  0  0
  184.7770  175.5160  135.3430 O   0  0  0  0  0  0  0  0  0  0  0  0
  184.1710  175.1740  136.3950 C   0  0  0  0  0  0  0  0  0  0  0  0
  184.1890  176.0460  137.5300 N   0  0  0  0  0  2  0  0  0  0  0  0
  181.8500  171.4550  136.1320 C   0  0  2  0  0  3  0  0  0  0  0  0
  182.0930  173.9030  135.6750 C   0  0  0  0  0  2  0  0  0  0  0  0
  185.2510  172.6600  137.5710 C   0  0  0  0  0  1  0  0  0  0  0  0
  182.2530  171.0300  134.7290 C   0  0  0  0  0  1  0  0  0  0  0  0
  181.1420  172.8010  136.1320 C   0  0  0  0  0  2  0  0  0  0  0  0
  183.8930  172.7490  136.9550 C   0  0  0  0  0  0  0  0  0  0  0  0
  183.4090  173.8990  136.4160 C   0  0  0  0  0  0  0  0  0  0  0  0
  183.0600  171.4950  137.0620 C   0  0  0  0  0  2  0  0  0  0  0  0
  1 14  1  0  0  0  0
  1  9  1  1  0  0  0
  2 13  1  6  0  0  0
  2  5  1  0  0  0  0
  2  3  1  0  0  0  0
  3  7  1  0  0  0  0
  4 11  2  0  0  0  0
  5 14  1  1  0  0  0
  7  4  1  0  0  0  0
  8 23  1  1  0  0  0
  8 12  1  0  0  0  0
  8 13  1  0  0  0  0
 10 19  1  0  0  0  0
 15 11  1  0  0  0  0
 16 12  1  6  0  0  0
 16 17  1  0  0  0  0
 16  5  1  0  0  0  0
 17  6  1  6  0  0  0
 17  1  1  0  0  0  0
 18 13  2  0  0  0  0
 18 10  1  0  0  0  0
 19  3  2  0  0  0  0
 19 20  1  0  0  0  0
 20 15  2  0  0  0  0
 21 22  2  0  0  0  0
 22 30  1  0  0  0  0
 22 23  1  0  0  0  0
 24 27  1  6  0  0  0
 24 31  1  0  0  0  0
 25 28  1  0  0  0  0
 25 30  1  0  0  0  0
 28 24  1  0  0  0  0
 29 31  1  0  0  0  0
 29 26  1  0  0  0  0
 30 29  2  0  0  0  0
M  END
>  <MODEL>
5

>  <REMARK>
 VINA RESULT:      -6.7      2.848      8.077
  Name = 
  2 active torsions:
  status: ('A' for Active; 'I' for Inactive)
    1  A    between atoms: C_9  and  C_22
    2  A    between atoms: C_15  and  N_23
                            x       y       z     vdW  Elec       q    Type
                         _______ _______ _______ _____ _____    ______ ____

>  <TORSDO>
F 2

$$$$
=
 OpenBabel10262419363D

 31 35  0  0  1  0  0  0  0  0999 V2000
  183.9830  178.6050  143.0680 C   0  0  2  0  0  3  0  0  0  0  0  0
  182.6400  177.5010  139.8560 C   0  0  1  0  0  3  0  0  0  0  0  0
  183.5770  177.5560  138.6550 C   0  0  0  0  0  0  0  0  0  0  0  0
  185.9800  178.0550  138.3110 C   0  0  0  0  0  3  0  0  0  0  0  0
  183.0080  178.4730  140.8920 N   0  0  2  0  0  0  0  0  0  0  0  0
  181.8540  178.5230  144.3440 C   0  0  0  0  0  1  0  0  0  0  0  0
  184.6290  178.6220  138.5860 C   0  0  0  0  0  2  0  0  0  0  0  0
  180.2640  178.7190  140.0150 C   0  0  2  0  0  3  0  0  0  0  0  0
  184.9300  179.7810  143.2070 C   0  0  0  0  0  1  0  0  0  0  0  0
  181.8400  175.7110  137.6330 S   0  0  0  0  0  0  0  0  0  0  0  0
  186.2750  177.4230  137.1760 C   0  0  0  0  0  3  0  0  0  0  0  0
  180.8170  179.3780  141.2910 C   0  0  0  0  0  2  0  0  0  0  0  0
  181.2050  177.7150  139.3670 C   0  0  0  0  0  0  0  0  0  0  0  0
  184.1330  177.9910  141.6810 C   0  0  0  0  0  2  0  0  0  0  0  0
  185.3020  177.1280  136.1090 C   0  0  0  0  0  3  0  0  0  0  0  0
  181.9390  178.5400  141.8690 C   0  0  2  0  0  3  0  0  0  0  0  0
  182.5510  179.1010  143.1270 C   0  0  2  0  0  3  0  0  0  0  0  0
  180.7730  176.9890  138.3250 C   0  0  0  0  0  3  0  0  0  0  0  0
  183.2730  176.8060  137.5700 C   0  0  0  0  0  0  0  0  0  0  0  0
  184.0000  176.8690  136.2830 C   0  0  0  0  0  3  0  0  0  0  0  0
  182.0040  180.7460  139.0240 O   0  0  0  0  0  0  0  0  0  0  0  0
  180.8300  180.7230  138.5620 C   0  0  0  0  0  0  0  0  0  0  0  0
  179.9020  179.7490  139.0510 N   0  0  0  0  0  2  0  0  0  0  0  0
  179.8220  183.9480  135.7560 C   0  0  2  0  0  3  0  0  0  0  0  0
  180.1320  183.1210  138.0970 C   0  0  0  0  0  2  0  0  0  0  0  0
  180.8360  180.2010  135.6310 C   0  0  0  0  0  1  0  0  0  0  0  0
  181.1800  184.6280  135.6880 C   0  0  0  0  0  1  0  0  0  0  0  0
  179.2570  183.9570  137.1690 C   0  0  0  0  0  2  0  0  0  0  0  0
  180.4180  181.5080  136.2190 C   0  0  0  0  0  0  0  0  0  0  0  0
  180.4220  181.7400  137.5590 C   0  0  0  0  0  0  0  0  0  0  0  0
  179.8970  182.5180  135.2270 C   0  0  0  0  0  2  0  0  0  0  0  0
  1 17  1  0  0  0  0
  1  9  1  6  0  0  0
  2  3  1  6  0  0  0
  2  5  1  0  0  0  0
  4  7  1  0  0  0  0
  5 14  1  1  0  0  0
  5 16  1  0  0  0  0
  7  3  1  0  0  0  0
  8 23  1  6  0  0  0
  8 12  1  0  0  0  0
 10 18  1  0  0  0  0
 11  4  2  0  0  0  0
 13  2  1  0  0  0  0
 13  8  1  0  0  0  0
 14  1  1  0  0  0  0
 15 20  2  0  0  0  0
 15 11  1  0  0  0  0
 16 12  1  6  0  0  0
 16 17  1  0  0  0  0
 17  6  1  1  0  0  0
 18 13  2  0  0  0  0
 19 10  1  0  0  0  0
 19  3  2  0  0  0  0
 20 19  1  0  0  0  0
 22 21  2  0  0  0  0
 22 23  1  0  0  0  0
 24 27  1  1  0  0  0
 24 28  1  0  0  0  0
 26 29  1  0  0  0  0
 28 25  1  0  0  0  0
 29 30  2  0  0  0  0
 30 25  1  0  0  0  0
 30 22  1  0  0  0  0
 31 24  1  0  0  0  0
 31 29  1  0  0  0  0
M  END
>  <MODEL>
6

>  <REMARK>
 VINA RESULT:      -6.7      3.404      7.278
  Name = 
  2 active torsions:
  status: ('A' for Active; 'I' for Inactive)
    1  A    between atoms: C_9  and  C_22
    2  A    between atoms: C_15  and  N_23
                            x       y       z     vdW  Elec       q    Type
                         _______ _______ _______ _____ _____    ______ ____

>  <TORSDO>
F 2

$$$$
=
 OpenBabel10262419363D

 31 35  0  0  1  0  0  0  0  0999 V2000
  180.7850  172.9400  136.4240 C   0  0  2  0  0  3  0  0  0  0  0  0
  183.5670  175.2670  136.8510 C   0  0  1  0  0  3  0  0  0  0  0  0
  184.9600  174.6670  136.9980 C   0  0  0  0  0  0  0  0  0  0  0  0
  185.9280  172.3910  136.8300 C   0  0  0  0  0  3  0  0  0  0  0  0
  182.5140  174.3420  137.2870 N   0  0  2  0  0  0  0  0  0  0  0  0
  178.9520  174.6080  136.5900 C   0  0  0  0  0  1  0  0  0  0  0  0
  185.1230  173.3310  137.6610 C   0  0  0  0  0  2  0  0  0  0  0  0
  182.4030  176.9090  138.6140 C   0  0  2  0  0  3  0  0  0  0  0  0
  180.6990  171.6130  137.1510 C   0  0  0  0  0  1  0  0  0  0  0  0
  185.7570  177.1500  136.1860 S   0  0  0  0  0  0  0  0  0  0  0  0
  187.2070  172.6130  136.5320 C   0  0  0  0  0  3  0  0  0  0  0  0
  181.2560  175.8830  138.6370 C   0  0  0  0  0  2  0  0  0  0  0  0
  183.5180  176.5840  137.6310 C   0  0  0  0  0  0  0  0  0  0  0  0
  182.2470  173.3400  136.2650 C   0  0  0  0  0  2  0  0  0  0  0  0
  187.9490  173.8330  136.8970 C   0  0  0  0  0  3  0  0  0  0  0  0
  181.2610  175.0650  137.3610 C   0  0  2  0  0  3  0  0  0  0  0  0
  180.1690  174.0280  137.2840 C   0  0  2  0  0  3  0  0  0  0  0  0
  184.5030  177.4750  137.4390 C   0  0  0  0  0  3  0  0  0  0  0  0
  186.0300  175.4600  136.7580 C   0  0  0  0  0  0  0  0  0  0  0  0
  187.4340  175.0630  137.0020 C   0  0  0  0  0  3  0  0  0  0  0  0
  182.6570  179.3610  140.0440 O   0  0  0  0  0  0  0  0  0  0  0  0
  183.0240  178.3100  140.6390 C   0  0  0  0  0  0  0  0  0  0  0  0
  182.9540  177.0550  139.9550 N   0  0  0  0  0  2  0  0  0  0  0  0
  184.8750  178.7990  144.5920 C   0  0  2  0  0  3  0  0  0  0  0  0
  185.0750  178.3570  142.1370 C   0  0  0  0  0  2  0  0  0  0  0  0
  181.3230  178.8450  143.0230 C   0  0  0  0  0  1  0  0  0  0  0  0
  185.2690  180.2630  144.4830 C   0  0  0  0  0  1  0  0  0  0  0  0
  185.5560  177.9510  143.5270 C   0  0  0  0  0  2  0  0  0  0  0  0
  182.8000  178.6450  143.1110 C   0  0  0  0  0  0  0  0  0  0  0  0
  183.5710  178.4060  142.0180 C   0  0  0  0  0  0  0  0  0  0  0  0
  183.3600  178.6300  144.5120 C   0  0  0  0  0  2  0  0  0  0  0  0
  1  9  1  1  0  0  0
  1 17  1  0  0  0  0
  2  3  1  1  0  0  0
  2  5  1  0  0  0  0
  2 13  1  0  0  0  0
  3  7  1  0  0  0  0
  4  7  1  0  0  0  0
  5 14  1  6  0  0  0
  5 16  1  0  0  0  0
  8 12  1  0  0  0  0
  8 23  1  1  0  0  0
 10 19  1  0  0  0  0
 10 18  1  0  0  0  0
 11  4  2  0  0  0  0
 11 15  1  0  0  0  0
 13  8  1  0  0  0  0
 14  1  1  0  0  0  0
 15 20  2  0  0  0  0
 16 12  1  1  0  0  0
 17  6  1  6  0  0  0
 17 16  1  0  0  0  0
 18 13  2  0  0  0  0
 19  3  2  0  0  0  0
 19 20  1  0  0  0  0
 21 22  2  0  0  0  0
 22 30  1  0  0  0  0
 23 22  1  0  0  0  0
 24 27  1  6  0  0  0
 25 28  1  0  0  0  0
 26 29  1  0  0  0  0
 28 24  1  0  0  0  0
 29 31  1  0  0  0  0
 30 25  1  0  0  0  0
 30 29  2  0  0  0  0
 31 24  1  0  0  0  0
M  END
>  <MODEL>
7

>  <REMARK>
 VINA RESULT:      -6.6      1.915      2.985
  Name = 
  2 active torsions:
  status: ('A' for Active; 'I' for Inactive)
    1  A    between atoms: C_9  and  C_22
    2  A    between atoms: C_15  and  N_23
                            x       y       z     vdW  Elec       q    Type
                         _______ _______ _______ _____ _____    ______ ____

>  <TORSDO>
F 2

$$$$
=
 OpenBabel10262419363D

 31 35  0  0  1  0  0  0  0  0999 V2000
  184.1390  175.1150  135.2310 C   0  0  2  0  0  3  0  0  0  0  0  0
  187.7250  175.6610  135.6460 C   0  0  1  0  0  3  0  0  0  0  0  0
  188.6230  174.4290  135.6300 C   0  0  0  0  0  0  0  0  0  0  0  0
  188.2970  172.0120  135.1860 C   0  0  0  0  0  3  0  0  0  0  0  0
  186.3580  175.3470  136.0790 N   0  0  2  0  0  0  0  0  0  0  0  0
  183.4110  177.4460  135.6860 C   0  0  0  0  0  1  0  0  0  0  0  0
  188.0990  173.1260  136.1570 C   0  0  0  0  0  2  0  0  0  0  0  0
  187.5970  177.4480  137.6320 C   0  0  2  0  0  3  0  0  0  0  0  0
  183.4060  173.9370  135.8430 C   0  0  0  0  0  1  0  0  0  0  0  0
  190.5530  176.2500  134.9820 S   0  0  0  0  0  0  0  0  0  0  0  0
  189.5040  171.5940  134.8100 C   0  0  0  0  0  3  0  0  0  0  0  0
  186.0880  177.1430  137.6530 C   0  0  0  0  0  2  0  0  0  0  0  0
  188.3700  176.7240  136.5410 C   0  0  0  0  0  0  0  0  0  0  0  0
  185.5970  174.7410  134.9950 C   0  0  0  0  0  2  0  0  0  0  0  0
  190.7710  172.2250  135.2230 C   0  0  0  0  0  3  0  0  0  0  0  0
  185.6480  176.5880  136.3140 C   0  0  2  0  0  3  0  0  0  0  0  0
  184.1800  176.2570  136.2290 C   0  0  2  0  0  3  0  0  0  0  0  0
  189.6660  177.0140  136.3530 C   0  0  0  0  0  3  0  0  0  0  0  0
  189.9420  174.5990  135.3790 C   0  0  0  0  0  0  0  0  0  0  0  0
  190.9550  173.5250  135.4770 C   0  0  0  0  0  3  0  0  0  0  0  0
  188.6850  179.3510  139.4530 O   0  0  0  0  0  0  0  0  0  0  0  0
  188.6750  178.1440  139.8230 C   0  0  0  0  0  0  0  0  0  0  0  0
  188.1740  177.1410  138.9340 N   0  0  0  0  0  2  0  0  0  0  0  0
  190.5840  177.2800  143.6840 C   0  0  2  0  0  3  0  0  0  0  0  0
  190.7150  177.5010  141.1950 C   0  0  0  0  0  2  0  0  0  0  0  0
  187.0710  178.2360  142.3300 C   0  0  0  0  0  1  0  0  0  0  0  0
  191.1810  178.6500  143.9580 C   0  0  0  0  0  1  0  0  0  0  0  0
  191.1350  176.6700  142.4030 C   0  0  0  0  0  2  0  0  0  0  0  0
  188.5050  177.8200  142.3010 C   0  0  0  0  0  0  0  0  0  0  0  0
  189.2320  177.7850  141.1540 C   0  0  0  0  0  0  0  0  0  0  0  0
  189.0600  177.3480  143.6220 C   0  0  0  0  0  2  0  0  0  0  0  0
  1  9  1  1  0  0  0
  1 17  1  0  0  0  0
  2  3  1  1  0  0  0
  2  5  1  0  0  0  0
  2 13  1  0  0  0  0
  3  7  1  0  0  0  0
  4  7  1  0  0  0  0
  5 14  1  6  0  0  0
  5 16  1  0  0  0  0
  8 12  1  0  0  0  0
  8 23  1  1  0  0  0
 10 19  1  0  0  0  0
 10 18  1  0  0  0  0
 11  4  2  0  0  0  0
 11 15  1  0  0  0  0
 13  8  1  0  0  0  0
 14  1  1  0  0  0  0
 15 20  2  0  0  0  0
 16 12  1  1  0  0  0
 17  6  1  6  0  0  0
 17 16  1  0  0  0  0
 18 13  2  0  0  0  0
 19 20  1  0  0  0  0
 19  3  2  0  0  0  0
 21 22  2  0  0  0  0
 22 30  1  0  0  0  0
 23 22  1  0  0  0  0
 24 27  1  6  0  0  0
 25 28  1  0  0  0  0
 28 24  1  0  0  0  0
 29 26  1  0  0  0  0
 29 31  1  0  0  0  0
 30 25  1  0  0  0  0
 30 29  2  0  0  0  0
 31 24  1  0  0  0  0
M  END
>  <MODEL>
8

>  <REMARK>
 VINA RESULT:      -6.4      3.307      4.651
  Name = 
  2 active torsions:
  status: ('A' for Active; 'I' for Inactive)
    1  A    between atoms: C_9  and  C_22
    2  A    between atoms: C_15  and  N_23
                            x       y       z     vdW  Elec       q    Type
                         _______ _______ _______ _____ _____    ______ ____

>  <TORSDO>
F 2

$$$$
=
 OpenBabel10262419363D

 31 35  0  0  1  0  0  0  0  0999 V2000
  189.2610  177.9400  139.4040 C   0  0  2  0  0  3  0  0  0  0  0  0
  186.5270  178.7680  141.6790 C   0  0  1  0  0  3  0  0  0  0  0  0
  186.5600  178.1370  143.0660 C   0  0  0  0  0  0  0  0  0  0  0  0
  188.1760  176.7510  144.3370 C   0  0  0  0  0  3  0  0  0  0  0  0
  187.2460  177.9620  140.6840 N   0  0  2  0  0  0  0  0  0  0  0  0
  188.3290  179.0370  137.3800 C   0  0  0  0  0  1  0  0  0  0  0  0
  187.1630  176.7740  143.2430 C   0  0  0  0  0  2  0  0  0  0  0  0
  184.5150  178.5410  139.9310 C   0  0  2  0  0  3  0  0  0  0  0  0
  189.8810  176.5580  139.3260 C   0  0  0  0  0  1  0  0  0  0  0  0
  184.9220  180.2290  143.6970 S   0  0  0  0  0  0  0  0  0  0  0  0
  187.8630  176.9890  145.6090 C   0  0  0  0  0  3  0  0  0  0  0  0
  185.5770  178.0040  138.9540 C   0  0  0  0  0  2  0  0  0  0  0  0
  185.0650  178.9860  141.2770 C   0  0  0  0  0  0  0  0  0  0  0  0
  188.6840  178.1610  140.7970 C   0  0  0  0  0  2  0  0  0  0  0  0
  186.5240  177.3880  146.0780 C   0  0  0  0  0  3  0  0  0  0  0  0
  186.9540  178.4840  139.3640 C   0  0  2  0  0  3  0  0  0  0  0  0
  188.0700  178.0120  138.4670 C   0  0  2  0  0  3  0  0  0  0  0  0
  184.2470  179.5880  142.1530 C   0  0  0  0  0  3  0  0  0  0  0  0
  185.8240  178.7060  144.0480 C   0  0  0  0  0  0  0  0  0  0  0  0
  185.6400  178.1240  145.3960 C   0  0  0  0  0  3  0  0  0  0  0  0
  181.8080  178.7510  139.0650 O   0  0  0  0  0  0  0  0  0  0  0  0
  182.1440  177.6800  139.6400 C   0  0  0  0  0  0  0  0  0  0  0  0
  183.4810  177.5340  140.1290 N   0  0  0  0  0  2  0  0  0  0  0  0
  179.3970  174.3200  140.3180 C   0  0  2  0  0  3  0  0  0  0  0  0
  181.4790  175.2530  139.2910 C   0  0  0  0  0  2  0  0  0  0  0  0
  179.6850  178.0740  141.2720 C   0  0  0  0  0  1  0  0  0  0  0  0
  180.1220  173.6600  141.4800 C   0  0  0  0  0  1  0  0  0  0  0  0
  180.2610  174.3620  139.0660 C   0  0  0  0  0  2  0  0  0  0  0  0
  180.0020  176.7870  140.5840 C   0  0  0  0  0  0  0  0  0  0  0  0
  181.1290  176.6130  139.8440 C   0  0  0  0  0  0  0  0  0  0  0  0
  178.9340  175.7260  140.6890 C   0  0  0  0  0  2  0  0  0  0  0  0
  1  9  1  1  0  0  0
  1 14  1  0  0  0  0
  2 13  1  6  0  0  0
  2  3  1  0  0  0  0
  3  7  1  0  0  0  0
  3 19  2  0  0  0  0
  4 11  2  0  0  0  0
  5 14  1  1  0  0  0
  5  2  1  0  0  0  0
  7  4  1  0  0  0  0
  8 23  1  1  0  0  0
  8 13  1  0  0  0  0
 10 19  1  0  0  0  0
 11 15  1  0  0  0  0
 12  8  1  0  0  0  0
 13 18  2  0  0  0  0
 16 12  1  6  0  0  0
 16  5  1  0  0  0  0
 17  6  1  6  0  0  0
 17 16  1  0  0  0  0
 17  1  1  0  0  0  0
 18 10  1  0  0  0  0
 19 20  1  0  0  0  0
 20 15  2  0  0  0  0
 21 22  2  0  0  0  0
 22 30  1  0  0  0  0
 22 23  1  0  0  0  0
 24 31  1  0  0  0  0
 24 27  1  1  0  0  0
 25 30  1  0  0  0  0
 28 25  1  0  0  0  0
 28 24  1  0  0  0  0
 29 31  1  0  0  0  0
 29 26  1  0  0  0  0
 30 29  2  0  0  0  0
M  END
>  <MODEL>
9

>  <REMARK>
 VINA RESULT:      -6.2      2.653      7.592
  Name = 
  2 active torsions:
  status: ('A' for Active; 'I' for Inactive)
    1  A    between atoms: C_9  and  C_22
    2  A    between atoms: C_15  and  N_23
                            x       y       z     vdW  Elec       q    Type
                         _______ _______ _______ _____ _____    ______ ____

>  <TORSDO>
F 2

$$$$
