=
 OpenBabel10262423173D

 34 38  0  0  1  0  0  0  0  0999 V2000
  183.9590  179.4900  139.8870 O   0  0  0  0  0  0  0  0  0  0  0  0
  179.2610  180.3410  138.8950 C   0  0  0  0  0  2  0  0  0  0  0  0
  180.1430  179.9120  141.2670 C   0  0  0  0  0  2  0  0  0  0  0  0
  182.7510  179.4420  140.2450 C   0  0  0  0  0  0  0  0  0  0  0  0
  182.3300  179.0920  143.9100 C   0  0  0  0  0  2  0  0  0  0  0  0
  180.9500  179.0510  143.4170 N   0  0  0  0  0  0  0  0  0  0  0  0
  183.2690  179.1980  142.7200 C   0  0  2  0  0  3  0  0  0  0  0  0
  181.0200  178.8750  141.9700 C   0  0  2  0  0  3  0  0  0  0  0  0
  182.4020  179.0540  141.5790 N   0  0  0  0  0  0  0  0  0  0  0  0
  180.3450  177.8480  143.9620 C   0  0  0  0  0  1  0  0  0  0  0  0
  179.5240  180.0620  137.4170 C   0  0  0  0  0  2  0  0  0  0  0  0
  180.9060  180.5620  137.0030 C   0  0  2  0  0  3  0  0  0  0  0  0
  180.4070  179.9330  139.7820 C   0  0  0  0  0  0  0  0  0  0  0  0
  181.9820  179.8650  137.8310 C   0  0  0  0  0  2  0  0  0  0  0  0
  181.6690  179.7970  139.3070 C   0  0  0  0  0  0  0  0  0  0  0  0
  184.2840  178.0630  142.7470 C   0  0  0  0  0  2  0  0  0  0  0  0
  187.0070  177.2290  142.8250 F   0  0  0  0  0  0  0  0  0  0  0  0
  185.2930  178.6160  146.3540 C   0  0  0  0  0  3  0  0  0  0  0  0
  189.3990  177.7980  146.2660 N   0  0  0  0  0  0  0  0  0  0  0  0
  188.6240  177.2190  145.1600 C   0  0  0  0  0  2  0  0  0  0  0  0
  187.2130  177.7390  145.1530 C   0  0  0  0  0  0  0  0  0  0  0  0
  185.1140  178.1170  143.9880 C   0  0  0  0  0  0  0  0  0  0  0  0
  187.4230  178.2900  147.6190 C   0  0  0  0  0  2  0  0  0  0  0  0
  186.6210  178.1850  146.3530 C   0  0  0  0  0  0  0  0  0  0  0  0
  188.7200  177.4870  147.5240 C   0  0  0  0  0  2  0  0  0  0  0  0
  184.5400  178.5780  145.1780 C   0  0  0  0  0  3  0  0  0  0  0  0
  186.4500  177.6900  143.9760 C   0  0  0  0  0  0  0  0  0  0  0  0
  191.1470  176.6670  144.9610 C   0  0  0  0  0  1  0  0  0  0  0  0
  190.7410  177.2090  146.3210 C   0  0  2  0  0  3  0  0  0  0  0  0
  190.8300  176.2010  147.2880 O   0  0  0  0  0  1  0  0  0  0  0  0
  181.0300  182.0770  137.1200 C   0  0  0  0  0  2  0  0  0  0  0  0
  180.5160  182.7140  135.9180 N   0  0  0  0  0  2  0  0  0  0  0  0
  180.9470  184.1020  135.9540 C   0  0  0  0  0  2  0  0  0  0  0  0
  181.5970  184.4040  137.2900 C   0  0  0  0  0  1  0  0  0  0  0  0
  1  4  2  0  0  0  0
  2 13  1  0  0  0  0
  4  9  1  0  0  0  0
  6  5  1  0  0  0  0
  6 10  1  0  0  0  0
  7 16  1  1  0  0  0
  7  5  1  0  0  0  0
  8  3  1  6  0  0  0
  8  6  1  0  0  0  0
  9  8  1  0  0  0  0
  9  7  1  0  0  0  0
 11  2  1  0  0  0  0
 12 31  1  1  0  0  0
 12 11  1  0  0  0  0
 12 14  1  0  0  0  0
 13  3  1  0  0  0  0
 14 15  1  0  0  0  0
 15 13  2  0  0  0  0
 15  4  1  0  0  0  0
 16 22  1  0  0  0  0
 17 27  1  0  0  0  0
 19 29  1  0  0  0  0
 19 25  1  0  0  0  0
 20 19  1  0  0  0  0
 21 20  1  0  0  0  0
 21 24  2  0  0  0  0
 22 26  1  0  0  0  0
 24 18  1  0  0  0  0
 24 23  1  0  0  0  0
 25 23  1  0  0  0  0
 26 18  2  0  0  0  0
 27 22  2  0  0  0  0
 27 21  1  0  0  0  0
 29 28  1  6  0  0  0
 29 30  1  0  0  0  0
 32 33  1  0  0  0  0
 32 31  1  0  0  0  0
 33 34  1  0  0  0  0
M  END
>  <MODEL>
1

>  <REMARK>
 VINA RESULT:      -9.0      0.000      0.000
  Name = 
  6 active torsions:
  status: ('A' for Active; 'I' for Inactive)
    1  A    between atoms: C_3  and  N_24
    2  A    between atoms: N_7  and  C_15
    3  A    between atoms: C_8  and  C_17
    4  A    between atoms: C_8  and  C_18
    5  A    between atoms: N_24  and  C_25
    6  A    between atoms: C_25  and  C_27
                            x       y       z     vdW  Elec       q    Type
                         _______ _______ _______ _____ _____    ______ ____

>  <TORSDO>
F 6

$$$$
=
 OpenBabel10262423173D

 34 38  0  0  1  0  0  0  0  0999 V2000
  186.9100  178.4270  139.6530 O   0  0  0  0  0  0  0  0  0  0  0  0
  191.3630  176.4430  139.5670 C   0  0  0  0  0  2  0  0  0  0  0  0
  189.9340  176.6000  141.6920 C   0  0  0  0  0  2  0  0  0  0  0  0
  187.9320  178.0340  140.2770 C   0  0  0  0  0  0  0  0  0  0  0  0
  187.3040  177.4530  143.8830 C   0  0  0  0  0  2  0  0  0  0  0  0
  188.7400  177.1840  143.7530 N   0  0  0  0  0  0  0  0  0  0  0  0
  186.7670  177.8890  142.5300 C   0  0  2  0  0  3  0  0  0  0  0  0
  189.1490  177.6770  142.4420 C   0  0  2  0  0  3  0  0  0  0  0  0
  187.9450  178.0060  141.7090 N   0  0  0  0  0  0  0  0  0  0  0  0
  189.4110  178.0060  144.7440 C   0  0  0  0  0  1  0  0  0  0  0  0
  191.6270  177.0960  138.2110 C   0  0  0  0  0  2  0  0  0  0  0  0
  190.3560  177.1310  137.3650 C   0  0  2  0  0  3  0  0  0  0  0  0
  190.1300  176.9750  140.2440 C   0  0  0  0  0  0  0  0  0  0  0  0
  189.2710  177.9250  138.0880 C   0  0  0  0  0  2  0  0  0  0  0  0
  189.1340  177.5800  139.5520 C   0  0  0  0  0  0  0  0  0  0  0  0
  186.0780  179.2420  142.6470 C   0  0  0  0  0  2  0  0  0  0  0  0
  184.0860  178.7420  140.6730 F   0  0  0  0  0  0  0  0  0  0  0  0
  182.8620  179.0600  144.6370 C   0  0  0  0  0  3  0  0  0  0  0  0
  180.0840  177.8810  141.7340 N   0  0  0  0  0  0  0  0  0  0  0  0
  181.3070  178.5040  141.2090 C   0  0  0  0  0  2  0  0  0  0  0  0
  182.3300  178.6950  142.2960 C   0  0  0  0  0  0  0  0  0  0  0  0
  184.6310  179.0780  142.9790 C   0  0  0  0  0  0  0  0  0  0  0  0
  180.4770  178.6380  144.0250 C   0  0  0  0  0  2  0  0  0  0  0  0
  181.9150  178.8280  143.6370 C   0  0  0  0  0  0  0  0  0  0  0  0
  179.5570  178.7230  142.8080 C   0  0  0  0  0  2  0  0  0  0  0  0
  184.2140  179.1890  144.3090 C   0  0  0  0  0  3  0  0  0  0  0  0
  183.6870  178.8370  141.9680 C   0  0  0  0  0  0  0  0  0  0  0  0
  178.9950  176.3850  140.1170 C   0  0  0  0  0  1  0  0  0  0  0  0
  179.0600  177.7920  140.6870 C   0  0  2  0  0  3  0  0  0  0  0  0
  179.2800  178.7180  139.6610 O   0  0  0  0  0  1  0  0  0  0  0  0
  189.8590  175.7350  137.0110 C   0  0  0  0  0  2  0  0  0  0  0  0
  188.7430  175.8230  136.0820 N   0  0  0  0  0  2  0  0  0  0  0  0
  187.7190  174.9080  136.5580 C   0  0  0  0  0  2  0  0  0  0  0  0
  186.4940  175.6880  136.9920 C   0  0  0  0  0  1  0  0  0  0  0  0
  1  4  2  0  0  0  0
  2 13  1  0  0  0  0
  4  9  1  0  0  0  0
  6  5  1  0  0  0  0
  6 10  1  0  0  0  0
  7 16  1  1  0  0  0
  7  5  1  0  0  0  0
  8  3  1  6  0  0  0
  8  6  1  0  0  0  0
  9  8  1  0  0  0  0
  9  7  1  0  0  0  0
 11  2  1  0  0  0  0
 12 31  1  1  0  0  0
 12 14  1  0  0  0  0
 12 11  1  0  0  0  0
 13  3  1  0  0  0  0
 14 15  1  0  0  0  0
 15 13  2  0  0  0  0
 15  4  1  0  0  0  0
 16 22  1  0  0  0  0
 17 27  1  0  0  0  0
 19 25  1  0  0  0  0
 20 19  1  0  0  0  0
 20 21  1  0  0  0  0
 21 24  1  0  0  0  0
 22 26  2  0  0  0  0
 24 23  1  0  0  0  0
 24 18  2  0  0  0  0
 25 23  1  0  0  0  0
 26 18  1  0  0  0  0
 27 21  2  0  0  0  0
 27 22  1  0  0  0  0
 29 28  1  6  0  0  0
 29 19  1  0  0  0  0
 30 29  1  0  0  0  0
 32 33  1  0  0  0  0
 32 31  1  0  0  0  0
 33 34  1  0  0  0  0
M  END
>  <MODEL>
2

>  <REMARK>
 VINA RESULT:      -8.8      4.290      8.629
  Name = 
  6 active torsions:
  status: ('A' for Active; 'I' for Inactive)
    1  A    between atoms: C_3  and  N_24
    2  A    between atoms: N_7  and  C_15
    3  A    between atoms: C_8  and  C_17
    4  A    between atoms: C_8  and  C_18
    5  A    between atoms: N_24  and  C_25
    6  A    between atoms: C_25  and  C_27
                            x       y       z     vdW  Elec       q    Type
                         _______ _______ _______ _____ _____    ______ ____

>  <TORSDO>
F 6

$$$$
=
 OpenBabel10262423173D

 34 38  0  0  1  0  0  0  0  0999 V2000
  188.9370  177.9890  143.0910 O   0  0  0  0  0  0  0  0  0  0  0  0
  187.6600  177.5540  147.7770 C   0  0  0  0  0  2  0  0  0  0  0  0
  185.9580  177.6870  145.8610 C   0  0  0  0  0  2  0  0  0  0  0  0
  188.0530  178.0810  143.9850 C   0  0  0  0  0  0  0  0  0  0  0  0
  184.6040  178.0940  142.6290 C   0  0  0  0  0  2  0  0  0  0  0  0
  184.3910  178.2750  144.0680 N   0  0  0  0  0  0  0  0  0  0  0  0
  186.1000  178.0450  142.3620 C   0  0  2  0  0  3  0  0  0  0  0  0
  185.6900  178.5890  144.6560 C   0  0  2  0  0  3  0  0  0  0  0  0
  186.6910  178.3570  143.6370 N   0  0  0  0  0  0  0  0  0  0  0  0
  183.5590  179.4560  144.2230 C   0  0  0  0  0  1  0  0  0  0  0  0
  189.0710  177.9600  148.1980 C   0  0  0  0  0  2  0  0  0  0  0  0
  190.1110  177.4120  147.2240 C   0  0  2  0  0  3  0  0  0  0  0  0
  187.3920  177.7950  146.3160 C   0  0  0  0  0  0  0  0  0  0  0  0
  189.8450  177.9500  145.8200 C   0  0  0  0  0  2  0  0  0  0  0  0
  188.3940  177.8930  145.4090 C   0  0  0  0  0  0  0  0  0  0  0  0
  186.4880  179.1010  141.3350 C   0  0  0  0  0  2  0  0  0  0  0  0
  188.9520  178.1760  140.2460 F   0  0  0  0  0  0  0  0  0  0  0  0
  185.5410  177.8690  137.8830 C   0  0  0  0  0  3  0  0  0  0  0  0
  189.1090  176.1290  136.5490 N   0  0  0  0  0  0  0  0  0  0  0  0
  189.2610  177.1110  137.6310 C   0  0  0  0  0  2  0  0  0  0  0  0
  187.9250  177.5180  138.1890 C   0  0  0  0  0  0  0  0  0  0  0  0
  186.5980  178.5050  139.9700 C   0  0  0  0  0  0  0  0  0  0  0  0
  186.8250  176.8160  136.0150 C   0  0  0  0  0  2  0  0  0  0  0  0
  186.7710  177.4390  137.3810 C   0  0  0  0  0  0  0  0  0  0  0  0
  188.2620  176.7110  135.5080 C   0  0  0  0  0  2  0  0  0  0  0  0
  185.4550  178.4040  139.1700 C   0  0  0  0  0  3  0  0  0  0  0  0
  187.8370  178.0680  139.4780 C   0  0  0  0  0  0  0  0  0  0  0  0
  191.5410  176.1830  136.8950 C   0  0  0  0  0  1  0  0  0  0  0  0
  190.4100  175.8160  135.9490 C   0  0  2  0  0  3  0  0  0  0  0  0
  190.5850  176.4580  134.7170 O   0  0  0  0  0  1  0  0  0  0  0  0
  190.1520  175.8880  147.2190 C   0  0  0  0  0  2  0  0  0  0  0  0
  191.3980  175.4200  147.8040 N   0  0  0  0  0  2  0  0  0  0  0  0
  192.4490  175.6840  146.8350 C   0  0  0  0  0  2  0  0  0  0  0  0
  192.1920  174.8920  145.5680 C   0  0  0  0  0  1  0  0  0  0  0  0
  1  4  2  0  0  0  0
  2 11  1  0  0  0  0
  3 13  1  0  0  0  0
  4 15  1  0  0  0  0
  5  6  1  0  0  0  0
  6 10  1  0  0  0  0
  6  8  1  0  0  0  0
  7 16  1  6  0  0  0
  7  5  1  0  0  0  0
  7  9  1  0  0  0  0
  8  3  1  1  0  0  0
  9  4  1  0  0  0  0
  9  8  1  0  0  0  0
 12 31  1  6  0  0  0
 12 11  1  0  0  0  0
 13  2  1  0  0  0  0
 14 12  1  0  0  0  0
 15 14  1  0  0  0  0
 15 13  2  0  0  0  0
 18 26  1  0  0  0  0
 19 20  1  0  0  0  0
 20 21  1  0  0  0  0
 21 27  2  0  0  0  0
 22 16  1  0  0  0  0
 23 24  1  0  0  0  0
 24 18  2  0  0  0  0
 24 21  1  0  0  0  0
 25 23  1  0  0  0  0
 25 19  1  0  0  0  0
 26 22  2  0  0  0  0
 27 22  1  0  0  0  0
 27 17  1  0  0  0  0
 29 19  1  0  0  0  0
 29 28  1  1  0  0  0
 30 29  1  0  0  0  0
 31 32  1  0  0  0  0
 33 32  1  0  0  0  0
 34 33  1  0  0  0  0
M  END
>  <MODEL>
3

>  <REMARK>
 VINA RESULT:      -8.7      4.466      9.874
  Name = 
  6 active torsions:
  status: ('A' for Active; 'I' for Inactive)
    1  A    between atoms: C_3  and  N_24
    2  A    between atoms: N_7  and  C_15
    3  A    between atoms: C_8  and  C_17
    4  A    between atoms: C_8  and  C_18
    5  A    between atoms: N_24  and  C_25
    6  A    between atoms: C_25  and  C_27
                            x       y       z     vdW  Elec       q    Type
                         _______ _______ _______ _____ _____    ______ ____

>  <TORSDO>
F 6

$$$$
=
 OpenBabel10262423173D

 34 38  0  0  1  0  0  0  0  0999 V2000
  186.6770  178.5910  140.0650 O   0  0  0  0  0  0  0  0  0  0  0  0
  191.1110  176.5660  139.9350 C   0  0  0  0  0  2  0  0  0  0  0  0
  189.6380  176.5930  142.0360 C   0  0  0  0  0  2  0  0  0  0  0  0
  187.6810  178.1440  140.6820 C   0  0  0  0  0  0  0  0  0  0  0  0
  186.9710  177.3250  144.2260 C   0  0  0  0  0  2  0  0  0  0  0  0
  188.4060  177.0490  144.1070 N   0  0  0  0  0  0  0  0  0  0  0  0
  186.4670  177.8590  142.8950 C   0  0  2  0  0  3  0  0  0  0  0  0
  188.8480  177.6250  142.8420 C   0  0  2  0  0  3  0  0  0  0  0  0
  187.6630  178.0180  142.1090 N   0  0  0  0  0  0  0  0  0  0  0  0
  189.0640  177.7930  145.1660 C   0  0  0  0  0  1  0  0  0  0  0  0
  191.4100  177.3070  138.6340 C   0  0  0  0  0  2  0  0  0  0  0  0
  190.1580  177.4150  137.7650 C   0  0  2  0  0  3  0  0  0  0  0  0
  189.8690  177.0650  140.6220 C   0  0  0  0  0  0  0  0  0  0  0  0
  189.0650  178.1690  138.5190 C   0  0  0  0  0  2  0  0  0  0  0  0
  188.8950  177.7270  139.9520 C   0  0  0  0  0  0  0  0  0  0  0  0
  185.7890  179.2090  143.0900 C   0  0  0  0  0  2  0  0  0  0  0  0
  183.9690  178.7840  140.9400 F   0  0  0  0  0  0  0  0  0  0  0  0
  182.4160  178.9850  144.7960 C   0  0  0  0  0  3  0  0  0  0  0  0
  179.8890  177.9170  141.6320 N   0  0  0  0  0  0  0  0  0  0  0  0
  181.1540  178.5480  141.2330 C   0  0  0  0  0  2  0  0  0  0  0  0
  182.0820  178.6970  142.4070 C   0  0  0  0  0  0  0  0  0  0  0  0
  184.3180  179.0440  143.2930 C   0  0  0  0  0  0  0  0  0  0  0  0
  180.0890  178.5990  143.9720 C   0  0  0  0  0  2  0  0  0  0  0  0
  181.5560  178.7920  143.7130 C   0  0  0  0  0  0  0  0  0  0  0  0
  179.2760  178.7280  142.6850 C   0  0  0  0  0  2  0  0  0  0  0  0
  183.7910  179.1150  144.5870 C   0  0  0  0  0  3  0  0  0  0  0  0
  183.4630  178.8410  142.2000 C   0  0  0  0  0  0  0  0  0  0  0  0
  179.0150  176.5140  139.8150 C   0  0  0  0  0  1  0  0  0  0  0  0
  178.9560  177.8680  140.5010 C   0  0  2  0  0  3  0  0  0  0  0  0
  179.2040  178.8880  139.5760 O   0  0  0  0  0  1  0  0  0  0  0  0
  189.6550  176.0510  137.3060 C   0  0  0  0  0  2  0  0  0  0  0  0
  190.5640  175.4900  136.3190 N   0  0  0  0  0  2  0  0  0  0  0  0
  190.8930  174.1440  136.7590 C   0  0  0  0  0  2  0  0  0  0  0  0
  192.3560  174.0740  137.1490 C   0  0  0  0  0  1  0  0  0  0  0  0
  1  4  2  0  0  0  0
  2 13  1  0  0  0  0
  4  9  1  0  0  0  0
  6  5  1  0  0  0  0
  6 10  1  0  0  0  0
  7 16  1  1  0  0  0
  7  5  1  0  0  0  0
  8  3  1  6  0  0  0
  8  6  1  0  0  0  0
  9  8  1  0  0  0  0
  9  7  1  0  0  0  0
 11  2  1  0  0  0  0
 12 31  1  1  0  0  0
 12 14  1  0  0  0  0
 12 11  1  0  0  0  0
 13  3  1  0  0  0  0
 14 15  1  0  0  0  0
 15 13  2  0  0  0  0
 15  4  1  0  0  0  0
 16 22  1  0  0  0  0
 17 27  1  0  0  0  0
 19 25  1  0  0  0  0
 20 19  1  0  0  0  0
 20 21  1  0  0  0  0
 21 24  1  0  0  0  0
 22 26  2  0  0  0  0
 24 23  1  0  0  0  0
 24 18  2  0  0  0  0
 25 23  1  0  0  0  0
 26 18  1  0  0  0  0
 27 21  2  0  0  0  0
 27 22  1  0  0  0  0
 29 28  1  6  0  0  0
 29 19  1  0  0  0  0
 30 29  1  0  0  0  0
 32 33  1  0  0  0  0
 32 31  1  0  0  0  0
 33 34  1  0  0  0  0
M  END
>  <MODEL>
4

>  <REMARK>
 VINA RESULT:      -8.7      4.361      8.958
  Name = 
  6 active torsions:
  status: ('A' for Active; 'I' for Inactive)
    1  A    between atoms: C_3  and  N_24
    2  A    between atoms: N_7  and  C_15
    3  A    between atoms: C_8  and  C_17
    4  A    between atoms: C_8  and  C_18
    5  A    between atoms: N_24  and  C_25
    6  A    between atoms: C_25  and  C_27
                            x       y       z     vdW  Elec       q    Type
                         _______ _______ _______ _____ _____    ______ ____

>  <TORSDO>
F 6

$$$$
=
 OpenBabel10262423173D

 34 38  0  0  1  0  0  0  0  0999 V2000
  185.5570  178.9840  140.0610 O   0  0  0  0  0  0  0  0  0  0  0  0
  182.1880  177.8790  136.7130 C   0  0  0  0  0  2  0  0  0  0  0  0
  184.5720  176.9300  136.6760 C   0  0  0  0  0  2  0  0  0  0  0  0
  185.2720  178.5180  138.9250 C   0  0  0  0  0  0  0  0  0  0  0  0
  187.9630  176.4070  137.4970 C   0  0  0  0  0  2  0  0  0  0  0  0
  186.9600  176.4260  136.4280 N   0  0  0  0  0  0  0  0  0  0  0  0
  187.4740  177.2840  138.6380 C   0  0  2  0  0  3  0  0  0  0  0  0
  186.0000  177.4730  136.7630 C   0  0  2  0  0  3  0  0  0  0  0  0
  186.2810  177.9000  138.1170 N   0  0  0  0  0  0  0  0  0  0  0  0
  187.6440  176.8490  135.2190 C   0  0  0  0  0  1  0  0  0  0  0  0
  181.3450  179.0670  137.1720 C   0  0  0  0  0  2  0  0  0  0  0  0
  181.4580  179.2680  138.6810 C   0  0  2  0  0  3  0  0  0  0  0  0
  183.5830  177.8980  137.2770 C   0  0  0  0  0  0  0  0  0  0  0  0
  182.9130  179.5230  139.0650 C   0  0  0  0  0  2  0  0  0  0  0  0
  183.8930  178.5860  138.4030 C   0  0  0  0  0  0  0  0  0  0  0  0
  188.5100  178.3510  138.9650 C   0  0  0  0  0  2  0  0  0  0  0  0
  187.5250  178.6400  141.6220 F   0  0  0  0  0  0  0  0  0  0  0  0
  191.3690  177.1260  141.1240 C   0  0  0  0  0  3  0  0  0  0  0  0
  189.6730  177.1630  144.9520 N   0  0  0  0  0  0  0  0  0  0  0  0
  189.0060  178.0240  143.9670 C   0  0  0  0  0  2  0  0  0  0  0  0
  189.5420  177.7850  142.5820 C   0  0  0  0  0  0  0  0  0  0  0  0
  189.3070  177.9720  140.1710 C   0  0  0  0  0  0  0  0  0  0  0  0
  191.6810  176.8690  143.5890 C   0  0  0  0  0  2  0  0  0  0  0  0
  190.8540  177.2960  142.4110 C   0  0  0  0  0  0  0  0  0  0  0  0
  191.1120  177.4190  144.8960 C   0  0  0  0  0  2  0  0  0  0  0  0
  190.6010  177.4670  140.0080 C   0  0  0  0  0  3  0  0  0  0  0  0
  188.7770  178.1380  141.4600 C   0  0  0  0  0  0  0  0  0  0  0  0
  190.0650  176.7660  147.3450 C   0  0  0  0  0  1  0  0  0  0  0  0
  189.2110  177.4760  146.3090 C   0  0  2  0  0  3  0  0  0  0  0  0
  187.8620  177.1480  146.4900 O   0  0  0  0  0  1  0  0  0  0  0  0
  180.8910  178.0890  139.4640 C   0  0  0  0  0  2  0  0  0  0  0  0
  181.5240  178.0080  140.7720 N   0  0  0  0  0  2  0  0  0  0  0  0
  180.5960  178.5830  141.7310 C   0  0  0  0  0  2  0  0  0  0  0  0
  181.3430  179.0060  142.9800 C   0  0  0  0  0  1  0  0  0  0  0  0
  2 11  1  0  0  0  0
  2 13  1  0  0  0  0
  3 13  1  0  0  0  0
  4  1  2  0  0  0  0
  5  7  1  0  0  0  0
  6  8  1  0  0  0  0
  6  5  1  0  0  0  0
  7 16  1  6  0  0  0
  8  3  1  1  0  0  0
  8  9  1  0  0  0  0
  9  7  1  0  0  0  0
  9  4  1  0  0  0  0
 10  6  1  0  0  0  0
 11 12  1  0  0  0  0
 12 14  1  0  0  0  0
 12 31  1  1  0  0  0
 13 15  2  0  0  0  0
 15  4  1  0  0  0  0
 15 14  1  0  0  0  0
 16 22  1  0  0  0  0
 18 24  1  0  0  0  0
 19 29  1  0  0  0  0
 20 19  1  0  0  0  0
 21 20  1  0  0  0  0
 22 27  2  0  0  0  0
 23 25  1  0  0  0  0
 24 21  2  0  0  0  0
 24 23  1  0  0  0  0
 25 19  1  0  0  0  0
 26 22  1  0  0  0  0
 26 18  2  0  0  0  0
 27 17  1  0  0  0  0
 27 21  1  0  0  0  0
 29 30  1  0  0  0  0
 29 28  1  1  0  0  0
 31 32  1  0  0  0  0
 32 33  1  0  0  0  0
 33 34  1  0  0  0  0
M  END
>  <MODEL>
5

>  <REMARK>
 VINA RESULT:      -8.5      3.542      5.603
  Name = 
  6 active torsions:
  status: ('A' for Active; 'I' for Inactive)
    1  A    between atoms: C_3  and  N_24
    2  A    between atoms: N_7  and  C_15
    3  A    between atoms: C_8  and  C_17
    4  A    between atoms: C_8  and  C_18
    5  A    between atoms: N_24  and  C_25
    6  A    between atoms: C_25  and  C_27
                            x       y       z     vdW  Elec       q    Type
                         _______ _______ _______ _____ _____    ______ ____

>  <TORSDO>
F 6

$$$$
=
 OpenBabel10262423173D

 34 38  0  0  1  0  0  0  0  0999 V2000
  187.3870  177.8760  139.4690 O   0  0  0  0  0  0  0  0  0  0  0  0
  187.1200  176.2080  134.8950 C   0  0  0  0  0  2  0  0  0  0  0  0
  189.1250  175.7710  136.4360 C   0  0  0  0  0  2  0  0  0  0  0  0
  187.9650  177.3970  138.4560 C   0  0  0  0  0  0  0  0  0  0  0  0
  191.2800  175.9310  139.2240 C   0  0  0  0  0  2  0  0  0  0  0  0
  191.1840  175.7770  137.7690 N   0  0  0  0  0  0  0  0  0  0  0  0
  190.0380  176.6520  139.7200 C   0  0  2  0  0  3  0  0  0  0  0  0
  190.0570  176.5920  137.3280 C   0  0  2  0  0  3  0  0  0  0  0  0
  189.3470  177.0260  138.5130 N   0  0  0  0  0  0  0  0  0  0  0  0
  192.3830  176.3690  137.2040 C   0  0  0  0  0  1  0  0  0  0  0  0
  185.9790  177.1810  134.6070 C   0  0  0  0  0  2  0  0  0  0  0  0
  185.0850  177.3530  135.8330 C   0  0  2  0  0  3  0  0  0  0  0  0
  187.8240  176.4950  136.1930 C   0  0  0  0  0  0  0  0  0  0  0  0
  185.9040  177.8900  137.0040 C   0  0  0  0  0  2  0  0  0  0  0  0
  187.2320  177.1960  137.1910 C   0  0  0  0  0  0  0  0  0  0  0  0
  190.4280  177.8990  140.5030 C   0  0  0  0  0  2  0  0  0  0  0  0
  188.1970  178.3640  142.2120 F   0  0  0  0  0  0  0  0  0  0  0  0
  191.6870  176.8800  143.9250 C   0  0  0  0  0  3  0  0  0  0  0  0
  188.2280  177.1680  146.2680 N   0  0  0  0  0  0  0  0  0  0  0  0
  188.2020  177.9450  145.0210 C   0  0  0  0  0  2  0  0  0  0  0  0
  189.3820  177.6140  144.1490 C   0  0  0  0  0  0  0  0  0  0  0  0
  190.4590  177.6210  141.9700 C   0  0  0  0  0  0  0  0  0  0  0  0
  190.6440  176.8080  146.1950 C   0  0  0  0  0  2  0  0  0  0  0  0
  190.5750  177.1350  144.7310 C   0  0  0  0  0  0  0  0  0  0  0  0
  189.4860  177.4430  146.9620 C   0  0  0  0  0  2  0  0  0  0  0  0
  191.6310  177.1260  142.5520 C   0  0  0  0  0  3  0  0  0  0  0  0
  189.3340  177.8720  142.7700 C   0  0  0  0  0  0  0  0  0  0  0  0
  186.0540  178.3090  146.3690 C   0  0  0  0  0  1  0  0  0  0  0  0
  187.1280  177.5710  147.1500 C   0  0  2  0  0  3  0  0  0  0  0  0
  187.5760  178.3600  148.2160 O   0  0  0  0  0  1  0  0  0  0  0  0
  184.3770  176.0590  136.2180 C   0  0  0  0  0  2  0  0  0  0  0  0
  183.7350  176.2080  137.5140 N   0  0  0  0  0  2  0  0  0  0  0  0
  183.3450  174.8780  137.9520 C   0  0  0  0  0  2  0  0  0  0  0  0
  184.4280  173.8800  137.5930 C   0  0  0  0  0  1  0  0  0  0  0  0
  2 13  1  0  0  0  0
  4  9  1  0  0  0  0
  4  1  2  0  0  0  0
  5  7  1  0  0  0  0
  6  5  1  0  0  0  0
  7 16  1  6  0  0  0
  8  3  1  6  0  0  0
  8  6  1  0  0  0  0
  8  9  1  0  0  0  0
  9  7  1  0  0  0  0
 10  6  1  0  0  0  0
 11  2  1  0  0  0  0
 11 12  1  0  0  0  0
 12 31  1  1  0  0  0
 12 14  1  0  0  0  0
 13  3  1  0  0  0  0
 13 15  2  0  0  0  0
 14 15  1  0  0  0  0
 15  4  1  0  0  0  0
 16 22  1  0  0  0  0
 17 27  1  0  0  0  0
 18 24  1  0  0  0  0
 19 25  1  0  0  0  0
 19 29  1  0  0  0  0
 20 19  1  0  0  0  0
 21 24  2  0  0  0  0
 21 20  1  0  0  0  0
 22 26  1  0  0  0  0
 22 27  2  0  0  0  0
 23 25  1  0  0  0  0
 24 23  1  0  0  0  0
 26 18  2  0  0  0  0
 27 21  1  0  0  0  0
 29 28  1  6  0  0  0
 29 30  1  0  0  0  0
 31 32  1  0  0  0  0
 32 33  1  0  0  0  0
 34 33  1  0  0  0  0
M  END
>  <MODEL>
6

>  <REMARK>
 VINA RESULT:      -8.5      4.944      7.268
  Name = 
  6 active torsions:
  status: ('A' for Active; 'I' for Inactive)
    1  A    between atoms: C_3  and  N_24
    2  A    between atoms: N_7  and  C_15
    3  A    between atoms: C_8  and  C_17
    4  A    between atoms: C_8  and  C_18
    5  A    between atoms: N_24  and  C_25
    6  A    between atoms: C_25  and  C_27
                            x       y       z     vdW  Elec       q    Type
                         _______ _______ _______ _____ _____    ______ ____

>  <TORSDO>
F 6

$$$$
=
 OpenBabel10262423173D

 34 38  0  0  1  0  0  0  0  0999 V2000
  185.5600  178.9990  140.2750 O   0  0  0  0  0  0  0  0  0  0  0  0
  182.4140  177.8780  136.7230 C   0  0  0  0  0  2  0  0  0  0  0  0
  184.7890  176.9140  136.8550 C   0  0  0  0  0  2  0  0  0  0  0  0
  185.3480  178.5230  139.1280 C   0  0  0  0  0  0  0  0  0  0  0  0
  188.1130  176.3800  137.9060 C   0  0  0  0  0  2  0  0  0  0  0  0
  187.1840  176.3930  136.7720 N   0  0  0  0  0  0  0  0  0  0  0  0
  187.5550  177.2720  139.0020 C   0  0  2  0  0  3  0  0  0  0  0  0
  186.2100  177.4490  137.0310 C   0  0  2  0  0  3  0  0  0  0  0  0
  186.4040  177.8890  138.3960 N   0  0  0  0  0  0  0  0  0  0  0  0
  187.9500  176.7980  135.6060 C   0  0  0  0  0  1  0  0  0  0  0  0
  181.5500  179.0760  137.1110 C   0  0  0  0  0  2  0  0  0  0  0  0
  181.5630  179.2930  138.6230 C   0  0  2  0  0  3  0  0  0  0  0  0
  183.7680  177.8940  137.3780 C   0  0  0  0  0  0  0  0  0  0  0  0
  182.9910  179.5440  139.1000 C   0  0  0  0  0  2  0  0  0  0  0  0
  184.0070  178.5930  138.5140 C   0  0  0  0  0  0  0  0  0  0  0  0
  188.5750  178.3370  139.3860 C   0  0  0  0  0  2  0  0  0  0  0  0
  187.4890  178.3840  142.0190 F   0  0  0  0  0  0  0  0  0  0  0  0
  191.4310  177.1330  141.5600 C   0  0  0  0  0  3  0  0  0  0  0  0
  189.6130  176.8070  145.3180 N   0  0  0  0  0  0  0  0  0  0  0  0
  188.9270  177.6950  144.3690 C   0  0  0  0  0  2  0  0  0  0  0  0
  189.5220  177.5830  142.9920 C   0  0  0  0  0  0  0  0  0  0  0  0
  189.3530  177.9220  140.5910 C   0  0  0  0  0  0  0  0  0  0  0  0
  191.6780  176.7250  144.0130 C   0  0  0  0  0  2  0  0  0  0  0  0
  190.8660  177.1830  142.8360 C   0  0  0  0  0  0  0  0  0  0  0  0
  191.0350  177.1490  145.3320 C   0  0  0  0  0  2  0  0  0  0  0  0
  190.6800  177.5050  140.4430 C   0  0  0  0  0  3  0  0  0  0  0  0
  188.7730  177.9670  141.8690 C   0  0  0  0  0  0  0  0  0  0  0  0
  187.8490  177.8730  146.6550 C   0  0  0  0  0  1  0  0  0  0  0  0
  189.0900  176.9990  146.6750 C   0  0  2  0  0  3  0  0  0  0  0  0
  190.0520  177.5460  147.5330 O   0  0  0  0  0  1  0  0  0  0  0  0
  180.9380  178.1270  139.3790 C   0  0  0  0  0  2  0  0  0  0  0  0
  179.5480  177.9620  138.9820 N   0  0  0  0  0  2  0  0  0  0  0  0
  179.2900  176.5330  138.9170 C   0  0  0  0  0  2  0  0  0  0  0  0
  180.4600  175.7710  139.5070 C   0  0  0  0  0  1  0  0  0  0  0  0
  2 11  1  0  0  0  0
  2 13  1  0  0  0  0
  3 13  1  0  0  0  0
  4  1  2  0  0  0  0
  5  7  1  0  0  0  0
  6  8  1  0  0  0  0
  6  5  1  0  0  0  0
  7 16  1  6  0  0  0
  8  3  1  1  0  0  0
  8  9  1  0  0  0  0
  9  7  1  0  0  0  0
  9  4  1  0  0  0  0
 10  6  1  0  0  0  0
 11 12  1  0  0  0  0
 12 14  1  0  0  0  0
 12 31  1  1  0  0  0
 13 15  2  0  0  0  0
 15 14  1  0  0  0  0
 15  4  1  0  0  0  0
 16 22  1  0  0  0  0
 18 24  1  0  0  0  0
 19 25  1  0  0  0  0
 19 29  1  0  0  0  0
 20 19  1  0  0  0  0
 21 20  1  0  0  0  0
 22 27  2  0  0  0  0
 23 25  1  0  0  0  0
 24 21  2  0  0  0  0
 24 23  1  0  0  0  0
 26 22  1  0  0  0  0
 26 18  2  0  0  0  0
 27 17  1  0  0  0  0
 27 21  1  0  0  0  0
 29 28  1  6  0  0  0
 29 30  1  0  0  0  0
 32 31  1  0  0  0  0
 33 32  1  0  0  0  0
 33 34  1  0  0  0  0
M  END
>  <MODEL>
7

>  <REMARK>
 VINA RESULT:      -8.4      3.564      5.541
  Name = 
  6 active torsions:
  status: ('A' for Active; 'I' for Inactive)
    1  A    between atoms: C_3  and  N_24
    2  A    between atoms: N_7  and  C_15
    3  A    between atoms: C_8  and  C_17
    4  A    between atoms: C_8  and  C_18
    5  A    between atoms: N_24  and  C_25
    6  A    between atoms: C_25  and  C_27
                            x       y       z     vdW  Elec       q    Type
                         _______ _______ _______ _____ _____    ______ ____

>  <TORSDO>
F 6

$$$$
=
 OpenBabel10262423173D

 34 38  0  0  1  0  0  0  0  0999 V2000
  187.3610  177.9910  138.2890 O   0  0  0  0  0  0  0  0  0  0  0  0
  191.3480  175.7600  136.5860 C   0  0  0  0  0  2  0  0  0  0  0  0
  190.8460  176.0260  139.0880 C   0  0  0  0  0  2  0  0  0  0  0  0
  188.5240  177.5500  138.4920 C   0  0  0  0  0  0  0  0  0  0  0  0
  189.2920  177.0570  142.0830 C   0  0  0  0  0  2  0  0  0  0  0  0
  190.5560  176.7060  141.4270 N   0  0  0  0  0  0  0  0  0  0  0  0
  188.3010  177.5020  141.0210 C   0  0  2  0  0  3  0  0  0  0  0  0
  190.4560  177.1560  140.0430 C   0  0  2  0  0  3  0  0  0  0  0  0
  189.0810  177.5420  139.8110 N   0  0  0  0  0  0  0  0  0  0  0  0
  191.5920  177.5030  142.0600 C   0  0  0  0  0  1  0  0  0  0  0  0
  191.1050  176.3770  135.2100 C   0  0  0  0  0  2  0  0  0  0  0  0
  189.6110  176.4720  134.9090 C   0  0  2  0  0  3  0  0  0  0  0  0
  190.4920  176.3700  137.6630 C   0  0  0  0  0  0  0  0  0  0  0  0
  188.9210  177.3350  135.9630 C   0  0  0  0  0  2  0  0  0  0  0  0
  189.3370  177.0190  137.3800 C   0  0  0  0  0  0  0  0  0  0  0  0
  187.7720  178.8940  141.3450 C   0  0  0  0  0  2  0  0  0  0  0  0
  185.3290  179.0540  139.8880 F   0  0  0  0  0  0  0  0  0  0  0  0
  185.1070  178.6250  144.0210 C   0  0  0  0  0  3  0  0  0  0  0  0
  181.5900  178.4150  141.7590 N   0  0  0  0  0  0  0  0  0  0  0  0
  182.7440  179.0030  141.0640 C   0  0  0  0  0  2  0  0  0  0  0  0
  184.0040  178.8410  141.8680 C   0  0  0  0  0  0  0  0  0  0  0  0
  186.4310  178.8170  141.9990 C   0  0  0  0  0  0  0  0  0  0  0  0
  182.6090  178.6060  143.9720 C   0  0  0  0  0  2  0  0  0  0  0  0
  183.9330  178.7210  143.2720 C   0  0  0  0  0  0  0  0  0  0  0  0
  181.4610  179.0530  143.0690 C   0  0  0  0  0  2  0  0  0  0  0  0
  186.3510  178.6780  143.3880 C   0  0  0  0  0  3  0  0  0  0  0  0
  185.2560  178.9050  141.2370 C   0  0  0  0  0  0  0  0  0  0  0  0
  179.3360  179.3860  141.8800 C   0  0  0  0  0  1  0  0  0  0  0  0
  180.3530  178.6670  141.0110 C   0  0  2  0  0  3  0  0  0  0  0  0
  179.8020  177.4860  140.5010 O   0  0  0  0  0  1  0  0  0  0  0  0
  188.9520  175.1000  134.8190 C   0  0  0  0  0  2  0  0  0  0  0  0
  187.5300  175.2100  135.1030 N   0  0  0  0  0  2  0  0  0  0  0  0
  187.1390  173.9950  135.7980 C   0  0  0  0  0  2  0  0  0  0  0  0
  188.2980  173.4820  136.6300 C   0  0  0  0  0  1  0  0  0  0  0  0
  1  4  2  0  0  0  0
  2 13  1  0  0  0  0
  4  9  1  0  0  0  0
  6 10  1  0  0  0  0
  6  5  1  0  0  0  0
  7 16  1  1  0  0  0
  7  5  1  0  0  0  0
  8  3  1  6  0  0  0
  8  6  1  0  0  0  0
  9  8  1  0  0  0  0
  9  7  1  0  0  0  0
 11  2  1  0  0  0  0
 12 31  1  1  0  0  0
 12 11  1  0  0  0  0
 12 14  1  0  0  0  0
 13  3  1  0  0  0  0
 14 15  1  0  0  0  0
 15 13  2  0  0  0  0
 15  4  1  0  0  0  0
 16 22  1  0  0  0  0
 17 27  1  0  0  0  0
 19 25  1  0  0  0  0
 20 19  1  0  0  0  0
 20 21  1  0  0  0  0
 21 24  1  0  0  0  0
 22 26  2  0  0  0  0
 24 23  1  0  0  0  0
 24 18  2  0  0  0  0
 25 23  1  0  0  0  0
 26 18  1  0  0  0  0
 27 21  2  0  0  0  0
 27 22  1  0  0  0  0
 29 19  1  0  0  0  0
 29 28  1  1  0  0  0
 30 29  1  0  0  0  0
 31 32  1  0  0  0  0
 32 33  1  0  0  0  0
 33 34  1  0  0  0  0
M  END
>  <MODEL>
8

>  <REMARK>
 VINA RESULT:      -8.2      5.389      8.848
  Name = 
  6 active torsions:
  status: ('A' for Active; 'I' for Inactive)
    1  A    between atoms: C_3  and  N_24
    2  A    between atoms: N_7  and  C_15
    3  A    between atoms: C_8  and  C_17
    4  A    between atoms: C_8  and  C_18
    5  A    between atoms: N_24  and  C_25
    6  A    between atoms: C_25  and  C_27
                            x       y       z     vdW  Elec       q    Type
                         _______ _______ _______ _____ _____    ______ ____

>  <TORSDO>
F 6

$$$$
=
 OpenBabel10262423173D

 34 38  0  0  1  0  0  0  0  0999 V2000
  192.1930  176.6450  140.0820 O   0  0  0  0  0  0  0  0  0  0  0  0
  189.2430  178.3280  143.5810 C   0  0  0  0  0  2  0  0  0  0  0  0
  188.3970  177.5140  141.2990 C   0  0  0  0  0  2  0  0  0  0  0  0
  191.0670  177.0970  140.4240 C   0  0  0  0  0  0  0  0  0  0  0  0
  188.3940  176.3620  137.9640 C   0  0  0  0  0  2  0  0  0  0  0  0
  187.6980  177.1670  138.9740 N   0  0  0  0  0  0  0  0  0  0  0  0
  189.8590  176.2550  138.3540 C   0  0  2  0  0  3  0  0  0  0  0  0
  188.7230  177.7610  139.8250 C   0  0  2  0  0  3  0  0  0  0  0  0
  189.9830  177.1330  139.4880 N   0  0  0  0  0  0  0  0  0  0  0  0
  187.0490  178.2560  138.2670 C   0  0  0  0  0  1  0  0  0  0  0  0
  190.4450  178.9340  144.3020 C   0  0  0  0  0  2  0  0  0  0  0  0
  191.6780  178.0460  144.1520 C   0  0  2  0  0  3  0  0  0  0  0  0
  189.5650  177.8710  142.1840 C   0  0  0  0  0  0  0  0  0  0  0  0
  192.0250  177.8800  142.6740 C   0  0  0  0  0  2  0  0  0  0  0  0
  190.8330  177.5870  141.7960 C   0  0  0  0  0  0  0  0  0  0  0  0
  190.7450  176.7470  137.2170 C   0  0  0  0  0  2  0  0  0  0  0  0
  193.5620  177.1620  137.2850 F   0  0  0  0  0  0  0  0  0  0  0  0
  192.1690  173.4710  135.9620 C   0  0  0  0  0  3  0  0  0  0  0  0
  196.2830  174.0160  136.5230 N   0  0  0  0  0  0  0  0  0  0  0  0
  195.4940  175.2530  136.4540 C   0  0  0  0  0  2  0  0  0  0  0  0
  194.0190  174.9610  136.4690 C   0  0  0  0  0  0  0  0  0  0  0  0
  191.7290  175.6980  136.8130 C   0  0  0  0  0  0  0  0  0  0  0  0
  194.4930  172.6220  135.6130 C   0  0  0  0  0  2  0  0  0  0  0  0
  193.5430  173.7200  135.9970 C   0  0  0  0  0  0  0  0  0  0  0  0
  195.9070  173.1600  135.3980 C   0  0  0  0  0  2  0  0  0  0  0  0
  191.2650  174.4580  136.3630 C   0  0  0  0  0  3  0  0  0  0  0  0
  193.1080  175.9540  136.8610 C   0  0  0  0  0  0  0  0  0  0  0  0
  198.5320  173.3390  137.2440 C   0  0  0  0  0  1  0  0  0  0  0  0
  197.7160  174.3080  136.4080 C   0  0  2  0  0  3  0  0  0  0  0  0
  198.0100  175.6270  136.7740 O   0  0  0  0  0  1  0  0  0  0  0  0
  191.4950  176.6880  144.8190 C   0  0  0  0  0  2  0  0  0  0  0  0
  191.9110  176.7550  146.2110 N   0  0  0  0  0  2  0  0  0  0  0  0
  190.8700  176.1160  146.9990 C   0  0  0  0  0  2  0  0  0  0  0  0
  189.7920  177.1260  147.3420 C   0  0  0  0  0  1  0  0  0  0  0  0
  1  4  2  0  0  0  0
  2 11  1  0  0  0  0
  3 13  1  0  0  0  0
  4 15  1  0  0  0  0
  5  7  1  0  0  0  0
  5  6  1  0  0  0  0
  6  8  1  0  0  0  0
  7 16  1  6  0  0  0
  7  9  1  0  0  0  0
  8  3  1  1  0  0  0
  9  8  1  0  0  0  0
  9  4  1  0  0  0  0
 10  6  1  0  0  0  0
 12 11  1  0  0  0  0
 12 31  1  6  0  0  0
 13  2  1  0  0  0  0
 14 12  1  0  0  0  0
 15 13  2  0  0  0  0
 15 14  1  0  0  0  0
 18 24  2  0  0  0  0
 18 26  1  0  0  0  0
 20 21  1  0  0  0  0
 20 19  1  0  0  0  0
 21 27  2  0  0  0  0
 22 27  1  0  0  0  0
 22 16  1  0  0  0  0
 23 24  1  0  0  0  0
 24 21  1  0  0  0  0
 25 23  1  0  0  0  0
 25 19  1  0  0  0  0
 26 22  2  0  0  0  0
 27 17  1  0  0  0  0
 29 19  1  0  0  0  0
 29 30  1  0  0  0  0
 29 28  1  1  0  0  0
 31 32  1  0  0  0  0
 32 33  1  0  0  0  0
 33 34  1  0  0  0  0
M  END
>  <MODEL>
9

>  <REMARK>
 VINA RESULT:      -8.0      7.431     11.574
  Name = 
  6 active torsions:
  status: ('A' for Active; 'I' for Inactive)
    1  A    between atoms: C_3  and  N_24
    2  A    between atoms: N_7  and  C_15
    3  A    between atoms: C_8  and  C_17
    4  A    between atoms: C_8  and  C_18
    5  A    between atoms: N_24  and  C_25
    6  A    between atoms: C_25  and  C_27
                            x       y       z     vdW  Elec       q    Type
                         _______ _______ _______ _____ _____    ______ ____

>  <TORSDO>
F 6

$$$$
