=
 OpenBabel10262423273D

 34 38  0  0  1  0  0  0  0  0999 V2000
  186.9270  178.2450  138.9050 C   0  0  2  0  0  3  0  0  0  0  0  0
  187.0550  174.9220  136.7940 C   0  0  0  0  0  2  0  0  0  0  0  0
  185.0260  176.5350  137.2680 C   0  0  0  0  0  2  0  0  0  0  0  0
  184.8510  179.6980  139.0060 N   0  0  0  0  0  2  0  0  0  0  0  0
  183.4350  179.3820  138.8570 C   0  0  0  0  0  2  0  0  0  0  0  0
  184.6670  177.3950  138.4160 N   0  0  1  0  0  0  0  0  0  0  0  0
  185.5280  178.5740  138.3610 C   0  0  2  0  0  3  0  0  0  0  0  0
  183.3460  177.9760  138.2690 C   0  0  0  0  0  2  0  0  0  0  0  0
  188.5790  174.9310  136.5950 C   0  0  0  0  0  2  0  0  0  0  0  0
  189.0820  176.3430  136.2000 C   0  0  1  0  0  3  0  0  0  0  0  0
  188.6850  178.7900  136.6190 C   0  0  0  0  0  1  0  0  0  0  0  0
  186.5510  176.3210  137.1570 C   0  0  1  0  0  3  0  0  0  0  0  0
  188.7910  177.4200  137.2840 C   0  0  1  0  0  3  0  0  0  0  0  0
  187.5250  177.0640  138.0990 C   0  0  1  0  0  3  0  0  0  0  0  0
  190.5290  176.3520  135.6940 C   0  0  1  0  0  3  0  0  0  0  0  0
  191.5390  176.2280  136.8260 C   0  0  0  0  0  1  0  0  0  0  0  0
  190.7380  175.3250  134.7610 O   0  0  0  0  0  1  0  0  0  0  0  0
  187.0930  178.0230  140.4270 C   0  0  1  0  0  3  0  0  0  0  0  0
  188.5600  177.8360  140.7830 C   0  0  0  0  0  1  0  0  0  0  0  0
  186.2630  179.2440  141.5290 S   0  0  0  0  0  0  0  0  0  0  0  0
  184.3670  179.2890  145.2150 C   0  0  0  0  0  2  0  0  0  0  0  0
  185.3760  178.0640  142.6630 C   0  0  1  0  0  3  0  0  0  0  0  0
  187.5840  177.6570  146.3640 C   0  0  0  0  0  0  0  0  0  0  0  0
  186.3960  178.3930  146.3460 C   0  0  0  0  0  3  0  0  0  0  0  0
  185.6440  178.5110  145.1610 C   0  0  0  0  0  0  0  0  0  0  0  0
  183.0850  178.1110  141.9720 O   0  0  0  0  0  0  0  0  0  0  0  0
  187.2970  177.1670  144.0040 C   0  0  0  0  0  3  0  0  0  0  0  0
  186.1140  177.9160  143.9670 C   0  0  0  0  0  0  0  0  0  0  0  0
  188.0160  177.0210  145.1960 C   0  0  0  0  0  3  0  0  0  0  0  0
  183.9150  178.3480  142.8920 C   0  0  0  0  0  0  0  0  0  0  0  0
  183.4510  178.8880  144.1400 N   0  0  0  0  0  2  0  0  0  0  0  0
  188.3800  177.5800  147.5980 C   0  0  0  0  0  0  0  0  0  0  0  0
  189.7180  177.1840  147.5460 O   0  0  0  0  0  0  0  0  0  0  0  0
  187.8390  177.8520  148.7050 O   0  0  0  0  0  1  0  0  0  0  0  0
  1 18  1  1  0  0  0
  5  4  1  0  0  0  0
  6  3  1  6  0  0  0
  7  6  1  0  0  0  0
  7  1  1  0  0  0  0
  7  4  1  1  0  0  0
  8  6  1  0  0  0  0
  8  5  1  0  0  0  0
  9  2  1  0  0  0  0
 10 15  1  1  0  0  0
 10  9  1  0  0  0  0
 10 13  1  0  0  0  0
 12  2  1  1  0  0  0
 12  3  1  0  0  0  0
 12 14  1  0  0  0  0
 13 11  1  6  0  0  0
 13 14  1  0  0  0  0
 14  1  1  0  0  0  0
 15 16  1  0  0  0  0
 17 15  1  0  0  0  0
 18 19  1  0  0  0  0
 18 20  1  0  0  0  0
 20 22  1  0  0  0  0
 22 30  1  0  0  0  0
 22 28  1  0  0  0  0
 23 32  1  0  0  0  0
 24 23  1  0  0  0  0
 25 21  1  0  0  0  0
 25 24  2  0  0  0  0
 26 30  2  0  0  0  0
 27 29  1  0  0  0  0
 28 27  2  0  0  0  0
 28 25  1  0  0  0  0
 29 23  2  0  0  0  0
 30 31  1  0  0  0  0
 31 21  1  0  0  0  0
 32 34  1  0  0  0  0
 33 32  2  0  0  0  0
M  END
>  <MODEL>
1

>  <REMARK>
 VINA RESULT:      -8.5      0.000      0.000
  Name = 
  5 active torsions:
  status: ('A' for Active; 'I' for Inactive)
    1  A    between atoms: C_1  and  C_8
    2  A    between atoms: C_3  and  C_25
    3  A    between atoms: C_6  and  S_17
    4  A    between atoms: C_7  and  C_11
    5  A    between atoms: C_8  and  S_17
                            x       y       z     vdW  Elec       q    Type
                         _______ _______ _______ _____ _____    ______ ____

>  <TORSDO>
F 5

$$$$
=
 OpenBabel10262423273D

 34 38  0  0  1  0  0  0  0  0999 V2000
  184.1910  179.0300  139.1790 C   0  0  2  0  0  3  0  0  0  0  0  0
  183.3440  175.8720  136.9820 C   0  0  0  0  0  2  0  0  0  0  0  0
  182.1490  178.2190  137.0850 C   0  0  0  0  0  2  0  0  0  0  0  0
  182.9690  181.2340  138.8990 N   0  0  0  0  0  2  0  0  0  0  0  0
  181.6240  181.5470  138.4300 C   0  0  0  0  0  2  0  0  0  0  0  0
  181.9520  179.2040  138.1690 N   0  0  1  0  0  0  0  0  0  0  0  0
  183.2230  179.8980  138.3610 C   0  0  2  0  0  3  0  0  0  0  0  0
  181.0730  180.2870  137.7670 C   0  0  0  0  0  2  0  0  0  0  0  0
  184.7280  175.2190  137.1200 C   0  0  0  0  0  2  0  0  0  0  0  0
  185.8590  176.2590  136.9140 C   0  0  1  0  0  3  0  0  0  0  0  0
  186.4650  178.6590  137.3590 C   0  0  0  0  0  1  0  0  0  0  0  0
  183.4200  177.3680  137.2970 C   0  0  1  0  0  3  0  0  0  0  0  0
  185.8280  177.4090  137.9620 C   0  0  1  0  0  3  0  0  0  0  0  0
  184.3870  177.6690  138.4640 C   0  0  1  0  0  3  0  0  0  0  0  0
  187.2430  175.6250  136.7360 C   0  0  1  0  0  3  0  0  0  0  0  0
  187.2010  174.1060  136.8370 C   0  0  0  0  0  1  0  0  0  0  0  0
  187.8090  176.0000  135.5080 O   0  0  0  0  0  1  0  0  0  0  0  0
  183.9120  178.8330  140.6880 C   0  0  1  0  0  3  0  0  0  0  0  0
  183.4450  177.4120  140.9640 C   0  0  0  0  0  1  0  0  0  0  0  0
  185.2440  179.3630  141.8440 S   0  0  0  0  0  0  0  0  0  0  0  0
  185.5280  179.2720  145.9780 C   0  0  0  0  0  2  0  0  0  0  0  0
  184.9050  178.1870  143.2460 C   0  0  1  0  0  3  0  0  0  0  0  0
  188.6110  177.1970  145.2520 C   0  0  0  0  0  0  0  0  0  0  0  0
  187.6990  178.0580  145.8700 C   0  0  0  0  0  3  0  0  0  0  0  0
  186.4730  178.3670  145.2520 C   0  0  0  0  0  0  0  0  0  0  0  0
  182.6170  178.5490  143.8470 O   0  0  0  0  0  0  0  0  0  0  0  0
  187.0910  176.9640  143.3740 C   0  0  0  0  0  3  0  0  0  0  0  0
  186.1760  177.8380  143.9740 C   0  0  0  0  0  0  0  0  0  0  0  0
  188.2890  176.6290  144.0150 C   0  0  0  0  0  3  0  0  0  0  0  0
  183.8240  178.6070  144.2070 C   0  0  0  0  0  0  0  0  0  0  0  0
  184.1460  179.0760  145.5270 N   0  0  0  0  0  2  0  0  0  0  0  0
  189.9060  176.9200  145.8920 C   0  0  0  0  0  0  0  0  0  0  0  0
  189.9940  176.8160  147.2820 O   0  0  0  0  0  1  0  0  0  0  0  0
  190.9390  176.8000  145.1780 O   0  0  0  0  0  0  0  0  0  0  0  0
  1 18  1  1  0  0  0
  2  9  1  0  0  0  0
  3 12  1  0  0  0  0
  5  4  1  0  0  0  0
  6  3  1  6  0  0  0
  6  7  1  0  0  0  0
  7  4  1  1  0  0  0
  7  1  1  0  0  0  0
  8  6  1  0  0  0  0
  8  5  1  0  0  0  0
 10 15  1  1  0  0  0
 10  9  1  0  0  0  0
 10 13  1  0  0  0  0
 12  2  1  1  0  0  0
 12 14  1  0  0  0  0
 13 11  1  6  0  0  0
 13 14  1  0  0  0  0
 14  1  1  0  0  0  0
 15 16  1  0  0  0  0
 17 15  1  0  0  0  0
 18 19  1  0  0  0  0
 18 20  1  0  0  0  0
 20 22  1  0  0  0  0
 22 28  1  0  0  0  0
 22 30  1  0  0  0  0
 23 24  1  0  0  0  0
 23 32  1  0  0  0  0
 25 24  2  0  0  0  0
 25 21  1  0  0  0  0
 26 30  2  0  0  0  0
 27 28  2  0  0  0  0
 27 29  1  0  0  0  0
 28 25  1  0  0  0  0
 29 23  2  0  0  0  0
 30 31  1  0  0  0  0
 31 21  1  0  0  0  0
 32 33  1  0  0  0  0
 34 32  2  0  0  0  0
M  END
>  <MODEL>
2

>  <REMARK>
 VINA RESULT:      -8.4      1.956      2.816
  Name = 
  5 active torsions:
  status: ('A' for Active; 'I' for Inactive)
    1  A    between atoms: C_1  and  C_8
    2  A    between atoms: C_3  and  C_25
    3  A    between atoms: C_6  and  S_17
    4  A    between atoms: C_7  and  C_11
    5  A    between atoms: C_8  and  S_17
                            x       y       z     vdW  Elec       q    Type
                         _______ _______ _______ _____ _____    ______ ____

>  <TORSDO>
F 5

$$$$
=
 OpenBabel10262423273D

 34 38  0  0  1  0  0  0  0  0999 V2000
  189.2610  176.1390  138.2670 C   0  0  2  0  0  3  0  0  0  0  0  0
  188.1120  178.0580  135.0250 C   0  0  0  0  0  2  0  0  0  0  0  0
  190.3410  176.7320  135.4930 C   0  0  0  0  0  2  0  0  0  0  0  0
  191.3950  174.7720  138.3390 N   0  0  0  0  0  2  0  0  0  0  0  0
  192.6460  174.8830  137.5960 C   0  0  0  0  0  2  0  0  0  0  0  0
  191.1390  176.5000  136.7150 N   0  0  1  0  0  0  0  0  0  0  0  0
  190.4330  175.4970  137.5100 C   0  0  2  0  0  3  0  0  0  0  0  0
  192.3940  175.8310  136.4270 C   0  0  0  0  0  2  0  0  0  0  0  0
  186.6160  178.0580  135.3740 C   0  0  0  0  0  2  0  0  0  0  0  0
  186.1600  176.6660  135.8810 C   0  0  1  0  0  3  0  0  0  0  0  0
  186.9230  174.6910  137.2390 C   0  0  0  0  0  1  0  0  0  0  0  0
  188.8490  176.9700  135.8090 C   0  0  1  0  0  3  0  0  0  0  0  0
  186.8960  176.2170  137.1760 C   0  0  1  0  0  3  0  0  0  0  0  0
  188.3150  176.8310  137.2530 C   0  0  1  0  0  3  0  0  0  0  0  0
  184.6360  176.5140  135.9540 C   0  0  1  0  0  3  0  0  0  0  0  0
  184.0640  177.0410  137.2630 C   0  0  0  0  0  1  0  0  0  0  0  0
  184.0180  177.1640  134.8740 O   0  0  0  0  0  1  0  0  0  0  0  0
  189.5740  177.0690  139.4630 C   0  0  1  0  0  3  0  0  0  0  0  0
  188.9580  178.4430  139.2490 C   0  0  0  0  0  1  0  0  0  0  0  0
  189.2090  176.3990  141.1400 S   0  0  0  0  0  0  0  0  0  0  0  0
  188.6300  177.6900  145.0350 C   0  0  0  0  0  2  0  0  0  0  0  0
  189.1650  177.9950  142.0950 C   0  0  1  0  0  3  0  0  0  0  0  0
  185.2020  178.6170  143.7210 C   0  0  0  0  0  0  0  0  0  0  0  0
  186.2460  178.2410  144.5710 C   0  0  0  0  0  3  0  0  0  0  0  0
  187.5510  178.0650  144.0700 C   0  0  0  0  0  0  0  0  0  0  0  0
  191.4280  178.4090  142.7560 O   0  0  0  0  0  0  0  0  0  0  0  0
  186.7490  178.6240  141.8500 C   0  0  0  0  0  3  0  0  0  0  0  0
  187.8010  178.2290  142.6870 C   0  0  0  0  0  0  0  0  0  0  0  0
  185.4650  178.8350  142.3650 C   0  0  0  0  0  3  0  0  0  0  0  0
  190.2460  178.1710  143.1280 C   0  0  0  0  0  0  0  0  0  0  0  0
  189.9550  178.0700  144.5320 N   0  0  0  0  0  2  0  0  0  0  0  0
  183.8380  178.7530  144.2530 C   0  0  0  0  0  0  0  0  0  0  0  0
  183.6370  179.0500  145.6030 O   0  0  0  0  0  1  0  0  0  0  0  0
  182.8510  178.5760  143.4870 O   0  0  0  0  0  0  0  0  0  0  0  0
  1 18  1  1  0  0  0
  2  9  1  0  0  0  0
  3 12  1  0  0  0  0
  5  4  1  0  0  0  0
  6  3  1  6  0  0  0
  6  7  1  0  0  0  0
  7  1  1  0  0  0  0
  7  4  1  1  0  0  0
  8  6  1  0  0  0  0
  8  5  1  0  0  0  0
  9 10  1  0  0  0  0
 10 15  1  1  0  0  0
 10 13  1  0  0  0  0
 12  2  1  1  0  0  0
 12 14  1  0  0  0  0
 13 11  1  6  0  0  0
 13 14  1  0  0  0  0
 14  1  1  0  0  0  0
 15 16  1  0  0  0  0
 17 15  1  0  0  0  0
 18 20  1  0  0  0  0
 19 18  1  0  0  0  0
 20 22  1  0  0  0  0
 22 28  1  0  0  0  0
 22 30  1  0  0  0  0
 23 32  1  0  0  0  0
 23 24  1  0  0  0  0
 25 24  2  0  0  0  0
 25 21  1  0  0  0  0
 26 30  2  0  0  0  0
 27 29  1  0  0  0  0
 27 28  2  0  0  0  0
 28 25  1  0  0  0  0
 29 23  2  0  0  0  0
 30 31  1  0  0  0  0
 31 21  1  0  0  0  0
 32 33  1  0  0  0  0
 34 32  2  0  0  0  0
M  END
>  <MODEL>
3

>  <REMARK>
 VINA RESULT:      -7.9      3.093      5.413
  Name = 
  5 active torsions:
  status: ('A' for Active; 'I' for Inactive)
    1  A    between atoms: C_1  and  C_8
    2  A    between atoms: C_3  and  C_25
    3  A    between atoms: C_6  and  S_17
    4  A    between atoms: C_7  and  C_11
    5  A    between atoms: C_8  and  S_17
                            x       y       z     vdW  Elec       q    Type
                         _______ _______ _______ _____ _____    ______ ____

>  <TORSDO>
F 5

$$$$
=
 OpenBabel10262423273D

 34 38  0  0  1  0  0  0  0  0999 V2000
  183.2070  177.6610  138.0760 C   0  0  2  0  0  3  0  0  0  0  0  0
  181.9070  175.1850  135.3010 C   0  0  0  0  0  2  0  0  0  0  0  0
  184.3310  176.1400  135.7010 C   0  0  0  0  0  2  0  0  0  0  0  0
  185.6630  178.2370  138.3240 N   0  0  0  0  0  2  0  0  0  0  0  0
  186.7570  178.2650  137.3590 C   0  0  0  0  0  2  0  0  0  0  0  0
  184.8340  177.4190  136.2420 N   0  0  1  0  0  0  0  0  0  0  0  0
  184.6660  177.3720  137.6930 C   0  0  2  0  0  3  0  0  0  0  0  0
  186.2730  177.5390  136.1070 C   0  0  0  0  0  2  0  0  0  0  0  0
  180.6390  174.7630  136.0600 C   0  0  0  0  0  2  0  0  0  0  0  0
  180.9530  174.4620  137.5480 C   0  0  1  0  0  3  0  0  0  0  0  0
  182.3830  175.2150  139.4750 C   0  0  0  0  0  1  0  0  0  0  0  0
  182.9390  175.7780  136.2630 C   0  0  1  0  0  3  0  0  0  0  0  0
  181.5140  175.6940  138.3140 C   0  0  1  0  0  3  0  0  0  0  0  0
  182.2810  176.6430  137.3620 C   0  0  1  0  0  3  0  0  0  0  0  0
  179.8090  173.7500  138.2790 C   0  0  1  0  0  3  0  0  0  0  0  0
  178.9310  174.7180  139.0610 C   0  0  0  0  0  1  0  0  0  0  0  0
  179.0190  173.0210  137.3770 O   0  0  0  0  0  1  0  0  0  0  0  0
  182.6740  179.1050  137.9210 C   0  0  1  0  0  3  0  0  0  0  0  0
  181.4840  179.1380  136.9750 C   0  0  0  0  0  1  0  0  0  0  0  0
  182.3450  180.0280  139.4810 S   0  0  0  0  0  0  0  0  0  0  0  0
  180.8910  179.3630  143.3050 C   0  0  0  0  0  2  0  0  0  0  0  0
  181.9300  178.5940  140.5930 C   0  0  1  0  0  3  0  0  0  0  0  0
  184.5290  178.6310  144.0550 C   0  0  0  0  0  0  0  0  0  0  0  0
  183.1900  179.0100  144.1920 C   0  0  0  0  0  3  0  0  0  0  0  0
  182.3180  178.9730  143.0870 C   0  0  0  0  0  0  0  0  0  0  0  0
  179.6550  178.0380  140.1010 O   0  0  0  0  0  0  0  0  0  0  0  0
  184.1480  178.1990  141.6970 C   0  0  0  0  0  3  0  0  0  0  0  0
  182.8090  178.5920  141.8160 C   0  0  0  0  0  0  0  0  0  0  0  0
  184.9970  178.1990  142.8100 C   0  0  0  0  0  3  0  0  0  0  0  0
  180.4780  178.4500  140.9640 C   0  0  0  0  0  0  0  0  0  0  0  0
  180.0140  178.7770  142.2840 N   0  0  0  0  0  2  0  0  0  0  0  0
  185.4360  178.7180  145.2090 C   0  0  0  0  0  0  0  0  0  0  0  0
  186.6660  178.0550  145.1850 O   0  0  0  0  0  0  0  0  0  0  0  0
  185.0860  179.3740  146.2280 O   0  0  0  0  0  1  0  0  0  0  0  0
  1 18  1  6  0  0  0
  2  9  1  0  0  0  0
  3 12  1  0  0  0  0
  5  4  1  0  0  0  0
  6  3  1  6  0  0  0
  6  7  1  0  0  0  0
  7  1  1  0  0  0  0
  7  4  1  1  0  0  0
  8  6  1  0  0  0  0
  8  5  1  0  0  0  0
  9 10  1  0  0  0  0
 10 15  1  1  0  0  0
 10 13  1  0  0  0  0
 12  2  1  6  0  0  0
 12 14  1  0  0  0  0
 13 11  1  1  0  0  0
 14  1  1  0  0  0  0
 14 13  1  0  0  0  0
 15 16  1  0  0  0  0
 17 15  1  0  0  0  0
 18 20  1  0  0  0  0
 19 18  1  0  0  0  0
 20 22  1  0  0  0  0
 22 30  1  0  0  0  0
 22 28  1  0  0  0  0
 23 24  1  0  0  0  0
 23 32  1  0  0  0  0
 25 21  1  0  0  0  0
 25 24  2  0  0  0  0
 26 30  2  0  0  0  0
 27 28  2  0  0  0  0
 27 29  1  0  0  0  0
 28 25  1  0  0  0  0
 29 23  2  0  0  0  0
 30 31  1  0  0  0  0
 31 21  1  0  0  0  0
 32 34  1  0  0  0  0
 33 32  2  0  0  0  0
M  END
>  <MODEL>
4

>  <REMARK>
 VINA RESULT:      -7.6      3.383      5.837
  Name = 
  5 active torsions:
  status: ('A' for Active; 'I' for Inactive)
    1  A    between atoms: C_1  and  C_8
    2  A    between atoms: C_3  and  C_25
    3  A    between atoms: C_6  and  S_17
    4  A    between atoms: C_7  and  C_11
    5  A    between atoms: C_8  and  S_17
                            x       y       z     vdW  Elec       q    Type
                         _______ _______ _______ _____ _____    ______ ____

>  <TORSDO>
F 5

$$$$
=
 OpenBabel10262423273D

 34 38  0  0  1  0  0  0  0  0999 V2000
  180.6020  179.0770  141.2620 C   0  0  2  0  0  3  0  0  0  0  0  0
  181.6990  179.5940  137.5150 C   0  0  0  0  0  2  0  0  0  0  0  0
  180.5390  177.5210  138.6560 C   0  0  0  0  0  2  0  0  0  0  0  0
  179.3090  177.0310  142.0180 N   0  0  0  0  0  2  0  0  0  0  0  0
  179.2540  175.6690  141.4980 C   0  0  0  0  0  2  0  0  0  0  0  0
  180.6060  176.9510  140.0180 N   0  0  1  0  0  0  0  0  0  0  0  0
  179.8110  177.8140  140.8890 C   0  0  2  0  0  3  0  0  0  0  0  0
  179.9000  175.6880  140.1150 C   0  0  0  0  0  2  0  0  0  0  0  0
  181.7680  181.1270  137.5900 C   0  0  0  0  0  2  0  0  0  0  0  0
  180.5280  181.7070  138.3190 C   0  0  1  0  0  3  0  0  0  0  0  0
  178.9330  181.2500  140.2080 C   0  0  0  0  0  1  0  0  0  0  0  0
  180.8310  179.0370  138.6460 C   0  0  1  0  0  3  0  0  0  0  0  0
  180.4020  181.2170  139.7900 C   0  0  1  0  0  3  0  0  0  0  0  0
  181.0290  179.8140  139.9670 C   0  0  1  0  0  3  0  0  0  0  0  0
  180.3850  183.2250  138.1600 C   0  0  1  0  0  3  0  0  0  0  0  0
  181.4450  183.8140  137.2400 C   0  0  0  0  0  1  0  0  0  0  0  0
  179.1080  183.5570  137.6800 O   0  0  0  0  0  1  0  0  0  0  0  0
  181.7880  178.9430  142.2460 C   0  0  1  0  0  3  0  0  0  0  0  0
  181.2880  178.6320  143.6480 C   0  0  0  0  0  1  0  0  0  0  0  0
  183.1550  177.8190  141.7320 S   0  0  0  0  0  0  0  0  0  0  0  0
  187.2950  177.7540  141.5410 C   0  0  0  0  0  2  0  0  0  0  0  0
  184.5830  179.0040  141.8770 C   0  0  1  0  0  3  0  0  0  0  0  0
  187.0040  177.9620  145.3110 C   0  0  0  0  0  0  0  0  0  0  0  0
  187.4760  177.6890  144.0240 C   0  0  0  0  0  3  0  0  0  0  0  0
  186.7210  178.0490  142.8910 C   0  0  0  0  0  0  0  0  0  0  0  0
  184.9290  179.8630  139.6700 O   0  0  0  0  0  0  0  0  0  0  0  0
  185.0000  178.9390  144.3500 C   0  0  0  0  0  3  0  0  0  0  0  0
  185.4530  178.6550  143.0550 C   0  0  0  0  0  0  0  0  0  0  0  0
  185.7770  178.6140  145.4680 C   0  0  0  0  0  3  0  0  0  0  0  0
  185.4050  179.1960  140.6300 C   0  0  0  0  0  0  0  0  0  0  0  0
  186.7200  178.6300  140.5130 N   0  0  0  0  0  2  0  0  0  0  0  0
  187.7850  177.5400  146.4830 C   0  0  0  0  0  0  0  0  0  0  0  0
  189.0870  177.0600  146.3230 O   0  0  0  0  0  0  0  0  0  0  0  0
  187.2630  177.5910  147.6300 O   0  0  0  0  0  1  0  0  0  0  0  0
  1 18  1  6  0  0  0
  2  9  1  0  0  0  0
  5  4  1  0  0  0  0
  6  3  1  6  0  0  0
  6  8  1  0  0  0  0
  6  7  1  0  0  0  0
  7  1  1  0  0  0  0
  7  4  1  1  0  0  0
  8  5  1  0  0  0  0
  9 10  1  0  0  0  0
 10 15  1  1  0  0  0
 10 13  1  0  0  0  0
 12  2  1  6  0  0  0
 12  3  1  0  0  0  0
 12 14  1  0  0  0  0
 13 14  1  0  0  0  0
 13 11  1  6  0  0  0
 14  1  1  0  0  0  0
 16 15  1  0  0  0  0
 17 15  1  0  0  0  0
 18 19  1  0  0  0  0
 20 22  1  0  0  0  0
 20 18  1  0  0  0  0
 21 25  1  0  0  0  0
 22 28  1  0  0  0  0
 23 29  1  0  0  0  0
 23 32  1  0  0  0  0
 24 23  2  0  0  0  0
 25 28  2  0  0  0  0
 25 24  1  0  0  0  0
 26 30  2  0  0  0  0
 27 29  2  0  0  0  0
 28 27  1  0  0  0  0
 30 22  1  0  0  0  0
 31 30  1  0  0  0  0
 31 21  1  0  0  0  0
 32 34  1  0  0  0  0
 33 32  2  0  0  0  0
M  END
>  <MODEL>
5

>  <REMARK>
 VINA RESULT:      -7.6      3.720      6.685
  Name = 
  5 active torsions:
  status: ('A' for Active; 'I' for Inactive)
    1  A    between atoms: C_1  and  C_8
    2  A    between atoms: C_3  and  C_25
    3  A    between atoms: C_6  and  S_17
    4  A    between atoms: C_7  and  C_11
    5  A    between atoms: C_8  and  S_17
                            x       y       z     vdW  Elec       q    Type
                         _______ _______ _______ _____ _____    ______ ____

>  <TORSDO>
F 5

$$$$
=
 OpenBabel10262423273D

 34 38  0  0  1  0  0  0  0  0999 V2000
  181.8090  178.4810  138.3580 C   0  0  2  0  0  3  0  0  0  0  0  0
  179.0520  176.6320  136.2380 C   0  0  0  0  0  2  0  0  0  0  0  0
  179.3940  179.2100  136.6690 C   0  0  0  0  0  2  0  0  0  0  0  0
  181.9960  181.0090  138.4140 N   0  0  0  0  0  2  0  0  0  0  0  0
  181.0030  182.0620  138.2290 C   0  0  0  0  0  2  0  0  0  0  0  0
  179.9310  179.9780  137.8110 N   0  0  1  0  0  0  0  0  0  0  0  0
  181.3850  179.8410  137.7810 C   0  0  2  0  0  3  0  0  0  0  0  0
  179.7580  181.4080  137.6340 C   0  0  0  0  0  2  0  0  0  0  0  0
  179.8410  175.3240  136.0770 C   0  0  0  0  0  2  0  0  0  0  0  0
  181.3180  175.6050  135.6990 C   0  0  1  0  0  3  0  0  0  0  0  0
  183.2120  177.2060  136.1170 C   0  0  0  0  0  1  0  0  0  0  0  0
  179.9910  177.7870  136.5940 C   0  0  1  0  0  3  0  0  0  0  0  0
  182.0780  176.4260  136.7790 C   0  0  1  0  0  3  0  0  0  0  0  0
  181.1130  177.3480  137.5620 C   0  0  1  0  0  3  0  0  0  0  0  0
  182.0740  174.3570  135.2280 C   0  0  1  0  0  3  0  0  0  0  0  0
  182.7960  173.6530  136.3690 C   0  0  0  0  0  1  0  0  0  0  0  0
  181.2030  173.4570  134.5950 O   0  0  0  0  0  1  0  0  0  0  0  0
  181.6800  178.2540  139.8830 C   0  0  1  0  0  3  0  0  0  0  0  0
  180.3190  177.6660  140.2230 C   0  0  0  0  0  1  0  0  0  0  0  0
  183.0540  177.3330  140.6940 S   0  0  0  0  0  0  0  0  0  0  0  0
  187.0040  178.0040  141.7560 C   0  0  0  0  0  2  0  0  0  0  0  0
  184.1730  178.7650  141.0970 C   0  0  1  0  0  3  0  0  0  0  0  0
  185.5090  178.4630  145.2040 C   0  0  0  0  0  0  0  0  0  0  0  0
  186.3980  178.1750  144.1650 C   0  0  0  0  0  3  0  0  0  0  0  0
  185.9960  178.2990  142.8210 C   0  0  0  0  0  0  0  0  0  0  0  0
  185.0690  179.4890  139.0000 O   0  0  0  0  0  0  0  0  0  0  0  0
  183.7910  178.9780  143.5680 C   0  0  0  0  0  3  0  0  0  0  0  0
  184.6660  178.6760  142.5170 C   0  0  0  0  0  0  0  0  0  0  0  0
  184.2130  178.8920  144.8990 C   0  0  0  0  0  3  0  0  0  0  0  0
  185.3090  179.0000  140.1380 C   0  0  0  0  0  0  0  0  0  0  0  0
  186.6620  178.6740  140.4950 N   0  0  0  0  0  2  0  0  0  0  0  0
  185.9310  178.2850  146.6010 C   0  0  0  0  0  0  0  0  0  0  0  0
  187.1710  177.7120  146.8910 O   0  0  0  0  0  0  0  0  0  0  0  0
  185.1570  178.6330  147.5340 O   0  0  0  0  0  1  0  0  0  0  0  0
  1 18  1  1  0  0  0
  5  4  1  0  0  0  0
  6  3  1  6  0  0  0
  7  6  1  0  0  0  0
  7  1  1  0  0  0  0
  7  4  1  1  0  0  0
  8  6  1  0  0  0  0
  8  5  1  0  0  0  0
  9  2  1  0  0  0  0
 10 15  1  1  0  0  0
 10  9  1  0  0  0  0
 10 13  1  0  0  0  0
 12  2  1  1  0  0  0
 12  3  1  0  0  0  0
 12 14  1  0  0  0  0
 13 11  1  6  0  0  0
 13 14  1  0  0  0  0
 14  1  1  0  0  0  0
 15 16  1  0  0  0  0
 17 15  1  0  0  0  0
 18 19  1  0  0  0  0
 18 20  1  0  0  0  0
 20 22  1  0  0  0  0
 21 25  1  0  0  0  0
 22 28  1  0  0  0  0
 23 32  1  0  0  0  0
 24 23  2  0  0  0  0
 25 24  1  0  0  0  0
 26 30  2  0  0  0  0
 27 29  2  0  0  0  0
 28 25  2  0  0  0  0
 28 27  1  0  0  0  0
 29 23  1  0  0  0  0
 30 31  1  0  0  0  0
 30 22  1  0  0  0  0
 31 21  1  0  0  0  0
 32 33  2  0  0  0  0
 32 34  1  0  0  0  0
M  END
>  <MODEL>
6

>  <REMARK>
 VINA RESULT:      -7.4      3.653      5.564
  Name = 
  5 active torsions:
  status: ('A' for Active; 'I' for Inactive)
    1  A    between atoms: C_1  and  C_8
    2  A    between atoms: C_3  and  C_25
    3  A    between atoms: C_6  and  S_17
    4  A    between atoms: C_7  and  C_11
    5  A    between atoms: C_8  and  S_17
                            x       y       z     vdW  Elec       q    Type
                         _______ _______ _______ _____ _____    ______ ____

>  <TORSDO>
F 5

$$$$
=
 OpenBabel10262423273D

 34 38  0  0  1  0  0  0  0  0999 V2000
  181.9470  179.0240  139.0550 C   0  0  2  0  0  3  0  0  0  0  0  0
  180.5160  180.3030  135.6150 C   0  0  0  0  0  2  0  0  0  0  0  0
  180.2000  177.9730  136.8050 C   0  0  0  0  0  2  0  0  0  0  0  0
  181.2900  176.7800  140.0370 N   0  0  0  0  0  2  0  0  0  0  0  0
  180.8510  175.5370  139.4120 C   0  0  0  0  0  2  0  0  0  0  0  0
  181.0650  177.1690  137.6940 N   0  0  1  0  0  0  0  0  0  0  0  0
  181.0280  177.7930  139.0150 C   0  0  2  0  0  3  0  0  0  0  0  0
  180.5020  175.8590  137.9620 C   0  0  0  0  0  2  0  0  0  0  0  0
  180.7000  181.7970  135.9240 C   0  0  0  0  0  2  0  0  0  0  0  0
  180.2110  182.1360  137.3550 C   0  0  1  0  0  3  0  0  0  0  0  0
  180.1060  181.2190  139.6950 C   0  0  0  0  0  1  0  0  0  0  0  0
  180.5050  179.4830  136.9070 C   0  0  1  0  0  3  0  0  0  0  0  0
  180.9950  181.3760  138.4630 C   0  0  1  0  0  3  0  0  0  0  0  0
  181.5210  180.0160  137.9430 C   0  0  1  0  0  3  0  0  0  0  0  0
  180.0830  183.6420  137.6140 C   0  0  1  0  0  3  0  0  0  0  0  0
  181.3770  184.3900  137.3270 C   0  0  0  0  0  1  0  0  0  0  0  0
  179.0410  184.1910  136.8500 O   0  0  0  0  0  1  0  0  0  0  0  0
  183.4780  178.8020  139.0490 C   0  0  1  0  0  3  0  0  0  0  0  0
  184.2110  180.1350  139.0320 C   0  0  0  0  0  1  0  0  0  0  0  0
  184.1460  177.6600  140.3310 S   0  0  0  0  0  0  0  0  0  0  0  0
  187.6740  177.1900  142.4540 C   0  0  0  0  0  2  0  0  0  0  0  0
  185.5580  178.7020  140.9500 C   0  0  1  0  0  3  0  0  0  0  0  0
  185.6210  178.6530  145.2780 C   0  0  0  0  0  0  0  0  0  0  0  0
  186.5820  177.9320  144.5650 C   0  0  0  0  0  3  0  0  0  0  0  0
  186.6020  177.9600  143.1580 C   0  0  0  0  0  0  0  0  0  0  0  0
  187.1490  178.7530  139.1640 O   0  0  0  0  0  0  0  0  0  0  0  0
  184.6670  179.4220  143.1830 C   0  0  0  0  0  3  0  0  0  0  0  0
  185.6140  178.6900  142.4550 C   0  0  0  0  0  0  0  0  0  0  0  0
  184.6810  179.4200  144.5820 C   0  0  0  0  0  3  0  0  0  0  0  0
  186.9060  178.4020  140.3510 C   0  0  0  0  0  0  0  0  0  0  0  0
  187.9200  177.7220  141.1080 N   0  0  0  0  0  2  0  0  0  0  0  0
  185.5880  178.5770  146.7470 C   0  0  0  0  0  0  0  0  0  0  0  0
  186.7560  178.7730  147.4860 O   0  0  0  0  0  1  0  0  0  0  0  0
  184.5020  178.3100  147.3310 O   0  0  0  0  0  0  0  0  0  0  0  0
  1 18  1  6  0  0  0
  2  9  1  0  0  0  0
  3 12  1  0  0  0  0
  5  4  1  0  0  0  0
  6  3  1  6  0  0  0
  6  8  1  0  0  0  0
  6  7  1  0  0  0  0
  7  1  1  0  0  0  0
  7  4  1  1  0  0  0
  8  5  1  0  0  0  0
  9 10  1  0  0  0  0
 10 15  1  1  0  0  0
 10 13  1  0  0  0  0
 12  2  1  6  0  0  0
 12 14  1  0  0  0  0
 13 11  1  1  0  0  0
 14 13  1  0  0  0  0
 14  1  1  0  0  0  0
 16 15  1  0  0  0  0
 17 15  1  0  0  0  0
 18 20  1  0  0  0  0
 19 18  1  0  0  0  0
 20 22  1  0  0  0  0
 21 25  1  0  0  0  0
 22 28  1  0  0  0  0
 23 32  1  0  0  0  0
 24 23  2  0  0  0  0
 25 24  1  0  0  0  0
 26 30  2  0  0  0  0
 27 29  2  0  0  0  0
 28 25  2  0  0  0  0
 28 27  1  0  0  0  0
 29 23  1  0  0  0  0
 30 22  1  0  0  0  0
 30 31  1  0  0  0  0
 31 21  1  0  0  0  0
 32 34  2  0  0  0  0
 32 33  1  0  0  0  0
M  END
>  <MODEL>
7

>  <REMARK>
 VINA RESULT:      -7.4      3.453      6.605
  Name = 
  5 active torsions:
  status: ('A' for Active; 'I' for Inactive)
    1  A    between atoms: C_1  and  C_8
    2  A    between atoms: C_3  and  C_25
    3  A    between atoms: C_6  and  S_17
    4  A    between atoms: C_7  and  C_11
    5  A    between atoms: C_8  and  S_17
                            x       y       z     vdW  Elec       q    Type
                         _______ _______ _______ _____ _____    ______ ____

>  <TORSDO>
F 5

$$$$
=
 OpenBabel10262423273D

 34 38  0  0  1  0  0  0  0  0999 V2000
  182.1190  177.0800  137.5520 C   0  0  2  0  0  3  0  0  0  0  0  0
  184.9550  174.3540  137.3440 C   0  0  0  0  0  2  0  0  0  0  0  0
  182.3370  174.0560  137.3960 C   0  0  0  0  0  2  0  0  0  0  0  0
  179.6610  176.4830  137.3740 N   0  0  0  0  0  2  0  0  0  0  0  0
  178.9310  175.2630  137.7020 C   0  0  0  0  0  2  0  0  0  0  0  0
  181.2470  174.8260  138.0300 N   0  0  1  0  0  0  0  0  0  0  0  0
  181.0440  176.0300  137.2280 C   0  0  2  0  0  3  0  0  0  0  0  0
  179.9640  174.1590  137.9040 C   0  0  0  0  0  2  0  0  0  0  0  0
  186.0470  175.3140  136.8470 C   0  0  0  0  0  2  0  0  0  0  0  0
  185.5120  176.2330  135.7200 C   0  0  1  0  0  3  0  0  0  0  0  0
  183.4620  177.4840  134.9730 C   0  0  0  0  0  1  0  0  0  0  0  0
  183.5650  174.9370  137.0820 C   0  0  1  0  0  3  0  0  0  0  0  0
  184.3320  177.1380  136.1790 C   0  0  1  0  0  3  0  0  0  0  0  0
  183.5210  176.4650  137.3130 C   0  0  1  0  0  3  0  0  0  0  0  0
  186.6180  176.9930  134.9780 C   0  0  1  0  0  3  0  0  0  0  0  0
  187.0620  178.2440  135.7240 C   0  0  0  0  0  1  0  0  0  0  0  0
  187.7260  176.1620  134.7500 O   0  0  0  0  0  1  0  0  0  0  0  0
  182.0530  177.8080  138.9150 C   0  0  1  0  0  3  0  0  0  0  0  0
  180.6080  178.0150  139.3420 C   0  0  0  0  0  1  0  0  0  0  0  0
  183.0820  177.1040  140.2710 S   0  0  0  0  0  0  0  0  0  0  0  0
  186.9170  178.1030  141.4840 C   0  0  0  0  0  2  0  0  0  0  0  0
  184.0570  178.6230  140.7230 C   0  0  1  0  0  3  0  0  0  0  0  0
  185.2610  178.4040  144.8760 C   0  0  0  0  0  0  0  0  0  0  0  0
  186.2100  178.2020  143.8690 C   0  0  0  0  0  3  0  0  0  0  0  0
  185.8480  178.3020  142.5120 C   0  0  0  0  0  0  0  0  0  0  0  0
  184.9650  179.4380  138.6640 O   0  0  0  0  0  0  0  0  0  0  0  0
  183.5670  178.7830  143.1780 C   0  0  0  0  0  3  0  0  0  0  0  0
  184.5040  178.5660  142.1600 C   0  0  0  0  0  0  0  0  0  0  0  0
  183.9450  178.7230  144.5240 C   0  0  0  0  0  3  0  0  0  0  0  0
  185.2040  178.9620  139.8080 C   0  0  0  0  0  0  0  0  0  0  0  0
  186.5660  178.7510  140.2150 N   0  0  0  0  0  2  0  0  0  0  0  0
  185.6450  178.2530  146.2870 C   0  0  0  0  0  0  0  0  0  0  0  0
  186.9080  177.7600  146.6210 O   0  0  0  0  0  0  0  0  0  0  0  0
  184.8180  178.5490  147.1920 O   0  0  0  0  0  1  0  0  0  0  0  0
  1 18  1  1  0  0  0
  4  5  1  0  0  0  0
  5  8  1  0  0  0  0
  6  3  1  6  0  0  0
  7  4  1  1  0  0  0
  7  1  1  0  0  0  0
  7  6  1  0  0  0  0
  8  6  1  0  0  0  0
  9  2  1  0  0  0  0
 10 15  1  1  0  0  0
 10 13  1  0  0  0  0
 10  9  1  0  0  0  0
 12 14  1  0  0  0  0
 12  2  1  1  0  0  0
 12  3  1  0  0  0  0
 13 11  1  6  0  0  0
 13 14  1  0  0  0  0
 14  1  1  0  0  0  0
 15 16  1  0  0  0  0
 17 15  1  0  0  0  0
 18 19  1  0  0  0  0
 18 20  1  0  0  0  0
 20 22  1  0  0  0  0
 21 25  1  0  0  0  0
 22 28  1  0  0  0  0
 23 32  1  0  0  0  0
 24 23  2  0  0  0  0
 25 24  1  0  0  0  0
 26 30  2  0  0  0  0
 27 29  2  0  0  0  0
 28 25  2  0  0  0  0
 28 27  1  0  0  0  0
 29 23  1  0  0  0  0
 30 31  1  0  0  0  0
 30 22  1  0  0  0  0
 31 21  1  0  0  0  0
 32 33  2  0  0  0  0
 32 34  1  0  0  0  0
M  END
>  <MODEL>
8

>  <REMARK>
 VINA RESULT:      -7.1      2.697      4.314
  Name = 
  5 active torsions:
  status: ('A' for Active; 'I' for Inactive)
    1  A    between atoms: C_1  and  C_8
    2  A    between atoms: C_3  and  C_25
    3  A    between atoms: C_6  and  S_17
    4  A    between atoms: C_7  and  C_11
    5  A    between atoms: C_8  and  S_17
                            x       y       z     vdW  Elec       q    Type
                         _______ _______ _______ _____ _____    ______ ____

>  <TORSDO>
F 5

$$$$
=
 OpenBabel10262423273D

 34 38  0  0  1  0  0  0  0  0999 V2000
  184.6250  176.0170  137.5290 C   0  0  2  0  0  3  0  0  0  0  0  0
  181.3580  177.6830  136.0910 C   0  0  0  0  0  2  0  0  0  0  0  0
  181.9950  175.1340  136.2950 C   0  0  0  0  0  2  0  0  0  0  0  0
  184.8580  173.5050  137.7800 N   0  0  0  0  0  2  0  0  0  0  0  0
  184.2480  172.3950  137.0560 C   0  0  0  0  0  2  0  0  0  0  0  0
  183.2810  174.4080  136.2350 N   0  0  1  0  0  0  0  0  0  0  0  0
  183.9640  174.6300  137.5070 C   0  0  2  0  0  3  0  0  0  0  0  0
  183.0950  172.9690  136.2380 C   0  0  0  0  0  2  0  0  0  0  0  0
  181.5560  179.0330  136.7960 C   0  0  0  0  0  2  0  0  0  0  0  0
  181.9630  178.8340  138.2790 C   0  0  1  0  0  3  0  0  0  0  0  0
  183.3160  177.3510  139.7930 C   0  0  0  0  0  1  0  0  0  0  0  0
  182.1710  176.5870  136.7850 C   0  0  1  0  0  3  0  0  0  0  0  0
  183.3070  178.0690  138.4460 C   0  0  1  0  0  3  0  0  0  0  0  0
  183.5480  177.1000  137.2630 C   0  0  1  0  0  3  0  0  0  0  0  0
  181.8790  180.1200  139.1100 C   0  0  1  0  0  3  0  0  0  0  0  0
  181.5480  181.3390  138.2600 C   0  0  0  0  0  1  0  0  0  0  0  0
  180.9290  179.9890  140.1360 O   0  0  0  0  0  1  0  0  0  0  0  0
  185.8800  176.2510  136.6550 C   0  0  1  0  0  3  0  0  0  0  0  0
  186.0680  177.7340  136.3750 C   0  0  0  0  0  1  0  0  0  0  0  0
  187.4370  175.4500  137.2270 S   0  0  0  0  0  0  0  0  0  0  0  0
  191.2070  176.4810  138.6050 C   0  0  0  0  0  2  0  0  0  0  0  0
  188.5170  176.9600  137.3560 C   0  0  1  0  0  3  0  0  0  0  0  0
  189.2430  177.8850  141.5220 C   0  0  0  0  0  0  0  0  0  0  0  0
  190.2660  177.3280  140.7490 C   0  0  0  0  0  3  0  0  0  0  0  0
  190.0640  177.0500  139.3840 C   0  0  0  0  0  0  0  0  0  0  0  0
  189.7210  177.0660  135.2900 O   0  0  0  0  0  0  0  0  0  0  0  0
  187.7900  177.8700  139.5780 C   0  0  0  0  0  3  0  0  0  0  0  0
  188.8000  177.2960  138.7960 C   0  0  0  0  0  0  0  0  0  0  0  0
  188.0140  178.1810  140.9240 C   0  0  0  0  0  3  0  0  0  0  0  0
  189.7840  176.9320  136.5430 C   0  0  0  0  0  0  0  0  0  0  0  0
  191.0650  176.7510  137.1700 N   0  0  0  0  0  2  0  0  0  0  0  0
  189.4570  178.1280  142.9570 C   0  0  0  0  0  0  0  0  0  0  0  0
  190.6780  178.6360  143.4070 O   0  0  0  0  0  0  0  0  0  0  0  0
  188.5410  177.8520  143.7780 O   0  0  0  0  0  1  0  0  0  0  0  0
  1 18  1  6  0  0  0
  2  9  1  0  0  0  0
  3 12  1  0  0  0  0
  5  4  1  0  0  0  0
  6  8  1  1  0  0  0
  6  3  1  0  0  0  0
  6  7  1  0  0  0  0
  7  1  1  0  0  0  0
  7  4  1  6  0  0  0
  8  5  1  0  0  0  0
  9 10  1  0  0  0  0
 10 13  1  0  0  0  0
 10 15  1  6  0  0  0
 12  2  1  6  0  0  0
 12 14  1  0  0  0  0
 13 11  1  1  0  0  0
 14  1  1  0  0  0  0
 14 13  1  0  0  0  0
 15 17  1  0  0  0  0
 16 15  1  0  0  0  0
 18 20  1  0  0  0  0
 19 18  1  0  0  0  0
 20 22  1  0  0  0  0
 21 25  1  0  0  0  0
 22 28  1  0  0  0  0
 23 32  1  0  0  0  0
 24 23  2  0  0  0  0
 25 24  1  0  0  0  0
 26 30  2  0  0  0  0
 27 29  2  0  0  0  0
 28 25  2  0  0  0  0
 28 27  1  0  0  0  0
 29 23  1  0  0  0  0
 30 31  1  0  0  0  0
 30 22  1  0  0  0  0
 31 21  1  0  0  0  0
 32 33  2  0  0  0  0
 32 34  1  0  0  0  0
M  END
>  <MODEL>
9

>  <REMARK>
 VINA RESULT:      -7.0      3.456      6.855
  Name = 
  5 active torsions:
  status: ('A' for Active; 'I' for Inactive)
    1  A    between atoms: C_1  and  C_8
    2  A    between atoms: C_3  and  C_25
    3  A    between atoms: C_6  and  S_17
    4  A    between atoms: C_7  and  C_11
    5  A    between atoms: C_8  and  S_17
                            x       y       z     vdW  Elec       q    Type
                         _______ _______ _______ _____ _____    ______ ____

>  <TORSDO>
F 5

$$$$
