=
 OpenBabel10262423093D

 37 38  0  0  1  0  0  0  0  0999 V2000
  184.9670  177.5090  137.5690 C   0  0  0  0  0  2  0  0  0  0  0  0
  183.1960  176.6930  139.9040 C   0  0  0  0  0  2  0  0  0  0  0  0
  183.2240  175.0880  137.3680 C   0  0  2  0  0  3  0  0  0  0  0  0
  184.4820  178.5000  138.6280 C   0  0  1  0  0  3  0  0  0  0  0  0
  183.9430  177.3360  136.4570 C   0  0  0  0  0  2  0  0  0  0  0  0
  183.1430  178.0860  139.2720 C   0  0  2  0  0  3  0  0  0  0  0  0
  182.0190  175.8230  139.4630 C   0  0  0  0  0  2  0  0  0  0  0  0
  183.7250  175.8570  136.1470 C   0  0  0  0  0  2  0  0  0  0  0  0
  183.1700  173.5930  137.0920 C   0  0  0  0  0  1  0  0  0  0  0  0
  181.9260  175.6880  137.9440 C   0  0  2  0  0  3  0  0  0  0  0  0
  179.3410  175.7560  137.5920 C   0  0  2  0  0  3  0  0  0  0  0  0
  180.0030  175.4210  136.2640 C   0  0  1  0  0  0  0  0  0  0  0  0
  180.6550  176.4650  135.5970 O   0  0  0  0  0  1  0  0  0  0  0  0
  179.5170  177.2260  137.9700 C   0  0  0  0  0  1  0  0  0  0  0  0
  180.6480  174.9270  137.5500 C   0  0  1  0  0  3  0  0  0  0  0  0
  179.5030  172.7260  136.2190 S   0  0  0  0  0  1  0  0  0  0  0  0
  179.3350  174.3500  135.4220 C   0  0  0  0  0  2  0  0  0  0  0  0
  185.5690  178.7280  139.6330 C   0  0  0  0  0  0  0  0  0  0  0  0
  185.4030  179.5930  140.5360 O   0  0  0  0  0  0  0  0  0  0  0  0
  186.7580  178.0000  139.5520 O   0  0  0  0  0  0  0  0  0  0  0  0
  188.3130  177.6860  141.3780 C   0  0  0  0  0  1  0  0  0  0  0  0
  187.9840  178.4610  140.1110 C   0  0  1  0  0  3  0  0  0  0  0  0
  189.1270  178.3310  139.1010 C   0  0  1  0  0  3  0  0  0  0  0  0
  189.8860  177.0140  139.2250 C   0  0  0  0  0  1  0  0  0  0  0  0
  188.9490  177.4310  136.7310 C   0  0  0  0  0  1  0  0  0  0  0  0
  188.6730  178.5980  137.6660 C   0  0  0  0  0  2  0  0  0  0  0  0
  182.6600  179.1300  140.2750 C   0  0  0  0  0  2  0  0  0  0  0  0
  182.1120  178.4750  141.5320 C   0  0  1  0  0  3  0  0  0  0  0  0
  183.0090  178.7280  142.6670 C   0  0  0  0  0  0  0  0  0  0  0  0
  183.7370  178.9470  143.6030 C   0  0  0  0  0  0  0  0  0  0  0  0
  184.6130  179.2170  144.7420 C   0  0  0  0  0  2  0  0  0  0  0  0
  186.6060  177.4410  144.7790 C   0  0  0  0  0  3  0  0  0  0  0  0
  185.7070  178.2430  144.7640 C   0  0  0  0  0  0  0  0  0  0  0  0
  180.8210  179.0050  141.8060 O   0  0  0  0  0  0  0  0  0  0  0  0
  179.3310  177.2710  142.1610 O   0  0  0  0  0  0  0  0  0  0  0  0
  179.8790  178.3260  142.5820 C   0  0  0  0  0  0  0  0  0  0  0  0
  179.5150  178.8560  143.9210 C   0  0  0  0  0  1  0  0  0  0  0  0
  1  4  1  0  0  0  0
  3  9  1  6  0  0  0
  3 10  1  0  0  0  0
  4  6  1  0  0  0  0
  4 18  1  1  0  0  0
  5  1  1  0  0  0  0
  6  2  1  0  0  0  0
  6 27  1  1  0  0  0
  7  2  1  0  0  0  0
  8  5  1  0  0  0  0
  8  3  1  0  0  0  0
 10  7  1  1  0  0  0
 11 14  1  1  0  0  0
 12 13  1  6  0  0  0
 12 15  1  0  0  0  0
 12 11  1  0  0  0  0
 15 11  1  0  0  0  0
 15 10  1  1  0  0  0
 17 16  1  0  0  0  0
 17 12  1  0  0  0  0
 18 19  2  0  0  0  0
 20 18  1  0  0  0  0
 20 22  1  0  0  0  0
 22 21  1  1  0  0  0
 23 24  1  6  0  0  0
 23 22  1  0  0  0  0
 25 26  1  0  0  0  0
 26 23  1  0  0  0  0
 28 27  1  6  0  0  0
 28 34  1  0  0  0  0
 28 29  1  0  0  0  0
 29 30  3  0  0  0  0
 30 31  1  0  0  0  0
 31 33  1  0  0  0  0
 33 32  3  0  0  0  0
 34 36  1  0  0  0  0
 35 36  2  0  0  0  0
 36 37  1  0  0  0  0
M  END
>  <MODEL>
1

>  <REMARK>
 VINA RESULT:      -5.8      0.000      0.000
  Name = 
  14 active torsions:
  status: ('A' for Active; 'I' for Inactive)
    1  A    between atoms: C_2  and  C_19
    2  A    between atoms: C_2  and  C_35
    3  A    between atoms: C_4  and  O_13
    4  A    between atoms: C_4  and  C_20
    5  A    between atoms: C_4  and  C_22
    6  A    between atoms: C_5  and  C_23
    7  A    between atoms: O_6  and  C_31
    8  A    between atoms: O_6  and  C_35
    9  A    between atoms: O_13  and  C_16
   10  A    between atoms: C_14  and  C_31
   11  A    between atoms: C_22  and  C_28
   12  A    between atoms: C_25  and  C_32
   13  A    between atoms: C_26  and  C_36
   14  A    between atoms: C_30  and  C_32
                            x       y       z     vdW  Elec       q    Type
                         _______ _______ _______ _____ _____    ______ ____

>  <TORSDO>
F 14

$$$$
=
 OpenBabel10262423093D

 37 38  0  0  1  0  0  0  0  0999 V2000
  182.7910  177.4960  140.2300 C   0  0  0  0  0  2  0  0  0  0  0  0
  182.5880  178.5860  137.3970 C   0  0  0  0  0  2  0  0  0  0  0  0
  180.4490  176.7990  138.5080 C   0  0  2  0  0  3  0  0  0  0  0  0
  184.0120  177.9290  139.4180 C   0  0  1  0  0  3  0  0  0  0  0  0
  182.4050  176.0550  139.9300 C   0  0  0  0  0  2  0  0  0  0  0  0
  183.8010  177.7980  137.8960 C   0  0  2  0  0  3  0  0  0  0  0  0
  181.6810  177.7320  136.5100 C   0  0  0  0  0  2  0  0  0  0  0  0
  180.9020  175.9380  139.6850 C   0  0  0  0  0  2  0  0  0  0  0  0
  178.9330  176.8010  138.3800 C   0  0  0  0  0  1  0  0  0  0  0  0
  181.2070  176.4590  137.2100 C   0  0  2  0  0  3  0  0  0  0  0  0
  181.2810  174.7630  135.2280 C   0  0  2  0  0  3  0  0  0  0  0  0
  180.6450  174.0790  136.4300 C   0  0  1  0  0  0  0  0  0  0  0  0
  181.4990  173.7070  137.4750 O   0  0  0  0  0  1  0  0  0  0  0  0
  182.7910  174.9270  135.3900 C   0  0  0  0  0  1  0  0  0  0  0  0
  180.4200  175.5700  136.2310 C   0  0  1  0  0  3  0  0  0  0  0  0
  179.6730  171.5580  136.8940 S   0  0  0  0  0  1  0  0  0  0  0  0
  179.4390  173.2000  136.1530 C   0  0  0  0  0  2  0  0  0  0  0  0
  184.4270  179.3070  139.8350 C   0  0  0  0  0  0  0  0  0  0  0  0
  184.0980  180.2930  139.1220 O   0  0  0  0  0  0  0  0  0  0  0  0
  185.1870  179.4850  140.9930 O   0  0  0  0  0  0  0  0  0  0  0  0
  187.3780  178.7000  141.6510 C   0  0  0  0  0  1  0  0  0  0  0  0
  185.8830  178.4190  141.6310 C   0  0  1  0  0  3  0  0  0  0  0  0
  185.3670  178.2050  143.0550 C   0  0  1  0  0  3  0  0  0  0  0  0
  186.4570  177.7570  144.0240 C   0  0  0  0  0  1  0  0  0  0  0  0
  183.1540  179.0740  143.9560 C   0  0  0  0  0  1  0  0  0  0  0  0
  184.5910  179.4110  143.5840 C   0  0  0  0  0  2  0  0  0  0  0  0
  185.0620  178.1770  137.1240 C   0  0  0  0  0  2  0  0  0  0  0  0
  186.2580  177.3630  137.5870 C   0  0  1  0  0  3  0  0  0  0  0  0
  186.2380  176.0330  136.9640 C   0  0  0  0  0  0  0  0  0  0  0  0
  186.2350  174.9450  136.4470 C   0  0  0  0  0  0  0  0  0  0  0  0
  186.2400  173.6240  135.8180 C   0  0  0  0  0  2  0  0  0  0  0  0
  187.9370  172.0220  137.1160 C   0  0  0  0  0  3  0  0  0  0  0  0
  187.1710  172.7440  136.5300 C   0  0  0  0  0  0  0  0  0  0  0  0
  187.4520  178.0480  137.2300 O   0  0  0  0  0  0  0  0  0  0  0  0
  188.9980  179.3450  138.3620 O   0  0  0  0  0  0  0  0  0  0  0  0
  188.5240  178.2040  138.1130 C   0  0  0  0  0  0  0  0  0  0  0  0
  189.1120  177.0070  138.7660 C   0  0  0  0  0  1  0  0  0  0  0  0
  2  6  1  0  0  0  0
  3  9  1  6  0  0  0
  3  8  1  0  0  0  0
  4 18  1  6  0  0  0
  4  1  1  0  0  0  0
  5  1  1  0  0  0  0
  6 27  1  6  0  0  0
  6  4  1  0  0  0  0
  7  2  1  0  0  0  0
  8  5  1  0  0  0  0
 10  7  1  6  0  0  0
 10  3  1  0  0  0  0
 11 14  1  1  0  0  0
 11 15  1  0  0  0  0
 11 12  1  0  0  0  0
 12 13  1  1  0  0  0
 15 12  1  0  0  0  0
 15 10  1  1  0  0  0
 17 12  1  0  0  0  0
 17 16  1  0  0  0  0
 18 20  1  0  0  0  0
 19 18  2  0  0  0  0
 20 22  1  0  0  0  0
 22 21  1  1  0  0  0
 22 23  1  0  0  0  0
 23 26  1  0  0  0  0
 23 24  1  1  0  0  0
 26 25  1  0  0  0  0
 27 28  1  0  0  0  0
 28 29  1  6  0  0  0
 30 29  3  0  0  0  0
 31 30  1  0  0  0  0
 31 33  1  0  0  0  0
 33 32  3  0  0  0  0
 34 28  1  0  0  0  0
 34 36  1  0  0  0  0
 36 35  2  0  0  0  0
 36 37  1  0  0  0  0
M  END
>  <MODEL>
2

>  <REMARK>
 VINA RESULT:      -5.4      2.042      5.861
  Name = 
  14 active torsions:
  status: ('A' for Active; 'I' for Inactive)
    1  A    between atoms: C_2  and  C_19
    2  A    between atoms: C_2  and  C_35
    3  A    between atoms: C_4  and  O_13
    4  A    between atoms: C_4  and  C_20
    5  A    between atoms: C_4  and  C_22
    6  A    between atoms: C_5  and  C_23
    7  A    between atoms: O_6  and  C_31
    8  A    between atoms: O_6  and  C_35
    9  A    between atoms: O_13  and  C_16
   10  A    between atoms: C_14  and  C_31
   11  A    between atoms: C_22  and  C_28
   12  A    between atoms: C_25  and  C_32
   13  A    between atoms: C_26  and  C_36
   14  A    between atoms: C_30  and  C_32
                            x       y       z     vdW  Elec       q    Type
                         _______ _______ _______ _____ _____    ______ ____

>  <TORSDO>
F 14

$$$$
=
 OpenBabel10262423093D

 37 38  0  0  1  0  0  0  0  0999 V2000
  190.5990  177.2770  140.2460 C   0  0  0  0  0  2  0  0  0  0  0  0
  188.5190  179.2650  141.2330 C   0  0  0  0  0  2  0  0  0  0  0  0
  190.8260  178.4680  142.9790 C   0  0  2  0  0  3  0  0  0  0  0  0
  189.1730  177.3270  139.6970 C   0  0  1  0  0  3  0  0  0  0  0  0
  190.6840  176.4190  141.5010 C   0  0  0  0  0  2  0  0  0  0  0  0
  188.1530  177.8720  140.7180 C   0  0  2  0  0  3  0  0  0  0  0  0
  188.4650  179.3400  142.7590 C   0  0  0  0  0  2  0  0  0  0  0  0
  191.4710  177.1380  142.5940 C   0  0  0  0  0  2  0  0  0  0  0  0
  191.7060  179.2460  143.9460 C   0  0  0  0  0  1  0  0  0  0  0  0
  189.3620  178.2980  143.4290 C   0  0  2  0  0  3  0  0  0  0  0  0
  187.9980  177.4470  145.4840 C   0  0  2  0  0  3  0  0  0  0  0  0
  189.4410  176.9890  145.6350 C   0  0  1  0  0  0  0  0  0  0  0  0
  189.8650  175.9390  144.8110 O   0  0  0  0  0  1  0  0  0  0  0  0
  187.2480  176.6490  144.4180 C   0  0  0  0  0  1  0  0  0  0  0  0
  189.1620  178.3200  144.9550 C   0  0  1  0  0  3  0  0  0  0  0  0
  188.8870  177.9130  148.1560 S   0  0  0  0  0  1  0  0  0  0  0  0
  190.0430  177.0860  147.0250 C   0  0  0  0  0  2  0  0  0  0  0  0
  189.1630  178.0780  138.4010 C   0  0  0  0  0  0  0  0  0  0  0  0
  189.0960  179.3360  138.4170 O   0  0  0  0  0  0  0  0  0  0  0  0
  189.2070  177.3800  137.1910 O   0  0  0  0  0  0  0  0  0  0  0  0
  189.0250  177.4580  134.7810 C   0  0  0  0  0  1  0  0  0  0  0  0
  188.3160  177.6500  136.1130 C   0  0  1  0  0  3  0  0  0  0  0  0
  187.0810  176.7510  136.1870 C   0  0  1  0  0  3  0  0  0  0  0  0
  187.3390  175.4420  136.9260 C   0  0  0  0  0  1  0  0  0  0  0  0
  184.7920  176.5400  137.2740 C   0  0  0  0  0  1  0  0  0  0  0  0
  185.8550  177.4850  136.7330 C   0  0  0  0  0  2  0  0  0  0  0  0
  186.7340  177.8450  140.1560 C   0  0  0  0  0  2  0  0  0  0  0  0
  185.8190  178.7830  140.9250 C   0  0  1  0  0  3  0  0  0  0  0  0
  184.7200  179.2370  140.0640 C   0  0  0  0  0  0  0  0  0  0  0  0
  183.8160  179.6220  139.3660 C   0  0  0  0  0  0  0  0  0  0  0  0
  182.7190  180.0970  138.5220 C   0  0  0  0  0  2  0  0  0  0  0  0
  181.4100  178.0090  137.4960 C   0  0  0  0  0  3  0  0  0  0  0  0
  182.0010  178.9520  137.9580 C   0  0  0  0  0  0  0  0  0  0  0  0
  185.2970  178.0980  142.0570 O   0  0  0  0  0  0  0  0  0  0  0  0
  183.1590  178.5260  142.8290 O   0  0  0  0  0  0  0  0  0  0  0  0
  184.4020  178.6930  142.9500 C   0  0  0  0  0  0  0  0  0  0  0  0
  184.9250  179.5360  144.0560 C   0  0  0  0  0  1  0  0  0  0  0  0
  1  5  1  0  0  0  0
  2  7  1  0  0  0  0
  3 10  1  0  0  0  0
  3  9  1  1  0  0  0
  4 18  1  6  0  0  0
  4  1  1  0  0  0  0
  4  6  1  0  0  0  0
  5  8  1  0  0  0  0
  6 27  1  6  0  0  0
  6  2  1  0  0  0  0
  8  3  1  0  0  0  0
 10  7  1  6  0  0  0
 11 14  1  6  0  0  0
 11 12  1  0  0  0  0
 12 13  1  6  0  0  0
 12 17  1  0  0  0  0
 15 10  1  6  0  0  0
 15 11  1  0  0  0  0
 15 12  1  0  0  0  0
 17 16  1  0  0  0  0
 18 19  2  0  0  0  0
 20 18  1  0  0  0  0
 22 21  1  6  0  0  0
 22 23  1  0  0  0  0
 22 20  1  0  0  0  0
 23 26  1  0  0  0  0
 23 24  1  1  0  0  0
 26 25  1  0  0  0  0
 27 28  1  0  0  0  0
 28 29  1  6  0  0  0
 28 34  1  0  0  0  0
 30 29  3  0  0  0  0
 31 30  1  0  0  0  0
 32 33  3  0  0  0  0
 33 31  1  0  0  0  0
 34 36  1  0  0  0  0
 35 36  2  0  0  0  0
 36 37  1  0  0  0  0
M  END
>  <MODEL>
3

>  <REMARK>
 VINA RESULT:      -5.4      3.792      8.142
  Name = 
  14 active torsions:
  status: ('A' for Active; 'I' for Inactive)
    1  A    between atoms: C_2  and  C_19
    2  A    between atoms: C_2  and  C_35
    3  A    between atoms: C_4  and  O_13
    4  A    between atoms: C_4  and  C_20
    5  A    between atoms: C_4  and  C_22
    6  A    between atoms: C_5  and  C_23
    7  A    between atoms: O_6  and  C_31
    8  A    between atoms: O_6  and  C_35
    9  A    between atoms: O_13  and  C_16
   10  A    between atoms: C_14  and  C_31
   11  A    between atoms: C_22  and  C_28
   12  A    between atoms: C_25  and  C_32
   13  A    between atoms: C_26  and  C_36
   14  A    between atoms: C_30  and  C_32
                            x       y       z     vdW  Elec       q    Type
                         _______ _______ _______ _____ _____    ______ ____

>  <TORSDO>
F 14

$$$$
=
 OpenBabel10262423093D

 37 38  0  0  1  0  0  0  0  0999 V2000
  182.7420  177.3470  140.0970 C   0  0  0  0  0  2  0  0  0  0  0  0
  182.5350  178.4550  137.2720 C   0  0  0  0  0  2  0  0  0  0  0  0
  180.4910  176.5190  138.3130 C   0  0  2  0  0  3  0  0  0  0  0  0
  183.9510  177.8680  139.3200 C   0  0  1  0  0  3  0  0  0  0  0  0
  182.4580  175.8870  139.7730 C   0  0  0  0  0  2  0  0  0  0  0  0
  183.7850  177.7420  137.7920 C   0  0  2  0  0  3  0  0  0  0  0  0
  181.7060  177.5550  136.3550 C   0  0  0  0  0  2  0  0  0  0  0  0
  180.9720  175.6760  139.4910 C   0  0  0  0  0  2  0  0  0  0  0  0
  178.9820  176.4240  138.1490 C   0  0  0  0  0  1  0  0  0  0  0  0
  181.3000  176.2450  137.0300 C   0  0  2  0  0  3  0  0  0  0  0  0
  181.5220  174.6390  134.9860 C   0  0  2  0  0  3  0  0  0  0  0  0
  180.9690  173.8510  136.1640 C   0  0  1  0  0  0  0  0  0  0  0  0
  181.8660  173.5280  137.1900 O   0  0  0  0  0  1  0  0  0  0  0  0
  183.0110  174.9460  135.1440 C   0  0  0  0  0  1  0  0  0  0  0  0
  180.5960  175.3190  136.0220 C   0  0  1  0  0  3  0  0  0  0  0  0
  180.4080  171.1680  136.1860 S   0  0  0  0  0  1  0  0  0  0  0  0
  179.8540  172.8680  135.8610 C   0  0  0  0  0  2  0  0  0  0  0  0
  184.2650  179.2640  139.7610 C   0  0  0  0  0  0  0  0  0  0  0  0
  183.7490  180.2370  139.1470 O   0  0  0  0  0  0  0  0  0  0  0  0
  185.1370  179.4780  140.8320 O   0  0  0  0  0  0  0  0  0  0  0  0
  186.8690  178.2250  141.9630 C   0  0  0  0  0  1  0  0  0  0  0  0
  185.3780  178.4980  141.8370 C   0  0  1  0  0  3  0  0  0  0  0  0
  184.8070  178.9460  143.1840 C   0  0  1  0  0  3  0  0  0  0  0  0
  183.2830  178.9430  143.2170 C   0  0  0  0  0  1  0  0  0  0  0  0
  185.5920  179.0350  145.6010 C   0  0  0  0  0  1  0  0  0  0  0  0
  185.4070  178.1740  144.3590 C   0  0  0  0  0  2  0  0  0  0  0  0
  185.0350  178.2110  137.0540 C   0  0  0  0  0  2  0  0  0  0  0  0
  186.0740  177.1060  136.9690 C   0  0  1  0  0  3  0  0  0  0  0  0
  187.2350  177.4350  137.8060 C   0  0  0  0  0  0  0  0  0  0  0  0
  188.1890  177.6910  138.4960 C   0  0  0  0  0  0  0  0  0  0  0  0
  189.3490  177.9940  139.3340 C   0  0  0  0  0  2  0  0  0  0  0  0
  191.3830  176.4010  138.6580 C   0  0  0  0  0  3  0  0  0  0  0  0
  190.4660  177.1210  138.9630 C   0  0  0  0  0  0  0  0  0  0  0  0
  185.4900  175.8860  137.4090 O   0  0  0  0  0  0  0  0  0  0  0  0
  186.8240  174.5380  136.0840 O   0  0  0  0  0  0  0  0  0  0  0  0
  185.9510  174.6360  136.9870 C   0  0  0  0  0  0  0  0  0  0  0  0
  185.4010  173.4050  137.6120 C   0  0  0  0  0  1  0  0  0  0  0  0
  2  6  1  0  0  0  0
  3  9  1  6  0  0  0
  3  8  1  0  0  0  0
  4 18  1  6  0  0  0
  4  1  1  0  0  0  0
  5  1  1  0  0  0  0
  6 27  1  6  0  0  0
  6  4  1  0  0  0  0
  7  2  1  0  0  0  0
  8  5  1  0  0  0  0
 10  7  1  6  0  0  0
 10  3  1  0  0  0  0
 11 14  1  1  0  0  0
 11 15  1  0  0  0  0
 11 12  1  0  0  0  0
 12 13  1  1  0  0  0
 15 12  1  0  0  0  0
 15 10  1  1  0  0  0
 17 12  1  0  0  0  0
 17 16  1  0  0  0  0
 18 20  1  0  0  0  0
 19 18  2  0  0  0  0
 20 22  1  0  0  0  0
 22 21  1  1  0  0  0
 22 23  1  0  0  0  0
 23 24  1  6  0  0  0
 23 26  1  0  0  0  0
 26 25  1  0  0  0  0
 28 27  1  1  0  0  0
 28 34  1  0  0  0  0
 28 29  1  0  0  0  0
 29 30  3  0  0  0  0
 30 31  1  0  0  0  0
 32 33  3  0  0  0  0
 33 31  1  0  0  0  0
 35 36  2  0  0  0  0
 36 34  1  0  0  0  0
 36 37  1  0  0  0  0
M  END
>  <MODEL>
4

>  <REMARK>
 VINA RESULT:      -5.3      2.055      5.458
  Name = 
  14 active torsions:
  status: ('A' for Active; 'I' for Inactive)
    1  A    between atoms: C_2  and  C_19
    2  A    between atoms: C_2  and  C_35
    3  A    between atoms: C_4  and  O_13
    4  A    between atoms: C_4  and  C_20
    5  A    between atoms: C_4  and  C_22
    6  A    between atoms: C_5  and  C_23
    7  A    between atoms: O_6  and  C_31
    8  A    between atoms: O_6  and  C_35
    9  A    between atoms: O_13  and  C_16
   10  A    between atoms: C_14  and  C_31
   11  A    between atoms: C_22  and  C_28
   12  A    between atoms: C_25  and  C_32
   13  A    between atoms: C_26  and  C_36
   14  A    between atoms: C_30  and  C_32
                            x       y       z     vdW  Elec       q    Type
                         _______ _______ _______ _____ _____    ______ ____

>  <TORSDO>
F 14

$$$$
=
 OpenBabel10262423093D

 37 38  0  0  1  0  0  0  0  0999 V2000
  185.7480  177.0910  137.2860 C   0  0  0  0  0  2  0  0  0  0  0  0
  183.5320  176.9770  139.3670 C   0  0  0  0  0  2  0  0  0  0  0  0
  183.7120  174.9040  137.2040 C   0  0  2  0  0  3  0  0  0  0  0  0
  185.2600  178.3250  138.0470 C   0  0  1  0  0  3  0  0  0  0  0  0
  184.8960  176.8220  136.0540 C   0  0  0  0  0  2  0  0  0  0  0  0
  183.7890  178.2100  138.4990 C   0  0  2  0  0  3  0  0  0  0  0  0
  182.3190  176.1820  138.8800 C   0  0  0  0  0  2  0  0  0  0  0  0
  184.5080  175.3470  135.9780 C   0  0  0  0  0  2  0  0  0  0  0  0
  183.4750  173.4010  137.1920 C   0  0  0  0  0  1  0  0  0  0  0  0
  182.4460  175.7570  137.4170 C   0  0  2  0  0  3  0  0  0  0  0  0
  180.0260  176.0610  136.4900 C   0  0  2  0  0  3  0  0  0  0  0  0
  180.8480  175.2970  135.4610 C   0  0  1  0  0  0  0  0  0  0  0  0
  181.7900  176.0300  134.7300 O   0  0  0  0  0  1  0  0  0  0  0  0
  180.3950  177.5430  136.5380 C   0  0  0  0  0  1  0  0  0  0  0  0
  181.1440  175.0890  136.9390 C   0  0  1  0  0  3  0  0  0  0  0  0
  179.8590  172.7880  135.9500 S   0  0  0  0  0  1  0  0  0  0  0  0
  180.1610  174.1350  134.7690 C   0  0  0  0  0  2  0  0  0  0  0  0
  186.1980  178.6200  139.1760 C   0  0  0  0  0  0  0  0  0  0  0  0
  187.4380  178.4800  139.0020 O   0  0  0  0  0  0  0  0  0  0  0  0
  185.6920  179.0260  140.4140 O   0  0  0  0  0  0  0  0  0  0  0  0
  187.4400  178.3960  141.9620 C   0  0  0  0  0  1  0  0  0  0  0  0
  185.9590  178.3240  141.6240 C   0  0  1  0  0  3  0  0  0  0  0  0
  185.1260  178.8880  142.7770 C   0  0  1  0  0  3  0  0  0  0  0  0
  183.6260  178.7100  142.5730 C   0  0  0  0  0  1  0  0  0  0  0  0
  184.6890  178.8250  145.2800 C   0  0  0  0  0  1  0  0  0  0  0  0
  185.5850  178.3680  144.1390 C   0  0  0  0  0  2  0  0  0  0  0  0
  183.3200  179.4840  139.1960 C   0  0  0  0  0  2  0  0  0  0  0  0
  181.9140  179.8640  138.7620 C   0  0  1  0  0  3  0  0  0  0  0  0
  180.9330  179.3770  139.7410 C   0  0  0  0  0  0  0  0  0  0  0  0
  180.1270  178.9650  140.5370 C   0  0  0  0  0  0  0  0  0  0  0  0
  179.1520  178.4560  141.5010 C   0  0  0  0  0  2  0  0  0  0  0  0
  180.2070  178.4930  143.9530 C   0  0  0  0  0  3  0  0  0  0  0  0
  179.7320  178.4760  142.8460 C   0  0  0  0  0  0  0  0  0  0  0  0
  181.8280  181.2800  138.6530 O   0  0  0  0  0  0  0  0  0  0  0  0
  180.5530  183.0690  137.9280 O   0  0  0  0  0  0  0  0  0  0  0  0
  181.0110  181.9140  137.7140 C   0  0  0  0  0  0  0  0  0  0  0  0
  180.6750  181.2150  136.4470 C   0  0  0  0  0  1  0  0  0  0  0  0
  1  4  1  0  0  0  0
  3  9  1  6  0  0  0
  3 10  1  0  0  0  0
  4  6  1  0  0  0  0
  4 18  1  1  0  0  0
  5  1  1  0  0  0  0
  6 27  1  1  0  0  0
  6  2  1  0  0  0  0
  7  2  1  0  0  0  0
  8  5  1  0  0  0  0
  8  3  1  0  0  0  0
 10  7  1  1  0  0  0
 11 14  1  6  0  0  0
 11 15  1  0  0  0  0
 12 13  1  6  0  0  0
 12 11  1  0  0  0  0
 12 15  1  0  0  0  0
 15 10  1  6  0  0  0
 17 12  1  0  0  0  0
 17 16  1  0  0  0  0
 18 20  1  0  0  0  0
 19 18  2  0  0  0  0
 20 22  1  0  0  0  0
 22 21  1  1  0  0  0
 22 23  1  0  0  0  0
 23 24  1  6  0  0  0
 23 26  1  0  0  0  0
 26 25  1  0  0  0  0
 28 27  1  1  0  0  0
 28 29  1  0  0  0  0
 29 30  3  0  0  0  0
 30 31  1  0  0  0  0
 31 33  1  0  0  0  0
 33 32  3  0  0  0  0
 34 28  1  0  0  0  0
 36 35  2  0  0  0  0
 36 34  1  0  0  0  0
 37 36  1  0  0  0  0
M  END
>  <MODEL>
5

>  <REMARK>
 VINA RESULT:      -5.2      1.860      4.042
  Name = 
  14 active torsions:
  status: ('A' for Active; 'I' for Inactive)
    1  A    between atoms: C_2  and  C_19
    2  A    between atoms: C_2  and  C_35
    3  A    between atoms: C_4  and  O_13
    4  A    between atoms: C_4  and  C_20
    5  A    between atoms: C_4  and  C_22
    6  A    between atoms: C_5  and  C_23
    7  A    between atoms: O_6  and  C_31
    8  A    between atoms: O_6  and  C_35
    9  A    between atoms: O_13  and  C_16
   10  A    between atoms: C_14  and  C_31
   11  A    between atoms: C_22  and  C_28
   12  A    between atoms: C_25  and  C_32
   13  A    between atoms: C_26  and  C_36
   14  A    between atoms: C_30  and  C_32
                            x       y       z     vdW  Elec       q    Type
                         _______ _______ _______ _____ _____    ______ ____

>  <TORSDO>
F 14

$$$$
=
 OpenBabel10262423093D

 37 38  0  0  1  0  0  0  0  0999 V2000
  190.4300  177.3270  140.2760 C   0  0  0  0  0  2  0  0  0  0  0  0
  188.3690  179.3060  141.3230 C   0  0  0  0  0  2  0  0  0  0  0  0
  190.7300  178.5200  143.0010 C   0  0  2  0  0  3  0  0  0  0  0  0
  188.9880  177.3710  139.7680 C   0  0  1  0  0  3  0  0  0  0  0  0
  190.5550  176.4710  141.5270 C   0  0  0  0  0  2  0  0  0  0  0  0
  187.9950  177.9110  140.8180 C   0  0  2  0  0  3  0  0  0  0  0  0
  188.3600  179.3810  142.8500 C   0  0  0  0  0  2  0  0  0  0  0  0
  191.3700  177.1930  142.5980 C   0  0  0  0  0  2  0  0  0  0  0  0
  191.6340  179.3020  143.9420 C   0  0  0  0  0  1  0  0  0  0  0  0
  189.2810  178.3430  143.4930 C   0  0  2  0  0  3  0  0  0  0  0  0
  187.9510  177.5240  145.5830 C   0  0  2  0  0  3  0  0  0  0  0  0
  189.3840  177.0220  145.6920 C   0  0  1  0  0  0  0  0  0  0  0  0
  189.7520  175.9640  144.8520 O   0  0  0  0  0  1  0  0  0  0  0  0
  187.1470  176.7530  144.5370 C   0  0  0  0  0  1  0  0  0  0  0  0
  189.1240  178.3640  145.0240 C   0  0  1  0  0  3  0  0  0  0  0  0
  191.6820  176.3450  147.0240 S   0  0  0  0  0  1  0  0  0  0  0  0
  190.0280  177.0960  147.0640 C   0  0  0  0  0  2  0  0  0  0  0  0
  188.9360  178.1210  138.4730 C   0  0  0  0  0  0  0  0  0  0  0  0
  189.0610  179.3760  138.4810 O   0  0  0  0  0  0  0  0  0  0  0  0
  188.7310  177.4320  137.2760 O   0  0  0  0  0  0  0  0  0  0  0  0
  186.6920  176.2170  136.8080 C   0  0  0  0  0  1  0  0  0  0  0  0
  188.1520  176.1310  137.2250 C   0  0  1  0  0  3  0  0  0  0  0  0
  188.9240  175.2280  136.2590 C   0  0  1  0  0  3  0  0  0  0  0  0
  189.6720  176.0080  135.1830 C   0  0  0  0  0  1  0  0  0  0  0  0
  191.0610  174.8960  137.5950 C   0  0  0  0  0  1  0  0  0  0  0  0
  189.8330  174.2370  136.9860 C   0  0  0  0  0  2  0  0  0  0  0  0
  186.5610  177.8780  140.2980 C   0  0  0  0  0  2  0  0  0  0  0  0
  185.6830  178.8720  141.0380 C   0  0  1  0  0  3  0  0  0  0  0  0
  184.5820  179.3180  140.1740 C   0  0  0  0  0  0  0  0  0  0  0  0
  183.6690  179.6820  139.4760 C   0  0  0  0  0  0  0  0  0  0  0  0
  182.5570  180.1250  138.6360 C   0  0  0  0  0  2  0  0  0  0  0  0
  181.5600  178.0410  137.2980 C   0  0  0  0  0  3  0  0  0  0  0  0
  182.0090  178.9820  137.9020 C   0  0  0  0  0  0  0  0  0  0  0  0
  185.1610  178.2520  142.2070 O   0  0  0  0  0  0  0  0  0  0  0  0
  184.9320  179.7430  143.9610 O   0  0  0  0  0  0  0  0  0  0  0  0
  184.3940  178.9440  143.1480 C   0  0  0  0  0  0  0  0  0  0  0  0
  182.9240  178.7330  143.1900 C   0  0  0  0  0  1  0  0  0  0  0  0
  1  5  1  0  0  0  0
  2  7  1  0  0  0  0
  3 10  1  0  0  0  0
  3  9  1  1  0  0  0
  4 18  1  6  0  0  0
  4  1  1  0  0  0  0
  4  6  1  0  0  0  0
  5  8  1  0  0  0  0
  6 27  1  6  0  0  0
  6  2  1  0  0  0  0
  8  3  1  0  0  0  0
 10  7  1  6  0  0  0
 11 14  1  6  0  0  0
 11 12  1  0  0  0  0
 12 13  1  6  0  0  0
 12 17  1  0  0  0  0
 15 10  1  6  0  0  0
 15 11  1  0  0  0  0
 15 12  1  0  0  0  0
 16 17  1  0  0  0  0
 18 19  2  0  0  0  0
 20 18  1  0  0  0  0
 22 21  1  6  0  0  0
 22 20  1  0  0  0  0
 23 24  1  6  0  0  0
 23 26  1  0  0  0  0
 23 22  1  0  0  0  0
 26 25  1  0  0  0  0
 27 28  1  0  0  0  0
 28 29  1  6  0  0  0
 28 34  1  0  0  0  0
 30 29  3  0  0  0  0
 31 30  1  0  0  0  0
 32 33  3  0  0  0  0
 33 31  1  0  0  0  0
 34 36  1  0  0  0  0
 36 37  1  0  0  0  0
 36 35  2  0  0  0  0
M  END
>  <MODEL>
6

>  <REMARK>
 VINA RESULT:      -5.0      4.022      8.137
  Name = 
  14 active torsions:
  status: ('A' for Active; 'I' for Inactive)
    1  A    between atoms: C_2  and  C_19
    2  A    between atoms: C_2  and  C_35
    3  A    between atoms: C_4  and  O_13
    4  A    between atoms: C_4  and  C_20
    5  A    between atoms: C_4  and  C_22
    6  A    between atoms: C_5  and  C_23
    7  A    between atoms: O_6  and  C_31
    8  A    between atoms: O_6  and  C_35
    9  A    between atoms: O_13  and  C_16
   10  A    between atoms: C_14  and  C_31
   11  A    between atoms: C_22  and  C_28
   12  A    between atoms: C_25  and  C_32
   13  A    between atoms: C_26  and  C_36
   14  A    between atoms: C_30  and  C_32
                            x       y       z     vdW  Elec       q    Type
                         _______ _______ _______ _____ _____    ______ ____

>  <TORSDO>
F 14

$$$$
=
 OpenBabel10262423093D

 37 38  0  0  1  0  0  0  0  0999 V2000
  182.8940  177.2440  140.8030 C   0  0  0  0  0  2  0  0  0  0  0  0
  182.9810  179.7500  139.0800 C   0  0  0  0  0  2  0  0  0  0  0  0
  180.5610  177.9740  139.0810 C   0  0  2  0  0  3  0  0  0  0  0  0
  184.2010  177.8770  140.3270 C   0  0  1  0  0  3  0  0  0  0  0  0
  182.3240  176.2910  139.7620 C   0  0  0  0  0  2  0  0  0  0  0  0
  184.0460  178.6540  139.0020 C   0  0  2  0  0  3  0  0  0  0  0  0
  182.0060  179.6800  137.9040 C   0  0  0  0  0  2  0  0  0  0  0  0
  180.8330  176.5480  139.5540 C   0  0  0  0  0  2  0  0  0  0  0  0
  179.0690  178.2640  139.0370 C   0  0  0  0  0  1  0  0  0  0  0  0
  181.3260  178.3170  137.7870 C   0  0  2  0  0  3  0  0  0  0  0  0
  181.2520  178.0060  135.1980 C   0  0  2  0  0  3  0  0  0  0  0  0
  180.4500  176.8850  135.8440 C   0  0  1  0  0  0  0  0  0  0  0  0
  181.1760  175.8690  136.4780 O   0  0  0  0  0  1  0  0  0  0  0  0
  182.7580  177.8100  135.3660 C   0  0  0  0  0  1  0  0  0  0  0  0
  180.4690  178.2530  136.5100 C   0  0  1  0  0  3  0  0  0  0  0  0
  178.9770  174.7040  135.0800 S   0  0  0  0  0  1  0  0  0  0  0  0
  179.1420  176.5100  135.1730 C   0  0  0  0  0  2  0  0  0  0  0  0
  184.7840  178.7080  141.4270 C   0  0  0  0  0  0  0  0  0  0  0  0
  185.4150  179.7610  141.1390 O   0  0  0  0  0  0  0  0  0  0  0  0
  184.6430  178.3030  142.7570 O   0  0  0  0  0  0  0  0  0  0  0  0
  183.2620  179.3610  144.4370 C   0  0  0  0  0  1  0  0  0  0  0  0
  184.6570  179.2180  143.8480 C   0  0  1  0  0  3  0  0  0  0  0  0
  185.6420  178.7640  144.9280 C   0  0  1  0  0  3  0  0  0  0  0  0
  184.9780  178.5310  146.2810 C   0  0  0  0  0  1  0  0  0  0  0  0
  187.7760  177.4270  145.2730 C   0  0  0  0  0  1  0  0  0  0  0  0
  186.4810  177.5640  144.4870 C   0  0  0  0  0  2  0  0  0  0  0  0
  185.3830  179.2160  138.5270 C   0  0  0  0  0  2  0  0  0  0  0  0
  186.1940  178.1630  137.7910 C   0  0  1  0  0  3  0  0  0  0  0  0
  187.4270  177.8650  138.5310 C   0  0  0  0  0  0  0  0  0  0  0  0
  188.4330  177.6240  139.1520 C   0  0  0  0  0  0  0  0  0  0  0  0
  189.6480  177.3310  139.9110 C   0  0  0  0  0  2  0  0  0  0  0  0
  191.5250  176.3820  138.2680 C   0  0  0  0  0  3  0  0  0  0  0  0
  190.6780  176.8090  139.0100 C   0  0  0  0  0  0  0  0  0  0  0  0
  185.4120  176.9830  137.6580 O   0  0  0  0  0  0  0  0  0  0  0  0
  186.7380  176.0430  136.0120 O   0  0  0  0  0  0  0  0  0  0  0  0
  185.7800  175.9250  136.8230 C   0  0  0  0  0  0  0  0  0  0  0  0
  185.0300  174.6450  136.8910 C   0  0  0  0  0  1  0  0  0  0  0  0
  3  9  1  6  0  0  0
  3  8  1  0  0  0  0
  4  1  1  0  0  0  0
  4 18  1  1  0  0  0
  5  1  1  0  0  0  0
  6 27  1  1  0  0  0
  6  2  1  0  0  0  0
  6  4  1  0  0  0  0
  7  2  1  0  0  0  0
  8  5  1  0  0  0  0
 10  7  1  1  0  0  0
 10  3  1  0  0  0  0
 11 14  1  1  0  0  0
 11 12  1  0  0  0  0
 11 15  1  0  0  0  0
 12 13  1  1  0  0  0
 12 15  1  0  0  0  0
 15 10  1  1  0  0  0
 16 17  1  0  0  0  0
 17 12  1  0  0  0  0
 18 20  1  0  0  0  0
 19 18  2  0  0  0  0
 20 22  1  0  0  0  0
 22 21  1  1  0  0  0
 22 23  1  0  0  0  0
 23 24  1  1  0  0  0
 26 23  1  0  0  0  0
 26 25  1  0  0  0  0
 28 27  1  1  0  0  0
 28 29  1  0  0  0  0
 29 30  3  0  0  0  0
 30 31  1  0  0  0  0
 32 33  3  0  0  0  0
 33 31  1  0  0  0  0
 34 28  1  0  0  0  0
 35 36  2  0  0  0  0
 36 37  1  0  0  0  0
 36 34  1  0  0  0  0
M  END
>  <MODEL>
7

>  <REMARK>
 VINA RESULT:      -5.0      2.081      5.575
  Name = 
  14 active torsions:
  status: ('A' for Active; 'I' for Inactive)
    1  A    between atoms: C_2  and  C_19
    2  A    between atoms: C_2  and  C_35
    3  A    between atoms: C_4  and  O_13
    4  A    between atoms: C_4  and  C_20
    5  A    between atoms: C_4  and  C_22
    6  A    between atoms: C_5  and  C_23
    7  A    between atoms: O_6  and  C_31
    8  A    between atoms: O_6  and  C_35
    9  A    between atoms: O_13  and  C_16
   10  A    between atoms: C_14  and  C_31
   11  A    between atoms: C_22  and  C_28
   12  A    between atoms: C_25  and  C_32
   13  A    between atoms: C_26  and  C_36
   14  A    between atoms: C_30  and  C_32
                            x       y       z     vdW  Elec       q    Type
                         _______ _______ _______ _____ _____    ______ ____

>  <TORSDO>
F 14

$$$$
=
 OpenBabel10262423093D

 37 38  0  0  1  0  0  0  0  0999 V2000
  185.5010  178.6540  138.2240 C   0  0  0  0  0  2  0  0  0  0  0  0
  183.6300  177.1890  136.3250 C   0  0  0  0  0  2  0  0  0  0  0  0
  182.5950  179.3480  138.1350 C   0  0  2  0  0  3  0  0  0  0  0  0
  185.7890  177.2480  137.6960 C   0  0  1  0  0  3  0  0  0  0  0  0
  184.6190  178.6130  139.4630 C   0  0  0  0  0  2  0  0  0  0  0  0
  184.5090  176.4620  137.3450 C   0  0  2  0  0  3  0  0  0  0  0  0
  182.1710  177.2590  136.7790 C   0  0  0  0  0  2  0  0  0  0  0  0
  183.4790  179.6240  139.3480 C   0  0  0  0  0  2  0  0  0  0  0  0
  181.5680  180.4530  137.9400 C   0  0  0  0  0  1  0  0  0  0  0  0
  182.0140  177.9200  138.1480 C   0  0  2  0  0  3  0  0  0  0  0  0
  180.1700  176.5350  139.3680 C   0  0  2  0  0  3  0  0  0  0  0  0
  180.3870  177.8340  140.1320 C   0  0  1  0  0  0  0  0  0  0  0  0
  181.5600  177.9370  140.8900 O   0  0  0  0  0  1  0  0  0  0  0  0
  181.3150  175.5450  139.5760 C   0  0  0  0  0  1  0  0  0  0  0  0
  180.5510  177.8350  138.6200 C   0  0  1  0  0  3  0  0  0  0  0  0
  179.5920  180.1110  141.4350 S   0  0  0  0  0  1  0  0  0  0  0  0
  179.1450  178.5350  140.6480 C   0  0  0  0  0  2  0  0  0  0  0  0
  186.7550  177.3310  136.5540 C   0  0  0  0  0  0  0  0  0  0  0  0
  186.4050  177.9050  135.4880 O   0  0  0  0  0  0  0  0  0  0  0  0
  188.0240  176.7580  136.6720 O   0  0  0  0  0  0  0  0  0  0  0  0
  189.0000  178.9470  136.9950 C   0  0  0  0  0  1  0  0  0  0  0  0
  189.1340  177.4510  137.2350 C   0  0  1  0  0  3  0  0  0  0  0  0
  189.2530  177.1660  138.7330 C   0  0  1  0  0  3  0  0  0  0  0  0
  190.5460  176.4480  139.1030 C   0  0  0  0  0  1  0  0  0  0  0  0
  188.1380  178.1540  140.7930 C   0  0  0  0  0  1  0  0  0  0  0  0
  189.0270  178.4140  139.5860 C   0  0  0  0  0  2  0  0  0  0  0  0
  184.8340  175.0440  136.8830 C   0  0  0  0  0  2  0  0  0  0  0  0
  184.1010  174.0100  137.7200 C   0  0  1  0  0  3  0  0  0  0  0  0
  182.8630  173.5970  137.0460 C   0  0  0  0  0  0  0  0  0  0  0  0
  181.8400  173.2620  136.5040 C   0  0  0  0  0  0  0  0  0  0  0  0
  180.5930  172.8610  135.8530 C   0  0  0  0  0  2  0  0  0  0  0  0
  180.7470  170.2950  135.1300 C   0  0  0  0  0  3  0  0  0  0  0  0
  180.6760  171.4530  135.4560 C   0  0  0  0  0  0  0  0  0  0  0  0
  184.9470  172.8830  137.9130 O   0  0  0  0  0  0  0  0  0  0  0  0
  187.1470  172.7650  137.2070 O   0  0  0  0  0  0  0  0  0  0  0  0
  185.9310  172.5150  136.9910 C   0  0  0  0  0  0  0  0  0  0  0  0
  185.5360  171.8190  135.7400 C   0  0  0  0  0  1  0  0  0  0  0  0
  1  5  1  0  0  0  0
  2  7  1  0  0  0  0
  2  6  1  0  0  0  0
  3  9  1  1  0  0  0
  3 10  1  0  0  0  0
  3  8  1  0  0  0  0
  4 18  1  6  0  0  0
  4  1  1  0  0  0  0
  6 27  1  6  0  0  0
  6  4  1  0  0  0  0
  8  5  1  0  0  0  0
 10  7  1  6  0  0  0
 11 14  1  1  0  0  0
 11 12  1  0  0  0  0
 12 17  1  0  0  0  0
 12 13  1  1  0  0  0
 15 10  1  1  0  0  0
 15 11  1  0  0  0  0
 15 12  1  0  0  0  0
 17 16  1  0  0  0  0
 18 20  1  0  0  0  0
 19 18  2  0  0  0  0
 20 22  1  0  0  0  0
 22 21  1  1  0  0  0
 22 23  1  0  0  0  0
 23 24  1  6  0  0  0
 23 26  1  0  0  0  0
 26 25  1  0  0  0  0
 28 27  1  6  0  0  0
 28 34  1  0  0  0  0
 29 28  1  0  0  0  0
 30 29  3  0  0  0  0
 31 30  1  0  0  0  0
 32 33  3  0  0  0  0
 33 31  1  0  0  0  0
 36 35  2  0  0  0  0
 36 34  1  0  0  0  0
 37 36  1  0  0  0  0
M  END
>  <MODEL>
8

>  <REMARK>
 VINA RESULT:      -5.0      2.920      6.525
  Name = 
  14 active torsions:
  status: ('A' for Active; 'I' for Inactive)
    1  A    between atoms: C_2  and  C_19
    2  A    between atoms: C_2  and  C_35
    3  A    between atoms: C_4  and  O_13
    4  A    between atoms: C_4  and  C_20
    5  A    between atoms: C_4  and  C_22
    6  A    between atoms: C_5  and  C_23
    7  A    between atoms: O_6  and  C_31
    8  A    between atoms: O_6  and  C_35
    9  A    between atoms: O_13  and  C_16
   10  A    between atoms: C_14  and  C_31
   11  A    between atoms: C_22  and  C_28
   12  A    between atoms: C_25  and  C_32
   13  A    between atoms: C_26  and  C_36
   14  A    between atoms: C_30  and  C_32
                            x       y       z     vdW  Elec       q    Type
                         _______ _______ _______ _____ _____    ______ ____

>  <TORSDO>
F 14

$$$$
=
 OpenBabel10262423093D

 37 38  0  0  1  0  0  0  0  0999 V2000
  185.1070  179.0530  143.4020 C   0  0  0  0  0  2  0  0  0  0  0  0
  187.0650  177.1340  142.0840 C   0  0  0  0  0  2  0  0  0  0  0  0
  186.6470  177.0950  145.0560 C   0  0  2  0  0  3  0  0  0  0  0  0
  185.7720  179.3410  142.0560 C   0  0  1  0  0  3  0  0  0  0  0  0
  185.9880  179.4880  144.5640 C   0  0  0  0  0  2  0  0  0  0  0  0
  187.1430  178.6510  141.9020 C   0  0  2  0  0  3  0  0  0  0  0  0
  188.1240  176.6230  143.0610 C   0  0  0  0  0  2  0  0  0  0  0  0
  186.0680  178.3900  145.6220 C   0  0  0  0  0  2  0  0  0  0  0  0
  186.5680  175.9670  146.0720 C   0  0  0  0  0  1  0  0  0  0  0  0
  188.0390  177.3040  144.4270 C   0  0  2  0  0  3  0  0  0  0  0  0
  190.4840  177.7370  145.2280 C   0  0  2  0  0  3  0  0  0  0  0  0
  189.5540  177.8480  146.4270 C   0  0  1  0  0  0  0  0  0  0  0  0
  188.7590  178.9980  146.5100 O   0  0  0  0  0  1  0  0  0  0  0  0
  190.3760  178.9450  144.2990 C   0  0  0  0  0  1  0  0  0  0  0  0
  189.2110  176.8620  145.3210 C   0  0  1  0  0  3  0  0  0  0  0  0
  191.6210  176.3750  147.4610 S   0  0  0  0  0  1  0  0  0  0  0  0
  190.0370  177.2250  147.7230 C   0  0  0  0  0  2  0  0  0  0  0  0
  184.8220  179.0100  140.9470 C   0  0  0  0  0  0  0  0  0  0  0  0
  184.9440  179.5900  139.8350 O   0  0  0  0  0  0  0  0  0  0  0  0
  183.8010  178.0800  141.1590 O   0  0  0  0  0  0  0  0  0  0  0  0
  182.6610  176.3750  139.8770 C   0  0  0  0  0  1  0  0  0  0  0  0
  182.7560  177.8540  140.2180 C   0  0  1  0  0  3  0  0  0  0  0  0
  181.4170  178.3590  140.7590 C   0  0  1  0  0  3  0  0  0  0  0  0
  181.4580  178.6790  142.2490 C   0  0  0  0  0  1  0  0  0  0  0  0
  181.5360  179.6750  138.5880 C   0  0  0  0  0  1  0  0  0  0  0  0
  180.8540  179.5190  139.9380 C   0  0  0  0  0  2  0  0  0  0  0  0
  187.8040  179.0140  140.5750 C   0  0  0  0  0  2  0  0  0  0  0  0
  188.3790  177.7860  139.8900 C   0  0  1  0  0  3  0  0  0  0  0  0
  187.7370  177.5870  138.5840 C   0  0  0  0  0  0  0  0  0  0  0  0
  187.1980  177.4240  137.5190 C   0  0  0  0  0  0  0  0  0  0  0  0
  186.5350  177.2280  136.2290 C   0  0  0  0  0  2  0  0  0  0  0  0
  183.8900  177.1550  136.5830 C   0  0  0  0  0  3  0  0  0  0  0  0
  185.0830  177.1900  136.4230 C   0  0  0  0  0  0  0  0  0  0  0  0
  189.7800  177.9620  139.7200 O   0  0  0  0  0  0  0  0  0  0  0  0
  190.9060  175.9770  139.3420 O   0  0  0  0  0  0  0  0  0  0  0  0
  190.7100  176.9820  140.0760 C   0  0  0  0  0  0  0  0  0  0  0  0
  191.4760  177.1270  141.3410 C   0  0  0  0  0  1  0  0  0  0  0  0
  1  5  1  0  0  0  0
  2  7  1  0  0  0  0
  3  8  1  0  0  0  0
  3  9  1  1  0  0  0
  4 18  1  6  0  0  0
  4  1  1  0  0  0  0
  5  8  1  0  0  0  0
  6 27  1  6  0  0  0
  6  4  1  0  0  0  0
  6  2  1  0  0  0  0
 10  7  1  6  0  0  0
 10  3  1  0  0  0  0
 11 14  1  6  0  0  0
 11 15  1  0  0  0  0
 11 12  1  0  0  0  0
 12 13  1  1  0  0  0
 12 17  1  0  0  0  0
 15 10  1  6  0  0  0
 15 12  1  0  0  0  0
 16 17  1  0  0  0  0
 18 20  1  0  0  0  0
 19 18  2  0  0  0  0
 22 21  1  1  0  0  0
 22 23  1  0  0  0  0
 22 20  1  0  0  0  0
 23 24  1  1  0  0  0
 25 26  1  0  0  0  0
 26 23  1  0  0  0  0
 28 29  1  6  0  0  0
 28 27  1  0  0  0  0
 30 29  3  0  0  0  0
 31 33  1  0  0  0  0
 31 30  1  0  0  0  0
 33 32  3  0  0  0  0
 34 28  1  0  0  0  0
 34 36  1  0  0  0  0
 35 36  2  0  0  0  0
 36 37  1  0  0  0  0
M  END
>  <MODEL>
9

>  <REMARK>
 VINA RESULT:      -4.9      3.764      9.387
  Name = 
  14 active torsions:
  status: ('A' for Active; 'I' for Inactive)
    1  A    between atoms: C_2  and  C_19
    2  A    between atoms: C_2  and  C_35
    3  A    between atoms: C_4  and  O_13
    4  A    between atoms: C_4  and  C_20
    5  A    between atoms: C_4  and  C_22
    6  A    between atoms: C_5  and  C_23
    7  A    between atoms: O_6  and  C_31
    8  A    between atoms: O_6  and  C_35
    9  A    between atoms: O_13  and  C_16
   10  A    between atoms: C_14  and  C_31
   11  A    between atoms: C_22  and  C_28
   12  A    between atoms: C_25  and  C_32
   13  A    between atoms: C_26  and  C_36
   14  A    between atoms: C_30  and  C_32
                            x       y       z     vdW  Elec       q    Type
                         _______ _______ _______ _____ _____    ______ ____

>  <TORSDO>
F 14

$$$$
