=
 OpenBabel10262422133D

 43 48  0  0  1  0  0  0  0  0999 V2000
  187.5890  177.7720  148.9850 C   0  0  0  0  0  2  0  0  0  0  0  0
  186.2990  178.2810  143.9630 C   0  0  0  0  0  0  0  0  0  0  0  0
  188.2560  177.0690  142.2430 C   0  0  1  0  0  3  0  0  0  0  0  0
  186.7170  178.4900  146.7450 C   0  0  0  0  0  0  0  0  0  0  0  0
  189.5940  177.8930  147.4030 C   0  0  0  0  0  2  0  0  0  0  0  0
  189.0940  177.9920  148.8440 C   0  0  0  0  0  2  0  0  0  0  0  0
  187.5810  177.6800  145.9590 C   0  0  0  0  0  0  0  0  0  0  0  0
  186.8470  178.6430  148.1350 O   0  0  0  0  0  0  0  0  0  0  0  0
  188.7440  176.9440  146.5680 C   0  0  0  0  0  2  0  0  0  0  0  0
  188.2480  176.6830  143.7250 C   0  0  0  0  0  2  0  0  0  0  0  0
  187.3660  177.5800  144.5670 C   0  0  0  0  0  0  0  0  0  0  0  0
  185.4760  179.0930  144.7500 C   0  0  0  0  0  3  0  0  0  0  0  0
  186.0910  178.1960  142.5410 N   0  0  0  0  0  0  0  0  0  0  0  0
  186.8120  177.1930  141.7600 C   0  0  0  0  0  2  0  0  0  0  0  0
  185.6850  179.1950  146.1230 C   0  0  0  0  0  3  0  0  0  0  0  0
  189.0860  178.3400  141.9870 C   0  0  1  0  0  3  0  0  0  0  0  0
  190.2000  178.4780  143.0130 C   0  0  0  0  0  1  0  0  0  0  0  0
  189.6660  178.4210  140.5700 C   0  0  0  0  0  2  0  0  0  0  0  0
  190.6700  177.3130  140.2890 C   0  0  0  0  0  2  0  0  0  0  0  0
  190.7010  177.0460  138.7980 C   0  0  0  0  0  2  0  0  0  0  0  0
  189.4490  176.3010  138.3880 C   0  0  0  0  0  2  0  0  0  0  0  0
  189.0610  176.6940  136.9660 C   0  0  1  0  0  3  0  0  0  0  0  0
  186.7710  178.3860  137.0540 C   0  0  0  0  0  2  0  0  0  0  0  0
  187.6950  176.1160  136.5520 C   0  0  2  0  0  3  0  0  0  0  0  0
  189.0150  178.2200  136.8430 C   0  0  0  0  0  2  0  0  0  0  0  0
  186.5390  176.8810  137.2120 C   0  0  2  0  0  3  0  0  0  0  0  0
  187.6140  174.7510  136.8400 O   0  0  0  0  0  1  0  0  0  0  0  0
  187.9910  178.7520  137.6500 O   0  0  0  0  0  0  0  0  0  0  0  0
  185.2150  176.4900  136.6250 C   0  0  0  0  0  0  0  0  0  0  0  0
  183.6040  176.6210  134.7150 C   0  0  0  0  0  2  0  0  0  0  0  0
  182.9590  175.3250  136.7230 C   0  0  0  0  0  2  0  0  0  0  0  0
  183.0400  175.2920  135.2040 C   0  0  0  0  0  2  0  0  0  0  0  0
  184.3640  175.4420  137.3160 C   0  0  0  0  0  2  0  0  0  0  0  0
  184.9000  176.9570  135.4050 C   0  0  0  0  0  3  0  0  0  0  0  0
  185.2930  179.2060  141.8420 C   0  0  0  0  0  2  0  0  0  0  0  0
  183.3320  178.7810  138.5040 C   0  0  0  0  0  2  0  0  0  0  0  0
  182.1220  178.0390  139.1010 C   0  0  1  0  0  3  0  0  0  0  0  0
  182.9820  178.2480  141.4540 C   0  0  0  0  0  2  0  0  0  0  0  0
  184.2130  179.4600  139.5590 C   0  0  0  0  0  2  0  0  0  0  0  0
  184.3380  178.5940  140.8160 C   0  0  1  0  0  3  0  0  0  0  0  0
  181.7910  178.4870  140.5250 C   0  0  0  0  0  2  0  0  0  0  0  0
  180.9040  178.1210  138.1860 C   0  0  0  0  0  2  0  0  0  0  0  0
  181.2490  178.6670  136.8070 C   0  0  0  0  0  1  0  0  0  0  0  0
  2 11  2  0  0  0  0
  2 12  1  0  0  0  0
  3 16  1  1  0  0  0
  3 10  1  0  0  0  0
  4  8  1  0  0  0  0
  5  6  1  0  0  0  0
  6  1  1  0  0  0  0
  7  9  1  0  0  0  0
  7  4  2  0  0  0  0
  8  1  1  0  0  0  0
  9  5  1  0  0  0  0
 10 11  1  0  0  0  0
 11  7  1  0  0  0  0
 12 15  2  0  0  0  0
 13  2  1  0  0  0  0
 14  3  1  0  0  0  0
 14 13  1  0  0  0  0
 15  4  1  0  0  0  0
 16 17  1  1  0  0  0
 18 16  1  0  0  0  0
 19 18  1  0  0  0  0
 20 19  1  0  0  0  0
 21 20  1  0  0  0  0
 22 21  1  1  0  0  0
 23 26  1  0  0  0  0
 23 28  1  0  0  0  0
 24 27  1  1  0  0  0
 24 22  1  0  0  0  0
 24 26  1  0  0  0  0
 25 22  1  0  0  0  0
 25 28  1  0  0  0  0
 26 29  1  6  0  0  0
 29 33  1  0  0  0  0
 30 32  1  0  0  0  0
 30 34  1  0  0  0  0
 31 33  1  0  0  0  0
 32 31  1  0  0  0  0
 34 29  2  0  0  0  0
 35 13  1  0  0  0  0
 36 37  1  0  0  0  0
 36 39  1  0  0  0  0
 37 42  1  6  0  0  0
 37 41  1  0  0  0  0
 39 40  1  0  0  0  0
 40 38  1  0  0  0  0
 40 35  1  1  0  0  0
 41 38  1  0  0  0  0
 43 42  1  0  0  0  0
M  END
>  <MODEL>
1

>  <REMARK>
 VINA RESULT:      -7.3      0.000      0.000
  Name = 
  10 active torsions:
  status: ('A' for Active; 'I' for Inactive)
    1  A    between atoms: C_1  and  N_34
    2  A    between atoms: C_1  and  C_35
    3  A    between atoms: C_2  and  C_6
    4  A    between atoms: C_2  and  C_13
    5  A    between atoms: C_3  and  C_4
    6  A    between atoms: C_3  and  C_12
    7  A    between atoms: C_6  and  C_17
    8  A    between atoms: C_11  and  C_22
    9  A    between atoms: C_12  and  C_17
   10  A    between atoms: C_19  and  C_25
                            x       y       z     vdW  Elec       q    Type
                         _______ _______ _______ _____ _____    ______ ____

>  <TORSDO>
F 10

$$$$
=
 OpenBabel10262422133D

 43 48  0  0  1  0  0  0  0  0999 V2000
  192.8470  174.4430  136.7920 C   0  0  0  0  0  2  0  0  0  0  0  0
  187.8160  175.4560  135.9000 C   0  0  0  0  0  0  0  0  0  0  0  0
  187.1410  178.1570  136.6130 C   0  0  1  0  0  3  0  0  0  0  0  0
  190.3610  174.3800  136.4670 C   0  0  0  0  0  0  0  0  0  0  0  0
  191.8390  176.1800  138.3750 C   0  0  0  0  0  2  0  0  0  0  0  0
  192.9940  175.2160  138.1020 C   0  0  0  0  0  2  0  0  0  0  0  0
  190.1360  175.7760  136.6100 C   0  0  0  0  0  0  0  0  0  0  0  0
  191.5980  173.7630  136.7180 O   0  0  0  0  0  0  0  0  0  0  0  0
  191.2190  176.7060  137.0880 C   0  0  0  0  0  2  0  0  0  0  0  0
  188.6180  177.7990  136.4260 C   0  0  0  0  0  2  0  0  0  0  0  0
  188.8600  176.3080  136.3250 C   0  0  0  0  0  0  0  0  0  0  0  0
  188.0510  174.0810  135.7910 C   0  0  0  0  0  3  0  0  0  0  0  0
  186.5080  175.9940  135.6290 N   0  0  0  0  0  0  0  0  0  0  0  0
  186.3220  177.4410  135.5400 C   0  0  0  0  0  2  0  0  0  0  0  0
  189.3080  173.5530  136.0710 C   0  0  0  0  0  3  0  0  0  0  0  0
  186.6540  177.8520  138.0420 C   0  0  1  0  0  3  0  0  0  0  0  0
  187.7240  178.2010  139.0650 C   0  0  0  0  0  1  0  0  0  0  0  0
  185.3370  178.5460  138.4040 C   0  0  0  0  0  2  0  0  0  0  0  0
  184.7860  178.0850  139.7450 C   0  0  0  0  0  2  0  0  0  0  0  0
  184.4880  179.3010  140.5970 C   0  0  0  0  0  2  0  0  0  0  0  0
  185.3710  179.2920  141.8260 C   0  0  0  0  0  2  0  0  0  0  0  0
  184.9860  178.1230  142.7260 C   0  0  1  0  0  3  0  0  0  0  0  0
  185.0910  178.9610  145.4470 C   0  0  0  0  0  2  0  0  0  0  0  0
  186.1590  177.6500  143.6040 C   0  0  2  0  0  3  0  0  0  0  0  0
  183.8170  178.5260  143.6310 C   0  0  0  0  0  2  0  0  0  0  0  0
  186.4190  178.6200  144.7650 C   0  0  2  0  0  3  0  0  0  0  0  0
  187.3180  177.4660  142.8440 O   0  0  0  0  0  1  0  0  0  0  0  0
  184.2080  179.5450  144.5210 O   0  0  0  0  0  0  0  0  0  0  0  0
  187.3850  178.0440  145.7570 C   0  0  0  0  0  0  0  0  0  0  0  0
  189.6620  177.1210  146.2300 C   0  0  0  0  0  2  0  0  0  0  0  0
  188.0200  177.2290  148.0790 C   0  0  0  0  0  2  0  0  0  0  0  0
  189.4500  177.5550  147.6760 C   0  0  0  0  0  2  0  0  0  0  0  0
  187.0430  178.0490  147.2340 C   0  0  0  0  0  2  0  0  0  0  0  0
  188.6080  177.6980  145.3210 C   0  0  0  0  0  3  0  0  0  0  0  0
  185.3330  175.1210  135.6030 C   0  0  0  0  0  2  0  0  0  0  0  0
  182.8160  175.3770  138.5640 C   0  0  0  0  0  2  0  0  0  0  0  0
  181.6780  176.0500  137.7730 C   0  0  1  0  0  3  0  0  0  0  0  0
  182.9330  175.9270  135.5980 C   0  0  0  0  0  2  0  0  0  0  0  0
  183.9030  174.7690  137.6700 C   0  0  0  0  0  2  0  0  0  0  0  0
  184.1820  175.6570  136.4550 C   0  0  1  0  0  3  0  0  0  0  0  0
  181.6200  175.6020  136.3130 C   0  0  0  0  0  2  0  0  0  0  0  0
  180.3310  175.8800  138.4700 C   0  0  0  0  0  2  0  0  0  0  0  0
  180.2300  174.5630  139.2250 C   0  0  0  0  0  1  0  0  0  0  0  0
  1  6  1  0  0  0  0
  2 11  1  0  0  0  0
  3 16  1  1  0  0  0
  4  7  1  0  0  0  0
  4  8  1  0  0  0  0
  6  5  1  0  0  0  0
  7  9  1  0  0  0  0
  8  1  1  0  0  0  0
  9  5  1  0  0  0  0
 10  3  1  0  0  0  0
 11 10  1  0  0  0  0
 11  7  2  0  0  0  0
 12  2  2  0  0  0  0
 12 15  1  0  0  0  0
 13  2  1  0  0  0  0
 14 13  1  0  0  0  0
 14  3  1  0  0  0  0
 15  4  2  0  0  0  0
 16 18  1  0  0  0  0
 16 17  1  1  0  0  0
 18 19  1  0  0  0  0
 19 20  1  0  0  0  0
 20 21  1  0  0  0  0
 22 21  1  1  0  0  0
 22 24  1  0  0  0  0
 22 25  1  0  0  0  0
 24 27  1  6  0  0  0
 24 26  1  0  0  0  0
 25 28  1  0  0  0  0
 26 23  1  0  0  0  0
 26 29  1  1  0  0  0
 28 23  1  0  0  0  0
 29 33  1  0  0  0  0
 30 32  1  0  0  0  0
 32 31  1  0  0  0  0
 33 31  1  0  0  0  0
 34 29  2  0  0  0  0
 34 30  1  0  0  0  0
 35 13  1  0  0  0  0
 37 42  1  1  0  0  0
 37 36  1  0  0  0  0
 38 41  1  0  0  0  0
 38 40  1  0  0  0  0
 39 36  1  0  0  0  0
 40 35  1  6  0  0  0
 40 39  1  0  0  0  0
 41 37  1  0  0  0  0
 42 43  1  0  0  0  0
M  END
>  <MODEL>
2

>  <REMARK>
 VINA RESULT:      -6.9      2.344      8.599
  Name = 
  10 active torsions:
  status: ('A' for Active; 'I' for Inactive)
    1  A    between atoms: C_1  and  N_34
    2  A    between atoms: C_1  and  C_35
    3  A    between atoms: C_2  and  C_6
    4  A    between atoms: C_2  and  C_13
    5  A    between atoms: C_3  and  C_4
    6  A    between atoms: C_3  and  C_12
    7  A    between atoms: C_6  and  C_17
    8  A    between atoms: C_11  and  C_22
    9  A    between atoms: C_12  and  C_17
   10  A    between atoms: C_19  and  C_25
                            x       y       z     vdW  Elec       q    Type
                         _______ _______ _______ _____ _____    ______ ____

>  <TORSDO>
F 10

$$$$
=
 OpenBabel10262422133D

 43 48  0  0  1  0  0  0  0  0999 V2000
  183.8370  179.0050  145.2960 C   0  0  0  0  0  2  0  0  0  0  0  0
  181.1640  178.0570  140.9280 C   0  0  0  0  0  0  0  0  0  0  0  0
  182.8860  177.1520  138.8120 C   0  0  1  0  0  3  0  0  0  0  0  0
  182.2090  178.9520  143.3900 C   0  0  0  0  0  0  0  0  0  0  0  0
  185.1790  179.3850  143.1530 C   0  0  0  0  0  2  0  0  0  0  0  0
  185.0790  179.6280  144.6590 C   0  0  0  0  0  2  0  0  0  0  0  0
  183.0570  178.2910  142.4610 C   0  0  0  0  0  0  0  0  0  0  0  0
  182.6430  179.4210  144.6410 O   0  0  0  0  0  0  0  0  0  0  0  0
  184.5200  178.0760  142.7410 C   0  0  0  0  0  2  0  0  0  0  0  0
  183.4060  177.0970  140.2510 C   0  0  0  0  0  2  0  0  0  0  0  0
  182.5270  177.8450  141.2300 C   0  0  0  0  0  0  0  0  0  0  0  0
  180.3520  178.7340  141.8440 C   0  0  0  0  0  3  0  0  0  0  0  0
  180.6270  177.6230  139.6640 N   0  0  0  0  0  0  0  0  0  0  0  0
  181.4150  176.7390  138.8050 C   0  0  0  0  0  2  0  0  0  0  0  0
  180.8700  179.1740  143.0580 C   0  0  0  0  0  3  0  0  0  0  0  0
  183.1250  178.5310  138.1690 C   0  0  1  0  0  3  0  0  0  0  0  0
  183.7760  179.4850  139.1570 C   0  0  0  0  0  1  0  0  0  0  0  0
  183.9480  178.4720  136.8770 C   0  0  0  0  0  2  0  0  0  0  0  0
  185.0690  177.4460  136.9480 C   0  0  0  0  0  2  0  0  0  0  0  0
  186.3880  178.1710  137.1110 C   0  0  0  0  0  2  0  0  0  0  0  0
  187.3190  177.3480  137.9760 C   0  0  0  0  0  2  0  0  0  0  0  0
  188.4270  178.2380  138.5290 C   0  0  1  0  0  3  0  0  0  0  0  0
  190.1210  176.6890  140.2160 C   0  0  0  0  0  2  0  0  0  0  0  0
  188.3240  178.4210  140.0540 C   0  0  2  0  0  3  0  0  0  0  0  0
  189.7950  177.6370  138.1900 C   0  0  0  0  0  2  0  0  0  0  0  0
  188.7900  177.1650  140.8030 C   0  0  2  0  0  3  0  0  0  0  0  0
  187.0260  178.7730  140.4350 O   0  0  0  0  0  1  0  0  0  0  0  0
  189.9710  176.4040  138.8460 O   0  0  0  0  0  0  0  0  0  0  0  0
  188.9270  177.4210  142.2750 C   0  0  0  0  0  0  0  0  0  0  0  0
  188.0400  177.0900  144.5900 C   0  0  0  0  0  2  0  0  0  0  0  0
  190.0750  178.4650  144.2860 C   0  0  0  0  0  2  0  0  0  0  0  0
  189.4640  177.3220  145.0820 C   0  0  0  0  0  2  0  0  0  0  0  0
  190.1870  178.0700  142.8130 C   0  0  0  0  0  2  0  0  0  0  0  0
  187.9970  176.9050  143.0960 C   0  0  0  0  0  3  0  0  0  0  0  0
  179.3740  178.1820  139.1530 C   0  0  0  0  0  2  0  0  0  0  0  0
  180.4570  180.7110  136.3950 C   0  0  0  0  0  2  0  0  0  0  0  0
  180.6670  181.9160  137.3310 C   0  0  1  0  0  3  0  0  0  0  0  0
  180.1770  180.5710  139.3980 C   0  0  0  0  0  2  0  0  0  0  0  0
  180.3560  179.3730  137.1370 C   0  0  0  0  0  2  0  0  0  0  0  0
  179.5740  179.5230  138.4450 C   0  0  1  0  0  3  0  0  0  0  0  0
  181.1700  181.5150  138.7170 C   0  0  0  0  0  2  0  0  0  0  0  0
  181.5580  182.9760  136.6910 C   0  0  0  0  0  2  0  0  0  0  0  0
  181.3230  184.3620  137.2740 C   0  0  0  0  0  1  0  0  0  0  0  0
  2 11  2  0  0  0  0
  2 12  1  0  0  0  0
  3 16  1  1  0  0  0
  3 10  1  0  0  0  0
  4  8  1  0  0  0  0
  5  6  1  0  0  0  0
  6  1  1  0  0  0  0
  7  9  1  0  0  0  0
  7  4  2  0  0  0  0
  8  1  1  0  0  0  0
  9  5  1  0  0  0  0
 10 11  1  0  0  0  0
 11  7  1  0  0  0  0
 12 15  2  0  0  0  0
 13  2  1  0  0  0  0
 14  3  1  0  0  0  0
 14 13  1  0  0  0  0
 15  4  1  0  0  0  0
 16 17  1  1  0  0  0
 18 19  1  0  0  0  0
 18 16  1  0  0  0  0
 19 20  1  0  0  0  0
 20 21  1  0  0  0  0
 22 21  1  1  0  0  0
 22 24  1  0  0  0  0
 23 26  1  0  0  0  0
 24 27  1  6  0  0  0
 24 26  1  0  0  0  0
 25 22  1  0  0  0  0
 25 28  1  0  0  0  0
 26 29  1  1  0  0  0
 28 23  1  0  0  0  0
 29 33  1  0  0  0  0
 29 34  2  0  0  0  0
 30 32  1  0  0  0  0
 31 32  1  0  0  0  0
 33 31  1  0  0  0  0
 34 30  1  0  0  0  0
 35 13  1  0  0  0  0
 36 39  1  0  0  0  0
 36 37  1  0  0  0  0
 37 42  1  6  0  0  0
 37 41  1  0  0  0  0
 39 40  1  0  0  0  0
 40 35  1  1  0  0  0
 40 38  1  0  0  0  0
 41 38  1  0  0  0  0
 42 43  1  0  0  0  0
M  END
>  <MODEL>
3

>  <REMARK>
 VINA RESULT:      -6.5      2.363      6.179
  Name = 
  10 active torsions:
  status: ('A' for Active; 'I' for Inactive)
    1  A    between atoms: C_1  and  N_34
    2  A    between atoms: C_1  and  C_35
    3  A    between atoms: C_2  and  C_6
    4  A    between atoms: C_2  and  C_13
    5  A    between atoms: C_3  and  C_4
    6  A    between atoms: C_3  and  C_12
    7  A    between atoms: C_6  and  C_17
    8  A    between atoms: C_11  and  C_22
    9  A    between atoms: C_12  and  C_17
   10  A    between atoms: C_19  and  C_25
                            x       y       z     vdW  Elec       q    Type
                         _______ _______ _______ _____ _____    ______ ____

>  <TORSDO>
F 10

$$$$
=
 OpenBabel10262422133D

 43 48  0  0  1  0  0  0  0  0999 V2000
  194.7260  174.8720  136.9590 C   0  0  0  0  0  2  0  0  0  0  0  0
  190.1880  176.7090  138.7390 C   0  0  0  0  0  0  0  0  0  0  0  0
  188.0390  176.1630  136.9120 C   0  0  1  0  0  3  0  0  0  0  0  0
  192.8680  176.1420  138.0660 C   0  0  0  0  0  0  0  0  0  0  0  0
  193.0900  175.5640  135.1190 C   0  0  0  0  0  2  0  0  0  0  0  0
  194.5340  175.2160  135.4830 C   0  0  0  0  0  2  0  0  0  0  0  0
  191.8140  175.6460  137.2510 C   0  0  0  0  0  0  0  0  0  0  0  0
  194.2280  175.9000  137.8100 O   0  0  0  0  0  0  0  0  0  0  0  0
  192.0880  174.8410  136.0100 C   0  0  0  0  0  2  0  0  0  0  0  0
  189.3410  175.3720  136.7640 C   0  0  0  0  0  2  0  0  0  0  0  0
  190.4750  175.9330  137.5940 C   0  0  0  0  0  0  0  0  0  0  0  0
  191.2410  177.2110  139.5130 C   0  0  0  0  0  3  0  0  0  0  0  0
  188.8240  177.0210  139.0780 N   0  0  0  0  0  0  0  0  0  0  0  0
  187.7300  176.3300  138.3990 C   0  0  0  0  0  2  0  0  0  0  0  0
  192.5620  176.9290  139.1780 C   0  0  0  0  0  3  0  0  0  0  0  0
  188.0950  177.5050  136.1570 C   0  0  1  0  0  3  0  0  0  0  0  0
  189.1370  177.4610  135.0500 C   0  0  0  0  0  1  0  0  0  0  0  0
  186.7440  177.9470  135.5870 C   0  0  0  0  0  2  0  0  0  0  0  0
  185.7760  176.7860  135.4160 C   0  0  0  0  0  2  0  0  0  0  0  0
  184.3610  177.2950  135.5900 C   0  0  0  0  0  2  0  0  0  0  0  0
  184.0770  177.5180  137.0600 C   0  0  0  0  0  2  0  0  0  0  0  0
  182.6110  177.2150  137.3510 C   0  0  1  0  0  3  0  0  0  0  0  0
  181.4260  179.4630  138.6390 C   0  0  0  0  0  2  0  0  0  0  0  0
  182.3180  177.1370  138.8600 C   0  0  2  0  0  3  0  0  0  0  0  0
  181.7220  178.2960  136.7260 C   0  0  0  0  0  2  0  0  0  0  0  0
  182.2840  178.5320  139.4990 C   0  0  2  0  0  3  0  0  0  0  0  0
  183.2410  176.3150  139.5130 O   0  0  0  0  0  1  0  0  0  0  0  0
  181.9540  179.5430  137.3380 O   0  0  0  0  0  0  0  0  0  0  0  0
  181.7580  178.4820  140.9030 C   0  0  0  0  0  0  0  0  0  0  0  0
  182.1820  178.7700  143.3520 C   0  0  0  0  0  2  0  0  0  0  0  0
  179.9340  178.0410  142.6160 C   0  0  0  0  0  2  0  0  0  0  0  0
  180.6860  179.0250  143.4990 C   0  0  0  0  0  2  0  0  0  0  0  0
  180.2730  178.2980  141.1470 C   0  0  0  0  0  2  0  0  0  0  0  0
  182.6030  178.7780  141.9060 C   0  0  0  0  0  3  0  0  0  0  0  0
  188.5140  178.1360  139.9760 C   0  0  0  0  0  2  0  0  0  0  0  0
  186.1170  178.1880  143.0450 C   0  0  0  0  0  2  0  0  0  0  0  0
  187.0250  177.3830  143.9940 C   0  0  1  0  0  3  0  0  0  0  0  0
  188.8980  177.2620  142.3210 C   0  0  0  0  0  2  0  0  0  0  0  0
  186.8450  178.7090  141.8000 C   0  0  0  0  0  2  0  0  0  0  0  0
  187.8490  177.6790  141.2750 C   0  0  1  0  0  3  0  0  0  0  0  0
  188.5130  177.6370  143.7530 C   0  0  0  0  0  2  0  0  0  0  0  0
  186.6440  177.6010  145.4550 C   0  0  0  0  0  2  0  0  0  0  0  0
  187.8580  177.6390  146.3730 C   0  0  0  0  0  1  0  0  0  0  0  0
  1  8  1  0  0  0  0
  2 13  1  0  0  0  0
  2 12  1  0  0  0  0
  3 16  1  1  0  0  0
  3 14  1  0  0  0  0
  4 15  1  0  0  0  0
  5  6  1  0  0  0  0
  5  9  1  0  0  0  0
  6  1  1  0  0  0  0
  7 11  1  0  0  0  0
  7  4  2  0  0  0  0
  8  4  1  0  0  0  0
  9  7  1  0  0  0  0
 10  3  1  0  0  0  0
 10 11  1  0  0  0  0
 11  2  2  0  0  0  0
 13 35  1  0  0  0  0
 14 13  1  0  0  0  0
 15 12  2  0  0  0  0
 16 17  1  6  0  0  0
 18 16  1  0  0  0  0
 19 18  1  0  0  0  0
 19 20  1  0  0  0  0
 20 21  1  0  0  0  0
 22 21  1  1  0  0  0
 22 24  1  0  0  0  0
 23 26  1  0  0  0  0
 24 26  1  0  0  0  0
 24 27  1  1  0  0  0
 25 28  1  0  0  0  0
 25 22  1  0  0  0  0
 26 29  1  1  0  0  0
 28 23  1  0  0  0  0
 29 33  1  0  0  0  0
 29 34  2  0  0  0  0
 30 32  1  0  0  0  0
 31 32  1  0  0  0  0
 33 31  1  0  0  0  0
 34 30  1  0  0  0  0
 36 37  1  0  0  0  0
 37 42  1  1  0  0  0
 38 41  1  0  0  0  0
 39 36  1  0  0  0  0
 40 35  1  6  0  0  0
 40 39  1  0  0  0  0
 40 38  1  0  0  0  0
 41 37  1  0  0  0  0
 42 43  1  0  0  0  0
M  END
>  <MODEL>
4

>  <REMARK>
 VINA RESULT:      -6.5      2.639      8.047
  Name = 
  10 active torsions:
  status: ('A' for Active; 'I' for Inactive)
    1  A    between atoms: C_1  and  N_34
    2  A    between atoms: C_1  and  C_35
    3  A    between atoms: C_2  and  C_6
    4  A    between atoms: C_2  and  C_13
    5  A    between atoms: C_3  and  C_4
    6  A    between atoms: C_3  and  C_12
    7  A    between atoms: C_6  and  C_17
    8  A    between atoms: C_11  and  C_22
    9  A    between atoms: C_12  and  C_17
   10  A    between atoms: C_19  and  C_25
                            x       y       z     vdW  Elec       q    Type
                         _______ _______ _______ _____ _____    ______ ____

>  <TORSDO>
F 10

$$$$
=
 OpenBabel10262422133D

 43 48  0  0  1  0  0  0  0  0999 V2000
  187.9280  177.9090  149.2190 C   0  0  0  0  0  2  0  0  0  0  0  0
  186.4260  178.2350  144.2420 C   0  0  0  0  0  0  0  0  0  0  0  0
  188.3450  177.0240  142.4790 C   0  0  1  0  0  3  0  0  0  0  0  0
  186.9490  178.5370  146.9970 C   0  0  0  0  0  0  0  0  0  0  0  0
  189.8650  178.0350  147.5540 C   0  0  0  0  0  2  0  0  0  0  0  0
  189.4200  178.1630  149.0110 C   0  0  0  0  0  2  0  0  0  0  0  0
  187.8020  177.7270  146.2000 C   0  0  0  0  0  0  0  0  0  0  0  0
  187.1300  178.7350  148.3760 O   0  0  0  0  0  0  0  0  0  0  0  0
  189.0080  177.0400  146.7830 C   0  0  0  0  0  2  0  0  0  0  0  0
  188.4060  176.6820  143.9700 C   0  0  0  0  0  2  0  0  0  0  0  0
  187.5350  177.5800  144.8220 C   0  0  0  0  0  0  0  0  0  0  0  0
  185.6130  179.0490  145.0380 C   0  0  0  0  0  3  0  0  0  0  0  0
  186.1640  178.1030  142.8320 N   0  0  0  0  0  0  0  0  0  0  0  0
  186.8800  177.0960  142.0510 C   0  0  0  0  0  2  0  0  0  0  0  0
  185.8740  179.1970  146.3970 C   0  0  0  0  0  3  0  0  0  0  0  0
  189.1300  178.3080  142.1530 C   0  0  1  0  0  3  0  0  0  0  0  0
  190.1190  178.6360  143.2600 C   0  0  0  0  0  1  0  0  0  0  0  0
  189.8520  178.2610  140.8020 C   0  0  0  0  0  2  0  0  0  0  0  0
  188.8860  178.2150  139.6270 C   0  0  0  0  0  2  0  0  0  0  0  0
  189.1270  176.9420  138.8430 C   0  0  0  0  0  2  0  0  0  0  0  0
  190.5970  176.5880  138.8850 C   0  0  0  0  0  2  0  0  0  0  0  0
  191.1360  176.4670  137.4630 C   0  0  1  0  0  3  0  0  0  0  0  0
  192.0870  173.8140  137.0440 C   0  0  0  0  0  2  0  0  0  0  0  0
  192.6560  176.2180  137.4320 C   0  0  2  0  0  3  0  0  0  0  0  0
  190.4290  175.3190  136.7350 C   0  0  0  0  0  2  0  0  0  0  0  0
  192.9960  174.7720  137.8170 C   0  0  2  0  0  3  0  0  0  0  0  0
  193.3330  177.1230  138.2550 O   0  0  0  0  0  1  0  0  0  0  0  0
  190.7380  174.0840  137.3370 O   0  0  0  0  0  0  0  0  0  0  0  0
  194.4380  174.4570  137.5510 C   0  0  0  0  0  0  0  0  0  0  0  0
  196.4520  174.7460  136.0950 C   0  0  0  0  0  2  0  0  0  0  0  0
  196.6290  173.2860  138.0860 C   0  0  0  0  0  2  0  0  0  0  0  0
  197.2900  174.4270  137.3290 C   0  0  0  0  0  2  0  0  0  0  0  0
  195.2580  173.7290  138.5990 C   0  0  0  0  0  2  0  0  0  0  0  0
  195.0100  174.9870  136.4560 C   0  0  0  0  0  3  0  0  0  0  0  0
  185.3120  179.0710  142.1380 C   0  0  0  0  0  2  0  0  0  0  0  0
  184.1500  178.2850  138.5040 C   0  0  0  0  0  2  0  0  0  0  0  0
  182.6900  177.9440  138.8540 C   0  0  1  0  0  3  0  0  0  0  0  0
  182.9950  178.5110  141.2840 C   0  0  0  0  0  2  0  0  0  0  0  0
  184.8960  179.0040  139.6340 C   0  0  0  0  0  2  0  0  0  0  0  0
  184.5060  178.4370  141.0030 C   0  0  1  0  0  3  0  0  0  0  0  0
  182.1520  178.7570  140.0310 C   0  0  0  0  0  2  0  0  0  0  0  0
  181.7800  178.0480  137.6330 C   0  0  0  0  0  2  0  0  0  0  0  0
  180.8650  176.8400  137.4860 C   0  0  0  0  0  1  0  0  0  0  0  0
  2 11  2  0  0  0  0
  2 12  1  0  0  0  0
  3 16  1  1  0  0  0
  3 10  1  0  0  0  0
  4  8  1  0  0  0  0
  5  6  1  0  0  0  0
  6  1  1  0  0  0  0
  7  9  1  0  0  0  0
  7  4  2  0  0  0  0
  8  1  1  0  0  0  0
  9  5  1  0  0  0  0
 10 11  1  0  0  0  0
 11  7  1  0  0  0  0
 12 15  2  0  0  0  0
 13  2  1  0  0  0  0
 14  3  1  0  0  0  0
 14 13  1  0  0  0  0
 15  4  1  0  0  0  0
 16 17  1  1  0  0  0
 18 16  1  0  0  0  0
 19 18  1  0  0  0  0
 20 21  1  0  0  0  0
 20 19  1  0  0  0  0
 22 21  1  1  0  0  0
 23 28  1  0  0  0  0
 23 26  1  0  0  0  0
 24 22  1  0  0  0  0
 24 26  1  0  0  0  0
 24 27  1  1  0  0  0
 25 28  1  0  0  0  0
 25 22  1  0  0  0  0
 26 29  1  6  0  0  0
 29 33  1  0  0  0  0
 30 34  1  0  0  0  0
 30 32  1  0  0  0  0
 31 33  1  0  0  0  0
 32 31  1  0  0  0  0
 34 29  2  0  0  0  0
 35 13  1  0  0  0  0
 36 37  1  0  0  0  0
 36 39  1  0  0  0  0
 37 42  1  6  0  0  0
 37 41  1  0  0  0  0
 39 40  1  0  0  0  0
 40 38  1  0  0  0  0
 40 35  1  1  0  0  0
 41 38  1  0  0  0  0
 43 42  1  0  0  0  0
M  END
>  <MODEL>
5

>  <REMARK>
 VINA RESULT:      -6.4      2.734      5.095
  Name = 
  10 active torsions:
  status: ('A' for Active; 'I' for Inactive)
    1  A    between atoms: C_1  and  N_34
    2  A    between atoms: C_1  and  C_35
    3  A    between atoms: C_2  and  C_6
    4  A    between atoms: C_2  and  C_13
    5  A    between atoms: C_3  and  C_4
    6  A    between atoms: C_3  and  C_12
    7  A    between atoms: C_6  and  C_17
    8  A    between atoms: C_11  and  C_22
    9  A    between atoms: C_12  and  C_17
   10  A    between atoms: C_19  and  C_25
                            x       y       z     vdW  Elec       q    Type
                         _______ _______ _______ _____ _____    ______ ____

>  <TORSDO>
F 10

$$$$
=
 OpenBabel10262422133D

 43 48  0  0  1  0  0  0  0  0999 V2000
  190.5570  177.6210  142.2520 C   0  0  0  0  0  2  0  0  0  0  0  0
  189.7190  176.6730  137.1990 C   0  0  0  0  0  0  0  0  0  0  0  0
  187.4880  178.1830  136.1980 C   0  0  1  0  0  3  0  0  0  0  0  0
  190.3690  176.6590  139.9430 C   0  0  0  0  0  0  0  0  0  0  0  0
  188.1100  177.8400  141.5450 C   0  0  0  0  0  2  0  0  0  0  0  0
  189.0990  177.7000  142.7020 C   0  0  0  0  0  2  0  0  0  0  0  0
  189.4210  177.5930  139.4470 C   0  0  0  0  0  0  0  0  0  0  0  0
  190.7580  176.5880  141.2920 O   0  0  0  0  0  0  0  0  0  0  0  0
  188.7230  178.5680  140.3560 C   0  0  0  0  0  2  0  0  0  0  0  0
  188.1280  178.6150  137.5200 C   0  0  0  0  0  2  0  0  0  0  0  0
  189.1000  177.5950  138.0720 C   0  0  0  0  0  0  0  0  0  0  0  0
  190.6300  175.7440  137.7120 C   0  0  0  0  0  3  0  0  0  0  0  0
  189.3770  176.6590  135.8000 N   0  0  0  0  0  0  0  0  0  0  0  0
  188.5930  177.7550  135.2330 C   0  0  0  0  0  2  0  0  0  0  0  0
  190.9490  175.7380  139.0670 C   0  0  0  0  0  3  0  0  0  0  0  0
  186.4200  177.0930  136.4090 C   0  0  1  0  0  3  0  0  0  0  0  0
  186.3340  176.6940  137.8740 C   0  0  0  0  0  1  0  0  0  0  0  0
  185.0330  177.4830  135.8890 C   0  0  0  0  0  2  0  0  0  0  0  0
  183.9130  176.7570  136.6200 C   0  0  0  0  0  2  0  0  0  0  0  0
  182.9300  177.7790  137.1510 C   0  0  0  0  0  2  0  0  0  0  0  0
  182.6610  177.5140  138.6170 C   0  0  0  0  0  2  0  0  0  0  0  0
  182.5810  178.8370  139.3710 C   0  0  1  0  0  3  0  0  0  0  0  0
  185.0770  179.3390  140.6500 C   0  0  0  0  0  2  0  0  0  0  0  0
  182.6860  178.6490  140.8960 C   0  0  2  0  0  3  0  0  0  0  0  0
  183.7050  179.7690  138.9060 C   0  0  0  0  0  2  0  0  0  0  0  0
  184.1280  178.3470  141.3270 C   0  0  2  0  0  3  0  0  0  0  0  0
  181.8160  177.6500  141.3430 O   0  0  0  0  0  1  0  0  0  0  0  0
  184.9630  179.2400  139.2510 O   0  0  0  0  0  0  0  0  0  0  0  0
  184.2810  178.4090  142.8180 C   0  0  0  0  0  0  0  0  0  0  0  0
  185.6920  177.9760  144.8370 C   0  0  0  0  0  2  0  0  0  0  0  0
  183.4270  178.9230  145.1550 C   0  0  0  0  0  2  0  0  0  0  0  0
  184.8930  179.0730  145.5310 C   0  0  0  0  0  2  0  0  0  0  0  0
  183.2520  179.1460  143.6520 C   0  0  0  0  0  2  0  0  0  0  0  0
  185.4250  177.9540  143.3550 C   0  0  0  0  0  3  0  0  0  0  0  0
  189.6620  175.4850  134.9730 C   0  0  0  0  0  2  0  0  0  0  0  0
  186.1660  173.7890  134.7220 C   0  0  0  0  0  2  0  0  0  0  0  0
  186.3540  172.8170  135.9020 C   0  0  1  0  0  3  0  0  0  0  0  0
  188.6100  173.7550  136.4930 C   0  0  0  0  0  2  0  0  0  0  0  0
  187.2060  174.9140  134.6870 C   0  0  0  0  0  2  0  0  0  0  0  0
  188.5890  174.4030  135.0970 C   0  0  1  0  0  3  0  0  0  0  0  0
  187.2190  173.3970  137.0200 C   0  0  0  0  0  2  0  0  0  0  0  0
  185.0160  172.3080  136.4300 C   0  0  0  0  0  2  0  0  0  0  0  0
  184.6480  172.9240  137.7720 C   0  0  0  0  0  1  0  0  0  0  0  0
  1  6  1  0  0  0  0
  2 12  2  0  0  0  0
  2 11  1  0  0  0  0
  3 16  1  1  0  0  0
  3 10  1  0  0  0  0
  4  8  1  0  0  0  0
  5  6  1  0  0  0  0
  7  4  1  0  0  0  0
  7  9  1  0  0  0  0
  8  1  1  0  0  0  0
  9  5  1  0  0  0  0
 10 11  1  0  0  0  0
 11  7  2  0  0  0  0
 12 15  1  0  0  0  0
 13  2  1  0  0  0  0
 14 13  1  0  0  0  0
 14  3  1  0  0  0  0
 15  4  2  0  0  0  0
 16 17  1  1  0  0  0
 18 16  1  0  0  0  0
 18 19  1  0  0  0  0
 19 20  1  0  0  0  0
 20 21  1  0  0  0  0
 22 21  1  6  0  0  0
 22 24  1  0  0  0  0
 23 26  1  0  0  0  0
 24 26  1  0  0  0  0
 24 27  1  6  0  0  0
 25 28  1  0  0  0  0
 25 22  1  0  0  0  0
 26 29  1  1  0  0  0
 28 23  1  0  0  0  0
 29 34  2  0  0  0  0
 29 33  1  0  0  0  0
 30 32  1  0  0  0  0
 31 32  1  0  0  0  0
 33 31  1  0  0  0  0
 34 30  1  0  0  0  0
 35 13  1  0  0  0  0
 36 37  1  0  0  0  0
 37 42  1  1  0  0  0
 37 41  1  0  0  0  0
 38 41  1  0  0  0  0
 39 36  1  0  0  0  0
 39 40  1  0  0  0  0
 40 35  1  1  0  0  0
 40 38  1  0  0  0  0
 42 43  1  0  0  0  0
M  END
>  <MODEL>
6

>  <REMARK>
 VINA RESULT:      -6.4      2.723      7.459
  Name = 
  10 active torsions:
  status: ('A' for Active; 'I' for Inactive)
    1  A    between atoms: C_1  and  N_34
    2  A    between atoms: C_1  and  C_35
    3  A    between atoms: C_2  and  C_6
    4  A    between atoms: C_2  and  C_13
    5  A    between atoms: C_3  and  C_4
    6  A    between atoms: C_3  and  C_12
    7  A    between atoms: C_6  and  C_17
    8  A    between atoms: C_11  and  C_22
    9  A    between atoms: C_12  and  C_17
   10  A    between atoms: C_19  and  C_25
                            x       y       z     vdW  Elec       q    Type
                         _______ _______ _______ _____ _____    ______ ____

>  <TORSDO>
F 10

$$$$
=
 OpenBabel10262422133D

 43 48  0  0  1  0  0  0  0  0999 V2000
  187.6920  176.7740  135.7340 C   0  0  0  0  0  2  0  0  0  0  0  0
  182.8840  178.2390  137.1010 C   0  0  0  0  0  0  0  0  0  0  0  0
  182.8700  179.5630  139.6530 C   0  0  1  0  0  3  0  0  0  0  0  0
  185.2220  177.0320  136.0870 C   0  0  0  0  0  0  0  0  0  0  0  0
  187.2960  176.8120  138.2590 C   0  0  0  0  0  2  0  0  0  0  0  0
  188.1830  176.3320  137.1110 C   0  0  0  0  0  2  0  0  0  0  0  0
  185.3010  177.8780  137.2260 C   0  0  0  0  0  0  0  0  0  0  0  0
  186.3360  176.3980  135.5110 O   0  0  0  0  0  0  0  0  0  0  0  0
  186.6050  178.1300  137.9330 C   0  0  0  0  0  2  0  0  0  0  0  0
  184.2020  179.4210  138.9110 C   0  0  0  0  0  2  0  0  0  0  0  0
  184.1270  178.4790  137.7290 C   0  0  0  0  0  0  0  0  0  0  0  0
  182.8240  177.3820  135.9980 C   0  0  0  0  0  3  0  0  0  0  0  0
  181.6830  178.8350  137.6250 N   0  0  0  0  0  0  0  0  0  0  0  0
  181.7740  179.8860  138.6380 C   0  0  0  0  0  2  0  0  0  0  0  0
  183.9790  176.7870  135.4990 C   0  0  0  0  0  3  0  0  0  0  0  0
  182.5530  178.3180  140.5020 C   0  0  1  0  0  3  0  0  0  0  0  0
  183.7410  177.3700  140.5420 C   0  0  0  0  0  1  0  0  0  0  0  0
  182.0960  178.6460  141.9280 C   0  0  0  0  0  2  0  0  0  0  0  0
  183.1350  178.2670  142.9730 C   0  0  0  0  0  2  0  0  0  0  0  0
  183.4940  179.4990  143.7770 C   0  0  0  0  0  2  0  0  0  0  0  0
  184.9090  179.3730  144.2980 C   0  0  0  0  0  2  0  0  0  0  0  0
  185.0450  178.0900  145.1110 C   0  0  1  0  0  3  0  0  0  0  0  0
  186.8830  178.5220  147.2450 C   0  0  0  0  0  2  0  0  0  0  0  0
  186.4560  177.4800  145.0110 C   0  0  2  0  0  3  0  0  0  0  0  0
  184.7260  178.3710  146.5830 C   0  0  0  0  0  2  0  0  0  0  0  0
  187.4690  178.2680  145.8530 C   0  0  2  0  0  3  0  0  0  0  0  0
  186.8770  177.3950  143.6810 O   0  0  0  0  0  1  0  0  0  0  0  0
  185.6810  179.2450  147.1390 O   0  0  0  0  0  0  0  0  0  0  0  0
  188.7780  177.5430  145.9590 C   0  0  0  0  0  0  0  0  0  0  0  0
  190.8890  176.7790  144.8570 C   0  0  0  0  0  2  0  0  0  0  0  0
  190.5030  176.1740  147.2260 C   0  0  0  0  0  2  0  0  0  0  0  0
  191.5120  176.7570  146.2480 C   0  0  0  0  0  2  0  0  0  0  0  0
  189.2810  177.0890  147.3160 C   0  0  0  0  0  2  0  0  0  0  0  0
  189.5520  177.4720  144.8640 C   0  0  0  0  0  3  0  0  0  0  0  0
  180.3680  178.2910  137.2800 C   0  0  0  0  0  2  0  0  0  0  0  0
  178.9330  176.9220  140.6320 C   0  0  0  0  0  2  0  0  0  0  0  0
  179.5840  175.5290  140.5490 C   0  0  1  0  0  3  0  0  0  0  0  0
  180.8230  176.0840  138.4320 C   0  0  0  0  0  2  0  0  0  0  0  0
  179.5330  177.9360  139.6510 C   0  0  0  0  0  2  0  0  0  0  0  0
  179.8610  177.2780  138.3070 C   0  0  1  0  0  3  0  0  0  0  0  0
  180.9490  175.5480  139.8600 C   0  0  0  0  0  2  0  0  0  0  0  0
  179.6520  174.8570  141.9170 C   0  0  0  0  0  2  0  0  0  0  0  0
  179.2990  173.3780  141.8560 C   0  0  0  0  0  1  0  0  0  0  0  0
  1  6  1  0  0  0  0
  2 13  1  0  0  0  0
  2 11  1  0  0  0  0
  3 16  1  6  0  0  0
  4  7  1  0  0  0  0
  6  5  1  0  0  0  0
  7 11  2  0  0  0  0
  7  9  1  0  0  0  0
  8  1  1  0  0  0  0
  8  4  1  0  0  0  0
  9  5  1  0  0  0  0
 10  3  1  0  0  0  0
 11 10  1  0  0  0  0
 12  2  2  0  0  0  0
 13 14  1  0  0  0  0
 14  3  1  0  0  0  0
 15 12  1  0  0  0  0
 15  4  2  0  0  0  0
 16 17  1  1  0  0  0
 16 18  1  0  0  0  0
 18 19  1  0  0  0  0
 19 20  1  0  0  0  0
 20 21  1  0  0  0  0
 22 21  1  6  0  0  0
 22 25  1  0  0  0  0
 24 27  1  6  0  0  0
 24 22  1  0  0  0  0
 24 26  1  0  0  0  0
 25 28  1  0  0  0  0
 26 29  1  1  0  0  0
 26 23  1  0  0  0  0
 28 23  1  0  0  0  0
 29 33  1  0  0  0  0
 30 34  1  0  0  0  0
 30 32  1  0  0  0  0
 31 33  1  0  0  0  0
 32 31  1  0  0  0  0
 34 29  2  0  0  0  0
 35 13  1  0  0  0  0
 37 36  1  0  0  0  0
 37 42  1  1  0  0  0
 38 41  1  0  0  0  0
 39 36  1  0  0  0  0
 40 35  1  6  0  0  0
 40 38  1  0  0  0  0
 40 39  1  0  0  0  0
 41 37  1  0  0  0  0
 43 42  1  0  0  0  0
M  END
>  <MODEL>
7

>  <REMARK>
 VINA RESULT:      -6.1      2.315      8.936
  Name = 
  10 active torsions:
  status: ('A' for Active; 'I' for Inactive)
    1  A    between atoms: C_1  and  N_34
    2  A    between atoms: C_1  and  C_35
    3  A    between atoms: C_2  and  C_6
    4  A    between atoms: C_2  and  C_13
    5  A    between atoms: C_3  and  C_4
    6  A    between atoms: C_3  and  C_12
    7  A    between atoms: C_6  and  C_17
    8  A    between atoms: C_11  and  C_22
    9  A    between atoms: C_12  and  C_17
   10  A    between atoms: C_19  and  C_25
                            x       y       z     vdW  Elec       q    Type
                         _______ _______ _______ _____ _____    ______ ____

>  <TORSDO>
F 10

$$$$
=
 OpenBabel10262422133D

 43 48  0  0  1  0  0  0  0  0999 V2000
  193.1810  173.9560  136.2130 C   0  0  0  0  0  2  0  0  0  0  0  0
  188.1390  175.2370  136.4910 C   0  0  0  0  0  0  0  0  0  0  0  0
  187.7750  178.0880  136.5080 C   0  0  1  0  0  3  0  0  0  0  0  0
  190.7100  174.0850  136.6260 C   0  0  0  0  0  0  0  0  0  0  0  0
  192.7350  176.1710  137.4090 C   0  0  0  0  0  2  0  0  0  0  0  0
  193.7310  175.0460  137.1320 C   0  0  0  0  0  2  0  0  0  0  0  0
  190.5720  175.4810  136.3960 C   0  0  0  0  0  0  0  0  0  0  0  0
  191.9500  173.4280  136.7000 O   0  0  0  0  0  0  0  0  0  0  0  0
  191.7710  176.3780  136.2480 C   0  0  0  0  0  2  0  0  0  0  0  0
  189.1190  177.5270  136.0360 C   0  0  0  0  0  2  0  0  0  0  0  0
  189.2830  176.0510  136.3290 C   0  0  0  0  0  0  0  0  0  0  0  0
  188.2970  173.8710  136.7430 C   0  0  0  0  0  3  0  0  0  0  0  0
  186.8240  175.8210  136.4440 N   0  0  0  0  0  0  0  0  0  0  0  0
  186.6550  177.1960  135.9750 C   0  0  0  0  0  2  0  0  0  0  0  0
  189.5670  173.3050  136.8100 C   0  0  0  0  0  3  0  0  0  0  0  0
  187.7310  178.2570  138.0390 C   0  0  1  0  0  3  0  0  0  0  0  0
  186.2970  178.2470  138.5450 C   0  0  0  0  0  1  0  0  0  0  0  0
  188.5620  177.2160  138.7960 C   0  0  0  0  0  2  0  0  0  0  0  0
  189.6620  177.8490  139.6350 C   0  0  0  0  0  2  0  0  0  0  0  0
  190.5530  176.7530  140.1820 C   0  0  0  0  0  2  0  0  0  0  0  0
  190.2410  176.5230  141.6440 C   0  0  0  0  0  2  0  0  0  0  0  0
  190.2700  177.8530  142.3910 C   0  0  1  0  0  3  0  0  0  0  0  0
  190.5630  177.3550  145.1810 C   0  0  0  0  0  2  0  0  0  0  0  0
  189.0490  178.0350  143.3100 C   0  0  2  0  0  3  0  0  0  0  0  0
  191.5470  177.9480  143.2330 C   0  0  0  0  0  2  0  0  0  0  0  0
  189.1670  177.1790  144.5780 C   0  0  2  0  0  3  0  0  0  0  0  0
  187.8590  177.7540  142.6320 O   0  0  0  0  0  1  0  0  0  0  0  0
  191.5440  176.9720  144.2490 O   0  0  0  0  0  0  0  0  0  0  0  0
  188.1130  177.5360  145.5840 C   0  0  0  0  0  0  0  0  0  0  0  0
  187.5340  178.1880  147.9290 C   0  0  0  0  0  2  0  0  0  0  0  0
  185.7000  177.8990  146.2930 C   0  0  0  0  0  2  0  0  0  0  0  0
  186.2730  178.8230  147.3560 C   0  0  0  0  0  2  0  0  0  0  0  0
  186.6850  177.7710  145.1300 C   0  0  0  0  0  2  0  0  0  0  0  0
  188.5030  177.8080  146.8400 C   0  0  0  0  0  3  0  0  0  0  0  0
  185.6730  175.1160  137.0120 C   0  0  0  0  0  2  0  0  0  0  0  0
  182.1700  176.8050  137.2040 C   0  0  0  0  0  2  0  0  0  0  0  0
  181.5740  176.1240  135.9580 C   0  0  1  0  0  3  0  0  0  0  0  0
  183.6250  174.7190  135.5780 C   0  0  0  0  0  2  0  0  0  0  0  0
  183.4580  176.1430  137.7050 C   0  0  0  0  0  2  0  0  0  0  0  0
  184.3380  175.6890  136.5370 C   0  0  1  0  0  3  0  0  0  0  0  0
  182.1040  174.7060  135.7430 C   0  0  0  0  0  2  0  0  0  0  0  0
  180.0490  176.1610  135.9710 C   0  0  0  0  0  2  0  0  0  0  0  0
  179.4320  174.8340  135.5540 C   0  0  0  0  0  1  0  0  0  0  0  0
  1  8  1  0  0  0  0
  1  6  1  0  0  0  0
  2 12  1  0  0  0  0
  3 16  1  1  0  0  0
  4  8  1  0  0  0  0
  4 15  1  0  0  0  0
  6  5  1  0  0  0  0
  7  4  2  0  0  0  0
  9  7  1  0  0  0  0
  9  5  1  0  0  0  0
 10 11  1  0  0  0  0
 10  3  1  0  0  0  0
 11  7  1  0  0  0  0
 11  2  2  0  0  0  0
 12 15  2  0  0  0  0
 13  2  1  0  0  0  0
 13 35  1  0  0  0  0
 14 13  1  0  0  0  0
 14  3  1  0  0  0  0
 16 17  1  1  0  0  0
 16 18  1  0  0  0  0
 18 19  1  0  0  0  0
 19 20  1  0  0  0  0
 20 21  1  0  0  0  0
 22 21  1  1  0  0  0
 22 25  1  0  0  0  0
 22 24  1  0  0  0  0
 24 27  1  6  0  0  0
 24 26  1  0  0  0  0
 25 28  1  0  0  0  0
 26 23  1  0  0  0  0
 26 29  1  1  0  0  0
 28 23  1  0  0  0  0
 29 34  2  0  0  0  0
 31 32  1  0  0  0  0
 32 30  1  0  0  0  0
 33 29  1  0  0  0  0
 33 31  1  0  0  0  0
 34 30  1  0  0  0  0
 36 39  1  0  0  0  0
 37 42  1  1  0  0  0
 37 36  1  0  0  0  0
 38 41  1  0  0  0  0
 38 40  1  0  0  0  0
 40 35  1  1  0  0  0
 40 39  1  0  0  0  0
 41 37  1  0  0  0  0
 43 42  1  0  0  0  0
M  END
>  <MODEL>
8

>  <REMARK>
 VINA RESULT:      -6.0      2.559      8.383
  Name = 
  10 active torsions:
  status: ('A' for Active; 'I' for Inactive)
    1  A    between atoms: C_1  and  N_34
    2  A    between atoms: C_1  and  C_35
    3  A    between atoms: C_2  and  C_6
    4  A    between atoms: C_2  and  C_13
    5  A    between atoms: C_3  and  C_4
    6  A    between atoms: C_3  and  C_12
    7  A    between atoms: C_6  and  C_17
    8  A    between atoms: C_11  and  C_22
    9  A    between atoms: C_12  and  C_17
   10  A    between atoms: C_19  and  C_25
                            x       y       z     vdW  Elec       q    Type
                         _______ _______ _______ _____ _____    ______ ____

>  <TORSDO>
F 10

$$$$
=
 OpenBabel10262422133D

 43 48  0  0  1  0  0  0  0  0999 V2000
  190.7700  176.0860  147.7190 C   0  0  0  0  0  2  0  0  0  0  0  0
  187.1060  177.7970  144.4350 C   0  0  0  0  0  0  0  0  0  0  0  0
  187.8580  177.3620  141.6950 C   0  0  1  0  0  3  0  0  0  0  0  0
  188.8990  177.2800  146.5490 C   0  0  0  0  0  0  0  0  0  0  0  0
  191.6820  176.8880  145.4690 C   0  0  0  0  0  2  0  0  0  0  0  0
  191.9970  176.5210  146.9190 C   0  0  0  0  0  2  0  0  0  0  0  0
  189.2070  176.8330  145.2360 C   0  0  0  0  0  0  0  0  0  0  0  0
  189.7290  177.0570  147.6610 O   0  0  0  0  0  0  0  0  0  0  0  0
  190.4900  176.1080  144.9290 C   0  0  0  0  0  2  0  0  0  0  0  0
  188.5970  176.5840  142.7880 C   0  0  0  0  0  2  0  0  0  0  0  0
  188.3060  177.0950  144.1820 C   0  0  0  0  0  0  0  0  0  0  0  0
  186.8340  178.2510  145.7290 C   0  0  0  0  0  3  0  0  0  0  0  0
  186.1950  178.0840  143.3570 N   0  0  0  0  0  0  0  0  0  0  0  0
  186.3760  177.4340  142.0600 C   0  0  0  0  0  2  0  0  0  0  0  0
  187.7200  177.9950  146.7710 C   0  0  0  0  0  3  0  0  0  0  0  0
  188.4850  178.7480  141.4560 C   0  0  1  0  0  3  0  0  0  0  0  0
  189.6260  179.0030  142.4270 C   0  0  0  0  0  1  0  0  0  0  0  0
  188.9640  178.9660  140.0160 C   0  0  0  0  0  2  0  0  0  0  0  0
  188.4930  177.8670  139.0740 C   0  0  0  0  0  2  0  0  0  0  0  0
  188.4230  178.4240  137.6680 C   0  0  0  0  0  2  0  0  0  0  0  0
  186.9790  178.4890  137.2170 C   0  0  0  0  0  2  0  0  0  0  0  0
  186.1420  177.5100  138.0330 C   0  0  1  0  0  3  0  0  0  0  0  0
  183.6930  177.0070  136.6670 C   0  0  0  0  0  2  0  0  0  0  0  0
  184.8480  178.1510  138.5680 C   0  0  2  0  0  3  0  0  0  0  0  0
  185.7780  176.2950  137.1730 C   0  0  0  0  0  2  0  0  0  0  0  0
  183.8010  178.3140  137.4570 C   0  0  2  0  0  3  0  0  0  0  0  0
  185.1090  179.3770  139.1860 O   0  0  0  0  0  1  0  0  0  0  0  0
  184.9400  176.6750  136.1070 O   0  0  0  0  0  0  0  0  0  0  0  0
  182.4640  178.7020  138.0140 C   0  0  0  0  0  0  0  0  0  0  0  0
  180.9610  180.4940  138.9010 C   0  0  0  0  0  2  0  0  0  0  0  0
  180.1100  178.1720  138.8110 C   0  0  0  0  0  2  0  0  0  0  0  0
  179.7920  179.6180  138.4650 C   0  0  0  0  0  2  0  0  0  0  0  0
  181.3250  177.7010  138.0090 C   0  0  0  0  0  2  0  0  0  0  0  0
  182.2650  179.9900  138.3440 C   0  0  0  0  0  3  0  0  0  0  0  0
  185.1890  179.1400  143.4910 C   0  0  0  0  0  2  0  0  0  0  0  0
  181.8110  178.4200  141.6910 C   0  0  0  0  0  2  0  0  0  0  0  0
  180.9350  178.3990  142.9580 C   0  0  1  0  0  3  0  0  0  0  0  0
  182.8540  179.0170  144.4610 C   0  0  0  0  0  2  0  0  0  0  0  0
  183.1990  179.0300  141.9190 C   0  0  0  0  0  2  0  0  0  0  0  0
  183.7640  178.6250  143.2840 C   0  0  1  0  0  3  0  0  0  0  0  0
  181.4250  179.3630  144.0380 C   0  0  0  0  0  2  0  0  0  0  0  0
  179.4620  178.6220  142.6270 C   0  0  0  0  0  2  0  0  0  0  0  0
  179.1800  180.0430  142.1620 C   0  0  0  0  0  1  0  0  0  0  0  0
  2 12  1  0  0  0  0
  3 16  1  1  0  0  0
  3 14  1  0  0  0  0
  3 10  1  0  0  0  0
  4 15  1  0  0  0  0
  4  8  1  0  0  0  0
  5  6  1  0  0  0  0
  6  1  1  0  0  0  0
  7  4  2  0  0  0  0
  8  1  1  0  0  0  0
  9  7  1  0  0  0  0
  9  5  1  0  0  0  0
 10 11  1  0  0  0  0
 11  2  2  0  0  0  0
 11  7  1  0  0  0  0
 12 15  2  0  0  0  0
 13 35  1  0  0  0  0
 13  2  1  0  0  0  0
 14 13  1  0  0  0  0
 16 17  1  1  0  0  0
 18 16  1  0  0  0  0
 19 18  1  0  0  0  0
 20 19  1  0  0  0  0
 21 20  1  0  0  0  0
 22 21  1  6  0  0  0
 22 24  1  0  0  0  0
 23 26  1  0  0  0  0
 24 27  1  6  0  0  0
 25 22  1  0  0  0  0
 26 29  1  1  0  0  0
 26 24  1  0  0  0  0
 28 23  1  0  0  0  0
 28 25  1  0  0  0  0
 29 34  2  0  0  0  0
 32 31  1  0  0  0  0
 32 30  1  0  0  0  0
 33 29  1  0  0  0  0
 33 31  1  0  0  0  0
 34 30  1  0  0  0  0
 36 39  1  0  0  0  0
 36 37  1  0  0  0  0
 37 42  1  6  0  0  0
 37 41  1  0  0  0  0
 39 40  1  0  0  0  0
 40 35  1  1  0  0  0
 40 38  1  0  0  0  0
 41 38  1  0  0  0  0
 43 42  1  0  0  0  0
M  END
>  <MODEL>
9

>  <REMARK>
 VINA RESULT:      -5.8      1.887      3.410
  Name = 
  10 active torsions:
  status: ('A' for Active; 'I' for Inactive)
    1  A    between atoms: C_1  and  N_34
    2  A    between atoms: C_1  and  C_35
    3  A    between atoms: C_2  and  C_6
    4  A    between atoms: C_2  and  C_13
    5  A    between atoms: C_3  and  C_4
    6  A    between atoms: C_3  and  C_12
    7  A    between atoms: C_6  and  C_17
    8  A    between atoms: C_11  and  C_22
    9  A    between atoms: C_12  and  C_17
   10  A    between atoms: C_19  and  C_25
                            x       y       z     vdW  Elec       q    Type
                         _______ _______ _______ _____ _____    ______ ____

>  <TORSDO>
F 10

$$$$
