=
 OpenBabel10262421483D

 30 32  0  0  1  0  0  0  0  0999 V2000
  184.1590  178.4580  142.6350 C   0  0  0  0  0  0  0  0  0  0  0  0
  182.9880  178.8100  143.3110 C   0  0  0  0  0  3  0  0  0  0  0  0
  184.0990  178.2860  141.1540 C   0  0  0  0  0  1  0  0  0  0  0  0
  185.3700  178.4740  144.7550 C   0  0  0  0  0  0  0  0  0  0  0  0
  182.9980  178.9940  144.6930 C   0  0  0  0  0  3  0  0  0  0  0  0
  185.3620  178.2770  143.3510 C   0  0  0  0  0  0  0  0  0  0  0  0
  184.1860  178.8310  145.4080 C   0  0  0  0  0  3  0  0  0  0  0  0
  188.4160  177.7310  148.0360 C   0  0  0  0  0  3  0  0  0  0  0  0
  189.2240  177.9350  146.7900 C   0  0  0  0  0  2  0  0  0  0  0  0
  187.1350  178.1170  148.1300 C   0  0  0  0  0  3  0  0  0  0  0  0
  187.2450  176.9680  145.4630 C   0  0  0  0  0  2  0  0  0  0  0  0
  186.3710  178.8400  147.0430 C   0  0  0  0  0  2  0  0  0  0  0  0
  188.7660  177.0040  145.6590 C   0  0  1  0  0  3  0  0  0  0  0  0
  186.6060  178.3520  145.5980 C   0  0  2  0  0  3  0  0  0  0  0  0
  189.4480  177.3910  144.3590 C   0  0  0  0  0  2  0  0  0  0  0  0
  191.6470  177.8790  143.3410 C   0  0  0  0  0  2  0  0  0  0  0  0
  190.8460  177.9180  144.6290 C   0  0  0  0  0  3  0  0  0  0  0  0
  191.0610  179.1880  143.8270 C   0  0  0  0  0  2  0  0  0  0  0  0
  186.6160  177.8950  142.6180 C   0  0  0  0  0  2  0  0  0  0  0  0
  186.9830  178.9400  141.6790 N   0  0  0  0  0  2  0  0  0  0  0  0
  188.2150  178.5110  141.0390 C   0  0  0  0  0  2  0  0  0  0  0  0
  187.9230  177.8920  139.6780 C   0  0  1  0  0  3  0  0  0  0  0  0
  186.6570  178.2680  139.2690 F   0  0  0  0  0  0  0  0  0  0  0  0
  188.9310  178.3070  138.6510 C   0  0  0  0  0  0  0  0  0  0  0  0
  189.1410  179.4910  138.4270 O   0  0  0  0  0  0  0  0  0  0  0  0
  189.6770  177.2600  137.8880 C   0  0  0  0  0  2  0  0  0  0  0  0
  191.3860  177.2300  139.7370 C   0  0  0  0  0  1  0  0  0  0  0  0
  190.5160  176.3890  138.8160 C   0  0  2  0  0  3  0  0  0  0  0  0
  192.5490  176.0420  137.3360 C   0  0  0  0  0  1  0  0  0  0  0  0
  191.3540  175.3920  138.0200 C   0  0  0  0  0  2  0  0  0  0  0  0
  1  2  2  0  0  0  0
  1  6  1  0  0  0  0
  2  5  1  0  0  0  0
  3  1  1  0  0  0  0
  4  7  1  0  0  0  0
  5  7  2  0  0  0  0
  6  4  2  0  0  0  0
  8 10  2  0  0  0  0
  9  8  1  0  0  0  0
 11 14  1  0  0  0  0
 11 13  1  0  0  0  0
 12 10  1  0  0  0  0
 13 15  1  6  0  0  0
 13  9  1  0  0  0  0
 14  4  1  6  0  0  0
 14 12  1  0  0  0  0
 15 17  1  0  0  0  0
 16 18  1  0  0  0  0
 16 17  1  0  0  0  0
 18 17  1  0  0  0  0
 19  6  1  0  0  0  0
 20 19  1  0  0  0  0
 21 20  1  0  0  0  0
 22 23  1  6  0  0  0
 22 21  1  0  0  0  0
 24 22  1  0  0  0  0
 25 24  2  0  0  0  0
 26 24  1  0  0  0  0
 26 28  1  0  0  0  0
 28 27  1  6  0  0  0
 29 30  1  0  0  0  0
 30 28  1  0  0  0  0
M  END
>  <MODEL>
1

>  <REMARK>
 VINA RESULT:      -8.8      0.000      0.000
  Name = 
  11 active torsions:
  status: ('A' for Active; 'I' for Inactive)
    1  A    between atoms: C_1  and  N_4
    2  A    between atoms: C_1  and  C_27
    3  A    between atoms: N_4  and  C_5
    4  A    between atoms: C_5  and  C_22
    5  A    between atoms: C_8  and  C_12
    6  A    between atoms: C_8  and  C_27
    7  A    between atoms: C_9  and  C_12
    8  A    between atoms: C_9  and  C_21
    9  A    between atoms: C_15  and  C_16
   10  A    between atoms: C_16  and  C_25
   11  A    between atoms: C_19  and  C_29
                            x       y       z     vdW  Elec       q    Type
                         _______ _______ _______ _____ _____    ______ ____

>  <TORSDO>
F 11

$$$$
=
 OpenBabel10262421483D

 30 32  0  0  1  0  0  0  0  0999 V2000
  184.2630  178.3700  142.6940 C   0  0  0  0  0  0  0  0  0  0  0  0
  183.1050  178.8070  143.3450 C   0  0  0  0  0  3  0  0  0  0  0  0
  184.1970  178.1120  141.2260 C   0  0  0  0  0  1  0  0  0  0  0  0
  185.4730  178.4700  144.8120 C   0  0  0  0  0  0  0  0  0  0  0  0
  183.1220  179.0730  144.7130 C   0  0  0  0  0  3  0  0  0  0  0  0
  185.4580  178.1880  143.4230 C   0  0  0  0  0  0  0  0  0  0  0  0
  184.3030  178.9090  145.4400 C   0  0  0  0  0  3  0  0  0  0  0  0
  188.4910  177.7950  148.1340 C   0  0  0  0  0  3  0  0  0  0  0  0
  189.3070  177.9190  146.8830 C   0  0  0  0  0  2  0  0  0  0  0  0
  187.2200  178.2190  148.2060 C   0  0  0  0  0  3  0  0  0  0  0  0
  187.3040  176.9470  145.5940 C   0  0  0  0  0  2  0  0  0  0  0  0
  186.4790  178.9120  147.0850 C   0  0  0  0  0  2  0  0  0  0  0  0
  188.8250  176.9500  145.7940 C   0  0  1  0  0  3  0  0  0  0  0  0
  186.7030  178.3530  145.6640 C   0  0  2  0  0  3  0  0  0  0  0  0
  189.5210  177.2580  144.4790 C   0  0  0  0  0  2  0  0  0  0  0  0
  191.7060  177.8290  143.4750 C   0  0  0  0  0  2  0  0  0  0  0  0
  190.8610  177.9250  144.7310 C   0  0  0  0  0  3  0  0  0  0  0  0
  190.9990  179.1250  143.8140 C   0  0  0  0  0  2  0  0  0  0  0  0
  186.6960  177.7160  142.7180 C   0  0  0  0  0  2  0  0  0  0  0  0
  187.3540  178.8330  142.0620 N   0  0  0  0  0  2  0  0  0  0  0  0
  187.7250  178.3760  140.7330 C   0  0  0  0  0  2  0  0  0  0  0  0
  189.1780  177.9220  140.7100 C   0  0  1  0  0  3  0  0  0  0  0  0
  189.2860  176.7030  141.3550 F   0  0  0  0  0  0  0  0  0  0  0  0
  189.7010  177.8020  139.3110 C   0  0  0  0  0  0  0  0  0  0  0  0
  190.5900  177.0060  139.0450 O   0  0  0  0  0  0  0  0  0  0  0  0
  189.1340  178.6740  138.2380 C   0  0  0  0  0  2  0  0  0  0  0  0
  189.0640  177.8160  135.8710 C   0  0  0  0  0  1  0  0  0  0  0  0
  188.3520  177.8590  137.2140 C   0  0  2  0  0  3  0  0  0  0  0  0
  185.8740  177.3160  137.3180 C   0  0  0  0  0  1  0  0  0  0  0  0
  186.9270  178.3860  137.0680 C   0  0  0  0  0  2  0  0  0  0  0  0
  1  2  2  0  0  0  0
  1  6  1  0  0  0  0
  2  5  1  0  0  0  0
  3  1  1  0  0  0  0
  4  7  1  0  0  0  0
  5  7  2  0  0  0  0
  6  4  2  0  0  0  0
  8 10  2  0  0  0  0
  9  8  1  0  0  0  0
 11 14  1  0  0  0  0
 11 13  1  0  0  0  0
 12 10  1  0  0  0  0
 13 15  1  6  0  0  0
 13  9  1  0  0  0  0
 14  4  1  1  0  0  0
 14 12  1  0  0  0  0
 15 17  1  0  0  0  0
 16 18  1  0  0  0  0
 16 17  1  0  0  0  0
 18 17  1  0  0  0  0
 19  6  1  0  0  0  0
 20 19  1  0  0  0  0
 21 20  1  0  0  0  0
 22 21  1  0  0  0  0
 22 23  1  6  0  0  0
 24 22  1  0  0  0  0
 25 24  2  0  0  0  0
 26 24  1  0  0  0  0
 28 27  1  6  0  0  0
 28 26  1  0  0  0  0
 30 28  1  0  0  0  0
 30 29  1  0  0  0  0
M  END
>  <MODEL>
2

>  <REMARK>
 VINA RESULT:      -8.7      1.403      2.125
  Name = 
  11 active torsions:
  status: ('A' for Active; 'I' for Inactive)
    1  A    between atoms: C_1  and  N_4
    2  A    between atoms: C_1  and  C_27
    3  A    between atoms: N_4  and  C_5
    4  A    between atoms: C_5  and  C_22
    5  A    between atoms: C_8  and  C_12
    6  A    between atoms: C_8  and  C_27
    7  A    between atoms: C_9  and  C_12
    8  A    between atoms: C_9  and  C_21
    9  A    between atoms: C_15  and  C_16
   10  A    between atoms: C_16  and  C_25
   11  A    between atoms: C_19  and  C_29
                            x       y       z     vdW  Elec       q    Type
                         _______ _______ _______ _____ _____    ______ ____

>  <TORSDO>
F 11

$$$$
=
 OpenBabel10262421483D

 30 32  0  0  1  0  0  0  0  0999 V2000
  185.1710  178.5730  145.5990 C   0  0  0  0  0  0  0  0  0  0  0  0
  185.3870  178.7450  146.9690 C   0  0  0  0  0  3  0  0  0  0  0  0
  183.8550  178.9860  145.0310 C   0  0  0  0  0  1  0  0  0  0  0  0
  187.4290  177.6710  145.3710 C   0  0  0  0  0  0  0  0  0  0  0  0
  186.6060  178.3860  147.5420 C   0  0  0  0  0  3  0  0  0  0  0  0
  186.1870  178.0260  144.7860 C   0  0  0  0  0  0  0  0  0  0  0  0
  187.6220  177.8560  146.7440 C   0  0  0  0  0  3  0  0  0  0  0  0
  190.3340  176.3280  142.1530 C   0  0  0  0  0  3  0  0  0  0  0  0
  191.1230  176.3080  143.4270 C   0  0  0  0  0  2  0  0  0  0  0  0
  188.9930  176.3450  142.1420 C   0  0  0  0  0  3  0  0  0  0  0  0
  189.6190  178.2130  144.2780 C   0  0  0  0  0  2  0  0  0  0  0  0
  188.1200  176.2890  143.3750 C   0  0  0  0  0  2  0  0  0  0  0  0
  191.0420  177.6510  144.1660 C   0  0  1  0  0  3  0  0  0  0  0  0
  188.5850  177.1260  144.5850 C   0  0  2  0  0  3  0  0  0  0  0  0
  191.6600  177.5230  145.5470 C   0  0  0  0  0  2  0  0  0  0  0  0
  192.3390  175.9640  147.3410 C   0  0  0  0  0  2  0  0  0  0  0  0
  191.5760  176.0880  146.0350 C   0  0  0  0  0  3  0  0  0  0  0  0
  190.8270  176.0550  147.3530 C   0  0  0  0  0  2  0  0  0  0  0  0
  185.9470  177.8410  143.3150 C   0  0  0  0  0  2  0  0  0  0  0  0
  186.1510  179.0970  142.6150 N   0  0  0  0  0  2  0  0  0  0  0  0
  186.3120  178.7690  141.2090 C   0  0  0  0  0  2  0  0  0  0  0  0
  184.9570  178.5280  140.5560 C   0  0  1  0  0  3  0  0  0  0  0  0
  183.9790  179.1850  141.2810 F   0  0  0  0  0  0  0  0  0  0  0  0
  184.9340  178.9980  139.1340 C   0  0  0  0  0  0  0  0  0  0  0  0
  184.5550  180.1260  138.8570 O   0  0  0  0  0  0  0  0  0  0  0  0
  185.3680  178.0680  138.0460 C   0  0  0  0  0  2  0  0  0  0  0  0
  187.1440  178.7810  136.4090 C   0  0  0  0  0  1  0  0  0  0  0  0
  186.8650  178.1850  137.7810 C   0  0  2  0  0  3  0  0  0  0  0  0
  188.9900  176.9660  138.4480 C   0  0  0  0  0  1  0  0  0  0  0  0
  187.5570  176.8350  137.9500 C   0  0  0  0  0  2  0  0  0  0  0  0
  1  2  1  0  0  0  0
  2  5  2  0  0  0  0
  3  1  1  0  0  0  0
  4  7  2  0  0  0  0
  6  4  1  0  0  0  0
  6  1  2  0  0  0  0
  7  5  1  0  0  0  0
  8  9  1  0  0  0  0
  9 13  1  0  0  0  0
 10  8  2  0  0  0  0
 10 12  1  0  0  0  0
 11 14  1  0  0  0  0
 12 14  1  0  0  0  0
 13 11  1  0  0  0  0
 13 15  1  1  0  0  0
 14  4  1  6  0  0  0
 15 17  1  0  0  0  0
 16 18  1  0  0  0  0
 17 16  1  0  0  0  0
 17 18  1  0  0  0  0
 19  6  1  0  0  0  0
 20 19  1  0  0  0  0
 21 20  1  0  0  0  0
 22 21  1  0  0  0  0
 22 23  1  1  0  0  0
 24 22  1  0  0  0  0
 25 24  2  0  0  0  0
 26 24  1  0  0  0  0
 28 27  1  6  0  0  0
 28 30  1  0  0  0  0
 28 26  1  0  0  0  0
 30 29  1  0  0  0  0
M  END
>  <MODEL>
3

>  <REMARK>
 VINA RESULT:      -8.5      2.054      3.897
  Name = 
  11 active torsions:
  status: ('A' for Active; 'I' for Inactive)
    1  A    between atoms: C_1  and  N_4
    2  A    between atoms: C_1  and  C_27
    3  A    between atoms: N_4  and  C_5
    4  A    between atoms: C_5  and  C_22
    5  A    between atoms: C_8  and  C_12
    6  A    between atoms: C_8  and  C_27
    7  A    between atoms: C_9  and  C_12
    8  A    between atoms: C_9  and  C_21
    9  A    between atoms: C_15  and  C_16
   10  A    between atoms: C_16  and  C_25
   11  A    between atoms: C_19  and  C_29
                            x       y       z     vdW  Elec       q    Type
                         _______ _______ _______ _____ _____    ______ ____

>  <TORSDO>
F 11

$$$$
=
 OpenBabel10262421483D

 30 32  0  0  1  0  0  0  0  0999 V2000
  185.4260  178.3780  144.6350 C   0  0  0  0  0  0  0  0  0  0  0  0
  184.2780  178.9330  145.2050 C   0  0  0  0  0  3  0  0  0  0  0  0
  186.5990  178.1110  145.5190 C   0  0  0  0  0  1  0  0  0  0  0  0
  184.3080  178.3290  142.4650 C   0  0  0  0  0  0  0  0  0  0  0  0
  183.1530  179.1880  144.4220 C   0  0  0  0  0  3  0  0  0  0  0  0
  185.4570  178.0780  143.2560 C   0  0  0  0  0  0  0  0  0  0  0  0
  183.1690  178.8820  143.0600 C   0  0  0  0  0  3  0  0  0  0  0  0
  183.0760  177.7640  138.1340 C   0  0  0  0  0  3  0  0  0  0  0  0
  184.5600  177.5510  138.1500 C   0  0  0  0  0  2  0  0  0  0  0  0
  182.3330  177.7100  139.2490 C   0  0  0  0  0  3  0  0  0  0  0  0
  184.6760  179.1810  140.1370 C   0  0  0  0  0  2  0  0  0  0  0  0
  182.8650  177.3790  140.6250 C   0  0  0  0  0  2  0  0  0  0  0  0
  185.2950  178.7280  138.8070 C   0  0  1  0  0  3  0  0  0  0  0  0
  184.2260  178.0020  141.0030 C   0  0  2  0  0  3  0  0  0  0  0  0
  186.7590  178.3800  139.0080 C   0  0  0  0  0  2  0  0  0  0  0  0
  188.5810  178.2320  137.3450 C   0  0  0  0  0  2  0  0  0  0  0  0
  187.2870  177.5980  137.8190 C   0  0  0  0  0  3  0  0  0  0  0  0
  188.6190  176.9740  138.1870 C   0  0  0  0  0  2  0  0  0  0  0  0
  186.6960  177.4840  142.6500 C   0  0  0  0  0  2  0  0  0  0  0  0
  187.6240  178.5380  142.2780 N   0  0  0  0  0  2  0  0  0  0  0  0
  188.9420  177.9290  142.2140 C   0  0  0  0  0  2  0  0  0  0  0  0
  189.1780  177.0350  143.4240 C   0  0  1  0  0  3  0  0  0  0  0  0
  189.5480  175.7740  142.9950 F   0  0  0  0  0  0  0  0  0  0  0  0
  190.2340  177.5920  144.3290 C   0  0  0  0  0  0  0  0  0  0  0  0
  190.3710  178.8000  144.4570 O   0  0  0  0  0  0  0  0  0  0  0  0
  191.1330  176.6560  145.0720 C   0  0  0  0  0  2  0  0  0  0  0  0
  192.0060  175.9710  147.3320 C   0  0  0  0  0  1  0  0  0  0  0  0
  191.0710  176.9020  146.5750 C   0  0  2  0  0  3  0  0  0  0  0  0
  189.2880  177.8640  148.1040 C   0  0  0  0  0  1  0  0  0  0  0  0
  189.6380  176.7860  147.0890 C   0  0  0  0  0  2  0  0  0  0  0  0
  1  2  1  0  0  0  0
  1  3  1  0  0  0  0
  4  7  2  0  0  0  0
  4  6  1  0  0  0  0
  5  2  2  0  0  0  0
  6  1  2  0  0  0  0
  7  5  1  0  0  0  0
  8  9  1  0  0  0  0
  8 10  2  0  0  0  0
  9 13  1  0  0  0  0
 10 12  1  0  0  0  0
 11 14  1  0  0  0  0
 12 14  1  0  0  0  0
 13 15  1  1  0  0  0
 13 11  1  0  0  0  0
 14  4  1  1  0  0  0
 16 17  1  0  0  0  0
 16 18  1  0  0  0  0
 17 18  1  0  0  0  0
 17 15  1  0  0  0  0
 19  6  1  0  0  0  0
 20 19  1  0  0  0  0
 21 20  1  0  0  0  0
 21 22  1  0  0  0  0
 22 23  1  6  0  0  0
 22 24  1  0  0  0  0
 24 25  2  0  0  0  0
 24 26  1  0  0  0  0
 26 28  1  0  0  0  0
 28 30  1  0  0  0  0
 28 27  1  1  0  0  0
 30 29  1  0  0  0  0
M  END
>  <MODEL>
4

>  <REMARK>
 VINA RESULT:      -8.3      2.171      6.470
  Name = 
  11 active torsions:
  status: ('A' for Active; 'I' for Inactive)
    1  A    between atoms: C_1  and  N_4
    2  A    between atoms: C_1  and  C_27
    3  A    between atoms: N_4  and  C_5
    4  A    between atoms: C_5  and  C_22
    5  A    between atoms: C_8  and  C_12
    6  A    between atoms: C_8  and  C_27
    7  A    between atoms: C_9  and  C_12
    8  A    between atoms: C_9  and  C_21
    9  A    between atoms: C_15  and  C_16
   10  A    between atoms: C_16  and  C_25
   11  A    between atoms: C_19  and  C_29
                            x       y       z     vdW  Elec       q    Type
                         _______ _______ _______ _____ _____    ______ ____

>  <TORSDO>
F 11

$$$$
=
 OpenBabel10262421483D

 30 32  0  0  1  0  0  0  0  0999 V2000
  185.1440  178.5580  145.5840 C   0  0  0  0  0  0  0  0  0  0  0  0
  185.3710  178.7090  146.9550 C   0  0  0  0  0  3  0  0  0  0  0  0
  183.8170  178.9630  145.0360 C   0  0  0  0  0  1  0  0  0  0  0  0
  187.4100  177.6880  145.3200 C   0  0  0  0  0  0  0  0  0  0  0  0
  186.6000  178.3560  147.5110 C   0  0  0  0  0  3  0  0  0  0  0  0
  186.1580  178.0360  144.7530 C   0  0  0  0  0  0  0  0  0  0  0  0
  187.6140  177.8520  146.6950 C   0  0  0  0  0  3  0  0  0  0  0  0
  190.3020  176.4390  142.0530 C   0  0  0  0  0  3  0  0  0  0  0  0
  191.1020  176.4010  143.3200 C   0  0  0  0  0  2  0  0  0  0  0  0
  188.9610  176.4420  142.0530 C   0  0  0  0  0  3  0  0  0  0  0  0
  189.5850  178.2730  144.2210 C   0  0  0  0  0  2  0  0  0  0  0  0
  188.0990  176.3520  143.2920 C   0  0  0  0  0  2  0  0  0  0  0  0
  191.0140  177.7290  144.0860 C   0  0  1  0  0  3  0  0  0  0  0  0
  188.5660  177.1710  144.5150 C   0  0  2  0  0  3  0  0  0  0  0  0
  191.6440  177.5800  145.4590 C   0  0  0  0  0  2  0  0  0  0  0  0
  192.2940  175.9900  147.2370 C   0  0  0  0  0  2  0  0  0  0  0  0
  191.4810  176.1590  145.9680 C   0  0  0  0  0  3  0  0  0  0  0  0
  190.7950  176.1910  147.3200 C   0  0  0  0  0  2  0  0  0  0  0  0
  185.9060  177.8740  143.2820 C   0  0  0  0  0  2  0  0  0  0  0  0
  185.9540  179.1660  142.6210 N   0  0  0  0  0  2  0  0  0  0  0  0
  186.0190  178.9020  141.1930 C   0  0  0  0  0  2  0  0  0  0  0  0
  184.6360  178.5690  140.6480 C   0  0  1  0  0  3  0  0  0  0  0  0
  183.6750  179.1210  141.4740 F   0  0  0  0  0  0  0  0  0  0  0  0
  184.4540  179.0740  139.2500 C   0  0  0  0  0  0  0  0  0  0  0  0
  184.3650  180.2730  139.0280 O   0  0  0  0  0  0  0  0  0  0  0  0
  184.3690  178.0980  138.1210 C   0  0  0  0  0  2  0  0  0  0  0  0
  181.9030  178.6100  138.0900 C   0  0  0  0  0  1  0  0  0  0  0  0
  182.9630  177.5240  137.9880 C   0  0  2  0  0  3  0  0  0  0  0  0
  181.4710  176.6500  139.8460 C   0  0  0  0  0  1  0  0  0  0  0  0
  182.7240  176.4190  139.0140 C   0  0  0  0  0  2  0  0  0  0  0  0
  1  2  1  0  0  0  0
  2  5  2  0  0  0  0
  3  1  1  0  0  0  0
  4  7  2  0  0  0  0
  6  4  1  0  0  0  0
  6  1  2  0  0  0  0
  7  5  1  0  0  0  0
  8  9  1  0  0  0  0
  9 13  1  0  0  0  0
 10  8  2  0  0  0  0
 10 12  1  0  0  0  0
 11 14  1  0  0  0  0
 12 14  1  0  0  0  0
 13 11  1  0  0  0  0
 13 15  1  1  0  0  0
 14  4  1  6  0  0  0
 15 17  1  0  0  0  0
 16 18  1  0  0  0  0
 17 16  1  0  0  0  0
 17 18  1  0  0  0  0
 19  6  1  0  0  0  0
 20 19  1  0  0  0  0
 21 20  1  0  0  0  0
 22 21  1  0  0  0  0
 22 23  1  1  0  0  0
 24 22  1  0  0  0  0
 25 24  2  0  0  0  0
 26 24  1  0  0  0  0
 28 27  1  1  0  0  0
 28 26  1  0  0  0  0
 28 30  1  0  0  0  0
 30 29  1  0  0  0  0
M  END
>  <MODEL>
5

>  <REMARK>
 VINA RESULT:      -8.3      2.410      5.019
  Name = 
  11 active torsions:
  status: ('A' for Active; 'I' for Inactive)
    1  A    between atoms: C_1  and  N_4
    2  A    between atoms: C_1  and  C_27
    3  A    between atoms: N_4  and  C_5
    4  A    between atoms: C_5  and  C_22
    5  A    between atoms: C_8  and  C_12
    6  A    between atoms: C_8  and  C_27
    7  A    between atoms: C_9  and  C_12
    8  A    between atoms: C_9  and  C_21
    9  A    between atoms: C_15  and  C_16
   10  A    between atoms: C_16  and  C_25
   11  A    between atoms: C_19  and  C_29
                            x       y       z     vdW  Elec       q    Type
                         _______ _______ _______ _____ _____    ______ ____

>  <TORSDO>
F 11

$$$$
=
 OpenBabel10262421483D

 30 32  0  0  1  0  0  0  0  0999 V2000
  189.6420  177.4170  140.5230 C   0  0  0  0  0  0  0  0  0  0  0  0
  190.9750  177.5390  140.1210 C   0  0  0  0  0  3  0  0  0  0  0  0
  188.5790  177.4700  139.4780 C   0  0  0  0  0  1  0  0  0  0  0  0
  190.3770  177.1770  142.8390 C   0  0  0  0  0  0  0  0  0  0  0  0
  192.0040  177.4830  141.0610 C   0  0  0  0  0  3  0  0  0  0  0  0
  189.3280  177.2440  141.8880 C   0  0  0  0  0  0  0  0  0  0  0  0
  191.7040  177.2980  142.4120 C   0  0  0  0  0  3  0  0  0  0  0  0
  190.7230  176.7600  147.3450 C   0  0  0  0  0  3  0  0  0  0  0  0
  189.2510  176.7570  147.0630 C   0  0  0  0  0  2  0  0  0  0  0  0
  191.6350  176.5200  146.3910 C   0  0  0  0  0  3  0  0  0  0  0  0
  189.7370  178.2390  145.0180 C   0  0  0  0  0  2  0  0  0  0  0  0
  191.3100  176.1690  144.9570 C   0  0  0  0  0  2  0  0  0  0  0  0
  188.8320  177.9750  146.2280 C   0  0  1  0  0  3  0  0  0  0  0  0
  190.1490  176.9490  144.3050 C   0  0  2  0  0  3  0  0  0  0  0  0
  187.3900  177.8240  145.7750 C   0  0  0  0  0  2  0  0  0  0  0  0
  185.4150  179.2970  145.5890 C   0  0  0  0  0  2  0  0  0  0  0  0
  186.4930  178.7900  146.5280 C   0  0  0  0  0  3  0  0  0  0  0  0
  185.0920  178.2140  146.5970 C   0  0  0  0  0  2  0  0  0  0  0  0
  187.8930  177.1170  142.3130 C   0  0  0  0  0  2  0  0  0  0  0  0
  187.2610  178.4240  142.3360 N   0  0  0  0  0  2  0  0  0  0  0  0
  185.8410  178.2050  142.1220 C   0  0  0  0  0  2  0  0  0  0  0  0
  185.3350  179.0600  140.9680 C   0  0  1  0  0  3  0  0  0  0  0  0
  186.0390  178.7430  139.8220 F   0  0  0  0  0  0  0  0  0  0  0  0
  183.8680  178.8630  140.7320 C   0  0  0  0  0  0  0  0  0  0  0  0
  183.3330  179.3140  139.7300 O   0  0  0  0  0  0  0  0  0  0  0  0
  183.0550  178.1180  141.7410 C   0  0  0  0  0  2  0  0  0  0  0  0
  182.1740  178.6270  144.0450 C   0  0  0  0  0  1  0  0  0  0  0  0
  182.2160  179.0670  142.5890 C   0  0  2  0  0  3  0  0  0  0  0  0
  180.3060  177.9400  141.3540 C   0  0  0  0  0  1  0  0  0  0  0  0
  180.8100  179.2150  142.0150 C   0  0  0  0  0  2  0  0  0  0  0  0
  1  6  1  0  0  0  0
  2  1  2  0  0  0  0
  2  5  1  0  0  0  0
  3  1  1  0  0  0  0
  5  7  2  0  0  0  0
  6 19  1  0  0  0  0
  6  4  2  0  0  0  0
  7  4  1  0  0  0  0
  9  8  1  0  0  0  0
 10  8  2  0  0  0  0
 11 13  1  0  0  0  0
 12 10  1  0  0  0  0
 13 15  1  6  0  0  0
 13  9  1  0  0  0  0
 14  4  1  6  0  0  0
 14 12  1  0  0  0  0
 14 11  1  0  0  0  0
 15 17  1  0  0  0  0
 16 17  1  0  0  0  0
 16 18  1  0  0  0  0
 17 18  1  0  0  0  0
 19 20  1  0  0  0  0
 21 20  1  0  0  0  0
 22 23  1  6  0  0  0
 22 21  1  0  0  0  0
 24 22  1  0  0  0  0
 24 26  1  0  0  0  0
 25 24  2  0  0  0  0
 26 28  1  0  0  0  0
 28 27  1  1  0  0  0
 29 30  1  0  0  0  0
 30 28  1  0  0  0  0
M  END
>  <MODEL>
6

>  <REMARK>
 VINA RESULT:      -8.1      1.834      6.368
  Name = 
  11 active torsions:
  status: ('A' for Active; 'I' for Inactive)
    1  A    between atoms: C_1  and  N_4
    2  A    between atoms: C_1  and  C_27
    3  A    between atoms: N_4  and  C_5
    4  A    between atoms: C_5  and  C_22
    5  A    between atoms: C_8  and  C_12
    6  A    between atoms: C_8  and  C_27
    7  A    between atoms: C_9  and  C_12
    8  A    between atoms: C_9  and  C_21
    9  A    between atoms: C_15  and  C_16
   10  A    between atoms: C_16  and  C_25
   11  A    between atoms: C_19  and  C_29
                            x       y       z     vdW  Elec       q    Type
                         _______ _______ _______ _____ _____    ______ ____

>  <TORSDO>
F 11

$$$$
=
 OpenBabel10262421483D

 30 32  0  0  1  0  0  0  0  0999 V2000
  189.6460  177.4180  140.5540 C   0  0  0  0  0  0  0  0  0  0  0  0
  190.9690  177.5330  140.1180 C   0  0  0  0  0  3  0  0  0  0  0  0
  188.5570  177.4800  139.5360 C   0  0  0  0  0  1  0  0  0  0  0  0
  190.4380  177.1670  142.8490 C   0  0  0  0  0  0  0  0  0  0  0  0
  192.0210  177.4680  141.0310 C   0  0  0  0  0  3  0  0  0  0  0  0
  189.3650  177.2430  141.9260 C   0  0  0  0  0  0  0  0  0  0  0  0
  191.7540  177.2820  142.3890 C   0  0  0  0  0  3  0  0  0  0  0  0
  190.9020  176.7140  147.3410 C   0  0  0  0  0  3  0  0  0  0  0  0
  189.4230  176.7530  147.1020 C   0  0  0  0  0  2  0  0  0  0  0  0
  191.7800  176.4560  146.3600 C   0  0  0  0  0  3  0  0  0  0  0  0
  189.8900  178.2330  145.0510 C   0  0  0  0  0  2  0  0  0  0  0  0
  191.4050  176.1220  144.9340 C   0  0  0  0  0  2  0  0  0  0  0  0
  189.0130  177.9860  146.2860 C   0  0  1  0  0  3  0  0  0  0  0  0
  190.2460  176.9370  144.3200 C   0  0  2  0  0  3  0  0  0  0  0  0
  187.5550  177.8760  145.8740 C   0  0  0  0  0  2  0  0  0  0  0  0
  186.0080  179.4890  146.9290 C   0  0  0  0  0  2  0  0  0  0  0  0
  186.6470  178.1200  147.0660 C   0  0  0  0  0  3  0  0  0  0  0  0
  185.2160  178.2470  146.5810 C   0  0  0  0  0  2  0  0  0  0  0  0
  187.9410  177.1230  142.3870 C   0  0  0  0  0  2  0  0  0  0  0  0
  187.3240  178.4370  142.4460 N   0  0  0  0  0  2  0  0  0  0  0  0
  185.9380  178.2640  142.0440 C   0  0  0  0  0  2  0  0  0  0  0  0
  185.0000  178.8400  143.0960 C   0  0  1  0  0  3  0  0  0  0  0  0
  185.2410  180.1950  143.2290 F   0  0  0  0  0  0  0  0  0  0  0  0
  183.5620  178.6140  142.7430 C   0  0  0  0  0  0  0  0  0  0  0  0
  182.6770  178.8490  143.5530 O   0  0  0  0  0  0  0  0  0  0  0  0
  183.2130  178.0830  141.3900 C   0  0  0  0  0  2  0  0  0  0  0  0
  180.8150  178.4710  140.7240 C   0  0  0  0  0  1  0  0  0  0  0  0
  182.2380  179.0060  140.6660 C   0  0  2  0  0  3  0  0  0  0  0  0
  184.1880  179.4000  139.0900 C   0  0  0  0  0  1  0  0  0  0  0  0
  182.6800  179.2460  139.2250 C   0  0  0  0  0  2  0  0  0  0  0  0
  1  6  1  0  0  0  0
  2  1  2  0  0  0  0
  2  5  1  0  0  0  0
  3  1  1  0  0  0  0
  5  7  2  0  0  0  0
  6 19  1  0  0  0  0
  6  4  2  0  0  0  0
  7  4  1  0  0  0  0
  9  8  1  0  0  0  0
 10  8  2  0  0  0  0
 11 13  1  0  0  0  0
 12 10  1  0  0  0  0
 13 15  1  6  0  0  0
 13  9  1  0  0  0  0
 14  4  1  6  0  0  0
 14 12  1  0  0  0  0
 14 11  1  0  0  0  0
 15 17  1  0  0  0  0
 16 17  1  0  0  0  0
 18 16  1  0  0  0  0
 18 17  1  0  0  0  0
 19 20  1  0  0  0  0
 21 20  1  0  0  0  0
 21 22  1  0  0  0  0
 22 23  1  6  0  0  0
 24 22  1  0  0  0  0
 24 25  2  0  0  0  0
 26 24  1  0  0  0  0
 28 27  1  6  0  0  0
 28 26  1  0  0  0  0
 29 30  1  0  0  0  0
 30 28  1  0  0  0  0
M  END
>  <MODEL>
7

>  <REMARK>
 VINA RESULT:      -8.1      2.305      6.220
  Name = 
  11 active torsions:
  status: ('A' for Active; 'I' for Inactive)
    1  A    between atoms: C_1  and  N_4
    2  A    between atoms: C_1  and  C_27
    3  A    between atoms: N_4  and  C_5
    4  A    between atoms: C_5  and  C_22
    5  A    between atoms: C_8  and  C_12
    6  A    between atoms: C_8  and  C_27
    7  A    between atoms: C_9  and  C_12
    8  A    between atoms: C_9  and  C_21
    9  A    between atoms: C_15  and  C_16
   10  A    between atoms: C_16  and  C_25
   11  A    between atoms: C_19  and  C_29
                            x       y       z     vdW  Elec       q    Type
                         _______ _______ _______ _____ _____    ______ ____

>  <TORSDO>
F 11

$$$$
=
 OpenBabel10262421483D

 30 32  0  0  1  0  0  0  0  0999 V2000
  185.1830  178.3780  145.3540 C   0  0  0  0  0  0  0  0  0  0  0  0
  185.3030  178.5020  146.7410 C   0  0  0  0  0  3  0  0  0  0  0  0
  183.8430  178.5990  144.7360 C   0  0  0  0  0  1  0  0  0  0  0  0
  187.5680  177.8780  145.2060 C   0  0  0  0  0  0  0  0  0  0  0  0
  186.5380  178.3170  147.3620 C   0  0  0  0  0  3  0  0  0  0  0  0
  186.3130  178.0550  144.5720 C   0  0  0  0  0  0  0  0  0  0  0  0
  187.6640  178.0110  146.5960 C   0  0  0  0  0  3  0  0  0  0  0  0
  191.6250  176.3890  143.8180 C   0  0  0  0  0  3  0  0  0  0  0  0
  190.9750  176.9570  142.5930 C   0  0  0  0  0  2  0  0  0  0  0  0
  191.1990  176.6820  145.0560 C   0  0  0  0  0  3  0  0  0  0  0  0
  188.7040  176.3110  143.6130 C   0  0  0  0  0  2  0  0  0  0  0  0
  190.0760  177.6430  145.3750 C   0  0  0  0  0  2  0  0  0  0  0  0
  189.5840  176.3530  142.3560 C   0  0  1  0  0  3  0  0  0  0  0  0
  188.8350  177.5790  144.4600 C   0  0  2  0  0  3  0  0  0  0  0  0
  188.8710  177.1080  141.2480 C   0  0  0  0  0  2  0  0  0  0  0  0
  189.4810  176.9410  138.8590 C   0  0  0  0  0  2  0  0  0  0  0  0
  189.8620  177.5600  140.1900 C   0  0  0  0  0  3  0  0  0  0  0  0
  189.1340  178.3870  139.1490 C   0  0  0  0  0  2  0  0  0  0  0  0
  186.1750  177.9200  143.0830 C   0  0  0  0  0  2  0  0  0  0  0  0
  185.7430  179.1810  142.5060 N   0  0  0  0  0  2  0  0  0  0  0  0
  185.6750  178.9790  141.0680 C   0  0  0  0  0  2  0  0  0  0  0  0
  184.2720  178.5520  140.6540 C   0  0  1  0  0  3  0  0  0  0  0  0
  183.3620  179.0070  141.5890 F   0  0  0  0  0  0  0  0  0  0  0  0
  183.9100  179.0750  139.2980 C   0  0  0  0  0  0  0  0  0  0  0  0
  184.2380  180.2020  138.9570 O   0  0  0  0  0  0  0  0  0  0  0  0
  183.1290  178.2100  138.3610 C   0  0  0  0  0  2  0  0  0  0  0  0
  183.2320  176.8170  136.2660 C   0  0  0  0  0  1  0  0  0  0  0  0
  183.9480  177.8450  137.1290 C   0  0  2  0  0  3  0  0  0  0  0  0
  186.4030  177.7250  136.4910 C   0  0  0  0  0  1  0  0  0  0  0  0
  185.3420  177.3630  137.5220 C   0  0  0  0  0  2  0  0  0  0  0  0
  1  2  1  0  0  0  0
  2  5  2  0  0  0  0
  3  1  1  0  0  0  0
  4  7  2  0  0  0  0
  6  4  1  0  0  0  0
  6  1  2  0  0  0  0
  7  5  1  0  0  0  0
  8 10  2  0  0  0  0
  9  8  1  0  0  0  0
 10 12  1  0  0  0  0
 11 14  1  0  0  0  0
 13 15  1  6  0  0  0
 13  9  1  0  0  0  0
 13 11  1  0  0  0  0
 14  4  1  1  0  0  0
 14 12  1  0  0  0  0
 16 18  1  0  0  0  0
 16 17  1  0  0  0  0
 17 15  1  0  0  0  0
 18 17  1  0  0  0  0
 19  6  1  0  0  0  0
 20 19  1  0  0  0  0
 21 20  1  0  0  0  0
 22 21  1  0  0  0  0
 22 23  1  1  0  0  0
 24 22  1  0  0  0  0
 25 24  2  0  0  0  0
 26 24  1  0  0  0  0
 28 27  1  1  0  0  0
 28 30  1  0  0  0  0
 28 26  1  0  0  0  0
 29 30  1  0  0  0  0
M  END
>  <MODEL>
8

>  <REMARK>
 VINA RESULT:      -8.0      2.276      4.583
  Name = 
  11 active torsions:
  status: ('A' for Active; 'I' for Inactive)
    1  A    between atoms: C_1  and  N_4
    2  A    between atoms: C_1  and  C_27
    3  A    between atoms: N_4  and  C_5
    4  A    between atoms: C_5  and  C_22
    5  A    between atoms: C_8  and  C_12
    6  A    between atoms: C_8  and  C_27
    7  A    between atoms: C_9  and  C_12
    8  A    between atoms: C_9  and  C_21
    9  A    between atoms: C_15  and  C_16
   10  A    between atoms: C_16  and  C_25
   11  A    between atoms: C_19  and  C_29
                            x       y       z     vdW  Elec       q    Type
                         _______ _______ _______ _____ _____    ______ ____

>  <TORSDO>
F 11

$$$$
=
 OpenBabel10262421483D

 30 32  0  0  1  0  0  0  0  0999 V2000
  190.0260  176.8280  144.6410 C   0  0  0  0  0  0  0  0  0  0  0  0
  190.3710  177.0810  145.9720 C   0  0  0  0  0  3  0  0  0  0  0  0
  191.0650  176.2560  143.7360 C   0  0  0  0  0  1  0  0  0  0  0  0
  187.7640  177.6290  145.0910 C   0  0  0  0  0  0  0  0  0  0  0  0
  189.4300  177.6030  146.8580 C   0  0  0  0  0  3  0  0  0  0  0  0
  188.7200  177.1080  144.1840 C   0  0  0  0  0  0  0  0  0  0  0  0
  188.1320  177.8710  146.4190 C   0  0  0  0  0  3  0  0  0  0  0  0
  183.4410  178.9990  144.8990 C   0  0  0  0  0  3  0  0  0  0  0  0
  183.7760  178.5630  143.5040 C   0  0  0  0  0  2  0  0  0  0  0  0
  184.1770  178.6340  145.9590 C   0  0  0  0  0  3  0  0  0  0  0  0
  186.2100  179.2500  143.9770 C   0  0  0  0  0  2  0  0  0  0  0  0
  185.3750  177.7140  145.9020 C   0  0  0  0  0  2  0  0  0  0  0  0
  185.0420  179.2580  142.9820 C   0  0  1  0  0  3  0  0  0  0  0  0
  186.3400  177.9150  144.7140 C   0  0  2  0  0  3  0  0  0  0  0  0
  185.4750  178.6310  141.6680 C   0  0  0  0  0  2  0  0  0  0  0  0
  185.1300  178.5650  139.2210 C   0  0  0  0  0  2  0  0  0  0  0  0
  184.7350  179.2690  140.5060 C   0  0  0  0  0  3  0  0  0  0  0  0
  183.8080  178.2420  139.8850 C   0  0  0  0  0  2  0  0  0  0  0  0
  188.3580  176.8360  142.7520 C   0  0  0  0  0  2  0  0  0  0  0  0
  188.7260  177.9680  141.9200 N   0  0  0  0  0  2  0  0  0  0  0  0
  189.6010  177.4540  140.8800 C   0  0  0  0  0  2  0  0  0  0  0  0
  188.9080  177.5070  139.5250 C   0  0  1  0  0  3  0  0  0  0  0  0
  188.9840  178.7930  139.0230 F   0  0  0  0  0  0  0  0  0  0  0  0
  189.5200  176.5460  138.5510 C   0  0  0  0  0  0  0  0  0  0  0  0
  190.4960  175.8800  138.8630 O   0  0  0  0  0  0  0  0  0  0  0  0
  188.9320  176.4140  137.1820 C   0  0  0  0  0  2  0  0  0  0  0  0
  186.9330  174.8830  137.1740 C   0  0  0  0  0  1  0  0  0  0  0  0
  187.4110  176.3260  137.2370 C   0  0  2  0  0  3  0  0  0  0  0  0
  187.2100  178.6260  136.1810 C   0  0  0  0  0  1  0  0  0  0  0  0
  186.7750  177.1680  136.1340 C   0  0  0  0  0  2  0  0  0  0  0  0
  1  2  1  0  0  0  0
  2  5  2  0  0  0  0
  3  1  1  0  0  0  0
  4  7  2  0  0  0  0
  6  1  2  0  0  0  0
  6  4  1  0  0  0  0
  7  5  1  0  0  0  0
  8 10  2  0  0  0  0
  9  8  1  0  0  0  0
 11 14  1  0  0  0  0
 12 10  1  0  0  0  0
 13 15  1  6  0  0  0
 13  9  1  0  0  0  0
 13 11  1  0  0  0  0
 14  4  1  1  0  0  0
 14 12  1  0  0  0  0
 16 18  1  0  0  0  0
 16 17  1  0  0  0  0
 17 15  1  0  0  0  0
 18 17  1  0  0  0  0
 19  6  1  0  0  0  0
 20 19  1  0  0  0  0
 21 20  1  0  0  0  0
 22 23  1  6  0  0  0
 22 21  1  0  0  0  0
 24 25  2  0  0  0  0
 24 22  1  0  0  0  0
 26 28  1  0  0  0  0
 26 24  1  0  0  0  0
 28 27  1  6  0  0  0
 30 29  1  0  0  0  0
 30 28  1  0  0  0  0
M  END
>  <MODEL>
9

>  <REMARK>
 VINA RESULT:      -8.0      1.863      4.956
  Name = 
  11 active torsions:
  status: ('A' for Active; 'I' for Inactive)
    1  A    between atoms: C_1  and  N_4
    2  A    between atoms: C_1  and  C_27
    3  A    between atoms: N_4  and  C_5
    4  A    between atoms: C_5  and  C_22
    5  A    between atoms: C_8  and  C_12
    6  A    between atoms: C_8  and  C_27
    7  A    between atoms: C_9  and  C_12
    8  A    between atoms: C_9  and  C_21
    9  A    between atoms: C_15  and  C_16
   10  A    between atoms: C_16  and  C_25
   11  A    between atoms: C_19  and  C_29
                            x       y       z     vdW  Elec       q    Type
                         _______ _______ _______ _____ _____    ______ ____

>  <TORSDO>
F 11

$$$$
