=
 OpenBabel10262420003D

 27 31  0  0  1  0  0  0  0  0999 V2000
  188.2580  176.7550  143.1490 C   0  0  2  0  0  3  0  0  0  0  0  0
  187.6480  178.5940  144.5690 C   0  0  2  0  0  3  0  0  0  0  0  0
  187.4290  177.7080  142.2670 C   0  0  1  0  0  3  0  0  0  0  0  0
  183.3170  178.8300  144.7340 C   0  0  0  0  0  3  0  0  0  0  0  0
  181.1830  178.5190  143.7200 F   0  0  0  0  0  0  0  0  0  0  0  0
  186.7880  178.3310  145.8160 C   0  0  0  0  0  2  0  0  0  0  0  0
  184.5340  178.3440  142.2650 C   0  0  0  0  0  3  0  0  0  0  0  0
  189.0220  178.8150  138.8970 C   0  0  0  0  0  1  0  0  0  0  0  0
  183.1420  178.3100  142.3770 C   0  0  0  0  0  3  0  0  0  0  0  0
  189.0770  176.6230  139.9700 O   0  0  0  0  0  0  0  0  0  0  0  0
  186.8350  178.7100  143.2550 C   0  0  1  0  0  3  0  0  0  0  0  0
  188.5720  177.4850  144.3700 N   0  0  0  0  0  0  0  0  0  0  0  0
  182.5340  178.5480  143.6120 C   0  0  0  0  0  0  0  0  0  0  0  0
  184.7110  178.8550  144.6270 C   0  0  0  0  0  0  0  0  0  0  0  0
  189.4490  176.0140  142.5140 C   0  0  0  0  0  2  0  0  0  0  0  0
  185.3320  178.5960  143.3910 C   0  0  0  0  0  0  0  0  0  0  0  0
  188.4100  177.8690  139.9200 C   0  0  1  0  0  3  0  0  0  0  0  0
  185.5370  179.1940  145.8210 C   0  0  0  0  0  2  0  0  0  0  0  0
  190.3920  176.7850  140.4680 C   0  0  0  0  0  2  0  0  0  0  0  0
  190.4120  176.9350  141.9270 N   0  0  0  0  0  2  0  0  0  0  0  0
  188.2510  178.5460  141.2830 C   0  0  0  0  0  2  0  0  0  0  0  0
  191.3510  176.2550  147.3440 C   0  0  0  0  0  3  0  0  0  0  0  0
  189.5080  177.0570  145.3820 C   0  0  0  0  0  0  0  0  0  0  0  0
  190.8590  176.8660  145.0540 C   0  0  0  0  0  3  0  0  0  0  0  0
  191.7760  176.4650  146.0290 C   0  0  0  0  0  3  0  0  0  0  0  0
  190.0090  176.4470  147.6820 C   0  0  0  0  0  3  0  0  0  0  0  0
  189.0920  176.8490  146.7060 C   0  0  0  0  0  3  0  0  0  0  0  0
  1 15  1  6  0  0  0
  1 12  1  0  0  0  0
  2  6  1  1  0  0  0
  3 21  1  6  0  0  0
  3  1  1  0  0  0  0
  3 11  1  0  0  0  0
  6 18  1  0  0  0  0
  7  9  2  0  0  0  0
  7 16  1  0  0  0  0
  9 13  1  0  0  0  0
 10 19  1  0  0  0  0
 11 16  1  1  0  0  0
 11  2  1  0  0  0  0
 12  2  1  0  0  0  0
 12 23  1  0  0  0  0
 13  5  1  0  0  0  0
 13  4  2  0  0  0  0
 14  4  1  0  0  0  0
 14 18  1  0  0  0  0
 16 14  2  0  0  0  0
 17  8  1  6  0  0  0
 17 10  1  0  0  0  0
 17 21  1  0  0  0  0
 19 20  1  0  0  0  0
 20 15  1  0  0  0  0
 22 26  1  0  0  0  0
 23 27  1  0  0  0  0
 24 23  2  0  0  0  0
 24 25  1  0  0  0  0
 25 22  2  0  0  0  0
 27 26  2  0  0  0  0
M  END
>  <MODEL>
1

>  <REMARK>
 VINA RESULT:     -10.0      0.000      0.000
  Name = 
  1 active torsions:
  status: ('A' for Active; 'I' for Inactive)
    1  A    between atoms: C_9  and  N_15
                            x       y       z     vdW  Elec       q    Type
                         _______ _______ _______ _____ _____    ______ ____

>  <TORSDO>
F 1

$$$$
=
 OpenBabel10262420003D

 27 31  0  0  1  0  0  0  0  0999 V2000
  187.2170  177.1370  143.2050 C   0  0  2  0  0  3  0  0  0  0  0  0
  186.0410  179.0420  144.0760 C   0  0  2  0  0  3  0  0  0  0  0  0
  186.6410  177.8710  141.9780 C   0  0  1  0  0  3  0  0  0  0  0  0
  181.8800  178.7630  142.8720 C   0  0  0  0  0  3  0  0  0  0  0  0
  180.2140  178.0750  141.3130 F   0  0  0  0  0  0  0  0  0  0  0  0
  184.8520  178.8240  145.0250 C   0  0  0  0  0  2  0  0  0  0  0  0
  183.8570  178.1410  140.9950 C   0  0  0  0  0  3  0  0  0  0  0  0
  189.1340  178.7590  139.1300 C   0  0  0  0  0  1  0  0  0  0  0  0
  182.5090  177.9510  140.6810 C   0  0  0  0  0  3  0  0  0  0  0  0
  189.0170  176.7320  140.4850 O   0  0  0  0  0  0  0  0  0  0  0  0
  185.6850  178.9010  142.5750 C   0  0  1  0  0  3  0  0  0  0  0  0
  187.0650  178.0390  144.3390 N   0  0  0  0  0  0  0  0  0  0  0  0
  181.5220  178.2560  141.6200 C   0  0  0  0  0  0  0  0  0  0  0  0
  183.2290  178.9450  143.1940 C   0  0  0  0  0  0  0  0  0  0  0  0
  188.6030  176.4780  143.0830 C   0  0  0  0  0  2  0  0  0  0  0  0
  184.2310  178.6210  142.2600 C   0  0  0  0  0  0  0  0  0  0  0  0
  188.3040  177.8730  140.0470 C   0  0  1  0  0  3  0  0  0  0  0  0
  183.6000  179.5210  144.5180 C   0  0  0  0  0  2  0  0  0  0  0  0
  190.0860  177.1120  141.3320 C   0  0  0  0  0  2  0  0  0  0  0  0
  189.6270  177.4340  142.6870 N   0  0  0  0  0  2  0  0  0  0  0  0
  187.6650  178.6800  141.1790 C   0  0  0  0  0  2  0  0  0  0  0  0
  188.8390  177.5160  148.1670 C   0  0  0  0  0  3  0  0  0  0  0  0
  187.6590  177.8520  145.6400 C   0  0  0  0  0  0  0  0  0  0  0  0
  189.0440  177.6600  145.7600 C   0  0  0  0  0  3  0  0  0  0  0  0
  189.6310  177.4910  147.0160 C   0  0  0  0  0  3  0  0  0  0  0  0
  187.4600  177.7110  148.0600 C   0  0  0  0  0  3  0  0  0  0  0  0
  186.8730  177.8800  146.8020 C   0  0  0  0  0  3  0  0  0  0  0  0
  1 15  1  6  0  0  0
  1 12  1  0  0  0  0
  2 12  1  0  0  0  0
  2  6  1  1  0  0  0
  3 21  1  1  0  0  0
  3 11  1  0  0  0  0
  3  1  1  0  0  0  0
  4 14  1  0  0  0  0
  5 13  1  0  0  0  0
  7 16  1  0  0  0  0
  9  7  2  0  0  0  0
  9 13  1  0  0  0  0
 10 19  1  0  0  0  0
 11 16  1  1  0  0  0
 11  2  1  0  0  0  0
 12 23  1  0  0  0  0
 13  4  2  0  0  0  0
 14 18  1  0  0  0  0
 16 14  2  0  0  0  0
 17  8  1  1  0  0  0
 17 10  1  0  0  0  0
 17 21  1  0  0  0  0
 18  6  1  0  0  0  0
 19 20  1  0  0  0  0
 20 15  1  0  0  0  0
 23 24  2  0  0  0  0
 23 27  1  0  0  0  0
 24 25  1  0  0  0  0
 25 22  2  0  0  0  0
 26 22  1  0  0  0  0
 27 26  2  0  0  0  0
M  END
>  <MODEL>
2

>  <REMARK>
 VINA RESULT:      -9.9      1.259      1.843
  Name = 
  1 active torsions:
  status: ('A' for Active; 'I' for Inactive)
    1  A    between atoms: C_9  and  N_15
                            x       y       z     vdW  Elec       q    Type
                         _______ _______ _______ _____ _____    ______ ____

>  <TORSDO>
F 1

$$$$
=
 OpenBabel10262420003D

 27 31  0  0  1  0  0  0  0  0999 V2000
  187.9900  176.8970  142.9020 C   0  0  2  0  0  3  0  0  0  0  0  0
  187.1700  178.7700  144.1640 C   0  0  2  0  0  3  0  0  0  0  0  0
  187.2260  177.7790  141.8950 C   0  0  1  0  0  3  0  0  0  0  0  0
  182.8400  178.8400  143.8670 C   0  0  0  0  0  3  0  0  0  0  0  0
  180.8370  178.4010  142.6530 F   0  0  0  0  0  0  0  0  0  0  0  0
  186.1930  178.5260  145.3260 C   0  0  0  0  0  2  0  0  0  0  0  0
  184.3260  178.2970  141.5630 C   0  0  0  0  0  3  0  0  0  0  0  0
  189.1260  178.8030  138.6610 C   0  0  0  0  0  1  0  0  0  0  0  0
  182.9320  178.2130  141.5320 C   0  0  0  0  0  3  0  0  0  0  0  0
  189.1440  176.6630  139.8350 O   0  0  0  0  0  0  0  0  0  0  0  0
  186.4960  178.7970  142.7690 C   0  0  1  0  0  3  0  0  0  0  0  0
  188.1480  177.6910  144.1140 N   0  0  0  0  0  0  0  0  0  0  0  0
  182.1900  178.4790  142.6840 C   0  0  0  0  0  0  0  0  0  0  0  0
  184.2350  178.9160  143.9050 C   0  0  0  0  0  0  0  0  0  0  0  0
  189.2670  176.1780  142.4300 C   0  0  0  0  0  2  0  0  0  0  0  0
  184.9920  178.6290  142.7530 C   0  0  0  0  0  0  0  0  0  0  0  0
  188.4430  177.8780  139.6570 C   0  0  1  0  0  3  0  0  0  0  0  0
  184.9180  179.3380  145.1610 C   0  0  0  0  0  2  0  0  0  0  0  0
  190.3930  176.8980  140.4590 C   0  0  0  0  0  2  0  0  0  0  0  0
  190.2540  177.1110  141.9030 N   0  0  0  0  0  2  0  0  0  0  0  0
  188.1170  178.6050  140.9640 C   0  0  0  0  0  2  0  0  0  0  0  0
  190.5970  176.6390  147.4260 C   0  0  0  0  0  3  0  0  0  0  0  0
  188.9860  177.3450  145.2360 C   0  0  0  0  0  0  0  0  0  0  0  0
  188.4050  177.0110  146.4700 C   0  0  0  0  0  3  0  0  0  0  0  0
  189.2060  176.6620  147.5600 C   0  0  0  0  0  3  0  0  0  0  0  0
  191.1860  176.9640  146.2010 C   0  0  0  0  0  3  0  0  0  0  0  0
  190.3830  177.3130  145.1110 C   0  0  0  0  0  3  0  0  0  0  0  0
  1 15  1  6  0  0  0
  1 12  1  0  0  0  0
  2  6  1  1  0  0  0
  3 21  1  6  0  0  0
  3 11  1  0  0  0  0
  3  1  1  0  0  0  0
  4 14  1  0  0  0  0
  5 13  1  0  0  0  0
  7 16  1  0  0  0  0
  9  7  2  0  0  0  0
  9 13  1  0  0  0  0
 10 19  1  0  0  0  0
 11 16  1  1  0  0  0
 11  2  1  0  0  0  0
 12  2  1  0  0  0  0
 12 23  1  0  0  0  0
 13  4  2  0  0  0  0
 14 18  1  0  0  0  0
 16 14  2  0  0  0  0
 17  8  1  6  0  0  0
 17 10  1  0  0  0  0
 17 21  1  0  0  0  0
 18  6  1  0  0  0  0
 19 20  1  0  0  0  0
 20 15  1  0  0  0  0
 22 25  1  0  0  0  0
 23 24  1  0  0  0  0
 24 25  2  0  0  0  0
 26 22  2  0  0  0  0
 27 23  2  0  0  0  0
 27 26  1  0  0  0  0
M  END
>  <MODEL>
3

>  <REMARK>
 VINA RESULT:      -9.7      0.648      1.147
  Name = 
  1 active torsions:
  status: ('A' for Active; 'I' for Inactive)
    1  A    between atoms: C_9  and  N_15
                            x       y       z     vdW  Elec       q    Type
                         _______ _______ _______ _____ _____    ______ ____

>  <TORSDO>
F 1

$$$$
=
 OpenBabel10262420003D

 27 31  0  0  1  0  0  0  0  0999 V2000
  187.5540  177.1550  142.9350 C   0  0  2  0  0  3  0  0  0  0  0  0
  187.0050  178.7820  141.2540 C   0  0  2  0  0  3  0  0  0  0  0  0
  188.8690  177.4410  142.1830 C   0  0  1  0  0  3  0  0  0  0  0  0
  187.9360  177.1070  137.3590 C   0  0  0  0  0  3  0  0  0  0  0  0
  189.2550  175.6850  135.9750 F   0  0  0  0  0  0  0  0  0  0  0  0
  185.9770  178.4260  140.1690 C   0  0  0  0  0  2  0  0  0  0  0  0
  189.7520  176.7160  139.4480 C   0  0  0  0  0  3  0  0  0  0  0  0
  191.9490  178.4240  144.3440 C   0  0  0  0  0  1  0  0  0  0  0  0
  189.9600  176.0940  138.2150 C   0  0  0  0  0  3  0  0  0  0  0  0
  190.2300  176.7530  144.7990 O   0  0  0  0  0  0  0  0  0  0  0  0
  188.4340  178.2550  140.9670 C   0  0  1  0  0  3  0  0  0  0  0  0
  186.6060  178.1810  142.5210 N   0  0  0  0  0  0  0  0  0  0  0  0
  189.0500  176.2850  137.1730 C   0  0  0  0  0  0  0  0  0  0  0  0
  187.7190  177.7230  138.5960 C   0  0  0  0  0  0  0  0  0  0  0  0
  187.6140  176.9050  144.4520 C   0  0  0  0  0  2  0  0  0  0  0  0
  188.6200  177.5190  139.6570 C   0  0  0  0  0  0  0  0  0  0  0  0
  190.8420  177.5360  143.7940 C   0  0  1  0  0  3  0  0  0  0  0  0
  186.5480  178.6280  138.7740 C   0  0  0  0  0  2  0  0  0  0  0  0
  189.5230  177.5780  145.7070 C   0  0  0  0  0  2  0  0  0  0  0  0
  188.2330  178.0150  145.1630 N   0  0  0  0  0  2  0  0  0  0  0  0
  189.8560  178.3350  142.9390 C   0  0  0  0  0  2  0  0  0  0  0  0
  182.8360  178.9420  144.3330 C   0  0  0  0  0  3  0  0  0  0  0  0
  185.3220  178.4280  143.1310 C   0  0  0  0  0  0  0  0  0  0  0  0
  185.2430  178.7490  144.4950 C   0  0  0  0  0  3  0  0  0  0  0  0
  184.0060  179.0030  145.0930 C   0  0  0  0  0  3  0  0  0  0  0  0
  182.9040  178.6280  142.9730 C   0  0  0  0  0  3  0  0  0  0  0  0
  184.1420  178.3740  142.3740 C   0  0  0  0  0  3  0  0  0  0  0  0
  1 15  1  1  0  0  0
  2  6  1  6  0  0  0
  2 12  1  0  0  0  0
  3  1  1  0  0  0  0
  3 21  1  1  0  0  0
  4 14  1  0  0  0  0
  5 13  1  0  0  0  0
  7 16  1  0  0  0  0
  9  7  2  0  0  0  0
 10 19  1  0  0  0  0
 11 16  1  6  0  0  0
 11  2  1  0  0  0  0
 11  3  1  0  0  0  0
 12  1  1  0  0  0  0
 12 23  1  0  0  0  0
 13  4  2  0  0  0  0
 13  9  1  0  0  0  0
 14 18  1  0  0  0  0
 14 16  2  0  0  0  0
 15 20  1  0  0  0  0
 17  8  1  1  0  0  0
 17 10  1  0  0  0  0
 18  6  1  0  0  0  0
 20 19  1  0  0  0  0
 21 17  1  0  0  0  0
 22 25  1  0  0  0  0
 23 24  1  0  0  0  0
 24 25  2  0  0  0  0
 26 22  2  0  0  0  0
 27 26  1  0  0  0  0
 27 23  2  0  0  0  0
M  END
>  <MODEL>
4

>  <REMARK>
 VINA RESULT:      -9.2      2.880      6.312
  Name = 
  1 active torsions:
  status: ('A' for Active; 'I' for Inactive)
    1  A    between atoms: C_9  and  N_15
                            x       y       z     vdW  Elec       q    Type
                         _______ _______ _______ _____ _____    ______ ____

>  <TORSDO>
F 1

$$$$
=
 OpenBabel10262420003D

 27 31  0  0  1  0  0  0  0  0999 V2000
  187.7360  178.6320  142.4290 C   0  0  2  0  0  3  0  0  0  0  0  0
  187.0300  176.9410  143.9820 C   0  0  2  0  0  3  0  0  0  0  0  0
  188.9230  177.6580  142.5550 C   0  0  1  0  0  3  0  0  0  0  0  0
  189.7620  176.9400  147.3550 C   0  0  0  0  0  3  0  0  0  0  0  0
  191.9400  177.2810  148.2600 F   0  0  0  0  0  0  0  0  0  0  0  0
  186.6690  177.3420  145.4210 C   0  0  0  0  0  2  0  0  0  0  0  0
  190.8220  177.1730  144.7790 C   0  0  0  0  0  3  0  0  0  0  0  0
  190.3730  176.2160  139.2480 C   0  0  0  0  0  1  0  0  0  0  0  0
  191.6580  177.2870  145.8930 C   0  0  0  0  0  3  0  0  0  0  0  0
  189.5840  178.4780  139.7170 O   0  0  0  0  0  0  0  0  0  0  0  0
  188.5500  176.7670  143.7380 C   0  0  1  0  0  3  0  0  0  0  0  0
  186.5950  177.9830  143.0600 N   0  0  0  0  0  0  0  0  0  0  0  0
  191.1280  177.1750  147.1800 C   0  0  0  0  0  0  0  0  0  0  0  0
  188.9200  176.8360  146.2430 C   0  0  0  0  0  0  0  0  0  0  0  0
  187.4430  179.2610  141.0550 C   0  0  0  0  0  2  0  0  0  0  0  0
  189.4440  176.9670  144.9430 C   0  0  0  0  0  0  0  0  0  0  0  0
  190.0320  177.2670  140.2940 C   0  0  1  0  0  3  0  0  0  0  0  0
  187.4710  176.5480  146.4380 C   0  0  0  0  0  2  0  0  0  0  0  0
  188.3370  178.2880  139.0730 C   0  0  0  0  0  2  0  0  0  0  0  0
  187.2260  178.2490  140.0290 N   0  0  0  0  0  2  0  0  0  0  0  0
  189.0980  176.7070  141.3690 C   0  0  0  0  0  2  0  0  0  0  0  0
  182.5550  179.2890  142.8390 C   0  0  0  0  0  3  0  0  0  0  0  0
  185.2280  178.4380  142.9860 C   0  0  0  0  0  0  0  0  0  0  0  0
  184.4100  178.0360  141.9190 C   0  0  0  0  0  3  0  0  0  0  0  0
  183.0810  178.4600  141.8440 C   0  0  0  0  0  3  0  0  0  0  0  0
  183.3580  179.6910  143.9080 C   0  0  0  0  0  3  0  0  0  0  0  0
  184.6880  179.2660  143.9830 C   0  0  0  0  0  3  0  0  0  0  0  0
  1 15  1  6  0  0  0
  1  3  1  0  0  0  0
  1 12  1  0  0  0  0
  2  6  1  1  0  0  0
  3 21  1  6  0  0  0
  3 11  1  0  0  0  0
  6 18  1  0  0  0  0
  7 16  2  0  0  0  0
  7  9  1  0  0  0  0
  9 13  2  0  0  0  0
 10 17  1  0  0  0  0
 11  2  1  0  0  0  0
 11 16  1  1  0  0  0
 12  2  1  0  0  0  0
 13  4  1  0  0  0  0
 13  5  1  0  0  0  0
 14 18  1  0  0  0  0
 14  4  2  0  0  0  0
 16 14  1  0  0  0  0
 17  8  1  6  0  0  0
 17 21  1  0  0  0  0
 19 10  1  0  0  0  0
 19 20  1  0  0  0  0
 20 15  1  0  0  0  0
 22 26  1  0  0  0  0
 23 12  1  0  0  0  0
 23 27  1  0  0  0  0
 24 23  2  0  0  0  0
 25 24  1  0  0  0  0
 25 22  2  0  0  0  0
 26 27  2  0  0  0  0
M  END
>  <MODEL>
5

>  <REMARK>
 VINA RESULT:      -9.0      2.626      5.893
  Name = 
  1 active torsions:
  status: ('A' for Active; 'I' for Inactive)
    1  A    between atoms: C_9  and  N_15
                            x       y       z     vdW  Elec       q    Type
                         _______ _______ _______ _____ _____    ______ ____

>  <TORSDO>
F 1

$$$$
=
 OpenBabel10262420003D

 27 31  0  0  1  0  0  0  0  0999 V2000
  187.5510  177.0160  142.6160 C   0  0  2  0  0  3  0  0  0  0  0  0
  186.6010  178.9070  141.4790 C   0  0  2  0  0  3  0  0  0  0  0  0
  188.5400  177.3660  141.4870 C   0  0  1  0  0  3  0  0  0  0  0  0
  185.9510  177.8320  137.3240 C   0  0  0  0  0  3  0  0  0  0  0  0
  186.5650  176.5960  135.3810 F   0  0  0  0  0  0  0  0  0  0  0  0
  185.2300  178.7670  140.7990 C   0  0  0  0  0  2  0  0  0  0  0  0
  188.3390  177.0470  138.5470 C   0  0  0  0  0  3  0  0  0  0  0  0
  192.2580  177.8780  142.5040 C   0  0  0  0  0  1  0  0  0  0  0  0
  188.0440  176.6190  137.2500 C   0  0  0  0  0  3  0  0  0  0  0  0
  190.6610  176.2230  143.3210 O   0  0  0  0  0  0  0  0  0  0  0  0
  187.7840  178.3780  140.6290 C   0  0  1  0  0  3  0  0  0  0  0  0
  186.6170  178.1300  142.7110 N   0  0  0  0  0  0  0  0  0  0  0  0
  186.8490  177.0070  136.6410 C   0  0  0  0  0  0  0  0  0  0  0  0
  186.2380  178.2530  138.6260 C   0  0  0  0  0  0  0  0  0  0  0  0
  188.1150  176.5280  143.9630 C   0  0  0  0  0  2  0  0  0  0  0  0
  187.4310  177.8500  139.2540 C   0  0  0  0  0  0  0  0  0  0  0  0
  190.9520  177.1310  142.2770 C   0  0  1  0  0  3  0  0  0  0  0  0
  185.2920  179.1630  139.3330 C   0  0  0  0  0  2  0  0  0  0  0  0
  190.3960  176.9210  144.5240 C   0  0  0  0  0  2  0  0  0  0  0  0
  189.0430  177.4880  144.5440 N   0  0  0  0  0  2  0  0  0  0  0  0
  189.8070  178.0910  141.9490 C   0  0  0  0  0  2  0  0  0  0  0  0
  183.8070  178.7400  145.8430 C   0  0  0  0  0  3  0  0  0  0  0  0
  185.6570  178.3270  143.7700 C   0  0  0  0  0  0  0  0  0  0  0  0
  186.0890  178.4240  145.1020 C   0  0  0  0  0  3  0  0  0  0  0  0
  185.1690  178.6280  146.1330 C   0  0  0  0  0  3  0  0  0  0  0  0
  183.3660  178.6500  144.5200 C   0  0  0  0  0  3  0  0  0  0  0  0
  184.2870  178.4470  143.4880 C   0  0  0  0  0  3  0  0  0  0  0  0
  1 12  1  0  0  0  0
  1 15  1  1  0  0  0
  2  6  1  6  0  0  0
  2 12  1  0  0  0  0
  3 21  1  1  0  0  0
  3  1  1  0  0  0  0
  4 14  1  0  0  0  0
  5 13  1  0  0  0  0
  7 16  1  0  0  0  0
  9  7  2  0  0  0  0
 10 19  1  0  0  0  0
 11 16  1  6  0  0  0
 11  2  1  0  0  0  0
 11  3  1  0  0  0  0
 12 23  1  0  0  0  0
 13  9  1  0  0  0  0
 13  4  2  0  0  0  0
 14 16  2  0  0  0  0
 14 18  1  0  0  0  0
 15 20  1  0  0  0  0
 17  8  1  1  0  0  0
 17 10  1  0  0  0  0
 18  6  1  0  0  0  0
 19 20  1  0  0  0  0
 21 17  1  0  0  0  0
 22 25  1  0  0  0  0
 23 24  1  0  0  0  0
 24 25  2  0  0  0  0
 26 22  2  0  0  0  0
 27 23  2  0  0  0  0
 27 26  1  0  0  0  0
M  END
>  <MODEL>
6

>  <REMARK>
 VINA RESULT:      -8.5      2.773      5.489
  Name = 
  1 active torsions:
  status: ('A' for Active; 'I' for Inactive)
    1  A    between atoms: C_9  and  N_15
                            x       y       z     vdW  Elec       q    Type
                         _______ _______ _______ _____ _____    ______ ____

>  <TORSDO>
F 1

$$$$
=
 OpenBabel10262420003D

 27 31  0  0  1  0  0  0  0  0999 V2000
  184.1970  177.4500  138.6380 C   0  0  2  0  0  3  0  0  0  0  0  0
  186.2210  178.6300  139.1730 C   0  0  2  0  0  3  0  0  0  0  0  0
  183.8120  178.4690  139.7290 C   0  0  1  0  0  3  0  0  0  0  0  0
  187.0810  178.0480  143.3880 C   0  0  0  0  0  3  0  0  0  0  0  0
  186.3430  177.6970  145.6260 F   0  0  0  0  0  0  0  0  0  0  0  0
  187.4200  177.8520  139.7380 C   0  0  0  0  0  2  0  0  0  0  0  0
  184.4420  178.5610  142.6240 C   0  0  0  0  0  3  0  0  0  0  0  0
  180.8080  180.8150  138.9590 C   0  0  0  0  0  1  0  0  0  0  0  0
  184.7380  178.2530  143.9540 C   0  0  0  0  0  3  0  0  0  0  0  0
  181.0720  178.4440  138.4410 O   0  0  0  0  0  0  0  0  0  0  0  0
  185.1530  179.0000  140.2330 C   0  0  1  0  0  3  0  0  0  0  0  0
  185.5320  177.8130  138.1810 N   0  0  0  0  0  0  0  0  0  0  0  0
  186.0560  177.9910  144.3350 C   0  0  0  0  0  0  0  0  0  0  0  0
  186.7880  178.3460  142.0530 C   0  0  0  0  0  0  0  0  0  0  0  0
  183.1870  177.1580  137.5140 C   0  0  0  0  0  2  0  0  0  0  0  0
  185.4600  178.5900  141.6580 C   0  0  0  0  0  0  0  0  0  0  0  0
  181.5360  179.5100  139.2460 C   0  0  1  0  0  3  0  0  0  0  0  0
  187.8930  178.4400  141.0580 C   0  0  0  0  0  2  0  0  0  0  0  0
  181.3990  178.6710  137.0820 C   0  0  0  0  0  2  0  0  0  0  0  0
  182.8050  178.3680  136.7980 N   0  0  0  0  0  2  0  0  0  0  0  0
  183.0550  179.6970  139.2170 C   0  0  0  0  0  2  0  0  0  0  0  0
  187.5240  176.2200  134.7790 C   0  0  0  0  0  3  0  0  0  0  0  0
  186.1980  177.2660  137.0240 C   0  0  0  0  0  0  0  0  0  0  0  0
  186.7650  178.1230  136.0690 C   0  0  0  0  0  3  0  0  0  0  0  0
  187.4230  177.6030  134.9510 C   0  0  0  0  0  3  0  0  0  0  0  0
  186.9670  175.3580  135.7270 C   0  0  0  0  0  3  0  0  0  0  0  0
  186.3090  175.8780  136.8450 C   0  0  0  0  0  3  0  0  0  0  0  0
  1 15  1  6  0  0  0
  1  3  1  0  0  0  0
  2  6  1  1  0  0  0
  2 11  1  0  0  0  0
  3 21  1  6  0  0  0
  3 11  1  0  0  0  0
  4 13  1  0  0  0  0
  6 18  1  0  0  0  0
  7  9  1  0  0  0  0
  9 13  2  0  0  0  0
 10 17  1  0  0  0  0
 11 16  1  1  0  0  0
 12  1  1  0  0  0  0
 12  2  1  0  0  0  0
 13  5  1  0  0  0  0
 14  4  2  0  0  0  0
 16 14  1  0  0  0  0
 16  7  2  0  0  0  0
 17  8  1  6  0  0  0
 18 14  1  0  0  0  0
 19 10  1  0  0  0  0
 20 19  1  0  0  0  0
 20 15  1  0  0  0  0
 21 17  1  0  0  0  0
 22 25  2  0  0  0  0
 22 26  1  0  0  0  0
 23 12  1  0  0  0  0
 24 23  2  0  0  0  0
 25 24  1  0  0  0  0
 26 27  2  0  0  0  0
 27 23  1  0  0  0  0
M  END
>  <MODEL>
7

>  <REMARK>
 VINA RESULT:      -7.7      4.242      7.507
  Name = 
  1 active torsions:
  status: ('A' for Active; 'I' for Inactive)
    1  A    between atoms: C_9  and  N_15
                            x       y       z     vdW  Elec       q    Type
                         _______ _______ _______ _____ _____    ______ ____

>  <TORSDO>
F 1

$$$$
=
 OpenBabel10262420003D

 27 31  0  0  1  0  0  0  0  0999 V2000
  189.9790  175.8160  138.3370 C   0  0  2  0  0  3  0  0  0  0  0  0
  191.3960  177.3680  139.5010 C   0  0  2  0  0  3  0  0  0  0  0  0
  189.0290  176.8120  139.0300 C   0  0  1  0  0  3  0  0  0  0  0  0
  190.4410  177.1990  143.7330 C   0  0  0  0  0  3  0  0  0  0  0  0
  188.8710  176.8550  145.4920 F   0  0  0  0  0  0  0  0  0  0  0  0
  192.3320  176.8520  140.6060 C   0  0  0  0  0  2  0  0  0  0  0  0
  188.3390  177.1860  141.8890 C   0  0  0  0  0  3  0  0  0  0  0  0
  186.3530  178.5340  136.7950 C   0  0  0  0  0  1  0  0  0  0  0  0
  188.0760  177.0150  143.2500 C   0  0  0  0  0  3  0  0  0  0  0  0
  187.1350  176.2220  136.7420 O   0  0  0  0  0  0  0  0  0  0  0  0
  189.9370  177.6030  139.9690 C   0  0  1  0  0  3  0  0  0  0  0  0
  191.3170  176.3850  138.4290 N   0  0  0  0  0  0  0  0  0  0  0  0
  189.1270  177.0160  144.1710 C   0  0  0  0  0  0  0  0  0  0  0  0
  190.7090  177.3600  142.3700 C   0  0  0  0  0  0  0  0  0  0  0  0
  189.5970  175.2830  136.9450 C   0  0  0  0  0  2  0  0  0  0  0  0
  189.6580  177.3400  141.4340 C   0  0  0  0  0  0  0  0  0  0  0  0
  187.0590  177.3990  137.5220 C   0  0  1  0  0  3  0  0  0  0  0  0
  192.1090  177.5920  141.9150 C   0  0  0  0  0  2  0  0  0  0  0  0
  187.9780  176.4240  135.6230 C   0  0  0  0  0  2  0  0  0  0  0  0
  189.3970  176.3600  135.9850 N   0  0  0  0  0  2  0  0  0  0  0  0
  188.4030  177.8530  138.0980 C   0  0  0  0  0  2  0  0  0  0  0  0
  194.7290  174.9200  136.3570 C   0  0  0  0  0  3  0  0  0  0  0  0
  192.4820  175.8970  137.7300 C   0  0  0  0  0  0  0  0  0  0  0  0
  192.9010  174.5690  137.9040 C   0  0  0  0  0  3  0  0  0  0  0  0
  194.0190  174.0830  137.2230 C   0  0  0  0  0  3  0  0  0  0  0  0
  194.3180  176.2420  136.1730 C   0  0  0  0  0  3  0  0  0  0  0  0
  193.1980  176.7280  136.8550 C   0  0  0  0  0  3  0  0  0  0  0  0
  1 15  1  6  0  0  0
  1 12  1  0  0  0  0
  1  3  1  0  0  0  0
  2 11  1  0  0  0  0
  2  6  1  1  0  0  0
  3 21  1  6  0  0  0
  3 11  1  0  0  0  0
  4 13  1  0  0  0  0
  6 18  1  0  0  0  0
  7  9  1  0  0  0  0
  9 13  2  0  0  0  0
 10 17  1  0  0  0  0
 11 16  1  1  0  0  0
 12  2  1  0  0  0  0
 13  5  1  0  0  0  0
 14  4  2  0  0  0  0
 16  7  2  0  0  0  0
 16 14  1  0  0  0  0
 17  8  1  6  0  0  0
 17 21  1  0  0  0  0
 18 14  1  0  0  0  0
 19 20  1  0  0  0  0
 19 10  1  0  0  0  0
 20 15  1  0  0  0  0
 22 25  1  0  0  0  0
 23 24  1  0  0  0  0
 23 12  1  0  0  0  0
 25 24  2  0  0  0  0
 26 22  2  0  0  0  0
 26 27  1  0  0  0  0
 27 23  2  0  0  0  0
M  END
>  <MODEL>
8

>  <REMARK>
 VINA RESULT:      -7.7      3.703      6.947
  Name = 
  1 active torsions:
  status: ('A' for Active; 'I' for Inactive)
    1  A    between atoms: C_9  and  N_15
                            x       y       z     vdW  Elec       q    Type
                         _______ _______ _______ _____ _____    ______ ____

>  <TORSDO>
F 1

$$$$
=
 OpenBabel10262420003D

 27 31  0  0  1  0  0  0  0  0999 V2000
  186.8450  178.8520  144.0970 C   0  0  2  0  0  3  0  0  0  0  0  0
  188.0080  176.7600  143.8880 C   0  0  2  0  0  3  0  0  0  0  0  0
  186.4470  178.2870  142.7200 C   0  0  1  0  0  3  0  0  0  0  0  0
  190.5810  176.9570  140.3980 C   0  0  0  0  0  3  0  0  0  0  0  0
  191.0480  177.7750  138.2090 F   0  0  0  0  0  0  0  0  0  0  0  0
  189.5450  176.7460  143.9120 C   0  0  0  0  0  2  0  0  0  0  0  0
  187.9930  177.9970  140.2080 C   0  0  0  0  0  3  0  0  0  0  0  0
  182.6420  178.0280  141.9610 C   0  0  0  0  0  1  0  0  0  0  0  0
  188.8870  178.1480  139.1450 C   0  0  0  0  0  3  0  0  0  0  0  0
  183.8550  179.8010  143.1210 O   0  0  0  0  0  0  0  0  0  0  0  0
  187.4020  177.1150  142.5070 C   0  0  1  0  0  3  0  0  0  0  0  0
  187.5140  177.7720  144.8120 N   0  0  0  0  0  0  0  0  0  0  0  0
  190.1820  177.6330  139.2420 C   0  0  0  0  0  0  0  0  0  0  0  0
  189.6920  176.8130  141.4680 C   0  0  0  0  0  0  0  0  0  0  0  0
  185.7850  179.6100  144.9160 C   0  0  0  0  0  2  0  0  0  0  0  0
  188.3930  177.3470  141.3860 C   0  0  0  0  0  0  0  0  0  0  0  0
  183.9780  178.7010  142.2400 C   0  0  1  0  0  3  0  0  0  0  0  0
  190.1140  176.0590  142.6820 C   0  0  0  0  0  2  0  0  0  0  0  0
  183.4710  179.3610  144.4110 C   0  0  0  0  0  2  0  0  0  0  0  0
  184.6000  178.7980  145.1580 N   0  0  0  0  0  2  0  0  0  0  0  0
  185.0410  177.6830  142.6590 C   0  0  0  0  0  2  0  0  0  0  0  0
  188.5640  177.8470  148.9320 C   0  0  0  0  0  3  0  0  0  0  0  0
  187.8630  177.7870  146.2120 C   0  0  0  0  0  0  0  0  0  0  0  0
  189.2120  177.7930  146.6000 C   0  0  0  0  0  3  0  0  0  0  0  0
  189.5610  177.8210  147.9530 C   0  0  0  0  0  3  0  0  0  0  0  0
  187.2180  177.8470  148.5570 C   0  0  0  0  0  3  0  0  0  0  0  0
  186.8690  177.8190  147.2030 C   0  0  0  0  0  3  0  0  0  0  0  0
  1 12  1  0  0  0  0
  1 15  1  1  0  0  0
  2  6  1  6  0  0  0
  2 12  1  0  0  0  0
  3 21  1  1  0  0  0
  3  1  1  0  0  0  0
  4 14  1  0  0  0  0
  5 13  1  0  0  0  0
  7 16  1  0  0  0  0
  9 13  1  0  0  0  0
  9  7  2  0  0  0  0
 10 19  1  0  0  0  0
 11 16  1  6  0  0  0
 11  3  1  0  0  0  0
 11  2  1  0  0  0  0
 12 23  1  0  0  0  0
 13  4  2  0  0  0  0
 14 18  1  0  0  0  0
 15 20  1  0  0  0  0
 16 14  2  0  0  0  0
 17  8  1  1  0  0  0
 17 21  1  0  0  0  0
 17 10  1  0  0  0  0
 18  6  1  0  0  0  0
 19 20  1  0  0  0  0
 23 24  2  0  0  0  0
 23 27  1  0  0  0  0
 24 25  1  0  0  0  0
 25 22  2  0  0  0  0
 26 22  1  0  0  0  0
 27 26  2  0  0  0  0
M  END
>  <MODEL>
9

>  <REMARK>
 VINA RESULT:      -7.6      2.932      5.456
  Name = 
  1 active torsions:
  status: ('A' for Active; 'I' for Inactive)
    1  A    between atoms: C_9  and  N_15
                            x       y       z     vdW  Elec       q    Type
                         _______ _______ _______ _____ _____    ______ ____

>  <TORSDO>
F 1

$$$$
