=
 OpenBabel10262420103D

 27 31  0  0  0  0  0  0  0  0999 V2000
  187.4520  177.4910  143.3540 N   0  0  0  0  0  0  0  0  0  0  0  0
  187.8590  177.5050  142.0390 C   0  0  0  0  0  0  0  0  0  0  0  0
  185.9130  178.8460  141.4330 C   0  0  0  0  0  0  0  0  0  0  0  0
  188.9290  177.6670  138.0610 N   0  0  0  0  0  0  0  0  0  0  0  0
  187.6440  178.8530  136.2720 C   0  0  0  0  0  1  0  0  0  0  0  0
  189.0490  176.8350  141.6350 C   0  0  0  0  0  3  0  0  0  0  0  0
  187.0460  178.7240  138.6670 O   0  0  0  0  0  0  0  0  0  0  0  0
  183.8610  179.3970  144.4610 C   0  0  0  0  0  3  0  0  0  0  0  0
  185.2270  179.4690  140.5740 O   0  0  0  0  0  0  0  0  0  0  0  0
  184.5930  178.7010  145.4160 C   0  0  0  0  0  3  0  0  0  0  0  0
  187.5600  178.1750  139.7360 C   0  0  0  0  0  0  0  0  0  0  0  0
  187.8640  178.4170  137.6760 C   0  0  0  0  0  0  0  0  0  0  0  0
  188.7050  177.5290  139.3790 C   0  0  0  0  0  0  0  0  0  0  0  0
  186.2700  178.1000  143.7350 C   0  0  0  0  0  0  0  0  0  0  0  0
  187.0890  178.1900  141.0580 C   0  0  0  0  0  0  0  0  0  0  0  0
  184.3080  179.4430  143.1450 C   0  0  0  0  0  3  0  0  0  0  0  0
  189.4840  176.8430  140.3000 C   0  0  0  0  0  3  0  0  0  0  0  0
  186.4140  177.3720  146.0580 F   0  0  0  0  0  0  0  0  0  0  0  0
  185.7800  178.0530  145.0720 C   0  0  0  0  0  0  0  0  0  0  0  0
  185.4960  178.8000  142.7680 C   0  0  0  0  0  0  0  0  0  0  0  0
  188.3190  176.8430  144.3480 C   0  0  0  0  0  2  0  0  0  0  0  0
  192.1120  178.7860  144.6220 C   0  0  0  0  0  3  0  0  0  0  0  0
  189.6400  177.5400  144.4400 C   0  0  0  0  0  0  0  0  0  0  0  0
  190.7280  176.9010  145.0390 C   0  0  0  0  0  3  0  0  0  0  0  0
  191.9320  177.5310  145.1180 N   0  0  0  0  0  0  0  0  0  0  0  0
  191.0490  179.4580  144.0150 C   0  0  0  0  0  3  0  0  0  0  0  0
  189.8070  178.8290  143.9260 C   0  0  0  0  0  3  0  0  0  0  0  0
  1 14  1  0  0  0  0
  1 21  1  0  0  0  0
  2  1  1  0  0  0  0
  3 20  1  0  0  0  0
  4 13  1  0  0  0  0
  5 12  1  0  0  0  0
  6  2  1  0  0  0  0
  7 11  1  0  0  0  0
  8 10  1  0  0  0  0
  9  3  2  0  0  0  0
 11 15  1  0  0  0  0
 12  4  2  0  0  0  0
 12  7  1  0  0  0  0
 13 11  2  0  0  0  0
 13 17  1  0  0  0  0
 14 19  1  0  0  0  0
 15  3  1  0  0  0  0
 15  2  2  0  0  0  0
 16  8  2  0  0  0  0
 17  6  2  0  0  0  0
 19 10  2  0  0  0  0
 19 18  1  0  0  0  0
 20 16  1  0  0  0  0
 20 14  2  0  0  0  0
 21 23  1  0  0  0  0
 22 25  1  0  0  0  0
 23 24  1  0  0  0  0
 24 25  2  0  0  0  0
 26 22  2  0  0  0  0
 27 26  1  0  0  0  0
 27 23  2  0  0  0  0
M  END
>  <MODEL>
1

>  <REMARK>
 VINA RESULT:      -9.1      0.000      0.000
  Name = 
  2 active torsions:
  status: ('A' for Active; 'I' for Inactive)
    1  A    between atoms: N_1  and  C_15
    2  A    between atoms: C_9  and  C_15
                            x       y       z     vdW  Elec       q    Type
                         _______ _______ _______ _____ _____    ______ ____

>  <TORSDO>
F 2

$$$$
=
 OpenBabel10262420103D

 27 31  0  0  0  0  0  0  0  0999 V2000
  184.4340  178.7860  140.8940 N   0  0  0  0  0  0  0  0  0  0  0  0
  184.4800  178.7500  142.2690 C   0  0  0  0  0  0  0  0  0  0  0  0
  186.8770  178.3060  142.1930 C   0  0  0  0  0  0  0  0  0  0  0  0
  184.8140  178.6240  146.3760 N   0  0  0  0  0  0  0  0  0  0  0  0
  186.9370  178.2200  147.6360 C   0  0  0  0  0  1  0  0  0  0  0  0
  183.3030  178.9480  143.0450 C   0  0  0  0  0  3  0  0  0  0  0  0
  186.6830  178.3020  145.1780 O   0  0  0  0  0  0  0  0  0  0  0  0
  187.9320  178.0790  138.6540 C   0  0  0  0  0  3  0  0  0  0  0  0
  187.9810  178.1040  142.7750 O   0  0  0  0  0  0  0  0  0  0  0  0
  186.7250  178.2810  137.9970 C   0  0  0  0  0  3  0  0  0  0  0  0
  185.6970  178.4940  144.3400 C   0  0  0  0  0  0  0  0  0  0  0  0
  186.1500  178.3810  146.3840 C   0  0  0  0  0  0  0  0  0  0  0  0
  184.5560  178.6910  145.0580 C   0  0  0  0  0  0  0  0  0  0  0  0
  185.5680  178.5440  140.1400 C   0  0  0  0  0  0  0  0  0  0  0  0
  185.7120  178.5110  142.9380 C   0  0  0  0  0  0  0  0  0  0  0  0
  187.9740  178.0930  140.0450 C   0  0  0  0  0  3  0  0  0  0  0  0
  183.3310  178.9210  144.4490 C   0  0  0  0  0  3  0  0  0  0  0  0
  184.4120  178.6620  137.9970 F   0  0  0  0  0  0  0  0  0  0  0  0
  185.5500  178.5070  138.7160 C   0  0  0  0  0  0  0  0  0  0  0  0
  186.8110  178.3160  140.7950 C   0  0  0  0  0  0  0  0  0  0  0  0
  183.1570  179.1190  140.2440 C   0  0  0  0  0  2  0  0  0  0  0  0
  180.5760  175.7230  140.0320 C   0  0  0  0  0  3  0  0  0  0  0  0
  182.2670  177.9190  140.1680 C   0  0  0  0  0  0  0  0  0  0  0  0
  180.9260  178.0160  140.5440 C   0  0  0  0  0  3  0  0  0  0  0  0
  180.1140  176.9270  140.4700 N   0  0  0  0  0  0  0  0  0  0  0  0
  181.9110  175.5840  139.6460 C   0  0  0  0  0  3  0  0  0  0  0  0
  182.7590  176.6900  139.7170 C   0  0  0  0  0  3  0  0  0  0  0  0
  1  2  1  0  0  0  0
  2 15  2  0  0  0  0
  2  6  1  0  0  0  0
  3  9  2  0  0  0  0
  3 15  1  0  0  0  0
  4 12  2  0  0  0  0
  6 17  2  0  0  0  0
  7 12  1  0  0  0  0
  8 16  1  0  0  0  0
 10  8  2  0  0  0  0
 10 19  1  0  0  0  0
 11 13  2  0  0  0  0
 11  7  1  0  0  0  0
 12  5  1  0  0  0  0
 13  4  1  0  0  0  0
 14 20  1  0  0  0  0
 14  1  1  0  0  0  0
 15 11  1  0  0  0  0
 16 20  2  0  0  0  0
 17 13  1  0  0  0  0
 18 19  1  0  0  0  0
 19 14  2  0  0  0  0
 20  3  1  0  0  0  0
 21  1  1  0  0  0  0
 22 25  1  0  0  0  0
 23 21  1  0  0  0  0
 23 24  1  0  0  0  0
 25 24  2  0  0  0  0
 26 27  1  0  0  0  0
 26 22  2  0  0  0  0
 27 23  2  0  0  0  0
M  END
>  <MODEL>
2

>  <REMARK>
 VINA RESULT:      -8.9      3.657      7.663
  Name = 
  2 active torsions:
  status: ('A' for Active; 'I' for Inactive)
    1  A    between atoms: N_1  and  C_15
    2  A    between atoms: C_9  and  C_15
                            x       y       z     vdW  Elec       q    Type
                         _______ _______ _______ _____ _____    ______ ____

>  <TORSDO>
F 2

$$$$
=
 OpenBabel10262420103D

 27 31  0  0  0  0  0  0  0  0999 V2000
  188.2700  178.2740  140.9300 N   0  0  0  0  0  0  0  0  0  0  0  0
  189.1670  177.9710  141.9280 C   0  0  0  0  0  0  0  0  0  0  0  0
  187.3320  177.6400  143.5000 C   0  0  0  0  0  0  0  0  0  0  0  0
  191.7040  177.0210  145.0360 N   0  0  0  0  0  0  0  0  0  0  0  0
  190.9790  176.4280  147.3560 C   0  0  0  0  0  1  0  0  0  0  0  0
  190.5690  177.9790  141.6780 C   0  0  0  0  0  3  0  0  0  0  0  0
  189.5010  177.0070  145.4600 O   0  0  0  0  0  0  0  0  0  0  0  0
  184.1400  178.3410  141.7660 C   0  0  0  0  0  3  0  0  0  0  0  0
  186.9060  177.3400  144.6510 O   0  0  0  0  0  0  0  0  0  0  0  0
  184.5910  178.6910  140.4980 C   0  0  0  0  0  3  0  0  0  0  0  0
  189.6660  177.3370  144.2060 C   0  0  0  0  0  0  0  0  0  0  0  0
  190.7150  176.8210  145.9460 C   0  0  0  0  0  0  0  0  0  0  0  0
  191.0020  177.3490  143.9370 C   0  0  0  0  0  0  0  0  0  0  0  0
  186.9110  178.3130  141.1870 C   0  0  0  0  0  0  0  0  0  0  0  0
  188.7040  177.6450  143.2330 C   0  0  0  0  0  0  0  0  0  0  0  0
  185.0550  177.9900  142.7530 C   0  0  0  0  0  3  0  0  0  0  0  0
  191.5000  177.6670  142.6820 C   0  0  0  0  0  3  0  0  0  0  0  0
  186.3080  179.0720  138.9490 F   0  0  0  0  0  0  0  0  0  0  0  0
  185.9550  178.6870  140.1990 C   0  0  0  0  0  0  0  0  0  0  0  0
  186.4310  177.9780  142.4840 C   0  0  0  0  0  0  0  0  0  0  0  0
  188.7860  178.5230  139.5750 C   0  0  0  0  0  2  0  0  0  0  0  0
  189.3980  174.8460  137.4920 C   0  0  0  0  0  3  0  0  0  0  0  0
  188.9850  177.2380  138.8360 C   0  0  0  0  0  0  0  0  0  0  0  0
  190.2020  176.5580  138.9290 C   0  0  0  0  0  3  0  0  0  0  0  0
  190.3830  175.3860  138.2610 N   0  0  0  0  0  0  0  0  0  0  0  0
  188.1670  175.4950  137.3730 C   0  0  0  0  0  3  0  0  0  0  0  0
  187.9630  176.6980  138.0490 C   0  0  0  0  0  3  0  0  0  0  0  0
  1 14  1  0  0  0  0
  1  2  1  0  0  0  0
  2 15  1  0  0  0  0
  3  9  2  0  0  0  0
  4 12  2  0  0  0  0
  6  2  2  0  0  0  0
  6 17  1  0  0  0  0
  7 12  1  0  0  0  0
  8 16  1  0  0  0  0
 10  8  2  0  0  0  0
 11  7  1  0  0  0  0
 12  5  1  0  0  0  0
 13 11  1  0  0  0  0
 13  4  1  0  0  0  0
 14 20  1  0  0  0  0
 15  3  1  0  0  0  0
 15 11  2  0  0  0  0
 17 13  2  0  0  0  0
 18 19  1  0  0  0  0
 19 10  1  0  0  0  0
 19 14  2  0  0  0  0
 20 16  2  0  0  0  0
 20  3  1  0  0  0  0
 21  1  1  0  0  0  0
 22 25  1  0  0  0  0
 23 24  1  0  0  0  0
 23 21  1  0  0  0  0
 25 24  2  0  0  0  0
 26 22  2  0  0  0  0
 26 27  1  0  0  0  0
 27 23  2  0  0  0  0
M  END
>  <MODEL>
3

>  <REMARK>
 VINA RESULT:      -8.5      2.712      5.773
  Name = 
  2 active torsions:
  status: ('A' for Active; 'I' for Inactive)
    1  A    between atoms: N_1  and  C_15
    2  A    between atoms: C_9  and  C_15
                            x       y       z     vdW  Elec       q    Type
                         _______ _______ _______ _____ _____    ______ ____

>  <TORSDO>
F 2

$$$$
=
 OpenBabel10262420103D

 27 31  0  0  0  0  0  0  0  0999 V2000
  184.3810  178.8140  141.0440 N   0  0  0  0  0  0  0  0  0  0  0  0
  185.6940  178.5690  141.3800 C   0  0  0  0  0  0  0  0  0  0  0  0
  185.0640  178.3130  143.7220 C   0  0  0  0  0  0  0  0  0  0  0  0
  189.5650  177.8000  142.5690 N   0  0  0  0  0  0  0  0  0  0  0  0
  190.2820  177.3280  144.9190 C   0  0  0  0  0  1  0  0  0  0  0  0
  186.7150  178.5710  140.3870 C   0  0  0  0  0  3  0  0  0  0  0  0
  187.9790  177.7970  144.1540 O   0  0  0  0  0  0  0  0  0  0  0  0
  181.4260  178.9040  144.0460 C   0  0  0  0  0  3  0  0  0  0  0  0
  185.3650  178.0730  144.9250 O   0  0  0  0  0  0  0  0  0  0  0  0
  181.0780  179.1880  142.7300 C   0  0  0  0  0  3  0  0  0  0  0  0
  187.4030  178.0610  143.0100 C   0  0  0  0  0  0  0  0  0  0  0  0
  189.2620  177.6440  143.8840 C   0  0  0  0  0  0  0  0  0  0  0  0
  188.3580  178.0650  142.0400 C   0  0  0  0  0  0  0  0  0  0  0  0
  183.3980  178.8600  142.0160 C   0  0  0  0  0  0  0  0  0  0  0  0
  186.0510  178.3110  142.7320 C   0  0  0  0  0  0  0  0  0  0  0  0
  182.7480  178.6110  144.3650 C   0  0  0  0  0  3  0  0  0  0  0  0
  188.0580  178.3180  140.7090 C   0  0  0  0  0  3  0  0  0  0  0  0
  181.6220  179.4940  140.4710 F   0  0  0  0  0  0  0  0  0  0  0  0
  182.0410  179.1750  141.7190 C   0  0  0  0  0  0  0  0  0  0  0  0
  183.7380  178.5920  143.3720 C   0  0  0  0  0  0  0  0  0  0  0  0
  184.0430  178.9920  139.6240 C   0  0  0  0  0  2  0  0  0  0  0  0
  183.5940  175.2270  137.6600 C   0  0  0  0  0  3  0  0  0  0  0  0
  183.8710  177.6700  138.9460 C   0  0  0  0  0  0  0  0  0  0  0  0
  184.6000  177.3750  137.7910 C   0  0  0  0  0  3  0  0  0  0  0  0
  184.4480  176.1700  137.1770 N   0  0  0  0  0  0  0  0  0  0  0  0
  182.8480  175.4830  138.8120 C   0  0  0  0  0  3  0  0  0  0  0  0
  182.9880  176.7130  139.4560 C   0  0  0  0  0  3  0  0  0  0  0  0
  1  2  1  0  0  0  0
  1 14  1  0  0  0  0
  2 15  1  0  0  0  0
  3  9  2  0  0  0  0
  4 12  2  0  0  0  0
  6 17  1  0  0  0  0
  6  2  2  0  0  0  0
  8 16  1  0  0  0  0
 10  8  2  0  0  0  0
 11  7  1  0  0  0  0
 12  7  1  0  0  0  0
 12  5  1  0  0  0  0
 13  4  1  0  0  0  0
 13 11  1  0  0  0  0
 14 20  1  0  0  0  0
 15 11  2  0  0  0  0
 15  3  1  0  0  0  0
 17 13  2  0  0  0  0
 18 19  1  0  0  0  0
 19 14  2  0  0  0  0
 19 10  1  0  0  0  0
 20  3  1  0  0  0  0
 20 16  2  0  0  0  0
 21  1  1  0  0  0  0
 22 26  1  0  0  0  0
 23 27  1  0  0  0  0
 23 21  1  0  0  0  0
 24 23  2  0  0  0  0
 25 22  2  0  0  0  0
 25 24  1  0  0  0  0
 26 27  2  0  0  0  0
M  END
>  <MODEL>
4

>  <REMARK>
 VINA RESULT:      -8.5      3.261      6.177
  Name = 
  2 active torsions:
  status: ('A' for Active; 'I' for Inactive)
    1  A    between atoms: N_1  and  C_15
    2  A    between atoms: C_9  and  C_15
                            x       y       z     vdW  Elec       q    Type
                         _______ _______ _______ _____ _____    ______ ____

>  <TORSDO>
F 2

$$$$
=
 OpenBabel10262420103D

 27 31  0  0  0  0  0  0  0  0999 V2000
  188.7580  178.0930  141.1860 N   0  0  0  0  0  0  0  0  0  0  0  0
  187.4040  178.3010  141.3280 C   0  0  0  0  0  0  0  0  0  0  0  0
  187.5450  177.7060  143.6900 C   0  0  0  0  0  0  0  0  0  0  0  0
  183.3720  178.8900  141.9470 N   0  0  0  0  0  0  0  0  0  0  0  0
  182.1910  178.5890  144.1320 C   0  0  0  0  0  1  0  0  0  0  0  0
  186.6070  178.7050  140.2200 C   0  0  0  0  0  3  0  0  0  0  0  0
  184.6020  178.2470  143.7080 O   0  0  0  0  0  0  0  0  0  0  0  0
  191.0400  176.7890  144.4790 C   0  0  0  0  0  3  0  0  0  0  0  0
  187.0040  177.5460  144.8210 O   0  0  0  0  0  0  0  0  0  0  0  0
  191.6490  176.9430  143.2390 C   0  0  0  0  0  3  0  0  0  0  0  0
  185.3990  178.3460  142.6760 C   0  0  0  0  0  0  0  0  0  0  0  0
  183.4010  178.5710  143.2660 C   0  0  0  0  0  0  0  0  0  0  0  0
  184.6610  178.7360  141.5990 C   0  0  0  0  0  0  0  0  0  0  0  0
  189.5220  177.6540  142.2520 C   0  0  0  0  0  0  0  0  0  0  0  0
  186.7790  178.1110  142.5920 C   0  0  0  0  0  0  0  0  0  0  0  0
  189.6810  177.0480  144.6200 C   0  0  0  0  0  3  0  0  0  0  0  0
  185.2260  178.9270  140.3460 C   0  0  0  0  0  3  0  0  0  0  0  0
  191.5760  177.4560  140.9530 F   0  0  0  0  0  0  0  0  0  0  0  0
  190.9120  177.3640  142.1300 C   0  0  0  0  0  0  0  0  0  0  0  0
  188.9140  177.4710  143.5250 C   0  0  0  0  0  0  0  0  0  0  0  0
  189.3780  178.3820  139.8840 C   0  0  0  0  0  2  0  0  0  0  0  0
  189.0400  175.0240  137.2670 C   0  0  0  0  0  3  0  0  0  0  0  0
  189.2450  177.2140  138.9590 C   0  0  0  0  0  0  0  0  0  0  0  0
  190.2720  176.2700  138.8710 C   0  0  0  0  0  3  0  0  0  0  0  0
  190.1500  175.2040  138.0340 N   0  0  0  0  0  0  0  0  0  0  0  0
  187.9910  175.9440  137.3270 C   0  0  0  0  0  3  0  0  0  0  0  0
  188.0980  177.0450  138.1780 C   0  0  0  0  0  3  0  0  0  0  0  0
  1  2  1  0  0  0  0
  1 14  1  0  0  0  0
  2 15  1  0  0  0  0
  3  9  2  0  0  0  0
  4 12  2  0  0  0  0
  6 17  1  0  0  0  0
  6  2  2  0  0  0  0
  8 16  1  0  0  0  0
 10  8  2  0  0  0  0
 11  7  1  0  0  0  0
 12  7  1  0  0  0  0
 12  5  1  0  0  0  0
 13  4  1  0  0  0  0
 13 11  1  0  0  0  0
 14 20  1  0  0  0  0
 15 11  2  0  0  0  0
 15  3  1  0  0  0  0
 17 13  2  0  0  0  0
 18 19  1  0  0  0  0
 19 14  2  0  0  0  0
 19 10  1  0  0  0  0
 20  3  1  0  0  0  0
 20 16  2  0  0  0  0
 21  1  1  0  0  0  0
 22 26  2  0  0  0  0
 22 25  1  0  0  0  0
 23 21  1  0  0  0  0
 24 23  1  0  0  0  0
 25 24  2  0  0  0  0
 26 27  1  0  0  0  0
 27 23  2  0  0  0  0
M  END
>  <MODEL>
5

>  <REMARK>
 VINA RESULT:      -8.4      2.640      5.896
  Name = 
  2 active torsions:
  status: ('A' for Active; 'I' for Inactive)
    1  A    between atoms: N_1  and  C_15
    2  A    between atoms: C_9  and  C_15
                            x       y       z     vdW  Elec       q    Type
                         _______ _______ _______ _____ _____    ______ ____

>  <TORSDO>
F 2

$$$$
=
 OpenBabel10262420103D

 27 31  0  0  0  0  0  0  0  0999 V2000
  184.3180  178.8270  141.2780 N   0  0  0  0  0  0  0  0  0  0  0  0
  185.4750  178.5910  140.5700 C   0  0  0  0  0  0  0  0  0  0  0  0
  186.6780  178.1570  142.6480 C   0  0  0  0  0  0  0  0  0  0  0  0
  189.0260  177.8360  138.6180 N   0  0  0  0  0  0  0  0  0  0  0  0
  191.1790  177.2190  139.7330 C   0  0  0  0  0  1  0  0  0  0  0  0
  185.4950  178.6880  139.1500 C   0  0  0  0  0  3  0  0  0  0  0  0
  189.0260  177.6830  140.8550 O   0  0  0  0  0  0  0  0  0  0  0  0
  184.3560  178.6350  145.4870 C   0  0  0  0  0  3  0  0  0  0  0  0
  187.7340  177.8410  143.2650 O   0  0  0  0  0  0  0  0  0  0  0  0
  183.1890  179.0010  144.8260 C   0  0  0  0  0  3  0  0  0  0  0  0
  187.8190  178.0120  140.4760 C   0  0  0  0  0  0  0  0  0  0  0  0
  189.7370  177.5810  139.7470 C   0  0  0  0  0  0  0  0  0  0  0  0
  187.8080  178.1080  139.1170 C   0  0  0  0  0  0  0  0  0  0  0  0
  184.3130  178.7800  142.6610 C   0  0  0  0  0  0  0  0  0  0  0  0
  186.6750  178.2480  141.2520 C   0  0  0  0  0  0  0  0  0  0  0  0
  185.5060  178.3530  144.7570 C   0  0  0  0  0  3  0  0  0  0  0  0
  186.6630  178.4450  138.4090 C   0  0  0  0  0  3  0  0  0  0  0  0
  181.9860  179.4780  142.8720 F   0  0  0  0  0  0  0  0  0  0  0  0
  183.1540  179.0820  143.4330 C   0  0  0  0  0  0  0  0  0  0  0  0
  185.5020  178.4270  143.3570 C   0  0  0  0  0  0  0  0  0  0  0  0
  183.0820  179.0960  140.5300 C   0  0  0  0  0  2  0  0  0  0  0  0
  180.9000  175.5030  139.7750 C   0  0  0  0  0  3  0  0  0  0  0  0
  182.3330  177.8280  140.2620 C   0  0  0  0  0  0  0  0  0  0  0  0
  180.9830  177.7270  140.6040 C   0  0  0  0  0  3  0  0  0  0  0  0
  180.2990  176.5770  140.3570 N   0  0  0  0  0  0  0  0  0  0  0  0
  182.2490  175.5640  139.4170 C   0  0  0  0  0  3  0  0  0  0  0  0
  182.9670  176.7340  139.6650 C   0  0  0  0  0  3  0  0  0  0  0  0
  1 14  1  0  0  0  0
  2 15  1  0  0  0  0
  2  1  1  0  0  0  0
  3  9  2  0  0  0  0
  3 20  1  0  0  0  0
  4 13  1  0  0  0  0
  4 12  2  0  0  0  0
  5 12  1  0  0  0  0
  6  2  2  0  0  0  0
 10  8  1  0  0  0  0
 11  7  1  0  0  0  0
 11 15  2  0  0  0  0
 12  7  1  0  0  0  0
 13 11  1  0  0  0  0
 14 20  2  0  0  0  0
 14 19  1  0  0  0  0
 15  3  1  0  0  0  0
 16  8  2  0  0  0  0
 17 13  2  0  0  0  0
 17  6  1  0  0  0  0
 18 19  1  0  0  0  0
 19 10  2  0  0  0  0
 20 16  1  0  0  0  0
 21  1  1  0  0  0  0
 22 25  1  0  0  0  0
 23 21  1  0  0  0  0
 23 24  1  0  0  0  0
 25 24  2  0  0  0  0
 26 27  1  0  0  0  0
 26 22  2  0  0  0  0
 27 23  2  0  0  0  0
M  END
>  <MODEL>
6

>  <REMARK>
 VINA RESULT:      -8.4      3.236      5.848
  Name = 
  2 active torsions:
  status: ('A' for Active; 'I' for Inactive)
    1  A    between atoms: N_1  and  C_15
    2  A    between atoms: C_9  and  C_15
                            x       y       z     vdW  Elec       q    Type
                         _______ _______ _______ _____ _____    ______ ____

>  <TORSDO>
F 2

$$$$
=
 OpenBabel10262420103D

 27 31  0  0  0  0  0  0  0  0999 V2000
  189.4700  177.9690  144.0760 N   0  0  0  0  0  0  0  0  0  0  0  0
  189.4620  177.9270  142.7000 C   0  0  0  0  0  0  0  0  0  0  0  0
  187.0230  177.8960  142.7000 C   0  0  0  0  0  0  0  0  0  0  0  0
  189.2400  177.8150  138.5850 N   0  0  0  0  0  0  0  0  0  0  0  0
  187.1190  177.7620  137.2590 C   0  0  0  0  0  1  0  0  0  0  0  0
  190.6790  177.9140  141.9620 C   0  0  0  0  0  3  0  0  0  0  0  0
  187.3070  177.8270  139.7230 O   0  0  0  0  0  0  0  0  0  0  0  0
  185.8340  177.8900  146.2030 C   0  0  0  0  0  3  0  0  0  0  0  0
  185.9200  177.8780  142.0840 O   0  0  0  0  0  0  0  0  0  0  0  0
  187.0370  177.8910  146.8990 C   0  0  0  0  0  3  0  0  0  0  0  0
  188.2840  177.8590  140.5910 C   0  0  0  0  0  0  0  0  0  0  0  0
  187.8830  177.8010  138.5350 C   0  0  0  0  0  0  0  0  0  0  0  0
  189.4640  177.8520  139.9100 C   0  0  0  0  0  0  0  0  0  0  0  0
  188.2880  177.9320  144.7930 C   0  0  0  0  0  0  0  0  0  0  0  0
  188.2280  177.8920  141.9920 C   0  0  0  0  0  0  0  0  0  0  0  0
  185.8390  177.8950  144.8120 C   0  0  0  0  0  3  0  0  0  0  0  0
  190.6910  177.8780  140.5580 C   0  0  0  0  0  3  0  0  0  0  0  0
  189.3800  177.8740  146.9720 F   0  0  0  0  0  0  0  0  0  0  0  0
  188.2560  177.9070  146.2170 C   0  0  0  0  0  0  0  0  0  0  0  0
  187.0460  177.9100  144.0990 C   0  0  0  0  0  0  0  0  0  0  0  0
  190.7640  178.0880  144.7650 C   0  0  0  0  0  2  0  0  0  0  0  0
  192.4310  174.2290  145.5180 C   0  0  0  0  0  3  0  0  0  0  0  0
  191.3450  176.7390  145.0470 C   0  0  0  0  0  0  0  0  0  0  0  0
  191.5240  175.8230  144.0080 C   0  0  0  0  0  3  0  0  0  0  0  0
  192.0580  174.5970  144.2620 N   0  0  0  0  0  0  0  0  0  0  0  0
  192.2680  175.1170  146.5840 C   0  0  0  0  0  3  0  0  0  0  0  0
  191.7210  176.3780  146.3440 C   0  0  0  0  0  3  0  0  0  0  0  0
  1 21  1  0  0  0  0
  1 14  1  0  0  0  0
  2  1  1  0  0  0  0
  3 20  1  0  0  0  0
  4 13  1  0  0  0  0
  5 12  1  0  0  0  0
  6  2  2  0  0  0  0
  7 11  1  0  0  0  0
  8 10  1  0  0  0  0
  9  3  2  0  0  0  0
 11 15  2  0  0  0  0
 12  4  2  0  0  0  0
 12  7  1  0  0  0  0
 13 17  2  0  0  0  0
 13 11  1  0  0  0  0
 14 19  1  0  0  0  0
 15  2  1  0  0  0  0
 15  3  1  0  0  0  0
 16  8  2  0  0  0  0
 17  6  1  0  0  0  0
 19 10  2  0  0  0  0
 19 18  1  0  0  0  0
 20 14  2  0  0  0  0
 20 16  1  0  0  0  0
 21 23  1  0  0  0  0
 22 26  1  0  0  0  0
 23 27  1  0  0  0  0
 24 25  1  0  0  0  0
 24 23  2  0  0  0  0
 25 22  2  0  0  0  0
 27 26  2  0  0  0  0
M  END
>  <MODEL>
7

>  <REMARK>
 VINA RESULT:      -8.4      1.784      2.547
  Name = 
  2 active torsions:
  status: ('A' for Active; 'I' for Inactive)
    1  A    between atoms: N_1  and  C_15
    2  A    between atoms: C_9  and  C_15
                            x       y       z     vdW  Elec       q    Type
                         _______ _______ _______ _____ _____    ______ ____

>  <TORSDO>
F 2

$$$$
=
 OpenBabel10262420103D

 27 31  0  0  0  0  0  0  0  0999 V2000
  187.6810  178.1820  139.9990 N   0  0  0  0  0  0  0  0  0  0  0  0
  188.7530  177.8600  140.8000 C   0  0  0  0  0  0  0  0  0  0  0  0
  187.3010  177.8280  142.7600 C   0  0  0  0  0  0  0  0  0  0  0  0
  191.8400  176.8770  143.3490 N   0  0  0  0  0  0  0  0  0  0  0  0
  191.6140  176.5250  145.8160 C   0  0  0  0  0  1  0  0  0  0  0  0
  190.0580  177.7080  140.2490 C   0  0  0  0  0  3  0  0  0  0  0  0
  189.7980  177.1170  144.2450 O   0  0  0  0  0  0  0  0  0  0  0  0
  183.8690  178.7270  141.7110 C   0  0  0  0  0  3  0  0  0  0  0  0
  187.1240  177.6550  143.9990 O   0  0  0  0  0  0  0  0  0  0  0  0
  184.0480  178.9390  140.3490 C   0  0  0  0  0  3  0  0  0  0  0  0
  189.7010  177.3400  142.9610 C   0  0  0  0  0  0  0  0  0  0  0  0
  191.0710  176.8430  144.4680 C   0  0  0  0  0  0  0  0  0  0  0  0
  190.9380  177.1970  142.4060 C   0  0  0  0  0  0  0  0  0  0  0  0
  186.4240  178.3770  140.5430 C   0  0  0  0  0  0  0  0  0  0  0  0
  188.5730  177.6750  142.1990 C   0  0  0  0  0  0  0  0  0  0  0  0
  184.9520  178.3550  142.5010 C   0  0  0  0  0  3  0  0  0  0  0  0
  191.1620  177.3740  141.0480 C   0  0  0  0  0  3  0  0  0  0  0  0
  185.3950  179.0340  138.4330 F   0  0  0  0  0  0  0  0  0  0  0  0
  185.3030  178.7750  139.7600 C   0  0  0  0  0  0  0  0  0  0  0  0
  186.2250  178.1840  141.9390 C   0  0  0  0  0  0  0  0  0  0  0  0
  187.8960  178.2810  138.5480 C   0  0  0  0  0  2  0  0  0  0  0  0
  187.8820  174.4160  136.7320 C   0  0  0  0  0  3  0  0  0  0  0  0
  187.9080  176.9250  137.9160 C   0  0  0  0  0  0  0  0  0  0  0  0
  186.7060  176.2960  137.5830 C   0  0  0  0  0  3  0  0  0  0  0  0
  186.7170  175.0660  137.0030 N   0  0  0  0  0  0  0  0  0  0  0  0
  189.1050  175.0110  137.0490 C   0  0  0  0  0  3  0  0  0  0  0  0
  189.1150  176.2720  137.6460 C   0  0  0  0  0  3  0  0  0  0  0  0
  1 14  1  0  0  0  0
  1  2  1  0  0  0  0
  2 15  1  0  0  0  0
  3  9  2  0  0  0  0
  4 12  2  0  0  0  0
  6  2  2  0  0  0  0
  6 17  1  0  0  0  0
  7 12  1  0  0  0  0
  8 16  1  0  0  0  0
 10  8  2  0  0  0  0
 11  7  1  0  0  0  0
 12  5  1  0  0  0  0
 13 11  1  0  0  0  0
 13  4  1  0  0  0  0
 14 20  1  0  0  0  0
 15  3  1  0  0  0  0
 15 11  2  0  0  0  0
 17 13  2  0  0  0  0
 18 19  1  0  0  0  0
 19 10  1  0  0  0  0
 19 14  2  0  0  0  0
 20 16  2  0  0  0  0
 20  3  1  0  0  0  0
 21  1  1  0  0  0  0
 22 25  2  0  0  0  0
 22 26  1  0  0  0  0
 23 21  1  0  0  0  0
 24 23  2  0  0  0  0
 25 24  1  0  0  0  0
 26 27  2  0  0  0  0
 27 23  1  0  0  0  0
M  END
>  <MODEL>
8

>  <REMARK>
 VINA RESULT:      -8.3      2.816      5.894
  Name = 
  2 active torsions:
  status: ('A' for Active; 'I' for Inactive)
    1  A    between atoms: N_1  and  C_15
    2  A    between atoms: C_9  and  C_15
                            x       y       z     vdW  Elec       q    Type
                         _______ _______ _______ _____ _____    ______ ____

>  <TORSDO>
F 2

$$$$
=
 OpenBabel10262420103D

 27 31  0  0  0  0  0  0  0  0999 V2000
  188.1500  178.1240  139.5780 N   0  0  0  0  0  0  0  0  0  0  0  0
  187.0250  178.3270  140.3450 C   0  0  0  0  0  0  0  0  0  0  0  0
  188.3180  177.9350  142.3760 C   0  0  0  0  0  0  0  0  0  0  0  0
  183.7680  178.9200  142.8000 N   0  0  0  0  0  0  0  0  0  0  0  0
  183.8050  178.7900  145.2990 C   0  0  0  0  0  1  0  0  0  0  0  0
  185.7720  178.6280  139.7380 C   0  0  0  0  0  3  0  0  0  0  0  0
  185.7260  178.4410  143.7820 O   0  0  0  0  0  0  0  0  0  0  0  0
  191.8020  177.1280  141.4300 C   0  0  0  0  0  3  0  0  0  0  0  0
  188.3990  177.8640  143.6350 O   0  0  0  0  0  0  0  0  0  0  0  0
  191.7270  177.1840  140.0430 C   0  0  0  0  0  3  0  0  0  0  0  0
  185.9200  178.4620  142.4890 C   0  0  0  0  0  0  0  0  0  0  0  0
  184.4460  178.7130  143.9590 C   0  0  0  0  0  0  0  0  0  0  0  0
  184.7350  178.7520  141.8830 C   0  0  0  0  0  0  0  0  0  0  0  0
  189.3560  177.7850  140.1660 C   0  0  0  0  0  0  0  0  0  0  0  0
  187.0980  178.2370  141.7630 C   0  0  0  0  0  0  0  0  0  0  0  0
  190.6680  177.3820  142.1950 C   0  0  0  0  0  3  0  0  0  0  0  0
  184.6150  178.8440  140.5030 C   0  0  0  0  0  3  0  0  0  0  0  0
  190.5340  177.5030  138.0500 F   0  0  0  0  0  0  0  0  0  0  0  0
  190.5260  177.5020  139.4050 C   0  0  0  0  0  0  0  0  0  0  0  0
  189.4480  177.7020  141.5840 C   0  0  0  0  0  0  0  0  0  0  0  0
  188.0490  178.3100  138.1230 C   0  0  0  0  0  2  0  0  0  0  0  0
  186.0110  175.0090  136.3380 C   0  0  0  0  0  3  0  0  0  0  0  0
  187.3250  177.1650  137.4880 C   0  0  0  0  0  0  0  0  0  0  0  0
  187.8350  175.8690  137.5940 C   0  0  0  0  0  3  0  0  0  0  0  0
  187.1740  174.8260  137.0210 N   0  0  0  0  0  0  0  0  0  0  0  0
  185.4680  176.2890  136.2100 C   0  0  0  0  0  3  0  0  0  0  0  0
  186.1320  177.3720  136.7890 C   0  0  0  0  0  3  0  0  0  0  0  0
  1 14  1  0  0  0  0
  1  2  1  0  0  0  0
  2 15  1  0  0  0  0
  3  9  2  0  0  0  0
  4 12  2  0  0  0  0
  6  2  2  0  0  0  0
  6 17  1  0  0  0  0
  7 12  1  0  0  0  0
  8 16  1  0  0  0  0
 10  8  2  0  0  0  0
 11  7  1  0  0  0  0
 12  5  1  0  0  0  0
 13 11  1  0  0  0  0
 13  4  1  0  0  0  0
 14 20  1  0  0  0  0
 15  3  1  0  0  0  0
 15 11  2  0  0  0  0
 17 13  2  0  0  0  0
 18 19  1  0  0  0  0
 19 10  1  0  0  0  0
 19 14  2  0  0  0  0
 20 16  2  0  0  0  0
 20  3  1  0  0  0  0
 21  1  1  0  0  0  0
 22 25  1  0  0  0  0
 23 24  1  0  0  0  0
 23 21  1  0  0  0  0
 25 24  2  0  0  0  0
 26 22  2  0  0  0  0
 26 27  1  0  0  0  0
 27 23  2  0  0  0  0
M  END
>  <MODEL>
9

>  <REMARK>
 VINA RESULT:      -8.1      3.011      6.886
  Name = 
  2 active torsions:
  status: ('A' for Active; 'I' for Inactive)
    1  A    between atoms: N_1  and  C_15
    2  A    between atoms: C_9  and  C_15
                            x       y       z     vdW  Elec       q    Type
                         _______ _______ _______ _____ _____    ______ ____

>  <TORSDO>
F 2

$$$$
