=
 OpenBabel10252415013D

 34 39  0  0  1  0  0  0  0  0999 V2000
  182.0820  178.6790  140.9650 C   0  0  0  0  0  0  0  0  0  0  0  0
  183.0940  180.1030  139.2010 C   0  0  0  0  0  0  0  0  0  0  0  0
  184.6130  178.7000  140.7410 C   0  0  0  0  0  0  0  0  0  0  0  0
  186.9780  178.3120  140.7050 N   0  0  0  0  0  0  0  0  0  0  0  0
  180.6570  179.8150  139.3780 C   0  0  0  0  0  3  0  0  0  0  0  0
  181.8610  180.4880  138.8400 C   0  0  0  0  0  3  0  0  0  0  0  0
  185.8960  178.4600  138.5770 C   0  0  0  0  0  2  0  0  0  0  0  0
  183.2720  178.8550  140.0470 C   0  0  1  0  0  3  0  0  0  0  0  0
  188.0510  178.1120  139.7610 C   0  0  0  0  0  2  0  0  0  0  0  0
  180.7530  178.9650  140.4080 C   0  0  0  0  0  3  0  0  0  0  0  0
  184.6740  178.5220  142.2230 C   0  0  0  0  0  0  0  0  0  0  0  0
  182.2140  178.4410  142.2700 C   0  0  0  0  0  3  0  0  0  0  0  0
  184.1880  180.8220  138.7360 O   0  0  0  0  0  1  0  0  0  0  0  0
  187.1010  178.2730  142.1280 C   0  0  0  0  0  3  0  0  0  0  0  0
  186.0090  178.3860  142.9000 C   0  0  0  0  0  0  0  0  0  0  0  0
  187.3990  178.2280  138.3710 C   0  0  1  0  0  3  0  0  0  0  0  0
  185.7490  178.5300  140.0490 C   0  0  0  0  0  0  0  0  0  0  0  0
  183.5370  178.3560  142.9080 C   0  0  0  0  0  3  0  0  0  0  0  0
  187.3350  177.5990  146.3760 C   0  0  0  0  0  0  0  0  0  0  0  0
  186.4430  178.3120  147.1800 C   0  0  0  0  0  3  0  0  0  0  0  0
  186.1730  178.3720  144.3800 C   0  0  0  0  0  0  0  0  0  0  0  0
  185.4130  179.0500  146.5940 C   0  0  0  0  0  3  0  0  0  0  0  0
  187.1980  177.6260  144.9860 C   0  0  0  0  0  3  0  0  0  0  0  0
  185.2780  179.0770  145.2030 C   0  0  0  0  0  3  0  0  0  0  0  0
  188.3320  176.8790  146.9440 F   0  0  0  0  0  0  0  0  0  0  0  0
  188.7710  176.3320  137.6320 C   0  0  0  0  0  3  0  0  0  0  0  0
  187.6070  176.9750  137.5910 C   0  0  0  0  0  3  0  0  0  0  0  0
  191.1240  174.7880  138.0660 O   0  0  0  0  0  1  0  0  0  0  0  0
  189.0240  175.0900  136.8820 C   0  0  0  0  0  0  0  0  0  0  0  0
  190.1970  174.3550  137.1240 C   0  0  0  0  0  0  0  0  0  0  0  0
  189.5260  172.7200  135.4650 C   0  0  0  0  0  3  0  0  0  0  0  0
  188.3580  173.4440  135.2190 C   0  0  0  0  0  3  0  0  0  0  0  0
  188.1070  174.6250  135.9240 C   0  0  0  0  0  3  0  0  0  0  0  0
  190.4430  173.1740  136.4160 C   0  0  0  0  0  3  0  0  0  0  0  0
  1 12  2  0  0  0  0
  3 11  1  0  0  0  0
  4 14  1  0  0  0  0
  5 10  2  0  0  0  0
  6  2  2  0  0  0  0
  6  5  1  0  0  0  0
  7 17  1  0  0  0  0
  8  2  1  1  0  0  0
  8  3  1  0  0  0  0
  8  1  1  0  0  0  0
  9  4  1  0  0  0  0
 10  1  1  0  0  0  0
 11 15  1  0  0  0  0
 11 18  2  0  0  0  0
 12 18  1  0  0  0  0
 13  2  1  0  0  0  0
 14 15  2  0  0  0  0
 15 21  1  0  0  0  0
 16 27  1  6  0  0  0
 16  7  1  0  0  0  0
 16  9  1  0  0  0  0
 17  4  1  0  0  0  0
 17  3  2  0  0  0  0
 19 25  1  0  0  0  0
 19 20  1  0  0  0  0
 21 23  1  0  0  0  0
 21 24  2  0  0  0  0
 22 20  2  0  0  0  0
 23 19  2  0  0  0  0
 24 22  1  0  0  0  0
 27 26  2  0  0  0  0
 29 30  1  0  0  0  0
 29 26  1  0  0  0  0
 30 28  1  0  0  0  0
 31 34  1  0  0  0  0
 32 31  2  0  0  0  0
 32 33  1  0  0  0  0
 33 29  2  0  0  0  0
 34 30  2  0  0  0  0
M  END
>  <MODEL>
1

>  <REMARK>
 VINA RESULT:      -9.7      0.000      0.000
  Name = 
  3 active torsions:
  status: ('A' for Active; 'I' for Inactive)
    1  A    between atoms: C_3  and  C_13
    2  A    between atoms: C_12  and  C_28
    3  A    between atoms: C_17  and  C_29
                            x       y       z     vdW  Elec       q    Type
                         _______ _______ _______ _____ _____    ______ ____

>  <TORSDO>
F 3

$$$$
=
 OpenBabel10252415013D

 34 39  0  0  1  0  0  0  0  0999 V2000
  188.2450  178.2530  139.0040 C   0  0  0  0  0  0  0  0  0  0  0  0
  186.4890  177.1350  137.6520 C   0  0  0  0  0  0  0  0  0  0  0  0
  185.8400  178.3760  139.8170 C   0  0  0  0  0  0  0  0  0  0  0  0
  183.7020  178.8710  140.7780 N   0  0  0  0  0  0  0  0  0  0  0  0
  188.8140  177.2860  136.8640 C   0  0  0  0  0  3  0  0  0  0  0  0
  187.4370  176.7490  136.7850 C   0  0  0  0  0  3  0  0  0  0  0  0
  183.8400  178.9720  138.3920 C   0  0  0  0  0  2  0  0  0  0  0  0
  186.7790  178.2600  138.6300 C   0  0  0  0  0  0  0  0  0  0  0  0
  182.3680  179.2470  140.3730 C   0  0  0  0  0  2  0  0  0  0  0  0
  189.2130  177.9890  137.9320 C   0  0  0  0  0  2  0  0  0  0  0  0
  186.3840  178.3500  141.2080 C   0  0  0  0  0  0  0  0  0  0  0  0
  188.6600  178.3140  140.2690 C   0  0  0  0  0  3  0  0  0  0  0  0
  185.2370  176.5360  137.5910 O   0  0  0  0  0  1  0  0  0  0  0  0
  184.1520  178.7180  142.1250 C   0  0  0  0  0  3  0  0  0  0  0  0
  185.4430  178.4500  142.3750 C   0  0  0  0  0  0  0  0  0  0  0  0
  182.4060  179.2960  138.8350 C   0  0  1  0  0  3  0  0  0  0  0  0
  184.5460  178.6910  139.6630 C   0  0  0  0  0  0  0  0  0  0  0  0
  187.7090  178.3680  141.3910 C   0  0  0  0  0  3  0  0  0  0  0  0
  187.4590  177.4020  145.4250 C   0  0  0  0  0  0  0  0  0  0  0  0
  186.6580  177.8810  146.4630 C   0  0  0  0  0  3  0  0  0  0  0  0
  185.8760  178.2660  143.7870 C   0  0  0  0  0  0  0  0  0  0  0  0
  185.4650  178.5470  146.1740 C   0  0  0  0  0  3  0  0  0  0  0  0
  187.0690  177.5900  144.0970 C   0  0  0  0  0  3  0  0  0  0  0  0
  185.0760  178.7350  144.8440 C   0  0  0  0  0  3  0  0  0  0  0  0
  188.6140  176.7530  145.7050 F   0  0  0  0  0  0  0  0  0  0  0  0
  181.2060  180.8010  137.3140 C   0  0  0  0  0  3  0  0  0  0  0  0
  182.0300  180.6530  138.3470 C   0  0  0  0  0  3  0  0  0  0  0  0
  180.3150  181.1360  134.6290 O   0  0  0  0  0  1  0  0  0  0  0  0
  180.8030  182.1200  136.7960 C   0  0  0  0  0  0  0  0  0  0  0  0
  180.3690  182.2460  135.4650 C   0  0  0  0  0  0  0  0  0  0  0  0
  180.0300  184.6240  135.7890 C   0  0  0  0  0  3  0  0  0  0  0  0
  180.4600  184.5080  137.1130 C   0  0  0  0  0  3  0  0  0  0  0  0
  180.8450  183.2620  137.6150 C   0  0  0  0  0  3  0  0  0  0  0  0
  179.9840  183.4950  134.9680 C   0  0  0  0  0  3  0  0  0  0  0  0
  1 12  2  0  0  0  0
  2  8  2  0  0  0  0
  3 11  1  0  0  0  0
  4 14  1  0  0  0  0
  5 10  1  0  0  0  0
  6  5  2  0  0  0  0
  6  2  1  0  0  0  0
  7 16  1  0  0  0  0
  7 17  1  0  0  0  0
  8  1  1  0  0  0  0
  8  3  1  0  0  0  0
  9  4  1  0  0  0  0
 10  1  1  0  0  0  0
 11 18  2  0  0  0  0
 11 15  1  0  0  0  0
 12 18  1  0  0  0  0
 13  2  1  0  0  0  0
 14 15  2  0  0  0  0
 15 21  1  0  0  0  0
 16 27  1  1  0  0  0
 16  9  1  0  0  0  0
 17  3  2  0  0  0  0
 17  4  1  0  0  0  0
 19 25  1  0  0  0  0
 19 20  1  0  0  0  0
 21 23  1  0  0  0  0
 21 24  2  0  0  0  0
 22 20  2  0  0  0  0
 23 19  2  0  0  0  0
 24 22  1  0  0  0  0
 26 27  2  0  0  0  0
 28 30  1  0  0  0  0
 29 26  1  0  0  0  0
 29 33  1  0  0  0  0
 30 29  2  0  0  0  0
 31 32  1  0  0  0  0
 32 33  2  0  0  0  0
 34 30  1  0  0  0  0
 34 31  2  0  0  0  0
M  END
>  <MODEL>
2

>  <REMARK>
 VINA RESULT:      -9.6      2.437      7.296
  Name = 
  3 active torsions:
  status: ('A' for Active; 'I' for Inactive)
    1  A    between atoms: C_3  and  C_13
    2  A    between atoms: C_12  and  C_28
    3  A    between atoms: C_17  and  C_29
                            x       y       z     vdW  Elec       q    Type
                         _______ _______ _______ _____ _____    ______ ____

>  <TORSDO>
F 3

$$$$
=
 OpenBabel10252415013D

 34 39  0  0  1  0  0  0  0  0999 V2000
  186.8330  177.3560  145.0470 C   0  0  0  0  0  0  0  0  0  0  0  0
  185.3250  179.3080  144.7630 C   0  0  0  0  0  0  0  0  0  0  0  0
  186.3350  178.1580  142.6880 C   0  0  0  0  0  0  0  0  0  0  0  0
  185.9480  178.4920  140.3460 N   0  0  0  0  0  0  0  0  0  0  0  0
  185.7080  178.2920  146.9700 C   0  0  0  0  0  3  0  0  0  0  0  0
  185.2000  179.3740  146.0960 C   0  0  0  0  0  3  0  0  0  0  0  0
  184.0410  178.6990  141.7760 C   0  0  0  0  0  2  0  0  0  0  0  0
  185.8480  178.0360  144.1200 C   0  0  1  0  0  3  0  0  0  0  0  0
  184.8670  178.7890  139.4360 C   0  0  0  0  0  2  0  0  0  0  0  0
  186.5060  177.3360  146.4790 C   0  0  0  0  0  3  0  0  0  0  0  0
  187.7240  177.7400  142.3290 C   0  0  0  0  0  0  0  0  0  0  0  0
  188.0290  176.9360  144.6360 C   0  0  0  0  0  3  0  0  0  0  0  0
  184.9110  180.3880  143.9920 O   0  0  0  0  0  1  0  0  0  0  0  0
  187.3030  178.2340  139.9760 C   0  0  0  0  0  3  0  0  0  0  0  0
  188.1990  177.8810  140.9110 C   0  0  0  0  0  0  0  0  0  0  0  0
  183.6200  178.9590  140.3230 C   0  0  1  0  0  3  0  0  0  0  0  0
  185.4990  178.4560  141.6830 C   0  0  0  0  0  0  0  0  0  0  0  0
  188.4790  177.1280  143.2490 C   0  0  0  0  0  3  0  0  0  0  0  0
  191.2530  177.0610  138.7980 C   0  0  0  0  0  0  0  0  0  0  0  0
  192.2770  177.1610  139.7430 C   0  0  0  0  0  3  0  0  0  0  0  0
  189.6100  177.6480  140.4980 C   0  0  0  0  0  0  0  0  0  0  0  0
  191.9770  177.4970  141.0640 C   0  0  0  0  0  3  0  0  0  0  0  0
  189.9290  177.3000  139.1750 C   0  0  0  0  0  3  0  0  0  0  0  0
  190.6510  177.7360  141.4400 C   0  0  0  0  0  3  0  0  0  0  0  0
  191.5430  176.7310  137.5170 F   0  0  0  0  0  0  0  0  0  0  0  0
  182.8840  176.7490  139.5510 C   0  0  0  0  0  3  0  0  0  0  0  0
  182.5640  177.9840  139.9290 C   0  0  0  0  0  3  0  0  0  0  0  0
  183.2370  175.1180  137.2430 O   0  0  0  0  0  1  0  0  0  0  0  0
  181.8770  175.7500  139.1550 C   0  0  0  0  0  0  0  0  0  0  0  0
  182.0860  174.9620  138.0090 C   0  0  0  0  0  0  0  0  0  0  0  0
  179.9720  173.8380  138.3820 C   0  0  0  0  0  3  0  0  0  0  0  0
  179.7560  174.6150  139.5220 C   0  0  0  0  0  3  0  0  0  0  0  0
  180.7040  175.5670  139.9070 C   0  0  0  0  0  3  0  0  0  0  0  0
  181.1350  174.0110  137.6280 C   0  0  0  0  0  3  0  0  0  0  0  0
  1 10  1  0  0  0  0
  2  6  2  0  0  0  0
  4 17  1  0  0  0  0
  6  5  1  0  0  0  0
  8  3  1  6  0  0  0
  8  2  1  0  0  0  0
  8  1  1  0  0  0  0
  9 16  1  0  0  0  0
  9  4  1  0  0  0  0
 10  5  2  0  0  0  0
 11  3  1  0  0  0  0
 11 18  2  0  0  0  0
 12  1  2  0  0  0  0
 13  2  1  0  0  0  0
 14  4  1  0  0  0  0
 14 15  2  0  0  0  0
 15 11  1  0  0  0  0
 16 27  1  6  0  0  0
 16  7  1  0  0  0  0
 17  7  1  0  0  0  0
 17  3  2  0  0  0  0
 18 12  1  0  0  0  0
 19 23  2  0  0  0  0
 19 20  1  0  0  0  0
 20 22  2  0  0  0  0
 21 15  1  0  0  0  0
 21 24  2  0  0  0  0
 22 24  1  0  0  0  0
 23 21  1  0  0  0  0
 25 19  1  0  0  0  0
 26 27  2  0  0  0  0
 28 30  1  0  0  0  0
 29 26  1  0  0  0  0
 29 33  1  0  0  0  0
 30 29  2  0  0  0  0
 31 32  1  0  0  0  0
 32 33  2  0  0  0  0
 34 30  1  0  0  0  0
 34 31  2  0  0  0  0
M  END
>  <MODEL>
3

>  <REMARK>
 VINA RESULT:      -9.5      3.323      6.780
  Name = 
  3 active torsions:
  status: ('A' for Active; 'I' for Inactive)
    1  A    between atoms: C_3  and  C_13
    2  A    between atoms: C_12  and  C_28
    3  A    between atoms: C_17  and  C_29
                            x       y       z     vdW  Elec       q    Type
                         _______ _______ _______ _____ _____    ______ ____

>  <TORSDO>
F 3

$$$$
=
 OpenBabel10252415013D

 34 39  0  0  1  0  0  0  0  0999 V2000
  187.4820  178.3670  138.6680 C   0  0  0  0  0  0  0  0  0  0  0  0
  185.5700  177.2810  137.5150 C   0  0  0  0  0  0  0  0  0  0  0  0
  185.2070  178.4230  139.7980 C   0  0  0  0  0  0  0  0  0  0  0  0
  183.2120  178.8490  141.0550 N   0  0  0  0  0  0  0  0  0  0  0  0
  187.7680  177.4970  136.4320 C   0  0  0  0  0  3  0  0  0  0  0  0
  186.3970  176.9440  136.5140 C   0  0  0  0  0  3  0  0  0  0  0  0
  183.0290  179.0500  138.6790 C   0  0  0  0  0  2  0  0  0  0  0  0
  185.9790  178.3690  138.4930 C   0  0  0  0  0  0  0  0  0  0  0  0
  181.8330  179.2230  140.8480 C   0  0  0  0  0  2  0  0  0  0  0  0
  188.3000  178.1600  137.4660 C   0  0  0  0  0  2  0  0  0  0  0  0
  185.9320  178.3470  141.1020 C   0  0  0  0  0  0  0  0  0  0  0  0
  188.0620  178.3800  139.8680 C   0  0  0  0  0  3  0  0  0  0  0  0
  184.3260  176.6690  137.5960 O   0  0  0  0  0  1  0  0  0  0  0  0
  183.8390  178.6460  142.3230 C   0  0  0  0  0  3  0  0  0  0  0  0
  185.1540  178.3850  142.3870 C   0  0  0  0  0  0  0  0  0  0  0  0
  181.6650  179.3360  139.3220 C   0  0  1  0  0  3  0  0  0  0  0  0
  183.9010  178.7270  139.8320 C   0  0  0  0  0  0  0  0  0  0  0  0
  187.2690  178.3760  141.1070 C   0  0  0  0  0  3  0  0  0  0  0  0
  185.8030  178.4830  146.1330 C   0  0  0  0  0  0  0  0  0  0  0  0
  186.9810  177.7390  146.2280 C   0  0  0  0  0  3  0  0  0  0  0  0
  185.7730  178.1490  143.7200 C   0  0  0  0  0  0  0  0  0  0  0  0
  187.5630  177.2030  145.0780 C   0  0  0  0  0  3  0  0  0  0  0  0
  185.2060  178.6900  144.8860 C   0  0  0  0  0  3  0  0  0  0  0  0
  186.9640  177.4100  143.8320 C   0  0  0  0  0  3  0  0  0  0  0  0
  185.2400  179.0070  147.2480 F   0  0  0  0  0  0  0  0  0  0  0  0
  181.2370  181.1080  137.6780 C   0  0  0  0  0  3  0  0  0  0  0  0
  181.2170  180.7070  138.9470 C   0  0  0  0  0  3  0  0  0  0  0  0
  182.7620  183.4280  138.3100 O   0  0  0  0  0  1  0  0  0  0  0  0
  180.8020  182.4510  137.2580 C   0  0  0  0  0  0  0  0  0  0  0  0
  181.5820  183.5730  137.5880 C   0  0  0  0  0  0  0  0  0  0  0  0
  179.9940  185.0190  136.4660 C   0  0  0  0  0  3  0  0  0  0  0  0
  179.2140  183.9110  136.1340 C   0  0  0  0  0  3  0  0  0  0  0  0
  179.6150  182.6310  136.5270 C   0  0  0  0  0  3  0  0  0  0  0  0
  181.1760  184.8510  137.1920 C   0  0  0  0  0  3  0  0  0  0  0  0
  1 12  2  0  0  0  0
  2 13  1  0  0  0  0
  2  8  2  0  0  0  0
  3 17  2  0  0  0  0
  3 11  1  0  0  0  0
  4 14  1  0  0  0  0
  5  6  2  0  0  0  0
  5 10  1  0  0  0  0
  6  2  1  0  0  0  0
  7 16  1  0  0  0  0
  7 17  1  0  0  0  0
  8  1  1  0  0  0  0
  8  3  1  0  0  0  0
  9  4  1  0  0  0  0
 10  1  1  0  0  0  0
 11 18  2  0  0  0  0
 11 15  1  0  0  0  0
 12 18  1  0  0  0  0
 14 15  2  0  0  0  0
 15 21  1  0  0  0  0
 16 27  1  1  0  0  0
 16  9  1  0  0  0  0
 17  4  1  0  0  0  0
 19 20  1  0  0  0  0
 19 25  1  0  0  0  0
 21 24  2  0  0  0  0
 21 23  1  0  0  0  0
 22 20  2  0  0  0  0
 23 19  2  0  0  0  0
 24 22  1  0  0  0  0
 26 27  2  0  0  0  0
 29 30  1  0  0  0  0
 29 26  1  0  0  0  0
 30 28  1  0  0  0  0
 31 34  1  0  0  0  0
 32 31  2  0  0  0  0
 32 33  1  0  0  0  0
 33 29  2  0  0  0  0
 34 30  2  0  0  0  0
M  END
>  <MODEL>
4

>  <REMARK>
 VINA RESULT:      -9.4      2.498      7.329
  Name = 
  3 active torsions:
  status: ('A' for Active; 'I' for Inactive)
    1  A    between atoms: C_3  and  C_13
    2  A    between atoms: C_12  and  C_28
    3  A    between atoms: C_17  and  C_29
                            x       y       z     vdW  Elec       q    Type
                         _______ _______ _______ _____ _____    ______ ____

>  <TORSDO>
F 3

$$$$
=
 OpenBabel10252415013D

 34 39  0  0  1  0  0  0  0  0999 V2000
  191.9530  173.6960  136.8430 C   0  0  0  0  0  0  0  0  0  0  0  0
  193.3000  175.6990  137.4240 C   0  0  0  0  0  0  0  0  0  0  0  0
  190.7850  175.6400  137.9890 C   0  0  0  0  0  0  0  0  0  0  0  0
  189.4020  177.1620  139.2190 N   0  0  0  0  0  0  0  0  0  0  0  0
  194.3480  173.6640  136.5230 C   0  0  0  0  0  3  0  0  0  0  0  0
  194.3780  175.0950  136.9030 C   0  0  0  0  0  3  0  0  0  0  0  0
  191.6310  176.8610  140.0330 C   0  0  0  0  0  2  0  0  0  0  0  0
  192.0780  174.8730  137.7860 C   0  0  0  0  0  0  0  0  0  0  0  0
  189.4610  178.0170  140.3800 C   0  0  0  0  0  2  0  0  0  0  0  0
  193.1900  172.9950  136.4730 C   0  0  0  0  0  2  0  0  0  0  0  0
  189.5700  175.2850  137.1940 C   0  0  0  0  0  0  0  0  0  0  0  0
  190.8110  173.3910  136.2280 C   0  0  0  0  0  3  0  0  0  0  0  0
  193.3500  177.0630  137.6820 O   0  0  0  0  0  1  0  0  0  0  0  0
  188.2540  176.9540  138.3940 C   0  0  0  0  0  3  0  0  0  0  0  0
  188.3010  176.0630  137.3910 C   0  0  0  0  0  0  0  0  0  0  0  0
  190.8950  177.8740  140.9210 C   0  0  1  0  0  3  0  0  0  0  0  0
  190.6330  176.5120  138.9960 C   0  0  0  0  0  0  0  0  0  0  0  0
  189.5960  174.1990  136.4130 C   0  0  0  0  0  3  0  0  0  0  0  0
  185.0580  174.6920  135.9540 C   0  0  0  0  0  0  0  0  0  0  0  0
  184.8560  175.5440  134.8660 C   0  0  0  0  0  3  0  0  0  0  0  0
  187.0980  175.8900  136.5300 C   0  0  0  0  0  0  0  0  0  0  0  0
  185.7700  176.5640  134.6000 C   0  0  0  0  0  3  0  0  0  0  0  0
  186.1730  174.8620  136.7780 C   0  0  0  0  0  3  0  0  0  0  0  0
  186.8860  176.7350  135.4260 C   0  0  0  0  0  3  0  0  0  0  0  0
  184.1730  173.6980  136.2100 F   0  0  0  0  0  0  0  0  0  0  0  0
  190.1990  178.0330  143.2690 C   0  0  0  0  0  3  0  0  0  0  0  0
  190.8750  177.3800  142.3270 C   0  0  0  0  0  3  0  0  0  0  0  0
  187.7430  177.9350  144.7080 O   0  0  0  0  0  1  0  0  0  0  0  0
  190.1470  177.5840  144.6710 C   0  0  0  0  0  0  0  0  0  0  0  0
  188.9160  177.5490  145.3480 C   0  0  0  0  0  0  0  0  0  0  0  0
  190.0250  176.7310  147.3420 C   0  0  0  0  0  3  0  0  0  0  0  0
  191.2520  176.7620  146.6760 C   0  0  0  0  0  3  0  0  0  0  0  0
  191.3140  177.1870  145.3460 C   0  0  0  0  0  3  0  0  0  0  0  0
  188.8600  177.1230  146.6790 C   0  0  0  0  0  3  0  0  0  0  0  0
  1  8  1  0  0  0  0
  2 13  1  0  0  0  0
  2  8  2  0  0  0  0
  3 17  2  0  0  0  0
  4  9  1  0  0  0  0
  5  6  2  0  0  0  0
  6  2  1  0  0  0  0
  7 16  1  0  0  0  0
  8  3  1  0  0  0  0
  9 16  1  0  0  0  0
 10  5  1  0  0  0  0
 10  1  1  0  0  0  0
 11 15  1  0  0  0  0
 11  3  1  0  0  0  0
 12 18  1  0  0  0  0
 12  1  2  0  0  0  0
 14  4  1  0  0  0  0
 15 14  2  0  0  0  0
 16 27  1  1  0  0  0
 17  4  1  0  0  0  0
 17  7  1  0  0  0  0
 18 11  2  0  0  0  0
 19 25  1  0  0  0  0
 19 23  1  0  0  0  0
 20 19  2  0  0  0  0
 21 23  2  0  0  0  0
 21 15  1  0  0  0  0
 22 20  1  0  0  0  0
 22 24  2  0  0  0  0
 24 21  1  0  0  0  0
 26 29  1  0  0  0  0
 27 26  2  0  0  0  0
 28 30  1  0  0  0  0
 29 33  2  0  0  0  0
 29 30  1  0  0  0  0
 30 34  2  0  0  0  0
 32 31  2  0  0  0  0
 33 32  1  0  0  0  0
 34 31  1  0  0  0  0
M  END
>  <MODEL>
5

>  <REMARK>
 VINA RESULT:      -8.9      4.689      9.762
  Name = 
  3 active torsions:
  status: ('A' for Active; 'I' for Inactive)
    1  A    between atoms: C_3  and  C_13
    2  A    between atoms: C_12  and  C_28
    3  A    between atoms: C_17  and  C_29
                            x       y       z     vdW  Elec       q    Type
                         _______ _______ _______ _____ _____    ______ ____

>  <TORSDO>
F 3

$$$$
=
 OpenBabel10252415013D

 34 39  0  0  1  0  0  0  0  0999 V2000
  181.4360  178.9340  141.1360 C   0  0  0  0  0  0  0  0  0  0  0  0
  182.2730  180.3290  139.2610 C   0  0  0  0  0  0  0  0  0  0  0  0
  183.9180  178.8600  140.5970 C   0  0  0  0  0  0  0  0  0  0  0  0
  186.2420  178.3820  140.2660 N   0  0  0  0  0  0  0  0  0  0  0  0
  179.8680  180.1330  139.7410 C   0  0  0  0  0  3  0  0  0  0  0  0
  181.0210  180.7630  139.0570 C   0  0  0  0  0  3  0  0  0  0  0  0
  184.9100  178.5850  138.2890 C   0  0  0  0  0  2  0  0  0  0  0  0
  182.5080  179.0700  140.0770 C   0  0  1  0  0  3  0  0  0  0  0  0
  187.1810  178.1480  139.1940 C   0  0  0  0  0  2  0  0  0  0  0  0
  180.0590  179.2730  140.7490 C   0  0  0  0  0  3  0  0  0  0  0  0
  184.1560  178.6690  142.0600 C   0  0  0  0  0  0  0  0  0  0  0  0
  181.7200  178.6820  142.4130 C   0  0  0  0  0  3  0  0  0  0  0  0
  183.3280  181.0090  138.6650 O   0  0  0  0  0  1  0  0  0  0  0  0
  186.5410  178.3290  141.6620 C   0  0  0  0  0  3  0  0  0  0  0  0
  185.5580  178.4790  142.5640 C   0  0  0  0  0  0  0  0  0  0  0  0
  186.3660  178.2980  137.8970 C   0  0  1  0  0  3  0  0  0  0  0  0
  184.9510  178.6510  139.7680 C   0  0  0  0  0  0  0  0  0  0  0  0
  183.1080  178.5430  142.8810 C   0  0  0  0  0  3  0  0  0  0  0  0
  187.2780  177.6210  145.8460 C   0  0  0  0  0  0  0  0  0  0  0  0
  186.5200  178.3600  146.7570 C   0  0  0  0  0  3  0  0  0  0  0  0
  185.9060  178.4490  144.0120 C   0  0  0  0  0  0  0  0  0  0  0  0
  185.4530  179.1390  146.3050 C   0  0  0  0  0  3  0  0  0  0  0  0
  186.9700  177.6620  144.4840 C   0  0  0  0  0  3  0  0  0  0  0  0
  185.1460  179.1810  144.9420 C   0  0  0  0  0  3  0  0  0  0  0  0
  188.3110  176.8620  146.2840 F   0  0  0  0  0  0  0  0  0  0  0  0
  185.5390  176.0700  137.2850 C   0  0  0  0  0  3  0  0  0  0  0  0
  186.4260  177.0430  137.0960 C   0  0  0  0  0  3  0  0  0  0  0  0
  184.0450  175.7790  134.8780 O   0  0  0  0  0  1  0  0  0  0  0  0
  185.5560  174.8130  136.5170 C   0  0  0  0  0  0  0  0  0  0  0  0
  184.8060  174.7070  135.3330 C   0  0  0  0  0  0  0  0  0  0  0  0
  185.5750  172.4280  135.0370 C   0  0  0  0  0  3  0  0  0  0  0  0
  186.3240  172.5250  136.2110 C   0  0  0  0  0  3  0  0  0  0  0  0
  186.3150  173.7120  136.9490 C   0  0  0  0  0  3  0  0  0  0  0  0
  184.8180  173.5170  134.5980 C   0  0  0  0  0  3  0  0  0  0  0  0
  1 12  2  0  0  0  0
  3 11  1  0  0  0  0
  4 14  1  0  0  0  0
  5 10  2  0  0  0  0
  6  2  2  0  0  0  0
  6  5  1  0  0  0  0
  7 17  1  0  0  0  0
  8  2  1  1  0  0  0
  8  3  1  0  0  0  0
  8  1  1  0  0  0  0
  9  4  1  0  0  0  0
 10  1  1  0  0  0  0
 11 15  1  0  0  0  0
 11 18  2  0  0  0  0
 12 18  1  0  0  0  0
 13  2  1  0  0  0  0
 14 15  2  0  0  0  0
 15 21  1  0  0  0  0
 16 27  1  1  0  0  0
 16  7  1  0  0  0  0
 16  9  1  0  0  0  0
 17  4  1  0  0  0  0
 17  3  2  0  0  0  0
 19 25  1  0  0  0  0
 19 20  1  0  0  0  0
 21 23  1  0  0  0  0
 21 24  2  0  0  0  0
 22 20  2  0  0  0  0
 23 19  2  0  0  0  0
 24 22  1  0  0  0  0
 27 26  2  0  0  0  0
 28 30  1  0  0  0  0
 29 33  1  0  0  0  0
 29 26  1  0  0  0  0
 30 29  2  0  0  0  0
 31 32  1  0  0  0  0
 32 33  2  0  0  0  0
 34 31  2  0  0  0  0
 34 30  1  0  0  0  0
M  END
>  <MODEL>
6

>  <REMARK>
 VINA RESULT:      -8.7      2.070      2.389
  Name = 
  3 active torsions:
  status: ('A' for Active; 'I' for Inactive)
    1  A    between atoms: C_3  and  C_13
    2  A    between atoms: C_12  and  C_28
    3  A    between atoms: C_17  and  C_29
                            x       y       z     vdW  Elec       q    Type
                         _______ _______ _______ _____ _____    ______ ____

>  <TORSDO>
F 3

$$$$
=
 OpenBabel10252415013D

 34 39  0  0  1  0  0  0  0  0999 V2000
  186.9550  177.2540  144.7430 C   0  0  0  0  0  0  0  0  0  0  0  0
  185.5300  179.2700  144.4810 C   0  0  0  0  0  0  0  0  0  0  0  0
  186.5440  178.1390  142.3970 C   0  0  0  0  0  0  0  0  0  0  0  0
  186.2260  178.5530  140.0580 N   0  0  0  0  0  0  0  0  0  0  0  0
  185.8210  178.1790  146.6660 C   0  0  0  0  0  3  0  0  0  0  0  0
  185.3750  179.3040  145.8120 C   0  0  0  0  0  3  0  0  0  0  0  0
  184.2950  178.7940  141.4500 C   0  0  0  0  0  2  0  0  0  0  0  0
  186.0190  177.9970  143.8140 C   0  0  1  0  0  3  0  0  0  0  0  0
  185.1800  178.9180  139.1320 C   0  0  0  0  0  2  0  0  0  0  0  0
  186.5930  177.2070  146.1670 C   0  0  0  0  0  3  0  0  0  0  0  0
  187.9250  177.6780  142.0590 C   0  0  0  0  0  0  0  0  0  0  0  0
  188.1430  176.7990  144.3480 C   0  0  0  0  0  3  0  0  0  0  0  0
  185.1760  180.3860  143.7320 O   0  0  0  0  0  1  0  0  0  0  0  0
  187.5800  178.2530  139.7120 C   0  0  0  0  0  3  0  0  0  0  0  0
  188.4380  177.8400  140.6570 C   0  0  0  0  0  0  0  0  0  0  0  0
  183.9200  179.1110  139.9950 C   0  0  1  0  0  3  0  0  0  0  0  0
  185.7450  178.4980  141.3820 C   0  0  0  0  0  0  0  0  0  0  0  0
  188.6330  177.0120  142.9770 C   0  0  0  0  0  3  0  0  0  0  0  0
  192.2070  177.3660  140.8490 C   0  0  0  0  0  0  0  0  0  0  0  0
  192.5190  177.0900  139.5160 C   0  0  0  0  0  3  0  0  0  0  0  0
  189.8500  177.5640  140.2700 C   0  0  0  0  0  0  0  0  0  0  0  0
  191.5070  177.0560  138.5560 C   0  0  0  0  0  3  0  0  0  0  0  0
  190.8820  177.6050  141.2220 C   0  0  0  0  0  3  0  0  0  0  0  0
  190.1810  177.2940  138.9300 C   0  0  0  0  0  3  0  0  0  0  0  0
  193.1890  177.4040  141.7810 F   0  0  0  0  0  0  0  0  0  0  0  0
  182.2190  177.3930  140.4180 C   0  0  0  0  0  3  0  0  0  0  0  0
  182.8370  178.1890  139.5490 C   0  0  0  0  0  3  0  0  0  0  0  0
  179.7900  177.2290  141.8950 O   0  0  0  0  0  1  0  0  0  0  0  0
  181.1430  176.4670  140.0260 C   0  0  0  0  0  0  0  0  0  0  0  0
  179.9570  176.4150  140.7800 C   0  0  0  0  0  0  0  0  0  0  0  0
  179.0770  174.7120  139.2980 C   0  0  0  0  0  3  0  0  0  0  0  0
  180.2510  174.7580  138.5430 C   0  0  0  0  0  3  0  0  0  0  0  0
  181.2790  175.6310  138.9050 C   0  0  0  0  0  3  0  0  0  0  0  0
  178.9310  175.5390  140.4140 C   0  0  0  0  0  3  0  0  0  0  0  0
  1 10  1  0  0  0  0
  2  6  2  0  0  0  0
  4 17  1  0  0  0  0
  6  5  1  0  0  0  0
  8  3  1  6  0  0  0
  8  2  1  0  0  0  0
  8  1  1  0  0  0  0
  9 16  1  0  0  0  0
  9  4  1  0  0  0  0
 10  5  2  0  0  0  0
 11  3  1  0  0  0  0
 11 18  2  0  0  0  0
 12  1  2  0  0  0  0
 13  2  1  0  0  0  0
 14  4  1  0  0  0  0
 14 15  2  0  0  0  0
 15 11  1  0  0  0  0
 16 27  1  6  0  0  0
 16  7  1  0  0  0  0
 17  7  1  0  0  0  0
 17  3  2  0  0  0  0
 18 12  1  0  0  0  0
 19 23  1  0  0  0  0
 19 25  1  0  0  0  0
 20 19  2  0  0  0  0
 21 15  1  0  0  0  0
 21 23  2  0  0  0  0
 22 24  2  0  0  0  0
 22 20  1  0  0  0  0
 24 21  1  0  0  0  0
 27 26  2  0  0  0  0
 29 26  1  0  0  0  0
 29 30  1  0  0  0  0
 30 28  1  0  0  0  0
 31 34  1  0  0  0  0
 32 33  1  0  0  0  0
 32 31  2  0  0  0  0
 33 29  2  0  0  0  0
 34 30  2  0  0  0  0
M  END
>  <MODEL>
7

>  <REMARK>
 VINA RESULT:      -8.6      3.232      7.190
  Name = 
  3 active torsions:
  status: ('A' for Active; 'I' for Inactive)
    1  A    between atoms: C_3  and  C_13
    2  A    between atoms: C_12  and  C_28
    3  A    between atoms: C_17  and  C_29
                            x       y       z     vdW  Elec       q    Type
                         _______ _______ _______ _____ _____    ______ ____

>  <TORSDO>
F 3

$$$$
=
 OpenBabel10252415013D

 34 39  0  0  1  0  0  0  0  0999 V2000
  188.3590  175.1940  136.8740 C   0  0  0  0  0  0  0  0  0  0  0  0
  187.9160  177.5700  136.3060 C   0  0  0  0  0  0  0  0  0  0  0  0
  186.0390  176.1260  137.3250 C   0  0  0  0  0  0  0  0  0  0  0  0
  183.8310  176.6930  138.0670 N   0  0  0  0  0  0  0  0  0  0  0  0
  190.1730  176.6080  136.1330 C   0  0  0  0  0  3  0  0  0  0  0  0
  189.1830  177.6780  135.8780 C   0  0  0  0  0  3  0  0  0  0  0  0
  185.5380  178.3180  138.4800 C   0  0  0  0  0  2  0  0  0  0  0  0
  187.5240  176.4120  137.2070 C   0  0  0  0  0  0  0  0  0  0  0  0
  183.1310  177.7620  138.7390 C   0  0  0  0  0  2  0  0  0  0  0  0
  189.7840  175.4110  136.5890 C   0  0  0  0  0  2  0  0  0  0  0  0
  185.5080  174.7680  137.0000 C   0  0  0  0  0  0  0  0  0  0  0  0
  187.8210  173.9910  136.6740 C   0  0  0  0  0  3  0  0  0  0  0  0
  187.0030  178.5610  135.9660 O   0  0  0  0  0  1  0  0  0  0  0  0
  183.2550  175.4560  137.6420 C   0  0  0  0  0  3  0  0  0  0  0  0
  184.0330  174.5030  137.1060 C   0  0  0  0  0  0  0  0  0  0  0  0
  184.1930  178.8460  138.9990 C   0  0  1  0  0  3  0  0  0  0  0  0
  185.1960  177.0010  137.8940 C   0  0  0  0  0  0  0  0  0  0  0  0
  186.3670  173.7760  136.7450 C   0  0  0  0  0  3  0  0  0  0  0  0
  181.6610  172.0670  135.4020 C   0  0  0  0  0  0  0  0  0  0  0  0
  182.1780  170.8390  135.8230 C   0  0  0  0  0  3  0  0  0  0  0  0
  183.3980  173.2370  136.6450 C   0  0  0  0  0  0  0  0  0  0  0  0
  183.2970  170.8020  136.6560 C   0  0  0  0  0  3  0  0  0  0  0  0
  182.2650  173.2570  135.8140 C   0  0  0  0  0  3  0  0  0  0  0  0
  183.9010  171.9940  137.0670 C   0  0  0  0  0  3  0  0  0  0  0  0
  180.5720  172.1040  134.5970 F   0  0  0  0  0  0  0  0  0  0  0  0
  184.4060  178.1400  141.3400 C   0  0  0  0  0  3  0  0  0  0  0  0
  184.3010  179.1310  140.4580 C   0  0  0  0  0  3  0  0  0  0  0  0
  186.8330  177.6380  142.7430 O   0  0  0  0  0  1  0  0  0  0  0  0
  184.5170  178.3710  142.7900 C   0  0  0  0  0  0  0  0  0  0  0  0
  185.7320  178.1120  143.4480 C   0  0  0  0  0  0  0  0  0  0  0  0
  184.7520  178.8050  145.5530 C   0  0  0  0  0  3  0  0  0  0  0  0
  183.5420  179.0660  144.9080 C   0  0  0  0  0  3  0  0  0  0  0  0
  183.4240  178.8500  143.5320 C   0  0  0  0  0  3  0  0  0  0  0  0
  185.8450  178.3300  144.8250 C   0  0  0  0  0  3  0  0  0  0  0  0
  1  8  1  0  0  0  0
  2  8  2  0  0  0  0
  3 17  2  0  0  0  0
  4  9  1  0  0  0  0
  5 10  1  0  0  0  0
  6  5  2  0  0  0  0
  6  2  1  0  0  0  0
  7 16  1  0  0  0  0
  8  3  1  0  0  0  0
  9 16  1  0  0  0  0
 10  1  1  0  0  0  0
 11 15  1  0  0  0  0
 11  3  1  0  0  0  0
 12 18  1  0  0  0  0
 12  1  2  0  0  0  0
 13  2  1  0  0  0  0
 14  4  1  0  0  0  0
 15 14  2  0  0  0  0
 16 27  1  1  0  0  0
 17  4  1  0  0  0  0
 17  7  1  0  0  0  0
 18 11  2  0  0  0  0
 19 23  2  0  0  0  0
 19 20  1  0  0  0  0
 20 22  2  0  0  0  0
 21 24  2  0  0  0  0
 21 15  1  0  0  0  0
 22 24  1  0  0  0  0
 23 21  1  0  0  0  0
 25 19  1  0  0  0  0
 26 29  1  0  0  0  0
 27 26  2  0  0  0  0
 28 30  1  0  0  0  0
 29 30  2  0  0  0  0
 29 33  1  0  0  0  0
 30 34  1  0  0  0  0
 32 31  1  0  0  0  0
 33 32  2  0  0  0  0
 34 31  2  0  0  0  0
M  END
>  <MODEL>
8

>  <REMARK>
 VINA RESULT:      -8.5      4.204      8.957
  Name = 
  3 active torsions:
  status: ('A' for Active; 'I' for Inactive)
    1  A    between atoms: C_3  and  C_13
    2  A    between atoms: C_12  and  C_28
    3  A    between atoms: C_17  and  C_29
                            x       y       z     vdW  Elec       q    Type
                         _______ _______ _______ _____ _____    ______ ____

>  <TORSDO>
F 3

$$$$
=
 OpenBabel10252415013D

 34 39  0  0  1  0  0  0  0  0999 V2000
  187.1020  176.3170  136.3560 C   0  0  0  0  0  0  0  0  0  0  0  0
  188.6830  178.1520  136.8980 C   0  0  0  0  0  0  0  0  0  0  0  0
  186.6380  177.7350  138.4120 C   0  0  0  0  0  0  0  0  0  0  0  0
  185.9910  178.7100  140.5030 N   0  0  0  0  0  0  0  0  0  0  0  0
  189.1360  176.5660  135.0740 C   0  0  0  0  0  3  0  0  0  0  0  0
  189.4050  177.8160  135.8190 C   0  0  0  0  0  3  0  0  0  0  0  0
  188.3340  178.3520  140.1810 C   0  0  0  0  0  2  0  0  0  0  0  0
  187.6800  177.1650  137.4680 C   0  0  0  0  0  0  0  0  0  0  0  0
  186.5820  179.1820  141.7330 C   0  0  0  0  0  2  0  0  0  0  0  0
  188.0260  175.8550  135.3100 C   0  0  0  0  0  2  0  0  0  0  0  0
  185.1840  177.5410  138.1290 C   0  0  0  0  0  0  0  0  0  0  0  0
  185.7920  176.1220  136.2120 C   0  0  0  0  0  3  0  0  0  0  0  0
  188.9170  179.3770  137.5110 O   0  0  0  0  0  1  0  0  0  0  0  0
  184.5930  178.6700  140.2110 C   0  0  0  0  0  3  0  0  0  0  0  0
  184.1620  178.1250  139.0630 C   0  0  0  0  0  0  0  0  0  0  0  0
  188.0990  178.9940  141.5550 C   0  0  1  0  0  3  0  0  0  0  0  0
  186.9740  178.2530  139.6020 C   0  0  0  0  0  0  0  0  0  0  0  0
  184.8160  176.7430  137.1200 C   0  0  0  0  0  3  0  0  0  0  0  0
  180.4970  177.1130  138.9920 C   0  0  0  0  0  0  0  0  0  0  0  0
  179.9510  178.1090  138.1790 C   0  0  0  0  0  3  0  0  0  0  0  0
  182.7010  178.1250  138.7740 C   0  0  0  0  0  0  0  0  0  0  0  0
  180.7720  179.1100  137.6560 C   0  0  0  0  0  3  0  0  0  0  0  0
  181.8630  177.1200  139.2840 C   0  0  0  0  0  3  0  0  0  0  0  0
  182.1390  179.1160  137.9500 C   0  0  0  0  0  3  0  0  0  0  0  0
  179.7020  176.1390  139.4960 F   0  0  0  0  0  0  0  0  0  0  0  0
  189.3280  178.6060  143.6440 C   0  0  0  0  0  3  0  0  0  0  0  0
  188.6420  178.1040  142.6200 C   0  0  0  0  0  3  0  0  0  0  0  0
  191.8830  177.3720  143.4000 O   0  0  0  0  0  1  0  0  0  0  0  0
  189.8820  177.7670  144.7210 C   0  0  0  0  0  0  0  0  0  0  0  0
  191.1480  177.1750  144.5640 C   0  0  0  0  0  0  0  0  0  0  0  0
  190.9600  176.1680  146.7600 C   0  0  0  0  0  3  0  0  0  0  0  0
  189.7030  176.7530  146.9240 C   0  0  0  0  0  3  0  0  0  0  0  0
  189.1660  177.5500  145.9100 C   0  0  0  0  0  3  0  0  0  0  0  0
  191.6810  176.3790  145.5830 C   0  0  0  0  0  3  0  0  0  0  0  0
  1  8  1  0  0  0  0
  2  8  2  0  0  0  0
  2 13  1  0  0  0  0
  3 17  2  0  0  0  0
  4  9  1  0  0  0  0
  5 10  1  0  0  0  0
  5  6  2  0  0  0  0
  6  2  1  0  0  0  0
  7 16  1  0  0  0  0
  8  3  1  0  0  0  0
 10  1  1  0  0  0  0
 11  3  1  0  0  0  0
 11 15  1  0  0  0  0
 12  1  2  0  0  0  0
 12 18  1  0  0  0  0
 14  4  1  0  0  0  0
 15 14  2  0  0  0  0
 16  9  1  0  0  0  0
 16 27  1  1  0  0  0
 17  7  1  0  0  0  0
 17  4  1  0  0  0  0
 18 11  2  0  0  0  0
 19 23  1  0  0  0  0
 19 25  1  0  0  0  0
 20 19  2  0  0  0  0
 21 15  1  0  0  0  0
 21 23  2  0  0  0  0
 22 24  2  0  0  0  0
 22 20  1  0  0  0  0
 24 21  1  0  0  0  0
 26 29  1  0  0  0  0
 27 26  2  0  0  0  0
 28 30  1  0  0  0  0
 29 33  1  0  0  0  0
 30 29  2  0  0  0  0
 30 34  1  0  0  0  0
 31 32  1  0  0  0  0
 33 32  2  0  0  0  0
 34 31  2  0  0  0  0
M  END
>  <MODEL>
9

>  <REMARK>
 VINA RESULT:      -8.5      3.176      7.570
  Name = 
  3 active torsions:
  status: ('A' for Active; 'I' for Inactive)
    1  A    between atoms: C_3  and  C_13
    2  A    between atoms: C_12  and  C_28
    3  A    between atoms: C_17  and  C_29
                            x       y       z     vdW  Elec       q    Type
                         _______ _______ _______ _____ _____    ______ ____

>  <TORSDO>
F 3

$$$$
