=
 OpenBabel10262423283D

 34 39  0  0  1  0  0  0  0  0999 V2000
  188.1530  176.9060  138.4450 C   0  0  2  0  0  3  0  0  0  0  0  0
  186.2820  177.6330  135.0670 C   0  0  0  0  0  2  0  0  0  0  0  0
  188.5000  176.7310  135.5860 O   0  0  0  0  0  0  0  0  0  0  0  0
  190.4380  176.7570  140.0880 C   0  0  0  0  0  2  0  0  0  0  0  0
  188.3160  178.1180  139.3530 C   0  0  0  0  0  2  0  0  0  0  0  0
  190.5980  176.4970  138.6180 C   0  0  0  0  0  0  0  0  0  0  0  0
  191.9450  175.9290  136.6850 C   0  0  0  0  0  3  0  0  0  0  0  0
  191.8290  176.1400  138.0680 C   0  0  0  0  0  3  0  0  0  0  0  0
  189.4840  177.9470  140.3580 C   0  0  1  0  0  3  0  0  0  0  0  0
  189.5980  176.4630  136.4070 C   0  0  0  0  0  0  0  0  0  0  0  0
  189.4710  176.5920  137.7950 C   0  0  0  0  0  0  0  0  0  0  0  0
  190.8310  176.1030  135.8560 C   0  0  0  0  0  3  0  0  0  0  0  0
  185.8050  176.2620  134.5960 C   0  0  0  0  0  2  0  0  0  0  0  0
  184.6600  175.6980  135.4370 C   0  0  2  0  0  3  0  0  0  0  0  0
  184.8170  175.8930  136.9510 C   0  0  0  0  0  2  0  0  0  0  0  0
  187.4150  177.5120  136.0870 C   0  0  2  0  0  3  0  0  0  0  0  0
  186.2440  175.6850  137.4370 C   0  0  0  0  0  2  0  0  0  0  0  0
  186.9650  177.0280  137.4800 C   0  0  1  0  0  3  0  0  0  0  0  0
  187.1170  177.9340  143.3570 C   0  0  0  0  0  3  0  0  0  0  0  0
  189.8980  177.8370  142.8240 C   0  0  0  0  0  3  0  0  0  0  0  0
  189.1280  177.7400  146.4460 N   0  0  0  0  0  0  0  0  0  0  0  0
  189.4160  177.6930  147.8480 C   0  0  0  0  0  0  0  0  0  0  0  0
  187.7830  177.8420  145.8680 C   0  0  0  0  0  2  0  0  0  0  0  0
  190.5930  177.5010  148.2510 O   0  0  0  0  0  0  0  0  0  0  0  0
  188.0470  177.8580  144.3910 C   0  0  0  0  0  0  0  0  0  0  0  0
  188.3250  177.8420  148.8490 C   0  0  0  0  0  1  0  0  0  0  0  0
  190.0820  177.7500  145.3870 C   0  0  0  0  0  0  0  0  0  0  0  0
  189.3970  177.8130  144.1240 C   0  0  0  0  0  0  0  0  0  0  0  0
  191.3310  177.7360  145.5470 O   0  0  0  0  0  0  0  0  0  0  0  0
  188.9770  177.9160  141.7650 C   0  0  0  0  0  0  0  0  0  0  0  0
  187.5910  177.9590  142.0350 C   0  0  0  0  0  3  0  0  0  0  0  0
  184.4670  174.2270  135.0910 C   0  0  0  0  0  2  0  0  0  0  0  0
  183.1700  173.4760  136.1220 S   0  0  0  0  0  0  0  0  0  0  0  0
  184.3240  172.2510  136.8010 C   0  0  0  0  0  1  0  0  0  0  0  0
  1  5  1  6  0  0  0
  3 16  1  0  0  0  0
  3 10  1  0  0  0  0
  4  9  1  0  0  0  0
  5  9  1  0  0  0  0
  6  4  1  0  0  0  0
  7  8  2  0  0  0  0
  8  6  1  0  0  0  0
  9 30  1  1  0  0  0
 10 11  1  0  0  0  0
 11  1  1  0  0  0  0
 11  6  2  0  0  0  0
 12 10  2  0  0  0  0
 12  7  1  0  0  0  0
 13  2  1  0  0  0  0
 13 14  1  0  0  0  0
 14 32  1  1  0  0  0
 14 15  1  0  0  0  0
 15 17  1  0  0  0  0
 16  2  1  6  0  0  0
 16 18  1  0  0  0  0
 18 17  1  6  0  0  0
 18  1  1  0  0  0  0
 19 25  1  0  0  0  0
 20 28  1  0  0  0  0
 21 22  1  0  0  0  0
 22 24  2  0  0  0  0
 22 26  1  0  0  0  0
 23 21  1  0  0  0  0
 25 23  1  0  0  0  0
 27 29  2  0  0  0  0
 27 21  1  0  0  0  0
 28 25  2  0  0  0  0
 28 27  1  0  0  0  0
 30 31  1  0  0  0  0
 30 20  2  0  0  0  0
 31 19  2  0  0  0  0
 32 33  1  0  0  0  0
 33 34  1  0  0  0  0
M  END
>  <MODEL>
1

>  <REMARK>
 VINA RESULT:      -8.8      0.000      0.000
  Name = 
  3 active torsions:
  status: ('A' for Active; 'I' for Inactive)
    1  A    between atoms: C_3  and  S_13
    2  A    between atoms: C_3  and  C_25
    3  A    between atoms: C_18  and  C_30
                            x       y       z     vdW  Elec       q    Type
                         _______ _______ _______ _____ _____    ______ ____

>  <TORSDO>
F 3

$$$$
=
 OpenBabel10262423283D

 34 39  0  0  1  0  0  0  0  0999 V2000
  183.0870  177.4010  139.8220 C   0  0  2  0  0  3  0  0  0  0  0  0
  179.6880  177.1670  137.8660 C   0  0  0  0  0  2  0  0  0  0  0  0
  182.0300  177.1880  137.1460 O   0  0  0  0  0  0  0  0  0  0  0  0
  185.7660  178.2150  140.1480 C   0  0  0  0  0  2  0  0  0  0  0  0
  183.2330  178.6410  140.6950 C   0  0  0  0  0  2  0  0  0  0  0  0
  185.2680  177.9410  138.7590 C   0  0  0  0  0  0  0  0  0  0  0  0
  185.5990  177.7950  136.3630 C   0  0  0  0  0  3  0  0  0  0  0  0
  186.1070  178.0330  137.6490 C   0  0  0  0  0  3  0  0  0  0  0  0
  184.7160  178.9800  140.9930 C   0  0  1  0  0  3  0  0  0  0  0  0
  183.4020  177.3990  137.3050 C   0  0  0  0  0  0  0  0  0  0  0  0
  183.9330  177.5590  138.5900 C   0  0  0  0  0  0  0  0  0  0  0  0
  184.2440  177.4890  136.1920 C   0  0  0  0  0  3  0  0  0  0  0  0
  179.5620  175.6900  137.5020 C   0  0  0  0  0  2  0  0  0  0  0  0
  179.2580  174.7950  138.7040 C   0  0  2  0  0  3  0  0  0  0  0  0
  180.0540  175.1290  139.9720 C   0  0  0  0  0  2  0  0  0  0  0  0
  181.1330  177.5400  138.2000 C   0  0  2  0  0  3  0  0  0  0  0  0
  181.5030  175.4970  139.6910 C   0  0  0  0  0  2  0  0  0  0  0  0
  181.6250  177.0110  139.5630 C   0  0  1  0  0  3  0  0  0  0  0  0
  184.3630  179.1850  144.7920 C   0  0  0  0  0  3  0  0  0  0  0  0
  186.2230  178.2670  142.8600 C   0  0  0  0  0  3  0  0  0  0  0  0
  187.3890  177.7430  146.3360 N   0  0  0  0  0  0  0  0  0  0  0  0
  188.2930  177.3340  147.3700 C   0  0  0  0  0  0  0  0  0  0  0  0
  186.0950  178.3970  146.5620 C   0  0  0  0  0  2  0  0  0  0  0  0
  189.3340  176.6860  147.0870 O   0  0  0  0  0  0  0  0  0  0  0  0
  185.5720  178.6060  145.1710 C   0  0  0  0  0  0  0  0  0  0  0  0
  188.0000  177.6450  148.7950 C   0  0  0  0  0  1  0  0  0  0  0  0
  187.6070  177.6360  144.9320 C   0  0  0  0  0  0  0  0  0  0  0  0
  186.4700  178.1640  144.2270 C   0  0  0  0  0  0  0  0  0  0  0  0
  188.6520  177.1740  144.4020 O   0  0  0  0  0  0  0  0  0  0  0  0
  185.0100  178.8510  142.4530 C   0  0  0  0  0  0  0  0  0  0  0  0
  184.0840  179.3030  143.4200 C   0  0  0  0  0  3  0  0  0  0  0  0
  179.4550  173.3390  138.3010 C   0  0  0  0  0  2  0  0  0  0  0  0
  180.2320  173.2120  136.6610 S   0  0  0  0  0  0  0  0  0  0  0  0
  181.3430  171.8890  137.2140 C   0  0  0  0  0  1  0  0  0  0  0  0
  1  5  1  6  0  0  0
  3 10  1  0  0  0  0
  3 16  1  0  0  0  0
  4  9  1  0  0  0  0
  5  9  1  0  0  0  0
  6  4  1  0  0  0  0
  7  8  1  0  0  0  0
  8  6  2  0  0  0  0
  9 30  1  1  0  0  0
 10 11  2  0  0  0  0
 11  6  1  0  0  0  0
 11  1  1  0  0  0  0
 12  7  2  0  0  0  0
 12 10  1  0  0  0  0
 13  2  1  0  0  0  0
 13 14  1  0  0  0  0
 14 32  1  6  0  0  0
 14 15  1  0  0  0  0
 16  2  1  6  0  0  0
 16 18  1  0  0  0  0
 17 15  1  0  0  0  0
 18 17  1  6  0  0  0
 18  1  1  0  0  0  0
 19 25  1  0  0  0  0
 20 28  1  0  0  0  0
 21 23  1  0  0  0  0
 21 22  1  0  0  0  0
 22 26  1  0  0  0  0
 24 22  2  0  0  0  0
 25 23  1  0  0  0  0
 27 21  1  0  0  0  0
 28 27  1  0  0  0  0
 28 25  2  0  0  0  0
 29 27  2  0  0  0  0
 30 20  2  0  0  0  0
 30 31  1  0  0  0  0
 31 19  2  0  0  0  0
 33 34  1  0  0  0  0
 33 32  1  0  0  0  0
M  END
>  <MODEL>
2

>  <REMARK>
 VINA RESULT:      -8.7      3.441      4.879
  Name = 
  3 active torsions:
  status: ('A' for Active; 'I' for Inactive)
    1  A    between atoms: C_3  and  S_13
    2  A    between atoms: C_3  and  C_25
    3  A    between atoms: C_18  and  C_30
                            x       y       z     vdW  Elec       q    Type
                         _______ _______ _______ _____ _____    ______ ____

>  <TORSDO>
F 3

$$$$
=
 OpenBabel10262423283D

 34 39  0  0  1  0  0  0  0  0999 V2000
  190.9310  176.5160  138.4780 C   0  0  2  0  0  3  0  0  0  0  0  0
  192.4380  173.7860  136.0890 C   0  0  0  0  0  2  0  0  0  0  0  0
  191.0390  175.7590  135.6970 O   0  0  0  0  0  0  0  0  0  0  0  0
  188.9450  178.3410  139.2980 C   0  0  0  0  0  2  0  0  0  0  0  0
  190.0360  175.9690  139.5820 C   0  0  0  0  0  2  0  0  0  0  0  0
  189.1090  178.0770  137.8300 C   0  0  0  0  0  0  0  0  0  0  0  0
  188.5050  178.4550  135.5130 C   0  0  0  0  0  3  0  0  0  0  0  0
  188.3420  178.7460  136.8760 C   0  0  0  0  0  3  0  0  0  0  0  0
  189.0550  177.0380  140.1290 C   0  0  1  0  0  3  0  0  0  0  0  0
  190.1890  176.8030  136.0690 C   0  0  0  0  0  0  0  0  0  0  0  0
  190.0780  177.1560  137.4190 C   0  0  0  0  0  0  0  0  0  0  0  0
  189.4210  177.4750  135.1130 C   0  0  0  0  0  3  0  0  0  0  0  0
  193.6350  174.4720  135.4370 C   0  0  0  0  0  2  0  0  0  0  0  0
  194.8060  174.6850  136.3960 C   0  0  2  0  0  3  0  0  0  0  0  0
  194.4100  175.1690  137.7970 C   0  0  0  0  0  2  0  0  0  0  0  0
  191.4570  174.8040  136.6720 C   0  0  2  0  0  3  0  0  0  0  0  0
  193.2900  176.1980  137.7820 C   0  0  0  0  0  2  0  0  0  0  0  0
  191.9510  175.4920  137.9620 C   0  0  1  0  0  3  0  0  0  0  0  0
  190.9140  178.0120  143.3220 C   0  0  0  0  0  3  0  0  0  0  0  0
  188.3080  177.2490  142.5090 C   0  0  0  0  0  3  0  0  0  0  0  0
  188.5430  177.8970  146.1480 N   0  0  0  0  0  0  0  0  0  0  0  0
  188.0730  177.9870  147.4990 C   0  0  0  0  0  0  0  0  0  0  0  0
  189.9270  178.1360  145.7240 C   0  0  0  0  0  2  0  0  0  0  0  0
  186.8460  177.8660  147.7560 O   0  0  0  0  0  0  0  0  0  0  0  0
  189.8720  177.9090  144.2410 C   0  0  0  0  0  0  0  0  0  0  0  0
  189.0220  178.2530  148.6130 C   0  0  0  0  0  1  0  0  0  0  0  0
  187.7760  177.5140  145.0100 C   0  0  0  0  0  0  0  0  0  0  0  0
  188.6100  177.5370  143.8390 C   0  0  0  0  0  0  0  0  0  0  0  0
  186.5620  177.1800  145.0430 O   0  0  0  0  0  0  0  0  0  0  0  0
  189.3450  177.3440  141.5640 C   0  0  0  0  0  0  0  0  0  0  0  0
  190.6420  177.7290  141.9730 C   0  0  0  0  0  3  0  0  0  0  0  0
  195.8090  175.6340  135.7530 C   0  0  0  0  0  2  0  0  0  0  0  0
  194.9860  176.7690  134.5940 S   0  0  0  0  0  0  0  0  0  0  0  0
  196.1810  178.0920  134.9340 C   0  0  0  0  0  1  0  0  0  0  0  0
  1  5  1  1  0  0  0
  3 10  1  0  0  0  0
  3 16  1  0  0  0  0
  4  9  1  0  0  0  0
  5  9  1  0  0  0  0
  6  4  1  0  0  0  0
  7  8  1  0  0  0  0
  8  6  2  0  0  0  0
  9 30  1  1  0  0  0
 10 11  2  0  0  0  0
 11  6  1  0  0  0  0
 11  1  1  0  0  0  0
 12  7  2  0  0  0  0
 12 10  1  0  0  0  0
 13  2  1  0  0  0  0
 13 14  1  0  0  0  0
 14 32  1  6  0  0  0
 14 15  1  0  0  0  0
 16  2  1  6  0  0  0
 16 18  1  0  0  0  0
 17 15  1  0  0  0  0
 18 17  1  6  0  0  0
 18  1  1  0  0  0  0
 19 25  1  0  0  0  0
 20 28  1  0  0  0  0
 21 22  1  0  0  0  0
 22 24  2  0  0  0  0
 22 26  1  0  0  0  0
 23 21  1  0  0  0  0
 25 23  1  0  0  0  0
 27 29  2  0  0  0  0
 27 21  1  0  0  0  0
 28 25  2  0  0  0  0
 28 27  1  0  0  0  0
 30 31  1  0  0  0  0
 30 20  2  0  0  0  0
 31 19  2  0  0  0  0
 33 34  1  0  0  0  0
 33 32  1  0  0  0  0
M  END
>  <MODEL>
3

>  <REMARK>
 VINA RESULT:      -8.4      3.384      5.540
  Name = 
  3 active torsions:
  status: ('A' for Active; 'I' for Inactive)
    1  A    between atoms: C_3  and  S_13
    2  A    between atoms: C_3  and  C_25
    3  A    between atoms: C_18  and  C_30
                            x       y       z     vdW  Elec       q    Type
                         _______ _______ _______ _____ _____    ______ ____

>  <TORSDO>
F 3

$$$$
=
 OpenBabel10262423283D

 34 39  0  0  1  0  0  0  0  0999 V2000
  188.8910  176.7580  137.8830 C   0  0  2  0  0  3  0  0  0  0  0  0
  186.5110  177.8810  134.9650 C   0  0  0  0  0  2  0  0  0  0  0  0
  188.6230  176.6390  135.0130 O   0  0  0  0  0  0  0  0  0  0  0  0
  191.4100  176.2080  139.0220 C   0  0  0  0  0  2  0  0  0  0  0  0
  189.4180  177.8970  138.7460 C   0  0  0  0  0  2  0  0  0  0  0  0
  191.2270  175.9820  137.5500 C   0  0  0  0  0  0  0  0  0  0  0  0
  192.0540  175.2910  135.3790 C   0  0  0  0  0  3  0  0  0  0  0  0
  192.2520  175.4650  136.7570 C   0  0  0  0  0  3  0  0  0  0  0  0
  190.7240  177.5170  139.4890 C   0  0  1  0  0  3  0  0  0  0  0  0
  189.8090  176.1800  135.5910 C   0  0  0  0  0  0  0  0  0  0  0  0
  189.9860  176.2740  136.9760 C   0  0  0  0  0  0  0  0  0  0  0  0
  190.8350  175.6600  134.7960 C   0  0  0  0  0  3  0  0  0  0  0  0
  185.7440  176.6160  134.5940 C   0  0  0  0  0  2  0  0  0  0  0  0
  184.7190  176.1980  135.6490 C   0  0  2  0  0  3  0  0  0  0  0  0
  185.2070  176.3110  137.0990 C   0  0  0  0  0  2  0  0  0  0  0  0
  187.7950  177.5550  135.7310 C   0  0  2  0  0  3  0  0  0  0  0  0
  186.6530  175.8750  137.2820 C   0  0  0  0  0  2  0  0  0  0  0  0
  187.5650  177.0920  137.1840 C   0  0  1  0  0  3  0  0  0  0  0  0
  191.4120  177.4390  143.2470 C   0  0  0  0  0  3  0  0  0  0  0  0
  189.2030  177.5670  141.4760 C   0  0  0  0  0  3  0  0  0  0  0  0
  188.1880  177.5670  145.0390 N   0  0  0  0  0  0  0  0  0  0  0  0
  187.2760  177.5800  146.1440 C   0  0  0  0  0  0  0  0  0  0  0  0
  189.6470  177.4710  145.1550 C   0  0  0  0  0  2  0  0  0  0  0  0
  186.0460  177.7700  145.9530 O   0  0  0  0  0  0  0  0  0  0  0  0
  190.1050  177.4940  143.7260 C   0  0  0  0  0  0  0  0  0  0  0  0
  187.7730  177.3990  147.5340 C   0  0  0  0  0  1  0  0  0  0  0  0
  187.8410  177.5900  143.6570 C   0  0  0  0  0  0  0  0  0  0  0  0
  189.0370  177.5550  142.8600 C   0  0  0  0  0  0  0  0  0  0  0  0
  186.6620  177.6080  143.2140 O   0  0  0  0  0  0  0  0  0  0  0  0
  190.5130  177.5100  140.9700 C   0  0  0  0  0  0  0  0  0  0  0  0
  191.6120  177.4510  141.8560 C   0  0  0  0  0  3  0  0  0  0  0  0
  184.2370  174.7860  135.3420 C   0  0  0  0  0  2  0  0  0  0  0  0
  183.2350  174.1240  136.7080 S   0  0  0  0  0  0  0  0  0  0  0  0
  184.3220  172.6840  136.8990 C   0  0  0  0  0  1  0  0  0  0  0  0
  1  5  1  6  0  0  0
  3 10  1  0  0  0  0
  3 16  1  0  0  0  0
  4  9  1  0  0  0  0
  5  9  1  0  0  0  0
  6  4  1  0  0  0  0
  7  8  1  0  0  0  0
  8  6  2  0  0  0  0
  9 30  1  1  0  0  0
 10 11  2  0  0  0  0
 11  6  1  0  0  0  0
 11  1  1  0  0  0  0
 12  7  2  0  0  0  0
 12 10  1  0  0  0  0
 13  2  1  0  0  0  0
 13 14  1  0  0  0  0
 14 32  1  6  0  0  0
 14 15  1  0  0  0  0
 15 17  1  0  0  0  0
 16  2  1  6  0  0  0
 16 18  1  0  0  0  0
 18 17  1  6  0  0  0
 18  1  1  0  0  0  0
 19 25  1  0  0  0  0
 20 28  1  0  0  0  0
 21 23  1  0  0  0  0
 21 22  1  0  0  0  0
 22 26  1  0  0  0  0
 24 22  2  0  0  0  0
 25 23  1  0  0  0  0
 27 21  1  0  0  0  0
 28 27  1  0  0  0  0
 28 25  2  0  0  0  0
 29 27  2  0  0  0  0
 30 20  2  0  0  0  0
 30 31  1  0  0  0  0
 31 19  2  0  0  0  0
 32 33  1  0  0  0  0
 33 34  1  0  0  0  0
M  END
>  <MODEL>
4

>  <REMARK>
 VINA RESULT:      -8.4      1.561      2.071
  Name = 
  3 active torsions:
  status: ('A' for Active; 'I' for Inactive)
    1  A    between atoms: C_3  and  S_13
    2  A    between atoms: C_3  and  C_25
    3  A    between atoms: C_18  and  C_30
                            x       y       z     vdW  Elec       q    Type
                         _______ _______ _______ _____ _____    ______ ____

>  <TORSDO>
F 3

$$$$
=
 OpenBabel10262423283D

 34 39  0  0  1  0  0  0  0  0999 V2000
  183.6420  177.9960  138.9440 C   0  0  2  0  0  3  0  0  0  0  0  0
  184.0590  175.5700  135.8810 C   0  0  0  0  0  2  0  0  0  0  0  0
  182.7610  177.6200  136.2220 O   0  0  0  0  0  0  0  0  0  0  0  0
  182.1850  179.7520  140.5980 C   0  0  0  0  0  2  0  0  0  0  0  0
  183.1280  177.3310  140.2140 C   0  0  0  0  0  2  0  0  0  0  0  0
  181.8310  179.6850  139.1410 C   0  0  0  0  0  0  0  0  0  0  0  0
  180.5200  180.3930  137.2290 C   0  0  0  0  0  3  0  0  0  0  0  0
  180.8420  180.5010  138.5910 C   0  0  0  0  0  3  0  0  0  0  0  0
  182.4680  178.3450  141.1830 C   0  0  1  0  0  3  0  0  0  0  0  0
  182.1640  178.6290  136.9820 C   0  0  0  0  0  0  0  0  0  0  0  0
  182.5360  178.7990  138.3200 C   0  0  0  0  0  0  0  0  0  0  0  0
  181.1740  179.4490  136.4290 C   0  0  0  0  0  3  0  0  0  0  0  0
  185.0180  176.3020  134.9470 C   0  0  0  0  0  2  0  0  0  0  0  0
  186.4550  176.3460  135.4680 C   0  0  2  0  0  3  0  0  0  0  0  0
  186.5850  176.6470  136.9670 C   0  0  0  0  0  2  0  0  0  0  0  0
  183.4080  176.5290  136.8780 C   0  0  2  0  0  3  0  0  0  0  0  0
  185.6040  177.7030  137.4550 C   0  0  0  0  0  2  0  0  0  0  0  0
  184.3520  177.0200  137.9950 C   0  0  1  0  0  3  0  0  0  0  0  0
  183.3850  179.0990  144.8150 C   0  0  0  0  0  3  0  0  0  0  0  0
  184.5640  177.9690  142.4990 C   0  0  0  0  0  3  0  0  0  0  0  0
  186.8590  178.0050  145.4060 N   0  0  0  0  0  0  0  0  0  0  0  0
  188.0860  177.7850  146.1120 C   0  0  0  0  0  0  0  0  0  0  0  0
  185.6660  178.6410  145.9740 C   0  0  0  0  0  2  0  0  0  0  0  0
  189.0240  177.1380  145.5750 O   0  0  0  0  0  0  0  0  0  0  0  0
  184.6940  178.6240  144.8300 C   0  0  0  0  0  0  0  0  0  0  0  0
  188.2600  178.2930  147.4990 C   0  0  0  0  0  1  0  0  0  0  0  0
  186.6060  177.6980  144.0370 C   0  0  0  0  0  0  0  0  0  0  0  0
  185.2600  178.0780  143.7010 C   0  0  0  0  0  0  0  0  0  0  0  0
  187.4490  177.1990  143.2460 O   0  0  0  0  0  0  0  0  0  0  0  0
  183.2410  178.4440  142.4590 C   0  0  0  0  0  0  0  0  0  0  0  0
  182.6550  179.0020  143.6180 C   0  0  0  0  0  3  0  0  0  0  0  0
  187.2540  177.3430  134.6390 C   0  0  0  0  0  2  0  0  0  0  0  0
  189.0310  177.2280  135.0090 S   0  0  0  0  0  0  0  0  0  0  0  0
  189.0730  175.4620  134.5940 C   0  0  0  0  0  1  0  0  0  0  0  0
  1  5  1  1  0  0  0
  3 16  1  0  0  0  0
  3 10  1  0  0  0  0
  4  9  1  0  0  0  0
  5  9  1  0  0  0  0
  6  4  1  0  0  0  0
  7  8  2  0  0  0  0
  8  6  1  0  0  0  0
  9 30  1  1  0  0  0
 10 11  1  0  0  0  0
 11  1  1  0  0  0  0
 11  6  2  0  0  0  0
 12 10  2  0  0  0  0
 12  7  1  0  0  0  0
 13 14  1  0  0  0  0
 13  2  1  0  0  0  0
 14 32  1  6  0  0  0
 14 15  1  0  0  0  0
 15 17  1  0  0  0  0
 16  2  1  6  0  0  0
 16 18  1  0  0  0  0
 18 17  1  6  0  0  0
 18  1  1  0  0  0  0
 19 25  1  0  0  0  0
 20 28  1  0  0  0  0
 21 23  1  0  0  0  0
 21 22  1  0  0  0  0
 22 26  1  0  0  0  0
 24 22  2  0  0  0  0
 25 23  1  0  0  0  0
 27 21  1  0  0  0  0
 28 27  1  0  0  0  0
 28 25  2  0  0  0  0
 29 27  2  0  0  0  0
 30 20  2  0  0  0  0
 30 31  1  0  0  0  0
 31 19  2  0  0  0  0
 32 33  1  0  0  0  0
 34 33  1  0  0  0  0
M  END
>  <MODEL>
5

>  <REMARK>
 VINA RESULT:      -8.4      3.693      5.840
  Name = 
  3 active torsions:
  status: ('A' for Active; 'I' for Inactive)
    1  A    between atoms: C_3  and  S_13
    2  A    between atoms: C_3  and  C_25
    3  A    between atoms: C_18  and  C_30
                            x       y       z     vdW  Elec       q    Type
                         _______ _______ _______ _____ _____    ______ ____

>  <TORSDO>
F 3

$$$$
=
 OpenBabel10262423283D

 34 39  0  0  1  0  0  0  0  0999 V2000
  190.7560  176.8400  140.8320 C   0  0  2  0  0  3  0  0  0  0  0  0
  191.0310  179.1900  143.9690 C   0  0  0  0  0  2  0  0  0  0  0  0
  189.2260  178.7370  142.3750 O   0  0  0  0  0  0  0  0  0  0  0  0
  189.8500  176.1650  138.2490 C   0  0  0  0  0  2  0  0  0  0  0  0
  191.7910  177.1060  139.7470 C   0  0  0  0  0  2  0  0  0  0  0  0
  188.9690  177.0180  139.1140 C   0  0  0  0  0  0  0  0  0  0  0  0
  186.9220  178.2530  139.5150 C   0  0  0  0  0  3  0  0  0  0  0  0
  187.7070  177.4350  138.6880 C   0  0  0  0  0  3  0  0  0  0  0  0
  191.3380  176.5840  138.3590 C   0  0  1  0  0  3  0  0  0  0  0  0
  188.6810  178.2550  141.1820 C   0  0  0  0  0  0  0  0  0  0  0  0
  189.4230  177.3740  140.3880 C   0  0  0  0  0  0  0  0  0  0  0  0
  187.4150  178.6710  140.7560 C   0  0  0  0  0  3  0  0  0  0  0  0
  190.2830  178.4420  145.0680 C   0  0  0  0  0  2  0  0  0  0  0  0
  191.0290  177.2070  145.5750 C   0  0  2  0  0  3  0  0  0  0  0  0
  191.6800  176.3540  144.4780 C   0  0  0  0  0  2  0  0  0  0  0  0
  190.6380  178.6840  142.5800 C   0  0  2  0  0  3  0  0  0  0  0  0
  190.8180  176.2190  143.2320 C   0  0  0  0  0  2  0  0  0  0  0  0
  191.2090  177.2950  142.2260 C   0  0  1  0  0  3  0  0  0  0  0  0
  192.5670  173.3750  136.6880 C   0  0  0  0  0  3  0  0  0  0  0  0
  193.6090  175.5470  138.1810 C   0  0  0  0  0  3  0  0  0  0  0  0
  196.2070  173.0850  137.2260 N   0  0  0  0  0  0  0  0  0  0  0  0
  197.5230  172.5220  137.1670 C   0  0  0  0  0  0  0  0  0  0  0  0
  195.0040  172.4700  136.6560 C   0  0  0  0  0  2  0  0  0  0  0  0
  198.5140  173.1710  137.5940 O   0  0  0  0  0  0  0  0  0  0  0  0
  193.9230  173.4530  136.9990 C   0  0  0  0  0  0  0  0  0  0  0  0
  197.7420  171.1760  136.5740 C   0  0  0  0  0  1  0  0  0  0  0  0
  195.8340  174.2930  137.8850 C   0  0  0  0  0  0  0  0  0  0  0  0
  194.4210  174.5110  137.7260 C   0  0  0  0  0  0  0  0  0  0  0  0
  196.6240  175.0320  138.5290 O   0  0  0  0  0  0  0  0  0  0  0  0
  192.2370  175.4890  137.8820 C   0  0  0  0  0  0  0  0  0  0  0  0
  191.7220  174.4060  137.1320 C   0  0  0  0  0  3  0  0  0  0  0  0
  190.0850  176.3710  146.4290 C   0  0  0  0  0  2  0  0  0  0  0  0
  188.5070  177.2360  146.6990 S   0  0  0  0  0  0  0  0  0  0  0  0
  189.0550  177.8780  148.3050 C   0  0  0  0  0  1  0  0  0  0  0  0
  1  5  1  6  0  0  0
  1 18  1  0  0  0  0
  2 13  1  0  0  0  0
  3 16  1  0  0  0  0
  4  9  1  0  0  0  0
  4  6  1  0  0  0  0
  6 11  1  0  0  0  0
  7 12  2  0  0  0  0
  8  6  2  0  0  0  0
  8  7  1  0  0  0  0
  9 30  1  1  0  0  0
  9  5  1  0  0  0  0
 10  3  1  0  0  0  0
 11  1  1  0  0  0  0
 11 10  2  0  0  0  0
 12 10  1  0  0  0  0
 13 14  1  0  0  0  0
 14 32  1  6  0  0  0
 15 14  1  0  0  0  0
 16  2  1  1  0  0  0
 17 15  1  0  0  0  0
 18 16  1  0  0  0  0
 18 17  1  1  0  0  0
 19 25  2  0  0  0  0
 19 31  1  0  0  0  0
 21 27  1  0  0  0  0
 22 21  1  0  0  0  0
 22 24  2  0  0  0  0
 23 25  1  0  0  0  0
 23 21  1  0  0  0  0
 25 28  1  0  0  0  0
 26 22  1  0  0  0  0
 27 29  2  0  0  0  0
 28 27  1  0  0  0  0
 28 20  2  0  0  0  0
 30 20  1  0  0  0  0
 31 30  2  0  0  0  0
 32 33  1  0  0  0  0
 33 34  1  0  0  0  0
M  END
>  <MODEL>
6

>  <REMARK>
 VINA RESULT:      -8.3      4.623      9.347
  Name = 
  3 active torsions:
  status: ('A' for Active; 'I' for Inactive)
    1  A    between atoms: C_3  and  S_13
    2  A    between atoms: C_3  and  C_25
    3  A    between atoms: C_18  and  C_30
                            x       y       z     vdW  Elec       q    Type
                         _______ _______ _______ _____ _____    ______ ____

>  <TORSDO>
F 3

$$$$
=
 OpenBabel10262423283D

 34 39  0  0  1  0  0  0  0  0999 V2000
  182.7790  177.1170  139.0590 C   0  0  2  0  0  3  0  0  0  0  0  0
  181.3970  174.1830  136.8410 C   0  0  0  0  0  2  0  0  0  0  0  0
  181.4060  176.6180  136.5710 O   0  0  0  0  0  0  0  0  0  0  0  0
  182.7140  179.7230  140.1310 C   0  0  0  0  0  2  0  0  0  0  0  0
  182.2090  177.1680  140.4700 C   0  0  0  0  0  2  0  0  0  0  0  0
  182.1480  179.5010  138.7590 C   0  0  0  0  0  0  0  0  0  0  0  0
  181.0970  180.3060  136.7290 C   0  0  0  0  0  3  0  0  0  0  0  0
  181.6420  180.5550  137.9970 C   0  0  0  0  0  3  0  0  0  0  0  0
  182.3270  178.5790  141.1020 C   0  0  1  0  0  3  0  0  0  0  0  0
  181.5410  177.9390  137.0040 C   0  0  0  0  0  0  0  0  0  0  0  0
  182.1570  178.2060  138.2320 C   0  0  0  0  0  0  0  0  0  0  0  0
  181.0370  178.9960  136.2390 C   0  0  0  0  0  3  0  0  0  0  0  0
  182.4310  174.0290  135.7300 C   0  0  0  0  0  2  0  0  0  0  0  0
  183.7500  173.4220  136.2100 C   0  0  2  0  0  3  0  0  0  0  0  0
  184.2550  173.9630  137.5540 C   0  0  0  0  0  2  0  0  0  0  0  0
  181.4990  175.5510  137.5160 C   0  0  2  0  0  3  0  0  0  0  0  0
  184.0460  175.4620  137.7150 C   0  0  0  0  0  2  0  0  0  0  0  0
  182.7270  175.7150  138.4350 C   0  0  1  0  0  3  0  0  0  0  0  0
  183.6380  178.9810  144.6690 C   0  0  0  0  0  3  0  0  0  0  0  0
  184.5520  178.0880  142.1390 C   0  0  0  0  0  3  0  0  0  0  0  0
  187.1500  177.8530  144.7680 N   0  0  0  0  0  0  0  0  0  0  0  0
  188.4460  177.5730  145.3120 C   0  0  0  0  0  0  0  0  0  0  0  0
  186.0290  178.4250  145.5220 C   0  0  0  0  0  2  0  0  0  0  0  0
  189.3160  176.9860  144.6160 O   0  0  0  0  0  0  0  0  0  0  0  0
  184.9380  178.5140  144.4950 C   0  0  0  0  0  0  0  0  0  0  0  0
  188.7720  177.9450  146.7140 C   0  0  0  0  0  1  0  0  0  0  0  0
  186.7480  177.6800  143.4110 C   0  0  0  0  0  0  0  0  0  0  0  0
  185.3750  178.0830  143.2630 C   0  0  0  0  0  0  0  0  0  0  0  0
  187.4970  177.2650  142.4890 O   0  0  0  0  0  0  0  0  0  0  0  0
  183.2350  178.5570  142.2900 C   0  0  0  0  0  0  0  0  0  0  0  0
  182.7820  178.9970  143.5550 C   0  0  0  0  0  3  0  0  0  0  0  0
  184.8020  173.5940  135.1210 C   0  0  0  0  0  2  0  0  0  0  0  0
  186.4630  173.1970  135.7460 S   0  0  0  0  0  0  0  0  0  0  0  0
  187.1070  174.8240  135.2670 C   0  0  0  0  0  1  0  0  0  0  0  0
  1  5  1  1  0  0  0
  3 10  1  0  0  0  0
  3 16  1  0  0  0  0
  4  9  1  0  0  0  0
  5  9  1  0  0  0  0
  6  4  1  0  0  0  0
  7  8  1  0  0  0  0
  8  6  2  0  0  0  0
  9 30  1  1  0  0  0
 10 11  2  0  0  0  0
 11  6  1  0  0  0  0
 11  1  1  0  0  0  0
 12  7  2  0  0  0  0
 12 10  1  0  0  0  0
 13 14  1  0  0  0  0
 13  2  1  0  0  0  0
 14 32  1  6  0  0  0
 14 15  1  0  0  0  0
 15 17  1  0  0  0  0
 16  2  1  6  0  0  0
 16 18  1  0  0  0  0
 18 17  1  6  0  0  0
 18  1  1  0  0  0  0
 20 30  2  0  0  0  0
 20 28  1  0  0  0  0
 21 22  1  0  0  0  0
 21 23  1  0  0  0  0
 22 26  1  0  0  0  0
 24 22  2  0  0  0  0
 25 19  1  0  0  0  0
 25 23  1  0  0  0  0
 27 21  1  0  0  0  0
 28 27  1  0  0  0  0
 28 25  2  0  0  0  0
 29 27  2  0  0  0  0
 30 31  1  0  0  0  0
 31 19  2  0  0  0  0
 32 33  1  0  0  0  0
 34 33  1  0  0  0  0
M  END
>  <MODEL>
7

>  <REMARK>
 VINA RESULT:      -8.3      3.648      5.891
  Name = 
  3 active torsions:
  status: ('A' for Active; 'I' for Inactive)
    1  A    between atoms: C_3  and  S_13
    2  A    between atoms: C_3  and  C_25
    3  A    between atoms: C_18  and  C_30
                            x       y       z     vdW  Elec       q    Type
                         _______ _______ _______ _____ _____    ______ ____

>  <TORSDO>
F 3

$$$$
=
 OpenBabel10262423283D

 34 39  0  0  1  0  0  0  0  0999 V2000
  188.6930  176.9650  138.8150 C   0  0  2  0  0  3  0  0  0  0  0  0
  189.1870  176.7410  134.9240 C   0  0  0  0  0  2  0  0  0  0  0  0
  190.7410  176.6130  136.8140 O   0  0  0  0  0  0  0  0  0  0  0  0
  189.4730  177.6860  141.4260 C   0  0  0  0  0  2  0  0  0  0  0  0
  188.0420  178.2540  139.2990 C   0  0  0  0  0  2  0  0  0  0  0  0
  190.5420  177.3390  140.4320 C   0  0  0  0  0  0  0  0  0  0  0  0
  192.8660  177.0150  139.8220 C   0  0  0  0  0  3  0  0  0  0  0  0
  191.8920  177.3190  140.7850 C   0  0  0  0  0  3  0  0  0  0  0  0
  188.3570  178.5500  140.7880 C   0  0  1  0  0  3  0  0  0  0  0  0
  191.1320  176.7780  138.1450 C   0  0  0  0  0  0  0  0  0  0  0  0
  190.1620  177.0020  139.1290 C   0  0  0  0  0  0  0  0  0  0  0  0
  192.4840  176.7560  138.5000 C   0  0  0  0  0  3  0  0  0  0  0  0
  189.3570  175.2490  134.6500 C   0  0  0  0  0  2  0  0  0  0  0  0
  188.0630  174.4520  134.8160 C   0  0  2  0  0  3  0  0  0  0  0  0
  187.2230  174.8380  136.0400 C   0  0  0  0  0  2  0  0  0  0  0  0
  189.4570  177.0750  136.3920 C   0  0  2  0  0  3  0  0  0  0  0  0
  188.0610  175.1250  137.2770 C   0  0  0  0  0  2  0  0  0  0  0  0
  188.3460  176.6200  137.3600 C   0  0  1  0  0  3  0  0  0  0  0  0
  185.9960  178.1340  143.7630 C   0  0  0  0  0  3  0  0  0  0  0  0
  185.8780  178.8130  141.0130 C   0  0  0  0  0  3  0  0  0  0  0  0
  182.5510  178.8370  142.6410 N   0  0  0  0  0  0  0  0  0  0  0  0
  181.1270  178.9820  142.7170 C   0  0  0  0  0  0  0  0  0  0  0  0
  183.4130  178.4330  143.7560 C   0  0  0  0  0  2  0  0  0  0  0  0
  180.4800  179.4340  141.7360 O   0  0  0  0  0  0  0  0  0  0  0  0
  184.7840  178.4350  143.1450 C   0  0  0  0  0  0  0  0  0  0  0  0
  180.3970  178.6290  143.9630 C   0  0  0  0  0  1  0  0  0  0  0  0
  183.3570  179.0040  141.4770 C   0  0  0  0  0  0  0  0  0  0  0  0
  184.7350  178.7630  141.8090 C   0  0  0  0  0  0  0  0  0  0  0  0
  182.9140  179.2910  140.3340 O   0  0  0  0  0  0  0  0  0  0  0  0
  187.1120  178.5090  141.6150 C   0  0  0  0  0  0  0  0  0  0  0  0
  187.1670  178.1760  142.9880 C   0  0  0  0  0  3  0  0  0  0  0  0
  188.3940  172.9650  134.8260 C   0  0  0  0  0  2  0  0  0  0  0  0
  190.1830  172.6930  135.0120 S   0  0  0  0  0  0  0  0  0  0  0  0
  190.0170  170.9190  134.6690 C   0  0  0  0  0  1  0  0  0  0  0  0
  1 11  1  0  0  0  0
  1  5  1  6  0  0  0
  3 10  1  0  0  0  0
  5  9  1  0  0  0  0
  6  8  1  0  0  0  0
  6  4  1  0  0  0  0
  7  8  2  0  0  0  0
  9  4  1  0  0  0  0
  9 30  1  1  0  0  0
 10 12  2  0  0  0  0
 10 11  1  0  0  0  0
 11  6  2  0  0  0  0
 12  7  1  0  0  0  0
 13 14  1  0  0  0  0
 13  2  1  0  0  0  0
 14 32  1  1  0  0  0
 14 15  1  0  0  0  0
 15 17  1  0  0  0  0
 16  2  1  6  0  0  0
 16  3  1  0  0  0  0
 16 18  1  0  0  0  0
 18 17  1  1  0  0  0
 18  1  1  0  0  0  0
 20 30  2  0  0  0  0
 20 28  1  0  0  0  0
 21 22  1  0  0  0  0
 21 23  1  0  0  0  0
 22 26  1  0  0  0  0
 24 22  2  0  0  0  0
 25 23  1  0  0  0  0
 25 19  1  0  0  0  0
 27 28  1  0  0  0  0
 27 21  1  0  0  0  0
 28 25  2  0  0  0  0
 29 27  2  0  0  0  0
 30 31  1  0  0  0  0
 31 19  2  0  0  0  0
 32 33  1  0  0  0  0
 34 33  1  0  0  0  0
M  END
>  <MODEL>
8

>  <REMARK>
 VINA RESULT:      -8.2      3.861      5.034
  Name = 
  3 active torsions:
  status: ('A' for Active; 'I' for Inactive)
    1  A    between atoms: C_3  and  S_13
    2  A    between atoms: C_3  and  C_25
    3  A    between atoms: C_18  and  C_30
                            x       y       z     vdW  Elec       q    Type
                         _______ _______ _______ _____ _____    ______ ____

>  <TORSDO>
F 3

$$$$
=
 OpenBabel10262423283D

 34 39  0  0  1  0  0  0  0  0999 V2000
  184.2730  177.3470  138.7180 C   0  0  2  0  0  3  0  0  0  0  0  0
  181.1650  177.3190  136.3130 C   0  0  0  0  0  2  0  0  0  0  0  0
  183.5840  177.2980  135.9170 O   0  0  0  0  0  0  0  0  0  0  0  0
  186.9020  178.0570  139.4430 C   0  0  0  0  0  2  0  0  0  0  0  0
  184.3300  178.5370  139.6660 C   0  0  0  0  0  2  0  0  0  0  0  0
  186.5900  177.8670  137.9880 C   0  0  0  0  0  0  0  0  0  0  0  0
  187.2400  177.8270  135.6530 C   0  0  0  0  0  3  0  0  0  0  0  0
  187.5750  177.9860  137.0070 C   0  0  0  0  0  3  0  0  0  0  0  0
  185.7670  178.8130  140.1780 C   0  0  1  0  0  3  0  0  0  0  0  0
  184.9260  177.4580  136.2690 C   0  0  0  0  0  0  0  0  0  0  0  0
  185.2810  177.5370  137.6210 C   0  0  0  0  0  0  0  0  0  0  0  0
  185.9130  177.5740  135.2860 C   0  0  0  0  0  3  0  0  0  0  0  0
  181.0520  175.8660  135.8580 C   0  0  0  0  0  2  0  0  0  0  0  0
  180.5650  174.9240  136.9590 C   0  0  2  0  0  3  0  0  0  0  0  0
  181.1900  175.1700  138.3390 C   0  0  0  0  0  2  0  0  0  0  0  0
  182.5610  177.6280  136.8570 C   0  0  2  0  0  3  0  0  0  0  0  0
  182.6730  175.5040  138.2750 C   0  0  0  0  0  2  0  0  0  0  0  0
  182.8500  177.0180  138.2440 C   0  0  1  0  0  3  0  0  0  0  0  0
  184.8130  178.6020  143.8720 C   0  0  0  0  0  3  0  0  0  0  0  0
  187.0810  178.2080  142.2200 C   0  0  0  0  0  3  0  0  0  0  0  0
  187.7870  177.5770  145.8010 N   0  0  0  0  0  0  0  0  0  0  0  0
  188.5850  177.2410  146.9420 C   0  0  0  0  0  0  0  0  0  0  0  0
  186.3750  177.9710  145.8510 C   0  0  0  0  0  2  0  0  0  0  0  0
  189.7610  176.8140  146.7950 O   0  0  0  0  0  0  0  0  0  0  0  0
  186.0370  178.2120  144.4090 C   0  0  0  0  0  0  0  0  0  0  0  0
  188.0280  177.3630  148.3160 C   0  0  0  0  0  1  0  0  0  0  0  0
  188.2310  177.6410  144.4480 C   0  0  0  0  0  0  0  0  0  0  0  0
  187.1350  178.0240  143.6000 C   0  0  0  0  0  0  0  0  0  0  0  0
  189.4120  177.4200  144.0700 O   0  0  0  0  0  0  0  0  0  0  0  0
  185.8560  178.6040  141.6560 C   0  0  0  0  0  0  0  0  0  0  0  0
  184.7260  178.7950  142.4830 C   0  0  0  0  0  3  0  0  0  0  0  0
  180.7780  173.4840  136.5110 C   0  0  0  0  0  2  0  0  0  0  0  0
  180.2290  172.3110  137.7880 S   0  0  0  0  0  0  0  0  0  0  0  0
  179.9490  171.0020  136.5640 C   0  0  0  0  0  1  0  0  0  0  0  0
  1  5  1  6  0  0  0
  3 10  1  0  0  0  0
  3 16  1  0  0  0  0
  4  9  1  0  0  0  0
  5  9  1  0  0  0  0
  6  4  1  0  0  0  0
  7  8  1  0  0  0  0
  8  6  2  0  0  0  0
  9 30  1  1  0  0  0
 10 11  2  0  0  0  0
 11  6  1  0  0  0  0
 11  1  1  0  0  0  0
 12  7  2  0  0  0  0
 12 10  1  0  0  0  0
 13  2  1  0  0  0  0
 13 14  1  0  0  0  0
 14 32  1  6  0  0  0
 14 15  1  0  0  0  0
 16  2  1  6  0  0  0
 16 18  1  0  0  0  0
 17 15  1  0  0  0  0
 18 17  1  6  0  0  0
 18  1  1  0  0  0  0
 19 25  1  0  0  0  0
 20 28  1  0  0  0  0
 21 23  1  0  0  0  0
 21 22  1  0  0  0  0
 22 26  1  0  0  0  0
 24 22  2  0  0  0  0
 25 23  1  0  0  0  0
 27 21  1  0  0  0  0
 28 25  2  0  0  0  0
 28 27  1  0  0  0  0
 29 27  2  0  0  0  0
 30 20  2  0  0  0  0
 30 31  1  0  0  0  0
 31 19  2  0  0  0  0
 32 33  1  0  0  0  0
 34 33  1  0  0  0  0
M  END
>  <MODEL>
9

>  <REMARK>
 VINA RESULT:      -8.2      2.603      3.745
  Name = 
  3 active torsions:
  status: ('A' for Active; 'I' for Inactive)
    1  A    between atoms: C_3  and  S_13
    2  A    between atoms: C_3  and  C_25
    3  A    between atoms: C_18  and  C_30
                            x       y       z     vdW  Elec       q    Type
                         _______ _______ _______ _____ _____    ______ ____

>  <TORSDO>
F 3

$$$$
