=
 OpenBabel10262421093D

 32 37  0  0  1  0  0  0  0  0999 V2000
  184.9120  178.8830  143.0870 C   0  0  0  0  0  0  0  0  0  0  0  0
  187.0850  177.8780  143.5660 C   0  0  0  0  0  0  0  0  0  0  0  0
  183.6570  179.3110  143.5460 C   0  0  0  0  0  3  0  0  0  0  0  0
  185.8400  178.3570  144.0060 C   0  0  0  0  0  0  0  0  0  0  0  0
  188.0060  177.3850  144.5110 C   0  0  0  0  0  0  0  0  0  0  0  0
  190.7140  177.1610  140.1990 C   0  0  0  0  0  2  0  0  0  0  0  0
  187.3910  177.8090  142.0790 C   0  0  1  0  0  3  0  0  0  0  0  0
  191.0770  176.6500  142.3890 C   0  0  0  0  0  2  0  0  0  0  0  0
  189.5640  176.7170  142.6600 C   0  0  1  0  0  3  0  0  0  0  0  0
  185.5260  178.3090  145.3780 C   0  0  0  0  0  0  0  0  0  0  0  0
  189.2910  176.9170  144.0780 N   0  0  0  0  0  2  0  0  0  0  0  0
  186.4400  177.8360  146.2670 N   0  0  0  0  0  0  0  0  0  0  0  0
  184.2750  178.7440  145.8220 C   0  0  0  0  0  3  0  0  0  0  0  0
  186.7000  178.9590  141.3430 C   0  0  0  0  0  2  0  0  0  0  0  0
  185.2800  179.0020  141.7020 N   0  0  0  0  0  0  0  0  0  0  0  0
  188.9030  177.8210  141.8310 C   0  0  1  0  0  3  0  0  0  0  0  0
  187.6660  177.3940  145.8750 C   0  0  0  0  0  0  0  0  0  0  0  0
  183.3410  179.2380  144.9070 C   0  0  0  0  0  3  0  0  0  0  0  0
  191.4760  177.5030  141.3330 O   0  0  0  0  0  0  0  0  0  0  0  0
  189.2640  177.6460  140.3520 C   0  0  0  0  0  2  0  0  0  0  0  0
  183.4310  177.2000  139.4890 N   0  0  0  0  0  0  0  0  0  0  0  0
  183.0550  175.8120  139.2740 C   0  0  0  0  0  1  0  0  0  0  0  0
  184.3920  177.9170  138.7290 C   0  0  0  0  0  0  0  0  0  0  0  0
  184.2550  179.0610  140.6600 C   0  0  1  0  0  3  0  0  0  0  0  0
  184.8630  178.9480  139.3380 N   0  0  0  0  0  0  0  0  0  0  0  0
  183.3060  177.8620  140.7740 C   0  0  1  0  0  3  0  0  0  0  0  0
  181.8850  178.3550  140.9660 C   0  0  0  0  0  1  0  0  0  0  0  0
  183.9020  177.5030  136.3370 O   0  0  0  0  0  0  0  0  0  0  0  0
  184.8280  177.5510  137.3720 C   0  0  0  0  0  0  0  0  0  0  0  0
  186.0320  177.2690  137.1380 O   0  0  0  0  0  1  0  0  0  0  0  0
  188.6150  176.8770  146.9040 C   0  0  0  0  0  2  0  0  0  0  0  0
  188.6580  177.8210  148.0900 C   0  0  0  0  0  1  0  0  0  0  0  0
  1  3  2  0  0  0  0
  1  4  1  0  0  0  0
  2  4  2  0  0  0  0
  2  5  1  0  0  0  0
  3 18  1  0  0  0  0
  4 10  1  0  0  0  0
  5 17  2  0  0  0  0
  6 20  1  0  0  0  0
  6 19  1  0  0  0  0
  7 14  1  6  0  0  0
  7  2  1  0  0  0  0
  9  8  1  1  0  0  0
  9 11  1  0  0  0  0
 10 13  1  0  0  0  0
 10 12  2  0  0  0  0
 11  5  1  0  0  0  0
 14 15  1  0  0  0  0
 15  1  1  0  0  0  0
 16 20  1  6  0  0  0
 16  7  1  0  0  0  0
 16  9  1  0  0  0  0
 17 12  1  0  0  0  0
 17 31  1  0  0  0  0
 18 13  2  0  0  0  0
 19  8  1  0  0  0  0
 21 26  1  0  0  0  0
 22 21  1  0  0  0  0
 23 25  2  0  0  0  0
 23 21  1  0  0  0  0
 24 26  1  0  0  0  0
 24 15  1  1  0  0  0
 25 24  1  0  0  0  0
 26 27  1  6  0  0  0
 28 29  2  0  0  0  0
 29 23  1  0  0  0  0
 30 29  1  0  0  0  0
 31 32  1  0  0  0  0
M  END
>  <MODEL>
1

>  <REMARK>
 VINA RESULT:     -10.2      0.000      0.000
  Name = 
  3 active torsions:
  status: ('A' for Active; 'I' for Inactive)
    1  A    between atoms: C_13  and  C_29
    2  A    between atoms: C_15  and  C_19
    3  A    between atoms: C_16  and  N_27
                            x       y       z     vdW  Elec       q    Type
                         _______ _______ _______ _____ _____    ______ ____

>  <TORSDO>
F 3

$$$$
=
 OpenBabel10262421093D

 32 37  0  0  1  0  0  0  0  0999 V2000
  184.5740  178.5470  143.2000 C   0  0  0  0  0  0  0  0  0  0  0  0
  186.9360  177.9350  143.0910 C   0  0  0  0  0  0  0  0  0  0  0  0
  183.4370  178.8230  143.9750 C   0  0  0  0  0  3  0  0  0  0  0  0
  185.7940  178.2620  143.8420 C   0  0  0  0  0  0  0  0  0  0  0  0
  188.1500  177.6840  143.7590 C   0  0  0  0  0  0  0  0  0  0  0  0
  189.5770  177.4450  138.8720 C   0  0  0  0  0  2  0  0  0  0  0  0
  186.8320  177.7660  141.5840 C   0  0  1  0  0  3  0  0  0  0  0  0
  190.6060  177.2150  140.8900 C   0  0  0  0  0  2  0  0  0  0  0  0
  189.2370  177.0790  141.5780 C   0  0  1  0  0  3  0  0  0  0  0  0
  185.8800  178.3030  145.2480 C   0  0  0  0  0  0  0  0  0  0  0  0
  189.3300  177.3750  143.0020 N   0  0  0  0  0  2  0  0  0  0  0  0
  187.0690  178.0640  145.8620 N   0  0  0  0  0  0  0  0  0  0  0  0
  184.7420  178.5860  146.0070 C   0  0  0  0  0  3  0  0  0  0  0  0
  185.7790  178.7190  141.0170 C   0  0  0  0  0  2  0  0  0  0  0  0
  184.5240  178.5820  141.7630 N   0  0  0  0  0  0  0  0  0  0  0  0
  188.1930  177.9820  140.9160 C   0  0  1  0  0  3  0  0  0  0  0  0
  188.1990  177.7760  145.1610 C   0  0  0  0  0  0  0  0  0  0  0  0
  183.5220  178.8380  145.3710 C   0  0  0  0  0  3  0  0  0  0  0  0
  190.5480  178.0100  139.7210 O   0  0  0  0  0  0  0  0  0  0  0  0
  188.1620  177.7180  139.4060 C   0  0  0  0  0  2  0  0  0  0  0  0
  183.0290  178.3320  138.7190 N   0  0  0  0  0  0  0  0  0  0  0  0
  183.4220  178.0960  137.3390 C   0  0  0  0  0  1  0  0  0  0  0  0
  182.6470  179.5890  139.2600 C   0  0  0  0  0  0  0  0  0  0  0  0
  183.2600  178.3810  141.0560 C   0  0  1  0  0  3  0  0  0  0  0  0
  182.7560  179.6510  140.5410 N   0  0  0  0  0  0  0  0  0  0  0  0
  183.4720  177.4980  139.8200 C   0  0  1  0  0  3  0  0  0  0  0  0
  182.5940  176.2650  139.9210 C   0  0  0  0  0  1  0  0  0  0  0  0
  181.1350  180.5470  137.5490 O   0  0  0  0  0  0  0  0  0  0  0  0
  182.1630  180.7290  138.4660 C   0  0  0  0  0  0  0  0  0  0  0  0
  182.6780  181.8700  138.5990 O   0  0  0  0  0  1  0  0  0  0  0  0
  189.4670  177.5140  145.9020 C   0  0  0  0  0  2  0  0  0  0  0  0
  189.1800  177.3630  147.3830 C   0  0  0  0  0  1  0  0  0  0  0  0
  1  4  2  0  0  0  0
  1  3  1  0  0  0  0
  2  5  2  0  0  0  0
  2  4  1  0  0  0  0
  3 18  2  0  0  0  0
  4 10  1  0  0  0  0
  5 17  1  0  0  0  0
  6 20  1  0  0  0  0
  6 19  1  0  0  0  0
  7 14  1  6  0  0  0
  7  2  1  0  0  0  0
  9  8  1  6  0  0  0
  9 11  1  0  0  0  0
 10 12  1  0  0  0  0
 10 13  2  0  0  0  0
 11  5  1  0  0  0  0
 14 15  1  0  0  0  0
 15  1  1  0  0  0  0
 16 20  1  6  0  0  0
 16  9  1  0  0  0  0
 16  7  1  0  0  0  0
 17 12  2  0  0  0  0
 17 31  1  0  0  0  0
 18 13  1  0  0  0  0
 19  8  1  0  0  0  0
 21 23  1  0  0  0  0
 21 26  1  0  0  0  0
 22 21  1  0  0  0  0
 23 25  2  0  0  0  0
 24 15  1  6  0  0  0
 25 24  1  0  0  0  0
 26 27  1  1  0  0  0
 26 24  1  0  0  0  0
 28 29  2  0  0  0  0
 29 30  1  0  0  0  0
 29 23  1  0  0  0  0
 31 32  1  0  0  0  0
M  END
>  <MODEL>
2

>  <REMARK>
 VINA RESULT:      -9.5      1.722      2.008
  Name = 
  3 active torsions:
  status: ('A' for Active; 'I' for Inactive)
    1  A    between atoms: C_13  and  C_29
    2  A    between atoms: C_15  and  C_19
    3  A    between atoms: C_16  and  N_27
                            x       y       z     vdW  Elec       q    Type
                         _______ _______ _______ _____ _____    ______ ____

>  <TORSDO>
F 3

$$$$
=
 OpenBabel10262421093D

 32 37  0  0  1  0  0  0  0  0999 V2000
  189.8540  177.1560  142.6290 C   0  0  0  0  0  0  0  0  0  0  0  0
  187.8650  177.8300  143.8750 C   0  0  0  0  0  0  0  0  0  0  0  0
  191.1950  176.7420  142.6360 C   0  0  0  0  0  3  0  0  0  0  0  0
  189.1920  177.3690  143.8530 C   0  0  0  0  0  0  0  0  0  0  0  0
  187.2170  178.0050  145.1130 C   0  0  0  0  0  0  0  0  0  0  0  0
  183.4590  179.0030  141.8180 C   0  0  0  0  0  2  0  0  0  0  0  0
  187.1740  178.2200  142.5780 C   0  0  1  0  0  3  0  0  0  0  0  0
  183.6780  178.9520  144.0850 C   0  0  0  0  0  2  0  0  0  0  0  0
  185.2100  178.9530  143.9410 C   0  0  1  0  0  3  0  0  0  0  0  0
  189.8570  177.1200  145.0700 C   0  0  0  0  0  0  0  0  0  0  0  0
  185.8530  178.4500  145.1480 N   0  0  0  0  0  2  0  0  0  0  0  0
  189.2020  177.2910  146.2490 N   0  0  0  0  0  0  0  0  0  0  0  0
  191.1900  176.7020  145.0620 C   0  0  0  0  0  3  0  0  0  0  0  0
  187.6690  177.3380  141.4300 C   0  0  0  0  0  2  0  0  0  0  0  0
  189.1350  177.3350  141.3970 N   0  0  0  0  0  0  0  0  0  0  0  0
  185.6520  178.1360  142.7240 C   0  0  1  0  0  3  0  0  0  0  0  0
  187.9070  177.7060  146.3010 C   0  0  0  0  0  0  0  0  0  0  0  0
  191.8590  176.5200  143.8470 C   0  0  0  0  0  3  0  0  0  0  0  0
  183.0310  178.3400  142.9850 O   0  0  0  0  0  0  0  0  0  0  0  0
  184.9080  178.6220  141.4750 C   0  0  0  0  0  2  0  0  0  0  0  0
  189.2280  176.7780  138.0430 N   0  0  0  0  0  0  0  0  0  0  0  0
  188.3300  176.3030  137.0030 C   0  0  0  0  0  1  0  0  0  0  0  0
  190.2950  176.0320  138.6110 C   0  0  0  0  0  0  0  0  0  0  0  0
  189.8480  177.6100  140.1500 C   0  0  1  0  0  3  0  0  0  0  0  0
  190.6650  176.4630  139.7660 N   0  0  0  0  0  0  0  0  0  0  0  0
  188.8560  177.8050  138.9980 C   0  0  1  0  0  3  0  0  0  0  0  0
  189.0560  179.1780  138.3840 C   0  0  0  0  0  1  0  0  0  0  0  0
  190.1810  173.7780  137.5940 O   0  0  0  0  0  0  0  0  0  0  0  0
  190.9420  174.8780  137.9680 C   0  0  0  0  0  0  0  0  0  0  0  0
  192.1840  174.8700  137.7620 O   0  0  0  0  0  1  0  0  0  0  0  0
  187.2540  177.8830  147.6310 C   0  0  0  0  0  2  0  0  0  0  0  0
  188.3050  177.9350  148.7220 C   0  0  0  0  0  1  0  0  0  0  0  0
  1  3  2  0  0  0  0
  1  4  1  0  0  0  0
  2  5  1  0  0  0  0
  3 18  1  0  0  0  0
  4  2  2  0  0  0  0
  4 10  1  0  0  0  0
  5 11  1  0  0  0  0
  5 17  2  0  0  0  0
  6 19  1  0  0  0  0
  7 14  1  6  0  0  0
  7 16  1  0  0  0  0
  7  2  1  0  0  0  0
  9  8  1  1  0  0  0
  9 11  1  0  0  0  0
 10 12  2  0  0  0  0
 12 17  1  0  0  0  0
 13 10  1  0  0  0  0
 15 14  1  0  0  0  0
 15  1  1  0  0  0  0
 16 20  1  6  0  0  0
 16  9  1  0  0  0  0
 17 31  1  0  0  0  0
 18 13  2  0  0  0  0
 19  8  1  0  0  0  0
 20  6  1  0  0  0  0
 21 23  1  0  0  0  0
 21 26  1  0  0  0  0
 22 21  1  0  0  0  0
 23 25  2  0  0  0  0
 24 15  1  1  0  0  0
 25 24  1  0  0  0  0
 26 27  1  6  0  0  0
 26 24  1  0  0  0  0
 28 29  2  0  0  0  0
 29 23  1  0  0  0  0
 30 29  1  0  0  0  0
 31 32  1  0  0  0  0
M  END
>  <MODEL>
3

>  <REMARK>
 VINA RESULT:      -9.4      2.741      5.538
  Name = 
  3 active torsions:
  status: ('A' for Active; 'I' for Inactive)
    1  A    between atoms: C_13  and  C_29
    2  A    between atoms: C_15  and  C_19
    3  A    between atoms: C_16  and  N_27
                            x       y       z     vdW  Elec       q    Type
                         _______ _______ _______ _____ _____    ______ ____

>  <TORSDO>
F 3

$$$$
=
 OpenBabel10262421093D

 32 37  0  0  1  0  0  0  0  0999 V2000
  184.9360  178.3450  143.2360 C   0  0  0  0  0  0  0  0  0  0  0  0
  187.2660  177.8440  143.7680 C   0  0  0  0  0  0  0  0  0  0  0  0
  183.6350  178.6290  143.6780 C   0  0  0  0  0  3  0  0  0  0  0  0
  185.9650  178.1760  144.1820 C   0  0  0  0  0  0  0  0  0  0  0  0
  188.2820  177.7100  144.7340 C   0  0  0  0  0  0  0  0  0  0  0  0
  190.8870  177.1310  140.3920 C   0  0  0  0  0  2  0  0  0  0  0  0
  187.5460  177.5430  142.3050 C   0  0  1  0  0  3  0  0  0  0  0  0
  191.3870  177.1230  142.6140 C   0  0  0  0  0  2  0  0  0  0  0  0
  189.8930  176.9780  142.9540 C   0  0  1  0  0  3  0  0  0  0  0  0
  185.6970  178.3400  145.5550 C   0  0  0  0  0  0  0  0  0  0  0  0
  189.6210  177.3980  144.3230 N   0  0  0  0  0  2  0  0  0  0  0  0
  186.7010  178.2130  146.4620 N   0  0  0  0  0  0  0  0  0  0  0  0
  184.3980  178.6290  145.9810 C   0  0  0  0  0  3  0  0  0  0  0  0
  186.6410  178.3920  141.4090 C   0  0  0  0  0  2  0  0  0  0  0  0
  185.2450  178.2560  141.8340 N   0  0  0  0  0  0  0  0  0  0  0  0
  189.0240  177.7700  141.9730 C   0  0  1  0  0  3  0  0  0  0  0  0
  187.9780  177.9230  146.0900 C   0  0  0  0  0  0  0  0  0  0  0  0
  183.3690  178.7660  145.0450 C   0  0  0  0  0  3  0  0  0  0  0  0
  191.6000  177.8120  141.3970 O   0  0  0  0  0  0  0  0  0  0  0  0
  189.3760  177.3770  140.5340 C   0  0  0  0  0  2  0  0  0  0  0  0
  182.9550  179.5240  139.6620 N   0  0  0  0  0  0  0  0  0  0  0  0
  182.6850  180.7870  138.9950 C   0  0  0  0  0  1  0  0  0  0  0  0
  182.2280  179.0080  140.7680 C   0  0  0  0  0  0  0  0  0  0  0  0
  184.2020  177.9340  140.8600 C   0  0  1  0  0  3  0  0  0  0  0  0
  182.8800  178.1290  141.4450 N   0  0  0  0  0  0  0  0  0  0  0  0
  184.2650  178.9000  139.6700 C   0  0  1  0  0  3  0  0  0  0  0  0
  184.4710  178.1130  138.3900 C   0  0  0  0  0  1  0  0  0  0  0  0
  180.6350  180.1260  142.2980 O   0  0  0  0  0  1  0  0  0  0  0  0
  180.8600  179.4100  141.1290 C   0  0  0  0  0  0  0  0  0  0  0  0
  179.8850  179.1040  140.3940 O   0  0  0  0  0  0  0  0  0  0  0  0
  189.0280  177.7870  147.1410 C   0  0  0  0  0  2  0  0  0  0  0  0
  188.4840  178.2450  148.4800 C   0  0  0  0  0  1  0  0  0  0  0  0
  1  3  2  0  0  0  0
  1  4  1  0  0  0  0
  2  4  2  0  0  0  0
  2  5  1  0  0  0  0
  3 18  1  0  0  0  0
  4 10  1  0  0  0  0
  5 17  2  0  0  0  0
  6 20  1  0  0  0  0
  6 19  1  0  0  0  0
  7 14  1  6  0  0  0
  7  2  1  0  0  0  0
  9  8  1  6  0  0  0
  9 11  1  0  0  0  0
 10 13  1  0  0  0  0
 10 12  2  0  0  0  0
 11  5  1  0  0  0  0
 14 15  1  0  0  0  0
 15  1  1  0  0  0  0
 16 20  1  6  0  0  0
 16  7  1  0  0  0  0
 16  9  1  0  0  0  0
 17 12  1  0  0  0  0
 17 31  1  0  0  0  0
 18 13  2  0  0  0  0
 19  8  1  0  0  0  0
 21 26  1  0  0  0  0
 21 23  1  0  0  0  0
 22 21  1  0  0  0  0
 23 29  1  0  0  0  0
 23 25  2  0  0  0  0
 24 25  1  0  0  0  0
 24 15  1  1  0  0  0
 26 27  1  6  0  0  0
 26 24  1  0  0  0  0
 29 28  1  0  0  0  0
 30 29  2  0  0  0  0
 31 32  1  0  0  0  0
M  END
>  <MODEL>
4

>  <REMARK>
 VINA RESULT:      -9.2      1.907      2.573
  Name = 
  3 active torsions:
  status: ('A' for Active; 'I' for Inactive)
    1  A    between atoms: C_13  and  C_29
    2  A    between atoms: C_15  and  C_19
    3  A    between atoms: C_16  and  N_27
                            x       y       z     vdW  Elec       q    Type
                         _______ _______ _______ _____ _____    ______ ____

>  <TORSDO>
F 3

$$$$
=
 OpenBabel10262421093D

 32 37  0  0  1  0  0  0  0  0999 V2000
  187.3450  178.0990  144.8040 C   0  0  0  0  0  0  0  0  0  0  0  0
  185.8160  178.4860  142.9400 C   0  0  0  0  0  0  0  0  0  0  0  0
  187.5570  178.0130  146.1880 C   0  0  0  0  0  3  0  0  0  0  0  0
  186.0470  178.3480  144.3190 C   0  0  0  0  0  0  0  0  0  0  0  0
  184.5030  178.7050  142.4810 C   0  0  0  0  0  0  0  0  0  0  0  0
  187.0780  178.2590  138.1050 C   0  0  0  0  0  2  0  0  0  0  0  0
  186.9850  178.4910  141.9690 C   0  0  1  0  0  3  0  0  0  0  0  0
  184.9100  178.6270  138.6980 C   0  0  0  0  0  2  0  0  0  0  0  0
  185.3540  178.9600  140.1330 C   0  0  1  0  0  3  0  0  0  0  0  0
  184.9670  178.4600  145.2150 C   0  0  0  0  0  0  0  0  0  0  0  0
  184.2490  178.8210  141.0730 N   0  0  0  0  0  2  0  0  0  0  0  0
  183.7090  178.6630  144.7410 N   0  0  0  0  0  0  0  0  0  0  0  0
  185.1910  178.3660  146.5910 C   0  0  0  0  0  3  0  0  0  0  0  0
  188.0990  177.5740  142.4800 C   0  0  0  0  0  2  0  0  0  0  0  0
  188.4220  177.9050  143.8710 N   0  0  0  0  0  0  0  0  0  0  0  0
  186.5310  178.0810  140.5650 C   0  0  1  0  0  3  0  0  0  0  0  0
  183.4490  178.7690  143.4090 C   0  0  0  0  0  0  0  0  0  0  0  0
  186.4840  178.1500  147.0760 C   0  0  0  0  0  3  0  0  0  0  0  0
  185.7800  177.7130  138.0600 O   0  0  0  0  0  0  0  0  0  0  0  0
  187.6550  178.1740  139.5270 C   0  0  0  0  0  2  0  0  0  0  0  0
  191.4040  176.4390  144.5950 N   0  0  0  0  0  0  0  0  0  0  0  0
  192.0550  175.1560  144.3840 C   0  0  0  0  0  1  0  0  0  0  0  0
  190.8610  176.8910  145.8270 C   0  0  0  0  0  0  0  0  0  0  0  0
  189.8090  178.1330  144.2750 C   0  0  1  0  0  3  0  0  0  0  0  0
  189.9850  177.8240  145.6910 N   0  0  0  0  0  0  0  0  0  0  0  0
  190.7480  177.1750  143.5320 C   0  0  1  0  0  3  0  0  0  0  0  0
  191.7720  177.9750  142.7480 C   0  0  0  0  0  1  0  0  0  0  0  0
  192.0560  177.1270  147.9830 O   0  0  0  0  0  1  0  0  0  0  0  0
  191.2420  176.3700  147.1500 C   0  0  0  0  0  0  0  0  0  0  0  0
  190.8460  175.2380  147.5330 O   0  0  0  0  0  0  0  0  0  0  0  0
  182.0460  179.0030  142.9590 C   0  0  0  0  0  2  0  0  0  0  0  0
  181.0770  178.6270  144.0650 C   0  0  0  0  0  1  0  0  0  0  0  0
  1  3  1  0  0  0  0
  2  4  1  0  0  0  0
  3 18  2  0  0  0  0
  4  1  2  0  0  0  0
  4 10  1  0  0  0  0
  5  2  2  0  0  0  0
  5 17  1  0  0  0  0
  6 20  1  0  0  0  0
  7 14  1  1  0  0  0
  7  2  1  0  0  0  0
  9  8  1  6  0  0  0
  9 16  1  0  0  0  0
  9 11  1  0  0  0  0
 10 13  2  0  0  0  0
 11  5  1  0  0  0  0
 12 10  1  0  0  0  0
 13 18  1  0  0  0  0
 14 15  1  0  0  0  0
 15  1  1  0  0  0  0
 16 20  1  6  0  0  0
 16  7  1  0  0  0  0
 17 12  2  0  0  0  0
 19  6  1  0  0  0  0
 19  8  1  0  0  0  0
 21 23  1  0  0  0  0
 22 21  1  0  0  0  0
 23 29  1  0  0  0  0
 24 15  1  6  0  0  0
 24 25  1  0  0  0  0
 25 23  2  0  0  0  0
 26 27  1  1  0  0  0
 26 24  1  0  0  0  0
 26 21  1  0  0  0  0
 29 30  2  0  0  0  0
 29 28  1  0  0  0  0
 31 17  1  0  0  0  0
 31 32  1  0  0  0  0
M  END
>  <MODEL>
5

>  <REMARK>
 VINA RESULT:      -9.1      2.330      6.862
  Name = 
  3 active torsions:
  status: ('A' for Active; 'I' for Inactive)
    1  A    between atoms: C_13  and  C_29
    2  A    between atoms: C_15  and  C_19
    3  A    between atoms: C_16  and  N_27
                            x       y       z     vdW  Elec       q    Type
                         _______ _______ _______ _____ _____    ______ ____

>  <TORSDO>
F 3

$$$$
=
 OpenBabel10262421093D

 32 37  0  0  1  0  0  0  0  0999 V2000
  189.6690  177.4250  141.8820 C   0  0  0  0  0  0  0  0  0  0  0  0
  187.5470  177.9650  142.9630 C   0  0  0  0  0  0  0  0  0  0  0  0
  191.0170  177.0510  141.9960 C   0  0  0  0  0  3  0  0  0  0  0  0
  188.8850  177.5460  143.0450 C   0  0  0  0  0  0  0  0  0  0  0  0
  186.7780  178.0470  144.1400 C   0  0  0  0  0  0  0  0  0  0  0  0
  183.3200  179.1290  140.5550 C   0  0  0  0  0  2  0  0  0  0  0  0
  186.9700  178.4110  141.6290 C   0  0  1  0  0  3  0  0  0  0  0  0
  183.3230  178.9500  142.8250 C   0  0  0  0  0  2  0  0  0  0  0  0
  184.8600  179.0040  142.8320 C   0  0  1  0  0  3  0  0  0  0  0  0
  189.4390  177.2440  144.3050 C   0  0  0  0  0  0  0  0  0  0  0  0
  185.4020  178.4490  144.0660 N   0  0  0  0  0  2  0  0  0  0  0  0
  188.6680  177.3250  145.4220 N   0  0  0  0  0  0  0  0  0  0  0  0
  190.7800  176.8670  144.4040 C   0  0  0  0  0  3  0  0  0  0  0  0
  187.6040  177.6150  140.4870 C   0  0  0  0  0  2  0  0  0  0  0  0
  189.0650  177.6560  140.5970 N   0  0  0  0  0  0  0  0  0  0  0  0
  185.4450  178.2740  141.6200 C   0  0  1  0  0  3  0  0  0  0  0  0
  187.3600  177.6980  145.3700 C   0  0  0  0  0  0  0  0  0  0  0  0
  191.5680  176.7770  143.2530 C   0  0  0  0  0  3  0  0  0  0  0  0
  182.8070  178.3850  141.6350 O   0  0  0  0  0  0  0  0  0  0  0  0
  184.8080  178.8120  140.3340 C   0  0  0  0  0  2  0  0  0  0  0  0
  189.8090  176.9610  137.3530 N   0  0  0  0  0  0  0  0  0  0  0  0
  189.2180  176.2320  136.2420 C   0  0  0  0  0  1  0  0  0  0  0  0
  190.9140  176.5210  138.1290 C   0  0  0  0  0  0  0  0  0  0  0  0
  189.8850  178.0270  139.4440 C   0  0  1  0  0  3  0  0  0  0  0  0
  190.9910  177.0880  139.2810 N   0  0  0  0  0  0  0  0  0  0  0  0
  189.0690  177.9200  138.1500 C   0  0  1  0  0  3  0  0  0  0  0  0
  189.0470  179.2670  137.4530 C   0  0  0  0  0  1  0  0  0  0  0  0
  193.0800  175.9310  137.0840 O   0  0  0  0  0  0  0  0  0  0  0  0
  191.8990  175.5200  137.6880 C   0  0  0  0  0  0  0  0  0  0  0  0
  191.6780  174.2900  137.8430 O   0  0  0  0  0  1  0  0  0  0  0  0
  186.5760  177.7760  146.6380 C   0  0  0  0  0  2  0  0  0  0  0  0
  187.5030  178.0650  147.8030 C   0  0  0  0  0  1  0  0  0  0  0  0
  1  3  2  0  0  0  0
  1  4  1  0  0  0  0
  2  4  2  0  0  0  0
  2  5  1  0  0  0  0
  3 18  1  0  0  0  0
  4 10  1  0  0  0  0
  5 17  2  0  0  0  0
  6 19  1  0  0  0  0
  7 14  1  6  0  0  0
  7  2  1  0  0  0  0
  9  8  1  1  0  0  0
  9 11  1  0  0  0  0
 10 13  1  0  0  0  0
 10 12  2  0  0  0  0
 11  5  1  0  0  0  0
 14 15  1  0  0  0  0
 15  1  1  0  0  0  0
 16 20  1  6  0  0  0
 16  7  1  0  0  0  0
 16  9  1  0  0  0  0
 17 12  1  0  0  0  0
 17 31  1  0  0  0  0
 18 13  2  0  0  0  0
 19  8  1  0  0  0  0
 20  6  1  0  0  0  0
 21 23  1  0  0  0  0
 21 26  1  0  0  0  0
 22 21  1  0  0  0  0
 23 25  2  0  0  0  0
 24 15  1  1  0  0  0
 25 24  1  0  0  0  0
 26 27  1  6  0  0  0
 26 24  1  0  0  0  0
 28 29  2  0  0  0  0
 29 30  1  0  0  0  0
 29 23  1  0  0  0  0
 31 32  1  0  0  0  0
M  END
>  <MODEL>
6

>  <REMARK>
 VINA RESULT:      -8.9      2.670      5.746
  Name = 
  3 active torsions:
  status: ('A' for Active; 'I' for Inactive)
    1  A    between atoms: C_13  and  C_29
    2  A    between atoms: C_15  and  C_19
    3  A    between atoms: C_16  and  N_27
                            x       y       z     vdW  Elec       q    Type
                         _______ _______ _______ _____ _____    ______ ____

>  <TORSDO>
F 3

$$$$
=
 OpenBabel10262421093D

 32 37  0  0  1  0  0  0  0  0999 V2000
  185.6940  178.6200  140.6290 C   0  0  0  0  0  0  0  0  0  0  0  0
  187.1320  177.9420  142.4820 C   0  0  0  0  0  0  0  0  0  0  0  0
  184.4180  178.9720  140.1630 C   0  0  0  0  0  3  0  0  0  0  0  0
  185.8760  178.3430  141.9970 C   0  0  0  0  0  0  0  0  0  0  0  0
  187.2940  177.7010  143.8600 C   0  0  0  0  0  0  0  0  0  0  0  0
  192.0560  177.1280  142.1360 C   0  0  0  0  0  2  0  0  0  0  0  0
  188.2750  177.6840  141.5130 C   0  0  1  0  0  3  0  0  0  0  0  0
  191.0210  176.9950  144.1610 C   0  0  0  0  0  2  0  0  0  0  0  0
  189.6510  176.9370  143.4620 C   0  0  1  0  0  3  0  0  0  0  0  0
  184.7970  178.4680  142.8940 C   0  0  0  0  0  0  0  0  0  0  0  0
  188.5780  177.3170  144.3720 N   0  0  0  0  0  2  0  0  0  0  0  0
  184.9870  178.2370  144.2200 N   0  0  0  0  0  0  0  0  0  0  0  0
  183.5340  178.8260  142.4180 C   0  0  0  0  0  3  0  0  0  0  0  0
  188.1730  178.6280  140.3130 C   0  0  0  0  0  2  0  0  0  0  0  0
  186.8240  178.5680  139.7420 N   0  0  0  0  0  0  0  0  0  0  0  0
  189.6280  177.8240  142.2150 C   0  0  1  0  0  3  0  0  0  0  0  0
  186.1990  177.8780  144.7240 C   0  0  0  0  0  0  0  0  0  0  0  0
  183.3430  179.0710  141.0540 C   0  0  0  0  0  3  0  0  0  0  0  0
  191.9800  177.7180  143.4130 O   0  0  0  0  0  0  0  0  0  0  0  0
  190.8090  177.4690  141.3040 C   0  0  0  0  0  2  0  0  0  0  0  0
  187.2270  176.3980  137.1550 N   0  0  0  0  0  0  0  0  0  0  0  0
  187.4640  174.9760  136.9670 C   0  0  0  0  0  1  0  0  0  0  0  0
  188.1960  177.4220  136.9840 C   0  0  0  0  0  0  0  0  0  0  0  0
  186.6360  178.3580  138.3060 C   0  0  1  0  0  3  0  0  0  0  0  0
  187.9030  178.5140  137.5980 N   0  0  0  0  0  0  0  0  0  0  0  0
  186.1930  176.9160  138.0310 C   0  0  1  0  0  3  0  0  0  0  0  0
  184.8590  176.9250  137.3080 C   0  0  0  0  0  1  0  0  0  0  0  0
  190.5720  176.7590  136.7640 O   0  0  0  0  0  1  0  0  0  0  0  0
  189.4240  177.2850  136.1850 C   0  0  0  0  0  0  0  0  0  0  0  0
  189.4510  177.6500  134.9800 O   0  0  0  0  0  0  0  0  0  0  0  0
  186.3320  177.6290  146.1890 C   0  0  0  0  0  2  0  0  0  0  0  0
  185.6800  178.7550  146.9680 C   0  0  0  0  0  1  0  0  0  0  0  0
  1  4  1  0  0  0  0
  2  5  1  0  0  0  0
  3  1  2  0  0  0  0
  3 18  1  0  0  0  0
  4  2  2  0  0  0  0
  4 10  1  0  0  0  0
  5 11  1  0  0  0  0
  5 17  2  0  0  0  0
  6 19  1  0  0  0  0
  7 14  1  6  0  0  0
  7 16  1  0  0  0  0
  7  2  1  0  0  0  0
  9  8  1  1  0  0  0
  9 11  1  0  0  0  0
 10 12  2  0  0  0  0
 12 17  1  0  0  0  0
 13 10  1  0  0  0  0
 15 14  1  0  0  0  0
 15  1  1  0  0  0  0
 16 20  1  6  0  0  0
 16  9  1  0  0  0  0
 17 31  1  0  0  0  0
 18 13  2  0  0  0  0
 19  8  1  0  0  0  0
 20  6  1  0  0  0  0
 21 26  1  0  0  0  0
 22 21  1  0  0  0  0
 23 21  1  0  0  0  0
 23 25  2  0  0  0  0
 24 15  1  1  0  0  0
 25 24  1  0  0  0  0
 26 27  1  6  0  0  0
 26 24  1  0  0  0  0
 29 28  1  0  0  0  0
 29 23  1  0  0  0  0
 30 29  2  0  0  0  0
 31 32  1  0  0  0  0
M  END
>  <MODEL>
7

>  <REMARK>
 VINA RESULT:      -8.9      2.203      3.208
  Name = 
  3 active torsions:
  status: ('A' for Active; 'I' for Inactive)
    1  A    between atoms: C_13  and  C_29
    2  A    between atoms: C_15  and  C_19
    3  A    between atoms: C_16  and  N_27
                            x       y       z     vdW  Elec       q    Type
                         _______ _______ _______ _____ _____    ______ ____

>  <TORSDO>
F 3

$$$$
=
 OpenBabel10262421093D

 32 37  0  0  1  0  0  0  0  0999 V2000
  183.1390  178.7850  141.8490 C   0  0  0  0  0  0  0  0  0  0  0  0
  185.1300  178.3080  143.1800 C   0  0  0  0  0  0  0  0  0  0  0  0
  181.7670  179.0710  141.7970 C   0  0  0  0  0  3  0  0  0  0  0  0
  183.7670  178.6420  143.1000 C   0  0  0  0  0  0  0  0  0  0  0  0
  185.7390  178.2000  144.4450 C   0  0  0  0  0  0  0  0  0  0  0  0
  189.7080  177.5440  141.3160 C   0  0  0  0  0  2  0  0  0  0  0  0
  185.9070  177.9780  141.9170 C   0  0  1  0  0  3  0  0  0  0  0  0
  189.3910  177.5860  143.5710 C   0  0  0  0  0  2  0  0  0  0  0  0
  187.8730  177.4400  143.3650 C   0  0  1  0  0  3  0  0  0  0  0  0
  183.0320  178.8330  144.2870 C   0  0  0  0  0  0  0  0  0  0  0  0
  187.1360  177.8870  144.5400 N   0  0  0  0  0  2  0  0  0  0  0  0
  183.6510  178.7310  145.4930 N   0  0  0  0  0  0  0  0  0  0  0  0
  181.6670  179.1240  144.2200 C   0  0  0  0  0  3  0  0  0  0  0  0
  185.3790  178.8030  140.7410 C   0  0  0  0  0  2  0  0  0  0  0  0
  183.9230  178.6680  140.6480 N   0  0  0  0  0  0  0  0  0  0  0  0
  187.4080  178.2060  142.1240 C   0  0  1  0  0  3  0  0  0  0  0  0
  184.9760  178.4400  145.6010 C   0  0  0  0  0  0  0  0  0  0  0  0
  181.0350  179.2360  142.9780 C   0  0  0  0  0  3  0  0  0  0  0  0
  190.0220  178.2500  142.4930 O   0  0  0  0  0  0  0  0  0  0  0  0
  188.2450  177.7850  140.9110 C   0  0  0  0  0  2  0  0  0  0  0  0
  183.6260  176.3010  138.2250 N   0  0  0  0  0  0  0  0  0  0  0  0
  183.9030  174.8830  138.0620 C   0  0  0  0  0  1  0  0  0  0  0  0
  184.3980  177.3570  137.6720 C   0  0  0  0  0  0  0  0  0  0  0  0
  183.2910  178.3200  139.3760 C   0  0  1  0  0  3  0  0  0  0  0  0
  184.2360  178.4820  138.2760 N   0  0  0  0  0  0  0  0  0  0  0  0
  182.9000  176.8380  139.3600 C   0  0  1  0  0  3  0  0  0  0  0  0
  181.4070  176.7100  139.1270 C   0  0  0  0  0  1  0  0  0  0  0  0
  184.7860  177.2470  135.2290 O   0  0  0  0  0  0  0  0  0  0  0  0
  185.3010  177.2170  136.5190 C   0  0  0  0  0  0  0  0  0  0  0  0
  186.5390  177.0610  136.6870 O   0  0  0  0  0  1  0  0  0  0  0  0
  185.5870  178.3320  146.9580 C   0  0  0  0  0  2  0  0  0  0  0  0
  186.1450  179.6760  147.3850 C   0  0  0  0  0  1  0  0  0  0  0  0
  1  4  1  0  0  0  0
  2  5  1  0  0  0  0
  3  1  2  0  0  0  0
  3 18  1  0  0  0  0
  4  2  2  0  0  0  0
  4 10  1  0  0  0  0
  5 11  1  0  0  0  0
  5 17  2  0  0  0  0
  6 19  1  0  0  0  0
  7 14  1  6  0  0  0
  7 16  1  0  0  0  0
  7  2  1  0  0  0  0
  9  8  1  1  0  0  0
  9 11  1  0  0  0  0
 10 12  2  0  0  0  0
 12 17  1  0  0  0  0
 13 10  1  0  0  0  0
 15 14  1  0  0  0  0
 15  1  1  0  0  0  0
 16 20  1  6  0  0  0
 16  9  1  0  0  0  0
 17 31  1  0  0  0  0
 18 13  2  0  0  0  0
 19  8  1  0  0  0  0
 20  6  1  0  0  0  0
 21 26  1  0  0  0  0
 22 21  1  0  0  0  0
 23 21  1  0  0  0  0
 23 25  2  0  0  0  0
 24 15  1  1  0  0  0
 25 24  1  0  0  0  0
 26 27  1  6  0  0  0
 26 24  1  0  0  0  0
 28 29  2  0  0  0  0
 29 30  1  0  0  0  0
 29 23  1  0  0  0  0
 31 32  1  0  0  0  0
M  END
>  <MODEL>
8

>  <REMARK>
 VINA RESULT:      -8.7      1.534      2.160
  Name = 
  3 active torsions:
  status: ('A' for Active; 'I' for Inactive)
    1  A    between atoms: C_13  and  C_29
    2  A    between atoms: C_15  and  C_19
    3  A    between atoms: C_16  and  N_27
                            x       y       z     vdW  Elec       q    Type
                         _______ _______ _______ _____ _____    ______ ____

>  <TORSDO>
F 3

$$$$
=
 OpenBabel10262421093D

 32 37  0  0  1  0  0  0  0  0999 V2000
  187.3540  178.1100  143.8510 C   0  0  0  0  0  0  0  0  0  0  0  0
  186.1310  178.3570  141.7520 C   0  0  0  0  0  0  0  0  0  0  0  0
  187.3480  178.1070  145.2540 C   0  0  0  0  0  3  0  0  0  0  0  0
  186.1450  178.3020  143.1560 C   0  0  0  0  0  0  0  0  0  0  0  0
  184.9020  178.5190  141.0820 C   0  0  0  0  0  0  0  0  0  0  0  0
  188.1370  177.8880  137.1940 C   0  0  0  0  0  2  0  0  0  0  0  0
  187.4370  178.3340  140.9760 C   0  0  1  0  0  3  0  0  0  0  0  0
  185.8970  178.2390  137.4200 C   0  0  0  0  0  2  0  0  0  0  0  0
  186.1070  178.6620  138.8850 C   0  0  1  0  0  3  0  0  0  0  0  0
  184.9360  178.4390  143.8650 C   0  0  0  0  0  0  0  0  0  0  0  0
  184.8710  178.5510  139.6480 N   0  0  0  0  0  2  0  0  0  0  0  0
  183.7660  178.5860  143.1900 N   0  0  0  0  0  0  0  0  0  0  0  0
  184.9440  178.4280  145.2620 C   0  0  0  0  0  3  0  0  0  0  0  0
  188.4700  177.4730  141.7070 C   0  0  0  0  0  2  0  0  0  0  0  0
  188.5670  177.8890  143.1090 N   0  0  0  0  0  0  0  0  0  0  0  0
  187.2140  177.8360  139.5450 C   0  0  1  0  0  3  0  0  0  0  0  0
  183.7160  178.6110  141.8300 C   0  0  0  0  0  0  0  0  0  0  0  0
  186.1480  178.2690  145.9540 C   0  0  0  0  0  3  0  0  0  0  0  0
  186.8700  177.3100  136.9800 O   0  0  0  0  0  0  0  0  0  0  0  0
  188.4860  177.8960  138.6910 C   0  0  0  0  0  2  0  0  0  0  0  0
  191.3780  176.5350  144.4610 N   0  0  0  0  0  0  0  0  0  0  0  0
  192.0460  175.2430  144.4940 C   0  0  0  0  0  1  0  0  0  0  0  0
  190.6430  177.1060  145.5340 C   0  0  0  0  0  0  0  0  0  0  0  0
  189.8700  178.1710  143.7100 C   0  0  1  0  0  3  0  0  0  0  0  0
  189.8090  178.0120  145.1600 N   0  0  0  0  0  0  0  0  0  0  0  0
  190.9110  177.1510  143.2340 C   0  0  1  0  0  3  0  0  0  0  0  0
  192.0560  177.8760  142.5510 C   0  0  0  0  0  1  0  0  0  0  0  0
  192.0560  176.7510  147.5360 O   0  0  0  0  0  0  0  0  0  0  0  0
  190.7980  176.7290  146.9480 C   0  0  0  0  0  0  0  0  0  0  0  0
  189.8020  176.3750  147.6310 O   0  0  0  0  0  1  0  0  0  0  0  0
  182.3970  178.7870  141.1540 C   0  0  0  0  0  2  0  0  0  0  0  0
  181.2750  178.6680  142.1680 C   0  0  0  0  0  1  0  0  0  0  0  0
  1  3  1  0  0  0  0
  2  4  1  0  0  0  0
  3 18  2  0  0  0  0
  4  1  2  0  0  0  0
  4 10  1  0  0  0  0
  5  2  2  0  0  0  0
  5 17  1  0  0  0  0
  6 20  1  0  0  0  0
  7 14  1  1  0  0  0
  7  2  1  0  0  0  0
  9  8  1  6  0  0  0
  9 16  1  0  0  0  0
  9 11  1  0  0  0  0
 10 13  2  0  0  0  0
 11  5  1  0  0  0  0
 12 10  1  0  0  0  0
 13 18  1  0  0  0  0
 14 15  1  0  0  0  0
 15  1  1  0  0  0  0
 16 20  1  6  0  0  0
 16  7  1  0  0  0  0
 17 12  2  0  0  0  0
 19  6  1  0  0  0  0
 19  8  1  0  0  0  0
 21 22  1  0  0  0  0
 21 23  1  0  0  0  0
 23 29  1  0  0  0  0
 24 15  1  6  0  0  0
 24 25  1  0  0  0  0
 25 23  2  0  0  0  0
 26 27  1  1  0  0  0
 26 24  1  0  0  0  0
 26 21  1  0  0  0  0
 29 28  2  0  0  0  0
 29 30  1  0  0  0  0
 31 17  1  0  0  0  0
 31 32  1  0  0  0  0
M  END
>  <MODEL>
9

>  <REMARK>
 VINA RESULT:      -8.2      2.230      6.841
  Name = 
  3 active torsions:
  status: ('A' for Active; 'I' for Inactive)
    1  A    between atoms: C_13  and  C_29
    2  A    between atoms: C_15  and  C_19
    3  A    between atoms: C_16  and  N_27
                            x       y       z     vdW  Elec       q    Type
                         _______ _______ _______ _____ _____    ______ ____

>  <TORSDO>
F 3

$$$$
