=
 OpenBabel10262422213D

 43 48  0  0  1  0  0  0  0  0999 V2000
  183.8400  178.7360  144.4190 C   0  0  1  0  0  3  0  0  0  0  0  0
  184.1920  178.1290  139.3390 C   0  0  0  0  0  0  0  0  0  0  0  0
  186.9140  178.2720  138.7960 C   0  0  0  0  0  0  0  0  0  0  0  0
  183.3050  178.5730  141.9680 C   0  0  0  0  0  0  0  0  0  0  0  0
  185.0780  179.5200  144.0160 C   0  0  0  0  0  2  0  0  0  0  0  0
  183.3480  179.2250  145.6280 O   0  0  0  0  0  1  0  0  0  0  0  0
  184.6860  178.6590  141.6730 C   0  0  0  0  0  0  0  0  0  0  0  0
  182.7720  178.8830  143.3380 C   0  0  0  0  0  2  0  0  0  0  0  0
  185.6970  178.8880  142.7720 C   0  0  0  0  0  2  0  0  0  0  0  0
  186.4550  178.4820  140.0570 N   0  0  0  0  0  0  0  0  0  0  0  0
  185.1280  178.4260  140.3580 C   0  0  0  0  0  0  0  0  0  0  0  0
  182.8280  178.0650  139.6460 C   0  0  0  0  0  3  0  0  0  0  0  0
  184.6460  177.8930  138.0320 C   0  0  0  0  0  0  0  0  0  0  0  0
  186.0210  177.9700  137.7670 C   0  0  0  0  0  3  0  0  0  0  0  0
  182.3900  178.2910  140.9510 C   0  0  0  0  0  3  0  0  0  0  0  0
  183.7230  177.5770  137.0180 O   0  0  0  0  0  0  0  0  0  0  0  0
  181.4670  174.7130  136.0110 C   0  0  0  0  0  2  0  0  0  0  0  0
  181.9740  173.7020  137.0360 C   0  0  2  0  0  3  0  0  0  0  0  0
  183.8940  175.2070  137.6020 C   0  0  0  0  0  2  0  0  0  0  0  0
  181.8390  176.1290  136.4390 C   0  0  0  0  0  2  0  0  0  0  0  0
  183.3550  176.2530  136.6220 C   0  0  1  0  0  3  0  0  0  0  0  0
  183.4940  173.8040  137.1530 C   0  0  0  0  0  2  0  0  0  0  0  0
  182.6610  171.4380  136.7310 O   0  0  0  0  0  1  0  0  0  0  0  0
  181.5740  172.3030  136.6040 C   0  0  0  0  0  2  0  0  0  0  0  0
  188.3760  178.3180  138.5240 C   0  0  0  0  0  2  0  0  0  0  0  0
  189.0650  177.1490  139.2040 C   0  0  0  0  0  2  0  0  0  0  0  0
  189.8700  177.6290  140.4060 C   0  0  2  0  0  3  0  0  0  0  0  0
  191.5420  176.5480  139.0900 O   0  0  0  0  0  1  0  0  0  0  0  0
  191.3550  177.4050  140.1750 C   0  0  0  0  0  2  0  0  0  0  0  0
  189.4160  176.9540  141.7010 C   0  0  0  0  0  2  0  0  0  0  0  0
  190.5230  176.8210  142.6510 N   0  0  0  0  0  0  0  0  0  0  0  0
  191.4240  176.7000  145.1190 S   0  0  0  0  0  0  0  0  0  0  0  0
  190.7510  175.4510  142.8590 N   0  0  0  0  0  2  0  0  0  0  0  0
  190.2160  177.4070  143.9640 C   0  0  1  0  0  0  0  0  0  0  0  0
  190.4220  178.9130  143.8990 C   0  0  0  0  0  1  0  0  0  0  0  0
  191.7250  175.3550  143.9360 C   0  0  0  0  0  2  0  0  0  0  0  0
  188.7840  177.0580  144.4400 C   0  0  0  0  0  2  0  0  0  0  0  0
  188.4640  177.4920  145.8380 C   0  0  0  0  0  0  0  0  0  0  0  0
  186.8690  178.3170  147.4660 C   0  0  0  0  0  3  0  0  0  0  0  0
  189.1450  177.8380  148.1400 C   0  0  0  0  0  3  0  0  0  0  0  0
  187.8540  178.2750  148.4570 C   0  0  0  0  0  3  0  0  0  0  0  0
  189.4490  177.4480  146.8320 C   0  0  0  0  0  3  0  0  0  0  0  0
  187.1720  177.9230  146.1600 C   0  0  0  0  0  3  0  0  0  0  0  0
  1  6  1  1  0  0  0
  2 12  1  0  0  0  0
  2 11  1  0  0  0  0
  3 10  1  0  0  0  0
  4  8  1  0  0  0  0
  5  1  1  0  0  0  0
  7  4  2  0  0  0  0
  7  9  1  0  0  0  0
  8  1  1  0  0  0  0
  9  5  1  0  0  0  0
 10 11  2  0  0  0  0
 11  7  1  0  0  0  0
 12 15  2  0  0  0  0
 13  2  2  0  0  0  0
 14 13  1  0  0  0  0
 14  3  2  0  0  0  0
 15  4  1  0  0  0  0
 16 13  1  0  0  0  0
 17 20  1  0  0  0  0
 17 18  1  0  0  0  0
 18 24  1  6  0  0  0
 18 22  1  0  0  0  0
 20 21  1  0  0  0  0
 21 16  1  1  0  0  0
 21 19  1  0  0  0  0
 22 19  1  0  0  0  0
 24 23  1  0  0  0  0
 25  3  1  0  0  0  0
 25 26  1  0  0  0  0
 27 26  1  6  0  0  0
 27 30  1  0  0  0  0
 28 29  1  0  0  0  0
 29 27  1  0  0  0  0
 30 31  1  0  0  0  0
 31 33  1  0  0  0  0
 31 34  1  0  0  0  0
 33 36  1  0  0  0  0
 34 35  1  6  0  0  0
 34 37  1  0  0  0  0
 34 32  1  0  0  0  0
 36 32  1  0  0  0  0
 37 38  1  0  0  0  0
 38 43  2  0  0  0  0
 38 42  1  0  0  0  0
 39 41  2  0  0  0  0
 40 41  1  0  0  0  0
 42 40  2  0  0  0  0
 43 39  1  0  0  0  0
M  END
>  <MODEL>
1

>  <REMARK>
 VINA RESULT:      -9.6      0.000      0.000
  Name = 
  11 active torsions:
  status: ('A' for Active; 'I' for Inactive)
    1  A    between atoms: O_1  and  C_34
    2  A    between atoms: O_1  and  C_35
    3  A    between atoms: C_2  and  C_6
    4  A    between atoms: C_2  and  C_13
    5  A    between atoms: C_3  and  N_4
    6  A    between atoms: C_3  and  C_12
    7  A    between atoms: C_6  and  C_12
    8  A    between atoms: C_11  and  C_14
    9  A    between atoms: C_12  and  C_17
   10  A    between atoms: C_14  and  C_22
   11  A    between atoms: C_19  and  C_37
                            x       y       z     vdW  Elec       q    Type
                         _______ _______ _______ _____ _____    ______ ____

>  <TORSDO>
F 11

$$$$
=
 OpenBabel10262422213D

 43 48  0  0  1  0  0  0  0  0999 V2000
  190.9600  176.4820  146.2620 C   0  0  1  0  0  3  0  0  0  0  0  0
  186.4140  178.0510  144.4830 C   0  0  0  0  0  0  0  0  0  0  0  0
  186.7750  178.3000  141.7380 C   0  0  0  0  0  0  0  0  0  0  0  0
  188.6210  177.3850  146.0900 C   0  0  0  0  0  0  0  0  0  0  0  0
  191.2870  177.3120  145.0310 C   0  0  0  0  0  2  0  0  0  0  0  0
  192.0700  176.4370  147.1050 O   0  0  0  0  0  1  0  0  0  0  0  0
  188.7930  177.5320  144.6930 C   0  0  0  0  0  0  0  0  0  0  0  0
  189.7840  177.1120  147.0010 C   0  0  0  0  0  2  0  0  0  0  0  0
  190.1250  177.2370  144.0440 C   0  0  0  0  0  2  0  0  0  0  0  0
  187.8230  177.9790  142.5410 N   0  0  0  0  0  0  0  0  0  0  0  0
  187.6840  177.8550  143.8900 C   0  0  0  0  0  0  0  0  0  0  0  0
  186.2670  177.9190  145.8680 C   0  0  0  0  0  3  0  0  0  0  0  0
  185.3150  178.3670  143.6700 C   0  0  0  0  0  0  0  0  0  0  0  0
  185.5070  178.4940  142.2870 C   0  0  0  0  0  3  0  0  0  0  0  0
  187.3650  177.5940  146.6640 C   0  0  0  0  0  3  0  0  0  0  0  0
  184.0450  178.5450  144.2500 O   0  0  0  0  0  0  0  0  0  0  0  0
  180.3570  178.9900  143.5380 C   0  0  0  0  0  2  0  0  0  0  0  0
  180.3660  178.4160  142.1240 C   0  0  2  0  0  3  0  0  0  0  0  0
  182.8700  178.4420  142.1060 C   0  0  0  0  0  2  0  0  0  0  0  0
  181.6000  178.5370  144.2980 C   0  0  0  0  0  2  0  0  0  0  0  0
  182.8690  178.9560  143.5490 C   0  0  1  0  0  3  0  0  0  0  0  0
  181.6090  178.9000  141.3780 C   0  0  0  0  0  2  0  0  0  0  0  0
  179.1850  178.4820  140.0510 O   0  0  0  0  0  1  0  0  0  0  0  0
  179.1110  178.8580  141.3930 C   0  0  0  0  0  2  0  0  0  0  0  0
  186.9740  178.3970  140.2660 C   0  0  0  0  0  2  0  0  0  0  0  0
  185.6440  178.6630  139.5830 C   0  0  0  0  0  2  0  0  0  0  0  0
  185.6940  178.2190  138.1260 C   0  0  2  0  0  3  0  0  0  0  0  0
  183.3400  178.5860  138.2630 O   0  0  0  0  0  1  0  0  0  0  0  0
  184.3130  177.7960  137.6520 C   0  0  0  0  0  2  0  0  0  0  0  0
  186.7090  177.0960  137.9080 C   0  0  0  0  0  2  0  0  0  0  0  0
  187.3950  177.2370  136.6210 N   0  0  0  0  0  0  0  0  0  0  0  0
  189.5130  176.8880  135.1010 S   0  0  0  0  0  0  0  0  0  0  0  0
  187.0620  176.1240  135.8310 N   0  0  0  0  0  2  0  0  0  0  0  0
  188.8590  177.2420  136.7570 C   0  0  1  0  0  0  0  0  0  0  0  0
  189.3160  178.6310  137.1790 C   0  0  0  0  0  1  0  0  0  0  0  0
  187.8960  176.2020  134.6410 C   0  0  0  0  0  2  0  0  0  0  0  0
  189.3580  176.1630  137.7500 C   0  0  0  0  0  2  0  0  0  0  0  0
  190.5830  176.5440  138.5250 C   0  0  0  0  0  0  0  0  0  0  0  0
  192.9930  176.7650  138.6660 C   0  0  0  0  0  3  0  0  0  0  0  0
  191.6060  177.4340  140.5360 C   0  0  0  0  0  3  0  0  0  0  0  0
  192.8720  177.2820  139.9600 C   0  0  0  0  0  3  0  0  0  0  0  0
  190.4630  177.0640  139.8200 C   0  0  0  0  0  3  0  0  0  0  0  0
  191.8500  176.4000  137.9490 C   0  0  0  0  0  3  0  0  0  0  0  0
  1  8  1  0  0  0  0
  1  6  1  1  0  0  0
  2 12  1  0  0  0  0
  3 14  2  0  0  0  0
  3 10  1  0  0  0  0
  4 15  1  0  0  0  0
  4  8  1  0  0  0  0
  5  1  1  0  0  0  0
  7  4  2  0  0  0  0
  9  7  1  0  0  0  0
  9  5  1  0  0  0  0
 10 11  2  0  0  0  0
 11  2  1  0  0  0  0
 11  7  1  0  0  0  0
 12 15  2  0  0  0  0
 13 16  1  0  0  0  0
 13  2  2  0  0  0  0
 14 13  1  0  0  0  0
 17 20  1  0  0  0  0
 18 24  1  6  0  0  0
 18 17  1  0  0  0  0
 19 21  1  0  0  0  0
 21 16  1  1  0  0  0
 21 20  1  0  0  0  0
 22 19  1  0  0  0  0
 22 18  1  0  0  0  0
 23 24  1  0  0  0  0
 25  3  1  0  0  0  0
 26 25  1  0  0  0  0
 27 29  1  1  0  0  0
 27 26  1  0  0  0  0
 29 28  1  0  0  0  0
 30 27  1  0  0  0  0
 31 34  1  0  0  0  0
 31 30  1  0  0  0  0
 32 34  1  0  0  0  0
 33 31  1  0  0  0  0
 34 35  1  1  0  0  0
 34 37  1  0  0  0  0
 36 32  1  0  0  0  0
 36 33  1  0  0  0  0
 37 38  1  0  0  0  0
 38 42  1  0  0  0  0
 39 41  2  0  0  0  0
 41 40  1  0  0  0  0
 42 40  2  0  0  0  0
 43 38  2  0  0  0  0
 43 39  1  0  0  0  0
M  END
>  <MODEL>
2

>  <REMARK>
 VINA RESULT:      -9.4      3.145      7.225
  Name = 
  11 active torsions:
  status: ('A' for Active; 'I' for Inactive)
    1  A    between atoms: O_1  and  C_34
    2  A    between atoms: O_1  and  C_35
    3  A    between atoms: C_2  and  C_6
    4  A    between atoms: C_2  and  C_13
    5  A    between atoms: C_3  and  N_4
    6  A    between atoms: C_3  and  C_12
    7  A    between atoms: C_6  and  C_12
    8  A    between atoms: C_11  and  C_14
    9  A    between atoms: C_12  and  C_17
   10  A    between atoms: C_14  and  C_22
   11  A    between atoms: C_19  and  C_37
                            x       y       z     vdW  Elec       q    Type
                         _______ _______ _______ _____ _____    ______ ____

>  <TORSDO>
F 11

$$$$
=
 OpenBabel10262422213D

 43 48  0  0  1  0  0  0  0  0999 V2000
  187.8610  177.1690  147.2610 C   0  0  1  0  0  3  0  0  0  0  0  0
  185.9280  178.5360  142.7120 C   0  0  0  0  0  0  0  0  0  0  0  0
  188.0130  178.1560  140.9140 C   0  0  0  0  0  0  0  0  0  0  0  0
  186.4040  178.1290  145.4510 C   0  0  0  0  0  0  0  0  0  0  0  0
  189.0500  177.6900  146.4710 C   0  0  0  0  0  2  0  0  0  0  0  0
  188.1310  177.2550  148.6260 O   0  0  0  0  0  1  0  0  0  0  0  0
  187.4600  177.9560  144.5250 C   0  0  0  0  0  0  0  0  0  0  0  0
  186.6280  178.0050  146.9320 C   0  0  0  0  0  2  0  0  0  0  0  0
  188.8120  177.4590  144.9810 C   0  0  0  0  0  2  0  0  0  0  0  0
  188.2120  177.9670  142.2440 N   0  0  0  0  0  0  0  0  0  0  0  0
  187.2160  178.1500  143.1540 C   0  0  0  0  0  0  0  0  0  0  0  0
  184.9010  178.7190  143.6440 C   0  0  0  0  0  3  0  0  0  0  0  0
  185.6960  178.7210  141.3400 C   0  0  0  0  0  0  0  0  0  0  0  0
  186.7540  178.5300  140.4410 C   0  0  0  0  0  3  0  0  0  0  0  0
  185.1410  178.5220  145.0030 C   0  0  0  0  0  3  0  0  0  0  0  0
  184.4130  179.0850  140.8920 O   0  0  0  0  0  0  0  0  0  0  0  0
  182.0910  178.9590  137.9080 C   0  0  0  0  0  2  0  0  0  0  0  0
  181.3770  177.6620  138.2780 C   0  0  2  0  0  3  0  0  0  0  0  0
  183.0740  177.2120  140.0650 C   0  0  0  0  0  2  0  0  0  0  0  0
  182.7760  179.5520  139.1360 C   0  0  0  0  0  2  0  0  0  0  0  0
  183.7570  178.5440  139.7420 C   0  0  1  0  0  3  0  0  0  0  0  0
  182.3880  176.6520  138.8210 C   0  0  0  0  0  2  0  0  0  0  0  0
  181.6330  176.6450  136.1350 O   0  0  0  0  0  1  0  0  0  0  0  0
  180.6840  177.1000  137.0500 C   0  0  0  0  0  2  0  0  0  0  0  0
  189.1280  177.9170  139.9570 C   0  0  0  0  0  2  0  0  0  0  0  0
  190.0160  176.7980  140.4700 C   0  0  0  0  0  2  0  0  0  0  0  0
  191.2390  176.6350  139.5760 C   0  0  2  0  0  3  0  0  0  0  0  0
  193.5770  177.1010  139.4490 O   0  0  0  0  0  1  0  0  0  0  0  0
  192.4010  177.4580  140.1090 C   0  0  0  0  0  2  0  0  0  0  0  0
  190.9360  177.0040  138.1240 C   0  0  0  0  0  2  0  0  0  0  0  0
  191.1530  175.8670  137.2260 N   0  0  0  0  0  0  0  0  0  0  0  0
  190.6220  174.5680  135.0010 S   0  0  0  0  0  0  0  0  0  0  0  0
  192.2370  176.1780  136.3890 N   0  0  0  0  0  2  0  0  0  0  0  0
  189.9990  175.6070  136.3520 C   0  0  1  0  0  0  0  0  0  0  0  0
  188.9500  174.8240  137.1290 C   0  0  0  0  0  1  0  0  0  0  0  0
  192.3080  175.1150  135.3970 C   0  0  0  0  0  2  0  0  0  0  0  0
  189.4030  176.9110  135.7670 C   0  0  0  0  0  2  0  0  0  0  0  0
  187.9060  176.9850  135.7940 C   0  0  0  0  0  0  0  0  0  0  0  0
  185.8470  177.3950  137.0050 C   0  0  0  0  0  3  0  0  0  0  0  0
  185.7730  176.8300  134.6500 C   0  0  0  0  0  3  0  0  0  0  0  0
  185.1120  177.1530  135.8410 C   0  0  0  0  0  3  0  0  0  0  0  0
  187.1680  176.7450  134.6280 C   0  0  0  0  0  3  0  0  0  0  0  0
  187.2420  177.3150  136.9810 C   0  0  0  0  0  3  0  0  0  0  0  0
  1  6  1  1  0  0  0
  2 11  1  0  0  0  0
  2 12  1  0  0  0  0
  3 10  1  0  0  0  0
  4  8  1  0  0  0  0
  5  1  1  0  0  0  0
  7  9  1  0  0  0  0
  7  4  2  0  0  0  0
  8  1  1  0  0  0  0
  9  5  1  0  0  0  0
 10 11  2  0  0  0  0
 11  7  1  0  0  0  0
 12 15  2  0  0  0  0
 13  2  2  0  0  0  0
 14  3  2  0  0  0  0
 14 13  1  0  0  0  0
 15  4  1  0  0  0  0
 16 13  1  0  0  0  0
 17 18  1  0  0  0  0
 17 20  1  0  0  0  0
 18 24  1  6  0  0  0
 18 22  1  0  0  0  0
 20 21  1  0  0  0  0
 21 19  1  0  0  0  0
 21 16  1  1  0  0  0
 22 19  1  0  0  0  0
 23 24  1  0  0  0  0
 25 26  1  0  0  0  0
 25  3  1  0  0  0  0
 27 30  1  6  0  0  0
 27 29  1  0  0  0  0
 27 26  1  0  0  0  0
 28 29  1  0  0  0  0
 31 30  1  0  0  0  0
 32 36  1  0  0  0  0
 32 34  1  0  0  0  0
 33 31  1  0  0  0  0
 34 35  1  1  0  0  0
 34 31  1  0  0  0  0
 36 33  1  0  0  0  0
 37 38  1  0  0  0  0
 37 34  1  0  0  0  0
 38 43  1  0  0  0  0
 40 41  2  0  0  0  0
 41 39  1  0  0  0  0
 42 40  1  0  0  0  0
 42 38  2  0  0  0  0
 43 39  2  0  0  0  0
M  END
>  <MODEL>
3

>  <REMARK>
 VINA RESULT:      -9.1      3.045      6.374
  Name = 
  11 active torsions:
  status: ('A' for Active; 'I' for Inactive)
    1  A    between atoms: O_1  and  C_34
    2  A    between atoms: O_1  and  C_35
    3  A    between atoms: C_2  and  C_6
    4  A    between atoms: C_2  and  C_13
    5  A    between atoms: C_3  and  N_4
    6  A    between atoms: C_3  and  C_12
    7  A    between atoms: C_6  and  C_12
    8  A    between atoms: C_11  and  C_14
    9  A    between atoms: C_12  and  C_17
   10  A    between atoms: C_14  and  C_22
   11  A    between atoms: C_19  and  C_37
                            x       y       z     vdW  Elec       q    Type
                         _______ _______ _______ _____ _____    ______ ____

>  <TORSDO>
F 11

$$$$
=
 OpenBabel10262422213D

 43 48  0  0  1  0  0  0  0  0999 V2000
  187.8460  177.1710  147.4280 C   0  0  1  0  0  3  0  0  0  0  0  0
  186.0460  178.6480  142.8580 C   0  0  0  0  0  0  0  0  0  0  0  0
  188.0580  177.9870  141.0580 C   0  0  0  0  0  0  0  0  0  0  0  0
  186.4950  178.2510  145.6040 C   0  0  0  0  0  0  0  0  0  0  0  0
  189.0810  177.5320  146.6190 C   0  0  0  0  0  2  0  0  0  0  0  0
  188.1350  177.2560  148.7890 O   0  0  0  0  0  1  0  0  0  0  0  0
  187.5160  177.9360  144.6770 C   0  0  0  0  0  0  0  0  0  0  0  0
  186.7150  178.1360  147.0860 C   0  0  0  0  0  2  0  0  0  0  0  0
  188.8050  177.2960  145.1370 C   0  0  0  0  0  2  0  0  0  0  0  0
  188.2460  177.8080  142.3920 N   0  0  0  0  0  0  0  0  0  0  0  0
  187.2850  178.1250  143.3030 C   0  0  0  0  0  0  0  0  0  0  0  0
  185.0550  178.9700  143.7920 C   0  0  0  0  0  3  0  0  0  0  0  0
  185.8260  178.8270  141.4840 C   0  0  0  0  0  0  0  0  0  0  0  0
  186.8470  178.4940  140.5840 C   0  0  0  0  0  3  0  0  0  0  0  0
  185.2820  178.7780  145.1540 C   0  0  0  0  0  3  0  0  0  0  0  0
  184.5900  179.3270  141.0350 O   0  0  0  0  0  0  0  0  0  0  0  0
  182.5100  178.3370  138.0340 C   0  0  0  0  0  2  0  0  0  0  0  0
  181.1510  178.3680  138.7270 C   0  0  2  0  0  3  0  0  0  0  0  0
  182.2690  178.5570  140.9600 C   0  0  0  0  0  2  0  0  0  0  0  0
  183.5300  179.1370  138.8390 C   0  0  0  0  0  2  0  0  0  0  0  0
  183.6340  178.5920  140.2670 C   0  0  1  0  0  3  0  0  0  0  0  0
  181.2700  177.7610  140.1250 C   0  0  0  0  0  2  0  0  0  0  0  0
  180.1710  176.2420  138.2690 O   0  0  0  0  0  1  0  0  0  0  0  0
  180.1460  177.5870  137.9000 C   0  0  0  0  0  2  0  0  0  0  0  0
  189.1300  177.5990  140.1020 C   0  0  0  0  0  2  0  0  0  0  0  0
  189.1530  178.5660  138.9320 C   0  0  0  0  0  2  0  0  0  0  0  0
  189.1780  177.8060  137.6110 C   0  0  2  0  0  3  0  0  0  0  0  0
  187.1920  179.0830  137.2630 O   0  0  0  0  0  1  0  0  0  0  0  0
  188.2520  178.4660  136.6010 C   0  0  0  0  0  2  0  0  0  0  0  0
  188.8160  176.3320  137.7960 C   0  0  0  0  0  2  0  0  0  0  0  0
  188.2500  175.7630  136.5700 N   0  0  0  0  0  0  0  0  0  0  0  0
  188.1210  173.8370  134.7840 S   0  0  0  0  0  0  0  0  0  0  0  0
  187.0860  175.0590  136.9180 N   0  0  0  0  0  2  0  0  0  0  0  0
  189.1540  174.8000  135.9230 C   0  0  1  0  0  0  0  0  0  0  0  0
  190.1980  175.5600  135.1160 C   0  0  0  0  0  1  0  0  0  0  0  0
  186.6540  174.3600  135.7170 C   0  0  0  0  0  2  0  0  0  0  0  0
  189.8220  173.8470  136.9450 C   0  0  0  0  0  2  0  0  0  0  0  0
  191.3140  173.7600  136.8390 C   0  0  0  0  0  0  0  0  0  0  0  0
  193.5130  174.5330  137.5040 C   0  0  0  0  0  3  0  0  0  0  0  0
  193.2990  172.7120  135.9210 C   0  0  0  0  0  3  0  0  0  0  0  0
  194.1030  173.5800  136.6690 C   0  0  0  0  0  3  0  0  0  0  0  0
  191.9070  172.8030  136.0060 C   0  0  0  0  0  3  0  0  0  0  0  0
  192.1210  174.6210  137.5920 C   0  0  0  0  0  3  0  0  0  0  0  0
  1  6  1  1  0  0  0
  2 11  1  0  0  0  0
  2 12  1  0  0  0  0
  3 10  1  0  0  0  0
  4  8  1  0  0  0  0
  5  1  1  0  0  0  0
  7  9  1  0  0  0  0
  7  4  2  0  0  0  0
  8  1  1  0  0  0  0
  9  5  1  0  0  0  0
 10 11  2  0  0  0  0
 11  7  1  0  0  0  0
 12 15  2  0  0  0  0
 13  2  2  0  0  0  0
 14  3  2  0  0  0  0
 14 13  1  0  0  0  0
 15  4  1  0  0  0  0
 16 13  1  0  0  0  0
 17 18  1  0  0  0  0
 17 20  1  0  0  0  0
 18 24  1  6  0  0  0
 18 22  1  0  0  0  0
 20 21  1  0  0  0  0
 21 19  1  0  0  0  0
 21 16  1  1  0  0  0
 22 19  1  0  0  0  0
 24 23  1  0  0  0  0
 25  3  1  0  0  0  0
 26 25  1  0  0  0  0
 27 29  1  6  0  0  0
 27 30  1  0  0  0  0
 27 26  1  0  0  0  0
 29 28  1  0  0  0  0
 31 33  1  0  0  0  0
 31 30  1  0  0  0  0
 32 36  1  0  0  0  0
 32 34  1  0  0  0  0
 34 35  1  6  0  0  0
 34 31  1  0  0  0  0
 34 37  1  0  0  0  0
 36 33  1  0  0  0  0
 38 37  1  0  0  0  0
 38 43  1  0  0  0  0
 39 43  2  0  0  0  0
 40 42  1  0  0  0  0
 40 41  2  0  0  0  0
 41 39  1  0  0  0  0
 42 38  2  0  0  0  0
M  END
>  <MODEL>
4

>  <REMARK>
 VINA RESULT:      -9.0      3.578      6.898
  Name = 
  11 active torsions:
  status: ('A' for Active; 'I' for Inactive)
    1  A    between atoms: O_1  and  C_34
    2  A    between atoms: O_1  and  C_35
    3  A    between atoms: C_2  and  C_6
    4  A    between atoms: C_2  and  C_13
    5  A    between atoms: C_3  and  N_4
    6  A    between atoms: C_3  and  C_12
    7  A    between atoms: C_6  and  C_12
    8  A    between atoms: C_11  and  C_14
    9  A    between atoms: C_12  and  C_17
   10  A    between atoms: C_14  and  C_22
   11  A    between atoms: C_19  and  C_37
                            x       y       z     vdW  Elec       q    Type
                         _______ _______ _______ _____ _____    ______ ____

>  <TORSDO>
F 11

$$$$
=
 OpenBabel10262422213D

 43 48  0  0  1  0  0  0  0  0999 V2000
  184.3630  178.3690  145.2560 C   0  0  1  0  0  3  0  0  0  0  0  0
  182.5190  178.8700  140.4970 C   0  0  0  0  0  0  0  0  0  0  0  0
  184.7390  178.6000  138.8460 C   0  0  0  0  0  0  0  0  0  0  0  0
  182.8890  178.8720  143.2830 C   0  0  0  0  0  0  0  0  0  0  0  0
  185.5070  178.9680  144.4540 C   0  0  0  0  0  2  0  0  0  0  0  0
  184.5370  178.6590  146.6090 O   0  0  0  0  0  1  0  0  0  0  0  0
  184.0110  178.7530  142.4300 C   0  0  0  0  0  0  0  0  0  0  0  0
  183.0420  178.9620  144.7750 C   0  0  0  0  0  2  0  0  0  0  0  0
  185.3930  178.5270  142.9980 C   0  0  0  0  0  2  0  0  0  0  0  0
  184.8860  178.6050  140.1970 N   0  0  0  0  0  0  0  0  0  0  0  0
  183.8220  178.7410  141.0360 C   0  0  0  0  0  0  0  0  0  0  0  0
  181.4240  179.0050  141.3570 C   0  0  0  0  0  3  0  0  0  0  0  0
  182.3430  178.8520  139.1050 C   0  0  0  0  0  0  0  0  0  0  0  0
  183.4690  178.7180  138.2800 C   0  0  0  0  0  3  0  0  0  0  0  0
  181.6110  179.0110  142.7390 C   0  0  0  0  0  3  0  0  0  0  0  0
  181.0490  178.9590  138.5640 O   0  0  0  0  0  0  0  0  0  0  0  0
  180.1940  181.2480  135.6770 C   0  0  0  0  0  2  0  0  0  0  0  0
  180.8300  182.5150  136.2430 C   0  0  2  0  0  3  0  0  0  0  0  0
  181.1090  181.4040  138.4700 C   0  0  0  0  0  2  0  0  0  0  0  0
  180.7580  180.0170  136.3780 C   0  0  0  0  0  2  0  0  0  0  0  0
  180.5310  180.1100  137.8900 C   0  0  1  0  0  3  0  0  0  0  0  0
  180.5360  182.6150  137.7390 C   0  0  0  0  0  2  0  0  0  0  0  0
  180.6800  184.8950  136.1630 O   0  0  0  0  0  1  0  0  0  0  0  0
  180.2740  183.7260  135.5170 C   0  0  0  0  0  2  0  0  0  0  0  0
  185.9310  178.4220  137.9730 C   0  0  0  0  0  2  0  0  0  0  0  0
  186.8460  177.3620  138.5600 C   0  0  0  0  0  2  0  0  0  0  0  0
  188.0760  178.0050  139.1870 C   0  0  2  0  0  3  0  0  0  0  0  0
  189.0540  179.6790  137.7940 O   0  0  0  0  0  1  0  0  0  0  0  0
  189.1110  178.3240  138.1200 C   0  0  0  0  0  2  0  0  0  0  0  0
  188.6810  177.1280  140.2830 C   0  0  0  0  0  2  0  0  0  0  0  0
  189.8770  177.7440  140.8630 N   0  0  0  0  0  0  0  0  0  0  0  0
  191.4150  178.2630  142.9320 S   0  0  0  0  0  0  0  0  0  0  0  0
  190.9390  176.8360  140.7270 N   0  0  0  0  0  2  0  0  0  0  0  0
  189.7320  178.0210  142.3000 C   0  0  1  0  0  0  0  0  0  0  0  0
  188.9480  179.3130  142.4830 C   0  0  0  0  0  1  0  0  0  0  0  0
  192.0580  177.3990  141.4690 C   0  0  0  0  0  2  0  0  0  0  0  0
  189.0610  176.8470  143.0560 C   0  0  0  0  0  2  0  0  0  0  0  0
  189.1400  176.9370  144.5500 C   0  0  0  0  0  0  0  0  0  0  0  0
  190.4400  176.8230  146.5930 C   0  0  0  0  0  3  0  0  0  0  0  0
  188.0780  177.3520  146.6910 C   0  0  0  0  0  3  0  0  0  0  0  0
  189.2990  177.1340  147.3390 C   0  0  0  0  0  3  0  0  0  0  0  0
  187.9990  177.2520  145.2980 C   0  0  0  0  0  3  0  0  0  0  0  0
  190.3620  176.7280  145.2010 C   0  0  0  0  0  3  0  0  0  0  0  0
  1  6  1  1  0  0  0
  2 11  1  0  0  0  0
  2 12  1  0  0  0  0
  3 10  1  0  0  0  0
  4  8  1  0  0  0  0
  5  1  1  0  0  0  0
  7  9  1  0  0  0  0
  7  4  2  0  0  0  0
  8  1  1  0  0  0  0
  9  5  1  0  0  0  0
 10 11  2  0  0  0  0
 11  7  1  0  0  0  0
 12 15  2  0  0  0  0
 13  2  2  0  0  0  0
 14  3  2  0  0  0  0
 14 13  1  0  0  0  0
 15  4  1  0  0  0  0
 16 13  1  0  0  0  0
 17 18  1  0  0  0  0
 17 20  1  0  0  0  0
 18 24  1  6  0  0  0
 18 22  1  0  0  0  0
 20 21  1  0  0  0  0
 21 19  1  0  0  0  0
 21 16  1  1  0  0  0
 22 19  1  0  0  0  0
 24 23  1  0  0  0  0
 25 26  1  0  0  0  0
 25  3  1  0  0  0  0
 26 27  1  0  0  0  0
 27 29  1  6  0  0  0
 27 30  1  0  0  0  0
 28 29  1  0  0  0  0
 30 31  1  0  0  0  0
 31 34  1  0  0  0  0
 33 31  1  0  0  0  0
 33 36  1  0  0  0  0
 34 35  1  1  0  0  0
 34 32  1  0  0  0  0
 34 37  1  0  0  0  0
 36 32  1  0  0  0  0
 37 38  1  0  0  0  0
 38 43  2  0  0  0  0
 38 42  1  0  0  0  0
 39 41  2  0  0  0  0
 40 41  1  0  0  0  0
 42 40  2  0  0  0  0
 43 39  1  0  0  0  0
M  END
>  <MODEL>
5

>  <REMARK>
 VINA RESULT:      -8.8      2.811      4.330
  Name = 
  11 active torsions:
  status: ('A' for Active; 'I' for Inactive)
    1  A    between atoms: O_1  and  C_34
    2  A    between atoms: O_1  and  C_35
    3  A    between atoms: C_2  and  C_6
    4  A    between atoms: C_2  and  C_13
    5  A    between atoms: C_3  and  N_4
    6  A    between atoms: C_3  and  C_12
    7  A    between atoms: C_6  and  C_12
    8  A    between atoms: C_11  and  C_14
    9  A    between atoms: C_12  and  C_17
   10  A    between atoms: C_14  and  C_22
   11  A    between atoms: C_19  and  C_37
                            x       y       z     vdW  Elec       q    Type
                         _______ _______ _______ _____ _____    ______ ____

>  <TORSDO>
F 11

$$$$
=
 OpenBabel10262422213D

 43 48  0  0  1  0  0  0  0  0999 V2000
  191.3830  176.2910  146.9590 C   0  0  1  0  0  3  0  0  0  0  0  0
  187.1200  177.8200  144.5540 C   0  0  0  0  0  0  0  0  0  0  0  0
  187.8800  178.1380  141.9000 C   0  0  0  0  0  0  0  0  0  0  0  0
  189.0770  177.1560  146.4580 C   0  0  0  0  0  0  0  0  0  0  0  0
  191.8720  177.1550  145.8080 C   0  0  0  0  0  2  0  0  0  0  0  0
  192.3560  176.2460  147.9570 O   0  0  0  0  0  1  0  0  0  0  0  0
  189.4520  177.3380  145.1060 C   0  0  0  0  0  0  0  0  0  0  0  0
  190.0970  176.8830  147.5270 C   0  0  0  0  0  2  0  0  0  0  0  0
  190.8710  177.0820  144.6580 C   0  0  0  0  0  2  0  0  0  0  0  0
  188.8030  177.8170  142.8430 N   0  0  0  0  0  0  0  0  0  0  0  0
  188.4680  177.6600  144.1540 C   0  0  0  0  0  0  0  0  0  0  0  0
  186.7710  177.6530  145.8990 C   0  0  0  0  0  3  0  0  0  0  0  0
  186.1470  178.1350  143.5930 C   0  0  0  0  0  0  0  0  0  0  0  0
  186.5400  178.2970  142.2570 C   0  0  0  0  0  3  0  0  0  0  0  0
  187.7460  177.3290  146.8430 C   0  0  0  0  0  3  0  0  0  0  0  0
  184.8020  178.2760  143.9810 O   0  0  0  0  0  0  0  0  0  0  0  0
  181.3210  179.3880  143.0050 C   0  0  0  0  0  2  0  0  0  0  0  0
  181.2810  178.7110  141.6380 C   0  0  2  0  0  3  0  0  0  0  0  0
  183.7360  178.2350  141.7790 C   0  0  0  0  0  2  0  0  0  0  0  0
  182.4070  178.7600  143.8730 C   0  0  0  0  0  2  0  0  0  0  0  0
  183.7700  178.8560  143.1790 C   0  0  1  0  0  3  0  0  0  0  0  0
  182.6320  178.8740  140.9420 C   0  0  0  0  0  2  0  0  0  0  0  0
  178.9830  178.6460  141.0020 O   0  0  0  0  0  1  0  0  0  0  0  0
  180.1800  179.3330  140.7990 C   0  0  0  0  0  2  0  0  0  0  0  0
  188.2930  178.2720  140.4760 C   0  0  0  0  0  2  0  0  0  0  0  0
  189.1430  177.0820  140.0710 C   0  0  0  0  0  2  0  0  0  0  0  0
  189.7860  177.3230  138.7110 C   0  0  2  0  0  3  0  0  0  0  0  0
  189.3310  179.2020  137.3110 O   0  0  0  0  0  1  0  0  0  0  0  0
  188.8010  177.9960  137.7690 C   0  0  0  0  0  2  0  0  0  0  0  0
  190.3230  176.0290  138.0980 C   0  0  0  0  0  2  0  0  0  0  0  0
  189.7070  175.7570  136.7960 N   0  0  0  0  0  0  0  0  0  0  0  0
  189.5200  174.3180  134.6030 S   0  0  0  0  0  0  0  0  0  0  0  0
  188.5720  174.9590  137.0150 N   0  0  0  0  0  2  0  0  0  0  0  0
  190.5930  175.0050  135.8960 C   0  0  1  0  0  0  0  0  0  0  0  0
  191.5830  175.9660  135.2530 C   0  0  0  0  0  1  0  0  0  0  0  0
  188.0930  174.5590  135.7000 C   0  0  0  0  0  2  0  0  0  0  0  0
  191.3250  173.8520  136.6260 C   0  0  0  0  0  2  0  0  0  0  0  0
  192.8210  173.9320  136.5830 C   0  0  0  0  0  0  0  0  0  0  0  0
  194.9150  173.4760  135.4510 C   0  0  0  0  0  3  0  0  0  0  0  0
  194.9170  174.6560  137.5660 C   0  0  0  0  0  3  0  0  0  0  0  0
  195.6140  174.1080  136.4840 C   0  0  0  0  0  3  0  0  0  0  0  0
  193.5220  174.5670  137.6160 C   0  0  0  0  0  3  0  0  0  0  0  0
  193.5210  173.3920  135.4980 C   0  0  0  0  0  3  0  0  0  0  0  0
  1  8  1  0  0  0  0
  1  6  1  1  0  0  0
  2 12  1  0  0  0  0
  3 14  2  0  0  0  0
  3 10  1  0  0  0  0
  4 15  1  0  0  0  0
  4  8  1  0  0  0  0
  5  1  1  0  0  0  0
  7  4  2  0  0  0  0
  9  7  1  0  0  0  0
  9  5  1  0  0  0  0
 10 11  2  0  0  0  0
 11  2  1  0  0  0  0
 11  7  1  0  0  0  0
 12 15  2  0  0  0  0
 13 16  1  0  0  0  0
 13  2  2  0  0  0  0
 14 13  1  0  0  0  0
 17 20  1  0  0  0  0
 18 24  1  6  0  0  0
 18 17  1  0  0  0  0
 19 21  1  0  0  0  0
 21 20  1  0  0  0  0
 21 16  1  1  0  0  0
 22 18  1  0  0  0  0
 22 19  1  0  0  0  0
 24 23  1  0  0  0  0
 25  3  1  0  0  0  0
 26 25  1  0  0  0  0
 27 29  1  6  0  0  0
 27 26  1  0  0  0  0
 28 29  1  0  0  0  0
 30 27  1  0  0  0  0
 31 33  1  0  0  0  0
 31 30  1  0  0  0  0
 32 36  1  0  0  0  0
 32 34  1  0  0  0  0
 34 35  1  6  0  0  0
 34 37  1  0  0  0  0
 34 31  1  0  0  0  0
 36 33  1  0  0  0  0
 38 37  1  0  0  0  0
 38 42  1  0  0  0  0
 39 43  1  0  0  0  0
 39 41  2  0  0  0  0
 40 42  2  0  0  0  0
 41 40  1  0  0  0  0
 43 38  2  0  0  0  0
M  END
>  <MODEL>
6

>  <REMARK>
 VINA RESULT:      -8.6      3.916      7.998
  Name = 
  11 active torsions:
  status: ('A' for Active; 'I' for Inactive)
    1  A    between atoms: O_1  and  C_34
    2  A    between atoms: O_1  and  C_35
    3  A    between atoms: C_2  and  C_6
    4  A    between atoms: C_2  and  C_13
    5  A    between atoms: C_3  and  N_4
    6  A    between atoms: C_3  and  C_12
    7  A    between atoms: C_6  and  C_12
    8  A    between atoms: C_11  and  C_14
    9  A    between atoms: C_12  and  C_17
   10  A    between atoms: C_14  and  C_22
   11  A    between atoms: C_19  and  C_37
                            x       y       z     vdW  Elec       q    Type
                         _______ _______ _______ _____ _____    ______ ____

>  <TORSDO>
F 11

$$$$
=
 OpenBabel10262422213D

 43 48  0  0  1  0  0  0  0  0999 V2000
  189.8310  175.6860  135.8670 C   0  0  1  0  0  3  0  0  0  0  0  0
  189.5320  177.8280  140.5170 C   0  0  0  0  0  0  0  0  0  0  0  0
  186.8570  178.5250  140.8040 C   0  0  0  0  0  0  0  0  0  0  0  0
  190.4020  176.7530  138.0700 C   0  0  0  0  0  0  0  0  0  0  0  0
  188.6990  176.6940  135.7610 C   0  0  0  0  0  2  0  0  0  0  0  0
  190.3460  175.4250  134.5980 O   0  0  0  0  0  1  0  0  0  0  0  0
  189.0460  177.1290  138.2260 C   0  0  0  0  0  0  0  0  0  0  0  0
  190.9330  176.2520  136.7570 C   0  0  0  0  0  2  0  0  0  0  0  0
  188.0420  176.8670  137.1280 C   0  0  0  0  0  2  0  0  0  0  0  0
  187.3070  178.0040  139.6330 N   0  0  0  0  0  0  0  0  0  0  0  0
  188.6120  177.6560  139.4550 C   0  0  0  0  0  0  0  0  0  0  0  0
  190.8720  177.4670  140.3380 C   0  0  0  0  0  3  0  0  0  0  0  0
  189.0840  178.3500  141.7400 C   0  0  0  0  0  0  0  0  0  0  0  0
  187.7340  178.7020  141.8750 C   0  0  0  0  0  3  0  0  0  0  0  0
  191.3020  176.9390  139.1210 C   0  0  0  0  0  3  0  0  0  0  0  0
  189.9900  178.5050  142.8060 O   0  0  0  0  0  0  0  0  0  0  0  0
  189.9180  177.2630  146.3780 C   0  0  0  0  0  2  0  0  0  0  0  0
  191.3500  176.7380  146.4260 C   0  0  2  0  0  3  0  0  0  0  0  0
  191.5530  177.0050  143.9440 C   0  0  0  0  0  2  0  0  0  0  0  0
  189.7570  178.2510  145.2280 C   0  0  0  0  0  2  0  0  0  0  0  0
  190.1400  177.5930  143.8980 C   0  0  1  0  0  3  0  0  0  0  0  0
  191.6850  176.0320  145.1130 C   0  0  0  0  0  2  0  0  0  0  0  0
  192.7960  175.8290  148.0920 O   0  0  0  0  0  1  0  0  0  0  0  0
  191.4950  175.7760  147.5910 C   0  0  0  0  0  2  0  0  0  0  0  0
  185.4160  178.8640  140.9570 C   0  0  0  0  0  2  0  0  0  0  0  0
  184.9440  178.4940  142.3520 C   0  0  0  0  0  2  0  0  0  0  0  0
  183.5290  179.0050  142.5910 C   0  0  2  0  0  3  0  0  0  0  0  0
  184.2190  179.1950  144.8680 O   0  0  0  0  0  1  0  0  0  0  0  0
  183.1440  178.8410  144.0520 C   0  0  0  0  0  2  0  0  0  0  0  0
  182.5130  178.3110  141.6830 C   0  0  0  0  0  2  0  0  0  0  0  0
  181.5100  179.2550  141.1820 N   0  0  0  0  0  0  0  0  0  0  0  0
  179.7900  180.0100  139.3410 S   0  0  0  0  0  0  0  0  0  0  0  0
  180.2650  178.8840  141.7140 N   0  0  0  0  0  2  0  0  0  0  0  0
  181.3780  179.2170  139.7180 C   0  0  1  0  0  0  0  0  0  0  0  0
  182.4980  180.0370  139.0940 C   0  0  0  0  0  1  0  0  0  0  0  0
  179.2730  179.7220  141.0580 C   0  0  0  0  0  2  0  0  0  0  0  0
  181.3740  177.7680  139.1690 C   0  0  0  0  0  2  0  0  0  0  0  0
  182.3170  177.5260  138.0300 C   0  0  0  0  0  0  0  0  0  0  0  0
  184.4900  176.8200  137.2190 C   0  0  0  0  0  3  0  0  0  0  0  0
  182.7770  177.5030  135.6490 C   0  0  0  0  0  3  0  0  0  0  0  0
  184.0740  177.0430  135.9030 C   0  0  0  0  0  3  0  0  0  0  0  0
  181.9010  177.7450  136.7110 C   0  0  0  0  0  3  0  0  0  0  0  0
  183.6130  177.0580  138.2810 C   0  0  0  0  0  3  0  0  0  0  0  0
  1  6  1  6  0  0  0
  1  8  1  0  0  0  0
  2 13  1  0  0  0  0
  3 25  1  0  0  0  0
  3 14  1  0  0  0  0
  4  7  2  0  0  0  0
  4 15  1  0  0  0  0
  5  1  1  0  0  0  0
  5  9  1  0  0  0  0
  7 11  1  0  0  0  0
  8  4  1  0  0  0  0
  9  7  1  0  0  0  0
 10  3  2  0  0  0  0
 11 10  1  0  0  0  0
 11  2  2  0  0  0  0
 12  2  1  0  0  0  0
 13 14  2  0  0  0  0
 13 16  1  0  0  0  0
 15 12  2  0  0  0  0
 17 18  1  0  0  0  0
 18 24  1  1  0  0  0
 19 22  1  0  0  0  0
 20 17  1  0  0  0  0
 21 16  1  6  0  0  0
 21 19  1  0  0  0  0
 21 20  1  0  0  0  0
 22 18  1  0  0  0  0
 24 23  1  0  0  0  0
 25 26  1  0  0  0  0
 26 27  1  0  0  0  0
 27 30  1  6  0  0  0
 27 29  1  0  0  0  0
 29 28  1  0  0  0  0
 31 30  1  0  0  0  0
 31 33  1  0  0  0  0
 32 34  1  0  0  0  0
 32 36  1  0  0  0  0
 34 35  1  6  0  0  0
 34 31  1  0  0  0  0
 36 33  1  0  0  0  0
 37 34  1  0  0  0  0
 38 43  1  0  0  0  0
 38 37  1  0  0  0  0
 39 43  2  0  0  0  0
 40 41  2  0  0  0  0
 40 42  1  0  0  0  0
 41 39  1  0  0  0  0
 42 38  2  0  0  0  0
M  END
>  <MODEL>
7

>  <REMARK>
 VINA RESULT:      -8.6      3.500      9.994
  Name = 
  11 active torsions:
  status: ('A' for Active; 'I' for Inactive)
    1  A    between atoms: O_1  and  C_34
    2  A    between atoms: O_1  and  C_35
    3  A    between atoms: C_2  and  C_6
    4  A    between atoms: C_2  and  C_13
    5  A    between atoms: C_3  and  N_4
    6  A    between atoms: C_3  and  C_12
    7  A    between atoms: C_6  and  C_12
    8  A    between atoms: C_11  and  C_14
    9  A    between atoms: C_12  and  C_17
   10  A    between atoms: C_14  and  C_22
   11  A    between atoms: C_19  and  C_37
                            x       y       z     vdW  Elec       q    Type
                         _______ _______ _______ _____ _____    ______ ____

>  <TORSDO>
F 11

$$$$
=
 OpenBabel10262422213D

 43 48  0  0  1  0  0  0  0  0999 V2000
  192.0680  174.5220  136.1810 C   0  0  1  0  0  3  0  0  0  0  0  0
  189.6370  177.4680  139.6040 C   0  0  0  0  0  0  0  0  0  0  0  0
  187.0590  177.7360  138.6020 C   0  0  0  0  0  0  0  0  0  0  0  0
  191.5530  176.0910  138.0760 C   0  0  0  0  0  0  0  0  0  0  0  0
  191.0240  175.2780  135.3750 C   0  0  0  0  0  2  0  0  0  0  0  0
  193.0980  174.1050  135.3390 O   0  0  0  0  0  1  0  0  0  0  0  0
  190.2400  176.2510  137.5720 C   0  0  0  0  0  0  0  0  0  0  0  0
  192.6340  175.4370  137.2630 C   0  0  0  0  0  2  0  0  0  0  0  0
  189.8300  175.6050  136.2690 C   0  0  0  0  0  2  0  0  0  0  0  0
  188.0060  177.0770  137.8870 N   0  0  0  0  0  0  0  0  0  0  0  0
  189.2810  176.9310  138.3430 C   0  0  0  0  0  0  0  0  0  0  0  0
  190.9450  177.3150  140.0780 C   0  0  0  0  0  3  0  0  0  0  0  0
  188.6690  178.1390  140.3660 C   0  0  0  0  0  0  0  0  0  0  0  0
  187.3720  178.2730  139.8520 C   0  0  0  0  0  3  0  0  0  0  0  0
  191.8950  176.6360  139.3150 C   0  0  0  0  0  3  0  0  0  0  0  0
  189.0120  178.6580  141.6280 O   0  0  0  0  0  0  0  0  0  0  0  0
  187.9900  177.1060  144.9230 C   0  0  0  0  0  2  0  0  0  0  0  0
  189.1740  177.6100  145.7460 C   0  0  2  0  0  3  0  0  0  0  0  0
  190.3460  178.3340  143.6540 C   0  0  0  0  0  2  0  0  0  0  0  0
  187.8430  177.9350  143.6510 C   0  0  0  0  0  2  0  0  0  0  0  0
  189.1340  177.8900  142.8290 C   0  0  1  0  0  3  0  0  0  0  0  0
  190.4580  177.4960  144.9250 C   0  0  0  0  0  2  0  0  0  0  0  0
  188.2510  177.1150  147.8900 O   0  0  0  0  0  1  0  0  0  0  0  0
  189.2900  176.7890  147.0170 C   0  0  0  0  0  2  0  0  0  0  0  0
  185.6730  177.8450  138.0710 C   0  0  0  0  0  2  0  0  0  0  0  0
  185.3660  176.6520  137.1830 C   0  0  0  0  0  2  0  0  0  0  0  0
  183.9260  176.7120  136.6870 C   0  0  2  0  0  3  0  0  0  0  0  0
  184.9670  177.4670  134.6760 O   0  0  0  0  0  1  0  0  0  0  0  0
  183.8890  176.7310  135.1670 C   0  0  0  0  0  2  0  0  0  0  0  0
  183.1760  177.9130  137.2630 C   0  0  0  0  0  2  0  0  0  0  0  0
  181.8550  177.5270  137.7660 N   0  0  0  0  0  0  0  0  0  0  0  0
  179.9950  177.6090  139.6240 S   0  0  0  0  0  0  0  0  0  0  0  0
  180.9170  178.4420  137.2610 N   0  0  0  0  0  2  0  0  0  0  0  0
  181.7670  177.5880  139.2330 C   0  0  1  0  0  0  0  0  0  0  0  0
  182.3860  176.3300  139.8230 C   0  0  0  0  0  1  0  0  0  0  0  0
  179.6550  178.1420  137.9210 C   0  0  0  0  0  2  0  0  0  0  0  0
  182.4360  178.8630  139.8050 C   0  0  0  0  0  2  0  0  0  0  0  0
  182.8000  178.7820  141.2560 C   0  0  0  0  0  0  0  0  0  0  0  0
  184.4690  178.4710  142.9870 C   0  0  0  0  0  3  0  0  0  0  0  0
  182.1670  178.9140  143.5940 C   0  0  0  0  0  3  0  0  0  0  0  0
  183.4910  178.6600  143.9670 C   0  0  0  0  0  3  0  0  0  0  0  0
  181.8220  178.9740  142.2400 C   0  0  0  0  0  3  0  0  0  0  0  0
  184.1260  178.5360  141.6330 C   0  0  0  0  0  3  0  0  0  0  0  0
  1  6  1  6  0  0  0
  1  8  1  0  0  0  0
  2 12  1  0  0  0  0
  2 13  1  0  0  0  0
  3 14  1  0  0  0  0
  4 15  1  0  0  0  0
  5  1  1  0  0  0  0
  5  9  1  0  0  0  0
  7  4  2  0  0  0  0
  7 11  1  0  0  0  0
  8  4  1  0  0  0  0
  9  7  1  0  0  0  0
 10 11  1  0  0  0  0
 10  3  2  0  0  0  0
 11  2  2  0  0  0  0
 13 16  1  0  0  0  0
 14 13  2  0  0  0  0
 15 12  2  0  0  0  0
 17 18  1  0  0  0  0
 18 24  1  1  0  0  0
 19 22  1  0  0  0  0
 20 17  1  0  0  0  0
 21 16  1  6  0  0  0
 21 20  1  0  0  0  0
 21 19  1  0  0  0  0
 22 18  1  0  0  0  0
 24 23  1  0  0  0  0
 25  3  1  0  0  0  0
 26 25  1  0  0  0  0
 27 29  1  6  0  0  0
 27 26  1  0  0  0  0
 27 30  1  0  0  0  0
 28 29  1  0  0  0  0
 30 31  1  0  0  0  0
 31 34  1  0  0  0  0
 33 31  1  0  0  0  0
 33 36  1  0  0  0  0
 34 32  1  0  0  0  0
 34 37  1  0  0  0  0
 34 35  1  1  0  0  0
 36 32  1  0  0  0  0
 37 38  1  0  0  0  0
 38 43  2  0  0  0  0
 38 42  1  0  0  0  0
 39 41  2  0  0  0  0
 40 41  1  0  0  0  0
 42 40  2  0  0  0  0
 43 39  1  0  0  0  0
M  END
>  <MODEL>
8

>  <REMARK>
 VINA RESULT:      -8.5      3.257      9.164
  Name = 
  11 active torsions:
  status: ('A' for Active; 'I' for Inactive)
    1  A    between atoms: O_1  and  C_34
    2  A    between atoms: O_1  and  C_35
    3  A    between atoms: C_2  and  C_6
    4  A    between atoms: C_2  and  C_13
    5  A    between atoms: C_3  and  N_4
    6  A    between atoms: C_3  and  C_12
    7  A    between atoms: C_6  and  C_12
    8  A    between atoms: C_11  and  C_14
    9  A    between atoms: C_12  and  C_17
   10  A    between atoms: C_14  and  C_22
   11  A    between atoms: C_19  and  C_37
                            x       y       z     vdW  Elec       q    Type
                         _______ _______ _______ _____ _____    ______ ____

>  <TORSDO>
F 11

$$$$
=
 OpenBabel10262422213D

 43 48  0  0  1  0  0  0  0  0999 V2000
  184.0170  178.6050  144.8480 C   0  0  1  0  0  3  0  0  0  0  0  0
  182.4280  178.2780  139.9830 C   0  0  0  0  0  0  0  0  0  0  0  0
  184.7610  178.2880  138.4740 C   0  0  0  0  0  0  0  0  0  0  0  0
  182.6070  178.6190  142.7670 C   0  0  0  0  0  0  0  0  0  0  0  0
  185.0780  179.3350  144.0400 C   0  0  0  0  0  2  0  0  0  0  0  0
  184.0440  179.0510  146.1690 O   0  0  0  0  0  1  0  0  0  0  0  0
  183.7850  178.6390  141.9830 C   0  0  0  0  0  0  0  0  0  0  0  0
  182.6420  178.8800  144.2460 C   0  0  0  0  0  2  0  0  0  0  0  0
  185.1440  178.7420  142.6350 C   0  0  0  0  0  2  0  0  0  0  0  0
  184.8160  178.4510  139.8210 N   0  0  0  0  0  0  0  0  0  0  0  0
  183.6930  178.4570  140.5910 C   0  0  0  0  0  0  0  0  0  0  0  0
  181.2730  178.2790  140.7720 C   0  0  0  0  0  3  0  0  0  0  0  0
  182.3500  178.0920  138.5940 C   0  0  0  0  0  0  0  0  0  0  0  0
  183.5320  178.1020  137.8410 C   0  0  0  0  0  3  0  0  0  0  0  0
  181.3640  178.4540  142.1530 C   0  0  0  0  0  3  0  0  0  0  0  0
  181.0970  177.8930  137.9860 O   0  0  0  0  0  0  0  0  0  0  0  0
  180.4100  174.1760  138.1120 C   0  0  0  0  0  2  0  0  0  0  0  0
  180.8570  173.8510  136.6890 C   0  0  2  0  0  3  0  0  0  0  0  0
  180.9530  176.2930  136.1400 C   0  0  0  0  0  2  0  0  0  0  0  0
  180.9880  175.5170  138.5530 C   0  0  0  0  0  2  0  0  0  0  0  0
  180.5680  176.6270  137.5840 C   0  0  1  0  0  3  0  0  0  0  0  0
  180.3720  174.9420  135.7340 C   0  0  0  0  0  2  0  0  0  0  0  0
  180.4420  171.5880  137.3190 O   0  0  0  0  0  1  0  0  0  0  0  0
  180.2910  172.5040  136.2780 C   0  0  0  0  0  2  0  0  0  0  0  0
  186.0200  178.2620  137.6800 C   0  0  0  0  0  2  0  0  0  0  0  0
  187.0500  177.3880  138.3740 C   0  0  0  0  0  2  0  0  0  0  0  0
  187.9600  178.2330  139.2570 C   0  0  2  0  0  3  0  0  0  0  0  0
  188.8250  179.5510  137.4650 O   0  0  0  0  0  1  0  0  0  0  0  0
  189.1930  178.6710  138.4830 C   0  0  0  0  0  2  0  0  0  0  0  0
  188.3580  177.4950  140.5360 C   0  0  0  0  0  2  0  0  0  0  0  0
  189.7350  177.8060  140.9260 N   0  0  0  0  0  0  0  0  0  0  0  0
  191.6940  177.7290  142.6790 S   0  0  0  0  0  0  0  0  0  0  0  0
  190.5590  176.7680  140.4630 N   0  0  0  0  0  2  0  0  0  0  0  0
  189.9090  177.8720  142.3850 C   0  0  1  0  0  0  0  0  0  0  0  0
  189.4370  179.2300  142.8830 C   0  0  0  0  0  1  0  0  0  0  0  0
  191.8810  177.0130  141.0210 C   0  0  0  0  0  2  0  0  0  0  0  0
  189.1730  176.7210  143.1140 C   0  0  0  0  0  2  0  0  0  0  0  0
  188.8800  176.9810  144.5610 C   0  0  0  0  0  0  0  0  0  0  0  0
  187.2960  177.5050  146.3200 C   0  0  0  0  0  3  0  0  0  0  0  0
  189.6280  177.1370  146.8630 C   0  0  0  0  0  3  0  0  0  0  0  0
  188.3230  177.4370  147.2670 C   0  0  0  0  0  3  0  0  0  0  0  0
  189.9060  176.9100  145.5110 C   0  0  0  0  0  3  0  0  0  0  0  0
  187.5730  177.2740  144.9700 C   0  0  0  0  0  3  0  0  0  0  0  0
  1  6  1  1  0  0  0
  2 11  1  0  0  0  0
  2 12  1  0  0  0  0
  3 10  1  0  0  0  0
  4  8  1  0  0  0  0
  5  1  1  0  0  0  0
  7  9  1  0  0  0  0
  7  4  2  0  0  0  0
  8  1  1  0  0  0  0
  9  5  1  0  0  0  0
 10 11  2  0  0  0  0
 11  7  1  0  0  0  0
 12 15  2  0  0  0  0
 13  2  2  0  0  0  0
 14  3  2  0  0  0  0
 14 13  1  0  0  0  0
 15  4  1  0  0  0  0
 16 13  1  0  0  0  0
 17 20  1  0  0  0  0
 18 24  1  6  0  0  0
 18 17  1  0  0  0  0
 19 21  1  0  0  0  0
 21 16  1  1  0  0  0
 21 20  1  0  0  0  0
 22 19  1  0  0  0  0
 22 18  1  0  0  0  0
 24 23  1  0  0  0  0
 25 26  1  0  0  0  0
 25  3  1  0  0  0  0
 27 26  1  6  0  0  0
 27 30  1  0  0  0  0
 28 29  1  0  0  0  0
 29 27  1  0  0  0  0
 30 31  1  0  0  0  0
 31 34  1  0  0  0  0
 33 31  1  0  0  0  0
 33 36  1  0  0  0  0
 34 32  1  0  0  0  0
 34 35  1  1  0  0  0
 34 37  1  0  0  0  0
 36 32  1  0  0  0  0
 37 38  1  0  0  0  0
 38 43  2  0  0  0  0
 38 42  1  0  0  0  0
 39 41  2  0  0  0  0
 40 41  1  0  0  0  0
 42 40  2  0  0  0  0
 43 39  1  0  0  0  0
M  END
>  <MODEL>
9

>  <REMARK>
 VINA RESULT:      -8.3      1.656      2.130
  Name = 
  11 active torsions:
  status: ('A' for Active; 'I' for Inactive)
    1  A    between atoms: O_1  and  C_34
    2  A    between atoms: O_1  and  C_35
    3  A    between atoms: C_2  and  C_6
    4  A    between atoms: C_2  and  C_13
    5  A    between atoms: C_3  and  N_4
    6  A    between atoms: C_3  and  C_12
    7  A    between atoms: C_6  and  C_12
    8  A    between atoms: C_11  and  C_14
    9  A    between atoms: C_12  and  C_17
   10  A    between atoms: C_14  and  C_22
   11  A    between atoms: C_19  and  C_37
                            x       y       z     vdW  Elec       q    Type
                         _______ _______ _______ _____ _____    ______ ____

>  <TORSDO>
F 11

$$$$
