=
 OpenBabel10262423153D

 34 39  0  0  1  0  0  0  0  0999 V2000
  189.3290  177.9860  142.7960 N   0  0  0  0  0  0  0  0  0  0  0  0
  185.5860  177.6950  143.5650 C   0  0  0  0  0  3  0  0  0  0  0  0
  184.0280  179.1360  140.4780 C   0  0  0  0  0  0  0  0  0  0  0  0
  187.6220  177.6070  144.9870 C   0  0  0  0  0  3  0  0  0  0  0  0
  191.0560  176.9180  144.2080 C   0  0  0  0  0  2  0  0  0  0  0  0
  190.5780  176.4730  146.6280 C   0  0  0  0  0  2  0  0  0  0  0  0
  184.3140  179.8530  139.3220 O   0  0  0  0  0  0  0  0  0  0  0  0
  191.6530  176.8640  145.6140 C   0  0  0  0  0  2  0  0  0  0  0  0
  188.9270  177.6670  145.2270 C   0  0  0  0  0  0  0  0  0  0  0  0
  189.9290  177.9540  144.1390 C   0  0  2  0  0  3  0  0  0  0  0  0
  189.4330  177.4850  146.6210 C   0  0  0  0  0  2  0  0  0  0  0  0
  184.7370  178.1070  142.6130 C   0  0  0  0  0  3  0  0  0  0  0  0
  182.8380  178.7930  140.7090 O   0  0  0  0  0  1  0  0  0  0  0  0
  185.0760  178.7950  141.3970 N   0  0  0  0  0  0  0  0  0  0  0  0
  186.4330  179.2180  141.0870 C   0  0  0  0  0  2  0  0  0  0  0  0
  187.0640  177.7780  143.6400 C   0  0  0  0  0  0  0  0  0  0  0  0
  187.3630  178.0350  141.1920 C   0  0  0  0  0  2  0  0  0  0  0  0
  187.8950  177.9400  142.5880 C   0  0  0  0  0  0  0  0  0  0  0  0
  190.2220  178.3010  141.6830 C   0  0  0  0  0  2  0  0  0  0  0  0
  189.7790  175.4260  138.0090 C   0  0  0  0  0  3  0  0  0  0  0  0
  190.1900  178.2290  138.7980 C   0  0  0  0  0  2  0  0  0  0  0  0
  186.8040  177.0840  136.3790 C   0  0  0  0  0  0  0  0  0  0  0  0
  190.7840  177.0190  141.0810 C   0  0  2  0  0  3  0  0  0  0  0  0
  187.7320  176.1150  136.7880 C   0  0  0  0  0  3  0  0  0  0  0  0
  188.8220  176.4660  137.5880 C   0  0  0  0  0  0  0  0  0  0  0  0
  192.0580  177.3290  140.3030 C   0  0  0  0  0  2  0  0  0  0  0  0
  188.0780  178.7780  137.5740 C   0  0  0  0  0  3  0  0  0  0  0  0
  188.9930  177.8090  137.9910 C   0  0  0  0  0  0  0  0  0  0  0  0
  186.9880  178.4180  136.7770 C   0  0  0  0  0  3  0  0  0  0  0  0
  190.7820  177.0360  139.5580 C   0  0  2  0  0  0  0  0  0  0  0  0
  190.7220  175.6850  138.9170 C   0  0  0  0  0  3  0  0  0  0  0  0
  185.6830  176.7070  135.5640 N   0  0  0  0  0  0  0  0  0  0  0  0
  185.0050  175.4330  135.7510 C   0  0  0  0  0  1  0  0  0  0  0  0
  185.2370  177.5380  134.5940 O   0  0  0  0  0  1  0  0  0  0  0  0
  1 10  1  0  0  0  0
  2 16  1  0  0  0  0
  3 13  1  0  0  0  0
  3 14  1  0  0  0  0
  4  9  2  0  0  0  0
  5  8  1  0  0  0  0
  7  3  2  0  0  0  0
  8  6  1  0  0  0  0
  9 11  1  0  0  0  0
 10  5  1  6  0  0  0
 10  9  1  0  0  0  0
 11  6  1  0  0  0  0
 12  2  2  0  0  0  0
 14 12  1  0  0  0  0
 15 17  1  0  0  0  0
 15 14  1  0  0  0  0
 16  4  1  0  0  0  0
 17 18  1  0  0  0  0
 18  1  1  0  0  0  0
 18 16  2  0  0  0  0
 19  1  1  0  0  0  0
 20 31  2  0  0  0  0
 22 29  2  0  0  0  0
 22 24  1  0  0  0  0
 23 19  1  1  0  0  0
 24 25  2  0  0  0  0
 25 28  1  0  0  0  0
 25 20  1  0  0  0  0
 26 23  1  0  0  0  0
 27 28  2  0  0  0  0
 28 21  1  0  0  0  0
 29 27  1  0  0  0  0
 30 21  1  6  0  0  0
 30 26  1  0  0  0  0
 30 23  1  0  0  0  0
 31 30  1  0  0  0  0
 32 33  1  0  0  0  0
 32 22  1  0  0  0  0
 34 32  1  0  0  0  0
M  END
>  <MODEL>
1

>  <REMARK>
 VINA RESULT:      -8.8      0.000      0.000
  Name = 
  3 active torsions:
  status: ('A' for Active; 'I' for Inactive)
    1  A    between atoms: N_1  and  C_9
    2  A    between atoms: C_7  and  N_11
    3  A    between atoms: C_8  and  C_9
                            x       y       z     vdW  Elec       q    Type
                         _______ _______ _______ _____ _____    ______ ____

>  <TORSDO>
F 3

$$$$
=
 OpenBabel10262423153D

 34 39  0  0  1  0  0  0  0  0999 V2000
  189.7870  176.4610  144.0690 N   0  0  0  0  0  0  0  0  0  0  0  0
  186.6500  177.8680  145.7600 C   0  0  0  0  0  3  0  0  0  0  0  0
  184.5300  178.8290  142.8240 C   0  0  0  0  0  0  0  0  0  0  0  0
  188.9570  177.4240  146.5670 C   0  0  0  0  0  3  0  0  0  0  0  0
  191.5510  175.2740  145.3330 C   0  0  0  0  0  2  0  0  0  0  0  0
  191.8810  175.7730  147.7660 C   0  0  0  0  0  2  0  0  0  0  0  0
  184.5600  179.0090  141.4460 O   0  0  0  0  0  0  0  0  0  0  0  0
  192.5790  175.4080  146.4560 C   0  0  0  0  0  2  0  0  0  0  0  0
  190.2240  177.0440  146.4440 C   0  0  0  0  0  0  0  0  0  0  0  0
  190.8010  176.5940  145.1270 C   0  0  2  0  0  3  0  0  0  0  0  0
  191.1320  177.0980  147.6300 C   0  0  0  0  0  2  0  0  0  0  0  0
  185.6580  178.2780  144.9550 C   0  0  0  0  0  3  0  0  0  0  0  0
  183.4590  179.0520  143.4500 O   0  0  0  0  0  1  0  0  0  0  0  0
  185.7060  178.3950  143.5230 N   0  0  0  0  0  0  0  0  0  0  0  0
  186.9180  178.1550  142.7550 C   0  0  0  0  0  2  0  0  0  0  0  0
  188.0170  177.3940  145.4400 C   0  0  0  0  0  0  0  0  0  0  0  0
  187.4660  176.7910  143.0990 C   0  0  0  0  0  2  0  0  0  0  0  0
  188.4210  176.9110  144.2450 C   0  0  0  0  0  0  0  0  0  0  0  0
  190.2650  176.0700  142.7440 C   0  0  0  0  0  2  0  0  0  0  0  0
  193.1710  177.0580  139.2030 C   0  0  0  0  0  3  0  0  0  0  0  0
  190.3670  177.1750  140.0800 C   0  0  0  0  0  2  0  0  0  0  0  0
  191.4860  174.9960  136.5280 C   0  0  0  0  0  0  0  0  0  0  0  0
  191.5620  176.8000  142.4170 C   0  0  2  0  0  3  0  0  0  0  0  0
  192.4640  175.6700  137.2720 C   0  0  0  0  0  3  0  0  0  0  0  0
  192.1220  176.3640  138.4350 C   0  0  0  0  0  0  0  0  0  0  0  0
  191.2790  178.2840  142.2030 C   0  0  0  0  0  2  0  0  0  0  0  0
  189.7990  175.7270  138.1210 C   0  0  0  0  0  3  0  0  0  0  0  0
  190.7770  176.3850  138.8680 C   0  0  0  0  0  0  0  0  0  0  0  0
  190.1510  175.0320  136.9610 C   0  0  0  0  0  3  0  0  0  0  0  0
  191.5610  177.3990  141.0160 C   0  0  2  0  0  0  0  0  0  0  0  0
  192.9170  177.5730  140.4080 C   0  0  0  0  0  3  0  0  0  0  0  0
  191.8550  174.2800  135.3380 N   0  0  0  0  0  0  0  0  0  0  0  0
  193.1980  174.3690  134.7850 C   0  0  0  0  0  1  0  0  0  0  0  0
  190.9470  173.5040  134.7020 O   0  0  0  0  0  1  0  0  0  0  0  0
  1 18  1  0  0  0  0
  1 10  1  0  0  0  0
  3 13  1  0  0  0  0
  3 14  1  0  0  0  0
  5  8  1  0  0  0  0
  7  3  2  0  0  0  0
  8  6  1  0  0  0  0
  9  4  2  0  0  0  0
  9 11  1  0  0  0  0
 10  5  1  1  0  0  0
 10  9  1  0  0  0  0
 11  6  1  0  0  0  0
 12  2  2  0  0  0  0
 14 12  1  0  0  0  0
 15 17  1  0  0  0  0
 15 14  1  0  0  0  0
 16  2  1  0  0  0  0
 16  4  1  0  0  0  0
 17 18  1  0  0  0  0
 18 16  2  0  0  0  0
 19  1  1  0  0  0  0
 20 31  2  0  0  0  0
 22 29  2  0  0  0  0
 22 24  1  0  0  0  0
 23 19  1  6  0  0  0
 24 25  2  0  0  0  0
 25 28  1  0  0  0  0
 25 20  1  0  0  0  0
 26 23  1  0  0  0  0
 27 28  2  0  0  0  0
 28 21  1  0  0  0  0
 29 27  1  0  0  0  0
 30 21  1  6  0  0  0
 30 26  1  0  0  0  0
 30 23  1  0  0  0  0
 31 30  1  0  0  0  0
 32 22  1  0  0  0  0
 33 32  1  0  0  0  0
 34 32  1  0  0  0  0
M  END
>  <MODEL>
2

>  <REMARK>
 VINA RESULT:      -8.6      2.585      3.403
  Name = 
  3 active torsions:
  status: ('A' for Active; 'I' for Inactive)
    1  A    between atoms: N_1  and  C_9
    2  A    between atoms: C_7  and  N_11
    3  A    between atoms: C_8  and  C_9
                            x       y       z     vdW  Elec       q    Type
                         _______ _______ _______ _____ _____    ______ ____

>  <TORSDO>
F 3

$$$$
=
 OpenBabel10262423153D

 34 39  0  0  1  0  0  0  0  0999 V2000
  185.9170  178.5190  141.8810 N   0  0  0  0  0  0  0  0  0  0  0  0
  189.5910  177.4350  141.8450 C   0  0  0  0  0  3  0  0  0  0  0  0
  190.2510  176.9920  138.1840 C   0  0  0  0  0  0  0  0  0  0  0  0
  187.8590  177.4980  143.6240 C   0  0  0  0  0  3  0  0  0  0  0  0
  184.8050  179.3580  143.9250 C   0  0  0  0  0  2  0  0  0  0  0  0
  185.6440  178.6400  146.1750 C   0  0  0  0  0  2  0  0  0  0  0  0
  189.6250  176.9110  136.9450 O   0  0  0  0  0  0  0  0  0  0  0  0
  184.4050  179.0020  145.3570 C   0  0  0  0  0  2  0  0  0  0  0  0
  186.6420  177.7090  144.1140 C   0  0  0  0  0  0  0  0  0  0  0  0
  185.4990  178.1710  143.2480 C   0  0  2  0  0  3  0  0  0  0  0  0
  186.3690  177.4440  145.5590 C   0  0  0  0  0  2  0  0  0  0  0  0
  190.1510  177.2250  140.6440 C   0  0  0  0  0  3  0  0  0  0  0  0
  191.5040  176.8720  138.2480 O   0  0  0  0  0  1  0  0  0  0  0  0
  189.4790  177.2080  139.3730 N   0  0  0  0  0  0  0  0  0  0  0  0
  188.0350  177.3360  139.2470 C   0  0  0  0  0  2  0  0  0  0  0  0
  188.1890  177.7390  142.2140 C   0  0  0  0  0  0  0  0  0  0  0  0
  187.5780  178.5820  139.9640 C   0  0  0  0  0  2  0  0  0  0  0  0
  187.2520  178.2490  141.3860 C   0  0  0  0  0  0  0  0  0  0  0  0
  184.8630  178.9380  140.9580 C   0  0  0  0  0  2  0  0  0  0  0  0
  180.2280  179.4110  140.4560 C   0  0  0  0  0  3  0  0  0  0  0  0
  182.7730  179.2410  138.9910 C   0  0  0  0  0  2  0  0  0  0  0  0
  180.2170  182.6950  138.5940 C   0  0  0  0  0  0  0  0  0  0  0  0
  183.5370  178.2980  141.3480 C   0  0  2  0  0  3  0  0  0  0  0  0
  179.8310  181.6310  139.4210 C   0  0  0  0  0  3  0  0  0  0  0  0
  180.6560  180.5130  139.5750 C   0  0  0  0  0  0  0  0  0  0  0  0
  183.2200  177.1470  140.3990 C   0  0  0  0  0  2  0  0  0  0  0  0
  182.2720  181.5090  138.0610 C   0  0  0  0  0  3  0  0  0  0  0  0
  181.8920  180.4560  138.8950 C   0  0  0  0  0  0  0  0  0  0  0  0
  181.4430  182.6240  137.9150 C   0  0  0  0  0  3  0  0  0  0  0  0
  182.4720  178.4490  140.2700 C   0  0  2  0  0  0  0  0  0  0  0  0
  181.0630  178.4190  140.7720 C   0  0  0  0  0  3  0  0  0  0  0  0
  179.3620  183.8410  138.4520 N   0  0  0  0  0  0  0  0  0  0  0  0
  178.9420  184.3170  137.1430 C   0  0  0  0  0  1  0  0  0  0  0  0
  178.9310  184.5070  139.5480 O   0  0  0  0  0  1  0  0  0  0  0  0
  1 10  1  0  0  0  0
  2 16  1  0  0  0  0
  3 13  1  0  0  0  0
  3 14  1  0  0  0  0
  4  9  2  0  0  0  0
  5  8  1  0  0  0  0
  7  3  2  0  0  0  0
  8  6  1  0  0  0  0
  9 11  1  0  0  0  0
 10  5  1  1  0  0  0
 10  9  1  0  0  0  0
 11  6  1  0  0  0  0
 12  2  2  0  0  0  0
 14 12  1  0  0  0  0
 15 14  1  0  0  0  0
 15 17  1  0  0  0  0
 16  4  1  0  0  0  0
 17 18  1  0  0  0  0
 18  1  1  0  0  0  0
 18 16  2  0  0  0  0
 19  1  1  0  0  0  0
 20 31  2  0  0  0  0
 22 24  1  0  0  0  0
 23 19  1  6  0  0  0
 24 25  2  0  0  0  0
 25 20  1  0  0  0  0
 26 23  1  0  0  0  0
 27 28  2  0  0  0  0
 28 21  1  0  0  0  0
 28 25  1  0  0  0  0
 29 27  1  0  0  0  0
 29 22  2  0  0  0  0
 30 21  1  6  0  0  0
 30 26  1  0  0  0  0
 30 31  1  0  0  0  0
 30 23  1  0  0  0  0
 32 22  1  0  0  0  0
 32 34  1  0  0  0  0
 33 32  1  0  0  0  0
M  END
>  <MODEL>
3

>  <REMARK>
 VINA RESULT:      -8.3      3.662      7.087
  Name = 
  3 active torsions:
  status: ('A' for Active; 'I' for Inactive)
    1  A    between atoms: N_1  and  C_9
    2  A    between atoms: C_7  and  N_11
    3  A    between atoms: C_8  and  C_9
                            x       y       z     vdW  Elec       q    Type
                         _______ _______ _______ _____ _____    ______ ____

>  <TORSDO>
F 3

$$$$
=
 OpenBabel10262423153D

 34 39  0  0  1  0  0  0  0  0999 V2000
  187.2040  177.5410  144.5510 N   0  0  0  0  0  0  0  0  0  0  0  0
  183.6920  178.9740  145.0910 C   0  0  0  0  0  3  0  0  0  0  0  0
  182.3820  179.2040  141.5890 C   0  0  0  0  0  0  0  0  0  0  0  0
  185.7220  178.8750  146.5200 C   0  0  0  0  0  3  0  0  0  0  0  0
  188.6140  176.7540  146.4240 C   0  0  0  0  0  2  0  0  0  0  0  0
  188.2820  177.7160  148.7150 C   0  0  0  0  0  2  0  0  0  0  0  0
  182.7640  179.1310  140.2540 O   0  0  0  0  0  0  0  0  0  0  0  0
  189.3090  177.1740  147.7190 C   0  0  0  0  0  2  0  0  0  0  0  0
  186.9890  178.5840  146.7950 C   0  0  0  0  0  0  0  0  0  0  0  0
  187.9020  177.9480  145.7800 C   0  0  2  0  0  3  0  0  0  0  0  0
  187.5530  178.9270  148.1360 C   0  0  0  0  0  2  0  0  0  0  0  0
  182.9320  179.1470  144.0000 C   0  0  0  0  0  3  0  0  0  0  0  0
  181.1780  179.4510  141.8710 O   0  0  0  0  0  1  0  0  0  0  0  0
  183.3470  179.0030  142.6310 N   0  0  0  0  0  0  0  0  0  0  0  0
  184.7250  178.7260  142.2540 C   0  0  0  0  0  2  0  0  0  0  0  0
  185.1090  178.5630  145.2230 C   0  0  0  0  0  0  0  0  0  0  0  0
  185.2070  177.4980  142.9860 C   0  0  0  0  0  2  0  0  0  0  0  0
  185.8260  177.9030  144.2870 C   0  0  0  0  0  0  0  0  0  0  0  0
  188.0230  176.9540  143.4920 C   0  0  0  0  0  2  0  0  0  0  0  0
  192.0350  177.4760  141.1270 C   0  0  0  0  0  3  0  0  0  0  0  0
  189.1880  178.2110  141.1700 C   0  0  0  0  0  2  0  0  0  0  0  0
  190.8830  176.1160  137.7990 C   0  0  0  0  0  0  0  0  0  0  0  0
  189.4800  177.3660  143.6660 C   0  0  2  0  0  3  0  0  0  0  0  0
  191.6960  176.4650  138.8870 C   0  0  0  0  0  3  0  0  0  0  0  0
  191.1590  177.1260  139.9940 C   0  0  0  0  0  0  0  0  0  0  0  0
  189.5980  178.8850  143.6080 C   0  0  0  0  0  2  0  0  0  0  0  0
  188.9750  177.1100  138.9340 C   0  0  0  0  0  3  0  0  0  0  0  0
  189.7830  177.4440  140.0210 C   0  0  0  0  0  0  0  0  0  0  0  0
  189.5190  176.4450  137.8320 C   0  0  0  0  0  3  0  0  0  0  0  0
  190.0460  178.0570  142.4320 C   0  0  2  0  0  0  0  0  0  0  0  0
  191.5290  177.9390  142.2720 C   0  0  0  0  0  3  0  0  0  0  0  0
  191.4490  175.4290  136.6720 N   0  0  0  0  0  0  0  0  0  0  0  0
  192.0490  174.1110  136.8090 C   0  0  0  0  0  1  0  0  0  0  0  0
  191.4370  176.0070  135.4480 O   0  0  0  0  0  1  0  0  0  0  0  0
  1 10  1  0  0  0  0
  2 16  1  0  0  0  0
  3 13  1  0  0  0  0
  3 14  1  0  0  0  0
  4  9  2  0  0  0  0
  5  8  1  0  0  0  0
  7  3  2  0  0  0  0
  8  6  1  0  0  0  0
  9 11  1  0  0  0  0
 10  5  1  1  0  0  0
 10  9  1  0  0  0  0
 11  6  1  0  0  0  0
 12  2  2  0  0  0  0
 14 12  1  0  0  0  0
 15 14  1  0  0  0  0
 15 17  1  0  0  0  0
 16  4  1  0  0  0  0
 17 18  1  0  0  0  0
 18  1  1  0  0  0  0
 18 16  2  0  0  0  0
 19  1  1  0  0  0  0
 20 31  2  0  0  0  0
 22 29  2  0  0  0  0
 22 24  1  0  0  0  0
 23 19  1  6  0  0  0
 24 25  2  0  0  0  0
 25 28  1  0  0  0  0
 25 20  1  0  0  0  0
 26 23  1  0  0  0  0
 27 28  2  0  0  0  0
 28 21  1  0  0  0  0
 29 27  1  0  0  0  0
 30 21  1  6  0  0  0
 30 26  1  0  0  0  0
 30 23  1  0  0  0  0
 31 30  1  0  0  0  0
 32 33  1  0  0  0  0
 32 22  1  0  0  0  0
 34 32  1  0  0  0  0
M  END
>  <MODEL>
4

>  <REMARK>
 VINA RESULT:      -8.2      2.391      3.516
  Name = 
  3 active torsions:
  status: ('A' for Active; 'I' for Inactive)
    1  A    between atoms: N_1  and  C_9
    2  A    between atoms: C_7  and  N_11
    3  A    between atoms: C_8  and  C_9
                            x       y       z     vdW  Elec       q    Type
                         _______ _______ _______ _____ _____    ______ ____

>  <TORSDO>
F 3

$$$$
=
 OpenBabel10262423153D

 34 39  0  0  1  0  0  0  0  0999 V2000
  187.1820  177.7090  143.5070 N   0  0  0  0  0  0  0  0  0  0  0  0
  191.0060  177.9600  143.4970 C   0  0  0  0  0  3  0  0  0  0  0  0
  191.8460  177.1280  139.9430 C   0  0  0  0  0  0  0  0  0  0  0  0
  189.3250  177.7410  145.3140 C   0  0  0  0  0  3  0  0  0  0  0  0
  185.8120  178.4650  145.4230 C   0  0  0  0  0  2  0  0  0  0  0  0
  186.8050  178.4890  147.7240 C   0  0  0  0  0  2  0  0  0  0  0  0
  191.3090  176.6190  138.7650 O   0  0  0  0  0  0  0  0  0  0  0  0
  185.5330  178.2540  146.9100 C   0  0  0  0  0  2  0  0  0  0  0  0
  188.1010  177.6050  145.8130 C   0  0  0  0  0  0  0  0  0  0  0  0
  186.8860  177.4880  144.9310 C   0  0  2  0  0  3  0  0  0  0  0  0
  187.9090  177.5240  147.2930 C   0  0  0  0  0  2  0  0  0  0  0  0
  191.6250  177.7450  142.3280 C   0  0  0  0  0  3  0  0  0  0  0  0
  193.0620  177.4570  139.9710 O   0  0  0  0  0  1  0  0  0  0  0  0
  191.0240  177.2740  141.1100 N   0  0  0  0  0  0  0  0  0  0  0  0
  189.6280  176.8750  141.0270 C   0  0  0  0  0  2  0  0  0  0  0  0
  189.5780  177.8260  143.8700 C   0  0  0  0  0  0  0  0  0  0  0  0
  188.7560  177.9960  141.5370 C   0  0  0  0  0  2  0  0  0  0  0  0
  188.5380  177.8290  143.0080 C   0  0  0  0  0  0  0  0  0  0  0  0
  186.0670  177.5720  142.5730 C   0  0  0  0  0  2  0  0  0  0  0  0
  184.0560  179.2260  138.6770 C   0  0  0  0  0  3  0  0  0  0  0  0
  183.5370  177.8160  141.2050 C   0  0  0  0  0  2  0  0  0  0  0  0
  182.5760  175.9900  137.4150 C   0  0  0  0  0  0  0  0  0  0  0  0
  185.9280  178.8340  141.7300 C   0  0  2  0  0  3  0  0  0  0  0  0
  183.1320  177.2770  137.4500 C   0  0  0  0  0  3  0  0  0  0  0  0
  183.4670  177.8750  138.6680 C   0  0  0  0  0  0  0  0  0  0  0  0
  184.8380  179.7270  142.3130 C   0  0  0  0  0  2  0  0  0  0  0  0
  182.6800  175.9000  139.8430 C   0  0  0  0  0  3  0  0  0  0  0  0
  183.2470  177.1760  139.8760 C   0  0  0  0  0  0  0  0  0  0  0  0
  182.3520  175.3080  138.6210 C   0  0  0  0  0  3  0  0  0  0  0  0
  184.5670  178.9420  141.0540 C   0  0  2  0  0  0  0  0  0  0  0  0
  184.5550  179.7530  139.7970 C   0  0  0  0  0  3  0  0  0  0  0  0
  182.2450  175.3860  136.1540 N   0  0  0  0  0  0  0  0  0  0  0  0
  181.2490  174.3300  136.0570 C   0  0  0  0  0  1  0  0  0  0  0  0
  182.8660  175.7920  135.0220 O   0  0  0  0  0  1  0  0  0  0  0  0
  1 10  1  0  0  0  0
  2 16  1  0  0  0  0
  3 13  1  0  0  0  0
  3 14  1  0  0  0  0
  4  9  2  0  0  0  0
  5  8  1  0  0  0  0
  7  3  2  0  0  0  0
  8  6  1  0  0  0  0
  9 11  1  0  0  0  0
 10  5  1  1  0  0  0
 10  9  1  0  0  0  0
 11  6  1  0  0  0  0
 12  2  2  0  0  0  0
 14 12  1  0  0  0  0
 15 14  1  0  0  0  0
 15 17  1  0  0  0  0
 16  4  1  0  0  0  0
 17 18  1  0  0  0  0
 18  1  1  0  0  0  0
 18 16  2  0  0  0  0
 19  1  1  0  0  0  0
 20 31  2  0  0  0  0
 22 24  2  0  0  0  0
 22 29  1  0  0  0  0
 23 26  1  0  0  0  0
 23 19  1  1  0  0  0
 24 25  1  0  0  0  0
 25 20  1  0  0  0  0
 25 28  2  0  0  0  0
 27 28  1  0  0  0  0
 28 21  1  0  0  0  0
 29 27  2  0  0  0  0
 30 31  1  6  0  0  0
 30 21  1  0  0  0  0
 30 23  1  0  0  0  0
 30 26  1  0  0  0  0
 32 22  1  0  0  0  0
 33 32  1  0  0  0  0
 34 32  1  0  0  0  0
M  END
>  <MODEL>
5

>  <REMARK>
 VINA RESULT:      -8.1      2.925      5.473
  Name = 
  3 active torsions:
  status: ('A' for Active; 'I' for Inactive)
    1  A    between atoms: N_1  and  C_9
    2  A    between atoms: C_7  and  N_11
    3  A    between atoms: C_8  and  C_9
                            x       y       z     vdW  Elec       q    Type
                         _______ _______ _______ _____ _____    ______ ____

>  <TORSDO>
F 3

$$$$
=
 OpenBabel10262423153D

 34 39  0  0  1  0  0  0  0  0999 V2000
  187.2390  178.2530  139.9020 N   0  0  0  0  0  0  0  0  0  0  0  0
  190.5910  177.6390  141.6540 C   0  0  0  0  0  3  0  0  0  0  0  0
  192.8330  176.7520  138.7870 C   0  0  0  0  0  0  0  0  0  0  0  0
  188.2460  177.7460  142.4680 C   0  0  0  0  0  3  0  0  0  0  0  0
  185.2950  179.2360  141.0730 C   0  0  0  0  0  2  0  0  0  0  0  0
  185.0760  178.9640  143.5550 C   0  0  0  0  0  2  0  0  0  0  0  0
  192.8300  176.4150  137.4380 O   0  0  0  0  0  0  0  0  0  0  0  0
  184.3160  179.0460  142.2310 C   0  0  0  0  0  2  0  0  0  0  0  0
  186.9300  177.8730  142.3370 C   0  0  0  0  0  0  0  0  0  0  0  0
  186.2730  178.0590  140.9940 C   0  0  2  0  0  3  0  0  0  0  0  0
  186.0540  177.7900  143.5450 C   0  0  0  0  0  2  0  0  0  0  0  0
  191.6360  177.3270  140.8730 C   0  0  0  0  0  3  0  0  0  0  0  0
  193.9310  176.7990  139.4050 O   0  0  0  0  0  1  0  0  0  0  0  0
  191.6030  177.0420  139.4650 N   0  0  0  0  0  0  0  0  0  0  0  0
  190.3620  176.9700  138.7080 C   0  0  0  0  0  2  0  0  0  0  0  0
  189.1580  177.8170  141.3200 C   0  0  0  0  0  0  0  0  0  0  0  0
  189.5760  178.2410  138.9130 C   0  0  0  0  0  2  0  0  0  0  0  0
  188.6660  178.0810  140.0900 C   0  0  0  0  0  0  0  0  0  0  0  0
  186.6890  178.3990  138.5550 C   0  0  0  0  0  2  0  0  0  0  0  0
  183.4290  175.0800  137.9950 C   0  0  0  0  0  3  0  0  0  0  0  0
  183.9880  177.9450  137.6450 C   0  0  0  0  0  2  0  0  0  0  0  0
  180.7200  176.6150  140.1290 C   0  0  0  0  0  0  0  0  0  0  0  0
  186.4600  177.0280  137.9300 C   0  0  2  0  0  3  0  0  0  0  0  0
  181.5230  175.6760  139.4670 C   0  0  0  0  0  3  0  0  0  0  0  0
  182.5970  176.0890  138.6750 C   0  0  0  0  0  0  0  0  0  0  0  0
  186.1250  177.1840  136.4510 C   0  0  0  0  0  2  0  0  0  0  0  0
  182.0730  178.4040  139.1870 C   0  0  0  0  0  3  0  0  0  0  0  0
  182.8800  177.4660  138.5400 C   0  0  0  0  0  0  0  0  0  0  0  0
  181.0040  177.9820  139.9810 C   0  0  0  0  0  3  0  0  0  0  0  0
  185.0320  176.8420  137.4310 C   0  0  2  0  0  0  0  0  0  0  0  0
  184.5650  175.4210  137.3840 C   0  0  0  0  0  3  0  0  0  0  0  0
  179.6250  176.1740  140.9470 N   0  0  0  0  0  0  0  0  0  0  0  0
  179.2160  174.7780  140.9800 C   0  0  0  0  0  1  0  0  0  0  0  0
  178.9430  177.0630  141.7070 O   0  0  0  0  0  1  0  0  0  0  0  0
  1 18  1  0  0  0  0
  1 10  1  0  0  0  0
  3 13  1  0  0  0  0
  3 14  1  0  0  0  0
  5  8  1  0  0  0  0
  7  3  2  0  0  0  0
  8  6  1  0  0  0  0
  9  4  2  0  0  0  0
  9 11  1  0  0  0  0
 10  5  1  1  0  0  0
 10  9  1  0  0  0  0
 11  6  1  0  0  0  0
 12  2  2  0  0  0  0
 14 12  1  0  0  0  0
 15 17  1  0  0  0  0
 15 14  1  0  0  0  0
 16  2  1  0  0  0  0
 16  4  1  0  0  0  0
 17 18  1  0  0  0  0
 18 16  2  0  0  0  0
 19  1  1  0  0  0  0
 20 25  1  0  0  0  0
 21 28  1  0  0  0  0
 22 32  1  0  0  0  0
 23 19  1  1  0  0  0
 24 22  2  0  0  0  0
 25 24  1  0  0  0  0
 26 23  1  0  0  0  0
 27 29  2  0  0  0  0
 28 25  2  0  0  0  0
 28 27  1  0  0  0  0
 29 22  1  0  0  0  0
 30 26  1  6  0  0  0
 30 21  1  0  0  0  0
 30 23  1  0  0  0  0
 31 30  1  0  0  0  0
 31 20  2  0  0  0  0
 32 33  1  0  0  0  0
 32 34  1  0  0  0  0
M  END
>  <MODEL>
6

>  <REMARK>
 VINA RESULT:      -8.0      3.481      6.559
  Name = 
  3 active torsions:
  status: ('A' for Active; 'I' for Inactive)
    1  A    between atoms: N_1  and  C_9
    2  A    between atoms: C_7  and  N_11
    3  A    between atoms: C_8  and  C_9
                            x       y       z     vdW  Elec       q    Type
                         _______ _______ _______ _____ _____    ______ ____

>  <TORSDO>
F 3

$$$$
=
 OpenBabel10262423153D

 34 39  0  0  1  0  0  0  0  0999 V2000
  187.5990  177.3850  143.8330 N   0  0  0  0  0  0  0  0  0  0  0  0
  188.8050  178.0330  147.4120 C   0  0  0  0  0  3  0  0  0  0  0  0
  192.0410  176.1500  147.5120 C   0  0  0  0  0  0  0  0  0  0  0  0
  186.5940  178.2570  146.3000 C   0  0  0  0  0  3  0  0  0  0  0  0
  185.6750  178.5870  142.8470 C   0  0  0  0  0  2  0  0  0  0  0  0
  183.8810  179.4930  144.3440 C   0  0  0  0  0  2  0  0  0  0  0  0
  192.8050  175.2190  146.8170 O   0  0  0  0  0  0  0  0  0  0  0  0
  184.1780  178.8600  142.9850 C   0  0  0  0  0  2  0  0  0  0  0  0
  185.7410  178.1650  145.2860 C   0  0  0  0  0  0  0  0  0  0  0  0
  186.1520  177.6250  143.9410 C   0  0  2  0  0  3  0  0  0  0  0  0
  184.3140  178.5670  145.4790 C   0  0  0  0  0  2  0  0  0  0  0  0
  189.9870  177.5060  147.7590 C   0  0  0  0  0  3  0  0  0  0  0  0
  192.4690  176.6000  148.6090 O   0  0  0  0  0  1  0  0  0  0  0  0
  190.7810  176.5900  146.9860 N   0  0  0  0  0  0  0  0  0  0  0  0
  190.3290  176.0370  145.7190 C   0  0  0  0  0  2  0  0  0  0  0  0
  188.0070  177.8780  146.1730 C   0  0  0  0  0  0  0  0  0  0  0  0
  189.9370  177.1620  144.7920 C   0  0  0  0  0  2  0  0  0  0  0  0
  188.4860  177.4770  144.9750 C   0  0  0  0  0  0  0  0  0  0  0  0
  188.0810  176.8200  142.5740 C   0  0  0  0  0  2  0  0  0  0  0  0
  191.4420  176.8660  139.3090 C   0  0  0  0  0  3  0  0  0  0  0  0
  188.6810  177.6940  139.8900 C   0  0  0  0  0  2  0  0  0  0  0  0
  189.5560  175.0860  136.5650 C   0  0  0  0  0  0  0  0  0  0  0  0
  189.5380  177.2030  142.3500 C   0  0  2  0  0  3  0  0  0  0  0  0
  190.5970  175.5590  137.3760 C   0  0  0  0  0  3  0  0  0  0  0  0
  190.3290  176.3880  138.4690 C   0  0  0  0  0  0  0  0  0  0  0  0
  189.6400  178.6940  142.0460 C   0  0  0  0  0  2  0  0  0  0  0  0
  187.9590  176.2940  137.9460 C   0  0  0  0  0  3  0  0  0  0  0  0
  188.9960  176.7520  138.7610 C   0  0  0  0  0  0  0  0  0  0  0  0
  188.2360  175.4620  136.8590 C   0  0  0  0  0  3  0  0  0  0  0  0
  189.8060  177.6920  140.9320 C   0  0  2  0  0  0  0  0  0  0  0  0
  191.2120  177.5030  140.4590 C   0  0  0  0  0  3  0  0  0  0  0  0
  189.8470  174.2270  135.4510 N   0  0  0  0  0  0  0  0  0  0  0  0
  191.1840  174.1500  134.8820 C   0  0  0  0  0  1  0  0  0  0  0  0
  188.8690  173.4690  134.9040 O   0  0  0  0  0  1  0  0  0  0  0  0
  1 10  1  0  0  0  0
  1 18  1  0  0  0  0
  2 12  2  0  0  0  0
  3 13  1  0  0  0  0
  5  8  1  0  0  0  0
  6 11  1  0  0  0  0
  7  3  2  0  0  0  0
  8  6  1  0  0  0  0
  9 11  1  0  0  0  0
  9  4  2  0  0  0  0
 10  5  1  6  0  0  0
 10  9  1  0  0  0  0
 14  3  1  0  0  0  0
 14 12  1  0  0  0  0
 15 14  1  0  0  0  0
 16  4  1  0  0  0  0
 16  2  1  0  0  0  0
 17 18  1  0  0  0  0
 17 15  1  0  0  0  0
 18 16  2  0  0  0  0
 19  1  1  0  0  0  0
 20 31  2  0  0  0  0
 22 29  2  0  0  0  0
 22 24  1  0  0  0  0
 23 19  1  6  0  0  0
 24 25  2  0  0  0  0
 25 28  1  0  0  0  0
 25 20  1  0  0  0  0
 26 23  1  0  0  0  0
 27 28  2  0  0  0  0
 28 21  1  0  0  0  0
 29 27  1  0  0  0  0
 30 21  1  6  0  0  0
 30 26  1  0  0  0  0
 30 23  1  0  0  0  0
 31 30  1  0  0  0  0
 32 22  1  0  0  0  0
 33 32  1  0  0  0  0
 34 32  1  0  0  0  0
M  END
>  <MODEL>
7

>  <REMARK>
 VINA RESULT:      -7.8      3.639      5.580
  Name = 
  3 active torsions:
  status: ('A' for Active; 'I' for Inactive)
    1  A    between atoms: N_1  and  C_9
    2  A    between atoms: C_7  and  N_11
    3  A    between atoms: C_8  and  C_9
                            x       y       z     vdW  Elec       q    Type
                         _______ _______ _______ _____ _____    ______ ____

>  <TORSDO>
F 3

$$$$
=
 OpenBabel10262423153D

 34 39  0  0  1  0  0  0  0  0999 V2000
  188.1350  178.2030  141.9460 N   0  0  0  0  0  0  0  0  0  0  0  0
  185.8620  177.7130  144.9920 C   0  0  0  0  0  3  0  0  0  0  0  0
  182.5820  179.0340  143.7540 C   0  0  0  0  0  0  0  0  0  0  0  0
  188.3300  177.7520  144.7060 C   0  0  0  0  0  3  0  0  0  0  0  0
  190.4130  177.2460  141.8290 C   0  0  0  0  0  2  0  0  0  0  0  0
  191.6800  176.7990  143.9440 C   0  0  0  0  0  2  0  0  0  0  0  0
  181.9950  179.7540  142.7200 O   0  0  0  0  0  0  0  0  0  0  0  0
  191.7930  177.2400  142.4840 C   0  0  0  0  0  2  0  0  0  0  0  0
  189.4610  177.8860  144.0230 C   0  0  0  0  0  0  0  0  0  0  0  0
  189.4750  178.2180  142.5530 C   0  0  2  0  0  3  0  0  0  0  0  0
  190.7720  177.7470  144.7270 C   0  0  0  0  0  2  0  0  0  0  0  0
  184.5770  178.0680  144.8530 C   0  0  0  0  0  3  0  0  0  0  0  0
  181.8630  178.6280  144.7060 O   0  0  0  0  0  1  0  0  0  0  0  0
  183.9910  178.7610  143.7380 N   0  0  0  0  0  0  0  0  0  0  0  0
  184.7790  179.2560  142.6200 C   0  0  0  0  0  2  0  0  0  0  0  0
  187.0120  177.8780  144.0710 C   0  0  0  0  0  0  0  0  0  0  0  0
  185.6010  178.1270  142.0480 C   0  0  0  0  0  2  0  0  0  0  0  0
  186.9280  178.0750  142.7380 C   0  0  0  0  0  0  0  0  0  0  0  0
  188.0500  178.5560  140.5300 C   0  0  0  0  0  2  0  0  0  0  0  0
  187.2800  175.3870  137.1650 C   0  0  0  0  0  3  0  0  0  0  0  0
  186.9350  178.2160  137.8900 C   0  0  0  0  0  2  0  0  0  0  0  0
  183.5290  175.7460  136.9310 C   0  0  0  0  0  0  0  0  0  0  0  0
  188.7530  177.5020  139.6830 C   0  0  2  0  0  3  0  0  0  0  0  0
  184.8210  175.2030  136.8860 C   0  0  0  0  0  3  0  0  0  0  0  0
  185.9330  175.9840  137.2130 C   0  0  0  0  0  0  0  0  0  0  0  0
  189.4270  178.1660  138.4870 C   0  0  0  0  0  2  0  0  0  0  0  0
  184.4700  177.8780  137.6260 C   0  0  0  0  0  3  0  0  0  0  0  0
  185.7550  177.3330  137.5940 C   0  0  0  0  0  0  0  0  0  0  0  0
  183.3640  177.0890  137.3010 C   0  0  0  0  0  3  0  0  0  0  0  0
  188.1570  177.3790  138.2860 C   0  0  2  0  0  0  0  0  0  0  0  0
  188.3410  176.0410  137.6430 C   0  0  0  0  0  3  0  0  0  0  0  0
  182.3960  174.9270  136.6000 N   0  0  0  0  0  0  0  0  0  0  0  0
  181.4010  174.5700  137.6000 C   0  0  0  0  0  1  0  0  0  0  0  0
  182.2350  174.4660  135.3380 O   0  0  0  0  0  1  0  0  0  0  0  0
  1 10  1  0  0  0  0
  1 18  1  0  0  0  0
  3 13  1  0  0  0  0
  5  8  1  0  0  0  0
  6 11  1  0  0  0  0
  7  3  2  0  0  0  0
  8  6  1  0  0  0  0
  9  4  2  0  0  0  0
  9 11  1  0  0  0  0
 10  5  1  6  0  0  0
 10  9  1  0  0  0  0
 12  2  2  0  0  0  0
 14  3  1  0  0  0  0
 14 12  1  0  0  0  0
 15 14  1  0  0  0  0
 16  4  1  0  0  0  0
 16  2  1  0  0  0  0
 17 15  1  0  0  0  0
 17 18  1  0  0  0  0
 18 16  2  0  0  0  0
 19  1  1  0  0  0  0
 20 25  1  0  0  0  0
 20 31  2  0  0  0  0
 21 30  1  0  0  0  0
 22 29  1  0  0  0  0
 23 19  1  1  0  0  0
 24 22  2  0  0  0  0
 24 25  1  0  0  0  0
 25 28  2  0  0  0  0
 26 23  1  0  0  0  0
 28 27  1  0  0  0  0
 28 21  1  0  0  0  0
 29 27  2  0  0  0  0
 30 31  1  6  0  0  0
 30 26  1  0  0  0  0
 30 23  1  0  0  0  0
 32 22  1  0  0  0  0
 32 33  1  0  0  0  0
 34 32  1  0  0  0  0
M  END
>  <MODEL>
8

>  <REMARK>
 VINA RESULT:      -7.8      2.023      2.910
  Name = 
  3 active torsions:
  status: ('A' for Active; 'I' for Inactive)
    1  A    between atoms: N_1  and  C_9
    2  A    between atoms: C_7  and  N_11
    3  A    between atoms: C_8  and  C_9
                            x       y       z     vdW  Elec       q    Type
                         _______ _______ _______ _____ _____    ______ ____

>  <TORSDO>
F 3

$$$$
=
 OpenBabel10262423153D

 34 39  0  0  1  0  0  0  0  0999 V2000
  185.8780  177.9840  143.2140 N   0  0  0  0  0  0  0  0  0  0  0  0
  182.2640  178.8850  144.1150 C   0  0  0  0  0  3  0  0  0  0  0  0
  180.7120  179.4000  140.7440 C   0  0  0  0  0  0  0  0  0  0  0  0
  184.3800  178.8560  145.4160 C   0  0  0  0  0  3  0  0  0  0  0  0
  187.4890  177.1430  144.8920 C   0  0  0  0  0  2  0  0  0  0  0  0
  187.1960  177.7530  147.3050 C   0  0  0  0  0  2  0  0  0  0  0  0
  181.0120  179.5470  139.3950 O   0  0  0  0  0  0  0  0  0  0  0  0
  188.2120  177.4770  146.1960 C   0  0  0  0  0  2  0  0  0  0  0  0
  185.6880  178.6930  145.5870 C   0  0  0  0  0  0  0  0  0  0  0  0
  186.6010  178.3130  144.4510 C   0  0  2  0  0  3  0  0  0  0  0  0
  186.2940  178.9280  146.9320 C   0  0  0  0  0  2  0  0  0  0  0  0
  181.4200  179.1010  143.0950 C   0  0  0  0  0  3  0  0  0  0  0  0
  179.5080  179.4560  141.1160 O   0  0  0  0  0  1  0  0  0  0  0  0
  181.7600  179.1880  141.7010 N   0  0  0  0  0  0  0  0  0  0  0  0
  183.1320  179.1360  141.2230 C   0  0  0  0  0  2  0  0  0  0  0  0
  183.7260  178.6400  144.1200 C   0  0  0  0  0  0  0  0  0  0  0  0
  183.8020  177.8940  141.7570 C   0  0  0  0  0  2  0  0  0  0  0  0
  184.4520  178.2010  143.0690 C   0  0  0  0  0  0  0  0  0  0  0  0
  186.6900  177.6450  142.0470 C   0  0  0  0  0  2  0  0  0  0  0  0
  190.9700  176.8960  140.2940 C   0  0  0  0  0  3  0  0  0  0  0  0
  188.3680  178.1550  139.7550 C   0  0  0  0  0  2  0  0  0  0  0  0
  189.9530  175.1330  137.1140 C   0  0  0  0  0  0  0  0  0  0  0  0
  188.1700  177.7960  142.3740 C   0  0  2  0  0  3  0  0  0  0  0  0
  190.6880  175.5340  138.2390 C   0  0  0  0  0  3  0  0  0  0  0  0
  190.1800  176.4970  139.1150 C   0  0  0  0  0  0  0  0  0  0  0  0
  188.6230  179.2210  142.0720 C   0  0  0  0  0  2  0  0  0  0  0  0
  188.1870  176.6830  137.7400 C   0  0  0  0  0  3  0  0  0  0  0  0
  188.9140  177.0710  138.8670 C   0  0  0  0  0  0  0  0  0  0  0  0
  188.7000  175.7160  136.8720 C   0  0  0  0  0  3  0  0  0  0  0  0
  189.0160  178.1000  141.1440 C   0  0  2  0  0  0  0  0  0  0  0  0
  190.4450  177.6700  141.2450 C   0  0  0  0  0  3  0  0  0  0  0  0
  190.4850  174.1350  136.2280 N   0  0  0  0  0  0  0  0  0  0  0  0
  189.9510  173.9480  134.8880 C   0  0  0  0  0  1  0  0  0  0  0  0
  191.5020  173.3390  136.6330 O   0  0  0  0  0  1  0  0  0  0  0  0
  1 10  1  0  0  0  0
  2 16  1  0  0  0  0
  3 13  1  0  0  0  0
  3 14  1  0  0  0  0
  4  9  2  0  0  0  0
  5  8  1  0  0  0  0
  7  3  2  0  0  0  0
  8  6  1  0  0  0  0
  9 11  1  0  0  0  0
 10  5  1  1  0  0  0
 10  9  1  0  0  0  0
 11  6  1  0  0  0  0
 12  2  2  0  0  0  0
 14 12  1  0  0  0  0
 15 14  1  0  0  0  0
 15 17  1  0  0  0  0
 16  4  1  0  0  0  0
 17 18  1  0  0  0  0
 18  1  1  0  0  0  0
 18 16  2  0  0  0  0
 19  1  1  0  0  0  0
 20 31  2  0  0  0  0
 22 24  1  0  0  0  0
 23 19  1  6  0  0  0
 24 25  2  0  0  0  0
 25 20  1  0  0  0  0
 26 23  1  0  0  0  0
 27 28  2  0  0  0  0
 28 25  1  0  0  0  0
 28 21  1  0  0  0  0
 29 22  2  0  0  0  0
 29 27  1  0  0  0  0
 30 21  1  6  0  0  0
 30 31  1  0  0  0  0
 30 26  1  0  0  0  0
 30 23  1  0  0  0  0
 32 34  1  0  0  0  0
 32 22  1  0  0  0  0
 33 32  1  0  0  0  0
M  END
>  <MODEL>
9

>  <REMARK>
 VINA RESULT:      -7.6      2.530      3.642
  Name = 
  3 active torsions:
  status: ('A' for Active; 'I' for Inactive)
    1  A    between atoms: N_1  and  C_9
    2  A    between atoms: C_7  and  N_11
    3  A    between atoms: C_8  and  C_9
                            x       y       z     vdW  Elec       q    Type
                         _______ _______ _______ _____ _____    ______ ____

>  <TORSDO>
F 3

$$$$
