=
 OpenBabel10262420053D

 27 31  0  0  1  0  0  0  0  0999 V2000
  189.9010  178.6450  144.0290 N   0  0  0  0  0  2  0  0  0  0  0  0
  191.1040  177.6620  142.0800 C   0  0  0  0  0  0  0  0  0  0  0  0
  188.5440  177.3380  141.7050 N   0  0  0  0  0  0  0  0  0  0  0  0
  191.6810  176.6440  138.1050 C   0  0  0  0  0  3  0  0  0  0  0  0
  190.8570  175.8130  135.9640 F   0  0  0  0  0  0  0  0  0  0  0  0
  192.3220  177.6970  141.5220 C   0  0  0  0  0  3  0  0  0  0  0  0
  188.9240  176.6140  139.0530 C   0  0  0  0  0  2  0  0  0  0  0  0
  185.9550  177.9570  144.3250 C   0  0  0  0  0  0  0  0  0  0  0  0
  189.3210  176.1760  137.6670 C   0  0  0  0  0  3  0  0  0  0  0  0
  184.6990  178.0210  144.3680 O   0  0  0  0  0  0  0  0  0  0  0  0
  190.0970  176.9560  139.9440 C   0  0  0  0  0  0  0  0  0  0  0  0
  191.0850  177.9350  143.5580 C   0  0  2  0  0  3  0  0  0  0  0  0
  190.5820  176.2080  137.2300 C   0  0  0  0  0  0  0  0  0  0  0  0
  191.4610  176.9900  139.3720 C   0  0  0  0  0  0  0  0  0  0  0  0
  188.8190  177.6980  144.2270 C   0  0  1  0  0  3  0  0  0  0  0  0
  189.9080  177.2880  141.2400 C   0  0  0  0  0  0  0  0  0  0  0  0
  186.6380  177.7070  143.0520 C   0  0  0  0  0  2  0  0  0  0  0  0
  192.5240  177.3880  140.1760 O   0  0  0  0  0  0  0  0  0  0  0  0
  186.7460  178.1490  145.5410 C   0  0  0  0  0  3  0  0  0  0  0  0
  188.0730  178.0440  145.4950 C   0  0  0  0  0  3  0  0  0  0  0  0
  187.9700  177.6160  142.9840 C   0  0  0  0  0  0  0  0  0  0  0  0
  192.2690  174.6600  146.0980 C   0  0  0  0  0  3  0  0  0  0  0  0
  191.5180  176.7810  144.4300 C   0  0  0  0  0  0  0  0  0  0  0  0
  191.7580  175.5090  143.8900 C   0  0  0  0  0  3  0  0  0  0  0  0
  192.1350  174.4510  144.7230 C   0  0  0  0  0  3  0  0  0  0  0  0
  192.0230  175.9240  146.6420 C   0  0  0  0  0  3  0  0  0  0  0  0
  191.6460  176.9820  145.8090 C   0  0  0  0  0  3  0  0  0  0  0  0
  1 15  1  0  0  0  0
  2 12  1  0  0  0  0
  3 21  2  0  0  0  0
  4 14  2  0  0  0  0
  5 13  1  0  0  0  0
  6  2  2  0  0  0  0
  7 11  1  0  0  0  0
  8 10  2  0  0  0  0
  8 19  1  0  0  0  0
  9  7  1  0  0  0  0
 11 16  2  0  0  0  0
 12  1  1  0  0  0  0
 12 23  1  1  0  0  0
 13  9  2  0  0  0  0
 13  4  1  0  0  0  0
 14 11  1  0  0  0  0
 14 18  1  0  0  0  0
 15 20  1  1  0  0  0
 16  3  1  0  0  0  0
 16  2  1  0  0  0  0
 17  8  1  0  0  0  0
 18  6  1  0  0  0  0
 20 19  2  0  0  0  0
 21 17  1  0  0  0  0
 21 15  1  0  0  0  0
 22 26  1  0  0  0  0
 23 27  1  0  0  0  0
 24 23  2  0  0  0  0
 24 25  1  0  0  0  0
 25 22  2  0  0  0  0
 27 26  2  0  0  0  0
M  END
>  <MODEL>
1

>  <REMARK>
 VINA RESULT:      -8.7      0.000      0.000
  Name = 
  1 active torsions:
  status: ('A' for Active; 'I' for Inactive)
    1  A    between atoms: C_9  and  C_15
                            x       y       z     vdW  Elec       q    Type
                         _______ _______ _______ _____ _____    ______ ____

>  <TORSDO>
F 1

$$$$
=
 OpenBabel10262420053D

 27 31  0  0  1  0  0  0  0  0999 V2000
  184.9270  179.3950  138.8710 N   0  0  0  0  0  2  0  0  0  0  0  0
  183.8700  178.9520  141.0840 C   0  0  0  0  0  0  0  0  0  0  0  0
  186.4050  178.3660  141.2600 N   0  0  0  0  0  2  0  0  0  0  0  0
  183.6750  178.7600  145.2190 C   0  0  0  0  0  3  0  0  0  0  0  0
  184.6560  178.2320  147.3890 F   0  0  0  0  0  0  0  0  0  0  0  0
  182.7410  179.2480  141.7420 C   0  0  0  0  0  3  0  0  0  0  0  0
  186.2740  178.1940  144.0270 C   0  0  0  0  0  3  0  0  0  0  0  0
  188.7070  178.1500  138.3270 C   0  0  0  0  0  0  0  0  0  0  0  0
  186.0040  178.0720  145.5040 C   0  0  0  0  0  3  0  0  0  0  0  0
  189.9470  178.0390  138.1470 O   0  0  0  0  0  0  0  0  0  0  0  0
  185.0460  178.5190  143.2060 C   0  0  0  0  0  0  0  0  0  0  0  0
  183.7380  178.9450  139.5870 C   0  0  2  0  0  3  0  0  0  0  0  0
  184.8170  178.3490  146.0490 C   0  0  0  0  0  0  0  0  0  0  0  0
  183.7750  178.8370  143.8930 C   0  0  1  0  0  3  0  0  0  0  0  0
  185.8660  178.2940  138.7560 C   0  0  1  0  0  3  0  0  0  0  0  0
  185.1110  178.5830  141.8580 C   0  0  0  0  0  0  0  0  0  0  0  0
  188.1610  178.2290  139.6850 C   0  0  0  0  0  3  0  0  0  0  0  0
  182.6710  179.2180  143.1360 O   0  0  0  0  0  0  0  0  0  0  0  0
  187.7990  178.2200  137.1810 C   0  0  0  0  0  3  0  0  0  0  0  0
  186.4840  178.3020  137.3780 C   0  0  0  0  0  3  0  0  0  0  0  0
  186.8460  178.3280  139.9010 C   0  0  0  0  0  0  0  0  0  0  0  0
  181.8920  175.4520  137.8640 C   0  0  0  0  0  3  0  0  0  0  0  0
  183.0770  177.7200  139.0050 C   0  0  0  0  0  0  0  0  0  0  0  0
  182.8680  176.5680  139.7770 C   0  0  0  0  0  3  0  0  0  0  0  0
  182.2750  175.4370  139.2080 C   0  0  0  0  0  3  0  0  0  0  0  0
  182.1060  176.5950  137.0880 C   0  0  0  0  0  3  0  0  0  0  0  0
  182.6990  177.7260  137.6580 C   0  0  0  0  0  3  0  0  0  0  0  0
  1 12  1  0  0  0  0
  2  6  2  0  0  0  0
  2 16  1  0  0  0  0
  3 16  1  0  0  0  0
  4 13  2  0  0  0  0
  6 18  1  0  0  0  0
  7  9  2  0  0  0  0
  8 17  1  0  0  0  0
  9 13  1  0  0  0  0
 10  8  2  0  0  0  0
 11 14  1  0  0  0  0
 11  7  1  0  0  0  0
 12 23  1  6  0  0  0
 12  2  1  0  0  0  0
 13  5  1  0  0  0  0
 14  4  1  6  0  0  0
 15 20  1  6  0  0  0
 15  1  1  0  0  0  0
 15 21  1  0  0  0  0
 16 11  2  0  0  0  0
 17 21  2  0  0  0  0
 18 14  1  0  0  0  0
 19 20  2  0  0  0  0
 19  8  1  0  0  0  0
 21  3  1  0  0  0  0
 22 25  1  0  0  0  0
 23 24  1  0  0  0  0
 25 24  2  0  0  0  0
 26 27  1  0  0  0  0
 26 22  2  0  0  0  0
 27 23  2  0  0  0  0
M  END
>  <MODEL>
2

>  <REMARK>
 VINA RESULT:      -8.3      4.662      9.042
  Name = 
  1 active torsions:
  status: ('A' for Active; 'I' for Inactive)
    1  A    between atoms: C_9  and  C_15
                            x       y       z     vdW  Elec       q    Type
                         _______ _______ _______ _____ _____    ______ ____

>  <TORSDO>
F 1

$$$$
=
 OpenBabel10262420053D

 27 31  0  0  1  0  0  0  0  0999 V2000
  182.1850  177.7740  140.6320 N   0  0  0  0  0  2  0  0  0  0  0  0
  183.8590  178.0480  138.8050 C   0  0  0  0  0  0  0  0  0  0  0  0
  185.0450  178.5330  141.0770 N   0  0  0  0  0  0  0  0  0  0  0  0
  187.6050  177.8690  137.0410 C   0  0  0  0  0  3  0  0  0  0  0  0
  190.0250  178.1650  137.1150 F   0  0  0  0  0  0  0  0  0  0  0  0
  184.0050  177.7290  137.5120 C   0  0  0  0  0  3  0  0  0  0  0  0
  187.5560  178.4570  139.8960 C   0  0  0  0  0  3  0  0  0  0  0  0
  183.2470  178.9400  144.3250 C   0  0  0  0  0  0  0  0  0  0  0  0
  188.8220  178.4520  139.0800 C   0  0  0  0  0  3  0  0  0  0  0  0
  183.5660  179.0270  145.5390 O   0  0  0  0  0  0  0  0  0  0  0  0
  186.3010  178.2470  139.0770 C   0  0  0  0  0  0  0  0  0  0  0  0
  182.4330  178.1940  139.2570 C   0  0  2  0  0  3  0  0  0  0  0  0
  188.8440  178.1650  137.7770 C   0  0  0  0  0  0  0  0  0  0  0  0
  186.4170  177.9100  137.6410 C   0  0  1  0  0  3  0  0  0  0  0  0
  182.5440  178.8500  141.5360 C   0  0  1  0  0  3  0  0  0  0  0  0
  185.0800  178.3050  139.6540 C   0  0  0  0  0  0  0  0  0  0  0  0
  184.2800  178.7560  143.3010 C   0  0  0  0  0  2  0  0  0  0  0  0
  185.2630  177.6340  136.9140 O   0  0  0  0  0  0  0  0  0  0  0  0
  181.8400  179.0040  143.9250 C   0  0  0  0  0  3  0  0  0  0  0  0
  181.5120  178.9480  142.6360 C   0  0  0  0  0  3  0  0  0  0  0  0
  183.9670  178.6800  142.0040 C   0  0  0  0  0  0  0  0  0  0  0  0
  180.4680  181.8760  138.1800 C   0  0  0  0  0  3  0  0  0  0  0  0
  181.7640  179.4880  138.8620 C   0  0  0  0  0  0  0  0  0  0  0  0
  182.5000  180.6720  138.7060 C   0  0  0  0  0  3  0  0  0  0  0  0
  181.8530  181.8630  138.3640 C   0  0  0  0  0  3  0  0  0  0  0  0
  179.7290  180.7010  138.3420 C   0  0  0  0  0  3  0  0  0  0  0  0
  180.3760  179.5100  138.6850 C   0  0  0  0  0  3  0  0  0  0  0  0
  1 15  1  0  0  0  0
  2 12  1  0  0  0  0
  2 16  1  0  0  0  0
  3 21  2  0  0  0  0
  4 13  2  0  0  0  0
  5 13  1  0  0  0  0
  6  2  2  0  0  0  0
  8 10  2  0  0  0  0
  9  7  2  0  0  0  0
 11 16  2  0  0  0  0
 11  7  1  0  0  0  0
 12 23  1  1  0  0  0
 12  1  1  0  0  0  0
 13  9  1  0  0  0  0
 14  4  1  6  0  0  0
 14 11  1  0  0  0  0
 15 21  1  0  0  0  0
 15 20  1  1  0  0  0
 16  3  1  0  0  0  0
 17  8  1  0  0  0  0
 18  6  1  0  0  0  0
 18 14  1  0  0  0  0
 19  8  1  0  0  0  0
 20 19  2  0  0  0  0
 21 17  1  0  0  0  0
 22 26  2  0  0  0  0
 22 25  1  0  0  0  0
 24 23  1  0  0  0  0
 25 24  2  0  0  0  0
 26 27  1  0  0  0  0
 27 23  2  0  0  0  0
M  END
>  <MODEL>
3

>  <REMARK>
 VINA RESULT:      -7.4      5.155      8.234
  Name = 
  1 active torsions:
  status: ('A' for Active; 'I' for Inactive)
    1  A    between atoms: C_9  and  C_15
                            x       y       z     vdW  Elec       q    Type
                         _______ _______ _______ _____ _____    ______ ____

>  <TORSDO>
F 1

$$$$
=
 OpenBabel10262420053D

 27 31  0  0  1  0  0  0  0  0999 V2000
  189.5800  177.8620  137.1010 N   0  0  0  0  0  2  0  0  0  0  0  0
  188.4110  177.7870  139.3010 C   0  0  0  0  0  0  0  0  0  0  0  0
  190.5970  176.3780  139.4920 N   0  0  0  0  0  2  0  0  0  0  0  0
  188.1170  177.6460  143.4320 C   0  0  0  0  0  3  0  0  0  0  0  0
  188.8390  176.8030  145.6050 F   0  0  0  0  0  0  0  0  0  0  0  0
  187.4420  178.4440  139.9530 C   0  0  0  0  0  3  0  0  0  0  0  0
  190.3850  176.2420  142.2560 C   0  0  0  0  0  3  0  0  0  0  0  0
  192.7230  175.4160  136.5760 C   0  0  0  0  0  0  0  0  0  0  0  0
  190.0740  176.2090  143.7290 C   0  0  0  0  0  3  0  0  0  0  0  0
  193.8540  174.8930  136.4050 O   0  0  0  0  0  0  0  0  0  0  0  0
  189.3490  176.9690  141.4290 C   0  0  0  0  0  0  0  0  0  0  0  0
  188.3010  177.8360  137.8030 C   0  0  2  0  0  3  0  0  0  0  0  0
  189.0450  176.8680  144.2680 C   0  0  0  0  0  0  0  0  0  0  0  0
  188.2520  177.6930  142.1090 C   0  0  1  0  0  3  0  0  0  0  0  0
  190.0920  176.5090  136.9830 C   0  0  1  0  0  3  0  0  0  0  0  0
  189.4460  177.0150  140.0820 C   0  0  0  0  0  0  0  0  0  0  0  0
  192.2200  175.6650  137.9300 C   0  0  0  0  0  3  0  0  0  0  0  0
  187.3510  178.4300  141.3460 O   0  0  0  0  0  0  0  0  0  0  0  0
  191.9040  175.7960  135.4230 C   0  0  0  0  0  3  0  0  0  0  0  0
  190.6920  176.3160  135.6100 C   0  0  0  0  0  3  0  0  0  0  0  0
  191.0140  176.2020  138.1360 C   0  0  0  0  0  0  0  0  0  0  0  0
  185.3670  175.2270  136.0260 C   0  0  0  0  0  3  0  0  0  0  0  0
  187.2710  176.9100  137.2040 C   0  0  0  0  0  0  0  0  0  0  0  0
  187.3070  175.5280  137.4420 C   0  0  0  0  0  3  0  0  0  0  0  0
  186.3540  174.6890  136.8550 C   0  0  0  0  0  3  0  0  0  0  0  0
  185.3330  176.6020  135.7790 C   0  0  0  0  0  3  0  0  0  0  0  0
  186.2850  177.4410  136.3660 C   0  0  0  0  0  3  0  0  0  0  0  0
  1 12  1  0  0  0  0
  2  6  2  0  0  0  0
  2 16  1  0  0  0  0
  3 16  1  0  0  0  0
  4 13  2  0  0  0  0
  6 18  1  0  0  0  0
  7  9  2  0  0  0  0
  8 17  1  0  0  0  0
  9 13  1  0  0  0  0
 10  8  2  0  0  0  0
 11 14  1  0  0  0  0
 11  7  1  0  0  0  0
 12 23  1  6  0  0  0
 12  2  1  0  0  0  0
 13  5  1  0  0  0  0
 14  4  1  6  0  0  0
 15 20  1  6  0  0  0
 15  1  1  0  0  0  0
 15 21  1  0  0  0  0
 16 11  2  0  0  0  0
 17 21  2  0  0  0  0
 18 14  1  0  0  0  0
 19 20  2  0  0  0  0
 19  8  1  0  0  0  0
 21  3  1  0  0  0  0
 22 25  1  0  0  0  0
 23 24  1  0  0  0  0
 25 24  2  0  0  0  0
 26 22  2  0  0  0  0
 26 27  1  0  0  0  0
 27 23  2  0  0  0  0
M  END
>  <MODEL>
4

>  <REMARK>
 VINA RESULT:      -7.4      3.198      8.066
  Name = 
  1 active torsions:
  status: ('A' for Active; 'I' for Inactive)
    1  A    between atoms: C_9  and  C_15
                            x       y       z     vdW  Elec       q    Type
                         _______ _______ _______ _____ _____    ______ ____

>  <TORSDO>
F 1

$$$$
=
 OpenBabel10262420053D

 27 31  0  0  1  0  0  0  0  0999 V2000
  186.0600  178.9920  138.0160 N   0  0  0  0  0  2  0  0  0  0  0  0
  184.5140  178.7730  139.9590 C   0  0  0  0  0  0  0  0  0  0  0  0
  186.9230  178.1810  140.7630 N   0  0  0  0  0  2  0  0  0  0  0  0
  183.3790  178.9810  143.9390 C   0  0  0  0  0  3  0  0  0  0  0  0
  183.8250  178.6530  146.3150 F   0  0  0  0  0  0  0  0  0  0  0  0
  183.2750  179.1430  140.3110 C   0  0  0  0  0  3  0  0  0  0  0  0
  186.1620  178.2760  143.4310 C   0  0  0  0  0  3  0  0  0  0  0  0
  189.8230  177.6620  138.4670 C   0  0  0  0  0  0  0  0  0  0  0  0
  185.5600  178.3000  144.8110 C   0  0  0  0  0  3  0  0  0  0  0  0
  191.0670  177.5220  138.5880 O   0  0  0  0  0  0  0  0  0  0  0  0
  185.1630  178.5350  142.3240 C   0  0  0  0  0  0  0  0  0  0  0  0
  184.7260  178.6250  138.4780 C   0  0  2  0  0  3  0  0  0  0  0  0
  184.2900  178.6400  145.0430 C   0  0  0  0  0  0  0  0  0  0  0  0
  183.7800  178.9290  142.6700 C   0  0  1  0  0  3  0  0  0  0  0  0
  186.9640  177.8750  138.2200 C   0  0  1  0  0  3  0  0  0  0  0  0
  185.5350  178.4680  141.0270 C   0  0  0  0  0  0  0  0  0  0  0  0
  188.9850  177.8760  139.6520 C   0  0  0  0  0  3  0  0  0  0  0  0
  182.8900  179.2480  141.6480 O   0  0  0  0  0  0  0  0  0  0  0  0
  189.2010  177.6310  137.1430 C   0  0  0  0  0  3  0  0  0  0  0  0
  187.8790  177.7450  137.0250 C   0  0  0  0  0  3  0  0  0  0  0  0
  187.6590  178.0090  139.5500 C   0  0  0  0  0  0  0  0  0  0  0  0
  183.0930  175.0080  136.7950 C   0  0  0  0  0  3  0  0  0  0  0  0
  184.1750  177.3570  137.8740 C   0  0  0  0  0  0  0  0  0  0  0  0
  184.2160  177.1310  136.4900 C   0  0  0  0  0  3  0  0  0  0  0  0
  183.6780  175.9570  135.9530 C   0  0  0  0  0  3  0  0  0  0  0  0
  183.0430  175.2330  138.1740 C   0  0  0  0  0  3  0  0  0  0  0  0
  183.5810  176.4060  138.7110 C   0  0  0  0  0  3  0  0  0  0  0  0
  1 15  1  0  0  0  0
  1 12  1  0  0  0  0
  2  6  2  0  0  0  0
  2 16  1  0  0  0  0
  3 16  1  0  0  0  0
  4 13  2  0  0  0  0
  6 18  1  0  0  0  0
  7  9  2  0  0  0  0
  8 10  2  0  0  0  0
  8 17  1  0  0  0  0
  9 13  1  0  0  0  0
 11 14  1  0  0  0  0
 11  7  1  0  0  0  0
 12 23  1  1  0  0  0
 12  2  1  0  0  0  0
 13  5  1  0  0  0  0
 14  4  1  6  0  0  0
 15 20  1  6  0  0  0
 15 21  1  0  0  0  0
 16 11  2  0  0  0  0
 18 14  1  0  0  0  0
 19  8  1  0  0  0  0
 20 19  2  0  0  0  0
 21 17  2  0  0  0  0
 21  3  1  0  0  0  0
 22 26  1  0  0  0  0
 23 27  1  0  0  0  0
 24 23  2  0  0  0  0
 25 24  1  0  0  0  0
 25 22  2  0  0  0  0
 26 27  2  0  0  0  0
M  END
>  <MODEL>
5

>  <REMARK>
 VINA RESULT:      -7.2      4.510      8.826
  Name = 
  1 active torsions:
  status: ('A' for Active; 'I' for Inactive)
    1  A    between atoms: C_9  and  C_15
                            x       y       z     vdW  Elec       q    Type
                         _______ _______ _______ _____ _____    ______ ____

>  <TORSDO>
F 1

$$$$
=
 OpenBabel10262420053D

 27 31  0  0  1  0  0  0  0  0999 V2000
  182.2950  178.8120  138.2760 N   0  0  0  0  0  2  0  0  0  0  0  0
  182.0830  178.6530  140.7550 C   0  0  0  0  0  0  0  0  0  0  0  0
  184.5590  178.1400  140.1140 N   0  0  0  0  0  2  0  0  0  0  0  0
  183.3190  179.0160  144.6930 C   0  0  0  0  0  3  0  0  0  0  0  0
  185.0110  178.8020  146.4370 F   0  0  0  0  0  0  0  0  0  0  0  0
  181.2290  179.0160  141.7210 C   0  0  0  0  0  3  0  0  0  0  0  0
  185.3880  178.3400  142.7540 C   0  0  0  0  0  2  0  0  0  0  0  0
  185.7340  177.5710  136.6140 C   0  0  0  0  0  0  0  0  0  0  0  0
  185.6440  178.4140  144.2370 C   0  0  0  0  0  3  0  0  0  0  0  0
  186.8440  177.4580  136.0320 O   0  0  0  0  0  0  0  0  0  0  0  0
  183.9360  178.5310  142.3760 C   0  0  0  0  0  0  0  0  0  0  0  0
  181.4510  178.4420  139.4070 C   0  0  2  0  0  3  0  0  0  0  0  0
  184.6990  178.7410  145.1210 C   0  0  0  0  0  0  0  0  0  0  0  0
  182.9570  178.9160  143.4160 C   0  0  0  0  0  0  0  0  0  0  0  0
  183.2050  177.7220  137.9780 C   0  0  1  0  0  3  0  0  0  0  0  0
  183.5350  178.4130  141.0910 C   0  0  0  0  0  0  0  0  0  0  0  0
  185.6790  177.8220  138.0580 C   0  0  0  0  0  3  0  0  0  0  0  0
  181.6400  179.1730  143.0460 O   0  0  0  0  0  0  0  0  0  0  0  0
  184.4880  177.4700  135.8530 C   0  0  0  0  0  3  0  0  0  0  0  0
  183.3160  177.5550  136.4810 C   0  0  0  0  0  3  0  0  0  0  0  0
  184.5120  177.9270  138.7010 C   0  0  0  0  0  0  0  0  0  0  0  0
  179.3320  174.7110  139.0080 C   0  0  0  0  0  3  0  0  0  0  0  0
  180.7090  177.1390  139.2420 C   0  0  0  0  0  0  0  0  0  0  0  0
  179.6190  177.0260  138.3650 C   0  0  0  0  0  3  0  0  0  0  0  0
  178.9340  175.8130  138.2480 C   0  0  0  0  0  3  0  0  0  0  0  0
  180.4120  174.8200  139.8890 C   0  0  0  0  0  3  0  0  0  0  0  0
  181.0980  176.0330  140.0060 C   0  0  0  0  0  3  0  0  0  0  0  0
  1 12  1  0  0  0  0
  2 16  1  0  0  0  0
  2  6  2  0  0  0  0
  3 16  1  0  0  0  0
  4 13  1  0  0  0  0
  6 18  1  0  0  0  0
  7  9  1  0  0  0  0
  8 17  1  0  0  0  0
  9 13  2  0  0  0  0
 10  8  2  0  0  0  0
 11  7  1  0  0  0  0
 11 14  1  0  0  0  0
 12 23  1  6  0  0  0
 12  2  1  0  0  0  0
 13  5  1  0  0  0  0
 14  4  2  0  0  0  0
 15 20  1  6  0  0  0
 15  1  1  0  0  0  0
 15 21  1  0  0  0  0
 16 11  2  0  0  0  0
 17 21  2  0  0  0  0
 18 14  1  0  0  0  0
 19 20  2  0  0  0  0
 19  8  1  0  0  0  0
 21  3  1  0  0  0  0
 22 26  1  0  0  0  0
 23 27  1  0  0  0  0
 24 23  2  0  0  0  0
 25 24  1  0  0  0  0
 25 22  2  0  0  0  0
 26 27  2  0  0  0  0
M  END
>  <MODEL>
6

>  <REMARK>
 VINA RESULT:      -7.2      5.993     10.106
  Name = 
  1 active torsions:
  status: ('A' for Active; 'I' for Inactive)
    1  A    between atoms: C_9  and  C_15
                            x       y       z     vdW  Elec       q    Type
                         _______ _______ _______ _____ _____    ______ ____

>  <TORSDO>
F 1

$$$$
=
 OpenBabel10262420053D

 27 31  0  0  1  0  0  0  0  0999 V2000
  188.5210  178.6790  138.9350 N   0  0  0  0  0  2  0  0  0  0  0  0
  190.6230  177.3670  139.2060 C   0  0  0  0  0  0  0  0  0  0  0  0
  189.1980  176.2440  137.3330 N   0  0  0  0  0  2  0  0  0  0  0  0
  193.8290  175.0500  137.9700 C   0  0  0  0  0  3  0  0  0  0  0  0
  194.7800  173.2490  136.6280 F   0  0  0  0  0  0  0  0  0  0  0  0
  191.8350  177.5040  139.7600 C   0  0  0  0  0  3  0  0  0  0  0  0
  191.3270  174.6580  136.5260 C   0  0  0  0  0  2  0  0  0  0  0  0
  185.6440  177.1310  136.5990 C   0  0  0  0  0  0  0  0  0  0  0  0
  192.5600  173.8300  136.2730 C   0  0  0  0  0  3  0  0  0  0  0  0
  184.8060  176.8670  135.6990 O   0  0  0  0  0  0  0  0  0  0  0  0
  191.4690  175.6280  137.6780 C   0  0  0  0  0  0  0  0  0  0  0  0
  189.5430  178.1880  139.8530 C   0  0  2  0  0  3  0  0  0  0  0  0
  193.7090  174.0240  136.9230 C   0  0  0  0  0  0  0  0  0  0  0  0
  192.7860  175.7970  138.3290 C   0  0  0  0  0  0  0  0  0  0  0  0
  187.5390  177.6360  138.7040 C   0  0  1  0  0  3  0  0  0  0  0  0
  190.4230  176.3830  138.0800 C   0  0  0  0  0  0  0  0  0  0  0  0
  187.0050  176.5900  136.5230 C   0  0  0  0  0  3  0  0  0  0  0  0
  192.9300  176.7520  139.3310 O   0  0  0  0  0  0  0  0  0  0  0  0
  185.2750  177.9960  137.7200 C   0  0  0  0  0  3  0  0  0  0  0  0
  186.1560  178.2420  138.6890 C   0  0  0  0  0  3  0  0  0  0  0  0
  187.9070  176.8420  137.4770 C   0  0  0  0  0  0  0  0  0  0  0  0
  188.0920  176.6130  143.5940 C   0  0  0  0  0  3  0  0  0  0  0  0
  189.0100  177.6390  141.1540 C   0  0  0  0  0  0  0  0  0  0  0  0
  187.9390  178.2530  141.8200 C   0  0  0  0  0  3  0  0  0  0  0  0
  187.4800  177.7390  143.0370 C   0  0  0  0  0  3  0  0  0  0  0  0
  189.1650  176.0030  142.9370 C   0  0  0  0  0  3  0  0  0  0  0  0
  189.6240  176.5170  141.7210 C   0  0  0  0  0  3  0  0  0  0  0  0
  1 12  1  0  0  0  0
  2  6  2  0  0  0  0
  2 12  1  0  0  0  0
  3 21  1  0  0  0  0
  3 16  1  0  0  0  0
  4 14  2  0  0  0  0
  5 13  1  0  0  0  0
  7 11  1  0  0  0  0
  8 19  1  0  0  0  0
  9  7  1  0  0  0  0
  9 13  2  0  0  0  0
 10  8  2  0  0  0  0
 11 16  2  0  0  0  0
 11 14  1  0  0  0  0
 12 23  1  1  0  0  0
 13  4  1  0  0  0  0
 14 18  1  0  0  0  0
 15 20  1  6  0  0  0
 15  1  1  0  0  0  0
 16  2  1  0  0  0  0
 17  8  1  0  0  0  0
 17 21  2  0  0  0  0
 18  6  1  0  0  0  0
 19 20  2  0  0  0  0
 21 15  1  0  0  0  0
 23 27  2  0  0  0  0
 23 24  1  0  0  0  0
 24 25  2  0  0  0  0
 25 22  1  0  0  0  0
 26 22  2  0  0  0  0
 27 26  1  0  0  0  0
M  END
>  <MODEL>
7

>  <REMARK>
 VINA RESULT:      -6.9      3.163      5.047
  Name = 
  1 active torsions:
  status: ('A' for Active; 'I' for Inactive)
    1  A    between atoms: C_9  and  C_15
                            x       y       z     vdW  Elec       q    Type
                         _______ _______ _______ _____ _____    ______ ____

>  <TORSDO>
F 1

$$$$
=
 OpenBabel10262420053D

 27 31  0  0  1  0  0  0  0  0999 V2000
  189.4130  178.4170  138.8080 N   0  0  0  0  0  2  0  0  0  0  0  0
  186.9220  178.3280  138.8170 C   0  0  0  0  0  0  0  0  0  0  0  0
  187.7560  178.0770  141.2750 N   0  0  0  0  0  0  0  0  0  0  0  0
  183.1140  178.9790  140.3160 C   0  0  0  0  0  3  0  0  0  0  0  0
  181.5140  179.0250  142.1570 F   0  0  0  0  0  0  0  0  0  0  0  0
  185.8970  178.6280  138.0080 C   0  0  0  0  0  3  0  0  0  0  0  0
  185.2010  178.4690  142.2870 C   0  0  0  0  0  3  0  0  0  0  0  0
  191.3250  177.5130  142.2230 C   0  0  0  0  0  0  0  0  0  0  0  0
  183.7490  178.6280  142.6510 C   0  0  0  0  0  3  0  0  0  0  0  0
  191.9950  177.5060  143.2870 O   0  0  0  0  0  0  0  0  0  0  0  0
  185.4610  178.4790  140.7970 C   0  0  0  0  0  0  0  0  0  0  0  0
  188.2050  177.9970  138.1070 C   0  0  2  0  0  3  0  0  0  0  0  0
  182.7970  178.8790  141.7490 C   0  0  0  0  0  0  0  0  0  0  0  0
  184.3530  178.7890  139.8670 C   0  0  1  0  0  3  0  0  0  0  0  0
  189.7560  177.4270  139.8120 C   0  0  1  0  0  3  0  0  0  0  0  0
  186.7030  178.2680  140.3090 C   0  0  0  0  0  0  0  0  0  0  0  0
  189.8890  177.8110  142.2560 C   0  0  0  0  0  2  0  0  0  0  0  0
  184.6170  178.8810  138.5030 O   0  0  0  0  0  0  0  0  0  0  0  0
  191.9740  177.2430  140.9400 C   0  0  0  0  0  3  0  0  0  0  0  0
  191.2520  177.2170  139.8210 C   0  0  0  0  0  3  0  0  0  0  0  0
  189.1530  177.8070  141.1400 C   0  0  0  0  0  0  0  0  0  0  0  0
  188.4590  174.0320  136.4360 C   0  0  0  0  0  3  0  0  0  0  0  0
  188.2700  176.6120  137.5110 C   0  0  0  0  0  0  0  0  0  0  0  0
  187.1810  175.7300  137.5930 C   0  0  0  0  0  3  0  0  0  0  0  0
  187.2760  174.4440  137.0540 C   0  0  0  0  0  3  0  0  0  0  0  0
  189.5490  174.9040  136.3580 C   0  0  0  0  0  3  0  0  0  0  0  0
  189.4550  176.1900  136.8970 C   0  0  0  0  0  3  0  0  0  0  0  0
  1 15  1  0  0  0  0
  2 16  1  0  0  0  0
  4 13  2  0  0  0  0
  6 18  1  0  0  0  0
  6  2  2  0  0  0  0
  7  9  2  0  0  0  0
  8 17  1  0  0  0  0
  8 10  2  0  0  0  0
 11  7  1  0  0  0  0
 12 23  1  1  0  0  0
 12  1  1  0  0  0  0
 12  2  1  0  0  0  0
 13  5  1  0  0  0  0
 13  9  1  0  0  0  0
 14  4  1  6  0  0  0
 14 11  1  0  0  0  0
 15 20  1  1  0  0  0
 15 21  1  0  0  0  0
 16 11  2  0  0  0  0
 16  3  1  0  0  0  0
 18 14  1  0  0  0  0
 19  8  1  0  0  0  0
 20 19  2  0  0  0  0
 21  3  2  0  0  0  0
 21 17  1  0  0  0  0
 22 25  1  0  0  0  0
 23 24  1  0  0  0  0
 25 24  2  0  0  0  0
 26 22  2  0  0  0  0
 26 27  1  0  0  0  0
 27 23  2  0  0  0  0
M  END
>  <MODEL>
8

>  <REMARK>
 VINA RESULT:      -6.6      3.546      7.278
  Name = 
  1 active torsions:
  status: ('A' for Active; 'I' for Inactive)
    1  A    between atoms: C_9  and  C_15
                            x       y       z     vdW  Elec       q    Type
                         _______ _______ _______ _____ _____    ______ ____

>  <TORSDO>
F 1

$$$$
=
 OpenBabel10262420053D

 27 31  0  0  1  0  0  0  0  0999 V2000
  185.9480  179.0030  138.5090 N   0  0  0  0  0  2  0  0  0  0  0  0
  183.6670  178.7710  139.4860 C   0  0  0  0  0  0  0  0  0  0  0  0
  185.4100  178.4350  141.3970 N   0  0  0  0  0  0  0  0  0  0  0  0
  180.7410  179.1200  142.4000 C   0  0  0  0  0  3  0  0  0  0  0  0
  179.9970  178.9740  144.7190 F   0  0  0  0  0  0  0  0  0  0  0  0
  182.3970  179.0540  139.1670 C   0  0  0  0  0  3  0  0  0  0  0  0
  183.4510  178.6250  143.3530 C   0  0  0  0  0  3  0  0  0  0  0  0
  189.0790  178.0270  140.8280 C   0  0  0  0  0  0  0  0  0  0  0  0
  182.2560  178.6800  144.2680 C   0  0  0  0  0  3  0  0  0  0  0  0
  190.1150  178.0010  141.5410 O   0  0  0  0  0  0  0  0  0  0  0  0
  183.1010  178.7310  141.8850 C   0  0  0  0  0  0  0  0  0  0  0  0
  184.5750  178.5520  138.3090 C   0  0  2  0  0  3  0  0  0  0  0  0
  181.0180  178.9240  143.8310 C   0  0  0  0  0  0  0  0  0  0  0  0
  181.7070  179.0260  141.4890 C   0  0  1  0  0  3  0  0  0  0  0  0
  186.6900  177.9810  139.2240 C   0  0  1  0  0  3  0  0  0  0  0  0
  184.0560  178.6180  140.9360 C   0  0  0  0  0  0  0  0  0  0  0  0
  187.7650  178.2400  141.4410 C   0  0  0  0  0  2  0  0  0  0  0  0
  181.4090  179.2060  140.1410 O   0  0  0  0  0  0  0  0  0  0  0  0
  189.1780  177.8640  139.3760 C   0  0  0  0  0  3  0  0  0  0  0  0
  188.0740  177.8570  138.6310 C   0  0  0  0  0  3  0  0  0  0  0  0
  186.6480  178.2530  140.7060 C   0  0  0  0  0  0  0  0  0  0  0  0
  184.2710  174.7150  136.3690 C   0  0  0  0  0  3  0  0  0  0  0  0
  184.4430  177.2080  137.6370 C   0  0  0  0  0  0  0  0  0  0  0  0
  183.7940  176.1370  138.2690 C   0  0  0  0  0  3  0  0  0  0  0  0
  183.7060  174.8940  137.6350 C   0  0  0  0  0  3  0  0  0  0  0  0
  184.9260  175.7770  135.7390 C   0  0  0  0  0  3  0  0  0  0  0  0
  185.0140  177.0200  136.3730 C   0  0  0  0  0  3  0  0  0  0  0  0
  1 15  1  0  0  0  0
  2 16  1  0  0  0  0
  4 13  2  0  0  0  0
  6  2  2  0  0  0  0
  6 18  1  0  0  0  0
  7  9  2  0  0  0  0
  8 17  1  0  0  0  0
  8 10  2  0  0  0  0
 11  7  1  0  0  0  0
 12 23  1  1  0  0  0
 12  1  1  0  0  0  0
 12  2  1  0  0  0  0
 13  9  1  0  0  0  0
 13  5  1  0  0  0  0
 14 11  1  0  0  0  0
 14  4  1  6  0  0  0
 15 20  1  6  0  0  0
 15 21  1  0  0  0  0
 16  3  1  0  0  0  0
 16 11  2  0  0  0  0
 18 14  1  0  0  0  0
 19  8  1  0  0  0  0
 20 19  2  0  0  0  0
 21  3  2  0  0  0  0
 21 17  1  0  0  0  0
 22 25  1  0  0  0  0
 23 24  1  0  0  0  0
 25 24  2  0  0  0  0
 26 22  2  0  0  0  0
 26 27  1  0  0  0  0
 27 23  2  0  0  0  0
M  END
>  <MODEL>
9

>  <REMARK>
 VINA RESULT:      -6.6      4.960      9.086
  Name = 
  1 active torsions:
  status: ('A' for Active; 'I' for Inactive)
    1  A    between atoms: C_9  and  C_15
                            x       y       z     vdW  Elec       q    Type
                         _______ _______ _______ _____ _____    ______ ____

>  <TORSDO>
F 1

$$$$
