=
 OpenBabel10262422353D

 43 48  0  0  1  0  0  0  0  0999 V2000
  191.2730  176.3870  147.1140 C   0  0  0  0  0  0  0  0  0  0  0  0
  187.1870  177.9120  144.5730 C   0  0  0  0  0  0  0  0  0  0  0  0
  188.8410  177.6690  142.8120 O   0  0  0  0  0  0  0  0  0  0  0  0
  189.0270  177.1220  146.4740 C   0  0  0  0  0  0  0  0  0  0  0  0
  191.7200  176.4320  145.8580 C   0  0  0  0  0  3  0  0  0  0  0  0
  192.1090  176.0090  148.1110 F   0  0  0  0  0  0  0  0  0  0  0  0
  189.4310  177.1930  145.1270 C   0  0  0  0  0  0  0  0  0  0  0  0
  189.8800  176.7430  147.4280 C   0  0  0  0  0  3  0  0  0  0  0  0
  190.8400  176.8440  144.7080 C   0  0  0  0  0  2  0  0  0  0  0  0
  187.9030  178.0600  141.8450 C   0  0  0  0  0  0  0  0  0  0  0  0
  188.4940  177.5900  144.1690 C   0  0  0  0  0  0  0  0  0  0  0  0
  186.8590  177.8240  145.8910 N   0  0  0  0  0  0  0  0  0  0  0  0
  186.2810  178.2990  143.6540 C   0  0  0  0  0  0  0  0  0  0  0  0
  186.6590  178.3730  142.2260 C   0  0  0  0  0  3  0  0  0  0  0  0
  187.7490  177.4420  146.8090 N   0  0  0  0  0  0  0  0  0  0  0  0
  188.2960  178.1110  140.4310 C   0  0  0  0  0  0  0  0  0  0  0  0
  187.3090  178.3980  139.4390 N   0  0  0  0  0  2  0  0  0  0  0  0
  189.4960  177.9120  140.0930 O   0  0  0  0  0  0  0  0  0  0  0  0
  188.8720  179.4450  137.5790 O   0  0  0  0  0  0  0  0  0  0  0  0
  187.6910  178.5320  137.7570 S   0  0  0  0  0  0  0  0  0  0  0  0
  186.5040  179.0880  137.0210 O   0  0  0  0  0  0  0  0  0  0  0  0
  188.0740  176.8980  137.1130 C   0  0  2  0  0  3  0  0  0  0  0  0
  186.7090  176.2460  135.2740 C   0  0  0  0  0  2  0  0  0  0  0  0
  188.7550  177.0410  135.7750 C   0  0  0  0  0  2  0  0  0  0  0  0
  186.8620  176.0520  136.7810 C   0  0  1  0  0  0  0  0  0  0  0  0
  187.2150  174.5960  137.0850 C   0  0  0  0  0  1  0  0  0  0  0  0
  187.7740  177.0180  134.7730 O   0  0  0  0  0  0  0  0  0  0  0  0
  185.7180  176.4710  137.5100 O   0  0  0  0  0  0  0  0  0  0  0  0
  184.5450  176.0430  136.8640 C   0  0  0  0  0  3  0  0  0  0  0  0
  182.3100  174.9440  137.4940 C   0  0  0  0  0  2  0  0  0  0  0  0
  182.3780  176.8260  135.8120 C   0  0  0  0  0  2  0  0  0  0  0  0
  181.9530  175.3740  136.0730 C   0  0  0  0  0  2  0  0  0  0  0  0
  183.6440  177.2430  136.5770 C   0  0  0  0  0  2  0  0  0  0  0  0
  183.8250  175.0020  137.7330 C   0  0  0  0  0  2  0  0  0  0  0  0
  184.8680  178.6150  144.0390 C   0  0  0  0  0  2  0  0  0  0  0  0
  181.7890  178.8290  141.8360 C   0  0  0  0  0  3  0  0  0  0  0  0
  182.2430  178.2060  140.6690 C   0  0  0  0  0  0  0  0  0  0  0  0
  184.4140  177.8750  141.6910 C   0  0  0  0  0  3  0  0  0  0  0  0
  182.6470  178.9750  142.9310 C   0  0  0  0  0  3  0  0  0  0  0  0
  183.9630  178.5020  142.8570 C   0  0  0  0  0  0  0  0  0  0  0  0
  183.5560  177.7300  140.5970 C   0  0  0  0  0  3  0  0  0  0  0  0
  180.6520  177.9340  138.6410 N   0  0  0  0  0  0  0  0  0  0  0  0
  181.3620  178.0560  139.5460 C   0  0  0  0  0  0  0  0  0  0  0  0
  1  8  1  0  0  0  0
  1  6  1  0  0  0  0
  2 12  1  0  0  0  0
  3 11  1  0  0  0  0
  4 15  1  0  0  0  0
  4  8  2  0  0  0  0
  5  1  2  0  0  0  0
  7  4  1  0  0  0  0
  9  7  1  0  0  0  0
  9  5  1  0  0  0  0
 10 14  2  0  0  0  0
 10  3  1  0  0  0  0
 11  2  1  0  0  0  0
 11  7  2  0  0  0  0
 12 15  2  0  0  0  0
 13 35  1  0  0  0  0
 13  2  2  0  0  0  0
 14 13  1  0  0  0  0
 16 10  1  0  0  0  0
 17 16  1  0  0  0  0
 18 16  2  0  0  0  0
 19 20  2  0  0  0  0
 20 17  1  0  0  0  0
 21 20  2  0  0  0  0
 22 20  1  6  0  0  0
 23 25  1  0  0  0  0
 24 22  1  0  0  0  0
 25 26  1  1  0  0  0
 25 22  1  0  0  0  0
 25 28  1  0  0  0  0
 27 23  1  0  0  0  0
 27 24  1  0  0  0  0
 29 28  1  0  0  0  0
 29 34  1  0  0  0  0
 30 34  1  0  0  0  0
 31 32  1  0  0  0  0
 31 33  1  0  0  0  0
 32 30  1  0  0  0  0
 33 29  1  0  0  0  0
 36 39  1  0  0  0  0
 37 36  2  0  0  0  0
 38 40  1  0  0  0  0
 40 39  2  0  0  0  0
 40 35  1  0  0  0  0
 41 37  1  0  0  0  0
 41 38  2  0  0  0  0
 42 43  3  0  0  0  0
 43 37  1  0  0  0  0
M  END
>  <MODEL>
1

>  <REMARK>
 VINA RESULT:     -10.0      0.000      0.000
  Name = 
  8 active torsions:
  status: ('A' for Active; 'I' for Inactive)
    1  A    between atoms: C_1  and  C_34
    2  A    between atoms: C_1  and  C_35
    3  A    between atoms: C_2  and  C_27
    4  A    between atoms: C_4  and  S_12
    5  A    between atoms: N_6  and  S_12
    6  A    between atoms: C_11  and  O_14
    7  A    between atoms: O_14  and  C_22
    8  A    between atoms: C_19  and  C_37
                            x       y       z     vdW  Elec       q    Type
                         _______ _______ _______ _____ _____    ______ ____

>  <TORSDO>
F 8

$$$$
=
 OpenBabel10262422353D

 43 48  0  0  1  0  0  0  0  0999 V2000
  188.8260  177.4790  147.2170 C   0  0  0  0  0  0  0  0  0  0  0  0
  185.6260  178.2630  143.3920 C   0  0  0  0  0  0  0  0  0  0  0  0
  187.7680  178.1010  142.2610 O   0  0  0  0  0  0  0  0  0  0  0  0
  186.8370  177.8660  145.8420 C   0  0  0  0  0  0  0  0  0  0  0  0
  189.6410  177.4850  146.1610 C   0  0  0  0  0  3  0  0  0  0  0  0
  189.3360  177.2900  148.4570 F   0  0  0  0  0  0  0  0  0  0  0  0
  187.6380  177.8840  144.6840 C   0  0  0  0  0  0  0  0  0  0  0  0
  187.3770  177.6750  147.0480 C   0  0  0  0  0  3  0  0  0  0  0  0
  189.1350  177.6900  144.7580 C   0  0  0  0  0  2  0  0  0  0  0  0
  187.1510  178.2920  141.0160 C   0  0  0  0  0  0  0  0  0  0  0  0
  187.0190  178.0830  143.4460 C   0  0  0  0  0  0  0  0  0  0  0  0
  184.9080  178.2340  144.5480 N   0  0  0  0  0  0  0  0  0  0  0  0
  185.0240  178.4570  142.2030 C   0  0  0  0  0  0  0  0  0  0  0  0
  185.8260  178.4700  140.9600 C   0  0  0  0  0  3  0  0  0  0  0  0
  185.4940  178.0420  145.7310 N   0  0  0  0  0  0  0  0  0  0  0  0
  187.9650  178.2850  139.7930 C   0  0  0  0  0  0  0  0  0  0  0  0
  187.3190  178.3470  138.5210 N   0  0  0  0  0  2  0  0  0  0  0  0
  189.2250  178.2350  139.8630 O   0  0  0  0  0  0  0  0  0  0  0  0
  189.0650  179.6260  137.0000 O   0  0  0  0  0  0  0  0  0  0  0  0
  188.1990  178.3980  137.0310 S   0  0  0  0  0  0  0  0  0  0  0  0
  187.2290  178.4300  135.8830 O   0  0  0  0  0  0  0  0  0  0  0  0
  189.2170  176.9220  136.9040 C   0  0  2  0  0  3  0  0  0  0  0  0
  188.4430  175.3580  135.2840 C   0  0  0  0  0  2  0  0  0  0  0  0
  189.9870  176.9650  135.6080 C   0  0  0  0  0  2  0  0  0  0  0  0
  188.4390  175.6280  136.7870 C   0  0  1  0  0  0  0  0  0  0  0  0
  189.2330  174.5420  137.5120 C   0  0  0  0  0  1  0  0  0  0  0  0
  189.2300  176.3190  134.6200 O   0  0  0  0  0  0  0  0  0  0  0  0
  187.1300  175.7570  137.3200 O   0  0  0  0  0  0  0  0  0  0  0  0
  186.2290  174.9520  136.6000 C   0  0  0  0  0  3  0  0  0  0  0  0
  184.4530  173.1620  137.0920 C   0  0  0  0  0  2  0  0  0  0  0  0
  184.0210  174.9470  135.3590 C   0  0  0  0  0  2  0  0  0  0  0  0
  184.0920  173.4380  135.6350 C   0  0  0  0  0  2  0  0  0  0  0  0
  185.0020  175.7730  136.2050 C   0  0  0  0  0  2  0  0  0  0  0  0
  185.8340  173.7330  137.4450 C   0  0  0  0  0  2  0  0  0  0  0  0
  183.5380  178.6160  142.0990 C   0  0  0  0  0  2  0  0  0  0  0  0
  182.6230  176.8780  138.8560 C   0  0  0  0  0  3  0  0  0  0  0  0
  182.3120  177.9680  138.0380 C   0  0  0  0  0  0  0  0  0  0  0  0
  182.7740  179.4770  139.8760 C   0  0  0  0  0  3  0  0  0  0  0  0
  183.0110  177.0850  140.1830 C   0  0  0  0  0  3  0  0  0  0  0  0
  183.0820  178.3870  140.6960 C   0  0  0  0  0  0  0  0  0  0  0  0
  182.3870  179.2680  138.5490 C   0  0  0  0  0  3  0  0  0  0  0  0
  181.5950  177.5830  135.5770 N   0  0  0  0  0  0  0  0  0  0  0  0
  181.9150  177.7550  136.6750 C   0  0  0  0  0  0  0  0  0  0  0  0
  1  6  1  0  0  0  0
  2 11  1  0  0  0  0
  2 12  1  0  0  0  0
  3 11  1  0  0  0  0
  4  8  2  0  0  0  0
  5  1  2  0  0  0  0
  7  9  1  0  0  0  0
  7  4  1  0  0  0  0
  8  1  1  0  0  0  0
  9  5  1  0  0  0  0
 10  3  1  0  0  0  0
 11  7  2  0  0  0  0
 12 15  2  0  0  0  0
 13  2  2  0  0  0  0
 14 10  2  0  0  0  0
 14 13  1  0  0  0  0
 15  4  1  0  0  0  0
 16 18  2  0  0  0  0
 16 10  1  0  0  0  0
 17 16  1  0  0  0  0
 19 20  2  0  0  0  0
 20 17  1  0  0  0  0
 21 20  2  0  0  0  0
 22 20  1  6  0  0  0
 23 25  1  0  0  0  0
 24 22  1  0  0  0  0
 25 22  1  0  0  0  0
 25 28  1  0  0  0  0
 25 26  1  1  0  0  0
 27 23  1  0  0  0  0
 27 24  1  0  0  0  0
 29 28  1  0  0  0  0
 29 34  1  0  0  0  0
 30 34  1  0  0  0  0
 31 32  1  0  0  0  0
 31 33  1  0  0  0  0
 32 30  1  0  0  0  0
 33 29  1  0  0  0  0
 35 13  1  0  0  0  0
 36 39  1  0  0  0  0
 37 41  1  0  0  0  0
 37 36  2  0  0  0  0
 38 40  1  0  0  0  0
 39 40  2  0  0  0  0
 40 35  1  0  0  0  0
 41 38  2  0  0  0  0
 42 43  3  0  0  0  0
 43 37  1  0  0  0  0
M  END
>  <MODEL>
2

>  <REMARK>
 VINA RESULT:      -9.7      1.554      2.209
  Name = 
  8 active torsions:
  status: ('A' for Active; 'I' for Inactive)
    1  A    between atoms: C_1  and  C_34
    2  A    between atoms: C_1  and  C_35
    3  A    between atoms: C_2  and  C_27
    4  A    between atoms: C_4  and  S_12
    5  A    between atoms: N_6  and  S_12
    6  A    between atoms: C_11  and  O_14
    7  A    between atoms: O_14  and  C_22
    8  A    between atoms: C_19  and  C_37
                            x       y       z     vdW  Elec       q    Type
                         _______ _______ _______ _____ _____    ______ ____

>  <TORSDO>
F 8

$$$$
=
 OpenBabel10262422353D

 43 48  0  0  1  0  0  0  0  0999 V2000
  187.8710  177.5920  148.0030 C   0  0  0  0  0  0  0  0  0  0  0  0
  186.2980  178.5430  143.3010 C   0  0  0  0  0  0  0  0  0  0  0  0
  188.4570  177.4940  142.9320 O   0  0  0  0  0  0  0  0  0  0  0  0
  186.5930  178.2930  146.0350 C   0  0  0  0  0  0  0  0  0  0  0  0
  188.8820  177.1290  147.2660 C   0  0  0  0  0  3  0  0  0  0  0  0
  187.9320  177.5090  149.3530 F   0  0  0  0  0  0  0  0  0  0  0  0
  187.6220  177.8250  145.1970 C   0  0  0  0  0  0  0  0  0  0  0  0
  186.6890  178.1920  147.3630 C   0  0  0  0  0  3  0  0  0  0  0  0
  188.8730  177.1920  145.7620 C   0  0  0  0  0  2  0  0  0  0  0  0
  188.3020  177.6110  141.5430 C   0  0  0  0  0  0  0  0  0  0  0  0
  187.4660  177.9520  143.8130 C   0  0  0  0  0  0  0  0  0  0  0  0
  185.3400  178.9750  144.1650 N   0  0  0  0  0  0  0  0  0  0  0  0
  186.1430  178.6700  141.9690 C   0  0  0  0  0  0  0  0  0  0  0  0
  187.1940  178.1790  141.0510 C   0  0  0  0  0  3  0  0  0  0  0  0
  185.4840  178.8540  145.4870 N   0  0  0  0  0  0  0  0  0  0  0  0
  189.3510  177.1030  140.6500 C   0  0  0  0  0  0  0  0  0  0  0  0
  189.0860  176.9910  139.2500 N   0  0  0  0  0  2  0  0  0  0  0  0
  190.4800  176.7750  141.1100 O   0  0  0  0  0  0  0  0  0  0  0  0
  190.5550  174.9910  138.3330 O   0  0  0  0  0  0  0  0  0  0  0  0
  190.2790  176.4530  138.1170 S   0  0  0  0  0  0  0  0  0  0  0  0
  191.5430  177.2440  138.3140 O   0  0  0  0  0  0  0  0  0  0  0  0
  189.6650  176.7250  136.4500 C   0  0  2  0  0  3  0  0  0  0  0  0
  187.3540  177.2920  136.3590 C   0  0  0  0  0  2  0  0  0  0  0  0
  189.4130  178.1990  136.2510 C   0  0  0  0  0  2  0  0  0  0  0  0
  188.3070  176.1140  136.1720 C   0  0  1  0  0  0  0  0  0  0  0  0
  188.2930  175.6600  134.7120 C   0  0  0  0  0  1  0  0  0  0  0  0
  188.0820  178.4720  136.6010 O   0  0  0  0  0  0  0  0  0  0  0  0
  188.0300  175.0360  137.0530 O   0  0  0  0  0  0  0  0  0  0  0  0
  187.2300  174.0750  136.4090 C   0  0  0  0  0  3  0  0  0  0  0  0
  187.0840  171.5150  136.2410 C   0  0  0  0  0  2  0  0  0  0  0  0
  184.9860  172.9020  136.4650 C   0  0  0  0  0  2  0  0  0  0  0  0
  185.7300  171.8570  135.6230 C   0  0  0  0  0  2  0  0  0  0  0  0
  185.9180  173.8980  137.1710 C   0  0  0  0  0  2  0  0  0  0  0  0
  187.9960  172.7480  136.3060 C   0  0  0  0  0  2  0  0  0  0  0  0
  184.8980  179.2610  141.3830 C   0  0  0  0  0  2  0  0  0  0  0  0
  184.0720  177.6800  138.0370 C   0  0  0  0  0  3  0  0  0  0  0  0
  183.1570  176.6940  138.4170 C   0  0  0  0  0  0  0  0  0  0  0  0
  183.3970  177.3650  140.7320 C   0  0  0  0  0  3  0  0  0  0  0  0
  184.6510  178.5090  139.0030 C   0  0  0  0  0  3  0  0  0  0  0  0
  184.3170  178.3490  140.3540 C   0  0  0  0  0  0  0  0  0  0  0  0
  182.8200  176.5370  139.7650 C   0  0  0  0  0  3  0  0  0  0  0  0
  182.0840  175.1580  136.6260 N   0  0  0  0  0  0  0  0  0  0  0  0
  182.5620  175.8440  137.4250 C   0  0  0  0  0  0  0  0  0  0  0  0
  1  6  1  0  0  0  0
  2 11  1  0  0  0  0
  2 12  1  0  0  0  0
  3 11  1  0  0  0  0
  4  8  2  0  0  0  0
  5  1  2  0  0  0  0
  7  9  1  0  0  0  0
  7  4  1  0  0  0  0
  8  1  1  0  0  0  0
  9  5  1  0  0  0  0
 10  3  1  0  0  0  0
 11  7  2  0  0  0  0
 12 15  2  0  0  0  0
 13  2  2  0  0  0  0
 14 10  2  0  0  0  0
 14 13  1  0  0  0  0
 15  4  1  0  0  0  0
 16 18  2  0  0  0  0
 16 10  1  0  0  0  0
 17 16  1  0  0  0  0
 20 21  2  0  0  0  0
 20 19  2  0  0  0  0
 20 17  1  0  0  0  0
 22 20  1  1  0  0  0
 23 27  1  0  0  0  0
 24 22  1  0  0  0  0
 24 27  1  0  0  0  0
 25 26  1  6  0  0  0
 25 23  1  0  0  0  0
 25 22  1  0  0  0  0
 25 28  1  0  0  0  0
 29 28  1  0  0  0  0
 29 33  1  0  0  0  0
 30 34  1  0  0  0  0
 31 33  1  0  0  0  0
 32 30  1  0  0  0  0
 32 31  1  0  0  0  0
 34 29  1  0  0  0  0
 35 13  1  0  0  0  0
 36 37  2  0  0  0  0
 36 39  1  0  0  0  0
 37 41  1  0  0  0  0
 39 40  2  0  0  0  0
 40 38  1  0  0  0  0
 40 35  1  0  0  0  0
 41 38  2  0  0  0  0
 42 43  3  0  0  0  0
 43 37  1  0  0  0  0
M  END
>  <MODEL>
3

>  <REMARK>
 VINA RESULT:      -9.7      2.044      3.185
  Name = 
  8 active torsions:
  status: ('A' for Active; 'I' for Inactive)
    1  A    between atoms: C_1  and  C_34
    2  A    between atoms: C_1  and  C_35
    3  A    between atoms: C_2  and  C_27
    4  A    between atoms: C_4  and  S_12
    5  A    between atoms: N_6  and  S_12
    6  A    between atoms: C_11  and  O_14
    7  A    between atoms: O_14  and  C_22
    8  A    between atoms: C_19  and  C_37
                            x       y       z     vdW  Elec       q    Type
                         _______ _______ _______ _____ _____    ______ ____

>  <TORSDO>
F 8

$$$$
=
 OpenBabel10262422353D

 43 48  0  0  1  0  0  0  0  0999 V2000
  184.4790  178.6260  145.5020 C   0  0  0  0  0  0  0  0  0  0  0  0
  182.3530  178.8670  140.9300 C   0  0  0  0  0  0  0  0  0  0  0  0
  184.6660  178.3440  140.4070 O   0  0  0  0  0  0  0  0  0  0  0  0
  182.9160  178.8730  143.6330 C   0  0  0  0  0  0  0  0  0  0  0  0
  185.5110  178.3720  144.6950 C   0  0  0  0  0  3  0  0  0  0  0  0
  184.6660  178.6480  146.8430 F   0  0  0  0  0  0  0  0  0  0  0  0
  183.9590  178.6110  142.7230 C   0  0  0  0  0  0  0  0  0  0  0  0
  183.1400  178.8840  144.9490 C   0  0  0  0  0  3  0  0  0  0  0  0
  185.3670  178.3340  143.1970 C   0  0  0  0  0  2  0  0  0  0  0  0
  184.3770  178.3300  139.0350 C   0  0  0  0  0  0  0  0  0  0  0  0
  183.6670  178.6070  141.3560 C   0  0  0  0  0  0  0  0  0  0  0  0
  181.3900  179.1130  141.8590 N   0  0  0  0  0  0  0  0  0  0  0  0
  182.0670  178.8670  139.6130 C   0  0  0  0  0  0  0  0  0  0  0  0
  183.1290  178.5840  138.6240 C   0  0  0  0  0  3  0  0  0  0  0  0
  181.6640  179.1160  143.1660 N   0  0  0  0  0  0  0  0  0  0  0  0
  185.4440  178.0300  138.0710 C   0  0  0  0  0  0  0  0  0  0  0  0
  185.7690  176.6690  137.7870 N   0  0  0  0  0  2  0  0  0  0  0  0
  186.0640  178.9650  137.4910 O   0  0  0  0  0  0  0  0  0  0  0  0
  186.3240  175.9950  135.2890 O   0  0  0  0  0  0  0  0  0  0  0  0
  186.9730  176.2210  136.6270 S   0  0  0  0  0  0  0  0  0  0  0  0
  187.6550  174.9600  137.0800 O   0  0  0  0  0  0  0  0  0  0  0  0
  188.1870  177.5410  136.5080 C   0  0  2  0  0  3  0  0  0  0  0  0
  190.3950  176.8700  137.0950 C   0  0  0  0  0  2  0  0  0  0  0  0
  189.0780  177.2860  135.3170 C   0  0  0  0  0  2  0  0  0  0  0  0
  189.1740  177.5940  137.6560 C   0  0  1  0  0  0  0  0  0  0  0  0
  189.5110  179.0640  137.9090 C   0  0  0  0  0  1  0  0  0  0  0  0
  190.1850  176.5380  135.7430 O   0  0  0  0  0  0  0  0  0  0  0  0
  188.6510  176.9740  138.8210 O   0  0  0  0  0  0  0  0  0  0  0  0
  189.2350  177.5320  139.9720 C   0  0  0  0  0  3  0  0  0  0  0  0
  188.7110  177.7160  142.4810 C   0  0  0  0  0  2  0  0  0  0  0  0
  191.0630  177.2290  141.6990 C   0  0  0  0  0  2  0  0  0  0  0  0
  190.1690  178.1660  142.5250 C   0  0  0  0  0  2  0  0  0  0  0  0
  190.3550  176.6240  140.4780 C   0  0  0  0  0  2  0  0  0  0  0  0
  188.1600  177.7420  141.0490 C   0  0  0  0  0  2  0  0  0  0  0  0
  180.6720  179.1040  139.1200 C   0  0  0  0  0  2  0  0  0  0  0  0
  180.3820  181.2280  135.9920 C   0  0  0  0  0  3  0  0  0  0  0  0
  180.6400  182.5040  136.5020 C   0  0  0  0  0  0  0  0  0  0  0  0
  180.8910  181.5660  138.7210 C   0  0  0  0  0  3  0  0  0  0  0  0
  180.3800  180.1200  136.8460 C   0  0  0  0  0  3  0  0  0  0  0  0
  180.6290  180.2890  138.2130 C   0  0  0  0  0  0  0  0  0  0  0  0
  180.8940  182.6720  137.8670 C   0  0  0  0  0  3  0  0  0  0  0  0
  180.6460  184.5560  134.9180 N   0  0  0  0  0  0  0  0  0  0  0  0
  180.6430  183.6400  135.6260 C   0  0  0  0  0  0  0  0  0  0  0  0
  1  6  1  0  0  0  0
  2 11  1  0  0  0  0
  2 12  1  0  0  0  0
  3 11  1  0  0  0  0
  4  8  2  0  0  0  0
  5  1  2  0  0  0  0
  7  9  1  0  0  0  0
  7  4  1  0  0  0  0
  8  1  1  0  0  0  0
  9  5  1  0  0  0  0
 10  3  1  0  0  0  0
 11  7  2  0  0  0  0
 12 15  2  0  0  0  0
 13  2  2  0  0  0  0
 14 10  2  0  0  0  0
 14 13  1  0  0  0  0
 15  4  1  0  0  0  0
 16 10  1  0  0  0  0
 17 16  1  0  0  0  0
 18 16  2  0  0  0  0
 19 20  2  0  0  0  0
 20 21  2  0  0  0  0
 20 17  1  0  0  0  0
 22 20  1  1  0  0  0
 22 25  1  0  0  0  0
 23 25  1  0  0  0  0
 24 27  1  0  0  0  0
 24 22  1  0  0  0  0
 25 26  1  1  0  0  0
 25 28  1  0  0  0  0
 27 23  1  0  0  0  0
 28 29  1  0  0  0  0
 29 33  1  0  0  0  0
 29 34  1  0  0  0  0
 30 32  1  0  0  0  0
 31 32  1  0  0  0  0
 33 31  1  0  0  0  0
 34 30  1  0  0  0  0
 35 13  1  0  0  0  0
 36 37  2  0  0  0  0
 36 39  1  0  0  0  0
 37 41  1  0  0  0  0
 39 40  2  0  0  0  0
 40 38  1  0  0  0  0
 40 35  1  0  0  0  0
 41 38  2  0  0  0  0
 42 43  3  0  0  0  0
 43 37  1  0  0  0  0
M  END
>  <MODEL>
4

>  <REMARK>
 VINA RESULT:      -9.5      3.160      6.075
  Name = 
  8 active torsions:
  status: ('A' for Active; 'I' for Inactive)
    1  A    between atoms: C_1  and  C_34
    2  A    between atoms: C_1  and  C_35
    3  A    between atoms: C_2  and  C_27
    4  A    between atoms: C_4  and  S_12
    5  A    between atoms: N_6  and  S_12
    6  A    between atoms: C_11  and  O_14
    7  A    between atoms: O_14  and  C_22
    8  A    between atoms: C_19  and  C_37
                            x       y       z     vdW  Elec       q    Type
                         _______ _______ _______ _____ _____    ______ ____

>  <TORSDO>
F 8

$$$$
=
 OpenBabel10262422353D

 43 48  0  0  1  0  0  0  0  0999 V2000
  187.9240  177.8520  147.9050 C   0  0  0  0  0  0  0  0  0  0  0  0
  185.3040  178.5200  143.6420 C   0  0  0  0  0  0  0  0  0  0  0  0
  187.5640  178.1780  142.8220 O   0  0  0  0  0  0  0  0  0  0  0  0
  186.1580  178.2380  146.2520 C   0  0  0  0  0  0  0  0  0  0  0  0
  188.8710  177.7470  146.9700 C   0  0  0  0  0  3  0  0  0  0  0  0
  188.2560  177.7260  149.2120 F   0  0  0  0  0  0  0  0  0  0  0  0
  187.1050  178.1370  145.2140 C   0  0  0  0  0  0  0  0  0  0  0  0
  186.5240  178.1050  147.5300 C   0  0  0  0  0  3  0  0  0  0  0  0
  188.5650  177.8770  145.5010 C   0  0  0  0  0  2  0  0  0  0  0  0
  187.1270  178.3120  141.4960 C   0  0  0  0  0  0  0  0  0  0  0  0
  186.6660  178.2780  143.8950 C   0  0  0  0  0  0  0  0  0  0  0  0
  184.4400  178.6070  144.6900 N   0  0  0  0  0  0  0  0  0  0  0  0
  184.8760  178.6600  142.3730 C   0  0  0  0  0  0  0  0  0  0  0  0
  185.8330  178.5480  141.2510 C   0  0  0  0  0  3  0  0  0  0  0  0
  184.8540  178.4700  145.9510 N   0  0  0  0  0  0  0  0  0  0  0  0
  188.0930  178.1810  140.3970 C   0  0  0  0  0  0  0  0  0  0  0  0
  187.6690  178.4350  139.0570 N   0  0  0  0  0  2  0  0  0  0  0  0
  189.2900  177.8560  140.6320 O   0  0  0  0  0  0  0  0  0  0  0  0
  190.0210  177.6710  138.1200 O   0  0  0  0  0  0  0  0  0  0  0  0
  188.7500  178.3580  137.7070 S   0  0  0  0  0  0  0  0  0  0  0  0
  189.0550  179.7530  137.2360 O   0  0  0  0  0  0  0  0  0  0  0  0
  187.9590  177.4440  136.3780 C   0  0  2  0  0  3  0  0  0  0  0  0
  187.1890  175.2850  137.0220 C   0  0  0  0  0  2  0  0  0  0  0  0
  186.4740  177.3850  136.6340 C   0  0  0  0  0  2  0  0  0  0  0  0
  188.3430  175.9810  136.3040 C   0  0  1  0  0  0  0  0  0  0  0  0
  188.3560  175.5780  134.8290 C   0  0  0  0  0  1  0  0  0  0  0  0
  186.1960  176.2220  137.3680 O   0  0  0  0  0  0  0  0  0  0  0  0
  189.5990  175.7400  136.9190 O   0  0  0  0  0  0  0  0  0  0  0  0
  190.4240  174.9880  136.0620 C   0  0  0  0  0  3  0  0  0  0  0  0
  192.9290  174.7580  135.5390 C   0  0  0  0  0  2  0  0  0  0  0  0
  191.4640  172.7080  135.6950 C   0  0  0  0  0  2  0  0  0  0  0  0
  192.4350  173.5080  134.8160 C   0  0  0  0  0  2  0  0  0  0  0  0
  190.6200  173.5850  136.6330 C   0  0  0  0  0  2  0  0  0  0  0  0
  191.7690  175.7060  135.8750 C   0  0  0  0  0  2  0  0  0  0  0  0
  183.4280  178.8820  142.0600 C   0  0  0  0  0  2  0  0  0  0  0  0
  182.8130  176.7590  138.9790 C   0  0  0  0  0  3  0  0  0  0  0  0
  182.6510  177.7410  137.9970 C   0  0  0  0  0  0  0  0  0  0  0  0
  182.9700  179.4640  139.6680 C   0  0  0  0  0  3  0  0  0  0  0  0
  183.0530  177.1280  140.3060 C   0  0  0  0  0  3  0  0  0  0  0  0
  183.1270  178.4830  140.6530 C   0  0  0  0  0  0  0  0  0  0  0  0
  182.7300  179.0930  138.3420 C   0  0  0  0  0  3  0  0  0  0  0  0
  182.2080  177.0540  135.5360 N   0  0  0  0  0  0  0  0  0  0  0  0
  182.4060  177.3600  136.6350 C   0  0  0  0  0  0  0  0  0  0  0  0
  1  6  1  0  0  0  0
  2 11  1  0  0  0  0
  2 12  1  0  0  0  0
  3 11  1  0  0  0  0
  4  8  2  0  0  0  0
  5  1  2  0  0  0  0
  7  9  1  0  0  0  0
  7  4  1  0  0  0  0
  8  1  1  0  0  0  0
  9  5  1  0  0  0  0
 10  3  1  0  0  0  0
 11  7  2  0  0  0  0
 12 15  2  0  0  0  0
 13  2  2  0  0  0  0
 14 10  2  0  0  0  0
 14 13  1  0  0  0  0
 15  4  1  0  0  0  0
 16 18  2  0  0  0  0
 16 10  1  0  0  0  0
 17 16  1  0  0  0  0
 20 19  2  0  0  0  0
 20 17  1  0  0  0  0
 21 20  2  0  0  0  0
 22 24  1  0  0  0  0
 22 20  1  1  0  0  0
 23 27  1  0  0  0  0
 24 27  1  0  0  0  0
 25 26  1  6  0  0  0
 25 22  1  0  0  0  0
 25 28  1  0  0  0  0
 25 23  1  0  0  0  0
 29 33  1  0  0  0  0
 29 28  1  0  0  0  0
 30 34  1  0  0  0  0
 31 33  1  0  0  0  0
 32 30  1  0  0  0  0
 32 31  1  0  0  0  0
 34 29  1  0  0  0  0
 35 13  1  0  0  0  0
 36 39  1  0  0  0  0
 37 41  1  0  0  0  0
 37 36  2  0  0  0  0
 38 40  1  0  0  0  0
 39 40  2  0  0  0  0
 40 35  1  0  0  0  0
 41 38  2  0  0  0  0
 42 43  3  0  0  0  0
 43 37  1  0  0  0  0
M  END
>  <MODEL>
5

>  <REMARK>
 VINA RESULT:      -9.1      2.238      4.187
  Name = 
  8 active torsions:
  status: ('A' for Active; 'I' for Inactive)
    1  A    between atoms: C_1  and  C_34
    2  A    between atoms: C_1  and  C_35
    3  A    between atoms: C_2  and  C_27
    4  A    between atoms: C_4  and  S_12
    5  A    between atoms: N_6  and  S_12
    6  A    between atoms: C_11  and  O_14
    7  A    between atoms: O_14  and  C_22
    8  A    between atoms: C_19  and  C_37
                            x       y       z     vdW  Elec       q    Type
                         _______ _______ _______ _____ _____    ______ ____

>  <TORSDO>
F 8

$$$$
=
 OpenBabel10262422353D

 43 48  0  0  1  0  0  0  0  0999 V2000
  188.0840  177.5650  148.1280 C   0  0  0  0  0  0  0  0  0  0  0  0
  190.0680  177.6050  143.4860 C   0  0  0  0  0  0  0  0  0  0  0  0
  187.7450  178.1760  143.0700 O   0  0  0  0  0  0  0  0  0  0  0  0
  189.5880  177.4290  146.1990 C   0  0  0  0  0  0  0  0  0  0  0  0
  187.0310  177.8780  147.3710 C   0  0  0  0  0  3  0  0  0  0  0  0
  187.9380  177.4580  149.4700 F   0  0  0  0  0  0  0  0  0  0  0  0
  188.5200  177.7550  145.3410 C   0  0  0  0  0  0  0  0  0  0  0  0
  189.4040  177.3350  147.5180 C   0  0  0  0  0  3  0  0  0  0  0  0
  187.1290  178.0110  145.8750 C   0  0  0  0  0  2  0  0  0  0  0  0
  187.9920  178.2760  141.6930 C   0  0  0  0  0  0  0  0  0  0  0  0
  188.7700  177.8460  143.9690 C   0  0  0  0  0  0  0  0  0  0  0  0
  191.0570  177.2940  144.3670 N   0  0  0  0  0  0  0  0  0  0  0  0
  190.3140  177.6880  142.1640 C   0  0  0  0  0  0  0  0  0  0  0  0
  189.2250  178.0420  141.2280 C   0  0  0  0  0  3  0  0  0  0  0  0
  190.8230  177.2090  145.6790 N   0  0  0  0  0  0  0  0  0  0  0  0
  186.8990  178.6440  140.7840 C   0  0  0  0  0  0  0  0  0  0  0  0
  186.9000  178.1410  139.4470 N   0  0  0  0  0  2  0  0  0  0  0  0
  185.9610  179.3910  141.1800 O   0  0  0  0  0  0  0  0  0  0  0  0
  186.1990  178.6300  136.9430 O   0  0  0  0  0  0  0  0  0  0  0  0
  185.6260  178.4780  138.3250 S   0  0  0  0  0  0  0  0  0  0  0  0
  184.9320  179.7490  138.7290 O   0  0  0  0  0  0  0  0  0  0  0  0
  184.4460  177.1230  138.3560 C   0  0  2  0  0  3  0  0  0  0  0  0
  182.2290  177.7670  137.7720 C   0  0  0  0  0  2  0  0  0  0  0  0
  184.0670  176.7650  136.9410 C   0  0  0  0  0  2  0  0  0  0  0  0
  183.1100  177.4660  138.9820 C   0  0  1  0  0  0  0  0  0  0  0  0
  182.5990  176.2170  139.7000 C   0  0  0  0  0  1  0  0  0  0  0  0
  182.9370  177.5140  136.5810 O   0  0  0  0  0  0  0  0  0  0  0  0
  183.2190  178.5670  139.8720 O   0  0  0  0  0  0  0  0  0  0  0  0
  182.3590  178.3910  140.9710 C   0  0  0  0  0  3  0  0  0  0  0  0
  182.2800  179.0390  143.4560 C   0  0  0  0  0  2  0  0  0  0  0  0
  180.1980  179.1760  142.0340 C   0  0  0  0  0  2  0  0  0  0  0  0
  180.8320  178.5810  143.3000 C   0  0  0  0  0  2  0  0  0  0  0  0
  181.1970  179.3780  140.8840 C   0  0  0  0  0  2  0  0  0  0  0  0
  183.1460  178.5710  142.2780 C   0  0  0  0  0  2  0  0  0  0  0  0
  191.6910  177.4750  141.6140 C   0  0  0  0  0  2  0  0  0  0  0  0
  190.4060  175.9950  138.3680 C   0  0  0  0  0  3  0  0  0  0  0  0
  191.5360  176.1010  137.5510 C   0  0  0  0  0  0  0  0  0  0  0  0
  192.7560  177.1270  139.3750 C   0  0  0  0  0  3  0  0  0  0  0  0
  190.4500  176.4530  139.6890 C   0  0  0  0  0  3  0  0  0  0  0  0
  191.6250  177.0250  140.1920 C   0  0  0  0  0  0  0  0  0  0  0  0
  192.7110  176.6680  138.0550 C   0  0  0  0  0  3  0  0  0  0  0  0
  191.4540  175.2490  135.1050 N   0  0  0  0  0  0  0  0  0  0  0  0
  191.4900  175.6300  136.1970 C   0  0  0  0  0  0  0  0  0  0  0  0
  1  6  1  0  0  0  0
  2 11  1  0  0  0  0
  2 12  1  0  0  0  0
  3 11  1  0  0  0  0
  4  8  2  0  0  0  0
  5  1  2  0  0  0  0
  7  9  1  0  0  0  0
  7  4  1  0  0  0  0
  8  1  1  0  0  0  0
  9  5  1  0  0  0  0
 10  3  1  0  0  0  0
 11  7  2  0  0  0  0
 12 15  2  0  0  0  0
 13  2  2  0  0  0  0
 14 10  2  0  0  0  0
 14 13  1  0  0  0  0
 15  4  1  0  0  0  0
 16 18  2  0  0  0  0
 16 10  1  0  0  0  0
 17 16  1  0  0  0  0
 19 20  2  0  0  0  0
 20 21  2  0  0  0  0
 20 17  1  0  0  0  0
 22 20  1  6  0  0  0
 22 25  1  0  0  0  0
 23 25  1  0  0  0  0
 24 22  1  0  0  0  0
 25 26  1  1  0  0  0
 25 28  1  0  0  0  0
 27 24  1  0  0  0  0
 27 23  1  0  0  0  0
 28 29  1  0  0  0  0
 29 34  1  0  0  0  0
 31 32  1  0  0  0  0
 32 30  1  0  0  0  0
 33 29  1  0  0  0  0
 33 31  1  0  0  0  0
 34 30  1  0  0  0  0
 35 13  1  0  0  0  0
 36 39  1  0  0  0  0
 37 41  1  0  0  0  0
 37 36  2  0  0  0  0
 38 40  1  0  0  0  0
 39 40  2  0  0  0  0
 40 35  1  0  0  0  0
 41 38  2  0  0  0  0
 42 43  3  0  0  0  0
 43 37  1  0  0  0  0
M  END
>  <MODEL>
6

>  <REMARK>
 VINA RESULT:      -9.0      2.639      5.745
  Name = 
  8 active torsions:
  status: ('A' for Active; 'I' for Inactive)
    1  A    between atoms: C_1  and  C_34
    2  A    between atoms: C_1  and  C_35
    3  A    between atoms: C_2  and  C_27
    4  A    between atoms: C_4  and  S_12
    5  A    between atoms: N_6  and  S_12
    6  A    between atoms: C_11  and  O_14
    7  A    between atoms: O_14  and  C_22
    8  A    between atoms: C_19  and  C_37
                            x       y       z     vdW  Elec       q    Type
                         _______ _______ _______ _____ _____    ______ ____

>  <TORSDO>
F 8

$$$$
=
 OpenBabel10262422353D

 43 48  0  0  1  0  0  0  0  0999 V2000
  188.9910  177.3540  146.9490 C   0  0  0  0  0  0  0  0  0  0  0  0
  188.1230  178.1770  142.0440 C   0  0  0  0  0  0  0  0  0  0  0  0
  185.8830  178.1720  142.9810 O   0  0  0  0  0  0  0  0  0  0  0  0
  189.2170  177.7190  144.5380 C   0  0  0  0  0  0  0  0  0  0  0  0
  187.6600  177.4390  146.9060 C   0  0  0  0  0  3  0  0  0  0  0  0
  189.6110  177.1320  148.1320 F   0  0  0  0  0  0  0  0  0  0  0  0
  187.8170  177.8190  144.4190 C   0  0  0  0  0  0  0  0  0  0  0  0
  189.7910  177.5010  145.7230 C   0  0  0  0  0  3  0  0  0  0  0  0
  186.9130  177.6850  145.6220 C   0  0  0  0  0  3  0  0  0  0  0  0
  185.3280  178.4150  141.7160 C   0  0  0  0  0  0  0  0  0  0  0  0
  187.2690  178.0540  143.1550 C   0  0  0  0  0  0  0  0  0  0  0  0
  189.4670  178.0690  142.2260 N   0  0  0  0  0  2  0  0  0  0  0  0
  187.6000  178.4000  140.8230 C   0  0  0  0  0  0  0  0  0  0  0  0
  186.1360  178.5270  140.6550 C   0  0  0  0  0  3  0  0  0  0  0  0
  189.9950  177.8480  143.4320 N   0  0  0  0  0  0  0  0  0  0  0  0
  183.8730  178.5530  141.5760 C   0  0  0  0  0  0  0  0  0  0  0  0
  183.2870  178.5050  140.2740 N   0  0  0  0  0  2  0  0  0  0  0  0
  183.1420  178.7030  142.5950 O   0  0  0  0  0  0  0  0  0  0  0  0
  181.0440  179.8540  140.6600 O   0  0  0  0  0  0  0  0  0  0  0  0
  181.5780  178.6040  140.0170 S   0  0  0  0  0  0  0  0  0  0  0  0
  180.9140  177.3990  140.6230 O   0  0  0  0  0  0  0  0  0  0  0  0
  181.2530  178.6330  138.2500 C   0  0  2  0  0  3  0  0  0  0  0  0
  179.5920  177.0750  137.5540 C   0  0  0  0  0  2  0  0  0  0  0  0
  179.9030  179.2590  138.0060 C   0  0  0  0  0  2  0  0  0  0  0  0
  181.1050  177.2660  137.6150 C   0  0  1  0  0  0  0  0  0  0  0  0
  181.6770  177.3480  136.1990 C   0  0  0  0  0  1  0  0  0  0  0  0
  178.9380  178.2420  137.9930 O   0  0  0  0  0  0  0  0  0  0  0  0
  181.7570  176.2630  138.3800 O   0  0  0  0  0  0  0  0  0  0  0  0
  182.3700  175.3240  137.5300 C   0  0  0  0  0  3  0  0  0  0  0  0
  184.3850  173.7310  137.5820 C   0  0  0  0  0  2  0  0  0  0  0  0
  182.1880  172.9790  136.5910 C   0  0  0  0  0  2  0  0  0  0  0  0
  183.6910  173.1710  136.3440 C   0  0  0  0  0  2  0  0  0  0  0  0
  181.5880  174.0120  137.5570 C   0  0  0  0  0  2  0  0  0  0  0  0
  183.8290  175.1110  137.9600 C   0  0  0  0  0  2  0  0  0  0  0  0
  188.4770  178.5730  139.6210 C   0  0  0  0  0  2  0  0  0  0  0  0
  188.5530  175.5350  137.3550 C   0  0  0  0  0  3  0  0  0  0  0  0
  187.4750  175.8000  136.5040 C   0  0  0  0  0  0  0  0  0  0  0  0
  187.0370  177.8580  137.7030 C   0  0  0  0  0  3  0  0  0  0  0  0
  188.8740  176.4310  138.3790 C   0  0  0  0  0  3  0  0  0  0  0  0
  188.1110  177.5920  138.5580 C   0  0  0  0  0  0  0  0  0  0  0  0
  186.7170  176.9620  136.6790 C   0  0  0  0  0  3  0  0  0  0  0  0
  186.8840  174.1380  134.6040 N   0  0  0  0  0  0  0  0  0  0  0  0
  187.1470  174.8800  135.4520 C   0  0  0  0  0  0  0  0  0  0  0  0
  1  6  1  0  0  0  0
  2 12  1  0  0  0  0
  2 11  1  0  0  0  0
  3 11  1  0  0  0  0
  4  8  1  0  0  0  0
  5  1  1  0  0  0  0
  7  4  1  0  0  0  0
  7  9  1  0  0  0  0
  8  1  2  0  0  0  0
  9  5  2  0  0  0  0
 10  3  1  0  0  0  0
 11  7  2  0  0  0  0
 12 15  1  0  0  0  0
 13  2  2  0  0  0  0
 14 13  1  0  0  0  0
 14 10  2  0  0  0  0
 15  4  2  0  0  0  0
 16 10  1  0  0  0  0
 16 18  2  0  0  0  0
 17 16  1  0  0  0  0
 20 17  1  0  0  0  0
 20 21  2  0  0  0  0
 20 19  2  0  0  0  0
 22 20  1  1  0  0  0
 23 25  1  0  0  0  0
 23 27  1  0  0  0  0
 24 22  1  0  0  0  0
 25 26  1  6  0  0  0
 25 22  1  0  0  0  0
 25 28  1  0  0  0  0
 27 24  1  0  0  0  0
 29 33  1  0  0  0  0
 29 34  1  0  0  0  0
 29 28  1  0  0  0  0
 30 34  1  0  0  0  0
 31 33  1  0  0  0  0
 32 31  1  0  0  0  0
 32 30  1  0  0  0  0
 35 13  1  0  0  0  0
 36 39  1  0  0  0  0
 37 41  1  0  0  0  0
 37 36  2  0  0  0  0
 38 40  1  0  0  0  0
 39 40  2  0  0  0  0
 40 35  1  0  0  0  0
 41 38  2  0  0  0  0
 42 43  3  0  0  0  0
 43 37  1  0  0  0  0
M  END
>  <MODEL>
7

>  <REMARK>
 VINA RESULT:      -9.0      2.958      5.390
  Name = 
  8 active torsions:
  status: ('A' for Active; 'I' for Inactive)
    1  A    between atoms: C_1  and  C_34
    2  A    between atoms: C_1  and  C_35
    3  A    between atoms: C_2  and  C_27
    4  A    between atoms: C_4  and  S_12
    5  A    between atoms: N_6  and  S_12
    6  A    between atoms: C_11  and  O_14
    7  A    between atoms: O_14  and  C_22
    8  A    between atoms: C_19  and  C_37
                            x       y       z     vdW  Elec       q    Type
                         _______ _______ _______ _____ _____    ______ ____

>  <TORSDO>
F 8

$$$$
=
 OpenBabel10262422353D

 43 48  0  0  1  0  0  0  0  0999 V2000
  190.7400  176.7640  146.7000 C   0  0  0  0  0  0  0  0  0  0  0  0
  188.8490  178.0070  142.1880 C   0  0  0  0  0  0  0  0  0  0  0  0
  186.8600  177.8740  143.5730 O   0  0  0  0  0  0  0  0  0  0  0  0
  190.4490  177.3490  144.3400 C   0  0  0  0  0  0  0  0  0  0  0  0
  189.4310  176.8260  146.9480 C   0  0  0  0  0  3  0  0  0  0  0  0
  191.5980  176.4480  147.7000 F   0  0  0  0  0  0  0  0  0  0  0  0
  189.0560  177.4320  144.5300 C   0  0  0  0  0  0  0  0  0  0  0  0
  191.2620  177.0360  145.3520 C   0  0  0  0  0  3  0  0  0  0  0  0
  188.4280  177.1710  145.8800 C   0  0  0  0  0  3  0  0  0  0  0  0
  186.0490  178.2190  142.4820 C   0  0  0  0  0  0  0  0  0  0  0  0
  188.2520  177.7680  143.4380 C   0  0  0  0  0  0  0  0  0  0  0  0
  190.2020  177.9110  142.0700 N   0  0  0  0  0  2  0  0  0  0  0  0
  188.0790  178.3300  141.1310 C   0  0  0  0  0  0  0  0  0  0  0  0
  186.6130  178.4410  141.2890 C   0  0  0  0  0  3  0  0  0  0  0  0
  190.9740  177.5930  143.1110 N   0  0  0  0  0  0  0  0  0  0  0  0
  184.5970  178.3390  142.6660 C   0  0  0  0  0  0  0  0  0  0  0  0
  183.7590  178.5310  141.5240 N   0  0  0  0  0  2  0  0  0  0  0  0
  184.0890  178.2660  143.8190 O   0  0  0  0  0  0  0  0  0  0  0  0
  181.6480  179.0530  143.0300 O   0  0  0  0  0  0  0  0  0  0  0  0
  182.0350  178.6290  141.6400 S   0  0  0  0  0  0  0  0  0  0  0  0
  181.4400  177.2830  141.3350 O   0  0  0  0  0  0  0  0  0  0  0  0
  181.4370  179.8260  140.4410 C   0  0  2  0  0  3  0  0  0  0  0  0
  180.3100  178.8460  138.5860 C   0  0  0  0  0  2  0  0  0  0  0  0
  179.9340  179.9100  140.5350 C   0  0  0  0  0  2  0  0  0  0  0  0
  181.6580  179.4340  138.9950 C   0  0  1  0  0  0  0  0  0  0  0  0
  181.9300  180.7130  138.2040 C   0  0  0  0  0  1  0  0  0  0  0  0
  179.3810  178.9880  139.6350 O   0  0  0  0  0  0  0  0  0  0  0  0
  182.7260  178.5070  138.8640 O   0  0  0  0  0  0  0  0  0  0  0  0
  182.3530  177.4540  138.0100 C   0  0  0  0  0  3  0  0  0  0  0  0
  182.9950  176.5600  135.6880 C   0  0  0  0  0  2  0  0  0  0  0  0
  182.5820  174.9640  137.6010 C   0  0  0  0  0  2  0  0  0  0  0  0
  182.1840  175.3600  136.1720 C   0  0  0  0  0  2  0  0  0  0  0  0
  183.0140  176.1550  138.4700 C   0  0  0  0  0  2  0  0  0  0  0  0
  182.7450  177.7950  136.5650 C   0  0  0  0  0  2  0  0  0  0  0  0
  188.6810  178.6280  139.7910 C   0  0  0  0  0  2  0  0  0  0  0  0
  186.3140  177.1930  137.2000 C   0  0  0  0  0  3  0  0  0  0  0  0
  186.9750  176.0120  136.8480 C   0  0  0  0  0  0  0  0  0  0  0  0
  188.7590  176.5510  138.3950 C   0  0  0  0  0  3  0  0  0  0  0  0
  186.8740  178.0530  138.1490 C   0  0  0  0  0  3  0  0  0  0  0  0
  188.1010  177.7350  138.7450 C   0  0  0  0  0  0  0  0  0  0  0  0
  188.1990  175.6920  137.4460 C   0  0  0  0  0  3  0  0  0  0  0  0
  185.9350  174.4170  135.0890 N   0  0  0  0  0  0  0  0  0  0  0  0
  186.4000  175.1290  135.8740 C   0  0  0  0  0  0  0  0  0  0  0  0
  1  5  1  0  0  0  0
  1  6  1  0  0  0  0
  2 11  1  0  0  0  0
  4  7  1  0  0  0  0
  4  8  1  0  0  0  0
  7  9  1  0  0  0  0
  8  1  2  0  0  0  0
  9  5  2  0  0  0  0
 10 16  1  0  0  0  0
 10  3  1  0  0  0  0
 11  3  1  0  0  0  0
 11  7  2  0  0  0  0
 12  2  1  0  0  0  0
 12 15  1  0  0  0  0
 13 14  1  0  0  0  0
 13  2  2  0  0  0  0
 14 10  2  0  0  0  0
 15  4  2  0  0  0  0
 16 18  2  0  0  0  0
 17 20  1  0  0  0  0
 17 16  1  0  0  0  0
 20 19  2  0  0  0  0
 21 20  2  0  0  0  0
 22 24  1  0  0  0  0
 22 20  1  1  0  0  0
 23 25  1  0  0  0  0
 23 27  1  0  0  0  0
 25 26  1  6  0  0  0
 25 22  1  0  0  0  0
 27 24  1  0  0  0  0
 28 25  1  0  0  0  0
 29 33  1  0  0  0  0
 29 28  1  0  0  0  0
 30 32  1  0  0  0  0
 30 34  1  0  0  0  0
 31 33  1  0  0  0  0
 32 31  1  0  0  0  0
 34 29  1  0  0  0  0
 35 13  1  0  0  0  0
 36 39  1  0  0  0  0
 37 36  2  0  0  0  0
 37 41  1  0  0  0  0
 38 40  1  0  0  0  0
 39 40  2  0  0  0  0
 40 35  1  0  0  0  0
 41 38  2  0  0  0  0
 42 43  3  0  0  0  0
 43 37  1  0  0  0  0
M  END
>  <MODEL>
8

>  <REMARK>
 VINA RESULT:      -8.9      2.959      5.317
  Name = 
  8 active torsions:
  status: ('A' for Active; 'I' for Inactive)
    1  A    between atoms: C_1  and  C_34
    2  A    between atoms: C_1  and  C_35
    3  A    between atoms: C_2  and  C_27
    4  A    between atoms: C_4  and  S_12
    5  A    between atoms: N_6  and  S_12
    6  A    between atoms: C_11  and  O_14
    7  A    between atoms: O_14  and  C_22
    8  A    between atoms: C_19  and  C_37
                            x       y       z     vdW  Elec       q    Type
                         _______ _______ _______ _____ _____    ______ ____

>  <TORSDO>
F 8

$$$$
=
 OpenBabel10262422353D

 43 48  0  0  1  0  0  0  0  0999 V2000
  190.5710  177.0370  145.7780 C   0  0  0  0  0  0  0  0  0  0  0  0
  189.8070  177.7310  140.8370 C   0  0  0  0  0  0  0  0  0  0  0  0
  187.5820  178.0360  141.7610 O   0  0  0  0  0  0  0  0  0  0  0  0
  190.8390  177.2600  143.3540 C   0  0  0  0  0  0  0  0  0  0  0  0
  189.2600  177.2770  145.7250 C   0  0  0  0  0  3  0  0  0  0  0  0
  191.1610  176.7960  146.9740 F   0  0  0  0  0  0  0  0  0  0  0  0
  189.4610  177.5220  143.2240 C   0  0  0  0  0  0  0  0  0  0  0  0
  191.3840  177.0300  144.5510 C   0  0  0  0  0  3  0  0  0  0  0  0
  188.5470  177.5510  144.4270 C   0  0  0  0  0  3  0  0  0  0  0  0
  187.0610  178.2860  140.4830 C   0  0  0  0  0  0  0  0  0  0  0  0
  188.9450  177.7620  141.9470 C   0  0  0  0  0  0  0  0  0  0  0  0
  191.1290  177.4720  141.0300 N   0  0  0  0  0  2  0  0  0  0  0  0
  189.3150  177.9590  139.6040 C   0  0  0  0  0  0  0  0  0  0  0  0
  187.8760  178.2510  139.4220 C   0  0  0  0  0  3  0  0  0  0  0  0
  191.6260  177.2450  142.2470 N   0  0  0  0  0  0  0  0  0  0  0  0
  185.6320  178.5890  140.3290 C   0  0  0  0  0  0  0  0  0  0  0  0
  185.0000  178.3630  139.0680 N   0  0  0  0  0  2  0  0  0  0  0  0
  184.9640  179.0380  141.3020 O   0  0  0  0  0  0  0  0  0  0  0  0
  182.9890  180.0820  139.0930 O   0  0  0  0  0  0  0  0  0  0  0  0
  183.3110  178.6410  138.8100 S   0  0  0  0  0  0  0  0  0  0  0  0
  182.5160  177.7530  139.7270 O   0  0  0  0  0  0  0  0  0  0  0  0
  182.9080  178.2440  137.1040 C   0  0  2  0  0  3  0  0  0  0  0  0
  181.4970  176.3400  136.8700 C   0  0  0  0  0  2  0  0  0  0  0  0
  181.4630  178.5910  136.8450 C   0  0  0  0  0  2  0  0  0  0  0  0
  182.9600  176.7660  136.7730 C   0  0  1  0  0  0  0  0  0  0  0  0
  183.4460  176.6320  135.3300 C   0  0  0  0  0  1  0  0  0  0  0  0
  180.6790  177.4600  137.1140 O   0  0  0  0  0  0  0  0  0  0  0  0
  183.8010  176.0600  137.6720 O   0  0  0  0  0  0  0  0  0  0  0  0
  184.3590  174.9370  137.0350 C   0  0  0  0  0  3  0  0  0  0  0  0
  186.5350  173.5740  137.1270 C   0  0  0  0  0  2  0  0  0  0  0  0
  184.3060  172.4070  136.9170 C   0  0  0  0  0  2  0  0  0  0  0  0
  185.6980  172.6010  136.3010 C   0  0  0  0  0  2  0  0  0  0  0  0
  183.7700  173.6580  137.6290 C   0  0  0  0  0  2  0  0  0  0  0  0
  185.8880  174.9650  137.1800 C   0  0  0  0  0  2  0  0  0  0  0  0
  190.2060  177.9700  138.4000 C   0  0  0  0  0  2  0  0  0  0  0  0
  190.5300  174.3410  137.3500 C   0  0  0  0  0  3  0  0  0  0  0  0
  189.8580  174.3490  136.1240 C   0  0  0  0  0  0  0  0  0  0  0  0
  189.3910  176.7100  136.3960 C   0  0  0  0  0  3  0  0  0  0  0  0
  190.6340  175.5170  138.0990 C   0  0  0  0  0  3  0  0  0  0  0  0
  190.0590  176.7030  137.6250 C   0  0  0  0  0  0  0  0  0  0  0  0
  189.2880  175.5340  135.6470 C   0  0  0  0  0  3  0  0  0  0  0  0
  189.6690  172.1680  134.7340 N   0  0  0  0  0  0  0  0  0  0  0  0
  189.7530  173.1420  135.3540 C   0  0  0  0  0  0  0  0  0  0  0  0
  1  6  1  0  0  0  0
  2 12  1  0  0  0  0
  2 11  1  0  0  0  0
  3 11  1  0  0  0  0
  4  8  1  0  0  0  0
  5  1  1  0  0  0  0
  7  4  1  0  0  0  0
  7  9  1  0  0  0  0
  8  1  2  0  0  0  0
  9  5  2  0  0  0  0
 10  3  1  0  0  0  0
 11  7  2  0  0  0  0
 12 15  1  0  0  0  0
 13  2  2  0  0  0  0
 14 13  1  0  0  0  0
 14 10  2  0  0  0  0
 15  4  2  0  0  0  0
 16 10  1  0  0  0  0
 16 18  2  0  0  0  0
 17 16  1  0  0  0  0
 20 17  1  0  0  0  0
 20 19  2  0  0  0  0
 20 21  2  0  0  0  0
 22 20  1  1  0  0  0
 23 27  1  0  0  0  0
 24 22  1  0  0  0  0
 24 27  1  0  0  0  0
 25 26  1  6  0  0  0
 25 23  1  0  0  0  0
 25 22  1  0  0  0  0
 25 28  1  0  0  0  0
 29 34  1  0  0  0  0
 29 33  1  0  0  0  0
 29 28  1  0  0  0  0
 30 34  1  0  0  0  0
 31 33  1  0  0  0  0
 32 31  1  0  0  0  0
 32 30  1  0  0  0  0
 35 13  1  0  0  0  0
 36 39  1  0  0  0  0
 37 36  2  0  0  0  0
 38 40  1  0  0  0  0
 40 39  2  0  0  0  0
 40 35  1  0  0  0  0
 41 37  1  0  0  0  0
 41 38  2  0  0  0  0
 42 43  3  0  0  0  0
 43 37  1  0  0  0  0
M  END
>  <MODEL>
9

>  <REMARK>
 VINA RESULT:      -8.9      2.780      5.711
  Name = 
  8 active torsions:
  status: ('A' for Active; 'I' for Inactive)
    1  A    between atoms: C_1  and  C_34
    2  A    between atoms: C_1  and  C_35
    3  A    between atoms: C_2  and  C_27
    4  A    between atoms: C_4  and  S_12
    5  A    between atoms: N_6  and  S_12
    6  A    between atoms: C_11  and  O_14
    7  A    between atoms: O_14  and  C_22
    8  A    between atoms: C_19  and  C_37
                            x       y       z     vdW  Elec       q    Type
                         _______ _______ _______ _____ _____    ______ ____

>  <TORSDO>
F 8

$$$$
