=
 OpenBabel10262421503D

 30 33  0  0  1  0  0  0  0  0999 V2000
  184.2890  178.4620  141.6750 C   0  0  1  0  0  3  0  0  0  0  0  0
  185.5810  179.0300  142.2420 C   0  0  1  0  0  3  0  0  0  0  0  0
  185.3830  179.2740  143.6630 N   0  0  0  0  0  2  0  0  0  0  0  0
  183.2620  178.6240  142.7680 C   0  0  0  0  0  2  0  0  0  0  0  0
  183.9490  179.4430  143.8360 C   0  0  0  0  0  2  0  0  0  0  0  0
  184.9140  179.6770  139.6620 O   0  0  0  0  0  1  0  0  0  0  0  0
  183.8330  179.1900  140.4060 C   0  0  1  0  0  3  0  0  0  0  0  0
  182.8870  178.3410  139.5450 C   0  0  1  0  0  3  0  0  0  0  0  0
  181.1700  178.8540  136.1430 C   0  0  0  0  0  1  0  0  0  0  0  0
  181.8680  180.8120  138.7140 S   0  0  0  0  0  0  0  0  0  0  0  0
  182.3960  179.1200  138.2960 C   0  0  2  0  0  3  0  0  0  0  0  0
  179.6590  178.7860  138.4230 S   0  0  0  0  0  0  0  0  0  0  0  0
  181.2400  178.4270  137.5960 C   0  0  1  0  0  3  0  0  0  0  0  0
  180.3170  179.9640  140.8070 C   0  0  0  0  0  1  0  0  0  0  0  0
  180.2450  180.2590  139.3210 C   0  0  1  0  0  3  0  0  0  0  0  0
  183.9240  176.8660  137.8960 C   0  0  0  0  0  1  0  0  0  0  0  0
  183.4670  177.0100  139.2740 N   0  0  0  0  0  0  0  0  0  0  0  0
  182.4620  175.9920  139.5280 C   0  0  0  0  0  1  0  0  0  0  0  0
  186.7140  178.0410  142.0360 C   0  0  0  0  0  2  0  0  0  0  0  0
  187.3300  177.6650  143.3700 C   0  0  1  0  0  3  0  0  0  0  0  0
  186.8180  176.4400  143.8010 O   0  0  0  0  0  1  0  0  0  0  0  0
  188.8360  177.5710  143.2160 C   0  0  0  0  0  2  0  0  0  0  0  0
  191.2360  176.5890  146.7450 C   0  0  0  0  0  0  0  0  0  0  0  0
  189.9410  176.8510  147.3780 C   0  0  0  0  0  3  0  0  0  0  0  0
  192.4230  175.6660  147.6400 Cl  0  0  0  0  0  0  0  0  0  0  0  0
  189.5340  178.4580  144.2320 C   0  0  1  0  0  3  0  0  0  0  0  0
  188.8660  177.5860  146.7670 C   0  0  0  0  0  3  0  0  0  0  0  0
  191.5850  177.0430  145.4240 C   0  0  0  0  0  3  0  0  0  0  0  0
  189.2530  177.9880  145.5260 C   0  0  0  0  0  0  0  0  0  0  0  0
  190.5400  177.7320  144.8900 C   0  0  0  0  0  0  0  0  0  0  0  0
  1  7  1  6  0  0  0
  1  2  1  0  0  0  0
  1  4  1  0  0  0  0
  2 19  1  1  0  0  0
  2  3  1  0  0  0  0
  3  5  1  0  0  0  0
  4  5  1  0  0  0  0
  7  6  1  6  0  0  0
  8 17  1  6  0  0  0
  8  7  1  0  0  0  0
 10 15  1  0  0  0  0
 11 10  1  0  0  0  0
 11  8  1  1  0  0  0
 12 15  1  0  0  0  0
 13  9  1  6  0  0  0
 13 11  1  0  0  0  0
 13 12  1  0  0  0  0
 15 14  1  1  0  0  0
 16 17  1  0  0  0  0
 17 18  1  0  0  0  0
 19 20  1  0  0  0  0
 20 21  1  6  0  0  0
 22 20  1  0  0  0  0
 23 24  1  0  0  0  0
 23 25  1  0  0  0  0
 26 22  1  6  0  0  0
 26 30  1  0  0  0  0
 26 29  1  0  0  0  0
 27 24  2  0  0  0  0
 28 23  2  0  0  0  0
 29 27  1  0  0  0  0
 30 28  1  0  0  0  0
 30 29  2  0  0  0  0
M  END
>  <MODEL>
1

>  <REMARK>
 VINA RESULT:      -7.3      0.000      0.000
  Name = 
  8 active torsions:
  status: ('A' for Active; 'I' for Inactive)
    1  A    between atoms: C_3  and  C_11
    2  A    between atoms: C_3  and  C_19
    3  A    between atoms: N_4  and  C_13
    4  A    between atoms: C_7  and  C_30
    5  A    between atoms: C_8  and  C_13
    6  A    between atoms: C_10  and  C_25
    7  A    between atoms: C_11  and  C_25
    8  A    between atoms: C_13  and  C_30
                            x       y       z     vdW  Elec       q    Type
                         _______ _______ _______ _____ _____    ______ ____

>  <TORSDO>
F 8

$$$$
=
 OpenBabel10262421503D

 30 33  0  0  1  0  0  0  0  0999 V2000
  181.7720  178.3110  141.0690 C   0  0  1  0  0  3  0  0  0  0  0  0
  183.0050  178.8360  141.7880 C   0  0  1  0  0  3  0  0  0  0  0  0
  182.6380  179.1180  143.1680 N   0  0  0  0  0  2  0  0  0  0  0  0
  180.6220  178.5400  142.0180 C   0  0  0  0  0  2  0  0  0  0  0  0
  181.2020  179.3510  143.1530 C   0  0  0  0  0  2  0  0  0  0  0  0
  182.5470  179.9180  139.4140 O   0  0  0  0  0  1  0  0  0  0  0  0
  181.5150  179.0300  139.7400 C   0  0  1  0  0  3  0  0  0  0  0  0
  181.2150  178.0590  138.5900 C   0  0  1  0  0  3  0  0  0  0  0  0
  179.8690  174.5300  139.3120 C   0  0  0  0  0  1  0  0  0  0  0  0
  182.8580  175.7940  138.6800 S   0  0  0  0  0  0  0  0  0  0  0  0
  181.2620  176.5810  139.0630 C   0  0  2  0  0  3  0  0  0  0  0  0
  180.6120  175.1980  136.7640 S   0  0  0  0  0  0  0  0  0  0  0  0
  180.1610  175.7380  138.4440 C   0  0  1  0  0  3  0  0  0  0  0  0
  182.8250  176.6610  136.0820 C   0  0  0  0  0  1  0  0  0  0  0  0
  182.4020  175.4900  136.9460 C   0  0  1  0  0  3  0  0  0  0  0  0
  180.2730  179.2100  136.6520 C   0  0  0  0  0  1  0  0  0  0  0  0
  179.9900  178.4540  137.8670 N   0  0  0  0  0  0  0  0  0  0  0  0
  179.1710  179.2810  138.7360 C   0  0  0  0  0  1  0  0  0  0  0  0
  184.1090  177.7960  141.7450 C   0  0  0  0  0  2  0  0  0  0  0  0
  185.4600  178.4710  141.6010 C   0  0  1  0  0  3  0  0  0  0  0  0
  185.3150  179.6810  140.9210 O   0  0  0  0  0  1  0  0  0  0  0  0
  186.0430  178.7190  142.9790 C   0  0  0  0  0  2  0  0  0  0  0  0
  187.8280  177.8240  146.8770 C   0  0  0  0  0  0  0  0  0  0  0  0
  188.9280  177.4280  145.9920 C   0  0  0  0  0  3  0  0  0  0  0  0
  188.1940  178.1460  148.5580 Cl  0  0  0  0  0  0  0  0  0  0  0  0
  186.1680  177.4160  143.7500 C   0  0  1  0  0  3  0  0  0  0  0  0
  188.7850  177.1380  144.5900 C   0  0  0  0  0  3  0  0  0  0  0  0
  186.4640  177.9680  146.4390 C   0  0  0  0  0  3  0  0  0  0  0  0
  187.4800  177.2910  144.2360 C   0  0  0  0  0  0  0  0  0  0  0  0
  186.3810  177.6830  145.1120 C   0  0  0  0  0  0  0  0  0  0  0  0
  1  7  1  6  0  0  0
  1  2  1  0  0  0  0
  1  4  1  0  0  0  0
  2 19  1  1  0  0  0
  2  3  1  0  0  0  0
  4  5  1  0  0  0  0
  5  3  1  0  0  0  0
  7  6  1  6  0  0  0
  8 17  1  1  0  0  0
  8  7  1  0  0  0  0
 10 11  1  0  0  0  0
 11  8  1  6  0  0  0
 12 15  1  0  0  0  0
 12 13  1  0  0  0  0
 13 11  1  0  0  0  0
 13  9  1  1  0  0  0
 15 14  1  6  0  0  0
 15 10  1  0  0  0  0
 16 17  1  0  0  0  0
 17 18  1  0  0  0  0
 20 21  1  1  0  0  0
 20 19  1  0  0  0  0
 20 22  1  0  0  0  0
 23 25  1  0  0  0  0
 24 23  2  0  0  0  0
 26 22  1  6  0  0  0
 26 29  1  0  0  0  0
 26 30  1  0  0  0  0
 27 24  1  0  0  0  0
 28 23  1  0  0  0  0
 29 27  2  0  0  0  0
 29 30  1  0  0  0  0
 30 28  2  0  0  0  0
M  END
>  <MODEL>
2

>  <REMARK>
 VINA RESULT:      -7.1      2.408      3.779
  Name = 
  8 active torsions:
  status: ('A' for Active; 'I' for Inactive)
    1  A    between atoms: C_3  and  C_11
    2  A    between atoms: C_3  and  C_19
    3  A    between atoms: N_4  and  C_13
    4  A    between atoms: C_7  and  C_30
    5  A    between atoms: C_8  and  C_13
    6  A    between atoms: C_10  and  C_25
    7  A    between atoms: C_11  and  C_25
    8  A    between atoms: C_13  and  C_30
                            x       y       z     vdW  Elec       q    Type
                         _______ _______ _______ _____ _____    ______ ____

>  <TORSDO>
F 8

$$$$
=
 OpenBabel10262421503D

 30 33  0  0  1  0  0  0  0  0999 V2000
  186.6600  178.2830  137.7790 C   0  0  1  0  0  3  0  0  0  0  0  0
  187.7840  177.9890  138.7600 C   0  0  1  0  0  3  0  0  0  0  0  0
  188.9650  178.7240  138.3290 N   0  0  0  0  0  2  0  0  0  0  0  0
  187.3080  179.0130  136.6280 C   0  0  0  0  0  2  0  0  0  0  0  0
  188.7920  178.9420  136.9010 C   0  0  0  0  0  2  0  0  0  0  0  0
  186.6110  175.8510  137.7270 O   0  0  0  0  0  1  0  0  0  0  0  0
  185.9680  177.0110  137.2790 C   0  0  1  0  0  3  0  0  0  0  0  0
  184.4670  176.9890  137.6000 C   0  0  1  0  0  3  0  0  0  0  0  0
  182.7530  180.2990  138.5460 C   0  0  0  0  0  1  0  0  0  0  0  0
  183.7900  177.6510  140.2340 S   0  0  0  0  0  0  0  0  0  0  0  0
  184.0600  178.1770  138.5120 C   0  0  2  0  0  3  0  0  0  0  0  0
  181.3070  177.9760  138.5600 S   0  0  0  0  0  0  0  0  0  0  0  0
  182.7990  178.8740  138.0300 C   0  0  1  0  0  3  0  0  0  0  0  0
  182.1880  175.5560  139.4940 C   0  0  0  0  0  1  0  0  0  0  0  0
  182.1210  177.0200  139.8810 C   0  0  1  0  0  3  0  0  0  0  0  0
  183.1350  175.4790  136.2150 C   0  0  0  0  0  1  0  0  0  0  0  0
  183.6640  176.8300  136.3710 N   0  0  0  0  0  0  0  0  0  0  0  0
  184.4950  177.1290  135.2180 C   0  0  0  0  0  1  0  0  0  0  0  0
  187.3800  178.4270  140.1560 C   0  0  0  0  0  2  0  0  0  0  0  0
  188.0910  177.5840  141.1960 C   0  0  1  0  0  3  0  0  0  0  0  0
  189.4670  177.8090  141.1290 O   0  0  0  0  0  1  0  0  0  0  0  0
  187.5740  177.9510  142.5750 C   0  0  0  0  0  2  0  0  0  0  0  0
  188.1850  177.7110  146.9050 C   0  0  0  0  0  0  0  0  0  0  0  0
  189.5520  177.4610  146.4360 C   0  0  0  0  0  3  0  0  0  0  0  0
  187.9600  178.2250  148.5620 Cl  0  0  0  0  0  0  0  0  0  0  0  0
  187.6560  176.7570  143.5110 C   0  0  1  0  0  3  0  0  0  0  0  0
  189.8950  177.0420  145.1030 C   0  0  0  0  0  3  0  0  0  0  0  0
  187.0180  177.5630  146.0750 C   0  0  0  0  0  3  0  0  0  0  0  0
  188.7560  176.9190  144.3690 C   0  0  0  0  0  0  0  0  0  0  0  0
  187.3940  177.1650  144.8290 C   0  0  0  0  0  0  0  0  0  0  0  0
  1  7  1  6  0  0  0
  1  2  1  0  0  0  0
  2 19  1  1  0  0  0
  3  2  1  0  0  0  0
  4  5  1  0  0  0  0
  4  1  1  0  0  0  0
  5  3  1  0  0  0  0
  7  8  1  0  0  0  0
  7  6  1  1  0  0  0
  8 17  1  6  0  0  0
 11  8  1  6  0  0  0
 11 10  1  0  0  0  0
 12 15  1  0  0  0  0
 13 11  1  0  0  0  0
 13  9  1  1  0  0  0
 13 12  1  0  0  0  0
 15 14  1  6  0  0  0
 15 10  1  0  0  0  0
 16 17  1  0  0  0  0
 18 17  1  0  0  0  0
 19 20  1  0  0  0  0
 20 21  1  1  0  0  0
 20 22  1  0  0  0  0
 23 25  1  0  0  0  0
 24 23  1  0  0  0  0
 26 22  1  6  0  0  0
 26 29  1  0  0  0  0
 26 30  1  0  0  0  0
 27 24  2  0  0  0  0
 28 23  2  0  0  0  0
 29 30  2  0  0  0  0
 29 27  1  0  0  0  0
 30 28  1  0  0  0  0
M  END
>  <MODEL>
3

>  <REMARK>
 VINA RESULT:      -7.0      2.809      4.002
  Name = 
  8 active torsions:
  status: ('A' for Active; 'I' for Inactive)
    1  A    between atoms: C_3  and  C_11
    2  A    between atoms: C_3  and  C_19
    3  A    between atoms: N_4  and  C_13
    4  A    between atoms: C_7  and  C_30
    5  A    between atoms: C_8  and  C_13
    6  A    between atoms: C_10  and  C_25
    7  A    between atoms: C_11  and  C_25
    8  A    between atoms: C_13  and  C_30
                            x       y       z     vdW  Elec       q    Type
                         _______ _______ _______ _____ _____    ______ ____

>  <TORSDO>
F 8

$$$$
=
 OpenBabel10262421503D

 30 33  0  0  1  0  0  0  0  0999 V2000
  185.0170  178.1800  140.8640 C   0  0  1  0  0  3  0  0  0  0  0  0
  185.6790  179.2950  141.6560 C   0  0  1  0  0  3  0  0  0  0  0  0
  185.0170  179.3860  142.9500 N   0  0  0  0  0  2  0  0  0  0  0  0
  183.7850  177.8010  141.6500 C   0  0  0  0  0  2  0  0  0  0  0  0
  183.6870  178.8320  142.7500 C   0  0  0  0  0  2  0  0  0  0  0  0
  184.7950  179.9910  139.2550 O   0  0  0  0  0  1  0  0  0  0  0  0
  184.6290  178.6150  139.4460 C   0  0  1  0  0  3  0  0  0  0  0  0
  185.3450  177.7980  138.3610 C   0  0  1  0  0  3  0  0  0  0  0  0
  184.6410  177.0190  134.6620 C   0  0  0  0  0  1  0  0  0  0  0  0
  182.7640  177.7760  137.2770 S   0  0  0  0  0  0  0  0  0  0  0  0
  184.5660  177.8250  137.0190 C   0  0  2  0  0  3  0  0  0  0  0  0
  184.0580  175.1490  136.5720 S   0  0  0  0  0  0  0  0  0  0  0  0
  184.9420  176.6700  136.1060 C   0  0  1  0  0  3  0  0  0  0  0  0
  182.9260  175.6630  139.0130 C   0  0  0  0  0  1  0  0  0  0  0  0
  182.7540  175.9770  137.5400 C   0  0  1  0  0  3  0  0  0  0  0  0
  187.0840  178.9180  137.0600 C   0  0  0  0  0  1  0  0  0  0  0  0
  186.7710  178.1690  138.2730 N   0  0  0  0  0  0  0  0  0  0  0  0
  187.5780  176.9620  138.2820 C   0  0  0  0  0  1  0  0  0  0  0  0
  187.1530  178.9870  141.8470 C   0  0  0  0  0  2  0  0  0  0  0  0
  187.3630  177.4920  141.9850 C   0  0  1  0  0  3  0  0  0  0  0  0
  188.5800  177.1280  141.4050 O   0  0  0  0  0  1  0  0  0  0  0  0
  187.3590  177.1200  143.4560 C   0  0  0  0  0  2  0  0  0  0  0  0
  190.2870  176.8030  146.6980 C   0  0  0  0  0  0  0  0  0  0  0  0
  189.0580  176.9890  147.4750 C   0  0  0  0  0  3  0  0  0  0  0  0
  191.6810  176.1200  147.5050 Cl  0  0  0  0  0  0  0  0  0  0  0  0
  188.0650  178.1850  144.2780 C   0  0  1  0  0  3  0  0  0  0  0  0
  187.8320  177.5300  146.9510 C   0  0  0  0  0  3  0  0  0  0  0  0
  190.4070  177.1440  145.3040 C   0  0  0  0  0  3  0  0  0  0  0  0
  188.0080  177.8330  145.6360 C   0  0  0  0  0  0  0  0  0  0  0  0
  189.2270  177.6510  144.8570 C   0  0  0  0  0  0  0  0  0  0  0  0
  1  7  1  6  0  0  0
  1  4  1  0  0  0  0
  1  2  1  0  0  0  0
  2 19  1  1  0  0  0
  2  3  1  0  0  0  0
  4  5  1  0  0  0  0
  5  3  1  0  0  0  0
  7  6  1  6  0  0  0
  8 17  1  6  0  0  0
  8  7  1  0  0  0  0
 10 15  1  0  0  0  0
 11 10  1  0  0  0  0
 11  8  1  1  0  0  0
 12 15  1  0  0  0  0
 13  9  1  6  0  0  0
 13 12  1  0  0  0  0
 13 11  1  0  0  0  0
 15 14  1  1  0  0  0
 16 17  1  0  0  0  0
 17 18  1  0  0  0  0
 19 20  1  0  0  0  0
 20 21  1  1  0  0  0
 20 22  1  0  0  0  0
 23 24  1  0  0  0  0
 23 25  1  0  0  0  0
 26 22  1  6  0  0  0
 26 30  1  0  0  0  0
 26 29  1  0  0  0  0
 27 24  2  0  0  0  0
 28 23  2  0  0  0  0
 29 27  1  0  0  0  0
 30 28  1  0  0  0  0
 30 29  2  0  0  0  0
M  END
>  <MODEL>
4

>  <REMARK>
 VINA RESULT:      -7.0      2.141      2.872
  Name = 
  8 active torsions:
  status: ('A' for Active; 'I' for Inactive)
    1  A    between atoms: C_3  and  C_11
    2  A    between atoms: C_3  and  C_19
    3  A    between atoms: N_4  and  C_13
    4  A    between atoms: C_7  and  C_30
    5  A    between atoms: C_8  and  C_13
    6  A    between atoms: C_10  and  C_25
    7  A    between atoms: C_11  and  C_25
    8  A    between atoms: C_13  and  C_30
                            x       y       z     vdW  Elec       q    Type
                         _______ _______ _______ _____ _____    ______ ____

>  <TORSDO>
F 8

$$$$
=
 OpenBabel10262421503D

 30 33  0  0  1  0  0  0  0  0999 V2000
  185.1160  177.9320  138.7000 C   0  0  1  0  0  3  0  0  0  0  0  0
  184.9720  179.2070  139.5140 C   0  0  1  0  0  3  0  0  0  0  0  0
  183.5530  179.5150  139.6270 N   0  0  0  0  0  2  0  0  0  0  0  0
  183.7440  177.6560  138.1340 C   0  0  0  0  0  2  0  0  0  0  0  0
  182.9210  178.8730  138.4860 C   0  0  0  0  0  2  0  0  0  0  0  0
  186.3450  179.4040  137.2020 O   0  0  0  0  0  1  0  0  0  0  0  0
  186.1390  178.0690  137.5670 C   0  0  1  0  0  3  0  0  0  0  0  0
  187.4620  177.3530  137.8750 C   0  0  1  0  0  3  0  0  0  0  0  0
  190.2670  175.8230  135.7360 C   0  0  0  0  0  1  0  0  0  0  0  0
  187.0330  176.3530  135.2960 S   0  0  0  0  0  0  0  0  0  0  0  0
  188.1950  176.9240  136.5760 C   0  0  2  0  0  3  0  0  0  0  0  0
  188.3970  174.1880  136.8830 S   0  0  0  0  0  0  0  0  0  0  0  0
  189.2070  175.8170  136.8190 C   0  0  1  0  0  3  0  0  0  0  0  0
  185.7100  174.6980  137.0310 C   0  0  0  0  0  1  0  0  0  0  0  0
  186.8630  174.7060  136.0470 C   0  0  1  0  0  3  0  0  0  0  0  0
  189.4310  178.7600  138.2100 C   0  0  0  0  0  1  0  0  0  0  0  0
  188.2730  178.1290  138.8340 N   0  0  0  0  0  0  0  0  0  0  0  0
  188.7500  177.2410  139.8810 C   0  0  0  0  0  1  0  0  0  0  0  0
  185.5730  179.0090  140.8940 C   0  0  0  0  0  2  0  0  0  0  0  0
  184.4830  179.0410  141.9490 C   0  0  1  0  0  3  0  0  0  0  0  0
  183.8040  177.8210  141.9660 O   0  0  0  0  0  1  0  0  0  0  0  0
  185.1100  179.3020  143.3060 C   0  0  0  0  0  2  0  0  0  0  0  0
  187.3630  178.1670  146.8860 C   0  0  0  0  0  0  0  0  0  0  0  0
  188.1290  177.4540  145.8610 C   0  0  0  0  0  3  0  0  0  0  0  0
  188.1260  178.4660  148.4320 Cl  0  0  0  0  0  0  0  0  0  0  0  0
  185.0610  178.0520  144.1670 C   0  0  1  0  0  3  0  0  0  0  0  0
  187.6410  177.1410  144.5430 C   0  0  0  0  0  3  0  0  0  0  0  0
  186.0180  178.6420  146.6890 C   0  0  0  0  0  3  0  0  0  0  0  0
  186.3700  177.6120  144.4180 C   0  0  0  0  0  0  0  0  0  0  0  0
  185.6020  178.3220  145.4340 C   0  0  0  0  0  0  0  0  0  0  0  0
  1  7  1  6  0  0  0
  1  2  1  0  0  0  0
  2  3  1  0  0  0  0
  2 19  1  1  0  0  0
  4  5  1  0  0  0  0
  4  1  1  0  0  0  0
  5  3  1  0  0  0  0
  7  6  1  1  0  0  0
  7  8  1  0  0  0  0
  8 17  1  6  0  0  0
 10 15  1  0  0  0  0
 10 11  1  0  0  0  0
 11 13  1  0  0  0  0
 11  8  1  1  0  0  0
 13  9  1  6  0  0  0
 13 12  1  0  0  0  0
 15 12  1  0  0  0  0
 15 14  1  1  0  0  0
 16 17  1  0  0  0  0
 17 18  1  0  0  0  0
 19 20  1  0  0  0  0
 20 21  1  1  0  0  0
 20 22  1  0  0  0  0
 23 25  1  0  0  0  0
 24 23  2  0  0  0  0
 26 22  1  6  0  0  0
 26 29  1  0  0  0  0
 26 30  1  0  0  0  0
 27 24  1  0  0  0  0
 28 23  1  0  0  0  0
 29 27  2  0  0  0  0
 29 30  1  0  0  0  0
 30 28  2  0  0  0  0
M  END
>  <MODEL>
5

>  <REMARK>
 VINA RESULT:      -6.9      3.802      5.628
  Name = 
  8 active torsions:
  status: ('A' for Active; 'I' for Inactive)
    1  A    between atoms: C_3  and  C_11
    2  A    between atoms: C_3  and  C_19
    3  A    between atoms: N_4  and  C_13
    4  A    between atoms: C_7  and  C_30
    5  A    between atoms: C_8  and  C_13
    6  A    between atoms: C_10  and  C_25
    7  A    between atoms: C_11  and  C_25
    8  A    between atoms: C_13  and  C_30
                            x       y       z     vdW  Elec       q    Type
                         _______ _______ _______ _____ _____    ______ ____

>  <TORSDO>
F 8

$$$$
=
 OpenBabel10262421503D

 30 33  0  0  1  0  0  0  0  0999 V2000
  188.6910  176.7660  137.9940 C   0  0  1  0  0  3  0  0  0  0  0  0
  189.3770  177.6230  139.0450 C   0  0  1  0  0  3  0  0  0  0  0  0
  189.0580  179.0170  138.7710 N   0  0  0  0  0  2  0  0  0  0  0  0
  188.1730  177.7320  136.9570 C   0  0  0  0  0  2  0  0  0  0  0  0
  188.7420  179.0750  137.3520 C   0  0  0  0  0  2  0  0  0  0  0  0
  190.5340  175.2020  138.2750 O   0  0  0  0  0  1  0  0  0  0  0  0
  189.6430  175.7540  137.3470 C   0  0  1  0  0  3  0  0  0  0  0  0
  188.9020  174.6670  136.5550 C   0  0  1  0  0  3  0  0  0  0  0  0
  185.4980  175.6590  135.0670 C   0  0  0  0  0  1  0  0  0  0  0  0
  186.4690  173.7100  137.5550 S   0  0  0  0  0  0  0  0  0  0  0  0
  187.3710  174.9190  136.5350 C   0  0  2  0  0  3  0  0  0  0  0  0
  186.5030  173.1580  134.5940 S   0  0  0  0  0  0  0  0  0  0  0  0
  186.7930  174.8730  135.1310 C   0  0  1  0  0  3  0  0  0  0  0  0
  187.7740  171.5780  136.4350 C   0  0  0  0  0  1  0  0  0  0  0  0
  186.5320  172.4300  136.2650 C   0  0  1  0  0  3  0  0  0  0  0  0
  190.3600  173.2580  135.1910 C   0  0  0  0  0  1  0  0  0  0  0  0
  189.5260  174.4550  135.2340 N   0  0  0  0  0  0  0  0  0  0  0  0
  190.3600  175.6000  134.9120 C   0  0  0  0  0  1  0  0  0  0  0  0
  188.8830  177.2390  140.4280 C   0  0  0  0  0  2  0  0  0  0  0  0
  190.0580  176.9360  141.3390 C   0  0  1  0  0  3  0  0  0  0  0  0
  191.2190  177.5130  140.8220 O   0  0  0  0  0  1  0  0  0  0  0  0
  189.7750  177.4940  142.7210 C   0  0  0  0  0  2  0  0  0  0  0  0
  186.5870  177.9970  145.6820 C   0  0  0  0  0  0  0  0  0  0  0  0
  187.7490  177.8930  146.5680 C   0  0  0  0  0  3  0  0  0  0  0  0
  185.1220  178.7110  146.3190 Cl  0  0  0  0  0  0  0  0  0  0  0  0
  189.0180  176.4800  143.5620 C   0  0  1  0  0  3  0  0  0  0  0  0
  189.0210  177.3380  146.1870 C   0  0  0  0  0  3  0  0  0  0  0  0
  186.5850  177.5500  144.3130 C   0  0  0  0  0  3  0  0  0  0  0  0
  188.9580  176.9340  144.8890 C   0  0  0  0  0  0  0  0  0  0  0  0
  187.8050  177.0340  144.0020 C   0  0  0  0  0  0  0  0  0  0  0  0
  1  7  1  6  0  0  0
  1  2  1  0  0  0  0
  2 19  1  1  0  0  0
  3  2  1  0  0  0  0
  4  5  1  0  0  0  0
  4  1  1  0  0  0  0
  5  3  1  0  0  0  0
  7  6  1  1  0  0  0
  8 17  1  6  0  0  0
  8  7  1  0  0  0  0
 11  8  1  6  0  0  0
 11 10  1  0  0  0  0
 12 13  1  0  0  0  0
 12 15  1  0  0  0  0
 13  9  1  1  0  0  0
 13 11  1  0  0  0  0
 15 14  1  1  0  0  0
 15 10  1  0  0  0  0
 16 17  1  0  0  0  0
 18 17  1  0  0  0  0
 19 20  1  0  0  0  0
 20 21  1  6  0  0  0
 20 22  1  0  0  0  0
 23 25  1  0  0  0  0
 23 24  1  0  0  0  0
 26 22  1  6  0  0  0
 26 30  1  0  0  0  0
 26 29  1  0  0  0  0
 27 24  2  0  0  0  0
 28 23  2  0  0  0  0
 29 27  1  0  0  0  0
 30 28  1  0  0  0  0
 30 29  2  0  0  0  0
M  END
>  <MODEL>
6

>  <REMARK>
 VINA RESULT:      -6.9      5.216      6.660
  Name = 
  8 active torsions:
  status: ('A' for Active; 'I' for Inactive)
    1  A    between atoms: C_3  and  C_11
    2  A    between atoms: C_3  and  C_19
    3  A    between atoms: N_4  and  C_13
    4  A    between atoms: C_7  and  C_30
    5  A    between atoms: C_8  and  C_13
    6  A    between atoms: C_10  and  C_25
    7  A    between atoms: C_11  and  C_25
    8  A    between atoms: C_13  and  C_30
                            x       y       z     vdW  Elec       q    Type
                         _______ _______ _______ _____ _____    ______ ____

>  <TORSDO>
F 8

$$$$
=
 OpenBabel10262421503D

 30 33  0  0  1  0  0  0  0  0999 V2000
  180.7720  178.2630  141.8300 C   0  0  1  0  0  3  0  0  0  0  0  0
  181.4260  179.1380  142.8870 C   0  0  1  0  0  3  0  0  0  0  0  0
  180.4760  179.3180  143.9760 N   0  0  0  0  0  2  0  0  0  0  0  0
  179.3230  178.1530  142.2340 C   0  0  0  0  0  2  0  0  0  0  0  0
  179.1610  179.1150  143.3880 C   0  0  0  0  0  2  0  0  0  0  0  0
  180.8000  180.2520  140.4290 O   0  0  0  0  0  1  0  0  0  0  0  0
  180.8870  178.8550  140.4210 C   0  0  1  0  0  3  0  0  0  0  0  0
  182.1380  178.3680  139.6750 C   0  0  1  0  0  3  0  0  0  0  0  0
  182.9160  177.4600  136.0200 C   0  0  0  0  0  1  0  0  0  0  0  0
  180.2260  177.2920  137.9360 S   0  0  0  0  0  0  0  0  0  0  0  0
  181.8400  178.0990  138.1760 C   0  0  2  0  0  3  0  0  0  0  0  0
  182.6230  175.4700  137.8750 S   0  0  0  0  0  0  0  0  0  0  0  0
  182.9010  177.2330  137.5190 C   0  0  1  0  0  3  0  0  0  0  0  0
  180.7290  175.3990  139.8510 C   0  0  0  0  0  1  0  0  0  0  0  0
  180.8770  175.6480  138.3630 C   0  0  1  0  0  3  0  0  0  0  0  0
  183.6260  180.1020  138.8100 C   0  0  0  0  0  1  0  0  0  0  0  0
  183.2930  179.2480  139.9440 N   0  0  0  0  0  0  0  0  0  0  0  0
  184.4520  178.4300  140.2530 C   0  0  0  0  0  1  0  0  0  0  0  0
  182.6880  178.4710  143.4030 C   0  0  0  0  0  2  0  0  0  0  0  0
  183.5440  179.4770  144.1480 C   0  0  1  0  0  3  0  0  0  0  0  0
  183.4340  179.2650  145.5240 O   0  0  0  0  0  1  0  0  0  0  0  0
  184.9900  179.3190  143.7150 C   0  0  0  0  0  2  0  0  0  0  0  0
  188.3760  177.4350  145.7560 C   0  0  0  0  0  0  0  0  0  0  0  0
  188.9120  177.5250  144.3950 C   0  0  0  0  0  3  0  0  0  0  0  0
  189.5040  177.2230  147.0770 Cl  0  0  0  0  0  0  0  0  0  0  0  0
  185.4210  177.8660  143.8100 C   0  0  1  0  0  3  0  0  0  0  0  0
  188.1130  177.7060  143.2120 C   0  0  0  0  0  3  0  0  0  0  0  0
  186.9730  177.5190  146.0680 C   0  0  0  0  0  3  0  0  0  0  0  0
  186.8020  177.7770  143.5690 C   0  0  0  0  0  0  0  0  0  0  0  0
  186.2620  177.6870  144.9210 C   0  0  0  0  0  0  0  0  0  0  0  0
  1  7  1  6  0  0  0
  1  4  1  0  0  0  0
  1  2  1  0  0  0  0
  2 19  1  1  0  0  0
  2  3  1  0  0  0  0
  4  5  1  0  0  0  0
  5  3  1  0  0  0  0
  7  6  1  1  0  0  0
  8 17  1  6  0  0  0
  8  7  1  0  0  0  0
 10 11  1  0  0  0  0
 10 15  1  0  0  0  0
 11  8  1  1  0  0  0
 12 15  1  0  0  0  0
 13  9  1  6  0  0  0
 13 12  1  0  0  0  0
 13 11  1  0  0  0  0
 15 14  1  1  0  0  0
 16 17  1  0  0  0  0
 17 18  1  0  0  0  0
 19 20  1  0  0  0  0
 20 21  1  1  0  0  0
 22 20  1  0  0  0  0
 23 28  1  0  0  0  0
 23 25  1  0  0  0  0
 24 23  2  0  0  0  0
 26 22  1  1  0  0  0
 26 30  1  0  0  0  0
 27 29  2  0  0  0  0
 27 24  1  0  0  0  0
 29 26  1  0  0  0  0
 29 30  1  0  0  0  0
 30 28  2  0  0  0  0
M  END
>  <MODEL>
7

>  <REMARK>
 VINA RESULT:      -6.8      2.340      3.778
  Name = 
  8 active torsions:
  status: ('A' for Active; 'I' for Inactive)
    1  A    between atoms: C_3  and  C_11
    2  A    between atoms: C_3  and  C_19
    3  A    between atoms: N_4  and  C_13
    4  A    between atoms: C_7  and  C_30
    5  A    between atoms: C_8  and  C_13
    6  A    between atoms: C_10  and  C_25
    7  A    between atoms: C_11  and  C_25
    8  A    between atoms: C_13  and  C_30
                            x       y       z     vdW  Elec       q    Type
                         _______ _______ _______ _____ _____    ______ ____

>  <TORSDO>
F 8

$$$$
=
 OpenBabel10262421503D

 30 33  0  0  1  0  0  0  0  0999 V2000
  183.9010  177.8130  139.5160 C   0  0  1  0  0  3  0  0  0  0  0  0
  183.8920  178.5380  140.8520 C   0  0  1  0  0  3  0  0  0  0  0  0
  182.5130  178.6260  141.3110 N   0  0  0  0  0  2  0  0  0  0  0  0
  182.4530  177.7080  139.1030 C   0  0  0  0  0  2  0  0  0  0  0  0
  181.6940  178.5370  140.1120 C   0  0  0  0  0  2  0  0  0  0  0  0
  184.9690  179.8820  138.8140 O   0  0  0  0  0  1  0  0  0  0  0  0
  184.7060  178.5580  138.4460 C   0  0  1  0  0  3  0  0  0  0  0  0
  185.9880  177.8140  138.0460 C   0  0  1  0  0  3  0  0  0  0  0  0
  187.6470  176.9580  134.6840 C   0  0  0  0  0  1  0  0  0  0  0  0
  184.5300  177.0350  135.7860 S   0  0  0  0  0  0  0  0  0  0  0  0
  186.0900  177.6380  136.5070 C   0  0  2  0  0  3  0  0  0  0  0  0
  186.6510  174.9480  136.2500 S   0  0  0  0  0  0  0  0  0  0  0  0
  187.1960  176.6780  136.1040 C   0  0  1  0  0  3  0  0  0  0  0  0
  184.2870  175.0260  137.6320 C   0  0  0  0  0  1  0  0  0  0  0  0
  184.8650  175.3120  136.2600 C   0  0  1  0  0  3  0  0  0  0  0  0
  188.1400  178.9270  137.7340 C   0  0  0  0  0  1  0  0  0  0  0  0
  187.1720  178.4100  138.6950 N   0  0  0  0  0  0  0  0  0  0  0  0
  187.8310  177.3990  139.5040 C   0  0  0  0  0  1  0  0  0  0  0  0
  184.7290  177.7730  141.8610 C   0  0  0  0  0  2  0  0  0  0  0  0
  185.9350  178.5960  142.2730 C   0  0  1  0  0  3  0  0  0  0  0  0
  185.8140  179.8950  141.7780 O   0  0  0  0  0  1  0  0  0  0  0  0
  186.0250  178.6260  143.7870 C   0  0  0  0  0  2  0  0  0  0  0  0
  189.8820  177.0730  145.1650 C   0  0  0  0  0  0  0  0  0  0  0  0
  189.8660  176.5490  143.7960 C   0  0  0  0  0  3  0  0  0  0  0  0
  191.4190  177.1740  145.9940 Cl  0  0  0  0  0  0  0  0  0  0  0  0
  186.4230  177.2620  144.3260 C   0  0  1  0  0  3  0  0  0  0  0  0
  188.6840  176.4120  142.9860 C   0  0  0  0  0  3  0  0  0  0  0  0
  188.7030  177.5160  145.8630 C   0  0  0  0  0  3  0  0  0  0  0  0
  187.6070  176.8440  143.6970 C   0  0  0  0  0  0  0  0  0  0  0  0
  187.6160  177.3660  145.0590 C   0  0  0  0  0  0  0  0  0  0  0  0
  1  7  1  6  0  0  0
  1  2  1  0  0  0  0
  2  3  1  0  0  0  0
  2 19  1  1  0  0  0
  4  1  1  0  0  0  0
  4  5  1  0  0  0  0
  5  3  1  0  0  0  0
  7  6  1  1  0  0  0
  8  7  1  0  0  0  0
  8 17  1  6  0  0  0
 10 15  1  0  0  0  0
 10 11  1  0  0  0  0
 11  8  1  1  0  0  0
 12 15  1  0  0  0  0
 13  9  1  6  0  0  0
 13 12  1  0  0  0  0
 13 11  1  0  0  0  0
 15 14  1  1  0  0  0
 16 17  1  0  0  0  0
 17 18  1  0  0  0  0
 19 20  1  0  0  0  0
 20 21  1  1  0  0  0
 20 22  1  0  0  0  0
 23 28  1  0  0  0  0
 23 25  1  0  0  0  0
 24 23  2  0  0  0  0
 26 22  1  6  0  0  0
 26 30  1  0  0  0  0
 27 29  2  0  0  0  0
 27 24  1  0  0  0  0
 29 26  1  0  0  0  0
 29 30  1  0  0  0  0
 30 28  2  0  0  0  0
M  END
>  <MODEL>
8

>  <REMARK>
 VINA RESULT:      -6.5      2.839      4.346
  Name = 
  8 active torsions:
  status: ('A' for Active; 'I' for Inactive)
    1  A    between atoms: C_3  and  C_11
    2  A    between atoms: C_3  and  C_19
    3  A    between atoms: N_4  and  C_13
    4  A    between atoms: C_7  and  C_30
    5  A    between atoms: C_8  and  C_13
    6  A    between atoms: C_10  and  C_25
    7  A    between atoms: C_11  and  C_25
    8  A    between atoms: C_13  and  C_30
                            x       y       z     vdW  Elec       q    Type
                         _______ _______ _______ _____ _____    ______ ____

>  <TORSDO>
F 8

$$$$
=
 OpenBabel10262421503D

 30 33  0  0  1  0  0  0  0  0999 V2000
  187.0910  178.2840  137.5080 C   0  0  1  0  0  3  0  0  0  0  0  0
  188.3010  177.6870  138.2070 C   0  0  1  0  0  3  0  0  0  0  0  0
  189.4680  177.9170  137.3670 N   0  0  0  0  0  2  0  0  0  0  0  0
  187.5610  178.6430  136.1200 C   0  0  0  0  0  2  0  0  0  0  0  0
  188.9550  178.0700  136.0150 C   0  0  0  0  0  2  0  0  0  0  0  0
  186.2330  176.0540  137.9690 O   0  0  0  0  0  1  0  0  0  0  0  0
  185.9120  177.3070  137.4330 C   0  0  1  0  0  3  0  0  0  0  0  0
  184.6290  177.8780  138.0530 C   0  0  1  0  0  3  0  0  0  0  0  0
  181.5750  176.3070  139.7820 C   0  0  0  0  0  1  0  0  0  0  0  0
  183.3880  175.5480  137.1230 S   0  0  0  0  0  0  0  0  0  0  0  0
  183.6430  176.7530  138.4640 C   0  0  2  0  0  3  0  0  0  0  0  0
  181.2500  177.6480  137.4190 S   0  0  0  0  0  0  0  0  0  0  0  0
  182.2840  177.2940  138.8740 C   0  0  1  0  0  3  0  0  0  0  0  0
  182.9290  177.5030  135.2600 C   0  0  0  0  0  1  0  0  0  0  0  0
  182.2020  176.6190  136.2550 C   0  0  1  0  0  3  0  0  0  0  0  0
  184.9480  178.2750  140.4430 C   0  0  0  0  0  1  0  0  0  0  0  0
  184.9430  178.8630  139.1070 N   0  0  0  0  0  0  0  0  0  0  0  0
  183.9490  179.9220  139.0810 C   0  0  0  0  0  1  0  0  0  0  0  0
  188.4950  178.3480  139.5590 C   0  0  0  0  0  2  0  0  0  0  0  0
  188.8990  177.3160  140.5950 C   0  0  1  0  0  3  0  0  0  0  0  0
  190.2530  177.0080  140.4540 O   0  0  0  0  0  1  0  0  0  0  0  0
  188.6350  177.8710  141.9820 C   0  0  0  0  0  2  0  0  0  0  0  0
  186.5580  178.0230  145.8340 C   0  0  0  0  0  0  0  0  0  0  0  0
  187.9420  177.8740  146.2930 C   0  0  0  0  0  3  0  0  0  0  0  0
  185.3740  178.6370  146.9660 Cl  0  0  0  0  0  0  0  0  0  0  0  0
  188.1840  176.7660  142.9220 C   0  0  1  0  0  3  0  0  0  0  0  0
  189.0260  177.3900  145.4780 C   0  0  0  0  0  3  0  0  0  0  0  0
  186.1200  177.6980  144.5020 C   0  0  0  0  0  3  0  0  0  0  0  0
  188.5520  177.1000  144.2360 C   0  0  0  0  0  0  0  0  0  0  0  0
  187.1760  177.2450  143.7740 C   0  0  0  0  0  0  0  0  0  0  0  0
  1  7  1  6  0  0  0
  1  2  1  0  0  0  0
  2 19  1  1  0  0  0
  3  2  1  0  0  0  0
  4  1  1  0  0  0  0
  5  4  1  0  0  0  0
  5  3  1  0  0  0  0
  7  6  1  1  0  0  0
  7  8  1  0  0  0  0
  8 17  1  1  0  0  0
 10 11  1  0  0  0  0
 11  8  1  6  0  0  0
 11 13  1  0  0  0  0
 12 13  1  0  0  0  0
 13  9  1  1  0  0  0
 15 14  1  6  0  0  0
 15 10  1  0  0  0  0
 15 12  1  0  0  0  0
 17 16  1  0  0  0  0
 18 17  1  0  0  0  0
 19 20  1  0  0  0  0
 20 21  1  1  0  0  0
 20 22  1  0  0  0  0
 23 24  1  0  0  0  0
 23 25  1  0  0  0  0
 26 22  1  6  0  0  0
 26 30  1  0  0  0  0
 26 29  1  0  0  0  0
 27 24  2  0  0  0  0
 28 23  2  0  0  0  0
 29 27  1  0  0  0  0
 30 29  2  0  0  0  0
 30 28  1  0  0  0  0
M  END
>  <MODEL>
9

>  <REMARK>
 VINA RESULT:      -6.5      3.229      4.694
  Name = 
  8 active torsions:
  status: ('A' for Active; 'I' for Inactive)
    1  A    between atoms: C_3  and  C_11
    2  A    between atoms: C_3  and  C_19
    3  A    between atoms: N_4  and  C_13
    4  A    between atoms: C_7  and  C_30
    5  A    between atoms: C_8  and  C_13
    6  A    between atoms: C_10  and  C_25
    7  A    between atoms: C_11  and  C_25
    8  A    between atoms: C_13  and  C_30
                            x       y       z     vdW  Elec       q    Type
                         _______ _______ _______ _____ _____    ______ ____

>  <TORSDO>
F 8

$$$$
