=
 OpenBabel10262419563D

 25 27  0  0  1  0  0  0  0  0999 V2000
  188.9670  177.6400  142.9250 C   0  0  1  0  0  0  0  0  0  0  0  0
  187.5040  178.0180  143.0400 C   0  0  0  0  0  0  0  0  0  0  0  0
  188.9310  177.8970  140.5280 C   0  0  0  0  0  2  0  0  0  0  0  0
  189.4520  176.5930  143.9330 C   0  0  0  0  0  2  0  0  0  0  0  0
  191.5920  177.1190  141.2880 C   0  0  0  0  0  1  0  0  0  0  0  0
  187.4560  178.3270  140.4980 C   0  0  0  0  0  2  0  0  0  0  0  0
  190.4650  175.7530  143.1600 C   0  0  2  0  0  3  0  0  0  0  0  0
  191.8390  175.8190  143.8130 C   0  0  0  0  0  1  0  0  0  0  0  0
  185.4730  178.8450  141.9990 C   0  0  0  0  0  0  0  0  0  0  0  0
  184.6770  179.2610  140.8090 C   0  0  0  0  0  1  0  0  0  0  0  0
  186.8620  178.0730  144.2810 C   0  0  0  0  0  3  0  0  0  0  0  0
  189.1270  176.9650  141.6390 N   0  0  1  0  0  0  0  0  0  0  0  0
  190.3980  176.2460  141.7040 C   0  0  1  0  0  3  0  0  0  0  0  0
  184.8800  178.8730  143.2230 N   0  0  0  0  0  0  0  0  0  0  0  0
  185.5390  178.5040  144.3540 C   0  0  0  0  0  0  0  0  0  0  0  0
  186.8090  178.4230  141.8740 C   0  0  0  0  0  0  0  0  0  0  0  0
  189.7930  178.8020  142.9630 O   0  0  0  0  0  0  0  0  0  0  0  0
  190.3500  178.9620  144.2440 C   0  0  0  0  0  1  0  0  0  0  0  0
  184.8390  178.5380  145.6660 C   0  0  0  0  0  2  0  0  0  0  0  0
  185.6430  177.7730  146.7030 C   0  0  0  0  0  2  0  0  0  0  0  0
  186.5590  178.7150  147.4700 C   0  0  0  0  0  2  0  0  0  0  0  0
  187.8530  178.0360  147.9040 C   0  0  0  0  0  0  0  0  0  0  0  0
  187.7720  176.6890  147.6120 F   0  0  0  0  0  0  0  0  0  0  0  0
  188.9320  178.5770  147.2280 F   0  0  0  0  0  0  0  0  0  0  0  0
  188.0380  178.1900  149.2660 F   0  0  0  0  0  0  0  0  0  0  0  0
  1 17  1  1  0  0  0
  1  2  1  0  0  0  0
  1  4  1  0  0  0  0
  2 11  1  0  0  0  0
  6  3  1  0  0  0  0
  6 16  1  0  0  0  0
  7  8  1  1  0  0  0
  7  4  1  0  0  0  0
  9 14  2  0  0  0  0
 10  9  1  0  0  0  0
 11 15  2  0  0  0  0
 12  3  1  6  0  0  0
 12 13  1  0  0  0  0
 12  1  1  0  0  0  0
 13  5  1  1  0  0  0
 13  7  1  0  0  0  0
 14 15  1  0  0  0  0
 15 19  1  0  0  0  0
 16  9  1  0  0  0  0
 16  2  2  0  0  0  0
 17 18  1  0  0  0  0
 19 20  1  0  0  0  0
 20 21  1  0  0  0  0
 21 22  1  0  0  0  0
 22 25  1  0  0  0  0
 23 22  1  0  0  0  0
 24 22  1  0  0  0  0
M  END
>  <MODEL>
1

>  <REMARK>
 VINA RESULT:      -7.8      0.000      0.000
  Name = 
  5 active torsions:
  status: ('A' for Active; 'I' for Inactive)
    1  A    between atoms: C_1  and  O_17
    2  A    between atoms: C_2  and  C_21
    3  A    between atoms: C_6  and  C_15
    4  A    between atoms: C_6  and  C_23
    5  A    between atoms: C_15  and  C_21
                            x       y       z     vdW  Elec       q    Type
                         _______ _______ _______ _____ _____    ______ ____

>  <TORSDO>
F 5

$$$$
=
 OpenBabel10262419563D

 25 27  0  0  1  0  0  0  0  0999 V2000
  189.2370  177.4130  144.3530 C   0  0  1  0  0  0  0  0  0  0  0  0
  188.2210  177.8250  145.3990 C   0  0  0  0  0  0  0  0  0  0  0  0
  190.9020  176.9500  146.0340 C   0  0  0  0  0  2  0  0  0  0  0  0
  189.1630  178.1840  143.0310 C   0  0  0  0  0  2  0  0  0  0  0  0
  192.0650  176.3840  143.4660 C   0  0  0  0  0  1  0  0  0  0  0  0
  189.9680  177.3070  147.1990 C   0  0  0  0  0  2  0  0  0  0  0  0
  190.6150  178.3220  142.5820 C   0  0  2  0  0  3  0  0  0  0  0  0
  190.8330  177.6550  141.2310 C   0  0  0  0  0  1  0  0  0  0  0  0
  187.5840  178.0060  147.7340 C   0  0  0  0  0  0  0  0  0  0  0  0
  187.8810  177.9130  149.1920 C   0  0  0  0  0  1  0  0  0  0  0  0
  186.9310  178.2300  145.0400 C   0  0  0  0  0  3  0  0  0  0  0  0
  190.5520  177.7760  144.8780 N   0  0  1  0  0  0  0  0  0  0  0  0
  191.4680  177.7720  143.7390 C   0  0  1  0  0  3  0  0  0  0  0  0
  186.3450  178.4080  147.3450 N   0  0  0  0  0  0  0  0  0  0  0  0
  186.0000  178.5220  146.0340 C   0  0  0  0  0  0  0  0  0  0  0  0
  188.5580  177.6940  146.7680 C   0  0  0  0  0  0  0  0  0  0  0  0
  189.1840  176.0070  144.1240 O   0  0  0  0  0  0  0  0  0  0  0  0
  188.3220  175.7200  143.0510 C   0  0  0  0  0  1  0  0  0  0  0  0
  184.6360  178.9820  145.6630 C   0  0  0  0  0  2  0  0  0  0  0  0
  184.6430  179.5430  144.2510 C   0  0  0  0  0  2  0  0  0  0  0  0
  183.7800  178.6890  143.3330 C   0  0  0  0  0  2  0  0  0  0  0  0
  184.4920  178.3450  142.0290 C   0  0  0  0  0  0  0  0  0  0  0  0
  185.6540  177.6580  142.3200 F   0  0  0  0  0  0  0  0  0  0  0  0
  183.6870  177.5470  141.2360 F   0  0  0  0  0  0  0  0  0  0  0  0
  184.8130  179.5020  141.3430 F   0  0  0  0  0  0  0  0  0  0  0  0
  1 17  1  6  0  0  0
  1 12  1  0  0  0  0
  1  2  1  0  0  0  0
  2 16  1  0  0  0  0
  3  6  1  0  0  0  0
  4  1  1  0  0  0  0
  7  8  1  6  0  0  0
  7  4  1  0  0  0  0
  7 13  1  0  0  0  0
  9 10  1  0  0  0  0
 11  2  2  0  0  0  0
 11 15  1  0  0  0  0
 12  3  1  1  0  0  0
 13  5  1  6  0  0  0
 13 12  1  0  0  0  0
 14  9  1  0  0  0  0
 15 14  2  0  0  0  0
 16  6  1  0  0  0  0
 16  9  2  0  0  0  0
 18 17  1  0  0  0  0
 19 15  1  0  0  0  0
 20 19  1  0  0  0  0
 21 20  1  0  0  0  0
 22 23  1  0  0  0  0
 22 21  1  0  0  0  0
 24 22  1  0  0  0  0
 25 22  1  0  0  0  0
M  END
>  <MODEL>
2

>  <REMARK>
 VINA RESULT:      -7.7      3.006      4.874
  Name = 
  5 active torsions:
  status: ('A' for Active; 'I' for Inactive)
    1  A    between atoms: C_1  and  O_17
    2  A    between atoms: C_2  and  C_21
    3  A    between atoms: C_6  and  C_15
    4  A    between atoms: C_6  and  C_23
    5  A    between atoms: C_15  and  C_21
                            x       y       z     vdW  Elec       q    Type
                         _______ _______ _______ _____ _____    ______ ____

>  <TORSDO>
F 5

$$$$
=
 OpenBabel10262419563D

 25 27  0  0  1  0  0  0  0  0999 V2000
  189.3240  177.2490  143.4930 C   0  0  1  0  0  0  0  0  0  0  0  0
  189.4360  177.3190  145.0020 C   0  0  0  0  0  0  0  0  0  0  0  0
  191.5860  176.4440  143.2790 C   0  0  0  0  0  2  0  0  0  0  0  0
  188.4560  178.3360  142.8510 C   0  0  0  0  0  2  0  0  0  0  0  0
  190.4690  176.6340  140.6370 C   0  0  0  0  0  1  0  0  0  0  0  0
  191.8300  176.4350  144.7960 C   0  0  0  0  0  2  0  0  0  0  0  0
  189.1540  178.6610  141.5330 C   0  0  2  0  0  3  0  0  0  0  0  0
  188.2380  178.3850  140.3490 C   0  0  0  0  0  1  0  0  0  0  0  0
  190.6870  176.8460  147.0280 C   0  0  0  0  0  0  0  0  0  0  0  0
  191.9130  176.3880  147.7430 C   0  0  0  0  0  1  0  0  0  0  0  0
  188.3610  177.7390  145.7920 C   0  0  0  0  0  3  0  0  0  0  0  0
  190.6560  177.5270  142.9590 N   0  0  1  0  0  0  0  0  0  0  0  0
  190.4730  177.8700  141.5490 C   0  0  1  0  0  3  0  0  0  0  0  0
  189.6250  177.2740  147.7610 N   0  0  0  0  0  0  0  0  0  0  0  0
  188.4750  177.7110  147.1810 C   0  0  0  0  0  0  0  0  0  0  0  0
  190.6190  176.8490  145.6220 C   0  0  0  0  0  0  0  0  0  0  0  0
  188.9020  175.9520  143.0770 O   0  0  0  0  0  0  0  0  0  0  0  0
  187.5610  175.7360  143.4390 C   0  0  0  0  0  1  0  0  0  0  0  0
  187.3480  178.1830  148.0290 C   0  0  0  0  0  2  0  0  0  0  0  0
  186.4560  179.1190  147.2320 C   0  0  0  0  0  2  0  0  0  0  0  0
  185.1660  178.4170  146.8340 C   0  0  0  0  0  2  0  0  0  0  0  0
  184.7370  178.7610  145.4120 C   0  0  0  0  0  0  0  0  0  0  0  0
  185.2870  179.9770  145.0600 F   0  0  0  0  0  0  0  0  0  0  0  0
  185.1810  177.7950  144.5270 F   0  0  0  0  0  0  0  0  0  0  0  0
  183.3590  178.8530  145.3400 F   0  0  0  0  0  0  0  0  0  0  0  0
  1 17  1  6  0  0  0
  1  2  1  0  0  0  0
  2 16  2  0  0  0  0
  2 11  1  0  0  0  0
  3  6  1  0  0  0  0
  4  1  1  0  0  0  0
  6 16  1  0  0  0  0
  7  8  1  6  0  0  0
  7 13  1  0  0  0  0
  7  4  1  0  0  0  0
  9 10  1  0  0  0  0
  9 14  2  0  0  0  0
 11 15  2  0  0  0  0
 12  3  1  6  0  0  0
 12  1  1  0  0  0  0
 13  5  1  6  0  0  0
 13 12  1  0  0  0  0
 15 14  1  0  0  0  0
 15 19  1  0  0  0  0
 16  9  1  0  0  0  0
 17 18  1  0  0  0  0
 20 19  1  0  0  0  0
 21 20  1  0  0  0  0
 22 21  1  0  0  0  0
 23 22  1  0  0  0  0
 24 22  1  0  0  0  0
 25 22  1  0  0  0  0
M  END
>  <MODEL>
3

>  <REMARK>
 VINA RESULT:      -7.7      2.609      4.620
  Name = 
  5 active torsions:
  status: ('A' for Active; 'I' for Inactive)
    1  A    between atoms: C_1  and  O_17
    2  A    between atoms: C_2  and  C_21
    3  A    between atoms: C_6  and  C_15
    4  A    between atoms: C_6  and  C_23
    5  A    between atoms: C_15  and  C_21
                            x       y       z     vdW  Elec       q    Type
                         _______ _______ _______ _____ _____    ______ ____

>  <TORSDO>
F 5

$$$$
=
 OpenBabel10262419563D

 25 27  0  0  1  0  0  0  0  0999 V2000
  188.7910  177.5790  143.9570 C   0  0  1  0  0  0  0  0  0  0  0  0
  187.3150  177.9240  143.9700 C   0  0  0  0  0  0  0  0  0  0  0  0
  188.9080  177.6270  146.3650 C   0  0  0  0  0  2  0  0  0  0  0  0
  189.5870  178.1600  142.7850 C   0  0  0  0  0  2  0  0  0  0  0  0
  191.5260  176.9750  145.3710 C   0  0  0  0  0  1  0  0  0  0  0  0
  187.4140  177.9480  146.5290 C   0  0  0  0  0  2  0  0  0  0  0  0
  190.9520  178.5020  143.3760 C   0  0  2  0  0  3  0  0  0  0  0  0
  192.0590  177.7270  142.6740 C   0  0  0  0  0  1  0  0  0  0  0  0
  185.2620  178.2660  145.2180 C   0  0  0  0  0  0  0  0  0  0  0  0
  184.5020  178.4030  146.4930 C   0  0  0  0  0  1  0  0  0  0  0  0
  186.5860  178.0450  142.7830 C   0  0  0  0  0  3  0  0  0  0  0  0
  189.3850  178.2320  145.1220 N   0  0  1  0  0  0  0  0  0  0  0  0
  190.8290  178.2560  144.8900 C   0  0  1  0  0  3  0  0  0  0  0  0
  184.5910  178.3890  144.0420 N   0  0  0  0  0  0  0  0  0  0  0  0
  185.2150  178.2820  142.8380 C   0  0  0  0  0  0  0  0  0  0  0  0
  186.6470  178.0200  145.2150 C   0  0  0  0  0  0  0  0  0  0  0  0
  188.9810  176.1690  144.0500 O   0  0  0  0  0  0  0  0  0  0  0  0
  189.2200  175.6240  142.7760 C   0  0  0  0  0  1  0  0  0  0  0  0
  184.4360  178.4410  141.5810 C   0  0  0  0  0  2  0  0  0  0  0  0
  185.3170  179.0390  140.4980 C   0  0  0  0  0  2  0  0  0  0  0  0
  184.8750  178.5570  139.1230 C   0  0  0  0  0  2  0  0  0  0  0  0
  186.0460  178.0590  138.2830 C   0  0  0  0  0  0  0  0  0  0  0  0
  186.2950  178.9710  137.2770 F   0  0  0  0  0  0  0  0  0  0  0  0
  187.1800  177.9320  139.0640 F   0  0  0  0  0  0  0  0  0  0  0  0
  185.7370  176.8350  137.7160 F   0  0  0  0  0  0  0  0  0  0  0  0
  1  2  1  0  0  0  0
  1 17  1  1  0  0  0
  1 12  1  0  0  0  0
  2 16  1  0  0  0  0
  3  6  1  0  0  0  0
  4  7  1  0  0  0  0
  4  1  1  0  0  0  0
  7  8  1  6  0  0  0
  7 13  1  0  0  0  0
  9 10  1  0  0  0  0
 11 15  1  0  0  0  0
 11  2  2  0  0  0  0
 12  3  1  1  0  0  0
 13 12  1  0  0  0  0
 13  5  1  6  0  0  0
 14  9  1  0  0  0  0
 15 14  2  0  0  0  0
 16  9  2  0  0  0  0
 16  6  1  0  0  0  0
 18 17  1  0  0  0  0
 19 15  1  0  0  0  0
 20 19  1  0  0  0  0
 21 20  1  0  0  0  0
 22 24  1  0  0  0  0
 22 21  1  0  0  0  0
 23 22  1  0  0  0  0
 25 22  1  0  0  0  0
M  END
>  <MODEL>
4

>  <REMARK>
 VINA RESULT:      -7.5      3.670      5.545
  Name = 
  5 active torsions:
  status: ('A' for Active; 'I' for Inactive)
    1  A    between atoms: C_1  and  O_17
    2  A    between atoms: C_2  and  C_21
    3  A    between atoms: C_6  and  C_15
    4  A    between atoms: C_6  and  C_23
    5  A    between atoms: C_15  and  C_21
                            x       y       z     vdW  Elec       q    Type
                         _______ _______ _______ _____ _____    ______ ____

>  <TORSDO>
F 5

$$$$
=
 OpenBabel10262419563D

 25 27  0  0  1  0  0  0  0  0999 V2000
  188.1520  177.6970  143.9390 C   0  0  1  0  0  0  0  0  0  0  0  0
  186.8110  178.1590  143.4050 C   0  0  0  0  0  0  0  0  0  0  0  0
  187.3170  177.6170  146.1990 C   0  0  0  0  0  2  0  0  0  0  0  0
  189.3760  178.2700  143.2160 C   0  0  0  0  0  2  0  0  0  0  0  0
  190.0750  176.8060  146.2520 C   0  0  0  0  0  1  0  0  0  0  0  0
  185.8990  178.0490  145.7960 C   0  0  0  0  0  2  0  0  0  0  0  0
  190.4160  178.4700  144.3150 C   0  0  2  0  0  3  0  0  0  0  0  0
  191.6650  177.6450  144.0400 C   0  0  0  0  0  1  0  0  0  0  0  0
  184.4550  178.6040  143.7800 C   0  0  0  0  0  0  0  0  0  0  0  0
  183.2640  178.7400  144.6680 C   0  0  0  0  0  1  0  0  0  0  0  0
  186.6150  178.3980  142.0410 C   0  0  0  0  0  3  0  0  0  0  0  0
  188.2770  178.2430  145.2900 N   0  0  1  0  0  0  0  0  0  0  0  0
  189.6940  178.1620  145.6390 C   0  0  1  0  0  3  0  0  0  0  0  0
  184.3070  178.8400  142.4490 N   0  0  0  0  0  0  0  0  0  0  0  0
  185.3470  178.7410  141.5780 C   0  0  0  0  0  0  0  0  0  0  0  0
  185.7140  178.2480  144.2970 C   0  0  0  0  0  0  0  0  0  0  0  0
  188.2120  176.2740  143.9900 O   0  0  0  0  0  0  0  0  0  0  0  0
  188.9010  175.7750  142.8700 C   0  0  0  0  0  1  0  0  0  0  0  0
  185.1340  179.0250  140.1340 C   0  0  0  0  0  2  0  0  0  0  0  0
  183.6480  179.0300  139.8190 C   0  0  0  0  0  2  0  0  0  0  0  0
  183.3680  178.2280  138.5560 C   0  0  0  0  0  2  0  0  0  0  0  0
  182.9970  176.7810  138.8630 C   0  0  0  0  0  0  0  0  0  0  0  0
  181.7190  176.5380  138.4010 F   0  0  0  0  0  0  0  0  0  0  0  0
  183.8730  175.9150  138.2340 F   0  0  0  0  0  0  0  0  0  0  0  0
  183.0320  176.5600  140.2280 F   0  0  0  0  0  0  0  0  0  0  0  0
  1 17  1  1  0  0  0
  1 12  1  0  0  0  0
  2  1  1  0  0  0  0
  2 16  1  0  0  0  0
  4  1  1  0  0  0  0
  4  7  1  0  0  0  0
  6  3  1  0  0  0  0
  7  8  1  6  0  0  0
  7 13  1  0  0  0  0
  9 16  2  0  0  0  0
  9 10  1  0  0  0  0
 11  2  2  0  0  0  0
 12 13  1  0  0  0  0
 12  3  1  1  0  0  0
 13  5  1  6  0  0  0
 14  9  1  0  0  0  0
 15 11  1  0  0  0  0
 15 14  2  0  0  0  0
 16  6  1  0  0  0  0
 18 17  1  0  0  0  0
 19 15  1  0  0  0  0
 20 19  1  0  0  0  0
 21 22  1  0  0  0  0
 21 20  1  0  0  0  0
 22 25  1  0  0  0  0
 23 22  1  0  0  0  0
 24 22  1  0  0  0  0
M  END
>  <MODEL>
5

>  <REMARK>
 VINA RESULT:      -7.3      3.893      5.787
  Name = 
  5 active torsions:
  status: ('A' for Active; 'I' for Inactive)
    1  A    between atoms: C_1  and  O_17
    2  A    between atoms: C_2  and  C_21
    3  A    between atoms: C_6  and  C_15
    4  A    between atoms: C_6  and  C_23
    5  A    between atoms: C_15  and  C_21
                            x       y       z     vdW  Elec       q    Type
                         _______ _______ _______ _____ _____    ______ ____

>  <TORSDO>
F 5

$$$$
=
 OpenBabel10262419563D

 25 27  0  0  1  0  0  0  0  0999 V2000
  188.8770  177.5390  144.1300 C   0  0  1  0  0  0  0  0  0  0  0  0
  187.4140  177.9140  144.2520 C   0  0  0  0  0  0  0  0  0  0  0  0
  189.1470  177.4770  146.5250 C   0  0  0  0  0  2  0  0  0  0  0  0
  189.6110  178.1560  142.9340 C   0  0  0  0  0  2  0  0  0  0  0  0
  191.6810  176.8180  145.3370 C   0  0  0  0  0  1  0  0  0  0  0  0
  187.6750  177.8210  146.7980 C   0  0  0  0  0  2  0  0  0  0  0  0
  191.0180  178.4430  143.4510 C   0  0  2  0  0  3  0  0  0  0  0  0
  192.0600  177.6780  142.6460 C   0  0  0  0  0  1  0  0  0  0  0  0
  185.4520  178.2420  145.6430 C   0  0  0  0  0  0  0  0  0  0  0  0
  184.7780  178.3380  146.9700 C   0  0  0  0  0  1  0  0  0  0  0  0
  186.6140  178.1030  143.1200 C   0  0  0  0  0  3  0  0  0  0  0  0
  189.5590  178.1280  145.2810 N   0  0  1  0  0  0  0  0  0  0  0  0
  190.9850  178.1330  144.9580 C   0  0  1  0  0  3  0  0  0  0  0  0
  184.7110  178.4320  144.5190 N   0  0  0  0  0  0  0  0  0  0  0  0
  185.2540  178.3650  143.2740 C   0  0  0  0  0  0  0  0  0  0  0  0
  186.8280  177.9680  145.5410 C   0  0  0  0  0  0  0  0  0  0  0  0
  189.0390  176.1230  144.1490 O   0  0  0  0  0  0  0  0  0  0  0  0
  189.1300  175.6250  142.8370 C   0  0  0  0  0  1  0  0  0  0  0  0
  184.4020  178.5970  142.0780 C   0  0  0  0  0  2  0  0  0  0  0  0
  182.9390  178.6350  142.4830 C   0  0  0  0  0  2  0  0  0  0  0  0
  182.0440  178.6220  141.2520 C   0  0  0  0  0  2  0  0  0  0  0  0
  180.5780  178.3920  141.6070 C   0  0  0  0  0  0  0  0  0  0  0  0
  179.8320  179.4540  141.1360 F   0  0  0  0  0  0  0  0  0  0  0  0
  180.1180  177.2260  141.0220 F   0  0  0  0  0  0  0  0  0  0  0  0
  180.4290  178.3100  142.9790 F   0  0  0  0  0  0  0  0  0  0  0  0
  1 17  1  1  0  0  0
  1  2  1  0  0  0  0
  1 12  1  0  0  0  0
  2 16  1  0  0  0  0
  3  6  1  0  0  0  0
  4  7  1  0  0  0  0
  4  1  1  0  0  0  0
  7  8  1  6  0  0  0
  7 13  1  0  0  0  0
  9 10  1  0  0  0  0
 11 15  1  0  0  0  0
 11  2  2  0  0  0  0
 12  3  1  1  0  0  0
 13 12  1  0  0  0  0
 13  5  1  6  0  0  0
 14  9  1  0  0  0  0
 15 14  2  0  0  0  0
 16  9  2  0  0  0  0
 16  6  1  0  0  0  0
 18 17  1  0  0  0  0
 19 20  1  0  0  0  0
 19 15  1  0  0  0  0
 21 22  1  0  0  0  0
 21 20  1  0  0  0  0
 22 25  1  0  0  0  0
 23 22  1  0  0  0  0
 24 22  1  0  0  0  0
M  END
>  <MODEL>
6

>  <REMARK>
 VINA RESULT:      -7.3      3.874      5.492
  Name = 
  5 active torsions:
  status: ('A' for Active; 'I' for Inactive)
    1  A    between atoms: C_1  and  O_17
    2  A    between atoms: C_2  and  C_21
    3  A    between atoms: C_6  and  C_15
    4  A    between atoms: C_6  and  C_23
    5  A    between atoms: C_15  and  C_21
                            x       y       z     vdW  Elec       q    Type
                         _______ _______ _______ _____ _____    ______ ____

>  <TORSDO>
F 5

$$$$
=
 OpenBabel10262419563D

 25 27  0  0  1  0  0  0  0  0999 V2000
  188.8900  177.8740  142.8060 C   0  0  1  0  0  0  0  0  0  0  0  0
  188.0540  177.7830  144.0660 C   0  0  0  0  0  0  0  0  0  0  0  0
  187.0030  178.6310  141.5100 C   0  0  0  0  0  2  0  0  0  0  0  0
  189.9880  176.8130  142.6720 C   0  0  0  0  0  2  0  0  0  0  0  0
  189.2760  178.4980  139.7560 C   0  0  0  0  0  1  0  0  0  0  0  0
  186.0470  178.6170  142.7130 C   0  0  0  0  0  2  0  0  0  0  0  0
  190.0340  176.4890  141.1810 C   0  0  2  0  0  3  0  0  0  0  0  0
  191.4050  176.8000  140.5980 C   0  0  0  0  0  1  0  0  0  0  0  0
  185.9590  178.2040  145.2180 C   0  0  0  0  0  0  0  0  0  0  0  0
  184.5300  178.6270  145.2410 C   0  0  0  0  0  1  0  0  0  0  0  0
  188.6140  177.3770  145.2820 C   0  0  0  0  0  3  0  0  0  0  0  0
  187.9970  177.5730  141.6880 N   0  0  1  0  0  0  0  0  0  0  0  0
  188.8560  177.2510  140.5490 C   0  0  1  0  0  3  0  0  0  0  0  0
  186.5370  177.7910  146.3780 N   0  0  0  0  0  0  0  0  0  0  0  0
  187.8330  177.3850  146.4360 C   0  0  0  0  0  0  0  0  0  0  0  0
  186.7070  178.2200  144.0270 C   0  0  0  0  0  0  0  0  0  0  0  0
  189.4290  179.1840  142.6500 O   0  0  0  0  0  0  0  0  0  0  0  0
  190.6040  179.3220  143.4100 C   0  0  0  0  0  1  0  0  0  0  0  0
  188.4110  176.9280  147.7280 C   0  0  0  0  0  2  0  0  0  0  0  0
  189.9160  177.1350  147.7260 C   0  0  0  0  0  2  0  0  0  0  0  0
  190.6370  175.8080  147.5330 C   0  0  0  0  0  2  0  0  0  0  0  0
  192.0440  175.9930  146.9740 C   0  0  0  0  0  0  0  0  0  0  0  0
  192.0450  177.0690  146.1090 F   0  0  0  0  0  0  0  0  0  0  0  0
  192.9400  176.2400  147.9980 F   0  0  0  0  0  0  0  0  0  0  0  0
  192.4340  174.8600  146.2840 F   0  0  0  0  0  0  0  0  0  0  0  0
  1 17  1  6  0  0  0
  1  2  1  0  0  0  0
  2 11  1  0  0  0  0
  3  6  1  0  0  0  0
  4  1  1  0  0  0  0
  6 16  1  0  0  0  0
  7  8  1  6  0  0  0
  7  4  1  0  0  0  0
  9 10  1  0  0  0  0
  9 14  2  0  0  0  0
 11 15  2  0  0  0  0
 12  3  1  6  0  0  0
 12  1  1  0  0  0  0
 13  5  1  1  0  0  0
 13  7  1  0  0  0  0
 13 12  1  0  0  0  0
 14 15  1  0  0  0  0
 15 19  1  0  0  0  0
 16  2  2  0  0  0  0
 16  9  1  0  0  0  0
 17 18  1  0  0  0  0
 20 19  1  0  0  0  0
 21 20  1  0  0  0  0
 22 21  1  0  0  0  0
 22 24  1  0  0  0  0
 23 22  1  0  0  0  0
 25 22  1  0  0  0  0
M  END
>  <MODEL>
7

>  <REMARK>
 VINA RESULT:      -7.3      2.211      3.365
  Name = 
  5 active torsions:
  status: ('A' for Active; 'I' for Inactive)
    1  A    between atoms: C_1  and  O_17
    2  A    between atoms: C_2  and  C_21
    3  A    between atoms: C_6  and  C_15
    4  A    between atoms: C_6  and  C_23
    5  A    between atoms: C_15  and  C_21
                            x       y       z     vdW  Elec       q    Type
                         _______ _______ _______ _____ _____    ______ ____

>  <TORSDO>
F 5

$$$$
=
 OpenBabel10262419563D

 25 27  0  0  1  0  0  0  0  0999 V2000
  188.1690  177.6930  143.8800 C   0  0  1  0  0  0  0  0  0  0  0  0
  186.7990  178.1560  143.4280 C   0  0  0  0  0  0  0  0  0  0  0  0
  187.4780  177.6340  146.1890 C   0  0  0  0  0  2  0  0  0  0  0  0
  189.3460  178.2550  143.0760 C   0  0  0  0  0  2  0  0  0  0  0  0
  190.2310  176.8130  146.0740 C   0  0  0  0  0  1  0  0  0  0  0  0
  186.0390  178.0690  145.8720 C   0  0  0  0  0  2  0  0  0  0  0  0
  190.4550  178.4600  144.1050 C   0  0  2  0  0  3  0  0  0  0  0  0
  191.6810  177.6280  143.7580 C   0  0  0  0  0  1  0  0  0  0  0  0
  184.4720  178.6130  143.9480 C   0  0  0  0  0  0  0  0  0  0  0  0
  183.3410  178.7610  144.9080 C   0  0  0  0  0  1  0  0  0  0  0  0
  186.5170  178.3850  142.0770 C   0  0  0  0  0  3  0  0  0  0  0  0
  188.3810  178.2490  145.2150 N   0  0  1  0  0  0  0  0  0  0  0  0
  189.8170  178.1650  145.4740 C   0  0  1  0  0  3  0  0  0  0  0  0
  184.2420  178.8390  142.6270 N   0  0  0  0  0  0  0  0  0  0  0  0
  185.2230  178.7300  141.6920 C   0  0  0  0  0  0  0  0  0  0  0  0
  185.7600  178.2560  144.3860 C   0  0  0  0  0  0  0  0  0  0  0  0
  188.2270  176.2700  143.9380 O   0  0  0  0  0  0  0  0  0  0  0  0
  188.9500  175.7660  142.8420 C   0  0  0  0  0  1  0  0  0  0  0  0
  184.9210  179.0030  140.2620 C   0  0  0  0  0  2  0  0  0  0  0  0
  186.1100  178.6200  139.3980 C   0  0  0  0  0  2  0  0  0  0  0  0
  185.6450  178.1660  138.0210 C   0  0  0  0  0  2  0  0  0  0  0  0
  186.8120  177.9240  137.0700 C   0  0  0  0  0  0  0  0  0  0  0  0
  187.8930  177.4640  137.7950 F   0  0  0  0  0  0  0  0  0  0  0  0
  186.4720  176.9760  136.1210 F   0  0  0  0  0  0  0  0  0  0  0  0
  187.1620  179.1030  136.4380 F   0  0  0  0  0  0  0  0  0  0  0  0
  1 17  1  1  0  0  0
  1 12  1  0  0  0  0
  2  1  1  0  0  0  0
  2 16  1  0  0  0  0
  4  1  1  0  0  0  0
  4  7  1  0  0  0  0
  6  3  1  0  0  0  0
  7  8  1  6  0  0  0
  7 13  1  0  0  0  0
  9 16  2  0  0  0  0
  9 10  1  0  0  0  0
 11  2  2  0  0  0  0
 12 13  1  0  0  0  0
 12  3  1  1  0  0  0
 13  5  1  6  0  0  0
 14  9  1  0  0  0  0
 15 11  1  0  0  0  0
 15 14  2  0  0  0  0
 16  6  1  0  0  0  0
 18 17  1  0  0  0  0
 19 15  1  0  0  0  0
 20 19  1  0  0  0  0
 21 20  1  0  0  0  0
 22 23  1  0  0  0  0
 22 21  1  0  0  0  0
 24 22  1  0  0  0  0
 25 22  1  0  0  0  0
M  END
>  <MODEL>
8

>  <REMARK>
 VINA RESULT:      -7.2      4.092      5.988
  Name = 
  5 active torsions:
  status: ('A' for Active; 'I' for Inactive)
    1  A    between atoms: C_1  and  O_17
    2  A    between atoms: C_2  and  C_21
    3  A    between atoms: C_6  and  C_15
    4  A    between atoms: C_6  and  C_23
    5  A    between atoms: C_15  and  C_21
                            x       y       z     vdW  Elec       q    Type
                         _______ _______ _______ _____ _____    ______ ____

>  <TORSDO>
F 5

$$$$
=
 OpenBabel10262419563D

 25 27  0  0  1  0  0  0  0  0999 V2000
  188.5670  177.5540  143.4660 C   0  0  1  0  0  0  0  0  0  0  0  0
  187.7060  177.9880  142.2970 C   0  0  0  0  0  0  0  0  0  0  0  0
  186.7320  177.7860  145.0110 C   0  0  0  0  0  2  0  0  0  0  0  0
  190.0340  177.9910  143.3940 C   0  0  0  0  0  2  0  0  0  0  0  0
  189.0260  176.9000  146.5000 C   0  0  0  0  0  1  0  0  0  0  0  0
  185.7370  178.2090  143.9190 C   0  0  0  0  0  2  0  0  0  0  0  0
  190.4190  178.2950  144.8400 C   0  0  2  0  0  3  0  0  0  0  0  0
  191.5630  177.4020  145.2990 C   0  0  0  0  0  1  0  0  0  0  0  0
  185.5180  178.5520  141.4110 C   0  0  0  0  0  0  0  0  0  0  0  0
  184.0630  178.8360  141.5750 C   0  0  0  0  0  1  0  0  0  0  0  0
  188.2240  178.0580  140.9990 C   0  0  0  0  0  3  0  0  0  0  0  0
  188.0650  178.2610  144.6430 N   0  0  1  0  0  0  0  0  0  0  0  0
  189.1180  178.1790  145.6540 C   0  0  1  0  0  3  0  0  0  0  0  0
  186.0610  178.6220  140.1670 N   0  0  0  0  0  0  0  0  0  0  0  0
  187.3800  178.3820  139.9390 C   0  0  0  0  0  0  0  0  0  0  0  0
  186.3270  178.2230  142.5150 C   0  0  0  0  0  0  0  0  0  0  0  0
  188.4670  176.1470  143.6720 O   0  0  0  0  0  0  0  0  0  0  0  0
  189.4750  175.4760  142.9590 C   0  0  0  0  0  1  0  0  0  0  0  0
  187.9260  178.4880  138.5600 C   0  0  0  0  0  2  0  0  0  0  0  0
  189.4450  178.4600  138.5990 C   0  0  0  0  0  2  0  0  0  0  0  0
  189.9840  177.4050  137.6440 C   0  0  0  0  0  2  0  0  0  0  0  0
  190.7520  176.3070  138.3720 C   0  0  0  0  0  0  0  0  0  0  0  0
  192.0920  176.4110  138.0540 F   0  0  0  0  0  0  0  0  0  0  0  0
  190.6040  176.4410  139.7410 F   0  0  0  0  0  0  0  0  0  0  0  0
  190.2910  175.0630  137.9780 F   0  0  0  0  0  0  0  0  0  0  0  0
  1 17  1  1  0  0  0
  1 12  1  0  0  0  0
  2 16  1  0  0  0  0
  2  1  1  0  0  0  0
  4  1  1  0  0  0  0
  4  7  1  0  0  0  0
  6  3  1  0  0  0  0
  7  8  1  1  0  0  0
  7 13  1  0  0  0  0
  9 10  1  0  0  0  0
  9 16  2  0  0  0  0
 11  2  2  0  0  0  0
 12  3  1  1  0  0  0
 12 13  1  0  0  0  0
 13  5  1  6  0  0  0
 14  9  1  0  0  0  0
 15 14  2  0  0  0  0
 15 11  1  0  0  0  0
 16  6  1  0  0  0  0
 18 17  1  0  0  0  0
 19 20  1  0  0  0  0
 19 15  1  0  0  0  0
 21 22  1  0  0  0  0
 21 20  1  0  0  0  0
 22 24  1  0  0  0  0
 23 22  1  0  0  0  0
 25 22  1  0  0  0  0
M  END
>  <MODEL>
9

>  <REMARK>
 VINA RESULT:      -7.2      3.710      5.882
  Name = 
  5 active torsions:
  status: ('A' for Active; 'I' for Inactive)
    1  A    between atoms: C_1  and  O_17
    2  A    between atoms: C_2  and  C_21
    3  A    between atoms: C_6  and  C_15
    4  A    between atoms: C_6  and  C_23
    5  A    between atoms: C_15  and  C_21
                            x       y       z     vdW  Elec       q    Type
                         _______ _______ _______ _____ _____    ______ ____

>  <TORSDO>
F 5

$$$$
