=
 OpenBabel10262420453D

 28 31  0  0  1  0  0  0  0  0999 V2000
  187.7410  178.3150  140.5990 C   0  0  0  0  0  0  0  0  0  0  0  0
  189.1180  178.2750  140.9860 N   0  0  0  0  0  2  0  0  0  0  0  0
  183.0320  178.1690  139.9560 C   0  0  0  0  0  1  0  0  0  0  0  0
  185.4300  178.1980  140.6030 C   0  0  0  0  0  0  0  0  0  0  0  0
  185.9880  178.6270  139.3340 C   0  0  0  0  0  0  0  0  0  0  0  0
  184.1530  177.9820  140.9200 C   0  0  0  0  0  3  0  0  0  0  0  0
  185.3340  178.9140  138.2970 O   0  0  0  0  0  0  0  0  0  0  0  0
  187.3980  178.6810  139.4040 N   0  0  0  0  0  0  0  0  0  0  0  0
  186.5850  178.0170  141.5290 C   0  0  2  0  0  3  0  0  0  0  0  0
  189.6580  177.5250  142.0800 C   0  0  0  0  0  0  0  0  0  0  0  0
  190.6440  176.8940  143.9340 C   0  0  0  0  0  0  0  0  0  0  0  0
  189.4010  176.1870  142.3220 C   0  0  0  0  0  3  0  0  0  0  0  0
  190.8700  179.2790  143.3540 O   0  0  0  0  0  1  0  0  0  0  0  0
  190.4320  177.9810  143.1240 C   0  0  0  0  0  0  0  0  0  0  0  0
  191.4380  176.8780  145.1920 C   0  0  0  0  0  1  0  0  0  0  0  0
  190.0210  175.8480  143.4360 O   0  0  0  0  0  0  0  0  0  0  0  0
  186.5220  178.9840  142.5410 O   0  0  0  0  0  0  0  0  0  0  0  0
  187.4560  177.8950  144.9900 C   0  0  0  0  0  3  0  0  0  0  0  0
  185.4810  178.9260  146.0660 C   0  0  2  0  0  3  0  0  0  0  0  0
  185.5960  178.4960  143.4730 C   0  0  1  0  0  3  0  0  0  0  0  0
  187.3480  177.9500  147.4280 C   0  0  0  0  0  0  0  0  0  0  0  0
  186.2240  178.3990  144.8470 C   0  0  0  0  0  0  0  0  0  0  0  0
  183.4610  179.0650  144.6520 C   0  0  0  0  0  3  0  0  0  0  0  0
  185.8620  178.1660  147.3420 C   0  0  0  0  0  2  0  0  0  0  0  0
  183.9930  178.8440  145.8610 C   0  0  0  0  0  3  0  0  0  0  0  0
  188.1080  177.7960  148.9970 Cl  0  0  0  0  0  0  0  0  0  0  0  0
  188.0730  177.7650  146.3220 C   0  0  0  0  0  3  0  0  0  0  0  0
  184.3540  179.4010  143.4920 C   0  0  0  0  0  2  0  0  0  0  0  0
  1  2  1  0  0  0  0
  1  9  1  0  0  0  0
  2 10  1  0  0  0  0
  3  6  1  0  0  0  0
  4  6  2  0  0  0  0
  4  9  1  0  0  0  0
  5  8  1  0  0  0  0
  5  4  1  0  0  0  0
  7  5  2  0  0  0  0
  8  1  2  0  0  0  0
  9 17  1  1  0  0  0
 10 12  2  0  0  0  0
 10 14  1  0  0  0  0
 11 15  1  0  0  0  0
 12 16  1  0  0  0  0
 14 13  1  0  0  0  0
 14 11  2  0  0  0  0
 16 11  1  0  0  0  0
 18 27  1  0  0  0  0
 19 25  1  6  0  0  0
 19 24  1  0  0  0  0
 20 17  1  6  0  0  0
 20 28  1  0  0  0  0
 20 22  1  0  0  0  0
 21 26  1  0  0  0  0
 22 18  2  0  0  0  0
 22 19  1  0  0  0  0
 23 25  2  0  0  0  0
 24 21  1  0  0  0  0
 27 21  2  0  0  0  0
 28 23  1  0  0  0  0
M  END
>  <MODEL>
1

>  <REMARK>
 VINA RESULT:      -9.0      0.000      0.000
  Name = 
  3 active torsions:
  status: ('A' for Active; 'I' for Inactive)
    1  A    between atoms: N_2  and  C_3
    2  A    between atoms: C_10  and  O_17
    3  A    between atoms: O_17  and  C_27
                            x       y       z     vdW  Elec       q    Type
                         _______ _______ _______ _____ _____    ______ ____

>  <TORSDO>
F 3

$$$$
=
 OpenBabel10262420453D

 28 31  0  0  1  0  0  0  0  0999 V2000
  190.0510  176.8610  143.9670 C   0  0  0  0  0  0  0  0  0  0  0  0
  190.1320  176.5790  142.5660 N   0  0  0  0  0  2  0  0  0  0  0  0
  189.2620  178.2540  148.4440 C   0  0  0  0  0  1  0  0  0  0  0  0
  189.3950  177.6660  146.0350 C   0  0  0  0  0  0  0  0  0  0  0  0
  190.5460  176.7860  146.0930 C   0  0  0  0  0  0  0  0  0  0  0  0
  188.8030  178.3300  147.0280 C   0  0  0  0  0  3  0  0  0  0  0  0
  191.1770  176.4590  147.1330 O   0  0  0  0  0  0  0  0  0  0  0  0
  190.8880  176.3280  144.8010 N   0  0  0  0  0  0  0  0  0  0  0  0
  188.9770  177.7160  144.6040 C   0  0  2  0  0  3  0  0  0  0  0  0
  189.5750  177.3790  141.5190 C   0  0  0  0  0  0  0  0  0  0  0  0
  188.9080  178.1770  139.5880 C   0  0  0  0  0  0  0  0  0  0  0  0
  188.7680  178.4860  141.7160 C   0  0  0  0  0  3  0  0  0  0  0  0
  190.2730  176.1270  139.4900 O   0  0  0  0  0  1  0  0  0  0  0  0
  189.6420  177.1690  140.1590 C   0  0  0  0  0  0  0  0  0  0  0  0
  188.6900  178.3880  138.1320 C   0  0  0  0  0  1  0  0  0  0  0  0
  188.4000  178.9390  140.5320 O   0  0  0  0  0  0  0  0  0  0  0  0
  187.7270  177.0990  144.4650 O   0  0  0  0  0  0  0  0  0  0  0  0
  185.9590  178.2140  142.5450 C   0  0  0  0  0  3  0  0  0  0  0  0
  184.2200  178.1910  144.3050 C   0  0  2  0  0  3  0  0  0  0  0  0
  186.7860  178.0550  144.8720 C   0  0  1  0  0  3  0  0  0  0  0  0
  183.6450  178.6600  141.9080 C   0  0  0  0  0  0  0  0  0  0  0  0
  185.6730  178.1740  143.8520 C   0  0  0  0  0  0  0  0  0  0  0  0
  185.0450  178.5310  146.6080 C   0  0  0  0  0  3  0  0  0  0  0  0
  183.3300  178.9850  143.3420 C   0  0  0  0  0  2  0  0  0  0  0  0
  184.0990  178.7660  145.6890 C   0  0  0  0  0  3  0  0  0  0  0  0
  182.3970  178.8190  140.6920 Cl  0  0  0  0  0  0  0  0  0  0  0  0
  184.8930  178.3580  141.5390 C   0  0  0  0  0  3  0  0  0  0  0  0
  186.2340  177.6830  146.2570 C   0  0  0  0  0  2  0  0  0  0  0  0
  1  9  1  0  0  0  0
  1  8  2  0  0  0  0
  2  1  1  0  0  0  0
  4  5  1  0  0  0  0
  4  6  2  0  0  0  0
  5  7  2  0  0  0  0
  6  3  1  0  0  0  0
  8  5  1  0  0  0  0
  9 17  1  1  0  0  0
  9  4  1  0  0  0  0
 10 12  2  0  0  0  0
 10  2  1  0  0  0  0
 11 14  2  0  0  0  0
 11 16  1  0  0  0  0
 13 14  1  0  0  0  0
 14 10  1  0  0  0  0
 15 11  1  0  0  0  0
 16 12  1  0  0  0  0
 18 22  2  0  0  0  0
 19 24  1  6  0  0  0
 19 25  1  0  0  0  0
 20 17  1  6  0  0  0
 20 28  1  0  0  0  0
 21 24  1  0  0  0  0
 22 19  1  0  0  0  0
 22 20  1  0  0  0  0
 25 23  2  0  0  0  0
 26 21  1  0  0  0  0
 27 21  2  0  0  0  0
 27 18  1  0  0  0  0
 28 23  1  0  0  0  0
M  END
>  <MODEL>
2

>  <REMARK>
 VINA RESULT:      -9.0      2.767      5.632
  Name = 
  3 active torsions:
  status: ('A' for Active; 'I' for Inactive)
    1  A    between atoms: N_2  and  C_3
    2  A    between atoms: C_10  and  O_17
    3  A    between atoms: O_17  and  C_27
                            x       y       z     vdW  Elec       q    Type
                         _______ _______ _______ _____ _____    ______ ____

>  <TORSDO>
F 3

$$$$
=
 OpenBabel10262420453D

 28 31  0  0  1  0  0  0  0  0999 V2000
  189.4150  178.0980  140.1920 C   0  0  0  0  0  0  0  0  0  0  0  0
  190.6210  177.9780  140.9520 N   0  0  0  0  0  2  0  0  0  0  0  0
  185.0830  178.2110  138.2350 C   0  0  0  0  0  1  0  0  0  0  0  0
  187.1960  178.1020  139.5360 C   0  0  0  0  0  0  0  0  0  0  0  0
  188.1100  178.5260  138.4930 C   0  0  0  0  0  0  0  0  0  0  0  0
  185.8730  177.9460  139.4710 C   0  0  0  0  0  3  0  0  0  0  0  0
  187.7940  178.8670  137.3230 O   0  0  0  0  0  0  0  0  0  0  0  0
  189.4440  178.5050  138.9620 N   0  0  0  0  0  0  0  0  0  0  0  0
  188.0290  177.8430  140.7450 C   0  0  2  0  0  3  0  0  0  0  0  0
  190.7930  177.1810  142.1280 C   0  0  0  0  0  0  0  0  0  0  0  0
  191.2360  176.4530  144.1490 C   0  0  0  0  0  0  0  0  0  0  0  0
  190.3150  175.8920  142.2840 C   0  0  0  0  0  3  0  0  0  0  0  0
  191.8980  178.7800  143.6750 O   0  0  0  0  0  1  0  0  0  0  0  0
  191.3600  177.5470  143.3300 C   0  0  0  0  0  0  0  0  0  0  0  0
  191.7110  176.3520  145.5550 C   0  0  0  0  0  1  0  0  0  0  0  0
  190.6130  175.4900  143.5050 O   0  0  0  0  0  0  0  0  0  0  0  0
  187.7250  178.7920  141.7290 O   0  0  0  0  0  0  0  0  0  0  0  0
  188.0120  177.7280  144.3450 C   0  0  0  0  0  3  0  0  0  0  0  0
  185.8140  178.7360  144.8700 C   0  0  2  0  0  3  0  0  0  0  0  0
  186.5960  178.2960  142.3960 C   0  0  1  0  0  3  0  0  0  0  0  0
  187.2810  177.7930  146.6730 C   0  0  0  0  0  0  0  0  0  0  0  0
  186.8510  178.2140  143.8860 C   0  0  0  0  0  0  0  0  0  0  0  0
  184.2230  178.8400  142.9830 C   0  0  0  0  0  3  0  0  0  0  0  0
  185.8640  177.9880  146.2060 C   0  0  0  0  0  2  0  0  0  0  0  0
  184.4290  178.6330  144.2900 C   0  0  0  0  0  3  0  0  0  0  0  0
  187.6150  177.6570  148.3850 Cl  0  0  0  0  0  0  0  0  0  0  0  0
  188.2680  177.6140  145.7910 C   0  0  0  0  0  3  0  0  0  0  0  0
  185.3790  179.1830  142.0890 C   0  0  0  0  0  2  0  0  0  0  0  0
  1  9  1  0  0  0  0
  1  2  1  0  0  0  0
  2 10  1  0  0  0  0
  3  6  1  0  0  0  0
  4  9  1  0  0  0  0
  5  8  1  0  0  0  0
  5  4  1  0  0  0  0
  6  4  2  0  0  0  0
  7  5  2  0  0  0  0
  8  1  2  0  0  0  0
  9 17  1  1  0  0  0
 10 12  2  0  0  0  0
 10 14  1  0  0  0  0
 11 15  1  0  0  0  0
 12 16  1  0  0  0  0
 14 13  1  0  0  0  0
 14 11  2  0  0  0  0
 16 11  1  0  0  0  0
 18 27  1  0  0  0  0
 19 25  1  6  0  0  0
 19 24  1  0  0  0  0
 20 17  1  6  0  0  0
 20 22  1  0  0  0  0
 21 26  1  0  0  0  0
 22 18  2  0  0  0  0
 22 19  1  0  0  0  0
 23 25  2  0  0  0  0
 24 21  1  0  0  0  0
 27 21  2  0  0  0  0
 28 20  1  0  0  0  0
 28 23  1  0  0  0  0
M  END
>  <MODEL>
3

>  <REMARK>
 VINA RESULT:      -8.8      1.314      1.555
  Name = 
  3 active torsions:
  status: ('A' for Active; 'I' for Inactive)
    1  A    between atoms: N_2  and  C_3
    2  A    between atoms: C_10  and  O_17
    3  A    between atoms: O_17  and  C_27
                            x       y       z     vdW  Elec       q    Type
                         _______ _______ _______ _____ _____    ______ ____

>  <TORSDO>
F 3

$$$$
=
 OpenBabel10262420453D

 28 31  0  0  1  0  0  0  0  0999 V2000
  190.6820  176.2460  143.4100 C   0  0  0  0  0  0  0  0  0  0  0  0
  190.4230  176.0620  142.0150 N   0  0  0  0  0  2  0  0  0  0  0  0
  191.0670  177.3870  148.0100 C   0  0  0  0  0  1  0  0  0  0  0  0
  190.5990  176.9690  145.6070 C   0  0  0  0  0  0  0  0  0  0  0  0
  191.6070  175.9530  145.3680 C   0  0  0  0  0  0  0  0  0  0  0  0
  190.3290  177.6230  146.7370 C   0  0  0  0  0  3  0  0  0  0  0  0
  192.3960  175.4750  146.2250 O   0  0  0  0  0  0  0  0  0  0  0  0
  191.5990  175.5540  144.0120 N   0  0  0  0  0  0  0  0  0  0  0  0
  189.8950  177.1760  144.3090 C   0  0  2  0  0  3  0  0  0  0  0  0
  189.7670  177.0000  141.1560 C   0  0  0  0  0  0  0  0  0  0  0  0
  189.1250  178.2250  139.4550 C   0  0  0  0  0  0  0  0  0  0  0  0
  188.6120  177.6900  141.4780 C   0  0  0  0  0  3  0  0  0  0  0  0
  191.1090  176.8130  139.0740 O   0  0  0  0  0  1  0  0  0  0  0  0
  190.0790  177.3240  139.8540 C   0  0  0  0  0  0  0  0  0  0  0  0
  189.0400  178.8800  138.1220 C   0  0  0  0  0  1  0  0  0  0  0  0
  188.2690  178.4210  140.4340 O   0  0  0  0  0  0  0  0  0  0  0  0
  188.5730  176.7260  144.4230 O   0  0  0  0  0  0  0  0  0  0  0  0
  186.3620  177.9990  143.1800 C   0  0  0  0  0  3  0  0  0  0  0  0
  185.2950  178.0660  145.4110 C   0  0  2  0  0  3  0  0  0  0  0  0
  187.8880  177.7380  145.1100 C   0  0  1  0  0  3  0  0  0  0  0  0
  184.0060  178.6190  143.3320 C   0  0  0  0  0  0  0  0  0  0  0  0
  186.5150  177.9550  144.5090 C   0  0  0  0  0  0  0  0  0  0  0  0
  186.8480  178.3030  147.3170 C   0  0  0  0  0  3  0  0  0  0  0  0
  184.2000  178.9390  144.7890 C   0  0  0  0  0  2  0  0  0  0  0  0
  185.6740  178.6220  146.7570 C   0  0  0  0  0  3  0  0  0  0  0  0
  182.4440  178.8890  142.5900 Cl  0  0  0  0  0  0  0  0  0  0  0  0
  185.0390  178.2380  142.5770 C   0  0  0  0  0  3  0  0  0  0  0  0
  187.7920  177.3800  146.6010 C   0  0  0  0  0  2  0  0  0  0  0  0
  1  8  2  0  0  0  0
  1  9  1  0  0  0  0
  2  1  1  0  0  0  0
  4  6  2  0  0  0  0
  5  4  1  0  0  0  0
  5  7  2  0  0  0  0
  6  3  1  0  0  0  0
  8  5  1  0  0  0  0
  9 17  1  1  0  0  0
  9  4  1  0  0  0  0
 10 12  2  0  0  0  0
 10  2  1  0  0  0  0
 11 14  2  0  0  0  0
 11 16  1  0  0  0  0
 13 14  1  0  0  0  0
 14 10  1  0  0  0  0
 15 11  1  0  0  0  0
 16 12  1  0  0  0  0
 18 22  2  0  0  0  0
 19 24  1  6  0  0  0
 19 25  1  0  0  0  0
 20 17  1  6  0  0  0
 20 28  1  0  0  0  0
 21 24  1  0  0  0  0
 22 20  1  0  0  0  0
 22 19  1  0  0  0  0
 25 23  2  0  0  0  0
 26 21  1  0  0  0  0
 27 18  1  0  0  0  0
 27 21  2  0  0  0  0
 28 23  1  0  0  0  0
M  END
>  <MODEL>
4

>  <REMARK>
 VINA RESULT:      -8.5      2.622      5.690
  Name = 
  3 active torsions:
  status: ('A' for Active; 'I' for Inactive)
    1  A    between atoms: N_2  and  C_3
    2  A    between atoms: C_10  and  O_17
    3  A    between atoms: O_17  and  C_27
                            x       y       z     vdW  Elec       q    Type
                         _______ _______ _______ _____ _____    ______ ____

>  <TORSDO>
F 3

$$$$
=
 OpenBabel10262420453D

 28 31  0  0  1  0  0  0  0  0999 V2000
  190.2050  176.5850  141.9260 C   0  0  0  0  0  0  0  0  0  0  0  0
  190.1090  176.3780  140.5140 N   0  0  0  0  0  2  0  0  0  0  0  0
  190.0080  177.7580  146.5300 C   0  0  0  0  0  1  0  0  0  0  0  0
  189.8300  177.2990  144.0950 C   0  0  0  0  0  0  0  0  0  0  0  0
  190.9440  176.3780  143.9710 C   0  0  0  0  0  0  0  0  0  0  0  0
  189.3870  177.9270  145.1850 C   0  0  0  0  0  3  0  0  0  0  0  0
  191.6800  175.9740  144.9100 O   0  0  0  0  0  0  0  0  0  0  0  0
  191.1130  175.9800  142.6250 N   0  0  0  0  0  0  0  0  0  0  0  0
  189.2490  177.4410  142.7300 C   0  0  2  0  0  3  0  0  0  0  0  0
  189.4640  177.2520  139.5820 C   0  0  0  0  0  0  0  0  0  0  0  0
  188.2800  178.1010  137.9420 C   0  0  0  0  0  0  0  0  0  0  0  0
  189.3910  178.6280  139.7120 C   0  0  0  0  0  3  0  0  0  0  0  0
  188.4540  175.6420  137.9820 O   0  0  0  0  0  1  0  0  0  0  0  0
  188.7320  176.9150  138.4640 C   0  0  0  0  0  0  0  0  0  0  0  0
  187.4490  178.2610  136.7190 C   0  0  0  0  0  1  0  0  0  0  0  0
  188.6830  179.0970  138.7010 O   0  0  0  0  0  0  0  0  0  0  0  0
  187.9680  176.8740  142.7110 O   0  0  0  0  0  0  0  0  0  0  0  0
  186.2310  178.3210  140.9950 C   0  0  0  0  0  3  0  0  0  0  0  0
  184.5520  178.2310  142.8110 C   0  0  2  0  0  3  0  0  0  0  0  0
  187.1170  177.8450  143.2560 C   0  0  1  0  0  3  0  0  0  0  0  0
  183.9390  179.0030  140.5040 C   0  0  0  0  0  0  0  0  0  0  0  0
  185.9840  178.1580  142.3000 C   0  0  0  0  0  0  0  0  0  0  0  0
  185.4740  178.2530  145.1020 C   0  0  0  0  0  3  0  0  0  0  0  0
  183.6960  179.1900  141.9760 C   0  0  0  0  0  2  0  0  0  0  0  0
  184.5210  178.6570  144.2530 C   0  0  0  0  0  3  0  0  0  0  0  0
  182.6680  179.3870  139.3640 Cl  0  0  0  0  0  0  0  0  0  0  0  0
  185.1470  178.6530  140.0540 C   0  0  0  0  0  3  0  0  0  0  0  0
  186.5820  177.3640  144.6140 C   0  0  0  0  0  2  0  0  0  0  0  0
  1  8  2  0  0  0  0
  1  9  1  0  0  0  0
  2  1  1  0  0  0  0
  4  6  2  0  0  0  0
  5  4  1  0  0  0  0
  5  7  2  0  0  0  0
  6  3  1  0  0  0  0
  8  5  1  0  0  0  0
  9 17  1  1  0  0  0
  9  4  1  0  0  0  0
 10 12  2  0  0  0  0
 10  2  1  0  0  0  0
 11 14  2  0  0  0  0
 11 16  1  0  0  0  0
 13 14  1  0  0  0  0
 14 10  1  0  0  0  0
 15 11  1  0  0  0  0
 16 12  1  0  0  0  0
 18 22  2  0  0  0  0
 19 24  1  6  0  0  0
 19 25  1  0  0  0  0
 20 17  1  6  0  0  0
 20 28  1  0  0  0  0
 21 24  1  0  0  0  0
 22 19  1  0  0  0  0
 22 20  1  0  0  0  0
 25 23  2  0  0  0  0
 26 21  1  0  0  0  0
 27 21  2  0  0  0  0
 27 18  1  0  0  0  0
 28 23  1  0  0  0  0
M  END
>  <MODEL>
5

>  <REMARK>
 VINA RESULT:      -8.4      2.929      5.862
  Name = 
  3 active torsions:
  status: ('A' for Active; 'I' for Inactive)
    1  A    between atoms: N_2  and  C_3
    2  A    between atoms: C_10  and  O_17
    3  A    between atoms: O_17  and  C_27
                            x       y       z     vdW  Elec       q    Type
                         _______ _______ _______ _____ _____    ______ ____

>  <TORSDO>
F 3

$$$$
=
 OpenBabel10262420453D

 28 31  0  0  1  0  0  0  0  0999 V2000
  189.8110  177.8100  139.7800 C   0  0  0  0  0  0  0  0  0  0  0  0
  190.6870  177.9020  140.9070 N   0  0  0  0  0  2  0  0  0  0  0  0
  186.4020  177.3060  136.5040 C   0  0  0  0  0  1  0  0  0  0  0  0
  187.9470  177.5600  138.4320 C   0  0  0  0  0  0  0  0  0  0  0  0
  189.1620  177.8500  137.6940 C   0  0  0  0  0  0  0  0  0  0  0  0
  186.7250  177.3130  137.9590 C   0  0  0  0  0  3  0  0  0  0  0  0
  189.2610  177.9590  136.4440 O   0  0  0  0  0  0  0  0  0  0  0  0
  190.2560  177.9950  138.5770 N   0  0  0  0  0  0  0  0  0  0  0  0
  188.3200  177.5700  139.8760 C   0  0  2  0  0  3  0  0  0  0  0  0
  190.4490  177.3360  142.2000 C   0  0  0  0  0  0  0  0  0  0  0  0
  190.1580  177.0080  144.3490 C   0  0  0  0  0  0  0  0  0  0  0  0
  189.9850  176.0520  142.4260 C   0  0  0  0  0  3  0  0  0  0  0  0
  190.8770  179.2740  143.6940 O   0  0  0  0  0  1  0  0  0  0  0  0
  190.5350  177.9540  143.4290 C   0  0  0  0  0  0  0  0  0  0  0  0
  190.0980  177.1940  145.8240 C   0  0  0  0  0  1  0  0  0  0  0  0
  189.8350  175.8950  143.7280 O   0  0  0  0  0  0  0  0  0  0  0  0
  187.7000  178.6570  140.5060 O   0  0  0  0  0  0  0  0  0  0  0  0
  186.9670  177.9280  143.1490 C   0  0  0  0  0  3  0  0  0  0  0  0
  184.7740  178.9860  142.7080 C   0  0  2  0  0  3  0  0  0  0  0  0
  186.3850  178.2440  140.7650 C   0  0  1  0  0  3  0  0  0  0  0  0
  185.4400  178.2800  145.0210 C   0  0  0  0  0  0  0  0  0  0  0  0
  186.0760  178.3490  142.2430 C   0  0  0  0  0  0  0  0  0  0  0  0
  183.9870  178.8500  140.3710 C   0  0  0  0  0  3  0  0  0  0  0  0
  184.3010  178.4110  144.0470 C   0  0  0  0  0  2  0  0  0  0  0  0
  183.6940  178.8080  141.6760 C   0  0  0  0  0  3  0  0  0  0  0  0
  185.1200  178.3590  146.7400 Cl  0  0  0  0  0  0  0  0  0  0  0  0
  186.6720  177.9950  144.5910 C   0  0  0  0  0  3  0  0  0  0  0  0
  185.4040  179.0830  139.9300 C   0  0  0  0  0  2  0  0  0  0  0  0
  1  9  1  0  0  0  0
  1  2  1  0  0  0  0
  2 10  1  0  0  0  0
  3  6  1  0  0  0  0
  4  9  1  0  0  0  0
  5  4  1  0  0  0  0
  5  8  1  0  0  0  0
  6  4  2  0  0  0  0
  7  5  2  0  0  0  0
  8  1  2  0  0  0  0
  9 17  1  1  0  0  0
 10 12  2  0  0  0  0
 10 14  1  0  0  0  0
 11 15  1  0  0  0  0
 12 16  1  0  0  0  0
 14 13  1  0  0  0  0
 14 11  2  0  0  0  0
 16 11  1  0  0  0  0
 18 27  1  0  0  0  0
 19 25  1  6  0  0  0
 19 24  1  0  0  0  0
 20 17  1  1  0  0  0
 20 22  1  0  0  0  0
 21 26  1  0  0  0  0
 22 19  1  0  0  0  0
 22 18  2  0  0  0  0
 23 25  2  0  0  0  0
 24 21  1  0  0  0  0
 27 21  2  0  0  0  0
 28 23  1  0  0  0  0
 28 20  1  0  0  0  0
M  END
>  <MODEL>
6

>  <REMARK>
 VINA RESULT:      -8.2      1.899      2.927
  Name = 
  3 active torsions:
  status: ('A' for Active; 'I' for Inactive)
    1  A    between atoms: N_2  and  C_3
    2  A    between atoms: C_10  and  O_17
    3  A    between atoms: O_17  and  C_27
                            x       y       z     vdW  Elec       q    Type
                         _______ _______ _______ _____ _____    ______ ____

>  <TORSDO>
F 3

$$$$
=
 OpenBabel10262420453D

 28 31  0  0  1  0  0  0  0  0999 V2000
  186.2390  178.6540  139.4860 C   0  0  0  0  0  0  0  0  0  0  0  0
  187.6450  178.7060  139.2240 N   0  0  0  0  0  2  0  0  0  0  0  0
  181.7450  178.1220  140.9460 C   0  0  0  0  0  1  0  0  0  0  0  0
  184.1770  178.3130  140.4800 C   0  0  0  0  0  0  0  0  0  0  0  0
  184.0950  178.9280  139.1690 C   0  0  0  0  0  0  0  0  0  0  0  0
  183.1850  177.9410  141.2890 C   0  0  0  0  0  3  0  0  0  0  0  0
  183.0380  179.2610  138.5710 O   0  0  0  0  0  0  0  0  0  0  0  0
  185.3860  179.1110  138.6230 N   0  0  0  0  0  0  0  0  0  0  0  0
  185.6300  178.1470  140.7750 C   0  0  2  0  0  3  0  0  0  0  0  0
  188.6440  177.8990  139.8570 C   0  0  0  0  0  0  0  0  0  0  0  0
  190.1000  177.0360  141.2500 C   0  0  0  0  0  0  0  0  0  0  0  0
  189.0860  176.6770  139.3840 C   0  0  0  0  0  3  0  0  0  0  0  0
  189.0850  179.1740  141.9430 O   0  0  0  0  0  1  0  0  0  0  0  0
  189.2750  178.1150  141.0620 C   0  0  0  0  0  0  0  0  0  0  0  0
  191.0040  176.8140  142.4110 C   0  0  0  0  0  1  0  0  0  0  0  0
  189.9670  176.2000  140.2440 O   0  0  0  0  0  0  0  0  0  0  0  0
  185.9860  178.9890  141.8360 O   0  0  0  0  0  0  0  0  0  0  0  0
  187.4010  177.4660  143.7680 C   0  0  0  0  0  3  0  0  0  0  0  0
  186.0100  178.5730  145.4890 C   0  0  2  0  0  3  0  0  0  0  0  0
  185.3030  178.4950  142.9560 C   0  0  1  0  0  3  0  0  0  0  0  0
  188.0120  177.1960  146.1160 C   0  0  0  0  0  0  0  0  0  0  0  0
  186.2770  178.1320  144.0570 C   0  0  0  0  0  0  0  0  0  0  0  0
  183.7170  179.1540  144.7800 C   0  0  0  0  0  3  0  0  0  0  0  0
  186.6180  177.6030  146.5090 C   0  0  0  0  0  2  0  0  0  0  0  0
  184.5330  178.7040  145.7420 C   0  0  0  0  0  3  0  0  0  0  0  0
  189.1580  176.7340  147.3550 Cl  0  0  0  0  0  0  0  0  0  0  0  0
  188.3470  177.0780  144.8290 C   0  0  0  0  0  3  0  0  0  0  0  0
  184.2790  179.5340  143.4400 C   0  0  0  0  0  2  0  0  0  0  0  0
  1  9  1  0  0  0  0
  2  1  1  0  0  0  0
  2 10  1  0  0  0  0
  3  6  1  0  0  0  0
  4  9  1  0  0  0  0
  4  6  2  0  0  0  0
  5  4  1  0  0  0  0
  7  5  2  0  0  0  0
  8  5  1  0  0  0  0
  8  1  2  0  0  0  0
  9 17  1  1  0  0  0
 10 14  1  0  0  0  0
 11 15  1  0  0  0  0
 12 10  2  0  0  0  0
 12 16  1  0  0  0  0
 14 11  2  0  0  0  0
 14 13  1  0  0  0  0
 16 11  1  0  0  0  0
 18 22  2  0  0  0  0
 18 27  1  0  0  0  0
 19 25  1  1  0  0  0
 19 24  1  0  0  0  0
 20 17  1  6  0  0  0
 20 28  1  0  0  0  0
 20 22  1  0  0  0  0
 21 24  1  0  0  0  0
 21 26  1  0  0  0  0
 22 19  1  0  0  0  0
 23 25  2  0  0  0  0
 27 21  2  0  0  0  0
 28 23  1  0  0  0  0
M  END
>  <MODEL>
7

>  <REMARK>
 VINA RESULT:      -8.1      1.468      1.873
  Name = 
  3 active torsions:
  status: ('A' for Active; 'I' for Inactive)
    1  A    between atoms: N_2  and  C_3
    2  A    between atoms: C_10  and  O_17
    3  A    between atoms: O_17  and  C_27
                            x       y       z     vdW  Elec       q    Type
                         _______ _______ _______ _____ _____    ______ ____

>  <TORSDO>
F 3

$$$$
=
 OpenBabel10262420453D

 28 31  0  0  1  0  0  0  0  0999 V2000
  191.2960  177.4900  141.3240 C   0  0  0  0  0  0  0  0  0  0  0  0
  191.8710  177.9140  142.5640 N   0  0  0  0  0  2  0  0  0  0  0  0
  188.7850  175.9830  137.5780 C   0  0  0  0  0  1  0  0  0  0  0  0
  189.8140  176.8040  139.6840 C   0  0  0  0  0  0  0  0  0  0  0  0
  191.1760  176.9600  139.2080 C   0  0  0  0  0  0  0  0  0  0  0  0
  188.7420  176.3800  139.0150 C   0  0  0  0  0  3  0  0  0  0  0  0
  191.5800  176.7500  138.0340 O   0  0  0  0  0  0  0  0  0  0  0  0
  192.0230  177.3840  140.2570 N   0  0  0  0  0  0  0  0  0  0  0  0
  189.8230  177.2040  141.1200 C   0  0  2  0  0  3  0  0  0  0  0  0
  191.3170  177.6870  143.8640 C   0  0  0  0  0  0  0  0  0  0  0  0
  190.7620  176.8530  145.8140 C   0  0  0  0  0  0  0  0  0  0  0  0
  190.6570  178.6410  144.6180 C   0  0  0  0  0  3  0  0  0  0  0  0
  192.0540  175.3620  144.3350 O   0  0  0  0  0  1  0  0  0  0  0  0
  191.4050  176.5520  144.6400 C   0  0  0  0  0  0  0  0  0  0  0  0
  190.5800  175.9380  146.9740 C   0  0  0  0  0  1  0  0  0  0  0  0
  190.3320  178.0950  145.7740 O   0  0  0  0  0  0  0  0  0  0  0  0
  189.0810  178.3810  141.2780 O   0  0  0  0  0  0  0  0  0  0  0  0
  187.6710  177.7180  143.6510 C   0  0  0  0  0  3  0  0  0  0  0  0
  185.6900  178.8010  142.6370 C   0  0  2  0  0  3  0  0  0  0  0  0
  187.7360  177.9940  141.1920 C   0  0  1  0  0  3  0  0  0  0  0  0
  185.7180  178.1320  145.0550 C   0  0  0  0  0  0  0  0  0  0  0  0
  187.0550  178.1340  142.5370 C   0  0  0  0  0  0  0  0  0  0  0  0
  185.5350  178.6280  140.1780 C   0  0  0  0  0  3  0  0  0  0  0  0
  184.8740  178.2600  143.8160 C   0  0  0  0  0  2  0  0  0  0  0  0
  184.9120  178.6170  141.3630 C   0  0  0  0  0  3  0  0  0  0  0  0
  184.9640  178.2520  146.6290 Cl  0  0  0  0  0  0  0  0  0  0  0  0
  187.0130  177.8200  144.9650 C   0  0  0  0  0  3  0  0  0  0  0  0
  187.0220  178.8300  140.1180 C   0  0  0  0  0  2  0  0  0  0  0  0
  1  2  1  0  0  0  0
  2 10  1  0  0  0  0
  3  6  1  0  0  0  0
  4  9  1  0  0  0  0
  5  4  1  0  0  0  0
  5  8  1  0  0  0  0
  6  4  2  0  0  0  0
  7  5  2  0  0  0  0
  8  1  2  0  0  0  0
  9 17  1  6  0  0  0
  9  1  1  0  0  0  0
 10 12  2  0  0  0  0
 10 14  1  0  0  0  0
 11 15  1  0  0  0  0
 12 16  1  0  0  0  0
 13 14  1  0  0  0  0
 14 11  2  0  0  0  0
 16 11  1  0  0  0  0
 18 27  1  0  0  0  0
 19 25  1  6  0  0  0
 19 24  1  0  0  0  0
 20 17  1  1  0  0  0
 20 22  1  0  0  0  0
 21 26  1  0  0  0  0
 22 19  1  0  0  0  0
 22 18  2  0  0  0  0
 23 25  2  0  0  0  0
 24 21  1  0  0  0  0
 27 21  2  0  0  0  0
 28 23  1  0  0  0  0
 28 20  1  0  0  0  0
M  END
>  <MODEL>
8

>  <REMARK>
 VINA RESULT:      -8.0      2.325      3.916
  Name = 
  3 active torsions:
  status: ('A' for Active; 'I' for Inactive)
    1  A    between atoms: N_2  and  C_3
    2  A    between atoms: C_10  and  O_17
    3  A    between atoms: O_17  and  C_27
                            x       y       z     vdW  Elec       q    Type
                         _______ _______ _______ _____ _____    ______ ____

>  <TORSDO>
F 3

$$$$
=
 OpenBabel10262420453D

 28 31  0  0  1  0  0  0  0  0999 V2000
  184.9250  178.9770  138.9140 C   0  0  0  0  0  0  0  0  0  0  0  0
  186.0630  178.9300  138.0490 N   0  0  0  0  0  2  0  0  0  0  0  0
  181.5030  178.6770  142.2020 C   0  0  0  0  0  1  0  0  0  0  0  0
  183.4820  178.6970  140.7020 C   0  0  0  0  0  0  0  0  0  0  0  0
  182.9290  179.5040  139.6300 C   0  0  0  0  0  0  0  0  0  0  0  0
  182.9000  178.3090  141.8370 C   0  0  0  0  0  3  0  0  0  0  0  0
  181.7820  180.0220  139.6090 O   0  0  0  0  0  0  0  0  0  0  0  0
  183.8620  179.6380  138.5770 N   0  0  0  0  0  0  0  0  0  0  0  0
  184.8720  178.3480  140.2900 C   0  0  2  0  0  3  0  0  0  0  0  0
  187.1020  177.9450  138.0860 C   0  0  0  0  0  0  0  0  0  0  0  0
  188.9710  176.8490  138.4190 C   0  0  0  0  0  0  0  0  0  0  0  0
  186.9400  176.6160  137.7390 C   0  0  0  0  0  3  0  0  0  0  0  0
  188.9870  179.2250  139.0750 O   0  0  0  0  0  1  0  0  0  0  0  0
  188.3930  178.0870  138.5430 C   0  0  0  0  0  0  0  0  0  0  0  0
  190.3710  176.4940  138.7750 C   0  0  0  0  0  1  0  0  0  0  0  0
  188.0880  175.9980  137.9440 O   0  0  0  0  0  0  0  0  0  0  0  0
  185.7820  178.9860  141.1430 O   0  0  0  0  0  0  0  0  0  0  0  0
  187.9440  177.2930  141.8610 C   0  0  0  0  0  3  0  0  0  0  0  0
  187.5830  178.0170  144.1990 C   0  0  2  0  0  3  0  0  0  0  0  0
  185.7270  178.2770  142.3510 C   0  0  1  0  0  3  0  0  0  0  0  0
  189.6200  176.7120  143.5370 C   0  0  0  0  0  0  0  0  0  0  0  0
  187.1110  177.8220  142.7650 C   0  0  0  0  0  0  0  0  0  0  0  0
  185.2410  178.5290  144.7950 C   0  0  0  0  0  3  0  0  0  0  0  0
  188.6000  176.9500  144.6170 C   0  0  0  0  0  2  0  0  0  0  0  0
  186.4180  177.9990  145.1510 C   0  0  0  0  0  3  0  0  0  0  0  0
  191.2210  176.1520  143.9700 Cl  0  0  0  0  0  0  0  0  0  0  0  0
  189.2840  176.8180  142.2490 C   0  0  0  0  0  3  0  0  0  0  0  0
  185.0810  179.1510  143.4380 C   0  0  0  0  0  2  0  0  0  0  0  0
  1  9  1  0  0  0  0
  2 10  1  0  0  0  0
  2  1  1  0  0  0  0
  4  6  2  0  0  0  0
  5  4  1  0  0  0  0
  6  3  1  0  0  0  0
  7  5  2  0  0  0  0
  8  1  2  0  0  0  0
  8  5  1  0  0  0  0
  9  4  1  0  0  0  0
  9 17  1  1  0  0  0
 10 14  1  0  0  0  0
 11 14  2  0  0  0  0
 11 15  1  0  0  0  0
 12 16  1  0  0  0  0
 12 10  2  0  0  0  0
 14 13  1  0  0  0  0
 16 11  1  0  0  0  0
 18 27  1  0  0  0  0
 18 22  2  0  0  0  0
 19 24  1  1  0  0  0
 19 25  1  0  0  0  0
 20 17  1  6  0  0  0
 20 22  1  0  0  0  0
 20 28  1  0  0  0  0
 21 26  1  0  0  0  0
 21 24  1  0  0  0  0
 22 19  1  0  0  0  0
 23 25  2  0  0  0  0
 27 21  2  0  0  0  0
 28 23  1  0  0  0  0
M  END
>  <MODEL>
9

>  <REMARK>
 VINA RESULT:      -8.0      2.451      3.915
  Name = 
  3 active torsions:
  status: ('A' for Active; 'I' for Inactive)
    1  A    between atoms: N_2  and  C_3
    2  A    between atoms: C_10  and  O_17
    3  A    between atoms: O_17  and  C_27
                            x       y       z     vdW  Elec       q    Type
                         _______ _______ _______ _____ _____    ______ ____

>  <TORSDO>
F 3

$$$$
