=
 OpenBabel10252414593D

 34 39  0  0  1  0  0  0  0  0999 V2000
  188.5910  176.9410  145.4310 C   0  0  1  0  0  3  0  0  0  0  0  0
  190.3770  176.7520  143.6090 C   0  0  2  0  0  3  0  0  0  0  0  0
  188.0390  177.5750  143.0660 C   0  0  0  0  0  0  0  0  0  0  0  0
  187.3970  178.2100  140.8350 N   0  0  0  0  0  0  0  0  0  0  0  0
  190.9990  177.3250  145.9730 C   0  0  0  0  0  3  0  0  0  0  0  0
  191.3590  176.9280  144.7440 C   0  0  0  0  0  3  0  0  0  0  0  0
  189.5560  177.6550  141.0330 C   0  0  0  0  0  3  0  0  0  0  0  0
  188.9600  177.1390  143.9760 C   0  0  0  0  0  0  0  0  0  0  0  0
  187.9330  178.3520  139.6140 C   0  0  0  0  0  3  0  0  0  0  0  0
  189.5820  177.6980  146.3080 C   0  0  0  0  0  2  0  0  0  0  0  0
  186.6940  177.8480  143.4690 C   0  0  0  0  0  0  0  0  0  0  0  0
  187.2690  177.3710  145.7370 O   0  0  0  0  0  0  0  0  0  0  0  0
  190.4160  175.3100  143.1390 C   0  0  0  0  0  1  0  0  0  0  0  0
  186.1160  178.4480  141.1820 C   0  0  0  0  0  3  0  0  0  0  0  0
  185.7180  178.2650  142.5120 C   0  0  0  0  0  0  0  0  0  0  0  0
  189.2680  178.0100  139.7260 C   0  0  0  0  0  0  0  0  0  0  0  0
  188.3430  177.7920  141.6970 C   0  0  0  0  0  0  0  0  0  0  0  0
  186.3540  177.7530  144.7590 C   0  0  0  0  0  3  0  0  0  0  0  0
  181.9620  178.7680  142.1750 C   0  0  0  0  0  0  0  0  0  0  0  0
  181.6110  179.0910  143.4880 C   0  0  0  0  0  3  0  0  0  0  0  0
  184.2900  178.5250  142.8440 C   0  0  0  0  0  0  0  0  0  0  0  0
  182.5930  179.1390  144.4800 C   0  0  0  0  0  3  0  0  0  0  0  0
  183.2940  178.4940  141.8540 C   0  0  0  0  0  3  0  0  0  0  0  0
  183.9260  178.8620  144.1590 C   0  0  0  0  0  3  0  0  0  0  0  0
  181.0110  178.7270  141.2110 F   0  0  0  0  0  0  0  0  0  0  0  0
  190.2220  178.0170  138.6660 N   0  0  0  0  0  2  0  0  0  0  0  0
  190.1030  177.1400  137.5130 C   0  0  0  0  0  2  0  0  0  0  0  0
  189.6380  174.2530  136.9900 C   0  0  0  0  0  1  0  0  0  0  0  0
  191.2230  176.1530  137.5150 C   0  0  0  0  0  0  0  0  0  0  0  0
  191.0000  174.7850  137.2790 C   0  0  0  0  0  0  0  0  0  0  0  0
  193.3130  174.3630  137.5800 C   0  0  0  0  0  3  0  0  0  0  0  0
  193.5330  175.7190  137.8210 C   0  0  0  0  0  3  0  0  0  0  0  0
  192.4840  176.5820  137.7850 N   0  0  0  0  0  0  0  0  0  0  0  0
  192.0530  173.9270  137.3160 N   0  0  0  0  0  0  0  0  0  0  0  0
  1 12  1  0  0  0  0
  1 10  1  1  0  0  0
  2 13  1  1  0  0  0
  2  8  1  0  0  0  0
  2  6  1  0  0  0  0
  3 11  1  0  0  0  0
  3  8  2  0  0  0  0
  4 14  1  0  0  0  0
  4 17  1  0  0  0  0
  5 10  1  0  0  0  0
  6  5  2  0  0  0  0
  7 17  2  0  0  0  0
  8  1  1  0  0  0  0
  9 16  2  0  0  0  0
  9  4  1  0  0  0  0
 11 18  2  0  0  0  0
 14 15  2  0  0  0  0
 15 21  1  0  0  0  0
 15 11  1  0  0  0  0
 16  7  1  0  0  0  0
 17  3  1  0  0  0  0
 18 12  1  0  0  0  0
 19 20  1  0  0  0  0
 20 22  2  0  0  0  0
 21 24  2  0  0  0  0
 23 19  2  0  0  0  0
 23 21  1  0  0  0  0
 24 22  1  0  0  0  0
 25 19  1  0  0  0  0
 26 16  1  0  0  0  0
 27 29  1  0  0  0  0
 27 26  1  0  0  0  0
 28 30  1  0  0  0  0
 29 33  1  0  0  0  0
 30 34  1  0  0  0  0
 30 29  2  0  0  0  0
 31 32  1  0  0  0  0
 33 32  2  0  0  0  0
 34 31  2  0  0  0  0
M  END
>  <MODEL>
1

>  <REMARK>
 VINA RESULT:     -10.4      0.000      0.000
  Name = 
  4 active torsions:
  status: ('A' for Active; 'I' for Inactive)
    1  A    between atoms: C_3  and  C_13
    2  A    between atoms: C_3  and  N_17
    3  A    between atoms: C_12  and  C_28
    4  A    between atoms: N_17  and  C_29
                            x       y       z     vdW  Elec       q    Type
                         _______ _______ _______ _____ _____    ______ ____

>  <TORSDO>
F 4

$$$$
=
 OpenBabel10252414593D

 34 39  0  0  1  0  0  0  0  0999 V2000
  188.6690  176.9530  145.4590 C   0  0  1  0  0  3  0  0  0  0  0  0
  190.4240  176.7280  143.6120 C   0  0  2  0  0  3  0  0  0  0  0  0
  188.0840  177.5600  143.0950 C   0  0  0  0  0  0  0  0  0  0  0  0
  187.4110  178.1710  140.8670 N   0  0  0  0  0  0  0  0  0  0  0  0
  191.0880  177.3260  145.9580 C   0  0  0  0  0  3  0  0  0  0  0  0
  191.4260  176.9110  144.7280 C   0  0  0  0  0  3  0  0  0  0  0  0
  189.5680  177.6020  141.0370 C   0  0  0  0  0  3  0  0  0  0  0  0
  189.0160  177.1290  143.9960 C   0  0  0  0  0  0  0  0  0  0  0  0
  187.9280  178.2930  139.6350 C   0  0  0  0  0  3  0  0  0  0  0  0
  189.6790  177.7130  146.3100 C   0  0  0  0  0  2  0  0  0  0  0  0
  186.7470  177.8480  143.5150 C   0  0  0  0  0  0  0  0  0  0  0  0
  187.3550  177.3960  145.7800 O   0  0  0  0  0  0  0  0  0  0  0  0
  190.4450  175.2790  143.1590 C   0  0  0  0  0  1  0  0  0  0  0  0
  186.1380  178.4230  141.2310 C   0  0  0  0  0  3  0  0  0  0  0  0
  185.7600  178.2600  142.5690 C   0  0  0  0  0  0  0  0  0  0  0  0
  189.2620  177.9430  139.7310 C   0  0  0  0  0  0  0  0  0  0  0  0
  188.3670  177.7570  141.7190 C   0  0  0  0  0  0  0  0  0  0  0  0
  186.4270  177.7720  144.8120 C   0  0  0  0  0  3  0  0  0  0  0  0
  182.0080  178.8270  142.2790 C   0  0  0  0  0  0  0  0  0  0  0  0
  181.6750  179.1270  143.6020 C   0  0  0  0  0  3  0  0  0  0  0  0
  184.3390  178.5350  142.9200 C   0  0  0  0  0  0  0  0  0  0  0  0
  182.6670  179.1390  144.5850 C   0  0  0  0  0  3  0  0  0  0  0  0
  183.3330  178.5390  141.9400 C   0  0  0  0  0  3  0  0  0  0  0  0
  183.9920  178.8490  144.2450 C   0  0  0  0  0  3  0  0  0  0  0  0
  181.0480  178.8200  141.3230 F   0  0  0  0  0  0  0  0  0  0  0  0
  190.1990  177.9300  138.6550 N   0  0  0  0  0  2  0  0  0  0  0  0
  189.8040  177.6290  137.2890 C   0  0  0  0  0  2  0  0  0  0  0  0
  187.2070  176.3390  136.6430 C   0  0  0  0  0  1  0  0  0  0  0  0
  189.6850  176.1510  137.1140 C   0  0  0  0  0  0  0  0  0  0  0  0
  188.4540  175.5410  136.8210 C   0  0  0  0  0  0  0  0  0  0  0  0
  189.5050  173.4160  136.8530 C   0  0  0  0  0  3  0  0  0  0  0  0
  190.7260  174.0220  137.1520 C   0  0  0  0  0  3  0  0  0  0  0  0
  190.7880  175.3730  137.2780 N   0  0  0  0  0  0  0  0  0  0  0  0
  188.3980  174.1880  136.6950 N   0  0  0  0  0  0  0  0  0  0  0  0
  1 12  1  0  0  0  0
  1 10  1  1  0  0  0
  2 13  1  1  0  0  0
  2  8  1  0  0  0  0
  2  6  1  0  0  0  0
  3 11  1  0  0  0  0
  3  8  2  0  0  0  0
  4 14  1  0  0  0  0
  4 17  1  0  0  0  0
  5 10  1  0  0  0  0
  6  5  2  0  0  0  0
  7 17  2  0  0  0  0
  8  1  1  0  0  0  0
  9 16  2  0  0  0  0
  9  4  1  0  0  0  0
 11 18  2  0  0  0  0
 14 15  2  0  0  0  0
 15 21  1  0  0  0  0
 15 11  1  0  0  0  0
 16  7  1  0  0  0  0
 17  3  1  0  0  0  0
 18 12  1  0  0  0  0
 19 20  1  0  0  0  0
 20 22  2  0  0  0  0
 21 24  2  0  0  0  0
 23 19  2  0  0  0  0
 23 21  1  0  0  0  0
 24 22  1  0  0  0  0
 25 19  1  0  0  0  0
 26 16  1  0  0  0  0
 27 26  1  0  0  0  0
 28 30  1  0  0  0  0
 29 33  1  0  0  0  0
 29 27  1  0  0  0  0
 30 29  2  0  0  0  0
 31 32  1  0  0  0  0
 32 33  2  0  0  0  0
 34 30  1  0  0  0  0
 34 31  2  0  0  0  0
M  END
>  <MODEL>
2

>  <REMARK>
 VINA RESULT:     -10.3      0.995      1.396
  Name = 
  4 active torsions:
  status: ('A' for Active; 'I' for Inactive)
    1  A    between atoms: C_3  and  C_13
    2  A    between atoms: C_3  and  N_17
    3  A    between atoms: C_12  and  C_28
    4  A    between atoms: N_17  and  C_29
                            x       y       z     vdW  Elec       q    Type
                         _______ _______ _______ _____ _____    ______ ____

>  <TORSDO>
F 4

$$$$
=
 OpenBabel10252414593D

 34 39  0  0  1  0  0  0  0  0999 V2000
  186.0380  177.7770  145.6180 C   0  0  1  0  0  3  0  0  0  0  0  0
  187.8320  177.5610  143.8080 C   0  0  2  0  0  3  0  0  0  0  0  0
  185.4710  178.2830  143.2260 C   0  0  0  0  0  0  0  0  0  0  0  0
  184.8130  178.7940  140.9690 N   0  0  0  0  0  0  0  0  0  0  0  0
  188.4320  178.2610  146.1430 C   0  0  0  0  0  3  0  0  0  0  0  0
  188.8070  177.8190  144.9330 C   0  0  0  0  0  3  0  0  0  0  0  0
  186.9870  178.3160  141.1920 C   0  0  0  0  0  3  0  0  0  0  0  0
  186.4040  177.9190  144.1560 C   0  0  0  0  0  0  0  0  0  0  0  0
  185.3460  178.8960  139.7420 C   0  0  0  0  0  3  0  0  0  0  0  0
  187.0040  178.6050  146.4590 C   0  0  0  0  0  2  0  0  0  0  0  0
  184.1170  178.5320  143.6160 C   0  0  0  0  0  0  0  0  0  0  0  0
  184.7030  178.1790  145.9040 O   0  0  0  0  0  0  0  0  0  0  0  0
  187.9170  176.1000  143.4050 C   0  0  0  0  0  1  0  0  0  0  0  0
  183.5250  179.0080  141.3040 C   0  0  0  0  0  3  0  0  0  0  0  0
  183.1300  178.8740  142.6410 C   0  0  0  0  0  0  0  0  0  0  0  0
  186.6900  178.6020  139.8710 C   0  0  0  0  0  0  0  0  0  0  0  0
  185.7700  178.4460  141.8490 C   0  0  0  0  0  0  0  0  0  0  0  0
  183.7780  178.4870  144.9090 C   0  0  0  0  0  3  0  0  0  0  0  0
  179.6820  178.5560  144.2170 C   0  0  0  0  0  0  0  0  0  0  0  0
  178.9630  179.5110  143.4960 C   0  0  0  0  0  3  0  0  0  0  0  0
  181.6940  179.1040  142.9610 C   0  0  0  0  0  0  0  0  0  0  0  0
  179.6000  180.2600  142.5030 C   0  0  0  0  0  3  0  0  0  0  0  0
  181.0370  178.3490  143.9470 C   0  0  0  0  0  3  0  0  0  0  0  0
  180.9570  180.0550  142.2340 C   0  0  0  0  0  3  0  0  0  0  0  0
  179.0640  177.8250  145.1760 F   0  0  0  0  0  0  0  0  0  0  0  0
  187.6460  178.5900  138.8110 N   0  0  0  0  0  2  0  0  0  0  0  0
  189.0760  178.6810  139.0580 C   0  0  0  0  0  2  0  0  0  0  0  0
  190.5550  176.7650  140.7790 C   0  0  0  0  0  1  0  0  0  0  0  0
  189.7620  177.4850  138.4870 C   0  0  0  0  0  0  0  0  0  0  0  0
  190.4710  176.5850  139.3010 C   0  0  0  0  0  0  0  0  0  0  0  0
  191.0550  175.3200  137.3820 C   0  0  0  0  0  3  0  0  0  0  0  0
  190.3570  176.2180  136.5740 C   0  0  0  0  0  3  0  0  0  0  0  0
  189.7290  177.2800  137.1440 N   0  0  0  0  0  0  0  0  0  0  0  0
  191.0980  175.5250  138.7250 N   0  0  0  0  0  0  0  0  0  0  0  0
  1 12  1  0  0  0  0
  1 10  1  1  0  0  0
  2 13  1  1  0  0  0
  2  8  1  0  0  0  0
  2  6  1  0  0  0  0
  3 11  1  0  0  0  0
  3  8  2  0  0  0  0
  4 14  1  0  0  0  0
  4 17  1  0  0  0  0
  5 10  1  0  0  0  0
  6  5  2  0  0  0  0
  7 17  2  0  0  0  0
  8  1  1  0  0  0  0
  9 16  2  0  0  0  0
  9  4  1  0  0  0  0
 11 18  2  0  0  0  0
 14 15  2  0  0  0  0
 15 21  1  0  0  0  0
 15 11  1  0  0  0  0
 16  7  1  0  0  0  0
 17  3  1  0  0  0  0
 18 12  1  0  0  0  0
 19 25  1  0  0  0  0
 20 19  2  0  0  0  0
 21 23  2  0  0  0  0
 22 20  1  0  0  0  0
 23 19  1  0  0  0  0
 24 22  2  0  0  0  0
 24 21  1  0  0  0  0
 26 27  1  0  0  0  0
 26 16  1  0  0  0  0
 29 27  1  0  0  0  0
 29 30  1  0  0  0  0
 30 28  1  0  0  0  0
 31 34  1  0  0  0  0
 32 33  1  0  0  0  0
 32 31  2  0  0  0  0
 33 29  2  0  0  0  0
 34 30  2  0  0  0  0
M  END
>  <MODEL>
3

>  <REMARK>
 VINA RESULT:      -9.5      1.770      2.916
  Name = 
  4 active torsions:
  status: ('A' for Active; 'I' for Inactive)
    1  A    between atoms: C_3  and  C_13
    2  A    between atoms: C_3  and  N_17
    3  A    between atoms: C_12  and  C_28
    4  A    between atoms: N_17  and  C_29
                            x       y       z     vdW  Elec       q    Type
                         _______ _______ _______ _____ _____    ______ ____

>  <TORSDO>
F 4

$$$$
=
 OpenBabel10252414593D

 34 39  0  0  1  0  0  0  0  0999 V2000
  181.9480  178.8810  141.5640 C   0  0  1  0  0  3  0  0  0  0  0  0
  182.8880  178.9660  139.1860 C   0  0  2  0  0  3  0  0  0  0  0  0
  184.4150  178.6270  141.1830 C   0  0  0  0  0  0  0  0  0  0  0  0
  186.7960  178.3710  140.9400 N   0  0  0  0  0  0  0  0  0  0  0  0
  180.6030  178.0280  139.6390 C   0  0  0  0  0  3  0  0  0  0  0  0
  181.5140  178.4950  138.7710 C   0  0  0  0  0  3  0  0  0  0  0  0
  185.6970  178.5190  138.9960 C   0  0  0  0  0  3  0  0  0  0  0  0
  183.1620  178.7900  140.6640 C   0  0  0  0  0  0  0  0  0  0  0  0
  187.7250  178.2790  139.9770 C   0  0  0  0  0  3  0  0  0  0  0  0
  180.9050  177.8690  141.1030 C   0  0  0  0  0  2  0  0  0  0  0  0
  184.6100  178.5460  142.5990 C   0  0  0  0  0  0  0  0  0  0  0  0
  182.2480  178.6540  142.9360 O   0  0  0  0  0  0  0  0  0  0  0  0
  183.0500  180.4240  138.7980 C   0  0  0  0  0  1  0  0  0  0  0  0
  187.0100  178.3190  142.2700 C   0  0  0  0  0  3  0  0  0  0  0  0
  185.9230  178.4150  143.1460 C   0  0  0  0  0  0  0  0  0  0  0  0
  187.0550  178.3710  138.7710 C   0  0  0  0  0  0  0  0  0  0  0  0
  185.5800  178.5190  140.3810 C   0  0  0  0  0  0  0  0  0  0  0  0
  183.5520  178.5500  143.4170 C   0  0  0  0  0  3  0  0  0  0  0  0
  187.5020  177.5320  146.4940 C   0  0  0  0  0  0  0  0  0  0  0  0
  186.6870  178.2440  147.3760 C   0  0  0  0  0  3  0  0  0  0  0  0
  186.2110  178.3690  144.6070 C   0  0  0  0  0  0  0  0  0  0  0  0
  185.6300  179.0140  146.8820 C   0  0  0  0  0  3  0  0  0  0  0  0
  187.2610  177.5890  145.1190 C   0  0  0  0  0  3  0  0  0  0  0  0
  185.3910  179.0720  145.5060 C   0  0  0  0  0  3  0  0  0  0  0  0
  188.5230  176.7810  146.9710 F   0  0  0  0  0  0  0  0  0  0  0  0
  187.6550  178.3200  137.4780 N   0  0  0  0  0  2  0  0  0  0  0  0
  189.0870  178.1430  137.2970 C   0  0  0  0  0  2  0  0  0  0  0  0
  191.0290  176.8540  139.1380 C   0  0  0  0  0  1  0  0  0  0  0  0
  189.4060  176.6880  137.2050 C   0  0  0  0  0  0  0  0  0  0  0  0
  190.3340  176.0810  138.0690 C   0  0  0  0  0  0  0  0  0  0  0  0
  189.9990  174.0100  136.9640 C   0  0  0  0  0  3  0  0  0  0  0  0
  189.0840  174.6150  136.1020 C   0  0  0  0  0  3  0  0  0  0  0  0
  188.8100  175.9380  136.2410 N   0  0  0  0  0  0  0  0  0  0  0  0
  190.6040  174.7570  137.9260 N   0  0  0  0  0  0  0  0  0  0  0  0
  1 10  1  6  0  0  0
  1 12  1  0  0  0  0
  2 13  1  1  0  0  0
  2  8  1  0  0  0  0
  3 11  1  0  0  0  0
  4 14  1  0  0  0  0
  5 10  1  0  0  0  0
  6  2  1  0  0  0  0
  6  5  2  0  0  0  0
  7 17  2  0  0  0  0
  8  3  2  0  0  0  0
  8  1  1  0  0  0  0
  9  4  1  0  0  0  0
 11 15  1  0  0  0  0
 11 18  2  0  0  0  0
 12 18  1  0  0  0  0
 14 15  2  0  0  0  0
 15 21  1  0  0  0  0
 16  7  1  0  0  0  0
 16  9  2  0  0  0  0
 17  4  1  0  0  0  0
 17  3  1  0  0  0  0
 19 25  1  0  0  0  0
 19 20  1  0  0  0  0
 21 23  1  0  0  0  0
 21 24  2  0  0  0  0
 22 20  2  0  0  0  0
 23 19  2  0  0  0  0
 24 22  1  0  0  0  0
 26 16  1  0  0  0  0
 27 26  1  0  0  0  0
 29 27  1  0  0  0  0
 29 30  1  0  0  0  0
 30 28  1  0  0  0  0
 31 34  1  0  0  0  0
 32 33  1  0  0  0  0
 32 31  2  0  0  0  0
 33 29  2  0  0  0  0
 34 30  2  0  0  0  0
M  END
>  <MODEL>
4

>  <REMARK>
 VINA RESULT:      -9.5      2.806      5.706
  Name = 
  4 active torsions:
  status: ('A' for Active; 'I' for Inactive)
    1  A    between atoms: C_3  and  C_13
    2  A    between atoms: C_3  and  N_17
    3  A    between atoms: C_12  and  C_28
    4  A    between atoms: N_17  and  C_29
                            x       y       z     vdW  Elec       q    Type
                         _______ _______ _______ _____ _____    ______ ____

>  <TORSDO>
F 4

$$$$
=
 OpenBabel10252414593D

 34 39  0  0  1  0  0  0  0  0999 V2000
  188.2820  177.9480  139.3870 C   0  0  1  0  0  3  0  0  0  0  0  0
  186.5470  178.2440  137.5300 C   0  0  2  0  0  3  0  0  0  0  0  0
  185.9010  178.4850  139.9710 C   0  0  0  0  0  0  0  0  0  0  0  0
  183.6500  178.9990  140.6510 N   0  0  0  0  0  0  0  0  0  0  0  0
  188.9460  178.8940  137.1720 C   0  0  0  0  0  3  0  0  0  0  0  0
  187.7300  178.6260  136.6710 C   0  0  0  0  0  3  0  0  0  0  0  0
  183.9460  178.9810  138.4330 C   0  0  0  0  0  3  0  0  0  0  0  0
  186.8490  178.2660  139.0130 C   0  0  0  0  0  0  0  0  0  0  0  0
  182.4580  179.2960  140.1120 C   0  0  0  0  0  3  0  0  0  0  0  0
  189.2150  178.9020  138.6500 C   0  0  0  0  0  2  0  0  0  0  0  0
  186.2410  178.4130  141.3590 C   0  0  0  0  0  0  0  0  0  0  0  0
  188.5290  178.0360  140.7860 O   0  0  0  0  0  0  0  0  0  0  0  0
  186.0610  176.8660  137.1190 C   0  0  0  0  0  1  0  0  0  0  0  0
  183.9380  178.9100  141.9650 C   0  0  0  0  0  3  0  0  0  0  0  0
  185.2440  178.6030  142.3640 C   0  0  0  0  0  0  0  0  0  0  0  0
  182.6310  179.2870  138.7410 C   0  0  0  0  0  0  0  0  0  0  0  0
  184.5520  178.8030  139.6700 C   0  0  0  0  0  0  0  0  0  0  0  0
  187.5120  178.2070  141.7220 C   0  0  0  0  0  3  0  0  0  0  0  0
  186.8840  177.7430  145.6880 C   0  0  0  0  0  0  0  0  0  0  0  0
  185.9520  178.2560  146.5920 C   0  0  0  0  0  3  0  0  0  0  0  0
  185.5100  178.4990  143.8260 C   0  0  0  0  0  0  0  0  0  0  0  0
  184.7970  178.8840  146.1220 C   0  0  0  0  0  3  0  0  0  0  0  0
  186.6610  177.8580  144.3130 C   0  0  0  0  0  3  0  0  0  0  0  0
  184.5750  179.0010  144.7470 C   0  0  0  0  0  3  0  0  0  0  0  0
  188.0020  177.1280  146.1420 F   0  0  0  0  0  0  0  0  0  0  0  0
  181.6180  179.5520  137.7720 N   0  0  0  0  0  2  0  0  0  0  0  0
  180.5080  180.4530  138.0390 C   0  0  0  0  0  2  0  0  0  0  0  0
  179.7250  180.7910  135.1940 C   0  0  0  0  0  1  0  0  0  0  0  0
  180.7210  181.7410  137.3170 C   0  0  0  0  0  0  0  0  0  0  0  0
  180.3610  181.8960  135.9670 C   0  0  0  0  0  0  0  0  0  0  0  0
  181.1800  184.1210  136.0100 C   0  0  0  0  0  3  0  0  0  0  0  0
  181.5440  183.9640  137.3480 C   0  0  0  0  0  3  0  0  0  0  0  0
  181.3080  182.7780  137.9690 N   0  0  0  0  0  0  0  0  0  0  0  0
  180.5990  183.0840  135.3510 N   0  0  0  0  0  0  0  0  0  0  0  0
  1 10  1  6  0  0  0
  1 12  1  0  0  0  0
  2 13  1  6  0  0  0
  2  8  1  0  0  0  0
  3 11  1  0  0  0  0
  4 14  1  0  0  0  0
  5 10  1  0  0  0  0
  6  5  2  0  0  0  0
  6  2  1  0  0  0  0
  7 16  1  0  0  0  0
  7 17  2  0  0  0  0
  8  1  1  0  0  0  0
  8  3  2  0  0  0  0
  9  4  1  0  0  0  0
 11 18  2  0  0  0  0
 11 15  1  0  0  0  0
 12 18  1  0  0  0  0
 14 15  2  0  0  0  0
 15 21  1  0  0  0  0
 16  9  2  0  0  0  0
 17  3  1  0  0  0  0
 17  4  1  0  0  0  0
 19 25  1  0  0  0  0
 19 20  1  0  0  0  0
 21 23  1  0  0  0  0
 21 24  2  0  0  0  0
 22 20  2  0  0  0  0
 23 19  2  0  0  0  0
 24 22  1  0  0  0  0
 26 27  1  0  0  0  0
 26 16  1  0  0  0  0
 28 30  1  0  0  0  0
 29 33  1  0  0  0  0
 29 27  1  0  0  0  0
 30 29  2  0  0  0  0
 31 32  1  0  0  0  0
 32 33  2  0  0  0  0
 34 30  1  0  0  0  0
 34 31  2  0  0  0  0
M  END
>  <MODEL>
5

>  <REMARK>
 VINA RESULT:      -9.3      4.517      8.157
  Name = 
  4 active torsions:
  status: ('A' for Active; 'I' for Inactive)
    1  A    between atoms: C_3  and  C_13
    2  A    between atoms: C_3  and  N_17
    3  A    between atoms: C_12  and  C_28
    4  A    between atoms: N_17  and  C_29
                            x       y       z     vdW  Elec       q    Type
                         _______ _______ _______ _____ _____    ______ ____

>  <TORSDO>
F 4

$$$$
=
 OpenBabel10252414593D

 34 39  0  0  1  0  0  0  0  0999 V2000
  181.6150  178.9550  141.7160 C   0  0  1  0  0  3  0  0  0  0  0  0
  182.4260  179.0400  139.2910 C   0  0  2  0  0  3  0  0  0  0  0  0
  184.0570  178.6930  141.2030 C   0  0  0  0  0  0  0  0  0  0  0  0
  186.4200  178.4280  140.8310 N   0  0  0  0  0  0  0  0  0  0  0  0
  180.1660  178.1100  139.8640 C   0  0  0  0  0  3  0  0  0  0  0  0
  181.0300  178.5740  138.9490 C   0  0  0  0  0  3  0  0  0  0  0  0
  185.2190  178.5830  138.9500 C   0  0  0  0  0  3  0  0  0  0  0  0
  182.7790  178.8610  140.7520 C   0  0  0  0  0  0  0  0  0  0  0  0
  187.2960  178.3350  139.8200 C   0  0  0  0  0  3  0  0  0  0  0  0
  180.5450  177.9480  141.3100 C   0  0  0  0  0  2  0  0  0  0  0  0
  184.3270  178.6090  142.6050 C   0  0  0  0  0  0  0  0  0  0  0  0
  181.9880  178.7250  143.0700 O   0  0  0  0  0  0  0  0  0  0  0  0
  182.5730  180.4980  138.8970 C   0  0  0  0  0  1  0  0  0  0  0  0
  186.7060  178.3740  142.1480 C   0  0  0  0  0  3  0  0  0  0  0  0
  185.6680  178.4730  143.0810 C   0  0  0  0  0  0  0  0  0  0  0  0
  186.5620  178.4300  138.6520 C   0  0  0  0  0  0  0  0  0  0  0  0
  185.1770  178.5810  140.3380 C   0  0  0  0  0  0  0  0  0  0  0  0
  183.3150  178.6150  143.4790 C   0  0  0  0  0  3  0  0  0  0  0  0
  187.4250  177.5850  146.3370 C   0  0  0  0  0  0  0  0  0  0  0  0
  186.6570  178.2930  147.2640 C   0  0  0  0  0  3  0  0  0  0  0  0
  186.0330  178.4240  144.5240 C   0  0  0  0  0  0  0  0  0  0  0  0
  185.5740  179.0610  146.8290 C   0  0  0  0  0  3  0  0  0  0  0  0
  187.1110  177.6450  144.9770 C   0  0  0  0  0  3  0  0  0  0  0  0
  185.2610  179.1220  145.4680 C   0  0  0  0  0  3  0  0  0  0  0  0
  188.4720  176.8350  146.7570 F   0  0  0  0  0  0  0  0  0  0  0  0
  187.0930  178.3790  137.3280 N   0  0  0  0  0  2  0  0  0  0  0  0
  186.4130  177.6800  136.2500 C   0  0  0  0  0  2  0  0  0  0  0  0
  183.8820  176.1820  136.6700 C   0  0  0  0  0  1  0  0  0  0  0  0
  186.4080  176.2140  136.5260 C   0  0  0  0  0  0  0  0  0  0  0  0
  185.2110  175.5080  136.7360 C   0  0  0  0  0  0  0  0  0  0  0  0
  186.4520  173.5180  137.0830 C   0  0  0  0  0  3  0  0  0  0  0  0
  187.6400  174.2200  136.8820 C   0  0  0  0  0  3  0  0  0  0  0  0
  187.5910  175.5510  136.6100 N   0  0  0  0  0  0  0  0  0  0  0  0
  185.2660  174.1770  137.0070 N   0  0  0  0  0  0  0  0  0  0  0  0
  1 10  1  6  0  0  0
  1 12  1  0  0  0  0
  2 13  1  1  0  0  0
  2  8  1  0  0  0  0
  3 11  1  0  0  0  0
  4 14  1  0  0  0  0
  5 10  1  0  0  0  0
  6  2  1  0  0  0  0
  6  5  2  0  0  0  0
  7 17  2  0  0  0  0
  8  3  2  0  0  0  0
  8  1  1  0  0  0  0
  9  4  1  0  0  0  0
 11 15  1  0  0  0  0
 11 18  2  0  0  0  0
 12 18  1  0  0  0  0
 14 15  2  0  0  0  0
 15 21  1  0  0  0  0
 16  7  1  0  0  0  0
 16  9  2  0  0  0  0
 17  4  1  0  0  0  0
 17  3  1  0  0  0  0
 19 25  1  0  0  0  0
 19 20  1  0  0  0  0
 21 23  1  0  0  0  0
 21 24  2  0  0  0  0
 22 20  2  0  0  0  0
 23 19  2  0  0  0  0
 24 22  1  0  0  0  0
 26 16  1  0  0  0  0
 27 29  1  0  0  0  0
 27 26  1  0  0  0  0
 28 30  1  0  0  0  0
 29 33  2  0  0  0  0
 29 30  1  0  0  0  0
 30 34  2  0  0  0  0
 32 31  2  0  0  0  0
 33 32  1  0  0  0  0
 34 31  1  0  0  0  0
M  END
>  <MODEL>
6

>  <REMARK>
 VINA RESULT:      -9.3      3.483      6.301
  Name = 
  4 active torsions:
  status: ('A' for Active; 'I' for Inactive)
    1  A    between atoms: C_3  and  C_13
    2  A    between atoms: C_3  and  N_17
    3  A    between atoms: C_12  and  C_28
    4  A    between atoms: N_17  and  C_29
                            x       y       z     vdW  Elec       q    Type
                         _______ _______ _______ _____ _____    ______ ____

>  <TORSDO>
F 4

$$$$
=
 OpenBabel10252414593D

 34 39  0  0  1  0  0  0  0  0999 V2000
  184.6000  178.3940  144.2460 C   0  0  1  0  0  3  0  0  0  0  0  0
  187.0610  177.7010  144.3270 C   0  0  2  0  0  3  0  0  0  0  0  0
  185.9450  178.3030  142.1300 C   0  0  0  0  0  0  0  0  0  0  0  0
  187.1350  178.2530  140.0380 N   0  0  0  0  0  0  0  0  0  0  0  0
  186.0070  178.9460  146.2350 C   0  0  0  0  0  3  0  0  0  0  0  0
  187.0190  178.2110  145.7480 C   0  0  0  0  0  3  0  0  0  0  0  0
  188.4130  177.8030  141.8190 C   0  0  0  0  0  3  0  0  0  0  0  0
  185.8890  178.1630  143.4870 C   0  0  0  0  0  0  0  0  0  0  0  0
  188.3710  178.0380  139.5660 C   0  0  0  0  0  3  0  0  0  0  0  0
  184.8540  179.3850  145.3770 C   0  0  0  0  0  2  0  0  0  0  0  0
  184.7760  178.6670  141.3890 C   0  0  0  0  0  0  0  0  0  0  0  0
  183.5450  178.8800  143.4240 O   0  0  0  0  0  0  0  0  0  0  0  0
  187.1210  176.1850  144.3460 C   0  0  0  0  0  1  0  0  0  0  0  0
  186.0430  178.5680  139.3140 C   0  0  0  0  0  3  0  0  0  0  0  0
  184.8210  178.7760  139.9650 C   0  0  0  0  0  0  0  0  0  0  0  0
  189.1690  177.7580  140.6600 C   0  0  0  0  0  0  0  0  0  0  0  0
  187.1330  178.1150  141.3770 C   0  0  0  0  0  0  0  0  0  0  0  0
  183.6400  178.9500  142.0360 C   0  0  0  0  0  3  0  0  0  0  0  0
  181.9770  180.6950  138.3200 C   0  0  0  0  0  0  0  0  0  0  0  0
  181.3630  179.6860  137.5750 C   0  0  0  0  0  3  0  0  0  0  0  0
  183.6390  179.1070  139.1220 C   0  0  0  0  0  0  0  0  0  0  0  0
  181.8760  178.3870  137.6040 C   0  0  0  0  0  3  0  0  0  0  0  0
  183.1040  180.4060  139.0930 C   0  0  0  0  0  3  0  0  0  0  0  0
  183.0050  178.0980  138.3760 C   0  0  0  0  0  3  0  0  0  0  0  0
  181.4770  181.9540  138.2980 F   0  0  0  0  0  0  0  0  0  0  0  0
  190.5650  177.4660  140.6210 N   0  0  0  0  0  2  0  0  0  0  0  0
  191.5210  178.1430  141.4820 C   0  0  0  0  0  2  0  0  0  0  0  0
  191.3040  179.7510  143.9710 C   0  0  0  0  0  1  0  0  0  0  0  0
  191.5240  177.5030  142.8300 C   0  0  0  0  0  0  0  0  0  0  0  0
  191.4330  178.2650  144.0080 C   0  0  0  0  0  0  0  0  0  0  0  0
  191.5840  176.2820  145.2970 C   0  0  0  0  0  3  0  0  0  0  0  0
  191.6820  175.5260  144.1280 C   0  0  0  0  0  3  0  0  0  0  0  0
  191.6520  176.1530  142.9230 N   0  0  0  0  0  0  0  0  0  0  0  0
  191.4630  177.6330  145.2100 N   0  0  0  0  0  0  0  0  0  0  0  0
  1 10  1  1  0  0  0
  2 13  1  1  0  0  0
  2  6  1  0  0  0  0
  3  8  2  0  0  0  0
  4 17  1  0  0  0  0
  6  5  2  0  0  0  0
  8  1  1  0  0  0  0
  8  2  1  0  0  0  0
  9  4  1  0  0  0  0
  9 16  2  0  0  0  0
 10  5  1  0  0  0  0
 11 18  2  0  0  0  0
 11  3  1  0  0  0  0
 12  1  1  0  0  0  0
 14 15  2  0  0  0  0
 14  4  1  0  0  0  0
 15 11  1  0  0  0  0
 16  7  1  0  0  0  0
 17  7  2  0  0  0  0
 17  3  1  0  0  0  0
 18 12  1  0  0  0  0
 19 23  1  0  0  0  0
 20 22  1  0  0  0  0
 20 19  2  0  0  0  0
 21 15  1  0  0  0  0
 22 24  2  0  0  0  0
 23 21  2  0  0  0  0
 24 21  1  0  0  0  0
 25 19  1  0  0  0  0
 26 16  1  0  0  0  0
 26 27  1  0  0  0  0
 27 29  1  0  0  0  0
 28 30  1  0  0  0  0
 29 33  2  0  0  0  0
 29 30  1  0  0  0  0
 30 34  2  0  0  0  0
 32 31  2  0  0  0  0
 33 32  1  0  0  0  0
 34 31  1  0  0  0  0
M  END
>  <MODEL>
7

>  <REMARK>
 VINA RESULT:      -9.2      2.731      4.813
  Name = 
  4 active torsions:
  status: ('A' for Active; 'I' for Inactive)
    1  A    between atoms: C_3  and  C_13
    2  A    between atoms: C_3  and  N_17
    3  A    between atoms: C_12  and  C_28
    4  A    between atoms: N_17  and  C_29
                            x       y       z     vdW  Elec       q    Type
                         _______ _______ _______ _____ _____    ______ ____

>  <TORSDO>
F 4

$$$$
=
 OpenBabel10252414593D

 34 39  0  0  1  0  0  0  0  0999 V2000
  188.3670  177.9930  139.3530 C   0  0  1  0  0  3  0  0  0  0  0  0
  186.4310  178.1960  137.6920 C   0  0  2  0  0  3  0  0  0  0  0  0
  186.0350  178.3890  140.1900 C   0  0  0  0  0  0  0  0  0  0  0  0
  183.8430  178.7700  141.1080 N   0  0  0  0  0  0  0  0  0  0  0  0
  188.7370  178.9840  137.0890 C   0  0  0  0  0  3  0  0  0  0  0  0
  187.4930  178.6490  136.7170 C   0  0  0  0  0  3  0  0  0  0  0  0
  183.9020  178.7780  138.8720 C   0  0  0  0  0  3  0  0  0  0  0  0
  186.8870  178.2290  139.1350 C   0  0  0  0  0  0  0  0  0  0  0  0
  182.5860  179.0000  140.7020 C   0  0  0  0  0  3  0  0  0  0  0  0
  189.1610  179.0030  138.5310 C   0  0  0  0  0  2  0  0  0  0  0  0
  186.5240  178.3310  141.5340 C   0  0  0  0  0  0  0  0  0  0  0  0
  188.7550  178.0890  140.7180 O   0  0  0  0  0  0  0  0  0  0  0  0
  185.9840  176.7940  137.3210 C   0  0  0  0  0  1  0  0  0  0  0  0
  184.2720  178.6920  142.3840 C   0  0  0  0  0  3  0  0  0  0  0  0
  185.6290  178.4590  142.6400 C   0  0  0  0  0  0  0  0  0  0  0  0
  182.6120  179.0060  139.3200 C   0  0  0  0  0  0  0  0  0  0  0  0
  184.6450  178.6300  140.0360 C   0  0  0  0  0  0  0  0  0  0  0  0
  187.8350  178.1980  141.7590 C   0  0  0  0  0  3  0  0  0  0  0  0
  187.5420  177.5000  145.7860 C   0  0  0  0  0  0  0  0  0  0  0  0
  186.7920  178.1480  146.7700 C   0  0  0  0  0  3  0  0  0  0  0  0
  186.0540  178.3650  144.0640 C   0  0  0  0  0  0  0  0  0  0  0  0
  185.6700  178.8980  146.4100 C   0  0  0  0  0  3  0  0  0  0  0  0
  187.1720  177.6040  144.4430 C   0  0  0  0  0  3  0  0  0  0  0  0
  185.3000  179.0030  145.0650 C   0  0  0  0  0  3  0  0  0  0  0  0
  188.6270  176.7680  146.1340 F   0  0  0  0  0  0  0  0  0  0  0  0
  181.4890  179.2160  138.4660 N   0  0  0  0  0  2  0  0  0  0  0  0
  180.1880  178.6260  138.7400 C   0  0  0  0  0  2  0  0  0  0  0  0
  179.5870  176.7850  140.9920 C   0  0  0  0  0  1  0  0  0  0  0  0
  180.2660  177.1440  138.5810 C   0  0  0  0  0  0  0  0  0  0  0  0
  179.9930  176.2740  139.6510 C   0  0  0  0  0  0  0  0  0  0  0  0
  180.4720  174.4180  138.2560 C   0  0  0  0  0  3  0  0  0  0  0  0
  180.7500  175.2820  137.1960 C   0  0  0  0  0  3  0  0  0  0  0  0
  180.6430  176.6240  137.3840 N   0  0  0  0  0  0  0  0  0  0  0  0
  180.1010  174.9330  139.4580 N   0  0  0  0  0  0  0  0  0  0  0  0
  1 10  1  6  0  0  0
  1 12  1  0  0  0  0
  2 13  1  6  0  0  0
  2  8  1  0  0  0  0
  3 11  1  0  0  0  0
  4 14  1  0  0  0  0
  5 10  1  0  0  0  0
  6  5  2  0  0  0  0
  6  2  1  0  0  0  0
  7 16  1  0  0  0  0
  7 17  2  0  0  0  0
  8  1  1  0  0  0  0
  8  3  2  0  0  0  0
  9  4  1  0  0  0  0
 11 18  2  0  0  0  0
 11 15  1  0  0  0  0
 12 18  1  0  0  0  0
 14 15  2  0  0  0  0
 15 21  1  0  0  0  0
 16  9  2  0  0  0  0
 17  3  1  0  0  0  0
 17  4  1  0  0  0  0
 19 25  1  0  0  0  0
 19 20  1  0  0  0  0
 21 23  1  0  0  0  0
 21 24  2  0  0  0  0
 22 20  2  0  0  0  0
 23 19  2  0  0  0  0
 24 22  1  0  0  0  0
 26 27  1  0  0  0  0
 26 16  1  0  0  0  0
 29 27  1  0  0  0  0
 29 30  1  0  0  0  0
 30 28  1  0  0  0  0
 31 34  1  0  0  0  0
 32 33  1  0  0  0  0
 32 31  2  0  0  0  0
 33 29  2  0  0  0  0
 34 30  2  0  0  0  0
M  END
>  <MODEL>
8

>  <REMARK>
 VINA RESULT:      -9.0      4.198      7.666
  Name = 
  4 active torsions:
  status: ('A' for Active; 'I' for Inactive)
    1  A    between atoms: C_3  and  C_13
    2  A    between atoms: C_3  and  N_17
    3  A    between atoms: C_12  and  C_28
    4  A    between atoms: N_17  and  C_29
                            x       y       z     vdW  Elec       q    Type
                         _______ _______ _______ _____ _____    ______ ____

>  <TORSDO>
F 4

$$$$
=
 OpenBabel10252414593D

 34 39  0  0  1  0  0  0  0  0999 V2000
  188.8940  177.8790  146.2650 C   0  0  1  0  0  3  0  0  0  0  0  0
  186.5030  178.4560  146.9690 C   0  0  2  0  0  3  0  0  0  0  0  0
  187.1120  178.1740  144.5230 C   0  0  0  0  0  0  0  0  0  0  0  0
  185.4870  178.4320  142.7660 N   0  0  0  0  0  0  0  0  0  0  0  0
  187.9700  177.0310  148.4260 C   0  0  0  0  0  3  0  0  0  0  0  0
  186.8670  177.7780  148.2700 C   0  0  0  0  0  3  0  0  0  0  0  0
  184.6300  178.6080  144.8260 C   0  0  0  0  0  3  0  0  0  0  0  0
  187.4650  178.1490  145.8420 C   0  0  0  0  0  0  0  0  0  0  0  0
  184.1740  178.6530  142.6070 C   0  0  0  0  0  3  0  0  0  0  0  0
  188.9090  176.7480  147.2870 C   0  0  0  0  0  2  0  0  0  0  0  0
  188.0920  177.9510  143.5040 C   0  0  0  0  0  0  0  0  0  0  0  0
  189.7460  177.5410  145.1770 O   0  0  0  0  0  0  0  0  0  0  0  0
  186.4300  179.9550  147.1960 C   0  0  0  0  0  1  0  0  0  0  0  0
  186.3950  178.2530  141.7860 C   0  0  0  0  0  3  0  0  0  0  0  0
  187.7330  178.0160  142.1230 C   0  0  0  0  0  0  0  0  0  0  0  0
  183.6360  178.7630  143.8760 C   0  0  0  0  0  0  0  0  0  0  0  0
  185.7840  178.4050  144.0790 C   0  0  0  0  0  0  0  0  0  0  0  0
  189.3460  177.6380  143.8460 C   0  0  0  0  0  3  0  0  0  0  0  0
  189.4360  178.3130  138.7330 C   0  0  0  0  0  0  0  0  0  0  0  0
  190.5100  177.4340  138.8900 C   0  0  0  0  0  3  0  0  0  0  0  0
  188.7030  177.8400  141.0060 C   0  0  0  0  0  0  0  0  0  0  0  0
  190.6820  176.7510  140.0960 C   0  0  0  0  0  3  0  0  0  0  0  0
  188.5350  178.5100  139.7830 C   0  0  0  0  0  3  0  0  0  0  0  0
  189.7810  176.9500  141.1470 C   0  0  0  0  0  3  0  0  0  0  0  0
  189.2650  178.9720  137.5620 F   0  0  0  0  0  0  0  0  0  0  0  0
  182.2620  179.0010  144.1800 N   0  0  0  0  0  2  0  0  0  0  0  0
  181.1870  178.2850  143.5130 C   0  0  0  0  0  2  0  0  0  0  0  0
  181.4830  177.7150  140.6130 C   0  0  0  0  0  1  0  0  0  0  0  0
  180.5670  179.1610  142.4760 C   0  0  0  0  0  0  0  0  0  0  0  0
  180.7180  178.8980  141.1040 C   0  0  0  0  0  0  0  0  0  0  0  0
  179.4490  180.8350  140.5980 C   0  0  0  0  0  3  0  0  0  0  0  0
  179.3060  181.1010  141.9600 C   0  0  0  0  0  3  0  0  0  0  0  0
  179.8690  180.2600  142.8670 N   0  0  0  0  0  0  0  0  0  0  0  0
  180.1520  179.7420  140.2010 N   0  0  0  0  0  0  0  0  0  0  0  0
  1 10  1  1  0  0  0
  2 13  1  1  0  0  0
  2  6  1  0  0  0  0
  3  8  2  0  0  0  0
  4 17  1  0  0  0  0
  6  5  2  0  0  0  0
  8  1  1  0  0  0  0
  8  2  1  0  0  0  0
  9  4  1  0  0  0  0
  9 16  2  0  0  0  0
 10  5  1  0  0  0  0
 11 18  2  0  0  0  0
 11  3  1  0  0  0  0
 12  1  1  0  0  0  0
 14 15  2  0  0  0  0
 14  4  1  0  0  0  0
 15 11  1  0  0  0  0
 16 26  1  0  0  0  0
 16  7  1  0  0  0  0
 17  3  1  0  0  0  0
 17  7  2  0  0  0  0
 18 12  1  0  0  0  0
 19 20  2  0  0  0  0
 19 23  1  0  0  0  0
 20 22  1  0  0  0  0
 21 24  1  0  0  0  0
 21 15  1  0  0  0  0
 22 24  2  0  0  0  0
 23 21  2  0  0  0  0
 25 19  1  0  0  0  0
 27 26  1  0  0  0  0
 28 30  1  0  0  0  0
 29 33  1  0  0  0  0
 29 27  1  0  0  0  0
 30 29  2  0  0  0  0
 31 32  1  0  0  0  0
 32 33  2  0  0  0  0
 34 31  2  0  0  0  0
 34 30  1  0  0  0  0
M  END
>  <MODEL>
9

>  <REMARK>
 VINA RESULT:      -9.0      3.439      8.058
  Name = 
  4 active torsions:
  status: ('A' for Active; 'I' for Inactive)
    1  A    between atoms: C_3  and  C_13
    2  A    between atoms: C_3  and  N_17
    3  A    between atoms: C_12  and  C_28
    4  A    between atoms: N_17  and  C_29
                            x       y       z     vdW  Elec       q    Type
                         _______ _______ _______ _____ _____    ______ ____

>  <TORSDO>
F 4

$$$$
