=
 OpenBabel10262419463D

 25 27  0  0  1  0  0  0  0  0999 V2000
  188.6860  177.0850  145.5370 C   0  0  2  0  0  3  0  0  0  0  0  0
  187.6280  178.0750  145.4890 N   0  0  1  0  0  0  0  0  0  0  0  0
  187.9440  177.9360  149.0470 O   0  0  0  0  0  1  0  0  0  0  0  0
  188.2530  178.3680  147.7590 C   0  0  1  0  0  3  0  0  0  0  0  0
  185.9430  179.0560  146.8550 C   0  0  0  0  0  0  0  0  0  0  0  0
  185.6860  179.7660  147.8630 O   0  0  0  0  0  0  0  0  0  0  0  0
  186.6160  177.6750  144.6330 O   0  0  0  0  0  0  0  0  0  0  0  0
  189.6210  177.3630  147.0880 S   0  0  0  0  0  0  0  0  0  0  0  0
  185.0760  179.0690  145.7110 N   0  0  0  0  0  0  0  0  0  0  0  0
  185.3930  178.3670  144.6600 C   0  0  0  0  0  0  0  0  0  0  0  0
  187.0930  178.0960  146.8350 C   0  0  1  0  0  3  0  0  0  0  0  0
  189.5750  177.1820  144.3310 C   0  0  0  0  0  0  0  0  0  0  0  0
  191.3210  177.4360  142.1490 C   0  0  0  0  0  3  0  0  0  0  0  0
  189.3910  176.3870  143.1770 C   0  0  0  0  0  0  0  0  0  0  0  0
  190.2680  176.5200  142.0950 C   0  0  0  0  0  3  0  0  0  0  0  0
  191.5030  178.2250  143.2870 C   0  0  0  0  0  3  0  0  0  0  0  0
  188.3290  175.4430  143.0940 N   0  0  0  0  0  1  0  0  0  0  0  0
  190.6330  178.0970  144.3720 C   0  0  0  0  0  3  0  0  0  0  0  0
  184.4800  178.3160  143.4780 C   0  0  0  0  0  2  0  0  0  0  0  0
  185.1300  178.8580  142.2000 C   0  0  1  0  0  3  0  0  0  0  0  0
  186.6030  178.4960  142.1400 C   0  0  0  0  0  1  0  0  0  0  0  0
  184.4260  178.3920  140.9280 C   0  0  0  0  0  2  0  0  0  0  0  0
  185.9670  178.5670  138.9750 O   0  0  0  0  0  0  0  0  0  0  0  0
  184.4320  180.2170  139.3930 O   0  0  0  0  0  1  0  0  0  0  0  0
  184.9410  179.1170  139.7320 C   0  0  0  0  0  0  0  0  0  0  0  0
  1 12  1  6  0  0  0
  1  8  1  0  0  0  0
  2  7  1  6  0  0  0
  2  1  1  0  0  0  0
  2 11  1  0  0  0  0
  4  3  1  1  0  0  0
  5  6  2  0  0  0  0
  7 10  1  0  0  0  0
  8  4  1  0  0  0  0
  9  5  1  0  0  0  0
 10  9  2  0  0  0  0
 11  5  1  6  0  0  0
 11  4  1  0  0  0  0
 12 18  1  0  0  0  0
 13 16  1  0  0  0  0
 14 12  2  0  0  0  0
 15 13  2  0  0  0  0
 15 14  1  0  0  0  0
 16 18  2  0  0  0  0
 17 14  1  0  0  0  0
 19 10  1  0  0  0  0
 20 21  1  6  0  0  0
 20 19  1  0  0  0  0
 22 20  1  0  0  0  0
 23 25  2  0  0  0  0
 24 25  1  0  0  0  0
 25 22  1  0  0  0  0
M  END
>  <MODEL>
1

>  <REMARK>
 VINA RESULT:      -8.5      0.000      0.000
  Name = 
  5 active torsions:
  status: ('A' for Active; 'I' for Inactive)
    1  A    between atoms: C_1  and  C_5
    2  A    between atoms: C_2  and  C_15
    3  A    between atoms: C_2  and  C_21
    4  A    between atoms: C_6  and  C_15
    5  A    between atoms: C_6  and  C_23
                            x       y       z     vdW  Elec       q    Type
                         _______ _______ _______ _____ _____    ______ ____

>  <TORSDO>
F 5

$$$$
=
 OpenBabel10262419463D

 25 27  0  0  1  0  0  0  0  0999 V2000
  186.2880  177.6980  143.1660 C   0  0  2  0  0  3  0  0  0  0  0  0
  187.6350  177.9400  142.6860 N   0  0  1  0  0  0  0  0  0  0  0  0
  185.9350  178.6600  139.6240 O   0  0  0  0  0  1  0  0  0  0  0  0
  186.4560  178.9410  140.8860 C   0  0  1  0  0  3  0  0  0  0  0  0
  188.8810  178.1050  140.6640 C   0  0  0  0  0  0  0  0  0  0  0  0
  189.0730  178.7430  139.5940 O   0  0  0  0  0  0  0  0  0  0  0  0
  188.4840  176.9100  143.0530 O   0  0  0  0  0  0  0  0  0  0  0  0
  185.1560  178.7170  142.1480 S   0  0  0  0  0  0  0  0  0  0  0  0
  189.9680  177.4390  141.3230 N   0  0  0  0  0  0  0  0  0  0  0  0
  189.7530  176.8330  142.4570 C   0  0  0  0  0  0  0  0  0  0  0  0
  187.5110  177.9250  141.2430 C   0  0  1  0  0  3  0  0  0  0  0  0
  186.1650  178.0270  144.6260 C   0  0  0  0  0  0  0  0  0  0  0  0
  186.0690  178.6330  147.3640 C   0  0  0  0  0  3  0  0  0  0  0  0
  184.9640  178.4870  145.2100 C   0  0  0  0  0  0  0  0  0  0  0  0
  184.9260  178.7880  146.5750 C   0  0  0  0  0  3  0  0  0  0  0  0
  187.2560  178.1750  146.7900 C   0  0  0  0  0  3  0  0  0  0  0  0
  183.7840  178.6570  144.4320 N   0  0  0  0  0  1  0  0  0  0  0  0
  187.3030  177.8740  145.4260 C   0  0  0  0  0  3  0  0  0  0  0  0
  190.8530  176.0820  143.1360 C   0  0  0  0  0  2  0  0  0  0  0  0
  191.5110  176.8830  144.2660 C   0  0  1  0  0  3  0  0  0  0  0  0
  191.6110  178.3540  143.9070 C   0  0  0  0  0  1  0  0  0  0  0  0
  190.7970  176.7190  145.6050 C   0  0  0  0  0  2  0  0  0  0  0  0
  191.8820  177.0550  147.8260 O   0  0  0  0  0  1  0  0  0  0  0  0
  192.4140  175.2350  146.5390 O   0  0  0  0  0  0  0  0  0  0  0  0
  191.7480  176.2940  146.6720 C   0  0  0  0  0  0  0  0  0  0  0  0
  1 12  1  1  0  0  0
  2  7  1  6  0  0  0
  2  1  1  0  0  0  0
  4  3  1  6  0  0  0
  4 11  1  0  0  0  0
  4  8  1  0  0  0  0
  5  9  1  0  0  0  0
  6  5  2  0  0  0  0
  8  1  1  0  0  0  0
  9 10  2  0  0  0  0
 10  7  1  0  0  0  0
 10 19  1  0  0  0  0
 11  5  1  6  0  0  0
 11  2  1  0  0  0  0
 12 14  2  0  0  0  0
 12 18  1  0  0  0  0
 14 15  1  0  0  0  0
 15 13  2  0  0  0  0
 16 13  1  0  0  0  0
 17 14  1  0  0  0  0
 18 16  2  0  0  0  0
 19 20  1  0  0  0  0
 20 21  1  6  0  0  0
 20 22  1  0  0  0  0
 22 25  1  0  0  0  0
 24 25  2  0  0  0  0
 25 23  1  0  0  0  0
M  END
>  <MODEL>
2

>  <REMARK>
 VINA RESULT:      -8.1      2.605      6.987
  Name = 
  5 active torsions:
  status: ('A' for Active; 'I' for Inactive)
    1  A    between atoms: C_1  and  C_5
    2  A    between atoms: C_2  and  C_15
    3  A    between atoms: C_2  and  C_21
    4  A    between atoms: C_6  and  C_15
    5  A    between atoms: C_6  and  C_23
                            x       y       z     vdW  Elec       q    Type
                         _______ _______ _______ _____ _____    ______ ____

>  <TORSDO>
F 5

$$$$
=
 OpenBabel10262419463D

 25 27  0  0  1  0  0  0  0  0999 V2000
  187.9650  176.9730  143.9900 C   0  0  2  0  0  3  0  0  0  0  0  0
  186.9680  177.9800  144.2930 N   0  0  1  0  0  0  0  0  0  0  0  0
  188.0760  177.4310  147.6470 O   0  0  0  0  0  1  0  0  0  0  0  0
  188.1050  178.0020  146.3760 C   0  0  1  0  0  3  0  0  0  0  0  0
  185.6820  178.8300  146.1070 C   0  0  0  0  0  0  0  0  0  0  0  0
  185.6920  179.4250  147.2170 O   0  0  0  0  0  0  0  0  0  0  0  0
  185.7720  177.7000  143.6550 O   0  0  0  0  0  0  0  0  0  0  0  0
  189.2390  177.0540  145.3050 S   0  0  0  0  0  0  0  0  0  0  0  0
  184.5790  178.9890  145.2010 N   0  0  0  0  0  0  0  0  0  0  0  0
  184.6190  178.4060  144.0370 C   0  0  0  0  0  0  0  0  0  0  0  0
  186.7540  177.8580  145.7200 C   0  0  1  0  0  3  0  0  0  0  0  0
  188.5610  177.1890  142.6290 C   0  0  0  0  0  0  0  0  0  0  0  0
  189.6050  177.7090  140.0770 C   0  0  0  0  0  3  0  0  0  0  0  0
  189.6410  176.4240  142.1330 C   0  0  0  0  0  0  0  0  0  0  0  0
  190.1550  176.6910  140.8600 C   0  0  0  0  0  3  0  0  0  0  0  0
  188.5360  178.4640  140.5630 C   0  0  0  0  0  3  0  0  0  0  0  0
  190.2230  175.3820  142.9100 N   0  0  0  0  0  1  0  0  0  0  0  0
  188.0180  178.2040  141.8340 C   0  0  0  0  0  3  0  0  0  0  0  0
  183.4600  178.5070  143.0980 C   0  0  0  0  0  2  0  0  0  0  0  0
  183.8440  178.2100  141.6440 C   0  0  1  0  0  3  0  0  0  0  0  0
  182.6120  178.0990  140.7640 C   0  0  0  0  0  1  0  0  0  0  0  0
  184.8120  179.2370  141.0610 C   0  0  0  0  0  2  0  0  0  0  0  0
  185.1920  178.1440  138.8520 O   0  0  0  0  0  0  0  0  0  0  0  0
  184.2830  180.2450  138.9660 O   0  0  0  0  0  1  0  0  0  0  0  0
  184.7520  179.2470  139.5720 C   0  0  0  0  0  0  0  0  0  0  0  0
  1 12  1  6  0  0  0
  1  2  1  0  0  0  0
  1  8  1  0  0  0  0
  2  7  1  6  0  0  0
  2 11  1  0  0  0  0
  4  3  1  1  0  0  0
  5  6  2  0  0  0  0
  7 10  1  0  0  0  0
  8  4  1  0  0  0  0
  9  5  1  0  0  0  0
 10  9  2  0  0  0  0
 11  5  1  1  0  0  0
 11  4  1  0  0  0  0
 13 16  2  0  0  0  0
 13 15  1  0  0  0  0
 14 12  1  0  0  0  0
 14 17  1  0  0  0  0
 15 14  2  0  0  0  0
 16 18  1  0  0  0  0
 18 12  2  0  0  0  0
 19 10  1  0  0  0  0
 20 21  1  6  0  0  0
 20 19  1  0  0  0  0
 22 20  1  0  0  0  0
 23 25  2  0  0  0  0
 24 25  1  0  0  0  0
 25 22  1  0  0  0  0
M  END
>  <MODEL>
3

>  <REMARK>
 VINA RESULT:      -8.1      1.426      1.887
  Name = 
  5 active torsions:
  status: ('A' for Active; 'I' for Inactive)
    1  A    between atoms: C_1  and  C_5
    2  A    between atoms: C_2  and  C_15
    3  A    between atoms: C_2  and  C_21
    4  A    between atoms: C_6  and  C_15
    5  A    between atoms: C_6  and  C_23
                            x       y       z     vdW  Elec       q    Type
                         _______ _______ _______ _____ _____    ______ ____

>  <TORSDO>
F 5

$$$$
=
 OpenBabel10262419463D

 25 27  0  0  1  0  0  0  0  0999 V2000
  187.8520  176.9010  143.7900 C   0  0  2  0  0  3  0  0  0  0  0  0
  187.8380  177.8230  142.6710 N   0  0  1  0  0  0  0  0  0  0  0  0
  184.3780  178.1100  143.5250 O   0  0  0  0  0  1  0  0  0  0  0  0
  185.7380  178.4070  143.6080 C   0  0  1  0  0  3  0  0  0  0  0  0
  186.3360  178.8660  141.1460 C   0  0  0  0  0  0  0  0  0  0  0  0
  185.3810  179.6740  140.9950 O   0  0  0  0  0  0  0  0  0  0  0  0
  188.4780  177.2760  141.5710 O   0  0  0  0  0  0  0  0  0  0  0  0
  186.5040  177.4030  144.9250 S   0  0  0  0  0  0  0  0  0  0  0  0
  187.3250  178.7030  140.1190 N   0  0  0  0  0  0  0  0  0  0  0  0
  188.3330  177.9030  140.3220 C   0  0  0  0  0  0  0  0  0  0  0  0
  186.4350  177.9720  142.3440 C   0  0  1  0  0  3  0  0  0  0  0  0
  189.1860  176.9040  144.4790 C   0  0  0  0  0  0  0  0  0  0  0  0
  191.6190  176.9620  145.8750 C   0  0  0  0  0  3  0  0  0  0  0  0
  190.3120  176.2150  143.9740 C   0  0  0  0  0  0  0  0  0  0  0  0
  191.5200  176.2500  144.6770 C   0  0  0  0  0  3  0  0  0  0  0  0
  190.5090  177.6460  146.3740 C   0  0  0  0  0  3  0  0  0  0  0  0
  190.2410  175.4780  142.7580 N   0  0  0  0  0  1  0  0  0  0  0  0
  189.2980  177.6150  145.6780 C   0  0  0  0  0  3  0  0  0  0  0  0
  189.3460  177.6690  139.2480 C   0  0  0  0  0  2  0  0  0  0  0  0
  188.7270  177.6230  137.8460 C   0  0  1  0  0  3  0  0  0  0  0  0
  189.0680  178.8740  137.0570 C   0  0  0  0  0  1  0  0  0  0  0  0
  189.1300  176.3810  137.0570 C   0  0  0  0  0  2  0  0  0  0  0  0
  190.6930  174.8440  138.2460 O   0  0  0  0  0  1  0  0  0  0  0  0
  191.5070  176.5490  136.9480 O   0  0  0  0  0  0  0  0  0  0  0  0
  190.5090  175.9410  137.4150 C   0  0  0  0  0  0  0  0  0  0  0  0
  1 12  1  1  0  0  0
  1  8  1  0  0  0  0
  2  7  1  6  0  0  0
  2  1  1  0  0  0  0
  4  3  1  6  0  0  0
  4  8  1  0  0  0  0
  6  5  2  0  0  0  0
  9 10  2  0  0  0  0
  9  5  1  0  0  0  0
 10  7  1  0  0  0  0
 11  5  1  6  0  0  0
 11  2  1  0  0  0  0
 11  4  1  0  0  0  0
 12 18  1  0  0  0  0
 13 16  1  0  0  0  0
 14 12  2  0  0  0  0
 14 15  1  0  0  0  0
 15 13  2  0  0  0  0
 17 14  1  0  0  0  0
 18 16  2  0  0  0  0
 19 10  1  0  0  0  0
 20 21  1  6  0  0  0
 20 19  1  0  0  0  0
 22 25  1  0  0  0  0
 22 20  1  0  0  0  0
 24 25  2  0  0  0  0
 25 23  1  0  0  0  0
M  END
>  <MODEL>
4

>  <REMARK>
 VINA RESULT:      -7.8      3.317      4.959
  Name = 
  5 active torsions:
  status: ('A' for Active; 'I' for Inactive)
    1  A    between atoms: C_1  and  C_5
    2  A    between atoms: C_2  and  C_15
    3  A    between atoms: C_2  and  C_21
    4  A    between atoms: C_6  and  C_15
    5  A    between atoms: C_6  and  C_23
                            x       y       z     vdW  Elec       q    Type
                         _______ _______ _______ _____ _____    ______ ____

>  <TORSDO>
F 5

$$$$
=
 OpenBabel10262419463D

 25 27  0  0  1  0  0  0  0  0999 V2000
  188.3190  178.4220  142.0790 C   0  0  2  0  0  3  0  0  0  0  0  0
  187.0030  177.9920  142.5090 N   0  0  1  0  0  0  0  0  0  0  0  0
  186.0760  179.0290  139.2150 O   0  0  0  0  0  1  0  0  0  0  0  0
  186.5570  178.1490  140.1830 C   0  0  1  0  0  3  0  0  0  0  0  0
  184.6990  178.2440  141.9620 C   0  0  0  0  0  0  0  0  0  0  0  0
  183.7880  178.0340  141.1180 O   0  0  0  0  0  0  0  0  0  0  0  0
  186.6990  178.5010  143.7590 O   0  0  0  0  0  0  0  0  0  0  0  0
  188.3780  178.2540  140.2550 S   0  0  0  0  0  0  0  0  0  0  0  0
  184.4060  178.2530  143.3680 N   0  0  0  0  0  0  0  0  0  0  0  0
  185.3760  178.4180  144.2230 C   0  0  0  0  0  0  0  0  0  0  0  0
  186.0970  178.5900  141.5500 C   0  0  1  0  0  3  0  0  0  0  0  0
  189.3980  177.6170  142.7440 C   0  0  0  0  0  0  0  0  0  0  0  0
  191.3700  176.0050  143.9200 C   0  0  0  0  0  3  0  0  0  0  0  0
  190.4650  178.2070  143.4570 C   0  0  0  0  0  0  0  0  0  0  0  0
  191.4440  177.3950  144.0390 C   0  0  0  0  0  3  0  0  0  0  0  0
  190.3140  175.4200  143.2190 C   0  0  0  0  0  3  0  0  0  0  0  0
  190.5690  179.6210  143.5930 N   0  0  0  0  0  1  0  0  0  0  0  0
  189.3330  176.2250  142.6330 C   0  0  0  0  0  3  0  0  0  0  0  0
  185.0910  178.4900  145.6880 C   0  0  0  0  0  2  0  0  0  0  0  0
  186.3450  178.7680  146.5250 C   0  0  1  0  0  3  0  0  0  0  0  0
  186.0560  179.7730  147.6250 C   0  0  0  0  0  1  0  0  0  0  0  0
  186.9570  177.5030  147.1200 C   0  0  0  0  0  2  0  0  0  0  0  0
  188.7040  177.9540  148.8430 O   0  0  0  0  0  1  0  0  0  0  0  0
  189.2870  177.6900  146.6420 O   0  0  0  0  0  0  0  0  0  0  0  0
  188.3790  177.7270  147.5120 C   0  0  0  0  0  0  0  0  0  0  0  0
  1  2  1  0  0  0  0
  1 12  1  1  0  0  0
  2  7  1  1  0  0  0
  4  3  1  6  0  0  0
  4  8  1  0  0  0  0
  4 11  1  0  0  0  0
  5  9  1  0  0  0  0
  6  5  2  0  0  0  0
  7 10  1  0  0  0  0
  8  1  1  0  0  0  0
  9 10  2  0  0  0  0
 10 19  1  0  0  0  0
 11  5  1  1  0  0  0
 11  2  1  0  0  0  0
 12 14  1  0  0  0  0
 13 15  1  0  0  0  0
 14 17  1  0  0  0  0
 14 15  2  0  0  0  0
 16 13  2  0  0  0  0
 18 12  2  0  0  0  0
 18 16  1  0  0  0  0
 19 20  1  0  0  0  0
 20 22  1  0  0  0  0
 20 21  1  1  0  0  0
 22 25  1  0  0  0  0
 24 25  2  0  0  0  0
 25 23  1  0  0  0  0
M  END
>  <MODEL>
5

>  <REMARK>
 VINA RESULT:      -7.6      2.185      5.561
  Name = 
  5 active torsions:
  status: ('A' for Active; 'I' for Inactive)
    1  A    between atoms: C_1  and  C_5
    2  A    between atoms: C_2  and  C_15
    3  A    between atoms: C_2  and  C_21
    4  A    between atoms: C_6  and  C_15
    5  A    between atoms: C_6  and  C_23
                            x       y       z     vdW  Elec       q    Type
                         _______ _______ _______ _____ _____    ______ ____

>  <TORSDO>
F 5

$$$$
=
 OpenBabel10262419463D

 25 27  0  0  1  0  0  0  0  0999 V2000
  187.7760  176.9530  143.9020 C   0  0  2  0  0  3  0  0  0  0  0  0
  187.7500  177.8610  142.7720 N   0  0  1  0  0  0  0  0  0  0  0  0
  184.3270  178.2460  143.7310 O   0  0  0  0  0  1  0  0  0  0  0  0
  185.6960  178.5100  143.7670 C   0  0  1  0  0  3  0  0  0  0  0  0
  186.2270  178.9240  141.2820 C   0  0  0  0  0  0  0  0  0  0  0  0
  185.2880  179.7530  141.1510 O   0  0  0  0  0  0  0  0  0  0  0  0
  188.3410  177.2850  141.6610 O   0  0  0  0  0  0  0  0  0  0  0  0
  186.4780  177.5030  145.0730 S   0  0  0  0  0  0  0  0  0  0  0  0
  187.1790  178.7230  140.2260 N   0  0  0  0  0  0  0  0  0  0  0  0
  188.1720  177.8990  140.4080 C   0  0  0  0  0  0  0  0  0  0  0  0
  186.3410  178.0410  142.4880 C   0  0  1  0  0  3  0  0  0  0  0  0
  189.1310  176.9310  144.5490 C   0  0  0  0  0  0  0  0  0  0  0  0
  191.6060  176.9350  145.8710 C   0  0  0  0  0  3  0  0  0  0  0  0
  190.2480  176.2900  143.9680 C   0  0  0  0  0  0  0  0  0  0  0  0
  191.4770  176.2960  144.6350 C   0  0  0  0  0  3  0  0  0  0  0  0
  190.5040  177.5720  146.4450 C   0  0  0  0  0  3  0  0  0  0  0  0
  190.1470  175.6280  142.7120 N   0  0  0  0  0  1  0  0  0  0  0  0
  189.2720  177.5680  145.7860 C   0  0  0  0  0  3  0  0  0  0  0  0
  189.1440  177.6270  139.3060 C   0  0  0  0  0  2  0  0  0  0  0  0
  188.4800  177.5810  137.9250 C   0  0  1  0  0  3  0  0  0  0  0  0
  189.0560  178.6430  137.0060 C   0  0  0  0  0  1  0  0  0  0  0  0
  188.5770  176.2090  137.2630 C   0  0  0  0  0  2  0  0  0  0  0  0
  187.1240  174.2060  136.9510 O   0  0  0  0  0  0  0  0  0  0  0  0
  186.1930  176.2840  137.2190 O   0  0  0  0  0  1  0  0  0  0  0  0
  187.2320  175.5780  137.1360 C   0  0  0  0  0  0  0  0  0  0  0  0
  1 12  1  1  0  0  0
  1  8  1  0  0  0  0
  2  7  1  6  0  0  0
  2  1  1  0  0  0  0
  4  3  1  6  0  0  0
  4  8  1  0  0  0  0
  6  5  2  0  0  0  0
  9 10  2  0  0  0  0
  9  5  1  0  0  0  0
 10  7  1  0  0  0  0
 11  5  1  6  0  0  0
 11  2  1  0  0  0  0
 11  4  1  0  0  0  0
 12 18  1  0  0  0  0
 13 16  1  0  0  0  0
 14 12  2  0  0  0  0
 14 15  1  0  0  0  0
 15 13  2  0  0  0  0
 17 14  1  0  0  0  0
 18 16  2  0  0  0  0
 19 10  1  0  0  0  0
 20 21  1  6  0  0  0
 20 19  1  0  0  0  0
 22 20  1  0  0  0  0
 23 25  2  0  0  0  0
 25 24  1  0  0  0  0
 25 22  1  0  0  0  0
M  END
>  <MODEL>
6

>  <REMARK>
 VINA RESULT:      -7.6      3.033      4.521
  Name = 
  5 active torsions:
  status: ('A' for Active; 'I' for Inactive)
    1  A    between atoms: C_1  and  C_5
    2  A    between atoms: C_2  and  C_15
    3  A    between atoms: C_2  and  C_21
    4  A    between atoms: C_6  and  C_15
    5  A    between atoms: C_6  and  C_23
                            x       y       z     vdW  Elec       q    Type
                         _______ _______ _______ _____ _____    ______ ____

>  <TORSDO>
F 5

$$$$
=
 OpenBabel10262419463D

 25 27  0  0  1  0  0  0  0  0999 V2000
  189.2180  177.8840  146.0270 C   0  0  2  0  0  3  0  0  0  0  0  0
  189.6940  177.0900  144.9120 N   0  0  1  0  0  0  0  0  0  0  0  0
  192.1760  176.0700  147.2750 O   0  0  0  0  0  1  0  0  0  0  0  0
  190.9400  176.0300  146.6310 C   0  0  1  0  0  3  0  0  0  0  0  0
  191.6320  175.9330  144.1530 C   0  0  0  0  0  0  0  0  0  0  0  0
  192.4300  174.9780  144.3440 O   0  0  0  0  0  0  0  0  0  0  0  0
  189.7710  177.8510  143.7590 O   0  0  0  0  0  0  0  0  0  0  0  0
  189.7310  177.0280  147.5640 S   0  0  0  0  0  0  0  0  0  0  0  0
  191.3310  176.3790  142.8220 N   0  0  0  0  0  0  0  0  0  0  0  0
  190.4590  177.3330  142.6490 C   0  0  0  0  0  0  0  0  0  0  0  0
  191.0400  176.7100  145.2890 C   0  0  1  0  0  3  0  0  0  0  0  0
  187.7290  178.0670  145.9670 C   0  0  0  0  0  0  0  0  0  0  0  0
  184.9470  178.3540  145.7320 C   0  0  0  0  0  3  0  0  0  0  0  0
  186.9530  178.4180  147.0950 C   0  0  0  0  0  0  0  0  0  0  0  0
  185.5670  178.5570  146.9680 C   0  0  0  0  0  3  0  0  0  0  0  0
  185.7120  178.0110  144.6160 C   0  0  0  0  0  3  0  0  0  0  0  0
  187.5550  178.6280  148.3680 N   0  0  0  0  0  1  0  0  0  0  0  0
  187.0970  177.8680  144.7350 C   0  0  0  0  0  3  0  0  0  0  0  0
  190.1700  177.8570  141.2790 C   0  0  0  0  0  2  0  0  0  0  0  0
  188.7590  177.5060  140.7940 C   0  0  1  0  0  3  0  0  0  0  0  0
  187.7670  178.5940  141.1630 C   0  0  0  0  0  1  0  0  0  0  0  0
  188.6960  177.2290  139.2940 C   0  0  0  0  0  2  0  0  0  0  0  0
  186.9170  178.5470  138.1460 O   0  0  0  0  0  0  0  0  0  0  0  0
  189.0550  179.3610  138.2870 O   0  0  0  0  0  1  0  0  0  0  0  0
  188.2430  178.4350  138.5430 C   0  0  0  0  0  0  0  0  0  0  0  0
  1 12  1  6  0  0  0
  1  8  1  0  0  0  0
  2  7  1  6  0  0  0
  2 11  1  0  0  0  0
  2  1  1  0  0  0  0
  4  3  1  1  0  0  0
  4  8  1  0  0  0  0
  5  6  2  0  0  0  0
  9  5  1  0  0  0  0
 10  9  2  0  0  0  0
 10  7  1  0  0  0  0
 11  5  1  6  0  0  0
 11  4  1  0  0  0  0
 12 14  1  0  0  0  0
 13 15  1  0  0  0  0
 14 17  1  0  0  0  0
 15 14  2  0  0  0  0
 16 18  1  0  0  0  0
 16 13  2  0  0  0  0
 18 12  2  0  0  0  0
 19 10  1  0  0  0  0
 20 21  1  6  0  0  0
 20 19  1  0  0  0  0
 22 20  1  0  0  0  0
 23 25  2  0  0  0  0
 24 25  1  0  0  0  0
 25 22  1  0  0  0  0
M  END
>  <MODEL>
7

>  <REMARK>
 VINA RESULT:      -7.6      2.615      5.027
  Name = 
  5 active torsions:
  status: ('A' for Active; 'I' for Inactive)
    1  A    between atoms: C_1  and  C_5
    2  A    between atoms: C_2  and  C_15
    3  A    between atoms: C_2  and  C_21
    4  A    between atoms: C_6  and  C_15
    5  A    between atoms: C_6  and  C_23
                            x       y       z     vdW  Elec       q    Type
                         _______ _______ _______ _____ _____    ______ ____

>  <TORSDO>
F 5

$$$$
=
 OpenBabel10262419463D

 25 27  0  0  1  0  0  0  0  0999 V2000
  186.3180  177.6100  144.9780 C   0  0  2  0  0  3  0  0  0  0  0  0
  186.9650  178.0790  143.7680 N   0  0  1  0  0  0  0  0  0  0  0  0
  183.6230  178.9610  142.8550 O   0  0  0  0  0  1  0  0  0  0  0  0
  184.8670  179.1430  143.4570 C   0  0  1  0  0  3  0  0  0  0  0  0
  186.4790  178.6560  141.5090 C   0  0  0  0  0  0  0  0  0  0  0  0
  185.8800  179.4430  140.7290 O   0  0  0  0  0  0  0  0  0  0  0  0
  187.8390  177.1270  143.2730 O   0  0  0  0  0  0  0  0  0  0  0  0
  184.7910  178.5970  145.1970 S   0  0  0  0  0  0  0  0  0  0  0  0
  187.7250  178.0540  141.1270 N   0  0  0  0  0  0  0  0  0  0  0  0
  188.3520  177.2870  141.9740 C   0  0  0  0  0  0  0  0  0  0  0  0
  185.8830  178.2310  142.8170 C   0  0  1  0  0  3  0  0  0  0  0  0
  187.2310  177.7320  146.1640 C   0  0  0  0  0  0  0  0  0  0  0  0
  189.0360  177.9150  148.3030 C   0  0  0  0  0  3  0  0  0  0  0  0
  186.8630  178.4090  147.3480 C   0  0  0  0  0  0  0  0  0  0  0  0
  187.7700  178.4960  148.4090 C   0  0  0  0  0  3  0  0  0  0  0  0
  189.4010  177.2440  147.1360 C   0  0  0  0  0  3  0  0  0  0  0  0
  185.5800  179.0120  147.4840 N   0  0  0  0  0  1  0  0  0  0  0  0
  188.5010  177.1540  146.0700 C   0  0  0  0  0  3  0  0  0  0  0  0
  189.6210  176.6020  141.5820 C   0  0  0  0  0  2  0  0  0  0  0  0
  190.8020  177.5690  141.4460 C   0  0  1  0  0  3  0  0  0  0  0  0
  191.6530  177.5740  142.7030 C   0  0  0  0  0  1  0  0  0  0  0  0
  191.6730  177.2790  140.2260 C   0  0  0  0  0  2  0  0  0  0  0  0
  190.8960  175.4840  138.6780 O   0  0  0  0  0  1  0  0  0  0  0  0
  190.0890  177.6200  138.4760 O   0  0  0  0  0  0  0  0  0  0  0  0
  190.8470  176.8140  139.0750 C   0  0  0  0  0  0  0  0  0  0  0  0
  1  8  1  0  0  0  0
  1 12  1  1  0  0  0
  2  7  1  6  0  0  0
  2  1  1  0  0  0  0
  4  3  1  6  0  0  0
  4  8  1  0  0  0  0
  6  5  2  0  0  0  0
  9  5  1  0  0  0  0
  9 10  2  0  0  0  0
 10  7  1  0  0  0  0
 11  5  1  6  0  0  0
 11  4  1  0  0  0  0
 11  2  1  0  0  0  0
 12 14  1  0  0  0  0
 13 15  1  0  0  0  0
 14 17  1  0  0  0  0
 14 15  2  0  0  0  0
 16 13  2  0  0  0  0
 18 12  2  0  0  0  0
 18 16  1  0  0  0  0
 19 10  1  0  0  0  0
 20 19  1  0  0  0  0
 20 21  1  1  0  0  0
 22 20  1  0  0  0  0
 23 25  1  0  0  0  0
 24 25  2  0  0  0  0
 25 22  1  0  0  0  0
M  END
>  <MODEL>
8

>  <REMARK>
 VINA RESULT:      -7.5      2.456      5.422
  Name = 
  5 active torsions:
  status: ('A' for Active; 'I' for Inactive)
    1  A    between atoms: C_1  and  C_5
    2  A    between atoms: C_2  and  C_15
    3  A    between atoms: C_2  and  C_21
    4  A    between atoms: C_6  and  C_15
    5  A    between atoms: C_6  and  C_23
                            x       y       z     vdW  Elec       q    Type
                         _______ _______ _______ _____ _____    ______ ____

>  <TORSDO>
F 5

$$$$
=
 OpenBabel10262419463D

 25 27  0  0  1  0  0  0  0  0999 V2000
  186.1400  177.6700  144.8540 C   0  0  2  0  0  3  0  0  0  0  0  0
  186.6750  178.2510  143.6380 N   0  0  1  0  0  0  0  0  0  0  0  0
  183.2370  179.0150  143.0210 O   0  0  0  0  0  1  0  0  0  0  0  0
  184.5110  179.2220  143.5470 C   0  0  1  0  0  3  0  0  0  0  0  0
  186.0000  178.9490  141.4640 C   0  0  0  0  0  0  0  0  0  0  0  0
  185.3090  179.7540  140.7830 O   0  0  0  0  0  0  0  0  0  0  0  0
  187.5550  177.3810  143.0190 O   0  0  0  0  0  0  0  0  0  0  0  0
  184.5870  178.5600  145.2460 S   0  0  0  0  0  0  0  0  0  0  0  0
  187.2420  178.4400  140.9560 N   0  0  0  0  0  0  0  0  0  0  0  0
  187.9640  177.6530  141.7020 C   0  0  0  0  0  0  0  0  0  0  0  0
  185.5210  178.4090  142.7770 C   0  0  1  0  0  3  0  0  0  0  0  0
  187.1290  177.7620  145.9800 C   0  0  0  0  0  0  0  0  0  0  0  0
  189.0690  177.8750  148.0040 C   0  0  0  0  0  3  0  0  0  0  0  0
  186.8940  178.5220  147.1470 C   0  0  0  0  0  0  0  0  0  0  0  0
  187.8680  178.5740  148.1500 C   0  0  0  0  0  3  0  0  0  0  0  0
  189.3020  177.1210  146.8530 C   0  0  0  0  0  3  0  0  0  0  0  0
  185.6810  179.2460  147.3230 N   0  0  0  0  0  1  0  0  0  0  0  0
  188.3350  177.0660  145.8450 C   0  0  0  0  0  3  0  0  0  0  0  0
  189.2330  177.0620  141.1770 C   0  0  0  0  0  2  0  0  0  0  0  0
  190.4280  177.2970  142.1070 C   0  0  1  0  0  3  0  0  0  0  0  0
  191.7070  177.4950  141.3150 C   0  0  0  0  0  1  0  0  0  0  0  0
  190.2180  178.4680  143.0630 C   0  0  0  0  0  2  0  0  0  0  0  0
  191.9240  179.7640  144.3410 O   0  0  0  0  0  0  0  0  0  0  0  0
  191.6820  177.5110  144.6860 O   0  0  0  0  0  1  0  0  0  0  0  0
  191.3170  178.5450  144.0680 C   0  0  0  0  0  0  0  0  0  0  0  0
  1  8  1  0  0  0  0
  1 12  1  1  0  0  0
  2  7  1  6  0  0  0
  2  1  1  0  0  0  0
  4  3  1  6  0  0  0
  4  8  1  0  0  0  0
  6  5  2  0  0  0  0
  9  5  1  0  0  0  0
  9 10  2  0  0  0  0
 10  7  1  0  0  0  0
 11  5  1  6  0  0  0
 11  4  1  0  0  0  0
 11  2  1  0  0  0  0
 12 14  1  0  0  0  0
 13 15  1  0  0  0  0
 14 17  1  0  0  0  0
 14 15  2  0  0  0  0
 16 13  2  0  0  0  0
 18 12  2  0  0  0  0
 18 16  1  0  0  0  0
 19 10  1  0  0  0  0
 19 20  1  0  0  0  0
 20 21  1  6  0  0  0
 20 22  1  0  0  0  0
 22 25  1  0  0  0  0
 25 23  2  0  0  0  0
 25 24  1  0  0  0  0
M  END
>  <MODEL>
9

>  <REMARK>
 VINA RESULT:      -7.5      2.452      5.682
  Name = 
  5 active torsions:
  status: ('A' for Active; 'I' for Inactive)
    1  A    between atoms: C_1  and  C_5
    2  A    between atoms: C_2  and  C_15
    3  A    between atoms: C_2  and  C_21
    4  A    between atoms: C_6  and  C_15
    5  A    between atoms: C_6  and  C_23
                            x       y       z     vdW  Elec       q    Type
                         _______ _______ _______ _____ _____    ______ ____

>  <TORSDO>
F 5

$$$$
