=
 OpenBabel10262419583D

 27 31  0  0  1  0  0  0  0  0999 V2000
  188.6960  178.5610  141.1570 C   0  0  0  0  0  2  0  0  0  0  0  0
  186.9280  178.0670  142.7950 C   0  0  0  0  0  0  0  0  0  0  0  0
  185.7970  178.5350  140.6170 N   0  0  0  0  0  0  0  0  0  0  0  0
  183.4290  179.2210  144.7410 N   0  0  0  0  0  0  0  0  0  0  0  0
  181.2150  178.5890  143.9300 C   0  0  0  0  0  1  0  0  0  0  0  0
  186.7870  177.9590  144.2820 C   0  0  0  0  0  3  0  0  0  0  0  0
  183.4130  178.6980  142.5240 C   0  0  2  0  0  3  0  0  0  0  0  0
  186.6750  177.9890  137.1670 C   0  0  0  0  0  3  0  0  0  0  0  0
  182.9010  178.0350  141.2880 C   0  0  0  0  0  1  0  0  0  0  0  0
  187.9890  177.2680  137.1640 C   0  0  0  0  0  2  0  0  0  0  0  0
  184.6810  178.9580  142.8110 C   0  0  1  0  0  3  0  0  0  0  0  0
  188.1800  177.5460  142.1450 C   0  0  2  0  0  3  0  0  0  0  0  0
  182.6650  178.8750  143.7570 C   0  0  0  0  0  0  0  0  0  0  0  0
  184.7850  179.3960  144.2340 C   0  0  2  0  0  3  0  0  0  0  0  0
  188.1500  178.1980  139.8020 C   0  0  2  0  0  3  0  0  0  0  0  0
  185.8760  178.5210  142.0600 C   0  0  0  0  0  0  0  0  0  0  0  0
  186.0820  178.4480  138.2750 C   0  0  0  0  0  3  0  0  0  0  0  0
  185.7750  178.5280  144.9530 C   0  0  0  0  0  3  0  0  0  0  0  0
  189.1630  178.1430  137.6250 C   0  0  0  0  0  2  0  0  0  0  0  0
  188.8540  178.9780  138.7890 N   0  0  0  0  0  2  0  0  0  0  0  0
  186.6520  178.3950  139.6400 C   0  0  0  0  0  0  0  0  0  0  0  0
  191.3010  176.4370  144.8970 C   0  0  0  0  0  3  0  0  0  0  0  0
  189.2670  177.1360  143.1010 C   0  0  0  0  0  0  0  0  0  0  0  0
  190.0490  175.9910  142.8740 C   0  0  0  0  0  3  0  0  0  0  0  0
  191.0620  175.6430  143.7720 C   0  0  0  0  0  3  0  0  0  0  0  0
  190.5280  177.5790  145.1240 C   0  0  0  0  0  3  0  0  0  0  0  0
  189.5150  177.9290  144.2270 C   0  0  0  0  0  3  0  0  0  0  0  0
  1 12  1  0  0  0  0
  2  6  1  0  0  0  0
  3 16  1  0  0  0  0
  6 18  2  0  0  0  0
  7  9  1  1  0  0  0
  7 11  1  0  0  0  0
  7 13  1  0  0  0  0
  8 17  2  0  0  0  0
 10  8  1  0  0  0  0
 10 19  1  0  0  0  0
 11 16  1  1  0  0  0
 11 14  1  0  0  0  0
 12  2  1  0  0  0  0
 12 23  1  1  0  0  0
 13  5  1  0  0  0  0
 13  4  2  0  0  0  0
 14  4  1  0  0  0  0
 14 18  1  1  0  0  0
 15  1  1  1  0  0  0
 16  2  2  0  0  0  0
 17 21  1  0  0  0  0
 19 20  1  0  0  0  0
 20 15  1  0  0  0  0
 21 15  1  0  0  0  0
 21  3  2  0  0  0  0
 22 26  1  0  0  0  0
 23 27  1  0  0  0  0
 24 23  2  0  0  0  0
 24 25  1  0  0  0  0
 25 22  2  0  0  0  0
 27 26  2  0  0  0  0
M  END
>  <MODEL>
1

>  <REMARK>
 VINA RESULT:     -10.4      0.000      0.000
  Name = 
  1 active torsions:
  status: ('A' for Active; 'I' for Inactive)
    1  A    between atoms: C_9  and  C_15
                            x       y       z     vdW  Elec       q    Type
                         _______ _______ _______ _____ _____    ______ ____

>  <TORSDO>
F 1

$$$$
=
 OpenBabel10262419583D

 27 31  0  0  1  0  0  0  0  0999 V2000
  189.4460  178.2700  142.8150 C   0  0  0  0  0  2  0  0  0  0  0  0
  187.3320  177.9810  144.0410 C   0  0  0  0  0  0  0  0  0  0  0  0
  186.7480  178.2240  141.6240 N   0  0  0  0  0  0  0  0  0  0  0  0
  183.5280  179.3860  144.9960 N   0  0  0  0  0  0  0  0  0  0  0  0
  181.5350  178.6980  143.7640 C   0  0  0  0  0  1  0  0  0  0  0  0
  186.8510  178.0370  145.4580 C   0  0  0  0  0  3  0  0  0  0  0  0
  183.9990  178.6240  142.9010 C   0  0  2  0  0  3  0  0  0  0  0  0
  188.3690  177.2940  138.5450 C   0  0  0  0  0  3  0  0  0  0  0  0
  183.7580  177.8380  141.6550 C   0  0  0  0  0  1  0  0  0  0  0  0
  189.6210  176.5600  138.9210 C   0  0  0  0  0  2  0  0  0  0  0  0
  185.1760  178.8970  143.4450 C   0  0  1  0  0  3  0  0  0  0  0  0
  188.6790  177.3760  143.7550 C   0  0  2  0  0  3  0  0  0  0  0  0
  182.9960  178.9440  143.9030 C   0  0  0  0  0  0  0  0  0  0  0  0
  184.9690  179.4860  144.8000 C   0  0  2  0  0  3  0  0  0  0  0  0
  189.2100  177.7690  141.4150 C   0  0  2  0  0  3  0  0  0  0  0  0
  186.4950  178.3660  143.0400 C   0  0  0  0  0  0  0  0  0  0  0  0
  187.5570  177.8790  139.4330 C   0  0  0  0  0  3  0  0  0  0  0  0
  185.7350  178.6890  145.8140 C   0  0  0  0  0  3  0  0  0  0  0  0
  190.6910  177.4630  139.5480 C   0  0  0  0  0  2  0  0  0  0  0  0
  190.1560  178.4250  140.5170 N   0  0  0  0  0  2  0  0  0  0  0  0
  187.7970  177.9660  140.8910 C   0  0  0  0  0  0  0  0  0  0  0  0
  191.0760  176.4250  147.2050 C   0  0  0  0  0  3  0  0  0  0  0  0
  189.5030  177.0580  144.9730 C   0  0  0  0  0  0  0  0  0  0  0  0
  188.9390  177.0600  146.2600 C   0  0  0  0  0  3  0  0  0  0  0  0
  189.7250  176.7460  147.3720 C   0  0  0  0  0  3  0  0  0  0  0  0
  191.6400  176.4180  145.9260 C   0  0  0  0  0  3  0  0  0  0  0  0
  190.8540  176.7310  144.8130 C   0  0  0  0  0  3  0  0  0  0  0  0
  1 12  1  0  0  0  0
  2  6  1  0  0  0  0
  3 16  1  0  0  0  0
  5 13  1  0  0  0  0
  6 18  2  0  0  0  0
  7  9  1  1  0  0  0
  7 11  1  0  0  0  0
  7 13  1  0  0  0  0
  8 10  1  0  0  0  0
  8 17  2  0  0  0  0
 10 19  1  0  0  0  0
 11 16  1  1  0  0  0
 11 14  1  0  0  0  0
 12  2  1  0  0  0  0
 12 23  1  1  0  0  0
 13  4  2  0  0  0  0
 14  4  1  0  0  0  0
 14 18  1  1  0  0  0
 15  1  1  1  0  0  0
 16  2  2  0  0  0  0
 17 21  1  0  0  0  0
 19 20  1  0  0  0  0
 20 15  1  0  0  0  0
 21 15  1  0  0  0  0
 21  3  2  0  0  0  0
 22 25  1  0  0  0  0
 23 24  1  0  0  0  0
 24 25  2  0  0  0  0
 26 22  2  0  0  0  0
 27 23  2  0  0  0  0
 27 26  1  0  0  0  0
M  END
>  <MODEL>
2

>  <REMARK>
 VINA RESULT:     -10.0      1.350      1.882
  Name = 
  1 active torsions:
  status: ('A' for Active; 'I' for Inactive)
    1  A    between atoms: C_9  and  C_15
                            x       y       z     vdW  Elec       q    Type
                         _______ _______ _______ _____ _____    ______ ____

>  <TORSDO>
F 1

$$$$
=
 OpenBabel10262419583D

 27 31  0  0  1  0  0  0  0  0999 V2000
  187.8200  178.7150  140.5130 C   0  0  0  0  0  2  0  0  0  0  0  0
  189.4700  177.5730  141.9360 C   0  0  0  0  0  0  0  0  0  0  0  0
  187.5090  178.1170  143.3840 N   0  0  0  0  0  0  0  0  0  0  0  0
  191.8580  177.5680  145.3500 N   0  0  0  0  0  0  0  0  0  0  0  0
  191.1180  176.5880  147.4600 C   0  0  0  0  0  1  0  0  0  0  0  0
  190.9180  177.1960  141.8780 C   0  0  0  0  0  3  0  0  0  0  0  0
  189.5900  177.4210  145.5110 C   0  0  2  0  0  3  0  0  0  0  0  0
  183.9600  178.3520  142.8160 C   0  0  0  0  0  3  0  0  0  0  0  0
  188.2970  176.8680  146.0120 C   0  0  0  0  0  1  0  0  0  0  0  0
  183.7230  177.9600  141.3880 C   0  0  0  0  0  2  0  0  0  0  0  0
  189.8220  177.9130  144.3030 C   0  0  1  0  0  3  0  0  0  0  0  0
  188.6410  177.4630  140.6850 C   0  0  2  0  0  3  0  0  0  0  0  0
  190.8890  177.2210  146.1320 C   0  0  0  0  0  0  0  0  0  0  0  0
  191.2890  178.1270  144.1290 C   0  0  2  0  0  3  0  0  0  0  0  0
  186.4680  178.4620  141.1230 C   0  0  2  0  0  3  0  0  0  0  0  0
  188.9140  177.8880  143.1370 C   0  0  0  0  0  0  0  0  0  0  0  0
  185.1750  178.4780  143.3600 C   0  0  0  0  0  3  0  0  0  0  0  0
  191.7580  177.4030  142.9030 C   0  0  0  0  0  3  0  0  0  0  0  0
  184.2460  178.9920  140.3800 C   0  0  0  0  0  2  0  0  0  0  0  0
  185.5640  179.5360  140.7220 N   0  0  0  0  0  2  0  0  0  0  0  0
  186.4600  178.3360  142.6370 C   0  0  0  0  0  0  0  0  0  0  0  0
  190.8130  176.6160  137.0640 C   0  0  0  0  0  3  0  0  0  0  0  0
  189.4190  177.1620  139.4330 C   0  0  0  0  0  0  0  0  0  0  0  0
  190.4700  176.2310  139.4290 C   0  0  0  0  0  3  0  0  0  0  0  0
  191.1650  175.9600  138.2480 C   0  0  0  0  0  3  0  0  0  0  0  0
  189.7650  177.5410  137.0630 C   0  0  0  0  0  3  0  0  0  0  0  0
  189.0690  177.8120  138.2440 C   0  0  0  0  0  3  0  0  0  0  0  0
  1 12  1  0  0  0  0
  2 16  2  0  0  0  0
  4 13  2  0  0  0  0
  6  2  1  0  0  0  0
  6 18  2  0  0  0  0
  7  9  1  6  0  0  0
  7 13  1  0  0  0  0
  8 17  2  0  0  0  0
 10  8  1  0  0  0  0
 11 16  1  6  0  0  0
 11  7  1  0  0  0  0
 12 23  1  6  0  0  0
 12  2  1  0  0  0  0
 13  5  1  0  0  0  0
 14 18  1  6  0  0  0
 14 11  1  0  0  0  0
 14  4  1  0  0  0  0
 15  1  1  1  0  0  0
 15 21  1  0  0  0  0
 16  3  1  0  0  0  0
 19 20  1  0  0  0  0
 19 10  1  0  0  0  0
 20 15  1  0  0  0  0
 21 17  1  0  0  0  0
 21  3  2  0  0  0  0
 22 25  1  0  0  0  0
 24 23  1  0  0  0  0
 25 24  2  0  0  0  0
 26 22  2  0  0  0  0
 26 27  1  0  0  0  0
 27 23  2  0  0  0  0
M  END
>  <MODEL>
3

>  <REMARK>
 VINA RESULT:      -9.8      2.188      5.838
  Name = 
  1 active torsions:
  status: ('A' for Active; 'I' for Inactive)
    1  A    between atoms: C_9  and  C_15
                            x       y       z     vdW  Elec       q    Type
                         _______ _______ _______ _____ _____    ______ ____

>  <TORSDO>
F 1

$$$$
=
 OpenBabel10262419583D

 27 31  0  0  1  0  0  0  0  0999 V2000
  189.5030  178.0460  138.5310 C   0  0  0  0  0  2  0  0  0  0  0  0
  190.1170  177.2030  140.7590 C   0  0  0  0  0  0  0  0  0  0  0  0
  187.8080  178.1390  140.9430 N   0  0  0  0  0  0  0  0  0  0  0  0
  190.6120  177.8980  144.8370 N   0  0  0  0  0  0  0  0  0  0  0  0
  188.8420  177.4600  146.4600 C   0  0  0  0  0  1  0  0  0  0  0  0
  191.3540  176.7690  141.4830 C   0  0  0  0  0  3  0  0  0  0  0  0
  188.5350  177.8770  143.9000 C   0  0  2  0  0  3  0  0  0  0  0  0
  185.0070  178.3690  138.6900 C   0  0  0  0  0  3  0  0  0  0  0  0
  187.0930  177.5030  143.8010 C   0  0  0  0  0  1  0  0  0  0  0  0
  185.4090  177.6660  137.4280 C   0  0  0  0  0  2  0  0  0  0  0  0
  189.3710  178.0670  142.8900 C   0  0  1  0  0  3  0  0  0  0  0  0
  189.9590  176.8380  139.3080 C   0  0  2  0  0  3  0  0  0  0  0  0
  189.3510  177.7770  145.0980 C   0  0  0  0  0  0  0  0  0  0  0  0
  190.7630  178.1800  143.4150 C   0  0  2  0  0  3  0  0  0  0  0  0
  188.0010  177.9910  138.4420 C   0  0  2  0  0  3  0  0  0  0  0  0
  189.1170  177.8070  141.4570 C   0  0  0  0  0  0  0  0  0  0  0  0
  185.8330  178.5720  139.7220 C   0  0  0  0  0  3  0  0  0  0  0  0
  191.6400  177.1760  142.7280 C   0  0  0  0  0  3  0  0  0  0  0  0
  186.4830  178.4180  136.6300 C   0  0  0  0  0  2  0  0  0  0  0  0
  187.5530  178.9760  137.4620 N   0  0  0  0  0  2  0  0  0  0  0  0
  187.2710  178.2180  139.7550 C   0  0  0  0  0  0  0  0  0  0  0  0
  193.4220  175.0280  137.4970 C   0  0  0  0  0  3  0  0  0  0  0  0
  191.1770  176.2270  138.6720 C   0  0  0  0  0  0  0  0  0  0  0  0
  192.4310  176.8580  138.7340 C   0  0  0  0  0  3  0  0  0  0  0  0
  193.5490  176.2590  138.1460 C   0  0  0  0  0  3  0  0  0  0  0  0
  192.1770  174.3950  137.4350 C   0  0  0  0  0  3  0  0  0  0  0  0
  191.0580  174.9930  138.0240 C   0  0  0  0  0  3  0  0  0  0  0  0
  1 12  1  0  0  0  0
  2 16  2  0  0  0  0
  2  6  1  0  0  0  0
  3 16  1  0  0  0  0
  4 13  2  0  0  0  0
  6 18  2  0  0  0  0
  7  9  1  6  0  0  0
  7 13  1  0  0  0  0
  8 17  2  0  0  0  0
 10  8  1  0  0  0  0
 11 16  1  6  0  0  0
 11 14  1  0  0  0  0
 11  7  1  0  0  0  0
 12 23  1  6  0  0  0
 12  2  1  0  0  0  0
 13  5  1  0  0  0  0
 14 18  1  6  0  0  0
 14  4  1  0  0  0  0
 15  1  1  1  0  0  0
 15 21  1  0  0  0  0
 17 21  1  0  0  0  0
 19 10  1  0  0  0  0
 19 20  1  0  0  0  0
 20 15  1  0  0  0  0
 21  3  2  0  0  0  0
 22 25  1  0  0  0  0
 23 24  1  0  0  0  0
 25 24  2  0  0  0  0
 26 22  2  0  0  0  0
 26 27  1  0  0  0  0
 27 23  2  0  0  0  0
M  END
>  <MODEL>
4

>  <REMARK>
 VINA RESULT:      -8.9      2.685      5.088
  Name = 
  1 active torsions:
  status: ('A' for Active; 'I' for Inactive)
    1  A    between atoms: C_9  and  C_15
                            x       y       z     vdW  Elec       q    Type
                         _______ _______ _______ _____ _____    ______ ____

>  <TORSDO>
F 1

$$$$
=
 OpenBabel10262419583D

 27 31  0  0  1  0  0  0  0  0999 V2000
  186.3580  178.9750  145.0190 C   0  0  0  0  0  2  0  0  0  0  0  0
  186.8020  178.1110  142.7580 C   0  0  0  0  0  0  0  0  0  0  0  0
  188.8020  177.5690  144.1530 N   0  0  0  0  0  0  0  0  0  0  0  0
  189.2490  177.9930  139.3890 N   0  0  0  0  0  0  0  0  0  0  0  0
  190.9840  176.3000  139.0940 C   0  0  0  0  0  1  0  0  0  0  0  0
  186.2420  178.2650  141.3780 C   0  0  0  0  0  3  0  0  0  0  0  0
  189.9270  177.0650  141.3560 C   0  0  2  0  0  3  0  0  0  0  0  0
  189.2910  176.7550  147.6280 C   0  0  0  0  0  3  0  0  0  0  0  0
  190.5120  176.0030  142.2270 C   0  0  0  0  0  1  0  0  0  0  0  0
  187.9300  176.7010  148.2550 C   0  0  0  0  0  2  0  0  0  0  0  0
  188.9580  177.9080  141.6840 C   0  0  1  0  0  3  0  0  0  0  0  0
  185.8550  178.0680  143.9260 C   0  0  2  0  0  3  0  0  0  0  0  0
  190.0780  177.1500  139.9130 C   0  0  0  0  0  0  0  0  0  0  0  0
  188.5010  178.6330  140.4630 C   0  0  2  0  0  3  0  0  0  0  0  0
  187.1650  178.1350  145.9730 C   0  0  2  0  0  3  0  0  0  0  0  0
  188.1360  177.8930  142.9120 C   0  0  0  0  0  0  0  0  0  0  0  0
  189.5120  177.1280  146.3620 C   0  0  0  0  0  3  0  0  0  0  0  0
  187.0200  178.4590  140.3030 C   0  0  0  0  0  3  0  0  0  0  0  0
  187.2600  178.0760  148.3730 C   0  0  0  0  0  2  0  0  0  0  0  0
  187.4210  178.9140  147.1810 N   0  0  0  0  0  2  0  0  0  0  0  0
  188.4800  177.6170  145.4180 C   0  0  0  0  0  0  0  0  0  0  0  0
  181.7360  178.9550  143.0300 C   0  0  0  0  0  3  0  0  0  0  0  0
  184.4220  178.3860  143.5920 C   0  0  0  0  0  0  0  0  0  0  0  0
  183.9500  178.3350  142.2700 C   0  0  0  0  0  3  0  0  0  0  0  0
  182.6100  178.6210  141.9910 C   0  0  0  0  0  3  0  0  0  0  0  0
  182.2020  179.0030  144.3470 C   0  0  0  0  0  3  0  0  0  0  0  0
  183.5410  178.7160  144.6270 C   0  0  0  0  0  3  0  0  0  0  0  0
  2 16  2  0  0  0  0
  2 12  1  0  0  0  0
  3 21  2  0  0  0  0
  4 13  2  0  0  0  0
  4 14  1  0  0  0  0
  5 13  1  0  0  0  0
  6  2  1  0  0  0  0
  7 11  1  0  0  0  0
  7  9  1  6  0  0  0
  8 10  1  0  0  0  0
 10 19  1  0  0  0  0
 11 16  1  6  0  0  0
 12 23  1  6  0  0  0
 12  1  1  0  0  0  0
 13  7  1  0  0  0  0
 14 18  1  6  0  0  0
 14 11  1  0  0  0  0
 15  1  1  6  0  0  0
 15 20  1  0  0  0  0
 16  3  1  0  0  0  0
 17  8  2  0  0  0  0
 18  6  2  0  0  0  0
 20 19  1  0  0  0  0
 21 15  1  0  0  0  0
 21 17  1  0  0  0  0
 22 26  1  0  0  0  0
 23 27  1  0  0  0  0
 24 23  2  0  0  0  0
 25 24  1  0  0  0  0
 25 22  2  0  0  0  0
 26 27  2  0  0  0  0
M  END
>  <MODEL>
5

>  <REMARK>
 VINA RESULT:      -8.6      2.131      7.351
  Name = 
  1 active torsions:
  status: ('A' for Active; 'I' for Inactive)
    1  A    between atoms: C_9  and  C_15
                            x       y       z     vdW  Elec       q    Type
                         _______ _______ _______ _____ _____    ______ ____

>  <TORSDO>
F 1

$$$$
=
 OpenBabel10262419583D

 27 31  0  0  1  0  0  0  0  0999 V2000
  189.0020  176.6500  141.4600 C   0  0  0  0  0  2  0  0  0  0  0  0
  186.9690  178.0170  141.2330 C   0  0  0  0  0  0  0  0  0  0  0  0
  187.3490  177.6740  143.6780 N   0  0  0  0  0  0  0  0  0  0  0  0
  182.9200  178.5710  142.0450 N   0  0  0  0  0  0  0  0  0  0  0  0
  182.1380  179.8510  143.9720 C   0  0  0  0  0  1  0  0  0  0  0  0
  186.0000  178.4000  140.1570 C   0  0  0  0  0  3  0  0  0  0  0  0
  184.4740  178.7120  143.7060 C   0  0  2  0  0  3  0  0  0  0  0  0
  190.2840  177.3090  145.7330 C   0  0  0  0  0  3  0  0  0  0  0  0
  185.1360  179.3170  144.8980 C   0  0  0  0  0  1  0  0  0  0  0  0
  191.4680  177.4760  144.8300 C   0  0  0  0  0  2  0  0  0  0  0  0
  185.0690  178.0450  142.7270 C   0  0  1  0  0  3  0  0  0  0  0  0
  188.4310  177.9250  140.8930 C   0  0  2  0  0  3  0  0  0  0  0  0
  183.1330  179.0210  143.2390 C   0  0  0  0  0  0  0  0  0  0  0  0
  184.0980  177.8270  141.6160 C   0  0  2  0  0  3  0  0  0  0  0  0
  189.5980  176.9760  142.8030 C   0  0  2  0  0  3  0  0  0  0  0  0
  186.5220  177.8810  142.5110 C   0  0  0  0  0  0  0  0  0  0  0  0
  189.0180  177.2830  145.3020 C   0  0  0  0  0  3  0  0  0  0  0  0
  184.6710  178.3610  140.3380 C   0  0  0  0  0  3  0  0  0  0  0  0
  191.6550  176.3100  143.8510 C   0  0  0  0  0  2  0  0  0  0  0  0
  190.4050  175.8420  143.2450 N   0  0  0  0  0  2  0  0  0  0  0  0
  188.5920  177.3310  143.8840 C   0  0  0  0  0  0  0  0  0  0  0  0
  189.3800  178.2040  136.7010 C   0  0  0  0  0  3  0  0  0  0  0  0
  188.7500  178.0420  139.4270 C   0  0  0  0  0  0  0  0  0  0  0  0
  188.8270  179.2930  138.7920 C   0  0  0  0  0  3  0  0  0  0  0  0
  189.1400  179.3710  137.4320 C   0  0  0  0  0  3  0  0  0  0  0  0
  189.3080  176.9580  137.3310 C   0  0  0  0  0  3  0  0  0  0  0  0
  188.9960  176.8780  138.6910 C   0  0  0  0  0  3  0  0  0  0  0  0
  2 16  2  0  0  0  0
  3 21  2  0  0  0  0
  4 13  2  0  0  0  0
  6 18  2  0  0  0  0
  6  2  1  0  0  0  0
  7  9  1  6  0  0  0
 10  8  1  0  0  0  0
 11 16  1  6  0  0  0
 11  7  1  0  0  0  0
 12 23  1  6  0  0  0
 12  2  1  0  0  0  0
 12  1  1  0  0  0  0
 13  7  1  0  0  0  0
 13  5  1  0  0  0  0
 14 18  1  6  0  0  0
 14  4  1  0  0  0  0
 14 11  1  0  0  0  0
 15  1  1  6  0  0  0
 15 20  1  0  0  0  0
 15 21  1  0  0  0  0
 16  3  1  0  0  0  0
 17  8  2  0  0  0  0
 19 10  1  0  0  0  0
 20 19  1  0  0  0  0
 21 17  1  0  0  0  0
 22 26  2  0  0  0  0
 22 25  1  0  0  0  0
 24 23  1  0  0  0  0
 25 24  2  0  0  0  0
 26 27  1  0  0  0  0
 27 23  2  0  0  0  0
M  END
>  <MODEL>
6

>  <REMARK>
 VINA RESULT:      -8.3      1.758      5.124
  Name = 
  1 active torsions:
  status: ('A' for Active; 'I' for Inactive)
    1  A    between atoms: C_9  and  C_15
                            x       y       z     vdW  Elec       q    Type
                         _______ _______ _______ _____ _____    ______ ____

>  <TORSDO>
F 1

$$$$
=
 OpenBabel10262419583D

 27 31  0  0  1  0  0  0  0  0999 V2000
  186.5530  179.0240  141.6070 C   0  0  0  0  0  2  0  0  0  0  0  0
  184.1930  178.4170  141.9390 C   0  0  0  0  0  0  0  0  0  0  0  0
  184.6620  178.2160  139.4940 N   0  0  0  0  0  0  0  0  0  0  0  0
  180.1770  179.0250  141.0110 N   0  0  0  0  0  0  0  0  0  0  0  0
  179.0310  177.7540  139.2700 C   0  0  0  0  0  1  0  0  0  0  0  0
  183.1510  178.5380  143.0080 C   0  0  0  0  0  3  0  0  0  0  0  0
  181.6070  178.1360  139.4770 C   0  0  2  0  0  3  0  0  0  0  0  0
  187.5630  177.3030  137.5630 C   0  0  0  0  0  3  0  0  0  0  0  0
  182.0450  177.1660  138.4300 C   0  0  0  0  0  1  0  0  0  0  0  0
  188.6340  176.9260  138.5430 C   0  0  0  0  0  2  0  0  0  0  0  0
  182.3820  178.7360  140.3690 C   0  0  1  0  0  3  0  0  0  0  0  0
  185.6090  178.1040  142.3360 C   0  0  2  0  0  3  0  0  0  0  0  0
  180.2370  178.3420  139.9150 C   0  0  0  0  0  0  0  0  0  0  0  0
  181.5290  179.4260  141.3800 C   0  0  2  0  0  3  0  0  0  0  0  0
  187.0170  178.3120  140.3650 C   0  0  2  0  0  3  0  0  0  0  0  0
  183.8120  178.4720  140.6340 C   0  0  0  0  0  0  0  0  0  0  0  0
  186.3700  177.7930  137.9180 C   0  0  0  0  0  3  0  0  0  0  0  0
  181.9030  178.9580  142.7540 C   0  0  0  0  0  3  0  0  0  0  0  0
  189.1800  178.1210  139.3360 C   0  0  0  0  0  2  0  0  0  0  0  0
  188.1410  179.0490  139.7940 N   0  0  0  0  0  2  0  0  0  0  0  0
  185.9500  178.1150  139.3010 C   0  0  0  0  0  0  0  0  0  0  0  0
  186.3570  178.2650  146.5750 C   0  0  0  0  0  3  0  0  0  0  0  0
  185.8740  178.1360  143.8170 C   0  0  0  0  0  0  0  0  0  0  0  0
  186.7330  177.2090  144.4290 C   0  0  0  0  0  3  0  0  0  0  0  0
  186.9720  177.2730  145.8040 C   0  0  0  0  0  3  0  0  0  0  0  0
  185.5040  179.1920  145.9690 C   0  0  0  0  0  3  0  0  0  0  0  0
  185.2650  179.1290  144.5930 C   0  0  0  0  0  3  0  0  0  0  0  0
  1 12  1  0  0  0  0
  2 12  1  0  0  0  0
  2  6  1  0  0  0  0
  3 16  1  0  0  0  0
  4 14  1  0  0  0  0
  5 13  1  0  0  0  0
  7  9  1  1  0  0  0
  7 13  1  0  0  0  0
  7 11  1  0  0  0  0
  8 17  2  0  0  0  0
  8 10  1  0  0  0  0
 10 19  1  0  0  0  0
 11 16  1  1  0  0  0
 11 14  1  0  0  0  0
 12 23  1  1  0  0  0
 13  4  2  0  0  0  0
 14 18  1  1  0  0  0
 15  1  1  1  0  0  0
 16  2  2  0  0  0  0
 17 21  1  0  0  0  0
 18  6  2  0  0  0  0
 19 20  1  0  0  0  0
 20 15  1  0  0  0  0
 21  3  2  0  0  0  0
 21 15  1  0  0  0  0
 23 24  2  0  0  0  0
 23 27  1  0  0  0  0
 24 25  1  0  0  0  0
 25 22  2  0  0  0  0
 26 22  1  0  0  0  0
 27 26  2  0  0  0  0
M  END
>  <MODEL>
7

>  <REMARK>
 VINA RESULT:      -8.2      2.278      3.502
  Name = 
  1 active torsions:
  status: ('A' for Active; 'I' for Inactive)
    1  A    between atoms: C_9  and  C_15
                            x       y       z     vdW  Elec       q    Type
                         _______ _______ _______ _____ _____    ______ ____

>  <TORSDO>
F 1

$$$$
=
 OpenBabel10262419583D

 27 31  0  0  1  0  0  0  0  0999 V2000
  191.7570  177.2890  139.8870 C   0  0  0  0  0  2  0  0  0  0  0  0
  189.3160  177.3000  140.1910 C   0  0  0  0  0  0  0  0  0  0  0  0
  189.7580  176.5180  137.8600 N   0  0  0  0  0  0  0  0  0  0  0  0
  185.5590  178.5910  138.9340 N   0  0  0  0  0  0  0  0  0  0  0  0
  184.1750  177.2860  137.4040 C   0  0  0  0  0  1  0  0  0  0  0  0
  188.3170  177.8610  141.1560 C   0  0  0  0  0  3  0  0  0  0  0  0
  186.7660  177.1180  137.6830 C   0  0  2  0  0  3  0  0  0  0  0  0
  192.3960  174.6170  136.3100 C   0  0  0  0  0  3  0  0  0  0  0  0
  186.9830  175.8870  136.8680 C   0  0  0  0  0  1  0  0  0  0  0  0
  193.3390  174.2140  137.4040 C   0  0  0  0  0  2  0  0  0  0  0  0
  187.6470  177.6960  138.4880 C   0  0  1  0  0  3  0  0  0  0  0  0
  190.6180  176.7650  140.7220 C   0  0  2  0  0  3  0  0  0  0  0  0
  185.4750  177.7070  137.9940 C   0  0  0  0  0  0  0  0  0  0  0  0
  186.9630  178.7460  139.2970 C   0  0  2  0  0  3  0  0  0  0  0  0
  192.0610  176.2590  138.8320 C   0  0  2  0  0  3  0  0  0  0  0  0
  188.9750  177.1780  138.8790 C   0  0  0  0  0  0  0  0  0  0  0  0
  191.3430  175.4210  136.4960 C   0  0  0  0  0  3  0  0  0  0  0  0
  187.2020  178.4890  140.7550 C   0  0  0  0  0  3  0  0  0  0  0  0
  194.1340  175.3900  137.9850 C   0  0  0  0  0  2  0  0  0  0  0  0
  193.3310  176.5980  138.1970 N   0  0  0  0  0  2  0  0  0  0  0  0
  190.9910  176.0970  137.7660 C   0  0  0  0  0  0  0  0  0  0  0  0
  191.2730  177.4870  144.9170 C   0  0  0  0  0  3  0  0  0  0  0  0
  190.8640  177.0320  142.1820 C   0  0  0  0  0  0  0  0  0  0  0  0
  191.3750  178.2630  142.6260 C   0  0  0  0  0  3  0  0  0  0  0  0
  191.5800  178.4880  143.9900 C   0  0  0  0  0  3  0  0  0  0  0  0
  190.7610  176.2620  144.4800 C   0  0  0  0  0  3  0  0  0  0  0  0
  190.5550  176.0370  143.1160 C   0  0  0  0  0  3  0  0  0  0  0  0
  1 12  1  0  0  0  0
  2 12  1  0  0  0  0
  2  6  1  0  0  0  0
  3 16  1  0  0  0  0
  4 14  1  0  0  0  0
  5 13  1  0  0  0  0
  7  9  1  1  0  0  0
  7 13  1  0  0  0  0
  7 11  1  0  0  0  0
  8 17  2  0  0  0  0
  8 10  1  0  0  0  0
 10 19  1  0  0  0  0
 11 16  1  1  0  0  0
 11 14  1  0  0  0  0
 12 23  1  1  0  0  0
 13  4  2  0  0  0  0
 14 18  1  1  0  0  0
 15  1  1  1  0  0  0
 16  2  2  0  0  0  0
 17 21  1  0  0  0  0
 18  6  2  0  0  0  0
 19 20  1  0  0  0  0
 20 15  1  0  0  0  0
 21  3  2  0  0  0  0
 21 15  1  0  0  0  0
 23 24  2  0  0  0  0
 23 27  1  0  0  0  0
 24 25  1  0  0  0  0
 25 22  2  0  0  0  0
 26 22  1  0  0  0  0
 27 26  2  0  0  0  0
M  END
>  <MODEL>
8

>  <REMARK>
 VINA RESULT:      -8.2      3.032      4.879
  Name = 
  1 active torsions:
  status: ('A' for Active; 'I' for Inactive)
    1  A    between atoms: C_9  and  C_15
                            x       y       z     vdW  Elec       q    Type
                         _______ _______ _______ _____ _____    ______ ____

>  <TORSDO>
F 1

$$$$
=
 OpenBabel10262419583D

 27 31  0  0  1  0  0  0  0  0999 V2000
  185.1540  179.2750  142.0680 C   0  0  0  0  0  2  0  0  0  0  0  0
  186.4310  178.2190  140.2490 C   0  0  0  0  0  0  0  0  0  0  0  0
  187.8170  178.0320  142.3190 N   0  0  0  0  0  0  0  0  0  0  0  0
  189.9340  177.9790  138.0070 N   0  0  0  0  0  0  0  0  0  0  0  0
  191.7450  176.4440  138.5750 C   0  0  0  0  0  1  0  0  0  0  0  0
  186.4010  178.1670  138.7530 C   0  0  0  0  0  3  0  0  0  0  0  0
  189.9020  177.3410  140.1940 C   0  0  2  0  0  3  0  0  0  0  0  0
  187.0590  177.6520  145.8200 C   0  0  0  0  0  3  0  0  0  0  0  0
  190.1880  176.4420  141.3510 C   0  0  0  0  0  1  0  0  0  0  0  0
  185.5680  177.5310  145.9290 C   0  0  0  0  0  2  0  0  0  0  0  0
  188.8370  178.1140  140.0410 C   0  0  1  0  0  3  0  0  0  0  0  0
  185.1290  178.2100  141.0030 C   0  0  2  0  0  3  0  0  0  0  0  0
  190.5600  177.2830  138.8990 C   0  0  0  0  0  0  0  0  0  0  0  0
  188.8140  178.6550  138.6500 C   0  0  2  0  0  3  0  0  0  0  0  0
  185.6040  178.6270  143.3500 C   0  0  2  0  0  3  0  0  0  0  0  0
  187.6280  178.1520  140.8910 C   0  0  0  0  0  0  0  0  0  0  0  0
  187.7010  177.9050  144.6740 C   0  0  0  0  0  3  0  0  0  0  0  0
  187.5030  178.3190  138.0040 C   0  0  0  0  0  3  0  0  0  0  0  0
  184.8280  178.8380  145.6140 C   0  0  0  0  0  2  0  0  0  0  0  0
  185.3640  179.5540  144.4520 N   0  0  0  0  0  2  0  0  0  0  0  0
  187.0570  178.1840  143.3700 C   0  0  0  0  0  0  0  0  0  0  0  0
  181.6130  178.5350  138.5360 C   0  0  0  0  0  3  0  0  0  0  0  0
  183.9000  178.3460  140.1460 C   0  0  0  0  0  0  0  0  0  0  0  0
  183.6050  179.5440  139.4720 C   0  0  0  0  0  3  0  0  0  0  0  0
  182.4640  179.6360  138.6710 C   0  0  0  0  0  3  0  0  0  0  0  0
  181.9050  177.3410  139.2010 C   0  0  0  0  0  3  0  0  0  0  0  0
  183.0460  177.2470  140.0020 C   0  0  0  0  0  3  0  0  0  0  0  0
  2 16  2  0  0  0  0
  2 12  1  0  0  0  0
  3 21  2  0  0  0  0
  4 14  1  0  0  0  0
  4 13  2  0  0  0  0
  5 13  1  0  0  0  0
  6  2  1  0  0  0  0
  7  9  1  6  0  0  0
  8 10  1  0  0  0  0
 11  7  1  0  0  0  0
 11 16  1  6  0  0  0
 12 23  1  6  0  0  0
 12  1  1  0  0  0  0
 13  7  1  0  0  0  0
 14 18  1  6  0  0  0
 14 11  1  0  0  0  0
 15  1  1  6  0  0  0
 15 21  1  0  0  0  0
 15 20  1  0  0  0  0
 16  3  1  0  0  0  0
 17  8  2  0  0  0  0
 18  6  2  0  0  0  0
 19 10  1  0  0  0  0
 20 19  1  0  0  0  0
 21 17  1  0  0  0  0
 22 25  2  0  0  0  0
 22 26  1  0  0  0  0
 24 23  2  0  0  0  0
 25 24  1  0  0  0  0
 26 27  2  0  0  0  0
 27 23  1  0  0  0  0
M  END
>  <MODEL>
9

>  <REMARK>
 VINA RESULT:      -8.0      1.929      7.498
  Name = 
  1 active torsions:
  status: ('A' for Active; 'I' for Inactive)
    1  A    between atoms: C_9  and  C_15
                            x       y       z     vdW  Elec       q    Type
                         _______ _______ _______ _____ _____    ______ ____

>  <TORSDO>
F 1

$$$$
