=
 OpenBabel10262423343D

 34 38  0  0  1  0  0  0  0  0999 V2000
  189.8530  176.1290  143.9860 C   0  0  1  0  0  3  0  0  0  0  0  0
  187.5660  177.8900  146.7310 C   0  0  1  0  0  3  0  0  0  0  0  0
  184.6240  179.0590  145.5850 C   0  0  0  0  0  1  0  0  0  0  0  0
  189.9840  177.0870  146.8470 C   0  0  0  0  0  2  0  0  0  0  0  0
  190.1550  177.5720  141.8890 C   0  0  2  0  0  3  0  0  0  0  0  0
  189.7190  176.2200  142.4600 C   0  0  0  0  0  2  0  0  0  0  0  0
  191.6700  177.9890  143.9050 C   0  0  2  0  0  3  0  0  0  0  0  0
  191.0260  179.2420  144.4870 C   0  0  0  0  0  1  0  0  0  0  0  0
  191.5500  177.9680  142.3800 C   0  0  0  0  0  2  0  0  0  0  0  0
  191.2100  176.7110  146.0560 C   0  0  0  0  0  0  0  0  0  0  0  0
  191.1900  176.6690  144.5450 C   0  0  1  0  0  3  0  0  0  0  0  0
  192.2430  176.4500  146.6470 O   0  0  0  0  0  0  0  0  0  0  0  0
  186.3020  177.2720  146.0900 C   0  0  1  0  0  3  0  0  0  0  0  0
  185.1200  177.6780  145.2090 C   0  0  2  0  0  3  0  0  0  0  0  0
  186.4910  177.7680  144.6390 C   0  0  2  0  0  3  0  0  0  0  0  0
  188.8450  177.5220  145.9280 C   0  0  1  0  0  3  0  0  0  0  0  0
  187.2610  176.6030  144.0390 C   0  0  0  0  0  2  0  0  0  0  0  0
  188.5970  176.4490  144.8240 C   0  0  1  0  0  3  0  0  0  0  0  0
  187.4780  179.3900  146.9840 C   0  0  0  0  0  2  0  0  0  0  0  0
  186.6300  179.6390  148.0470 F   0  0  0  0  0  0  0  0  0  0  0  0
  189.1230  178.6730  142.1200 C   0  0  0  0  0  2  0  0  0  0  0  0
  188.3500  179.0040  140.8490 C   0  0  0  0  0  2  0  0  0  0  0  0
  187.0430  178.2310  140.7810 C   0  0  0  0  0  2  0  0  0  0  0  0
  185.1110  178.8260  138.9270 C   0  0  0  0  0  1  0  0  0  0  0  0
  184.6330  178.3620  141.1790 C   0  0  2  0  0  3  0  0  0  0  0  0
  185.8840  179.1070  141.2630 C   0  0  2  0  0  3  0  0  0  0  0  0
  184.8720  179.4540  140.2230 N   0  0  0  0  0  0  0  0  0  0  0  0
  182.2990  178.6880  142.0850 C   0  0  0  0  0  0  0  0  0  0  0  0
  183.7150  178.8200  142.2090 N   0  0  0  0  0  2  0  0  0  0  0  0
  181.7960  178.0890  141.0980 O   0  0  0  0  0  0  0  0  0  0  0  0
  181.4050  179.2690  143.1280 C   0  0  0  0  0  2  0  0  0  0  0  0
  179.9410  179.1670  142.7220 C   0  0  0  0  0  2  0  0  0  0  0  0
  179.3560  180.5370  142.4130 C   0  0  0  0  0  2  0  0  0  0  0  0
  179.5570  180.8850  140.9520 C   0  0  0  0  0  1  0  0  0  0  0  0
  1  6  1  6  0  0  0
  1 11  1  0  0  0  0
  1 18  1  0  0  0  0
  2 19  1  6  0  0  0
  5 21  1  1  0  0  0
  5  9  1  0  0  0  0
  5  6  1  0  0  0  0
  7  8  1  1  0  0  0
  7 11  1  0  0  0  0
  9  7  1  0  0  0  0
 10 12  2  0  0  0  0
 10  4  1  0  0  0  0
 11 10  1  1  0  0  0
 13  2  1  0  0  0  0
 14  3  1  0  0  0  0
 14 13  1  0  0  0  0
 15 14  1  0  0  0  0
 15 13  1  0  0  0  0
 16  2  1  0  0  0  0
 16  4  1  0  0  0  0
 17 15  1  0  0  0  0
 17 18  1  0  0  0  0
 18 16  1  0  0  0  0
 19 20  1  0  0  0  0
 22 21  1  0  0  0  0
 23 22  1  0  0  0  0
 23 26  1  0  0  0  0
 24 27  1  0  0  0  0
 25 26  1  0  0  0  0
 25 29  1  0  0  0  0
 27 25  1  0  0  0  0
 27 26  1  0  0  0  0
 28 29  1  0  0  0  0
 28 31  1  0  0  0  0
 30 28  2  0  0  0  0
 32 31  1  0  0  0  0
 33 32  1  0  0  0  0
 34 33  1  0  0  0  0
M  END
>  <MODEL>
1

>  <REMARK>
 VINA RESULT:      -7.2      0.000      0.000
  Name = 
  9 active torsions:
  status: ('A' for Active; 'I' for Inactive)
    1  A    between atoms: C_2  and  C_13
    2  A    between atoms: C_6  and  C_28
    3  A    between atoms: C_6  and  C_30
    4  A    between atoms: C_7  and  C_29
    5  A    between atoms: C_8  and  C_18
    6  A    between atoms: C_11  and  C_15
    7  A    between atoms: C_11  and  C_29
    8  A    between atoms: N_14  and  C_16
    9  A    between atoms: C_18  and  C_30
                            x       y       z     vdW  Elec       q    Type
                         _______ _______ _______ _____ _____    ______ ____

>  <TORSDO>
F 9

$$$$
=
 OpenBabel10262423343D

 34 38  0  0  1  0  0  0  0  0999 V2000
  189.8910  176.1650  143.9630 C   0  0  1  0  0  3  0  0  0  0  0  0
  187.3580  177.9540  146.4630 C   0  0  1  0  0  3  0  0  0  0  0  0
  184.5120  179.0600  145.0440 C   0  0  0  0  0  1  0  0  0  0  0  0
  189.7660  177.1850  146.8020 C   0  0  0  0  0  2  0  0  0  0  0  0
  190.3560  177.5660  141.8670 C   0  0  2  0  0  3  0  0  0  0  0  0
  189.8880  176.2220  142.4290 C   0  0  0  0  0  2  0  0  0  0  0  0
  191.6880  178.0460  143.9960 C   0  0  2  0  0  3  0  0  0  0  0  0
  190.9820  179.3030  144.4920 C   0  0  0  0  0  1  0  0  0  0  0  0
  191.6990  177.9910  142.4670 C   0  0  0  0  0  2  0  0  0  0  0  0
  191.0600  176.8080  146.1270 C   0  0  0  0  0  0  0  0  0  0  0  0
  191.1700  176.7340  144.6210 C   0  0  1  0  0  3  0  0  0  0  0  0
  192.0410  176.5740  146.8100 O   0  0  0  0  0  0  0  0  0  0  0  0
  186.1610  177.3060  145.7300 C   0  0  1  0  0  3  0  0  0  0  0  0
  185.0540  177.6780  144.7420 C   0  0  2  0  0  3  0  0  0  0  0  0
  186.4680  177.7730  144.2900 C   0  0  2  0  0  3  0  0  0  0  0  0
  188.7060  177.5860  145.7800 C   0  0  1  0  0  3  0  0  0  0  0  0
  187.2990  176.6060  143.7830 C   0  0  0  0  0  2  0  0  0  0  0  0
  188.5640  176.4870  144.6830 C   0  0  1  0  0  3  0  0  0  0  0  0
  187.2330  179.4580  146.6730 C   0  0  0  0  0  2  0  0  0  0  0  0
  186.2140  179.7240  147.5700 F   0  0  0  0  0  0  0  0  0  0  0  0
  189.2960  178.6580  141.9850 C   0  0  0  0  0  2  0  0  0  0  0  0
  188.1840  178.4860  140.9560 C   0  0  0  0  0  2  0  0  0  0  0  0
  188.7100  178.6620  139.5410 C   0  0  0  0  0  2  0  0  0  0  0  0
  187.7910  178.5000  136.9610 C   0  0  0  0  0  1  0  0  0  0  0  0
  189.7390  177.4160  137.7040 C   0  0  2  0  0  3  0  0  0  0  0  0
  188.8480  177.3010  138.8540 C   0  0  2  0  0  3  0  0  0  0  0  0
  188.2990  177.2290  137.4690 N   0  0  0  0  0  0  0  0  0  0  0  0
  191.7300  175.8940  138.0080 C   0  0  0  0  0  0  0  0  0  0  0  0
  190.4280  176.1550  137.4850 N   0  0  0  0  0  2  0  0  0  0  0  0
  192.2990  176.7340  138.7550 O   0  0  0  0  0  0  0  0  0  0  0  0
  192.4270  174.6220  137.6640 C   0  0  0  0  0  2  0  0  0  0  0  0
  193.9340  174.8220  137.5770 C   0  0  0  0  0  2  0  0  0  0  0  0
  194.6830  173.6400  138.1720 C   0  0  0  0  0  2  0  0  0  0  0  0
  195.8250  174.1180  139.0470 C   0  0  0  0  0  1  0  0  0  0  0  0
  1  6  1  6  0  0  0
  1 11  1  0  0  0  0
  1 18  1  0  0  0  0
  2 19  1  6  0  0  0
  5 21  1  1  0  0  0
  5  6  1  0  0  0  0
  5  9  1  0  0  0  0
  7  8  1  6  0  0  0
  7 11  1  0  0  0  0
  9  7  1  0  0  0  0
 10  4  1  0  0  0  0
 10 12  2  0  0  0  0
 11 10  1  1  0  0  0
 13  2  1  0  0  0  0
 14  3  1  0  0  0  0
 14 13  1  0  0  0  0
 15 14  1  0  0  0  0
 15 13  1  0  0  0  0
 16  2  1  0  0  0  0
 16  4  1  0  0  0  0
 17 15  1  0  0  0  0
 17 18  1  0  0  0  0
 18 16  1  0  0  0  0
 19 20  1  0  0  0  0
 22 21  1  0  0  0  0
 23 22  1  0  0  0  0
 24 27  1  0  0  0  0
 25 26  1  0  0  0  0
 26 23  1  0  0  0  0
 27 25  1  0  0  0  0
 27 26  1  0  0  0  0
 28 30  2  0  0  0  0
 29 25  1  0  0  0  0
 29 28  1  0  0  0  0
 31 28  1  0  0  0  0
 32 31  1  0  0  0  0
 32 33  1  0  0  0  0
 33 34  1  0  0  0  0
M  END
>  <MODEL>
2

>  <REMARK>
 VINA RESULT:      -7.0      3.231      6.493
  Name = 
  9 active torsions:
  status: ('A' for Active; 'I' for Inactive)
    1  A    between atoms: C_2  and  C_13
    2  A    between atoms: C_6  and  C_28
    3  A    between atoms: C_6  and  C_30
    4  A    between atoms: C_7  and  C_29
    5  A    between atoms: C_8  and  C_18
    6  A    between atoms: C_11  and  C_15
    7  A    between atoms: C_11  and  C_29
    8  A    between atoms: N_14  and  C_16
    9  A    between atoms: C_18  and  C_30
                            x       y       z     vdW  Elec       q    Type
                         _______ _______ _______ _____ _____    ______ ____

>  <TORSDO>
F 9

$$$$
=
 OpenBabel10262423343D

 34 38  0  0  1  0  0  0  0  0999 V2000
  189.8580  176.2030  143.9550 C   0  0  1  0  0  3  0  0  0  0  0  0
  187.3870  177.9550  146.5420 C   0  0  1  0  0  3  0  0  0  0  0  0
  184.5180  179.1030  145.2050 C   0  0  0  0  0  1  0  0  0  0  0  0
  189.7970  177.1680  146.8160 C   0  0  0  0  0  2  0  0  0  0  0  0
  190.2860  177.6430  141.8780 C   0  0  2  0  0  3  0  0  0  0  0  0
  189.8220  176.2900  142.4230 C   0  0  0  0  0  2  0  0  0  0  0  0
  191.6640  178.0750  143.9870 C   0  0  2  0  0  3  0  0  0  0  0  0
  190.9760  179.3250  144.5230 C   0  0  0  0  0  1  0  0  0  0  0  0
  191.6440  178.0490  142.4580 C   0  0  0  0  0  2  0  0  0  0  0  0
  191.0750  176.7980  146.1060 C   0  0  0  0  0  0  0  0  0  0  0  0
  191.1520  176.7530  144.5970 C   0  0  1  0  0  3  0  0  0  0  0  0
  192.0680  176.5460  146.7640 O   0  0  0  0  0  0  0  0  0  0  0  0
  186.1710  177.3290  145.8210 C   0  0  1  0  0  3  0  0  0  0  0  0
  185.0460  177.7250  144.8650 C   0  0  2  0  0  3  0  0  0  0  0  0
  186.4500  177.8220  144.3850 C   0  0  2  0  0  3  0  0  0  0  0  0
  188.7180  177.5940  145.8240 C   0  0  1  0  0  3  0  0  0  0  0  0
  187.2650  176.6610  143.8380 C   0  0  0  0  0  2  0  0  0  0  0  0
  188.5480  176.5170  144.7080 C   0  0  1  0  0  3  0  0  0  0  0  0
  187.2740  179.4560  146.7840 C   0  0  0  0  0  2  0  0  0  0  0  0
  186.3360  179.7040  147.7700 F   0  0  0  0  0  0  0  0  0  0  0  0
  189.2350  178.7380  142.0390 C   0  0  0  0  0  2  0  0  0  0  0  0
  188.1350  178.6300  140.9890 C   0  0  0  0  0  2  0  0  0  0  0  0
  188.7120  178.3270  139.6160 C   0  0  0  0  0  2  0  0  0  0  0  0
  189.0700  178.9060  136.9580 C   0  0  0  0  0  1  0  0  0  0  0  0
  188.1320  176.8920  137.7210 C   0  0  2  0  0  3  0  0  0  0  0  0
  187.6020  177.8710  138.6640 C   0  0  2  0  0  3  0  0  0  0  0  0
  187.8000  178.2390  137.2320 N   0  0  0  0  0  0  0  0  0  0  0  0
  187.3550  174.6290  136.9120 C   0  0  0  0  0  0  0  0  0  0  0  0
  187.0810  175.9680  137.3270 N   0  0  0  0  0  2  0  0  0  0  0  0
  188.5300  174.1760  136.9510 O   0  0  0  0  0  0  0  0  0  0  0  0
  186.2460  173.7630  136.4220 C   0  0  0  0  0  2  0  0  0  0  0  0
  185.5100  173.1000  137.5790 C   0  0  0  0  0  2  0  0  0  0  0  0
  184.0410  172.8830  137.2480 C   0  0  0  0  0  2  0  0  0  0  0  0
  183.8050  171.4630  136.7720 C   0  0  0  0  0  1  0  0  0  0  0  0
  1  6  1  6  0  0  0
  1 11  1  0  0  0  0
  1 18  1  0  0  0  0
  2 19  1  6  0  0  0
  5 21  1  1  0  0  0
  5  6  1  0  0  0  0
  5  9  1  0  0  0  0
  7  8  1  1  0  0  0
  7 11  1  0  0  0  0
  9  7  1  0  0  0  0
 10 12  2  0  0  0  0
 10  4  1  0  0  0  0
 11 10  1  1  0  0  0
 13  2  1  0  0  0  0
 14  3  1  0  0  0  0
 14 13  1  0  0  0  0
 15 14  1  0  0  0  0
 15 13  1  0  0  0  0
 16  2  1  0  0  0  0
 16  4  1  0  0  0  0
 17 15  1  0  0  0  0
 17 18  1  0  0  0  0
 18 16  1  0  0  0  0
 19 20  1  0  0  0  0
 22 21  1  0  0  0  0
 23 22  1  0  0  0  0
 24 27  1  0  0  0  0
 25 26  1  0  0  0  0
 26 23  1  0  0  0  0
 27 25  1  0  0  0  0
 27 26  1  0  0  0  0
 28 30  2  0  0  0  0
 28 29  1  0  0  0  0
 29 25  1  0  0  0  0
 31 28  1  0  0  0  0
 31 32  1  0  0  0  0
 33 32  1  0  0  0  0
 34 33  1  0  0  0  0
M  END
>  <MODEL>
3

>  <REMARK>
 VINA RESULT:      -6.9      3.223      4.525
  Name = 
  9 active torsions:
  status: ('A' for Active; 'I' for Inactive)
    1  A    between atoms: C_2  and  C_13
    2  A    between atoms: C_6  and  C_28
    3  A    between atoms: C_6  and  C_30
    4  A    between atoms: C_7  and  C_29
    5  A    between atoms: C_8  and  C_18
    6  A    between atoms: C_11  and  C_15
    7  A    between atoms: C_11  and  C_29
    8  A    between atoms: N_14  and  C_16
    9  A    between atoms: C_18  and  C_30
                            x       y       z     vdW  Elec       q    Type
                         _______ _______ _______ _____ _____    ______ ____

>  <TORSDO>
F 9

$$$$
=
 OpenBabel10262423343D

 34 38  0  0  1  0  0  0  0  0999 V2000
  189.8840  176.1860  143.8920 C   0  0  1  0  0  3  0  0  0  0  0  0
  187.3220  177.9440  146.3830 C   0  0  1  0  0  3  0  0  0  0  0  0
  184.5040  179.0890  144.9410 C   0  0  0  0  0  1  0  0  0  0  0  0
  189.7210  177.1570  146.7460 C   0  0  0  0  0  2  0  0  0  0  0  0
  190.3880  177.6200  141.8280 C   0  0  2  0  0  3  0  0  0  0  0  0
  189.9050  176.2690  142.3590 C   0  0  0  0  0  2  0  0  0  0  0  0
  191.6890  178.0570  143.9840 C   0  0  2  0  0  3  0  0  0  0  0  0
  190.9820  179.3080  144.4920 C   0  0  0  0  0  1  0  0  0  0  0  0
  191.7240  178.0280  142.4550 C   0  0  0  0  0  2  0  0  0  0  0  0
  191.0230  176.7850  146.0840 C   0  0  0  0  0  0  0  0  0  0  0  0
  191.1550  176.7360  144.5790 C   0  0  1  0  0  3  0  0  0  0  0  0
  191.9920  176.5340  146.7780 O   0  0  0  0  0  0  0  0  0  0  0  0
  186.1330  177.3160  145.6210 C   0  0  1  0  0  3  0  0  0  0  0  0
  185.0430  177.7100  144.6230 C   0  0  2  0  0  3  0  0  0  0  0  0
  186.4640  177.8060  144.1940 C   0  0  2  0  0  3  0  0  0  0  0  0
  188.6780  177.5810  145.7140 C   0  0  1  0  0  3  0  0  0  0  0  0
  187.2980  176.6430  143.6800 C   0  0  0  0  0  2  0  0  0  0  0  0
  188.5480  176.5020  144.5960 C   0  0  1  0  0  3  0  0  0  0  0  0
  187.2010  179.4450  146.6180 C   0  0  0  0  0  2  0  0  0  0  0  0
  186.2810  179.6910  147.6210 F   0  0  0  0  0  0  0  0  0  0  0  0
  189.3320  178.7160  141.9480 C   0  0  0  0  0  2  0  0  0  0  0  0
  188.2070  178.5360  140.9350 C   0  0  0  0  0  2  0  0  0  0  0  0
  188.7540  178.3820  139.5260 C   0  0  0  0  0  2  0  0  0  0  0  0
  188.0660  176.3930  137.7660 C   0  0  0  0  0  1  0  0  0  0  0  0
  186.5050  177.8770  138.7050 C   0  0  2  0  0  3  0  0  0  0  0  0
  187.6730  178.7270  138.4980 C   0  0  2  0  0  3  0  0  0  0  0  0
  187.3510  177.6430  137.5240 N   0  0  0  0  0  0  0  0  0  0  0  0
  184.5440  179.3880  139.2030 C   0  0  0  0  0  0  0  0  0  0  0  0
  185.3010  178.5840  138.2990 N   0  0  0  0  0  2  0  0  0  0  0  0
  184.9470  179.5760  140.3820 O   0  0  0  0  0  0  0  0  0  0  0  0
  183.2640  180.0050  138.7540 C   0  0  0  0  0  2  0  0  0  0  0  0
  182.0970  179.0400  138.9180 C   0  0  0  0  0  2  0  0  0  0  0  0
  181.2020  179.4470  140.0780 C   0  0  0  0  0  2  0  0  0  0  0  0
  181.5950  178.7050  141.3400 C   0  0  0  0  0  1  0  0  0  0  0  0
  1  6  1  6  0  0  0
  1 11  1  0  0  0  0
  1 18  1  0  0  0  0
  2 19  1  6  0  0  0
  5 21  1  1  0  0  0
  5  6  1  0  0  0  0
  5  9  1  0  0  0  0
  7  8  1  6  0  0  0
  7 11  1  0  0  0  0
  9  7  1  0  0  0  0
 10  4  1  0  0  0  0
 10 12  2  0  0  0  0
 11 10  1  1  0  0  0
 13  2  1  0  0  0  0
 14  3  1  0  0  0  0
 14 13  1  0  0  0  0
 15 14  1  0  0  0  0
 15 13  1  0  0  0  0
 16  2  1  0  0  0  0
 16  4  1  0  0  0  0
 17 15  1  0  0  0  0
 17 18  1  0  0  0  0
 18 16  1  0  0  0  0
 19 20  1  0  0  0  0
 22 21  1  0  0  0  0
 23 22  1  0  0  0  0
 26 25  1  0  0  0  0
 26 23  1  0  0  0  0
 27 24  1  0  0  0  0
 27 26  1  0  0  0  0
 27 25  1  0  0  0  0
 28 30  2  0  0  0  0
 29 25  1  0  0  0  0
 29 28  1  0  0  0  0
 31 32  1  0  0  0  0
 31 28  1  0  0  0  0
 32 33  1  0  0  0  0
 33 34  1  0  0  0  0
M  END
>  <MODEL>
4

>  <REMARK>
 VINA RESULT:      -6.9      1.560      2.214
  Name = 
  9 active torsions:
  status: ('A' for Active; 'I' for Inactive)
    1  A    between atoms: C_2  and  C_13
    2  A    between atoms: C_6  and  C_28
    3  A    between atoms: C_6  and  C_30
    4  A    between atoms: C_7  and  C_29
    5  A    between atoms: C_8  and  C_18
    6  A    between atoms: C_11  and  C_15
    7  A    between atoms: C_11  and  C_29
    8  A    between atoms: N_14  and  C_16
    9  A    between atoms: C_18  and  C_30
                            x       y       z     vdW  Elec       q    Type
                         _______ _______ _______ _____ _____    ______ ____

>  <TORSDO>
F 9

$$$$
=
 OpenBabel10262423343D

 34 38  0  0  1  0  0  0  0  0999 V2000
  181.7560  179.3770  138.1590 C   0  0  1  0  0  3  0  0  0  0  0  0
  179.2130  177.5280  140.6040 C   0  0  1  0  0  3  0  0  0  0  0  0
  179.8500  177.9400  143.8850 C   0  0  0  0  0  1  0  0  0  0  0  0
  179.4910  177.3810  138.0740 C   0  0  0  0  0  2  0  0  0  0  0  0
  184.2040  178.8690  138.7230 C   0  0  2  0  0  3  0  0  0  0  0  0
  183.1390  179.9460  138.5050 C   0  0  0  0  0  2  0  0  0  0  0  0
  182.9030  177.2180  137.2690 C   0  0  2  0  0  3  0  0  0  0  0  0
  182.6020  176.1230  138.2860 C   0  0  0  0  0  1  0  0  0  0  0  0
  184.2520  177.8790  137.5570 C   0  0  0  0  0  2  0  0  0  0  0  0
  180.4170  177.6150  136.9070 C   0  0  0  0  0  0  0  0  0  0  0  0
  181.7730  178.2560  137.0940 C   0  0  1  0  0  3  0  0  0  0  0  0
  180.0690  177.2680  135.7930 O   0  0  0  0  0  0  0  0  0  0  0  0
  179.2660  178.7250  141.5810 C   0  0  1  0  0  3  0  0  0  0  0  0
  179.8840  179.1120  142.9260 C   0  0  2  0  0  3  0  0  0  0  0  0
  180.7940  178.8120  141.7880 C   0  0  2  0  0  3  0  0  0  0  0  0
  180.1660  177.7430  139.3950 C   0  0  1  0  0  3  0  0  0  0  0  0
  181.1730  179.7970  140.6950 C   0  0  0  0  0  2  0  0  0  0  0  0
  180.7630  179.1820  139.3250 C   0  0  1  0  0  3  0  0  0  0  0  0
  179.4370  176.1700  141.2570 C   0  0  0  0  0  2  0  0  0  0  0  0
  180.5400  175.5530  140.6920 F   0  0  0  0  0  0  0  0  0  0  0  0
  184.0710  178.1700  140.0740 C   0  0  0  0  0  2  0  0  0  0  0  0
  184.5360  179.0580  141.2220 C   0  0  0  0  0  2  0  0  0  0  0  0
  184.4320  178.3360  142.5550 C   0  0  0  0  0  2  0  0  0  0  0  0
  183.4380  178.9510  145.0370 C   0  0  0  0  0  1  0  0  0  0  0  0
  185.5720  178.0300  144.6980 C   0  0  2  0  0  3  0  0  0  0  0  0
  185.4250  178.9290  143.5580 C   0  0  2  0  0  3  0  0  0  0  0  0
  184.8480  179.2970  144.8840 N   0  0  0  0  0  0  0  0  0  0  0  0
  187.9750  177.2790  144.8940 C   0  0  0  0  0  0  0  0  0  0  0  0
  186.9080  178.1560  145.2570 N   0  0  0  0  0  2  0  0  0  0  0  0
  187.8080  176.4040  144.0040 O   0  0  0  0  0  0  0  0  0  0  0  0
  189.2950  177.3950  145.5780 C   0  0  0  0  0  2  0  0  0  0  0  0
  189.2480  176.7930  146.9760 C   0  0  0  0  0  2  0  0  0  0  0  0
  189.2970  177.8750  148.0450 C   0  0  0  0  0  2  0  0  0  0  0  0
  187.9810  177.9460  148.7920 C   0  0  0  0  0  1  0  0  0  0  0  0
  1  6  1  1  0  0  0
  1 18  1  0  0  0  0
  2 19  1  1  0  0  0
  2 13  1  0  0  0  0
  4 16  1  0  0  0  0
  5 21  1  1  0  0  0
  6  5  1  0  0  0  0
  7  9  1  0  0  0  0
  7  8  1  1  0  0  0
  9  5  1  0  0  0  0
 10  4  1  0  0  0  0
 11 10  1  1  0  0  0
 11  7  1  0  0  0  0
 11  1  1  0  0  0  0
 12 10  2  0  0  0  0
 13 15  1  0  0  0  0
 13 14  1  0  0  0  0
 14  3  1  0  0  0  0
 15 14  1  0  0  0  0
 16  2  1  0  0  0  0
 17 15  1  0  0  0  0
 18 16  1  0  0  0  0
 18 17  1  0  0  0  0
 20 19  1  0  0  0  0
 21 22  1  0  0  0  0
 22 23  1  0  0  0  0
 23 26  1  0  0  0  0
 25 27  1  0  0  0  0
 25 29  1  0  0  0  0
 26 25  1  0  0  0  0
 26 27  1  0  0  0  0
 27 24  1  0  0  0  0
 28 29  1  0  0  0  0
 28 31  1  0  0  0  0
 30 28  2  0  0  0  0
 31 32  1  0  0  0  0
 32 33  1  0  0  0  0
 33 34  1  0  0  0  0
M  END
>  <MODEL>
5

>  <REMARK>
 VINA RESULT:      -6.5      3.308      9.121
  Name = 
  9 active torsions:
  status: ('A' for Active; 'I' for Inactive)
    1  A    between atoms: C_2  and  C_13
    2  A    between atoms: C_6  and  C_28
    3  A    between atoms: C_6  and  C_30
    4  A    between atoms: C_7  and  C_29
    5  A    between atoms: C_8  and  C_18
    6  A    between atoms: C_11  and  C_15
    7  A    between atoms: C_11  and  C_29
    8  A    between atoms: N_14  and  C_16
    9  A    between atoms: C_18  and  C_30
                            x       y       z     vdW  Elec       q    Type
                         _______ _______ _______ _____ _____    ______ ____

>  <TORSDO>
F 9

$$$$
=
 OpenBabel10262423343D

 34 38  0  0  1  0  0  0  0  0999 V2000
  188.9440  178.3950  136.7950 C   0  0  1  0  0  3  0  0  0  0  0  0
  186.1320  175.7500  135.8170 C   0  0  1  0  0  3  0  0  0  0  0  0
  183.3510  175.8740  137.7100 C   0  0  0  0  0  1  0  0  0  0  0  0
  188.5430  175.9850  135.0220 C   0  0  0  0  0  2  0  0  0  0  0  0
  189.4960  178.3620  139.2980 C   0  0  2  0  0  3  0  0  0  0  0  0
  189.0570  179.2020  138.0970 C   0  0  0  0  0  2  0  0  0  0  0  0
  190.6300  176.6640  137.7600 C   0  0  2  0  0  3  0  0  0  0  0  0
  189.8220  175.4120  138.0780 C   0  0  0  0  0  1  0  0  0  0  0  0
  190.7630  177.5590  138.9930 C   0  0  0  0  0  2  0  0  0  0  0  0
  189.9050  176.5580  135.3240 C   0  0  0  0  0  0  0  0  0  0  0  0
  190.1350  177.4470  136.5250 C   0  0  1  0  0  3  0  0  0  0  0  0
  190.8400  176.2860  134.5940 O   0  0  0  0  0  0  0  0  0  0  0  0
  185.0320  176.7970  136.1030 C   0  0  1  0  0  3  0  0  0  0  0  0
  183.9870  177.1370  137.1670 C   0  0  2  0  0  3  0  0  0  0  0  0
  185.4250  177.1850  137.5460 C   0  0  2  0  0  3  0  0  0  0  0  0
  187.5460  176.3150  136.1300 C   0  0  1  0  0  3  0  0  0  0  0  0
  186.3540  178.3580  137.2820 C   0  0  0  0  0  2  0  0  0  0  0  0
  187.5500  177.8460  136.4260 C   0  0  1  0  0  3  0  0  0  0  0  0
  185.9100  174.4010  136.4900 C   0  0  0  0  0  2  0  0  0  0  0  0
  187.0180  174.0650  137.2480 F   0  0  0  0  0  0  0  0  0  0  0  0
  188.3730  177.4860  139.8500 C   0  0  0  0  0  2  0  0  0  0  0  0
  187.7570  178.0800  141.1120 C   0  0  0  0  0  2  0  0  0  0  0  0
  186.3710  178.6410  140.8380 C   0  0  0  0  0  2  0  0  0  0  0  0
  183.6630  178.2930  141.1000 C   0  0  0  0  0  1  0  0  0  0  0  0
  185.1710  178.0390  142.8830 C   0  0  2  0  0  3  0  0  0  0  0  0
  185.7420  179.1540  142.1350 C   0  0  2  0  0  3  0  0  0  0  0  0
  184.2620  178.9950  142.2320 N   0  0  0  0  0  0  0  0  0  0  0  0
  186.0850  177.6140  145.1980 C   0  0  0  0  0  0  0  0  0  0  0  0
  185.2220  178.3220  144.3080 N   0  0  0  0  0  2  0  0  0  0  0  0
  186.9000  176.7610  144.7550 O   0  0  0  0  0  0  0  0  0  0  0  0
  186.0180  177.8790  146.6640 C   0  0  0  0  0  2  0  0  0  0  0  0
  187.1760  178.7560  147.1200 C   0  0  0  0  0  2  0  0  0  0  0  0
  188.0210  178.0520  148.1720 C   0  0  0  0  0  2  0  0  0  0  0  0
  189.1080  177.2250  147.5160 C   0  0  0  0  0  1  0  0  0  0  0  0
  1  6  1  1  0  0  0
  2 13  1  0  0  0  0
  2 16  1  0  0  0  0
  2 19  1  1  0  0  0
  4 10  1  0  0  0  0
  4 16  1  0  0  0  0
  5 21  1  6  0  0  0
  6  5  1  0  0  0  0
  7  8  1  1  0  0  0
  7  9  1  0  0  0  0
  9  5  1  0  0  0  0
 11 10  1  6  0  0  0
 11  1  1  0  0  0  0
 11  7  1  0  0  0  0
 12 10  2  0  0  0  0
 13 14  1  0  0  0  0
 13 15  1  0  0  0  0
 14 15  1  0  0  0  0
 14  3  1  0  0  0  0
 16 18  1  0  0  0  0
 17 15  1  0  0  0  0
 18  1  1  0  0  0  0
 18 17  1  0  0  0  0
 19 20  1  0  0  0  0
 21 22  1  0  0  0  0
 23 22  1  0  0  0  0
 23 26  1  0  0  0  0
 24 27  1  0  0  0  0
 25 29  1  0  0  0  0
 26 27  1  0  0  0  0
 26 25  1  0  0  0  0
 27 25  1  0  0  0  0
 28 31  1  0  0  0  0
 29 28  1  0  0  0  0
 30 28  2  0  0  0  0
 31 32  1  0  0  0  0
 32 33  1  0  0  0  0
 34 33  1  0  0  0  0
M  END
>  <MODEL>
6

>  <REMARK>
 VINA RESULT:      -6.2      4.287      7.806
  Name = 
  9 active torsions:
  status: ('A' for Active; 'I' for Inactive)
    1  A    between atoms: C_2  and  C_13
    2  A    between atoms: C_6  and  C_28
    3  A    between atoms: C_6  and  C_30
    4  A    between atoms: C_7  and  C_29
    5  A    between atoms: C_8  and  C_18
    6  A    between atoms: C_11  and  C_15
    7  A    between atoms: C_11  and  C_29
    8  A    between atoms: N_14  and  C_16
    9  A    between atoms: C_18  and  C_30
                            x       y       z     vdW  Elec       q    Type
                         _______ _______ _______ _____ _____    ______ ____

>  <TORSDO>
F 9

$$$$
=
 OpenBabel10262423343D

 34 38  0  0  1  0  0  0  0  0999 V2000
  182.0870  177.9330  140.4520 C   0  0  1  0  0  3  0  0  0  0  0  0
  179.3750  176.1200  138.1670 C   0  0  1  0  0  3  0  0  0  0  0  0
  180.5630  173.5790  136.3050 C   0  0  0  0  0  1  0  0  0  0  0  0
  179.2250  178.2600  139.5470 C   0  0  0  0  0  2  0  0  0  0  0  0
  184.1800  178.6140  139.1390 C   0  0  2  0  0  3  0  0  0  0  0  0
  183.6150  177.8470  140.3360 C   0  0  0  0  0  2  0  0  0  0  0  0
  182.1430  180.1570  139.1050 C   0  0  2  0  0  3  0  0  0  0  0  0
  181.5700  179.8380  137.7280 C   0  0  0  0  0  1  0  0  0  0  0  0
  183.6690  180.0570  139.1010 C   0  0  0  0  0  2  0  0  0  0  0  0
  179.9990  179.3650  140.2200 C   0  0  0  0  0  0  0  0  0  0  0  0
  181.5100  179.3550  140.2610 C   0  0  1  0  0  3  0  0  0  0  0  0
  179.3930  180.2910  140.7270 O   0  0  0  0  0  0  0  0  0  0  0  0
  180.0340  174.7520  138.4520 C   0  0  1  0  0  3  0  0  0  0  0  0
  180.9320  173.7200  137.7680 C   0  0  2  0  0  3  0  0  0  0  0  0
  181.4820  175.0780  138.0240 C   0  0  2  0  0  3  0  0  0  0  0  0
  180.1600  177.2780  138.8450 C   0  0  1  0  0  3  0  0  0  0  0  0
  182.0710  175.5410  139.3470 C   0  0  0  0  0  2  0  0  0  0  0  0
  181.2680  176.7850  139.8260 C   0  0  1  0  0  3  0  0  0  0  0  0
  179.1240  176.4060  136.6910 C   0  0  0  0  0  2  0  0  0  0  0  0
  180.0080  177.3700  136.2420 F   0  0  0  0  0  0  0  0  0  0  0  0
  183.9640  177.8870  137.8140 C   0  0  0  0  0  2  0  0  0  0  0  0
  185.2360  177.2040  137.3260 C   0  0  0  0  0  2  0  0  0  0  0  0
  186.4540  178.0870  137.5420 C   0  0  0  0  0  2  0  0  0  0  0  0
  189.0550  178.5970  136.8350 C   0  0  0  0  0  1  0  0  0  0  0  0
  188.3690  178.2590  139.0560 C   0  0  2  0  0  3  0  0  0  0  0  0
  187.5320  177.3210  138.3140 C   0  0  2  0  0  3  0  0  0  0  0  0
  188.9340  177.5820  137.8780 N   0  0  0  0  0  0  0  0  0  0  0  0
  188.3190  177.8780  141.5520 C   0  0  0  0  0  0  0  0  0  0  0  0
  188.8740  177.6230  140.2620 N   0  0  0  0  0  2  0  0  0  0  0  0
  187.3050  178.6150  141.6760 O   0  0  0  0  0  0  0  0  0  0  0  0
  188.9460  177.2740  142.7620 C   0  0  0  0  0  2  0  0  0  0  0  0
  187.9080  176.5850  143.6370 C   0  0  0  0  0  2  0  0  0  0  0  0
  187.7290  177.3130  144.9610 C   0  0  0  0  0  2  0  0  0  0  0  0
  186.3400  177.9110  145.0570 C   0  0  0  0  0  1  0  0  0  0  0  0
  1  6  1  6  0  0  0
  2 19  1  6  0  0  0
  2 13  1  0  0  0  0
  2 16  1  0  0  0  0
  3 14  1  0  0  0  0
  4 10  1  0  0  0  0
  5 21  1  6  0  0  0
  5  6  1  0  0  0  0
  7  8  1  6  0  0  0
  7 11  1  0  0  0  0
  9  7  1  0  0  0  0
  9  5  1  0  0  0  0
 10 12  2  0  0  0  0
 11 10  1  6  0  0  0
 11  1  1  0  0  0  0
 14 15  1  0  0  0  0
 14 13  1  0  0  0  0
 15 13  1  0  0  0  0
 15 17  1  0  0  0  0
 16  4  1  0  0  0  0
 16 18  1  0  0  0  0
 17 18  1  0  0  0  0
 18  1  1  0  0  0  0
 20 19  1  0  0  0  0
 22 23  1  0  0  0  0
 22 21  1  0  0  0  0
 23 26  1  0  0  0  0
 24 27  1  0  0  0  0
 25 29  1  0  0  0  0
 26 25  1  0  0  0  0
 27 26  1  0  0  0  0
 27 25  1  0  0  0  0
 28 30  2  0  0  0  0
 28 31  1  0  0  0  0
 29 28  1  0  0  0  0
 31 32  1  0  0  0  0
 32 33  1  0  0  0  0
 33 34  1  0  0  0  0
M  END
>  <MODEL>
7

>  <REMARK>
 VINA RESULT:      -5.9      4.366      9.221
  Name = 
  9 active torsions:
  status: ('A' for Active; 'I' for Inactive)
    1  A    between atoms: C_2  and  C_13
    2  A    between atoms: C_6  and  C_28
    3  A    between atoms: C_6  and  C_30
    4  A    between atoms: C_7  and  C_29
    5  A    between atoms: C_8  and  C_18
    6  A    between atoms: C_11  and  C_15
    7  A    between atoms: C_11  and  C_29
    8  A    between atoms: N_14  and  C_16
    9  A    between atoms: C_18  and  C_30
                            x       y       z     vdW  Elec       q    Type
                         _______ _______ _______ _____ _____    ______ ____

>  <TORSDO>
F 9

$$$$
=
 OpenBabel10262423343D

 34 38  0  0  1  0  0  0  0  0999 V2000
  188.3520  177.0380  134.9260 C   0  0  1  0  0  3  0  0  0  0  0  0
  187.8020  173.1300  135.4680 C   0  0  1  0  0  3  0  0  0  0  0  0
  184.6270  172.2250  136.1250 C   0  0  0  0  0  1  0  0  0  0  0  0
  189.9460  174.4950  135.2540 C   0  0  0  0  0  2  0  0  0  0  0  0
  187.3330  178.4430  136.8130 C   0  0  2  0  0  3  0  0  0  0  0  0
  187.3970  178.1780  135.3070 C   0  0  0  0  0  2  0  0  0  0  0  0
  189.6630  177.4420  137.1370 C   0  0  2  0  0  3  0  0  0  0  0  0
  189.3400  176.2640  138.0480 C   0  0  0  0  0  1  0  0  0  0  0  0
  188.7300  178.6220  137.4140 C   0  0  0  0  0  2  0  0  0  0  0  0
  190.5660  175.8650  135.3570 C   0  0  0  0  0  0  0  0  0  0  0  0
  189.7250  177.0900  135.6350 C   0  0  1  0  0  3  0  0  0  0  0  0
  191.7710  175.9840  135.2280 O   0  0  0  0  0  0  0  0  0  0  0  0
  186.4510  173.2060  134.7210 C   0  0  1  0  0  3  0  0  0  0  0  0
  184.9500  173.2020  135.0140 C   0  0  2  0  0  3  0  0  0  0  0  0
  185.7720  174.3220  135.5450 C   0  0  2  0  0  3  0  0  0  0  0  0
  188.4580  174.5340  135.5940 C   0  0  1  0  0  3  0  0  0  0  0  0
  186.1820  175.5520  134.7520 C   0  0  0  0  0  2  0  0  0  0  0  0
  187.7370  175.6330  134.7540 C   0  0  1  0  0  3  0  0  0  0  0  0
  187.7410  172.4210  136.8160 C   0  0  0  0  0  2  0  0  0  0  0  0
  187.9280  171.0620  136.6410 F   0  0  0  0  0  0  0  0  0  0  0  0
  186.5080  177.4010  137.5630 C   0  0  0  0  0  2  0  0  0  0  0  0
  185.0370  177.4450  137.1650 C   0  0  0  0  0  2  0  0  0  0  0  0
  184.1420  177.6250  138.3790 C   0  0  0  0  0  2  0  0  0  0  0  0
  183.2530  180.1490  138.9850 C   0  0  0  0  0  1  0  0  0  0  0  0
  183.9980  178.6230  140.6090 C   0  0  2  0  0  3  0  0  0  0  0  0
  184.8960  178.3640  139.4880 C   0  0  2  0  0  3  0  0  0  0  0  0
  184.4220  179.7510  139.7650 N   0  0  0  0  0  0  0  0  0  0  0  0
  184.1210  178.7430  143.1280 C   0  0  0  0  0  0  0  0  0  0  0  0
  184.7530  178.6450  141.8510 N   0  0  0  0  0  2  0  0  0  0  0  0
  182.8660  178.7330  143.2220 O   0  0  0  0  0  0  0  0  0  0  0  0
  184.9530  178.8640  144.3590 C   0  0  0  0  0  2  0  0  0  0  0  0
  186.1130  177.8770  144.3420 C   0  0  0  0  0  2  0  0  0  0  0  0
  186.6570  177.6390  145.7430 C   0  0  0  0  0  2  0  0  0  0  0  0
  186.0030  178.5790  146.7360 C   0  0  0  0  0  1  0  0  0  0  0  0
  1  6  1  1  0  0  0
  1 11  1  0  0  0  0
  2 16  1  0  0  0  0
  2 19  1  1  0  0  0
  4 10  1  0  0  0  0
  4 16  1  0  0  0  0
  5  9  1  0  0  0  0
  5 21  1  1  0  0  0
  6  5  1  0  0  0  0
  7  9  1  0  0  0  0
  7  8  1  1  0  0  0
 11 10  1  1  0  0  0
 11  7  1  0  0  0  0
 12 10  2  0  0  0  0
 13 14  1  0  0  0  0
 13  2  1  0  0  0  0
 13 15  1  0  0  0  0
 14 15  1  0  0  0  0
 14  3  1  0  0  0  0
 17 18  1  0  0  0  0
 17 15  1  0  0  0  0
 18  1  1  0  0  0  0
 18 16  1  0  0  0  0
 20 19  1  0  0  0  0
 22 21  1  0  0  0  0
 22 23  1  0  0  0  0
 23 26  1  0  0  0  0
 24 27  1  0  0  0  0
 25 29  1  0  0  0  0
 26 27  1  0  0  0  0
 26 25  1  0  0  0  0
 27 25  1  0  0  0  0
 28 30  2  0  0  0  0
 28 31  1  0  0  0  0
 29 28  1  0  0  0  0
 32 31  1  0  0  0  0
 32 33  1  0  0  0  0
 33 34  1  0  0  0  0
M  END
>  <MODEL>
8

>  <REMARK>
 VINA RESULT:      -5.9      5.412      8.409
  Name = 
  9 active torsions:
  status: ('A' for Active; 'I' for Inactive)
    1  A    between atoms: C_2  and  C_13
    2  A    between atoms: C_6  and  C_28
    3  A    between atoms: C_6  and  C_30
    4  A    between atoms: C_7  and  C_29
    5  A    between atoms: C_8  and  C_18
    6  A    between atoms: C_11  and  C_15
    7  A    between atoms: C_11  and  C_29
    8  A    between atoms: N_14  and  C_16
    9  A    between atoms: C_18  and  C_30
                            x       y       z     vdW  Elec       q    Type
                         _______ _______ _______ _____ _____    ______ ____

>  <TORSDO>
F 9

$$$$
=
 OpenBabel10262423343D

 34 38  0  0  1  0  0  0  0  0999 V2000
  189.8680  176.1060  143.9750 C   0  0  1  0  0  3  0  0  0  0  0  0
  187.7540  177.8770  146.8490 C   0  0  1  0  0  3  0  0  0  0  0  0
  184.7310  179.0090  145.8900 C   0  0  0  0  0  1  0  0  0  0  0  0
  190.1810  177.0950  146.8110 C   0  0  0  0  0  2  0  0  0  0  0  0
  190.0170  177.5290  141.8480 C   0  0  2  0  0  3  0  0  0  0  0  0
  189.6320  176.1800  142.4600 C   0  0  0  0  0  2  0  0  0  0  0  0
  191.6590  177.9800  143.7540 C   0  0  2  0  0  3  0  0  0  0  0  0
  191.0440  179.2340  144.3650 C   0  0  0  0  0  1  0  0  0  0  0  0
  191.4370  177.9420  142.2410 C   0  0  0  0  0  2  0  0  0  0  0  0
  191.3560  176.7210  145.9430 C   0  0  0  0  0  0  0  0  0  0  0  0
  191.2350  176.6630  144.4370 C   0  0  1  0  0  3  0  0  0  0  0  0
  192.4270  176.4760  146.4670 O   0  0  0  0  0  0  0  0  0  0  0  0
  186.4560  177.2420  146.3000 C   0  0  1  0  0  3  0  0  0  0  0  0
  185.2130  177.6280  145.4950 C   0  0  2  0  0  3  0  0  0  0  0  0
  186.5430  177.7240  144.8340 C   0  0  2  0  0  3  0  0  0  0  0  0
  188.9800  177.5110  145.9650 C   0  0  1  0  0  3  0  0  0  0  0  0
  187.2810  176.5590  144.1960 C   0  0  0  0  0  2  0  0  0  0  0  0
  188.6680  176.4250  144.8910 C   0  0  1  0  0  3  0  0  0  0  0  0
  187.6690  179.3790  147.0920 C   0  0  0  0  0  2  0  0  0  0  0  0
  186.7550  179.6430  148.0950 F   0  0  0  0  0  0  0  0  0  0  0  0
  188.9930  178.6240  142.1370 C   0  0  0  0  0  2  0  0  0  0  0  0
  187.9770  178.7640  141.0090 C   0  0  0  0  0  2  0  0  0  0  0  0
  186.5780  179.0040  141.5530 C   0  0  0  0  0  2  0  0  0  0  0  0
  184.0010  179.0110  142.4920 C   0  0  0  0  0  1  0  0  0  0  0  0
  184.5390  179.1750  140.2110 C   0  0  2  0  0  3  0  0  0  0  0  0
  185.5460  178.2460  140.7140 C   0  0  2  0  0  3  0  0  0  0  0  0
  184.1630  178.2270  141.2710 N   0  0  0  0  0  0  0  0  0  0  0  0
  182.6740  178.9340  138.5270 C   0  0  0  0  0  0  0  0  0  0  0  0
  184.0210  178.7020  138.9390 N   0  0  0  0  0  2  0  0  0  0  0  0
  181.9020  179.6370  139.2320 O   0  0  0  0  0  0  0  0  0  0  0  0
  182.1730  178.3350  137.2570 C   0  0  0  0  0  2  0  0  0  0  0  0
  180.9950  177.4030  137.5120 C   0  0  0  0  0  2  0  0  0  0  0  0
  181.4220  176.1780  138.3070 C   0  0  0  0  0  2  0  0  0  0  0  0
  182.4940  175.4070  137.5640 C   0  0  0  0  0  1  0  0  0  0  0  0
  1  6  1  6  0  0  0
  1 11  1  0  0  0  0
  1 18  1  0  0  0  0
  2 19  1  6  0  0  0
  5 21  1  1  0  0  0
  5  9  1  0  0  0  0
  5  6  1  0  0  0  0
  7  8  1  1  0  0  0
  7 11  1  0  0  0  0
  9  7  1  0  0  0  0
 10 12  2  0  0  0  0
 10  4  1  0  0  0  0
 11 10  1  1  0  0  0
 13  2  1  0  0  0  0
 14  3  1  0  0  0  0
 14 13  1  0  0  0  0
 15 14  1  0  0  0  0
 15 13  1  0  0  0  0
 16  4  1  0  0  0  0
 16  2  1  0  0  0  0
 17 15  1  0  0  0  0
 17 18  1  0  0  0  0
 18 16  1  0  0  0  0
 19 20  1  0  0  0  0
 22 23  1  0  0  0  0
 22 21  1  0  0  0  0
 25 26  1  0  0  0  0
 25 27  1  0  0  0  0
 26 27  1  0  0  0  0
 26 23  1  0  0  0  0
 27 24  1  0  0  0  0
 28 29  1  0  0  0  0
 28 30  2  0  0  0  0
 29 25  1  0  0  0  0
 31 32  1  0  0  0  0
 31 28  1  0  0  0  0
 32 33  1  0  0  0  0
 34 33  1  0  0  0  0
M  END
>  <MODEL>
9

>  <REMARK>
 VINA RESULT:      -5.9      1.691      2.481
  Name = 
  9 active torsions:
  status: ('A' for Active; 'I' for Inactive)
    1  A    between atoms: C_2  and  C_13
    2  A    between atoms: C_6  and  C_28
    3  A    between atoms: C_6  and  C_30
    4  A    between atoms: C_7  and  C_29
    5  A    between atoms: C_8  and  C_18
    6  A    between atoms: C_11  and  C_15
    7  A    between atoms: C_11  and  C_29
    8  A    between atoms: N_14  and  C_16
    9  A    between atoms: C_18  and  C_30
                            x       y       z     vdW  Elec       q    Type
                         _______ _______ _______ _____ _____    ______ ____

>  <TORSDO>
F 9

$$$$
