=
 OpenBabel10262419353D

 31 35  0  0  1  0  0  0  0  0999 V2000
  189.3760  177.9970  142.2750 C   0  0  0  0  0  0  0  0  0  0  0  0
  186.3640  177.6220  144.4980 C   0  0  2  0  0  3  0  0  0  0  0  0
  187.0110  177.6840  145.8590 C   0  0  0  0  0  0  0  0  0  0  0  0
  182.8700  178.7470  140.6200 O   0  0  0  0  0  0  0  0  0  0  0  0
  182.2890  178.8400  141.7360 C   0  0  0  0  0  0  0  0  0  0  0  0
  188.4270  176.5030  147.5540 C   0  0  0  0  0  2  0  0  0  0  0  0
  187.2400  177.9510  143.3170 C   0  0  0  0  0  0  0  0  0  0  0  0
  188.7950  178.3190  141.0460 C   0  0  0  0  0  3  0  0  0  0  0  0
  187.9140  176.7450  146.1670 C   0  0  0  0  0  3  0  0  0  0  0  0
  184.4310  178.4690  143.0740 C   0  0  0  0  0  0  0  0  0  0  0  0
  190.8500  177.8420  142.3810 C   0  0  0  0  0  1  0  0  0  0  0  0
  185.2630  179.1230  146.6930 N   0  0  0  0  0  0  0  0  0  0  0  0
  189.2600  177.6590  148.0920 C   0  0  0  0  0  2  0  0  0  0  0  0
  185.1920  178.4310  142.0150 N   0  0  0  0  0  0  0  0  0  0  0  0
  185.0510  178.3580  144.4090 C   0  0  0  0  0  0  0  0  0  0  0  0
  183.0190  178.6990  142.9590 N   0  0  0  0  0  2  0  0  0  0  0  0
  188.5930  177.8070  143.3720 N   0  0  0  0  0  0  0  0  0  0  0  0
  188.5320  179.0040  148.0960 C   0  0  0  0  0  2  0  0  0  0  0  0
  186.6190  178.2670  142.0910 C   0  0  0  0  0  0  0  0  0  0  0  0
  187.4090  178.4530  140.9560 C   0  0  0  0  0  3  0  0  0  0  0  0
  184.5460  179.0180  145.4550 C   0  0  0  0  0  3  0  0  0  0  0  0
  186.4250  178.5760  146.8930 C   0  0  0  0  0  0  0  0  0  0  0  0
  187.1120  178.8720  148.0740 O   0  0  0  0  0  0  0  0  0  0  0  0
  179.0470  177.6210  139.8910 C   0  0  1  0  0  3  0  0  0  0  0  0
  180.0520  177.8110  142.1570 C   0  0  0  0  0  2  0  0  0  0  0  0
  180.6370  180.9270  140.2300 N   0  0  0  0  0  2  0  0  0  0  0  0
  178.9320  176.7630  138.6490 C   0  0  0  0  0  1  0  0  0  0  0  0
  179.8820  176.9020  140.9430 C   0  0  0  0  0  2  0  0  0  0  0  0
  180.3040  179.7140  140.5260 C   0  0  0  0  0  0  0  0  0  0  0  0
  180.8140  179.0920  141.7980 C   0  0  2  0  0  3  0  0  0  0  0  0
  179.6420  178.9080  139.5470 N   0  0  0  0  0  2  0  0  0  0  0  0
  1 11  1  0  0  0  0
  1 17  1  0  0  0  0
  2  7  1  6  0  0  0
  2  3  1  0  0  0  0
  3  9  2  0  0  0  0
  3 22  1  0  0  0  0
  4  5  2  0  0  0  0
  5 16  1  0  0  0  0
  6 13  1  0  0  0  0
  7 17  2  0  0  0  0
  8  1  2  0  0  0  0
  9  6  1  0  0  0  0
 10 15  1  0  0  0  0
 12 22  2  0  0  0  0
 13 18  1  0  0  0  0
 14 19  1  0  0  0  0
 14 10  2  0  0  0  0
 15  2  1  0  0  0  0
 15 21  2  0  0  0  0
 16 10  1  0  0  0  0
 19  7  1  0  0  0  0
 20  8  1  0  0  0  0
 20 19  2  0  0  0  0
 21 12  1  0  0  0  0
 22 23  1  0  0  0  0
 23 18  1  0  0  0  0
 24 27  1  6  0  0  0
 24 28  1  0  0  0  0
 26 29  2  0  0  0  0
 28 25  1  0  0  0  0
 29 30  1  0  0  0  0
 30  5  1  6  0  0  0
 30 25  1  0  0  0  0
 31 24  1  0  0  0  0
 31 29  1  0  0  0  0
M  END
>  <MODEL>
1

>  <REMARK>
 VINA RESULT:      -9.4      0.000      0.000
  Name = 
  1 active torsions:
  status: ('A' for Active; 'I' for Inactive)
    1  A    between atoms: C_9  and  C_22
                            x       y       z     vdW  Elec       q    Type
                         _______ _______ _______ _____ _____    ______ ____

>  <TORSDO>
F 1

$$$$
=
 OpenBabel10262419353D

 31 35  0  0  1  0  0  0  0  0999 V2000
  189.1010  178.1910  142.2070 C   0  0  0  0  0  0  0  0  0  0  0  0
  185.8280  177.7400  144.0050 C   0  0  2  0  0  3  0  0  0  0  0  0
  186.2720  177.8940  145.4370 C   0  0  0  0  0  0  0  0  0  0  0  0
  182.8650  178.5080  139.6280 O   0  0  0  0  0  0  0  0  0  0  0  0
  182.1290  178.6140  140.6460 C   0  0  0  0  0  0  0  0  0  0  0  0
  187.4900  176.8650  147.3680 C   0  0  0  0  0  2  0  0  0  0  0  0
  186.8440  178.0690  142.9420 C   0  0  0  0  0  0  0  0  0  0  0  0
  188.6850  178.4300  140.8940 C   0  0  0  0  0  3  0  0  0  0  0  0
  187.1680  177.0210  145.9130 C   0  0  0  0  0  3  0  0  0  0  0  0
  184.0750  178.4190  142.2860 C   0  0  0  0  0  0  0  0  0  0  0  0
  190.5510  178.1240  142.5240 C   0  0  0  0  0  1  0  0  0  0  0  0
  184.3540  179.2670  145.9500 N   0  0  0  0  0  0  0  0  0  0  0  0
  188.1800  178.0870  147.9600 C   0  0  0  0  0  2  0  0  0  0  0  0
  184.9800  178.3800  141.3460 N   0  0  0  0  0  0  0  0  0  0  0  0
  184.5050  178.3970  143.6970 C   0  0  0  0  0  0  0  0  0  0  0  0
  182.6840  178.5640  141.9650 N   0  0  0  0  0  2  0  0  0  0  0  0
  188.1820  178.0030  143.1920 N   0  0  0  0  0  0  0  0  0  0  0  0
  187.3940  179.3890  147.7970 C   0  0  0  0  0  2  0  0  0  0  0  0
  186.3880  178.2990  141.6280 C   0  0  0  0  0  0  0  0  0  0  0  0
  187.3200  178.4820  140.6060 C   0  0  0  0  0  3  0  0  0  0  0  0
  183.8250  179.0700  144.6300 C   0  0  0  0  0  3  0  0  0  0  0  0
  185.5020  178.7940  146.3350 C   0  0  0  0  0  0  0  0  0  0  0  0
  186.0000  179.1760  147.5850 O   0  0  0  0  0  0  0  0  0  0  0  0
  179.0100  179.2270  142.9490 C   0  0  1  0  0  3  0  0  0  0  0  0
  180.2000  180.1670  140.9780 C   0  0  0  0  0  2  0  0  0  0  0  0
  179.9410  176.4780  140.6780 N   0  0  0  0  0  2  0  0  0  0  0  0
  178.9320  179.2030  144.4600 C   0  0  0  0  0  1  0  0  0  0  0  0
  180.0810  180.2120  142.4990 C   0  0  0  0  0  2  0  0  0  0  0  0
  179.8900  177.6740  141.1650 C   0  0  0  0  0  0  0  0  0  0  0  0
  180.6490  178.7850  140.4910 C   0  0  2  0  0  3  0  0  0  0  0  0
  179.2980  177.8860  142.4500 N   0  0  0  0  0  2  0  0  0  0  0  0
  1 11  1  0  0  0  0
  1 17  1  0  0  0  0
  2  7  1  6  0  0  0
  2  3  1  0  0  0  0
  3  9  2  0  0  0  0
  3 22  1  0  0  0  0
  4  5  2  0  0  0  0
  5 16  1  0  0  0  0
  6 13  1  0  0  0  0
  7 17  2  0  0  0  0
  8  1  2  0  0  0  0
  9  6  1  0  0  0  0
 10 15  1  0  0  0  0
 12 22  2  0  0  0  0
 14 19  1  0  0  0  0
 14 10  2  0  0  0  0
 15  2  1  0  0  0  0
 15 21  2  0  0  0  0
 16 10  1  0  0  0  0
 18 13  1  0  0  0  0
 19  7  1  0  0  0  0
 20  8  1  0  0  0  0
 20 19  2  0  0  0  0
 21 12  1  0  0  0  0
 22 23  1  0  0  0  0
 23 18  1  0  0  0  0
 24 27  1  1  0  0  0
 25 28  1  0  0  0  0
 26 29  2  0  0  0  0
 28 24  1  0  0  0  0
 29 31  1  0  0  0  0
 30  5  1  1  0  0  0
 30 25  1  0  0  0  0
 30 29  1  0  0  0  0
 31 24  1  0  0  0  0
M  END
>  <MODEL>
2

>  <REMARK>
 VINA RESULT:      -9.3      1.287      2.022
  Name = 
  1 active torsions:
  status: ('A' for Active; 'I' for Inactive)
    1  A    between atoms: C_9  and  C_22
                            x       y       z     vdW  Elec       q    Type
                         _______ _______ _______ _____ _____    ______ ____

>  <TORSDO>
F 1

$$$$
=
 OpenBabel10262419353D

 31 35  0  0  1  0  0  0  0  0999 V2000
  189.2980  178.1870  142.3090 C   0  0  0  0  0  0  0  0  0  0  0  0
  186.2490  177.6010  144.4330 C   0  0  2  0  0  3  0  0  0  0  0  0
  186.8490  177.6920  145.8130 C   0  0  0  0  0  0  0  0  0  0  0  0
  182.8120  178.5340  140.4540 O   0  0  0  0  0  0  0  0  0  0  0  0
  182.1920  178.5800  141.5510 C   0  0  0  0  0  0  0  0  0  0  0  0
  188.2840  176.5900  147.5440 C   0  0  0  0  0  2  0  0  0  0  0  0
  187.1380  177.9950  143.2820 C   0  0  0  0  0  0  0  0  0  0  0  0
  188.7360  178.4830  141.0640 C   0  0  0  0  0  3  0  0  0  0  0  0
  187.8000  176.8110  146.1430 C   0  0  0  0  0  3  0  0  0  0  0  0
  184.3110  178.3350  142.9540 C   0  0  0  0  0  0  0  0  0  0  0  0
  190.7750  178.1270  142.4600 C   0  0  0  0  0  1  0  0  0  0  0  0
  184.9860  179.0090  146.6020 N   0  0  0  0  0  0  0  0  0  0  0  0
  189.0240  177.7920  148.1160 C   0  0  0  0  0  2  0  0  0  0  0  0
  185.1050  178.3550  141.9190 N   0  0  0  0  0  0  0  0  0  0  0  0
  184.8950  178.2510  144.3070 C   0  0  0  0  0  0  0  0  0  0  0  0
  182.8910  178.4740  142.7960 N   0  0  0  0  0  2  0  0  0  0  0  0
  188.4960  177.9380  143.3790 N   0  0  0  0  0  0  0  0  0  0  0  0
  188.2110  179.0880  148.1060 C   0  0  0  0  0  2  0  0  0  0  0  0
  186.5370  178.2820  142.0390 C   0  0  0  0  0  0  0  0  0  0  0  0
  187.3480  178.5280  140.9310 C   0  0  0  0  0  3  0  0  0  0  0  0
  184.3160  178.8690  145.3410 C   0  0  0  0  0  3  0  0  0  0  0  0
  186.1740  178.5360  146.8340 C   0  0  0  0  0  0  0  0  0  0  0  0
  186.8040  178.8650  148.0390 O   0  0  0  0  0  0  0  0  0  0  0  0
  179.4630  180.6950  139.6860 C   0  0  1  0  0  3  0  0  0  0  0  0
  180.0920  178.3490  140.2160 C   0  0  0  0  0  2  0  0  0  0  0  0
  180.4860  180.4910  143.2200 N   0  0  0  0  0  2  0  0  0  0  0  0
  179.6550  181.8490  138.7240 C   0  0  0  0  0  1  0  0  0  0  0  0
  180.2340  179.4760  139.1970 C   0  0  0  0  0  2  0  0  0  0  0  0
  180.2960  180.1190  141.9970 C   0  0  0  0  0  0  0  0  0  0  0  0
  180.7020  178.7350  141.5690 C   0  0  2  0  0  3  0  0  0  0  0  0
  179.9070  181.0880  141.0200 N   0  0  0  0  0  2  0  0  0  0  0  0
  1 11  1  0  0  0  0
  1 17  1  0  0  0  0
  2  7  1  6  0  0  0
  2  3  1  0  0  0  0
  3  9  2  0  0  0  0
  3 22  1  0  0  0  0
  4  5  2  0  0  0  0
  5 16  1  0  0  0  0
  6 13  1  0  0  0  0
  7 17  2  0  0  0  0
  8  1  2  0  0  0  0
  9  6  1  0  0  0  0
 10 15  1  0  0  0  0
 12 22  2  0  0  0  0
 14 19  1  0  0  0  0
 14 10  2  0  0  0  0
 15  2  1  0  0  0  0
 15 21  2  0  0  0  0
 16 10  1  0  0  0  0
 18 13  1  0  0  0  0
 19  7  1  0  0  0  0
 20  8  1  0  0  0  0
 20 19  2  0  0  0  0
 21 12  1  0  0  0  0
 22 23  1  0  0  0  0
 23 18  1  0  0  0  0
 24 27  1  6  0  0  0
 24 31  1  0  0  0  0
 25 30  1  0  0  0  0
 28 24  1  0  0  0  0
 28 25  1  0  0  0  0
 29 26  2  0  0  0  0
 30  5  1  6  0  0  0
 30 29  1  0  0  0  0
 31 29  1  0  0  0  0
M  END
>  <MODEL>
3

>  <REMARK>
 VINA RESULT:      -8.9      0.938      1.501
  Name = 
  1 active torsions:
  status: ('A' for Active; 'I' for Inactive)
    1  A    between atoms: C_9  and  C_22
                            x       y       z     vdW  Elec       q    Type
                         _______ _______ _______ _____ _____    ______ ____

>  <TORSDO>
F 1

$$$$
=
 OpenBabel10262419353D

 31 35  0  0  1  0  0  0  0  0999 V2000
  186.0400  178.2530  144.7300 C   0  0  0  0  0  0  0  0  0  0  0  0
  188.7850  178.3240  142.1580 C   0  0  2  0  0  3  0  0  0  0  0  0
  189.9490  177.8270  142.9780 C   0  0  0  0  0  0  0  0  0  0  0  0
  185.4330  178.6700  138.0150 O   0  0  0  0  0  0  0  0  0  0  0  0
  186.5750  178.3380  137.5930 C   0  0  0  0  0  0  0  0  0  0  0  0
  191.6070  178.3460  144.7810 C   0  0  0  0  0  2  0  0  0  0  0  0
  187.4230  178.2390  142.7970 C   0  0  0  0  0  0  0  0  0  0  0  0
  184.8930  178.3400  143.9370 C   0  0  0  0  0  3  0  0  0  0  0  0
  190.3170  178.5460  144.0450 C   0  0  0  0  0  3  0  0  0  0  0  0
  187.5600  178.1040  139.9360 C   0  0  0  0  0  0  0  0  0  0  0  0
  185.9180  178.2170  146.2100 C   0  0  0  0  0  1  0  0  0  0  0  0
  190.6930  176.4070  141.1740 N   0  0  0  0  0  0  0  0  0  0  0  0
  191.6800  177.0060  145.5020 C   0  0  0  0  0  2  0  0  0  0  0  0
  186.4270  178.3480  140.5340 N   0  0  0  0  0  0  0  0  0  0  0  0
  188.7480  177.7830  140.7510 C   0  0  0  0  0  0  0  0  0  0  0  0
  187.6450  178.0640  138.5040 N   0  0  0  0  0  2  0  0  0  0  0  0
  187.2700  178.2190  144.1500 N   0  0  0  0  0  0  0  0  0  0  0  0
  191.4760  175.7950  144.5910 C   0  0  0  0  0  2  0  0  0  0  0  0
  186.2870  178.3340  141.9660 C   0  0  0  0  0  0  0  0  0  0  0  0
  185.0200  178.3820  142.5480 C   0  0  0  0  0  3  0  0  0  0  0  0
  189.6680  176.9200  140.3090 C   0  0  0  0  0  3  0  0  0  0  0  0
  190.8130  176.7530  142.4200 C   0  0  0  0  0  0  0  0  0  0  0  0
  191.7410  176.0770  143.2180 O   0  0  0  0  0  0  0  0  0  0  0  0
  187.1010  175.5150  134.9180 C   0  0  1  0  0  3  0  0  0  0  0  0
  185.6900  177.5030  135.4110 C   0  0  0  0  0  2  0  0  0  0  0  0
  189.2540  178.2530  136.1220 N   0  0  0  0  0  2  0  0  0  0  0  0
  187.2740  174.0270  135.1360 C   0  0  0  0  0  1  0  0  0  0  0  0
  185.8100  175.9900  135.5730 C   0  0  0  0  0  2  0  0  0  0  0  0
  188.1710  177.6070  135.8370 C   0  0  0  0  0  0  0  0  0  0  0  0
  186.8330  178.2360  136.1210 C   0  0  2  0  0  3  0  0  0  0  0  0
  188.2510  176.2290  135.4630 N   0  0  0  0  0  2  0  0  0  0  0  0
  1 11  1  0  0  0  0
  2 15  1  6  0  0  0
  2  7  1  0  0  0  0
  2  3  1  0  0  0  0
  3  9  2  0  0  0  0
  5  4  2  0  0  0  0
  5 16  1  0  0  0  0
  6 13  1  0  0  0  0
  7 17  2  0  0  0  0
  8  1  2  0  0  0  0
  9  6  1  0  0  0  0
 10 14  2  0  0  0  0
 10 15  1  0  0  0  0
 12 22  2  0  0  0  0
 14 19  1  0  0  0  0
 16 10  1  0  0  0  0
 17  1  1  0  0  0  0
 18 13  1  0  0  0  0
 19 20  2  0  0  0  0
 19  7  1  0  0  0  0
 20  8  1  0  0  0  0
 21 15  2  0  0  0  0
 21 12  1  0  0  0  0
 22  3  1  0  0  0  0
 22 23  1  0  0  0  0
 23 18  1  0  0  0  0
 24 27  1  1  0  0  0
 24 31  1  0  0  0  0
 24 28  1  0  0  0  0
 25 28  1  0  0  0  0
 25 30  1  0  0  0  0
 29 30  1  0  0  0  0
 29 26  2  0  0  0  0
 30  5  1  1  0  0  0
 31 29  1  0  0  0  0
M  END
>  <MODEL>
4

>  <REMARK>
 VINA RESULT:      -8.9      3.957      6.324
  Name = 
  1 active torsions:
  status: ('A' for Active; 'I' for Inactive)
    1  A    between atoms: C_9  and  C_22
                            x       y       z     vdW  Elec       q    Type
                         _______ _______ _______ _____ _____    ______ ____

>  <TORSDO>
F 1

$$$$
=
 OpenBabel10262419353D

 31 35  0  0  1  0  0  0  0  0999 V2000
  190.6110  177.1020  145.7770 C   0  0  0  0  0  0  0  0  0  0  0  0
  187.8550  177.1760  143.2180 C   0  0  2  0  0  3  0  0  0  0  0  0
  186.7210  177.7280  144.0450 C   0  0  0  0  0  0  0  0  0  0  0  0
  191.1660  176.6740  139.0590 O   0  0  0  0  0  0  0  0  0  0  0  0
  190.0400  177.0630  138.6430 C   0  0  0  0  0  0  0  0  0  0  0  0
  185.0480  177.2880  145.8550 C   0  0  0  0  0  2  0  0  0  0  0  0
  189.2220  177.1910  143.8510 C   0  0  0  0  0  0  0  0  0  0  0  0
  191.7490  176.9590  144.9790 C   0  0  0  0  0  3  0  0  0  0  0  0
  186.3220  177.0260  145.1120 C   0  0  0  0  0  3  0  0  0  0  0  0
  189.0780  177.3400  140.9910 C   0  0  0  0  0  0  0  0  0  0  0  0
  190.7420  177.1270  147.2570 C   0  0  0  0  0  1  0  0  0  0  0  0
  186.0410  179.1890  142.2480 N   0  0  0  0  0  0  0  0  0  0  0  0
  185.0440  178.6280  146.5790 C   0  0  0  0  0  2  0  0  0  0  0  0
  190.2010  177.0370  141.5830 N   0  0  0  0  0  0  0  0  0  0  0  0
  187.9120  177.7180  141.8120 C   0  0  0  0  0  0  0  0  0  0  0  0
  188.9890  177.3880  139.5590 N   0  0  0  0  0  2  0  0  0  0  0  0
  189.3820  177.1990  145.2030 N   0  0  0  0  0  0  0  0  0  0  0  0
  185.3050  179.8300  145.6700 C   0  0  0  0  0  2  0  0  0  0  0  0
  190.3480  177.0400  143.0140 C   0  0  0  0  0  0  0  0  0  0  0  0
  191.6140  176.9280  143.5900 C   0  0  0  0  0  3  0  0  0  0  0  0
  187.0340  178.6280  141.3770 C   0  0  0  0  0  3  0  0  0  0  0  0
  185.9090  178.8450  143.4940 C   0  0  0  0  0  0  0  0  0  0  0  0
  185.0200  179.5650  144.2980 O   0  0  0  0  0  0  0  0  0  0  0  0
  186.9450  177.3240  136.2450 C   0  0  1  0  0  3  0  0  0  0  0  0
  189.0550  178.4930  136.8460 C   0  0  0  0  0  2  0  0  0  0  0  0
  189.6440  174.8390  136.5820 N   0  0  0  0  0  2  0  0  0  0  0  0
  185.4760  177.1580  136.5750 C   0  0  0  0  0  1  0  0  0  0  0  0
  187.5610  178.3930  137.1390 C   0  0  0  0  0  2  0  0  0  0  0  0
  189.0440  175.9820  136.6420 C   0  0  0  0  0  0  0  0  0  0  0  0
  189.7800  177.1820  137.1720 C   0  0  2  0  0  3  0  0  0  0  0  0
  187.6340  176.0490  136.4120 N   0  0  0  0  0  2  0  0  0  0  0  0
  1 11  1  0  0  0  0
  2 15  1  6  0  0  0
  2  7  1  0  0  0  0
  2  3  1  0  0  0  0
  3  9  2  0  0  0  0
  5  4  2  0  0  0  0
  5 16  1  0  0  0  0
  6 13  1  0  0  0  0
  7 17  2  0  0  0  0
  8  1  2  0  0  0  0
  9  6  1  0  0  0  0
 10 14  2  0  0  0  0
 10 15  1  0  0  0  0
 12 22  2  0  0  0  0
 14 19  1  0  0  0  0
 16 10  1  0  0  0  0
 17  1  1  0  0  0  0
 18 13  1  0  0  0  0
 19 20  2  0  0  0  0
 19  7  1  0  0  0  0
 20  8  1  0  0  0  0
 21 15  2  0  0  0  0
 21 12  1  0  0  0  0
 22  3  1  0  0  0  0
 22 23  1  0  0  0  0
 23 18  1  0  0  0  0
 24 31  1  0  0  0  0
 24 27  1  1  0  0  0
 24 28  1  0  0  0  0
 25 28  1  0  0  0  0
 25 30  1  0  0  0  0
 26 29  2  0  0  0  0
 29 30  1  0  0  0  0
 30  5  1  1  0  0  0
 31 29  1  0  0  0  0
M  END
>  <MODEL>
5

>  <REMARK>
 VINA RESULT:      -8.8      3.877      6.364
  Name = 
  1 active torsions:
  status: ('A' for Active; 'I' for Inactive)
    1  A    between atoms: C_9  and  C_22
                            x       y       z     vdW  Elec       q    Type
                         _______ _______ _______ _____ _____    ______ ____

>  <TORSDO>
F 1

$$$$
=
 OpenBabel10262419353D

 31 35  0  0  1  0  0  0  0  0999 V2000
  187.1330  177.9710  147.6210 C   0  0  0  0  0  0  0  0  0  0  0  0
  187.7600  178.4420  143.9420 C   0  0  2  0  0  3  0  0  0  0  0  0
  189.1730  177.9280  143.8310 C   0  0  0  0  0  0  0  0  0  0  0  0
  182.5910  179.0200  142.7320 O   0  0  0  0  0  0  0  0  0  0  0  0
  183.2370  178.7930  141.6740 C   0  0  0  0  0  0  0  0  0  0  0  0
  191.5940  178.3530  144.3130 C   0  0  0  0  0  2  0  0  0  0  0  0
  187.0610  178.2220  145.2590 C   0  0  0  0  0  0  0  0  0  0  0  0
  185.7410  178.0750  147.6980 C   0  0  0  0  0  3  0  0  0  0  0  0
  190.1250  178.5560  144.5320 C   0  0  0  0  0  3  0  0  0  0  0  0
  185.4360  178.3800  142.9020 C   0  0  0  0  0  0  0  0  0  0  0  0
  187.9310  177.7820  148.8600 C   0  0  0  0  0  1  0  0  0  0  0  0
  188.6460  176.7360  141.8000 N   0  0  0  0  0  0  0  0  0  0  0  0
  192.0650  176.9530  144.6880 C   0  0  0  0  0  2  0  0  0  0  0  0
  184.9010  178.5030  144.0860 N   0  0  0  0  0  0  0  0  0  0  0  0
  186.8690  178.0420  142.7930 C   0  0  0  0  0  0  0  0  0  0  0  0
  184.6350  178.4870  141.7160 N   0  0  0  0  0  2  0  0  0  0  0  0
  187.7600  178.0600  146.4170 N   0  0  0  0  0  0  0  0  0  0  0  0
  191.3280  175.8300  143.9580 C   0  0  0  0  0  2  0  0  0  0  0  0
  185.6570  178.3390  145.2990 C   0  0  0  0  0  0  0  0  0  0  0  0
  185.0020  178.2620  146.5290 C   0  0  0  0  0  3  0  0  0  0  0  0
  187.3170  177.2770  141.7930 C   0  0  0  0  0  3  0  0  0  0  0  0
  189.5040  176.9620  142.7500 C   0  0  0  0  0  0  0  0  0  0  0  0
  190.7130  176.2600  142.7460 O   0  0  0  0  0  0  0  0  0  0  0  0
  183.1010  176.6780  138.3700 C   0  0  1  0  0  3  0  0  0  0  0  0
  181.6400  177.6350  140.1400 C   0  0  0  0  0  2  0  0  0  0  0  0
  184.1790  180.1280  139.0880 N   0  0  0  0  0  2  0  0  0  0  0  0
  183.9580  175.4970  137.9680 C   0  0  0  0  0  1  0  0  0  0  0  0
  182.4380  176.4050  139.7140 C   0  0  0  0  0  2  0  0  0  0  0  0
  183.5360  179.0140  139.2190 C   0  0  0  0  0  0  0  0  0  0  0  0
  182.5500  178.8510  140.3440 C   0  0  2  0  0  3  0  0  0  0  0  0
  183.9220  177.8830  138.4330 N   0  0  0  0  0  2  0  0  0  0  0  0
  1  8  1  0  0  0  0
  1 11  1  0  0  0  0
  2 15  1  6  0  0  0
  2  7  1  0  0  0  0
  3  2  1  0  0  0  0
  3  9  2  0  0  0  0
  5 16  1  0  0  0  0
  5  4  2  0  0  0  0
  6  9  1  0  0  0  0
  6 13  1  0  0  0  0
  7 19  2  0  0  0  0
  7 17  1  0  0  0  0
 10 14  2  0  0  0  0
 12 22  2  0  0  0  0
 14 19  1  0  0  0  0
 15 10  1  0  0  0  0
 16 10  1  0  0  0  0
 17  1  2  0  0  0  0
 18 13  1  0  0  0  0
 19 20  1  0  0  0  0
 20  8  2  0  0  0  0
 21 12  1  0  0  0  0
 21 15  2  0  0  0  0
 22  3  1  0  0  0  0
 23 22  1  0  0  0  0
 23 18  1  0  0  0  0
 24 27  1  1  0  0  0
 24 31  1  0  0  0  0
 24 28  1  0  0  0  0
 25 30  1  0  0  0  0
 26 29  2  0  0  0  0
 28 25  1  0  0  0  0
 29 30  1  0  0  0  0
 30  5  1  1  0  0  0
 31 29  1  0  0  0  0
M  END
>  <MODEL>
6

>  <REMARK>
 VINA RESULT:      -8.5      2.568      4.325
  Name = 
  1 active torsions:
  status: ('A' for Active; 'I' for Inactive)
    1  A    between atoms: C_9  and  C_22
                            x       y       z     vdW  Elec       q    Type
                         _______ _______ _______ _____ _____    ______ ____

>  <TORSDO>
F 1

$$$$
=
 OpenBabel10262419353D

 31 35  0  0  1  0  0  0  0  0999 V2000
  189.2800  178.2220  142.3370 C   0  0  0  0  0  0  0  0  0  0  0  0
  185.8440  177.8140  143.8130 C   0  0  2  0  0  3  0  0  0  0  0  0
  186.1480  177.9880  145.2800 C   0  0  0  0  0  0  0  0  0  0  0  0
  183.3280  178.5280  139.1580 O   0  0  0  0  0  0  0  0  0  0  0  0
  182.4960  178.6530  140.0970 C   0  0  0  0  0  0  0  0  0  0  0  0
  187.1660  176.9830  147.3360 C   0  0  0  0  0  2  0  0  0  0  0  0
  186.9620  178.1210  142.8500 C   0  0  0  0  0  0  0  0  0  0  0  0
  188.9950  178.4420  140.9860 C   0  0  0  0  0  3  0  0  0  0  0  0
  186.9880  177.1180  145.8540 C   0  0  0  0  0  3  0  0  0  0  0  0
  184.2720  178.4740  141.9220 C   0  0  0  0  0  0  0  0  0  0  0  0
  190.6920  178.1520  142.7950 C   0  0  0  0  0  1  0  0  0  0  0  0
  184.1980  179.3770  145.5820 N   0  0  0  0  0  0  0  0  0  0  0  0
  187.8020  178.2110  147.9740 C   0  0  0  0  0  2  0  0  0  0  0  0
  185.2640  178.4160  141.0750 N   0  0  0  0  0  0  0  0  0  0  0  0
  184.5620  178.4720  143.3690 C   0  0  0  0  0  0  0  0  0  0  0  0
  182.9200  178.6210  141.4650 N   0  0  0  0  0  2  0  0  0  0  0  0
  188.2680  178.0530  143.2300 N   0  0  0  0  0  0  0  0  0  0  0  0
  187.0430  179.5130  147.7160 C   0  0  0  0  0  2  0  0  0  0  0  0
  186.6370  178.3330  141.4950 C   0  0  0  0  0  0  0  0  0  0  0  0
  187.6660  178.4960  140.5660 C   0  0  0  0  0  3  0  0  0  0  0  0
  183.7980  179.1630  144.2210 C   0  0  0  0  0  3  0  0  0  0  0  0
  185.3000  178.9060  146.0850 C   0  0  0  0  0  0  0  0  0  0  0  0
  185.6750  179.3040  147.3710 O   0  0  0  0  0  0  0  0  0  0  0  0
  180.1760  181.3180  138.3880 C   0  0  1  0  0  3  0  0  0  0  0  0
  180.7960  178.9120  138.2850 C   0  0  0  0  0  2  0  0  0  0  0  0
  180.3300  179.9640  141.8120 N   0  0  0  0  0  2  0  0  0  0  0  0
  180.5260  182.7140  137.9200 C   0  0  0  0  0  1  0  0  0  0  0  0
  181.1120  180.3040  137.7440 C   0  0  0  0  0  2  0  0  0  0  0  0
  180.4610  180.0100  140.5270 C   0  0  0  0  0  0  0  0  0  0  0  0
  181.0390  178.8290  139.7960 C   0  0  2  0  0  3  0  0  0  0  0  0
  180.2630  181.2510  139.8430 N   0  0  0  0  0  2  0  0  0  0  0  0
  1 11  1  0  0  0  0
  1 17  1  0  0  0  0
  2  7  1  6  0  0  0
  2  3  1  0  0  0  0
  3  9  2  0  0  0  0
  3 22  1  0  0  0  0
  4  5  2  0  0  0  0
  5 16  1  0  0  0  0
  6 13  1  0  0  0  0
  7 17  2  0  0  0  0
  8  1  2  0  0  0  0
  9  6  1  0  0  0  0
 10 15  1  0  0  0  0
 12 22  2  0  0  0  0
 14 19  1  0  0  0  0
 14 10  2  0  0  0  0
 15  2  1  0  0  0  0
 15 21  2  0  0  0  0
 16 10  1  0  0  0  0
 18 13  1  0  0  0  0
 19  7  1  0  0  0  0
 20  8  1  0  0  0  0
 20 19  2  0  0  0  0
 21 12  1  0  0  0  0
 22 23  1  0  0  0  0
 23 18  1  0  0  0  0
 24 27  1  6  0  0  0
 24 31  1  0  0  0  0
 25 30  1  0  0  0  0
 28 25  1  0  0  0  0
 28 24  1  0  0  0  0
 29 26  2  0  0  0  0
 30  5  1  6  0  0  0
 30 29  1  0  0  0  0
 31 29  1  0  0  0  0
M  END
>  <MODEL>
7

>  <REMARK>
 VINA RESULT:      -8.4      1.502      2.135
  Name = 
  1 active torsions:
  status: ('A' for Active; 'I' for Inactive)
    1  A    between atoms: C_9  and  C_22
                            x       y       z     vdW  Elec       q    Type
                         _______ _______ _______ _____ _____    ______ ____

>  <TORSDO>
F 1

$$$$
=
 OpenBabel10262419353D

 31 35  0  0  1  0  0  0  0  0999 V2000
  190.1650  177.3130  145.6570 C   0  0  0  0  0  0  0  0  0  0  0  0
  188.1650  177.1590  142.4750 C   0  0  2  0  0  3  0  0  0  0  0  0
  186.8950  177.8450  142.9090 C   0  0  0  0  0  0  0  0  0  0  0  0
  192.3920  176.0430  139.4070 O   0  0  0  0  0  0  0  0  0  0  0  0
  191.4370  176.4140  138.6710 C   0  0  0  0  0  0  0  0  0  0  0  0
  184.7900  177.6850  144.2560 C   0  0  0  0  0  2  0  0  0  0  0  0
  189.3240  177.2080  143.4370 C   0  0  0  0  0  0  0  0  0  0  0  0
  191.4580  177.0370  145.2050 C   0  0  0  0  0  3  0  0  0  0  0  0
  186.1930  177.2930  143.9060 C   0  0  0  0  0  3  0  0  0  0  0  0
  189.9260  177.0090  140.6410 C   0  0  0  0  0  0  0  0  0  0  0  0
  189.9140  177.5160  147.1070 C   0  0  0  0  0  1  0  0  0  0  0  0
  186.7910  179.0950  140.8470 N   0  0  0  0  0  0  0  0  0  0  0  0
  184.6860  179.1030  144.8020 C   0  0  0  0  0  2  0  0  0  0  0  0
  190.8380  176.7450  141.5350 N   0  0  0  0  0  0  0  0  0  0  0  0
  188.6140  177.5220  141.0810 C   0  0  0  0  0  0  0  0  0  0  0  0
  190.2090  176.8830  139.2390 N   0  0  0  0  0  2  0  0  0  0  0  0
  189.1320  177.3780  144.7750 N   0  0  0  0  0  0  0  0  0  0  0  0
  185.2460  180.1750  143.8650 C   0  0  0  0  0  2  0  0  0  0  0  0
  190.6140  176.9200  142.9460 C   0  0  0  0  0  0  0  0  0  0  0  0
  191.6800  176.8390  143.8420 C   0  0  0  0  0  3  0  0  0  0  0  0
  187.9360  178.3990  140.3340 C   0  0  0  0  0  3  0  0  0  0  0  0
  186.3230  178.9120  142.0450 C   0  0  0  0  0  0  0  0  0  0  0  0
  185.3050  179.7530  142.5050 O   0  0  0  0  0  0  0  0  0  0  0  0
  192.2410  173.7380  135.9160 C   0  0  1  0  0  3  0  0  0  0  0  0
  190.5280  175.4160  136.5690 C   0  0  0  0  0  2  0  0  0  0  0  0
  193.9300  176.8440  136.9540 N   0  0  0  0  0  2  0  0  0  0  0  0
  192.7180  172.3120  136.0940 C   0  0  0  0  0  1  0  0  0  0  0  0
  190.9520  173.9560  136.6960 C   0  0  0  0  0  2  0  0  0  0  0  0
  192.9700  176.0000  136.7630 C   0  0  0  0  0  0  0  0  0  0  0  0
  191.5700  176.3590  137.1800 C   0  0  2  0  0  3  0  0  0  0  0  0
  193.2790  174.6620  136.3610 N   0  0  0  0  0  2  0  0  0  0  0  0
  1 11  1  0  0  0  0
  2 15  1  6  0  0  0
  2  3  1  0  0  0  0
  2  7  1  0  0  0  0
  3  9  2  0  0  0  0
  5 16  1  0  0  0  0
  5  4  2  0  0  0  0
  6 13  1  0  0  0  0
  7 17  1  0  0  0  0
  8  1  1  0  0  0  0
  9  6  1  0  0  0  0
 10 15  1  0  0  0  0
 10 14  2  0  0  0  0
 12 22  2  0  0  0  0
 14 19  1  0  0  0  0
 16 10  1  0  0  0  0
 17  1  2  0  0  0  0
 18 13  1  0  0  0  0
 19  7  2  0  0  0  0
 19 20  1  0  0  0  0
 20  8  2  0  0  0  0
 21 12  1  0  0  0  0
 21 15  2  0  0  0  0
 22 23  1  0  0  0  0
 22  3  1  0  0  0  0
 23 18  1  0  0  0  0
 24 27  1  1  0  0  0
 24 31  1  0  0  0  0
 24 28  1  0  0  0  0
 25 28  1  0  0  0  0
 25 30  1  0  0  0  0
 29 26  2  0  0  0  0
 29 30  1  0  0  0  0
 30  5  1  1  0  0  0
 31 29  1  0  0  0  0
M  END
>  <MODEL>
8

>  <REMARK>
 VINA RESULT:      -8.2      4.483      8.420
  Name = 
  1 active torsions:
  status: ('A' for Active; 'I' for Inactive)
    1  A    between atoms: C_9  and  C_22
                            x       y       z     vdW  Elec       q    Type
                         _______ _______ _______ _____ _____    ______ ____

>  <TORSDO>
F 1

$$$$
=
 OpenBabel10262419353D

 31 35  0  0  1  0  0  0  0  0999 V2000
  189.7620  177.9980  142.5420 C   0  0  0  0  0  0  0  0  0  0  0  0
  186.2330  177.7700  143.8250 C   0  0  2  0  0  3  0  0  0  0  0  0
  186.4650  177.9120  145.3080 C   0  0  0  0  0  0  0  0  0  0  0  0
  184.0190  178.6740  139.0500 O   0  0  0  0  0  0  0  0  0  0  0  0
  183.1460  178.8370  139.9450 C   0  0  0  0  0  0  0  0  0  0  0  0
  187.3100  176.8300  147.4020 C   0  0  0  0  0  2  0  0  0  0  0  0
  187.4170  178.0230  142.9280 C   0  0  0  0  0  0  0  0  0  0  0  0
  189.5640  178.2480  141.1810 C   0  0  0  0  0  3  0  0  0  0  0  0
  187.2220  176.9900  145.9150 C   0  0  0  0  0  3  0  0  0  0  0  0
  184.8060  178.5380  141.8600 C   0  0  0  0  0  0  0  0  0  0  0  0
  191.1400  177.8430  143.0750 C   0  0  0  0  0  1  0  0  0  0  0  0
  184.5820  179.4060  145.5230 N   0  0  0  0  0  0  0  0  0  0  0  0
  187.9790  178.0130  148.0910 C   0  0  0  0  0  2  0  0  0  0  0  0
  185.8380  178.4330  141.0680 N   0  0  0  0  0  0  0  0  0  0  0  0
  185.0160  178.5050  143.3210 C   0  0  0  0  0  0  0  0  0  0  0  0
  183.4910  178.7660  141.3320 N   0  0  0  0  0  2  0  0  0  0  0  0
  188.6940  177.8770  143.3770 N   0  0  0  0  0  0  0  0  0  0  0  0
  187.3100  179.3590  147.8090 C   0  0  0  0  0  2  0  0  0  0  0  0
  187.1800  178.2680  141.5600 C   0  0  0  0  0  0  0  0  0  0  0  0
  188.2650  178.3820  140.6900 C   0  0  0  0  0  3  0  0  0  0  0  0
  184.2470  179.2290  144.1390 C   0  0  0  0  0  3  0  0  0  0  0  0
  185.6260  178.8680  146.0780 C   0  0  0  0  0  0  0  0  0  0  0  0
  185.9530  179.2310  147.3880 O   0  0  0  0  0  0  0  0  0  0  0  0
  180.8400  178.4000  136.7990 C   0  0  1  0  0  3  0  0  0  0  0  0
  180.9990  177.7940  139.2050 C   0  0  0  0  0  2  0  0  0  0  0  0
  181.9200  181.3550  138.7170 N   0  0  0  0  0  2  0  0  0  0  0  0
  181.2290  178.0100  135.3890 C   0  0  0  0  0  1  0  0  0  0  0  0
  181.3310  177.3480  137.7840 C   0  0  0  0  0  2  0  0  0  0  0  0
  181.6170  180.1230  138.4700 C   0  0  0  0  0  0  0  0  0  0  0  0
  181.7200  179.0980  139.5670 C   0  0  2  0  0  3  0  0  0  0  0  0
  181.3990  179.7100  137.1190 N   0  0  0  0  0  2  0  0  0  0  0  0
  1 11  1  0  0  0  0
  1 17  1  0  0  0  0
  2  7  1  6  0  0  0
  2  3  1  0  0  0  0
  3  9  2  0  0  0  0
  3 22  1  0  0  0  0
  4  5  2  0  0  0  0
  5 16  1  0  0  0  0
  6 13  1  0  0  0  0
  7 17  2  0  0  0  0
  8  1  2  0  0  0  0
  9  6  1  0  0  0  0
 10 15  1  0  0  0  0
 12 22  2  0  0  0  0
 14 19  1  0  0  0  0
 14 10  2  0  0  0  0
 15  2  1  0  0  0  0
 15 21  2  0  0  0  0
 16 10  1  0  0  0  0
 18 13  1  0  0  0  0
 19  7  1  0  0  0  0
 20  8  1  0  0  0  0
 20 19  2  0  0  0  0
 21 12  1  0  0  0  0
 22 23  1  0  0  0  0
 23 18  1  0  0  0  0
 24 27  1  6  0  0  0
 24 31  1  0  0  0  0
 24 28  1  0  0  0  0
 25 30  1  0  0  0  0
 28 25  1  0  0  0  0
 29 26  2  0  0  0  0
 29 30  1  0  0  0  0
 30  5  1  6  0  0  0
 31 29  1  0  0  0  0
M  END
>  <MODEL>
9

>  <REMARK>
 VINA RESULT:      -8.2      1.710      1.882
  Name = 
  1 active torsions:
  status: ('A' for Active; 'I' for Inactive)
    1  A    between atoms: C_9  and  C_22
                            x       y       z     vdW  Elec       q    Type
                         _______ _______ _______ _____ _____    ______ ____

>  <TORSDO>
F 1

$$$$
