=
 OpenBabel10262419543D

 25 27  0  0  1  0  0  0  0  0999 V2000
  187.6790  177.9110  145.8340 N   0  0  0  0  0  0  0  0  0  0  0  0
  186.6500  177.6530  144.8200 C   0  0  0  0  0  0  0  0  0  0  0  0
  186.0850  178.7150  147.4250 C   0  0  0  0  0  3  0  0  0  0  0  0
  188.9790  177.3240  145.8630 C   0  0  0  0  0  0  0  0  0  0  0  0
  185.0990  178.7580  146.3820 N   0  0  0  0  0  0  0  0  0  0  0  0
  189.5770  177.3840  147.0580 C   0  0  0  0  0  0  0  0  0  0  0  0
  184.3480  178.5110  144.0970 C   0  0  1  0  0  3  0  0  0  0  0  0
  182.9080  178.7450  144.3990 C   0  0  0  0  0  1  0  0  0  0  0  0
  187.0960  178.0450  143.4340 C   0  0  0  0  0  3  0  0  0  0  0  0
  187.3290  178.3390  147.1410 C   0  0  0  0  0  0  0  0  0  0  0  0
  188.6300  178.2010  148.3520 S   0  0  0  0  0  0  0  0  0  0  0  0
  184.7690  178.5370  142.8270 C   0  0  0  0  0  3  0  0  0  0  0  0
  186.2040  178.3800  142.4920 C   0  0  0  0  0  0  0  0  0  0  0  0
  185.3380  178.3290  145.1740 C   0  0  0  0  0  0  0  0  0  0  0  0
  191.9010  176.3350  147.5560 N   0  0  0  0  0  0  0  0  0  0  0  0
  190.8650  176.8010  147.3340 C   0  0  0  0  0  0  0  0  0  0  0  0
  190.5140  177.5380  143.9380 C   0  0  0  0  0  1  0  0  0  0  0  0
  189.5720  176.6140  144.6840 C   0  0  0  0  0  2  0  0  0  0  0  0
  186.6740  178.7020  141.1170 C   0  0  0  0  0  2  0  0  0  0  0  0
  188.1920  178.6530  141.0580 C   0  0  0  0  0  2  0  0  0  0  0  0
  188.6500  177.6640  139.9980 C   0  0  2  0  0  3  0  0  0  0  0  0
  190.0760  177.4250  140.1410 N   0  0  0  0  0  1  0  0  0  0  0  0
  188.3580  178.1750  138.6230 C   0  0  0  0  0  0  0  0  0  0  0  0
  188.9730  179.3360  138.1780 O   0  0  0  0  0  1  0  0  0  0  0  0
  187.5650  177.5540  137.8650 O   0  0  0  0  0  0  0  0  0  0  0  0
  1  4  1  0  0  0  0
  1 10  1  0  0  0  0
  2 14  1  0  0  0  0
  2  1  1  0  0  0  0
  4  6  2  0  0  0  0
  5  3  1  0  0  0  0
  6 16  1  0  0  0  0
  6 11  1  0  0  0  0
  7  8  1  1  0  0  0
  7 14  1  0  0  0  0
  9  2  2  0  0  0  0
 10  3  2  0  0  0  0
 10 11  1  0  0  0  0
 12  7  1  0  0  0  0
 13 12  2  0  0  0  0
 13  9  1  0  0  0  0
 14  5  2  0  0  0  0
 16 15  3  0  0  0  0
 17 18  1  0  0  0  0
 18  4  1  0  0  0  0
 19 13  1  0  0  0  0
 20 19  1  0  0  0  0
 21 22  1  6  0  0  0
 21 20  1  0  0  0  0
 23 21  1  0  0  0  0
 24 23  1  0  0  0  0
 25 23  2  0  0  0  0
M  END
>  <MODEL>
1

>  <REMARK>
 VINA RESULT:      -8.5      0.000      0.000
  Name = 
  6 active torsions:
  status: ('A' for Active; 'I' for Inactive)
    1  A    between atoms: C_2  and  CA_21
    2  A    between atoms: C_5  and  C_22
    3  A    between atoms: C_6  and  C_15
    4  A    between atoms: C_6  and  C_23
    5  A    between atoms: C_10  and  C_11
    6  A    between atoms: C_15  and  CA_21
                            x       y       z     vdW  Elec       q    Type
                         _______ _______ _______ _____ _____    ______ ____

>  <TORSDO>
F 6

$$$$
=
 OpenBabel10262419543D

 25 27  0  0  1  0  0  0  0  0999 V2000
  187.2560  177.9950  145.3790 N   0  0  0  0  0  0  0  0  0  0  0  0
  186.2610  177.7300  144.3330 C   0  0  0  0  0  0  0  0  0  0  0  0
  185.6240  178.9090  146.8700 C   0  0  0  0  0  3  0  0  0  0  0  0
  188.5340  177.3710  145.4850 C   0  0  0  0  0  0  0  0  0  0  0  0
  184.6840  178.9420  145.7860 N   0  0  0  0  0  0  0  0  0  0  0  0
  189.0840  177.4600  146.7000 C   0  0  0  0  0  0  0  0  0  0  0  0
  184.0190  178.6280  143.4820 C   0  0  1  0  0  3  0  0  0  0  0  0
  182.5760  178.9180  143.7140 C   0  0  0  0  0  1  0  0  0  0  0  0
  186.7760  178.0540  142.9540 C   0  0  0  0  0  3  0  0  0  0  0  0
  186.8670  178.4850  146.6530 C   0  0  0  0  0  0  0  0  0  0  0  0
  188.1120  178.3540  147.9220 S   0  0  0  0  0  0  0  0  0  0  0  0
  184.4920  178.5920  142.2310 C   0  0  0  0  0  3  0  0  0  0  0  0
  185.9340  178.3780  141.9630 C   0  0  0  0  0  0  0  0  0  0  0  0
  184.9580  178.4580  144.6060 C   0  0  0  0  0  0  0  0  0  0  0  0
  191.3510  176.3610  147.3360 N   0  0  0  0  0  0  0  0  0  0  0  0
  190.3410  176.8490  147.0520 C   0  0  0  0  0  0  0  0  0  0  0  0
  190.1460  177.4660  143.6130 C   0  0  0  0  0  1  0  0  0  0  0  0
  189.1510  176.5980  144.3590 C   0  0  0  0  0  2  0  0  0  0  0  0
  186.4700  178.6330  140.5980 C   0  0  0  0  0  2  0  0  0  0  0  0
  187.9870  178.5550  140.6080 C   0  0  0  0  0  2  0  0  0  0  0  0
  188.5220  178.3960  139.1940 C   0  0  2  0  0  3  0  0  0  0  0  0
  187.4790  178.7310  138.2400 N   0  0  0  0  0  1  0  0  0  0  0  0
  188.9990  177.0000  138.9540 C   0  0  0  0  0  0  0  0  0  0  0  0
  188.1860  176.1050  138.2730 O   0  0  0  0  0  0  0  0  0  0  0  0
  190.1360  176.6330  139.3550 O   0  0  0  0  0  1  0  0  0  0  0  0
  1  4  1  0  0  0  0
  1 10  1  0  0  0  0
  2 14  1  0  0  0  0
  2  1  1  0  0  0  0
  4  6  2  0  0  0  0
  5  3  1  0  0  0  0
  6 16  1  0  0  0  0
  6 11  1  0  0  0  0
  7  8  1  1  0  0  0
  7 14  1  0  0  0  0
  9  2  2  0  0  0  0
 10  3  2  0  0  0  0
 10 11  1  0  0  0  0
 12  7  1  0  0  0  0
 13 12  2  0  0  0  0
 13  9  1  0  0  0  0
 14  5  2  0  0  0  0
 16 15  3  0  0  0  0
 17 18  1  0  0  0  0
 18  4  1  0  0  0  0
 19 20  1  0  0  0  0
 19 13  1  0  0  0  0
 21 22  1  6  0  0  0
 21 20  1  0  0  0  0
 23 21  1  0  0  0  0
 23 25  1  0  0  0  0
 24 23  2  0  0  0  0
M  END
>  <MODEL>
2

>  <REMARK>
 VINA RESULT:      -7.7      1.176      1.327
  Name = 
  6 active torsions:
  status: ('A' for Active; 'I' for Inactive)
    1  A    between atoms: C_2  and  CA_21
    2  A    between atoms: C_5  and  C_22
    3  A    between atoms: C_6  and  C_15
    4  A    between atoms: C_6  and  C_23
    5  A    between atoms: C_10  and  C_11
    6  A    between atoms: C_15  and  CA_21
                            x       y       z     vdW  Elec       q    Type
                         _______ _______ _______ _____ _____    ______ ____

>  <TORSDO>
F 6

$$$$
=
 OpenBabel10262419543D

 25 27  0  0  1  0  0  0  0  0999 V2000
  187.1340  178.1270  142.3530 N   0  0  0  0  0  0  0  0  0  0  0  0
  188.3760  177.3450  142.3780 C   0  0  0  0  0  0  0  0  0  0  0  0
  187.2460  178.4600  139.9870 C   0  0  0  0  0  3  0  0  0  0  0  0
  186.1220  178.1080  143.3580 C   0  0  0  0  0  0  0  0  0  0  0  0
  188.5930  177.9650  140.0040 N   0  0  0  0  0  0  0  0  0  0  0  0
  184.9360  178.5660  142.9460 C   0  0  0  0  0  0  0  0  0  0  0  0
  190.5800  177.1200  141.0940 C   0  0  1  0  0  3  0  0  0  0  0  0
  191.3090  176.8120  139.8320 C   0  0  0  0  0  1  0  0  0  0  0  0
  189.2420  177.6790  143.5650 C   0  0  0  0  0  3  0  0  0  0  0  0
  186.5680  178.5660  141.1280 C   0  0  0  0  0  0  0  0  0  0  0  0
  184.8780  179.1220  141.2350 S   0  0  0  0  0  0  0  0  0  0  0  0
  191.2440  177.1280  142.2550 C   0  0  0  0  0  3  0  0  0  0  0  0
  190.5700  177.4990  143.5210 C   0  0  0  0  0  0  0  0  0  0  0  0
  189.1540  177.4960  141.0840 C   0  0  0  0  0  0  0  0  0  0  0  0
  182.8070  178.5920  144.4350 N   0  0  0  0  0  0  0  0  0  0  0  0
  183.7560  178.5810  143.7720 C   0  0  0  0  0  0  0  0  0  0  0  0
  186.4000  178.6310  145.7580 C   0  0  0  0  0  1  0  0  0  0  0  0
  186.3480  177.5260  144.7210 C   0  0  0  0  0  2  0  0  0  0  0  0
  191.3890  177.7810  144.7320 C   0  0  0  0  0  2  0  0  0  0  0  0
  191.5680  176.5120  145.5490 C   0  0  0  0  0  2  0  0  0  0  0  0
  191.4580  176.8160  147.0340 C   0  0  2  0  0  3  0  0  0  0  0  0
  191.9430  175.6810  147.8000 N   0  0  0  0  0  1  0  0  0  0  0  0
  190.0450  177.1200  147.4180 C   0  0  0  0  0  0  0  0  0  0  0  0
  189.7860  178.1090  148.3560 O   0  0  0  0  0  1  0  0  0  0  0  0
  189.0880  176.4920  146.8890 O   0  0  0  0  0  0  0  0  0  0  0  0
  1  2  1  0  0  0  0
  1  4  1  0  0  0  0
  2  9  2  0  0  0  0
  3  5  1  0  0  0  0
  3 10  2  0  0  0  0
  4 18  1  0  0  0  0
  5 14  2  0  0  0  0
  6  4  2  0  0  0  0
  6 16  1  0  0  0  0
  7  8  1  6  0  0  0
  7 12  1  0  0  0  0
 10 11  1  0  0  0  0
 10  1  1  0  0  0  0
 11  6  1  0  0  0  0
 12 13  2  0  0  0  0
 13  9  1  0  0  0  0
 13 19  1  0  0  0  0
 14  7  1  0  0  0  0
 14  2  1  0  0  0  0
 16 15  3  0  0  0  0
 18 17  1  0  0  0  0
 19 20  1  0  0  0  0
 20 21  1  0  0  0  0
 21 23  1  0  0  0  0
 21 22  1  1  0  0  0
 23 24  1  0  0  0  0
 25 23  2  0  0  0  0
M  END
>  <MODEL>
3

>  <REMARK>
 VINA RESULT:      -7.6      3.543      6.928
  Name = 
  6 active torsions:
  status: ('A' for Active; 'I' for Inactive)
    1  A    between atoms: C_2  and  CA_21
    2  A    between atoms: C_5  and  C_22
    3  A    between atoms: C_6  and  C_15
    4  A    between atoms: C_6  and  C_23
    5  A    between atoms: C_10  and  C_11
    6  A    between atoms: C_15  and  CA_21
                            x       y       z     vdW  Elec       q    Type
                         _______ _______ _______ _____ _____    ______ ____

>  <TORSDO>
F 6

$$$$
=
 OpenBabel10262419543D

 25 27  0  0  1  0  0  0  0  0999 V2000
  189.3240  177.5280  143.8390 N   0  0  0  0  0  0  0  0  0  0  0  0
  188.2430  177.2830  144.8010 C   0  0  2  0  0  3  0  0  0  0  0  0
  191.0200  177.3690  145.5190 C   0  0  0  0  0  3  0  0  0  0  0  0
  189.2340  177.3510  142.4270 C   0  0  0  0  0  0  0  0  0  0  0  0
  189.9970  177.4210  146.5250 N   0  0  0  0  0  0  0  0  0  0  0  0
  190.4170  177.2420  141.8150 C   0  0  0  0  0  0  0  0  0  0  0  0
  187.7090  177.6180  147.2830 C   0  0  0  0  0  0  0  0  0  0  0  0
  188.0140  177.3400  148.7140 C   0  0  0  0  0  1  0  0  0  0  0  0
  187.0400  178.1560  144.5490 C   0  0  0  0  0  3  0  0  0  0  0  0
  190.6860  177.4570  144.2340 C   0  0  0  0  0  0  0  0  0  0  0  0
  191.8550  177.3610  142.8910 S   0  0  0  0  0  0  0  0  0  0  0  0
  186.5130  178.1150  146.9470 C   0  0  0  0  0  3  0  0  0  0  0  0
  186.1990  178.4720  145.5430 C   0  0  0  0  0  0  0  0  0  0  0  0
  188.7260  177.4310  146.2320 C   0  0  0  0  0  0  0  0  0  0  0  0
  190.6840  176.7990  139.2690 N   0  0  0  0  0  0  0  0  0  0  0  0
  190.5650  176.9960  140.4030 C   0  0  0  0  0  0  0  0  0  0  0  0
  187.5060  178.5180  141.0990 C   0  0  0  0  0  1  0  0  0  0  0  0
  187.9240  177.1960  141.7140 C   0  0  0  0  0  2  0  0  0  0  0  0
  184.9870  179.2850  145.2490 C   0  0  0  0  0  2  0  0  0  0  0  0
  184.7890  179.4040  143.7470 C   0  0  0  0  0  2  0  0  0  0  0  0
  183.3110  179.3410  143.3980 C   0  0  2  0  0  3  0  0  0  0  0  0
  182.5900  178.6630  144.4610 N   0  0  0  0  0  1  0  0  0  0  0  0
  183.0940  178.6260  142.1030 C   0  0  0  0  0  0  0  0  0  0  0  0
  184.1020  177.8280  141.5830 O   0  0  0  0  0  1  0  0  0  0  0  0
  182.0010  178.7360  141.4860 O   0  0  0  0  0  0  0  0  0  0  0  0
  1 10  1  0  0  0  0
  1  2  1  0  0  0  0
  2  9  1  6  0  0  0
  2 14  1  0  0  0  0
  3  5  1  0  0  0  0
  4  1  1  0  0  0  0
  6  4  2  0  0  0  0
  6 11  1  0  0  0  0
  7  8  1  0  0  0  0
  9 13  2  0  0  0  0
 10  3  2  0  0  0  0
 11 10  1  0  0  0  0
 12  7  2  0  0  0  0
 13 12  1  0  0  0  0
 14  5  2  0  0  0  0
 14  7  1  0  0  0  0
 15 16  3  0  0  0  0
 16  6  1  0  0  0  0
 17 18  1  0  0  0  0
 18  4  1  0  0  0  0
 19 13  1  0  0  0  0
 20 19  1  0  0  0  0
 21 20  1  0  0  0  0
 21 22  1  1  0  0  0
 23 21  1  0  0  0  0
 24 23  1  0  0  0  0
 25 23  2  0  0  0  0
M  END
>  <MODEL>
4

>  <REMARK>
 VINA RESULT:      -7.5      2.616      5.329
  Name = 
  6 active torsions:
  status: ('A' for Active; 'I' for Inactive)
    1  A    between atoms: C_2  and  CA_21
    2  A    between atoms: C_5  and  C_22
    3  A    between atoms: C_6  and  C_15
    4  A    between atoms: C_6  and  C_23
    5  A    between atoms: C_10  and  C_11
    6  A    between atoms: C_15  and  CA_21
                            x       y       z     vdW  Elec       q    Type
                         _______ _______ _______ _____ _____    ______ ____

>  <TORSDO>
F 6

$$$$
=
 OpenBabel10262419543D

 25 27  0  0  1  0  0  0  0  0999 V2000
  187.3740  177.9380  145.5800 N   0  0  0  0  0  0  0  0  0  0  0  0
  186.2950  177.7370  144.6060 C   0  0  0  0  0  0  0  0  0  0  0  0
  185.8620  178.6410  147.2950 C   0  0  0  0  0  3  0  0  0  0  0  0
  188.6740  177.3550  145.5090 C   0  0  0  0  0  0  0  0  0  0  0  0
  184.8250  178.7430  146.3080 N   0  0  0  0  0  0  0  0  0  0  0  0
  189.3310  177.3470  146.6730 C   0  0  0  0  0  0  0  0  0  0  0  0
  183.9580  178.6280  144.0530 C   0  0  1  0  0  3  0  0  0  0  0  0
  182.5350  178.8390  144.4410 C   0  0  0  0  0  1  0  0  0  0  0  0
  186.6690  178.2120  143.2260 C   0  0  0  0  0  3  0  0  0  0  0  0
  187.0910  178.2870  146.9260 C   0  0  0  0  0  0  0  0  0  0  0  0
  188.4510  178.0820  148.0600 S   0  0  0  0  0  0  0  0  0  0  0  0
  184.3140  178.7300  142.7670 C   0  0  0  0  0  3  0  0  0  0  0  0
  185.7300  178.5980  142.3510 C   0  0  0  0  0  0  0  0  0  0  0  0
  185.0010  178.3860  145.0660 C   0  0  0  0  0  0  0  0  0  0  0  0
  191.6770  176.2770  146.9920 N   0  0  0  0  0  0  0  0  0  0  0  0
  190.6320  176.7530  146.8490 C   0  0  0  0  0  0  0  0  0  0  0  0
  190.1260  177.6800  143.5360 C   0  0  0  0  0  1  0  0  0  0  0  0
  189.2060  176.7180  144.2610 C   0  0  0  0  0  2  0  0  0  0  0  0
  186.1290  179.0030  140.9750 C   0  0  0  0  0  2  0  0  0  0  0  0
  185.4680  178.0960  139.9500 C   0  0  0  0  0  2  0  0  0  0  0  0
  184.9270  178.9130  138.7880 C   0  0  2  0  0  3  0  0  0  0  0  0
  184.3120  180.1280  139.2930 N   0  0  0  0  0  1  0  0  0  0  0  0
  183.9280  178.1290  137.9990 C   0  0  0  0  0  0  0  0  0  0  0  0
  182.5760  178.2620  138.2810 O   0  0  0  0  0  1  0  0  0  0  0  0
  184.3030  177.3580  137.0760 O   0  0  0  0  0  0  0  0  0  0  0  0
  1 10  1  0  0  0  0
  2 14  1  0  0  0  0
  2  1  1  0  0  0  0
  4  1  1  0  0  0  0
  4  6  2  0  0  0  0
  5  3  1  0  0  0  0
  6 16  1  0  0  0  0
  6 11  1  0  0  0  0
  7  8  1  1  0  0  0
  7 14  1  0  0  0  0
  9  2  2  0  0  0  0
 10  3  2  0  0  0  0
 10 11  1  0  0  0  0
 12  7  1  0  0  0  0
 13 12  2  0  0  0  0
 13  9  1  0  0  0  0
 14  5  2  0  0  0  0
 16 15  3  0  0  0  0
 17 18  1  0  0  0  0
 18  4  1  0  0  0  0
 19 13  1  0  0  0  0
 20 19  1  0  0  0  0
 21 22  1  1  0  0  0
 21 20  1  0  0  0  0
 23 24  1  0  0  0  0
 23 21  1  0  0  0  0
 25 23  2  0  0  0  0
M  END
>  <MODEL>
5

>  <REMARK>
 VINA RESULT:      -7.4      2.112      2.405
  Name = 
  6 active torsions:
  status: ('A' for Active; 'I' for Inactive)
    1  A    between atoms: C_2  and  CA_21
    2  A    between atoms: C_5  and  C_22
    3  A    between atoms: C_6  and  C_15
    4  A    between atoms: C_6  and  C_23
    5  A    between atoms: C_10  and  C_11
    6  A    between atoms: C_15  and  CA_21
                            x       y       z     vdW  Elec       q    Type
                         _______ _______ _______ _____ _____    ______ ____

>  <TORSDO>
F 6

$$$$
=
 OpenBabel10262419543D

 25 27  0  0  1  0  0  0  0  0999 V2000
  189.1880  177.6450  140.5290 N   0  0  0  0  0  0  0  0  0  0  0  0
  188.1870  178.2990  141.3800 C   0  0  2  0  0  3  0  0  0  0  0  0
  187.8490  177.8830  138.5610 C   0  0  0  0  0  3  0  0  0  0  0  0
  190.5730  177.5010  140.8380 C   0  0  0  0  0  0  0  0  0  0  0  0
  186.7370  178.2530  139.3900 N   0  0  0  0  0  0  0  0  0  0  0  0
  191.3450  177.2490  139.7760 C   0  0  0  0  0  0  0  0  0  0  0  0
  185.6550  178.6530  141.5150 C   0  0  0  0  0  0  0  0  0  0  0  0
  184.3980  179.1980  140.9290 C   0  0  0  0  0  1  0  0  0  0  0  0
  188.0410  177.6230  142.7200 C   0  0  0  0  0  3  0  0  0  0  0  0
  189.0110  177.5590  139.1230 C   0  0  0  0  0  0  0  0  0  0  0  0
  190.4770  177.1270  138.2050 S   0  0  0  0  0  0  0  0  0  0  0  0
  185.6880  178.3150  142.8090 C   0  0  0  0  0  3  0  0  0  0  0  0
  186.8960  177.7040  143.4110 C   0  0  0  0  0  0  0  0  0  0  0  0
  186.8440  178.4040  140.6810 C   0  0  0  0  0  0  0  0  0  0  0  0
  193.9310  177.0300  139.9000 N   0  0  0  0  0  0  0  0  0  0  0  0
  192.7790  177.1280  139.8440 C   0  0  0  0  0  0  0  0  0  0  0  0
  191.2490  176.3940  142.9420 C   0  0  0  0  0  1  0  0  0  0  0  0
  191.1200  177.7190  142.2170 C   0  0  0  0  0  2  0  0  0  0  0  0
  186.8060  177.0770  144.7580 C   0  0  0  0  0  2  0  0  0  0  0  0
  187.1090  178.1050  145.8350 C   0  0  0  0  0  2  0  0  0  0  0  0
  187.9420  177.4820  146.9450 C   0  0  2  0  0  3  0  0  0  0  0  0
  187.7770  178.2510  148.1660 N   0  0  0  0  0  1  0  0  0  0  0  0
  189.3880  177.4320  146.5690 C   0  0  0  0  0  0  0  0  0  0  0  0
  189.8620  178.2530  145.5550 O   0  0  0  0  0  0  0  0  0  0  0  0
  190.1800  176.6590  147.1710 O   0  0  0  0  0  1  0  0  0  0  0  0
  1  4  1  0  0  0  0
  1  2  1  0  0  0  0
  2  9  1  1  0  0  0
  3 10  2  0  0  0  0
  3  5  1  0  0  0  0
  4 18  1  0  0  0  0
  5 14  2  0  0  0  0
  6 16  1  0  0  0  0
  6  4  2  0  0  0  0
  7 12  2  0  0  0  0
  8  7  1  0  0  0  0
  9 13  2  0  0  0  0
 10  1  1  0  0  0  0
 11 10  1  0  0  0  0
 11  6  1  0  0  0  0
 12 13  1  0  0  0  0
 13 19  1  0  0  0  0
 14  2  1  0  0  0  0
 14  7  1  0  0  0  0
 16 15  3  0  0  0  0
 18 17  1  0  0  0  0
 19 20  1  0  0  0  0
 20 21  1  0  0  0  0
 21 22  1  1  0  0  0
 23 21  1  0  0  0  0
 23 25  1  0  0  0  0
 24 23  2  0  0  0  0
M  END
>  <MODEL>
6

>  <REMARK>
 VINA RESULT:      -7.4      3.663      6.320
  Name = 
  6 active torsions:
  status: ('A' for Active; 'I' for Inactive)
    1  A    between atoms: C_2  and  CA_21
    2  A    between atoms: C_5  and  C_22
    3  A    between atoms: C_6  and  C_15
    4  A    between atoms: C_6  and  C_23
    5  A    between atoms: C_10  and  C_11
    6  A    between atoms: C_15  and  CA_21
                            x       y       z     vdW  Elec       q    Type
                         _______ _______ _______ _____ _____    ______ ____

>  <TORSDO>
F 6

$$$$
=
 OpenBabel10262419543D

 25 27  0  0  1  0  0  0  0  0999 V2000
  186.5660  178.2790  140.4880 N   0  0  0  0  0  0  0  0  0  0  0  0
  186.5950  178.6910  141.8960 C   0  0  2  0  0  3  0  0  0  0  0  0
  184.2060  178.6300  140.3060 C   0  0  0  0  0  3  0  0  0  0  0  0
  187.6880  178.2530  139.6080 C   0  0  0  0  0  0  0  0  0  0  0  0
  184.1380  178.7540  141.7350 N   0  0  0  0  0  0  0  0  0  0  0  0
  187.3630  178.2380  138.3110 C   0  0  0  0  0  0  0  0  0  0  0  0
  185.0820  178.7330  143.9620 C   0  0  0  0  0  0  0  0  0  0  0  0
  183.8430  179.2060  144.6410 C   0  0  0  0  0  1  0  0  0  0  0  0
  187.5040  177.8250  142.7300 C   0  0  0  0  0  3  0  0  0  0  0  0
  185.3730  178.3670  139.7230 C   0  0  0  0  0  0  0  0  0  0  0  0
  185.5980  178.2350  137.9590 S   0  0  0  0  0  0  0  0  0  0  0  0
  186.0820  178.2260  144.6910 C   0  0  0  0  0  3  0  0  0  0  0  0
  187.3000  177.6800  144.0470 C   0  0  0  0  0  0  0  0  0  0  0  0
  185.2000  178.7370  142.4920 C   0  0  0  0  0  0  0  0  0  0  0  0
  189.1120  178.3040  136.3910 N   0  0  0  0  0  0  0  0  0  0  0  0
  188.3330  178.2730  137.2460 C   0  0  0  0  0  0  0  0  0  0  0  0
  189.7510  176.9710  140.0630 C   0  0  0  0  0  1  0  0  0  0  0  0
  189.1020  178.3400  140.0990 C   0  0  0  0  0  2  0  0  0  0  0  0
  188.2520  176.8670  144.8520 C   0  0  0  0  0  2  0  0  0  0  0  0
  189.3840  177.7430  145.3640 C   0  0  0  0  0  2  0  0  0  0  0  0
  190.7280  177.1910  144.9150 C   0  0  2  0  0  3  0  0  0  0  0  0
  191.6380  177.1480  146.0460 N   0  0  0  0  0  1  0  0  0  0  0  0
  191.3150  178.0280  143.8230 C   0  0  0  0  0  0  0  0  0  0  0  0
  191.9570  177.4120  142.7580 O   0  0  0  0  0  0  0  0  0  0  0  0
  191.2240  179.2840  143.8590 O   0  0  0  0  0  1  0  0  0  0  0  0
  1  2  1  0  0  0  0
  2 14  1  0  0  0  0
  2  9  1  1  0  0  0
  3  5  1  0  0  0  0
  4 18  1  0  0  0  0
  4  1  1  0  0  0  0
  5 14  2  0  0  0  0
  6  4  2  0  0  0  0
  7  8  1  0  0  0  0
  7 12  2  0  0  0  0
  9 13  2  0  0  0  0
 10  3  2  0  0  0  0
 10  1  1  0  0  0  0
 11  6  1  0  0  0  0
 11 10  1  0  0  0  0
 13 12  1  0  0  0  0
 13 19  1  0  0  0  0
 14  7  1  0  0  0  0
 15 16  3  0  0  0  0
 16  6  1  0  0  0  0
 17 18  1  0  0  0  0
 19 20  1  0  0  0  0
 21 20  1  0  0  0  0
 21 22  1  1  0  0  0
 23 25  1  0  0  0  0
 23 21  1  0  0  0  0
 24 23  2  0  0  0  0
M  END
>  <MODEL>
7

>  <REMARK>
 VINA RESULT:      -7.3      3.380      6.166
  Name = 
  6 active torsions:
  status: ('A' for Active; 'I' for Inactive)
    1  A    between atoms: C_2  and  CA_21
    2  A    between atoms: C_5  and  C_22
    3  A    between atoms: C_6  and  C_15
    4  A    between atoms: C_6  and  C_23
    5  A    between atoms: C_10  and  C_11
    6  A    between atoms: C_15  and  CA_21
                            x       y       z     vdW  Elec       q    Type
                         _______ _______ _______ _____ _____    ______ ____

>  <TORSDO>
F 6

$$$$
=
 OpenBabel10262419543D

 25 27  0  0  1  0  0  0  0  0999 V2000
  183.4520  178.7590  141.9770 N   0  0  0  0  0  0  0  0  0  0  0  0
  184.6200  178.9590  142.8440 C   0  0  2  0  0  3  0  0  0  0  0  0
  181.9230  178.8130  143.8160 C   0  0  0  0  0  3  0  0  0  0  0  0
  183.4080  179.0140  140.5750 C   0  0  0  0  0  0  0  0  0  0  0  0
  183.0370  178.7140  144.7160 N   0  0  0  0  0  0  0  0  0  0  0  0
  182.1710  179.1480  140.0840 C   0  0  0  0  0  0  0  0  0  0  0  0
  185.3870  178.4920  145.2420 C   0  0  0  0  0  0  0  0  0  0  0  0
  185.2190  178.6890  146.7090 C   0  0  0  0  0  1  0  0  0  0  0  0
  185.7950  178.1100  142.4320 C   0  0  0  0  0  3  0  0  0  0  0  0
  182.1340  178.7980  142.5020 C   0  0  0  0  0  0  0  0  0  0  0  0
  180.8430  178.9590  141.2840 S   0  0  0  0  0  0  0  0  0  0  0  0
  186.5470  178.0230  144.7670 C   0  0  0  0  0  3  0  0  0  0  0  0
  186.7270  177.7460  143.3230 C   0  0  0  0  0  0  0  0  0  0  0  0
  184.2750  178.7290  144.3040 C   0  0  0  0  0  0  0  0  0  0  0  0
  181.6630  179.7280  137.6040 N   0  0  0  0  0  0  0  0  0  0  0  0
  181.8900  179.4700  138.7080 C   0  0  0  0  0  0  0  0  0  0  0  0
  184.8640  178.0270  138.8380 C   0  0  0  0  0  1  0  0  0  0  0  0
  184.6440  179.2170  139.7510 C   0  0  0  0  0  2  0  0  0  0  0  0
  187.9070  176.9600  142.8710 C   0  0  0  0  0  2  0  0  0  0  0  0
  188.8370  176.6890  144.0420 C   0  0  0  0  0  2  0  0  0  0  0  0
  190.1220  177.4860  143.8970 C   0  0  2  0  0  3  0  0  0  0  0  0
  190.3980  177.7110  142.4890 N   0  0  0  0  0  1  0  0  0  0  0  0
  191.2730  176.7730  144.5320 C   0  0  0  0  0  0  0  0  0  0  0  0
  191.8150  177.2590  145.7120 O   0  0  0  0  0  1  0  0  0  0  0  0
  191.7470  175.7290  144.0080 O   0  0  0  0  0  0  0  0  0  0  0  0
  1 10  1  0  0  0  0
  1  2  1  0  0  0  0
  2  9  1  6  0  0  0
  2 14  1  0  0  0  0
  3  5  1  0  0  0  0
  4  1  1  0  0  0  0
  6  4  2  0  0  0  0
  6 11  1  0  0  0  0
  7  8  1  0  0  0  0
  9 13  2  0  0  0  0
 10  3  2  0  0  0  0
 11 10  1  0  0  0  0
 12  7  2  0  0  0  0
 13 12  1  0  0  0  0
 14  5  2  0  0  0  0
 14  7  1  0  0  0  0
 15 16  3  0  0  0  0
 16  6  1  0  0  0  0
 17 18  1  0  0  0  0
 18  4  1  0  0  0  0
 19 13  1  0  0  0  0
 19 20  1  0  0  0  0
 21 22  1  6  0  0  0
 21 20  1  0  0  0  0
 21 23  1  0  0  0  0
 23 24  1  0  0  0  0
 25 23  2  0  0  0  0
M  END
>  <MODEL>
8

>  <REMARK>
 VINA RESULT:      -7.1      4.138      6.763
  Name = 
  6 active torsions:
  status: ('A' for Active; 'I' for Inactive)
    1  A    between atoms: C_2  and  CA_21
    2  A    between atoms: C_5  and  C_22
    3  A    between atoms: C_6  and  C_15
    4  A    between atoms: C_6  and  C_23
    5  A    between atoms: C_10  and  C_11
    6  A    between atoms: C_15  and  CA_21
                            x       y       z     vdW  Elec       q    Type
                         _______ _______ _______ _____ _____    ______ ____

>  <TORSDO>
F 6

$$$$
=
 OpenBabel10262419543D

 25 27  0  0  1  0  0  0  0  0999 V2000
  187.6220  177.8970  145.5820 N   0  0  0  0  0  0  0  0  0  0  0  0
  186.5740  177.6950  144.5750 C   0  0  0  0  0  0  0  0  0  0  0  0
  186.0490  178.5090  147.2770 C   0  0  0  0  0  3  0  0  0  0  0  0
  188.9400  177.3520  145.5290 C   0  0  0  0  0  0  0  0  0  0  0  0
  185.0340  178.6110  146.2660 N   0  0  0  0  0  0  0  0  0  0  0  0
  189.5680  177.3280  146.7090 C   0  0  0  0  0  0  0  0  0  0  0  0
  184.2290  178.5380  143.9870 C   0  0  1  0  0  3  0  0  0  0  0  0
  182.7910  178.6990  144.3440 C   0  0  0  0  0  1  0  0  0  0  0  0
  186.9700  178.2200  143.2190 C   0  0  0  0  0  3  0  0  0  0  0  0
  187.2960  178.2000  146.9300 C   0  0  0  0  0  0  0  0  0  0  0  0
  188.6320  177.9990  148.0930 S   0  0  0  0  0  0  0  0  0  0  0  0
  184.6140  178.6870  142.7150 C   0  0  0  0  0  3  0  0  0  0  0  0
  186.0430  178.6050  142.3320 C   0  0  0  0  0  0  0  0  0  0  0  0
  185.2520  178.2950  145.0190 C   0  0  0  0  0  0  0  0  0  0  0  0
  191.9340  176.3150  147.0570 N   0  0  0  0  0  0  0  0  0  0  0  0
  190.8800  176.7650  146.9020 C   0  0  0  0  0  0  0  0  0  0  0  0
  190.4270  177.7750  143.6000 C   0  0  0  0  0  1  0  0  0  0  0  0
  189.5210  176.7650  144.2780 C   0  0  0  0  0  2  0  0  0  0  0  0
  186.4650  179.0600  140.9790 C   0  0  0  0  0  2  0  0  0  0  0  0
  186.9380  177.8760  140.1520 C   0  0  0  0  0  2  0  0  0  0  0  0
  186.9260  178.2220  138.6720 C   0  0  2  0  0  3  0  0  0  0  0  0
  186.2390  177.1770  137.9340 N   0  0  0  0  0  1  0  0  0  0  0  0
  188.3170  178.3840  138.1460 C   0  0  0  0  0  0  0  0  0  0  0  0
  188.6280  179.4810  137.3580 O   0  0  0  0  0  0  0  0  0  0  0  0
  189.2080  177.5370  138.4220 O   0  0  0  0  0  1  0  0  0  0  0  0
  1 10  1  0  0  0  0
  2 14  1  0  0  0  0
  2  1  1  0  0  0  0
  4  1  1  0  0  0  0
  4  6  2  0  0  0  0
  5  3  1  0  0  0  0
  6 16  1  0  0  0  0
  6 11  1  0  0  0  0
  7  8  1  1  0  0  0
  7 14  1  0  0  0  0
  9  2  2  0  0  0  0
 10  3  2  0  0  0  0
 10 11  1  0  0  0  0
 12  7  1  0  0  0  0
 13 12  2  0  0  0  0
 13  9  1  0  0  0  0
 14  5  2  0  0  0  0
 16 15  3  0  0  0  0
 17 18  1  0  0  0  0
 18  4  1  0  0  0  0
 19 13  1  0  0  0  0
 20 19  1  0  0  0  0
 21 22  1  6  0  0  0
 21 20  1  0  0  0  0
 23 25  1  0  0  0  0
 23 21  1  0  0  0  0
 24 23  2  0  0  0  0
M  END
>  <MODEL>
9

>  <REMARK>
 VINA RESULT:      -7.0      1.127      1.162
  Name = 
  6 active torsions:
  status: ('A' for Active; 'I' for Inactive)
    1  A    between atoms: C_2  and  CA_21
    2  A    between atoms: C_5  and  C_22
    3  A    between atoms: C_6  and  C_15
    4  A    between atoms: C_6  and  C_23
    5  A    between atoms: C_10  and  C_11
    6  A    between atoms: C_15  and  CA_21
                            x       y       z     vdW  Elec       q    Type
                         _______ _______ _______ _____ _____    ______ ____

>  <TORSDO>
F 6

$$$$
