=
 OpenBabel10262421013D

 32 36  0  0  1  0  0  0  0  0999 V2000
  187.3820  178.4180  139.2310 C   0  0  0  0  0  0  0  0  0  0  0  0
  187.2900  178.7590  141.7180 C   0  0  1  0  0  3  0  0  0  0  0  0
  186.9920  178.8460  138.1120 O   0  0  0  0  0  0  0  0  0  0  0  0
  186.5970  178.6280  140.4270 N   0  0  0  0  0  0  0  0  0  0  0  0
  186.6520  177.7960  142.7400 C   0  0  1  0  0  3  0  0  0  0  0  0
  191.3470  177.5250  144.3510 C   0  0  0  0  0  2  0  0  0  0  0  0
  188.8080  178.5050  141.5910 C   0  0  2  0  0  3  0  0  0  0  0  0
  189.2680  177.0710  145.1320 C   0  0  0  0  0  2  0  0  0  0  0  0
  188.5770  177.3130  143.7920 C   0  0  1  0  0  3  0  0  0  0  0  0
  185.1310  178.8330  140.4400 C   0  0  2  0  0  3  0  0  0  0  0  0
  187.3010  177.8650  143.9870 O   0  0  0  0  0  0  0  0  0  0  0  0
  184.4670  177.9690  141.5250 C   0  0  0  0  0  2  0  0  0  0  0  0
  189.0390  177.3580  140.7140 N   0  0  0  0  0  2  0  0  0  0  0  0
  188.7370  177.7610  139.3380 C   0  0  1  0  0  3  0  0  0  0  0  0
  189.4300  178.2900  142.9740 C   0  0  1  0  0  3  0  0  0  0  0  0
  185.1580  178.0930  142.8850 C   0  0  2  0  0  3  0  0  0  0  0  0
  190.5430  176.5130  144.9130 O   0  0  0  0  0  0  0  0  0  0  0  0
  190.8870  177.8350  142.9240 C   0  0  0  0  0  2  0  0  0  0  0  0
  190.1280  174.8740  137.2420 C   0  0  0  0  0  0  0  0  0  0  0  0
  191.7150  174.1280  136.8440 S   0  0  0  0  0  1  0  0  0  0  0  0
  187.7110  174.9490  137.0330 C   0  0  0  0  0  3  0  0  0  0  0  0
  188.8430  176.5780  138.4210 C   0  0  0  0  0  0  0  0  0  0  0  0
  188.9340  174.3600  136.7020 C   0  0  0  0  0  0  0  0  0  0  0  0
  187.6660  176.0510  137.8850 C   0  0  0  0  0  3  0  0  0  0  0  0
  190.0820  175.9870  138.0990 C   0  0  0  0  0  0  0  0  0  0  0  0
  191.2620  176.5020  138.6300 O   0  0  0  0  0  1  0  0  0  0  0  0
  188.1080  172.1750  136.3410 O   0  0  0  0  0  1  0  0  0  0  0  0
  188.9310  173.1660  135.8050 C   0  0  0  0  0  2  0  0  0  0  0  0
  184.9020  179.4610  143.5140 C   0  0  0  0  0  2  0  0  0  0  0  0
  184.0060  179.3380  144.5750 O   0  0  0  0  0  1  0  0  0  0  0  0
  184.4400  178.5640  139.1020 C   0  0  0  0  0  2  0  0  0  0  0  0
  183.6330  179.6430  138.7320 O   0  0  0  0  0  1  0  0  0  0  0  0
  1 14  1  0  0  0  0
  1  4  1  0  0  0  0
  2  4  1  6  0  0  0
  2  5  1  0  0  0  0
  3  1  2  0  0  0  0
  4 10  1  0  0  0  0
  5 16  1  0  0  0  0
  5 11  1  1  0  0  0
  6 17  1  0  0  0  0
  7 13  1  6  0  0  0
  7  2  1  0  0  0  0
  7 15  1  0  0  0  0
  9 11  1  0  0  0  0
  9  8  1  1  0  0  0
 10 31  1  6  0  0  0
 10 12  1  0  0  0  0
 12 16  1  0  0  0  0
 14 22  1  6  0  0  0
 14 13  1  0  0  0  0
 15 18  1  6  0  0  0
 15  9  1  0  0  0  0
 16 29  1  6  0  0  0
 17  8  1  0  0  0  0
 18  6  1  0  0  0  0
 19 25  1  0  0  0  0
 20 19  1  0  0  0  0
 21 24  2  0  0  0  0
 23 21  1  0  0  0  0
 23 19  2  0  0  0  0
 24 22  1  0  0  0  0
 25 22  2  0  0  0  0
 25 26  1  0  0  0  0
 28 27  1  0  0  0  0
 28 23  1  0  0  0  0
 29 30  1  0  0  0  0
 32 31  1  0  0  0  0
M  END
>  <MODEL>
1

>  <REMARK>
 VINA RESULT:      -7.7      0.000      0.000
  Name = 
  4 active torsions:
  status: ('A' for Active; 'I' for Inactive)
    1  A    between atoms: C_13  and  C_29
    2  A    between atoms: CA_14  and  C_21
    3  A    between atoms: C_16  and  CA_27
    4  A    between atoms: C_19  and  C_26
                            x       y       z     vdW  Elec       q    Type
                         _______ _______ _______ _____ _____    ______ ____

>  <TORSDO>
F 4

$$$$
=
 OpenBabel10262421013D

 32 36  0  0  1  0  0  0  0  0999 V2000
  186.0100  179.1010  142.0130 C   0  0  0  0  0  0  0  0  0  0  0  0
  188.3280  178.2100  141.6470 C   0  0  1  0  0  3  0  0  0  0  0  0
  185.2630  179.7600  142.7870 O   0  0  0  0  0  0  0  0  0  0  0  0
  187.1540  178.3760  142.5170 N   0  0  0  0  0  0  0  0  0  0  0  0
  188.7300  176.7210  141.6100 C   0  0  1  0  0  3  0  0  0  0  0  0
  189.9450  177.8960  136.9350 C   0  0  0  0  0  2  0  0  0  0  0  0
  188.0780  178.7510  140.2220 C   0  0  2  0  0  3  0  0  0  0  0  0
  190.4070  176.2620  138.4370 C   0  0  0  0  0  2  0  0  0  0  0  0
  189.3780  176.7400  139.4590 C   0  0  1  0  0  3  0  0  0  0  0  0
  187.2800  177.8710  143.9020 C   0  0  2  0  0  3  0  0  0  0  0  0
  189.8360  176.5070  140.7660 O   0  0  0  0  0  0  0  0  0  0  0  0
  187.7870  176.4190  143.9120 C   0  0  0  0  0  2  0  0  0  0  0  0
  186.7410  178.3610  139.7800 N   0  0  0  0  0  2  0  0  0  0  0  0
  185.7590  179.1540  140.5260 C   0  0  1  0  0  3  0  0  0  0  0  0
  189.1590  178.2440  139.2620 C   0  0  1  0  0  3  0  0  0  0  0  0
  189.0180  176.2150  143.0250 C   0  0  2  0  0  3  0  0  0  0  0  0
  189.9250  176.5010  137.1350 O   0  0  0  0  0  0  0  0  0  0  0  0
  188.8740  178.5690  137.7970 C   0  0  0  0  0  2  0  0  0  0  0  0
  182.2150  178.9840  139.0850 C   0  0  0  0  0  0  0  0  0  0  0  0
  181.1250  179.9630  138.0440 S   0  0  0  0  0  1  0  0  0  0  0  0
  182.6560  177.0000  140.4130 C   0  0  0  0  0  3  0  0  0  0  0  0
  184.3700  178.6970  140.1900 C   0  0  0  0  0  0  0  0  0  0  0  0
  181.7890  177.7500  139.6140 C   0  0  0  0  0  0  0  0  0  0  0  0
  183.9360  177.4710  140.7010 C   0  0  0  0  0  3  0  0  0  0  0  0
  183.5050  179.4590  139.3780 C   0  0  0  0  0  0  0  0  0  0  0  0
  183.9270  180.6810  138.8610 O   0  0  0  0  0  1  0  0  0  0  0  0
  179.7910  176.8570  140.5030 O   0  0  0  0  0  1  0  0  0  0  0  0
  180.4370  177.1940  139.3130 C   0  0  0  0  0  2  0  0  0  0  0  0
  190.2530  176.8770  143.6320 C   0  0  0  0  0  2  0  0  0  0  0  0
  191.2780  175.9410  143.7650 O   0  0  0  0  0  1  0  0  0  0  0  0
  185.9960  177.9530  144.7290 C   0  0  0  0  0  2  0  0  0  0  0  0
  186.2120  178.6530  145.9190 O   0  0  0  0  0  1  0  0  0  0  0  0
  1  4  1  0  0  0  0
  1  3  2  0  0  0  0
  2  4  1  1  0  0  0
  4 10  1  0  0  0  0
  5 11  1  6  0  0  0
  5  2  1  0  0  0  0
  5 16  1  0  0  0  0
  6 17  1  0  0  0  0
  6 18  1  0  0  0  0
  7 13  1  6  0  0  0
  7  2  1  0  0  0  0
  9  8  1  6  0  0  0
  9 11  1  0  0  0  0
 10 12  1  0  0  0  0
 10 31  1  6  0  0  0
 13 14  1  0  0  0  0
 14 22  1  1  0  0  0
 14  1  1  0  0  0  0
 15 18  1  6  0  0  0
 15  9  1  0  0  0  0
 15  7  1  0  0  0  0
 16 29  1  1  0  0  0
 16 12  1  0  0  0  0
 17  8  1  0  0  0  0
 19 25  2  0  0  0  0
 19 23  1  0  0  0  0
 20 19  1  0  0  0  0
 21 24  1  0  0  0  0
 22 24  2  0  0  0  0
 23 21  2  0  0  0  0
 25 22  1  0  0  0  0
 26 25  1  0  0  0  0
 28 23  1  0  0  0  0
 28 27  1  0  0  0  0
 29 30  1  0  0  0  0
 31 32  1  0  0  0  0
M  END
>  <MODEL>
2

>  <REMARK>
 VINA RESULT:      -7.6      2.983      6.372
  Name = 
  4 active torsions:
  status: ('A' for Active; 'I' for Inactive)
    1  A    between atoms: C_13  and  C_29
    2  A    between atoms: CA_14  and  C_21
    3  A    between atoms: C_16  and  CA_27
    4  A    between atoms: C_19  and  C_26
                            x       y       z     vdW  Elec       q    Type
                         _______ _______ _______ _____ _____    ______ ____

>  <TORSDO>
F 4

$$$$
=
 OpenBabel10262421013D

 32 36  0  0  1  0  0  0  0  0999 V2000
  185.6930  178.8540  139.8540 C   0  0  0  0  0  0  0  0  0  0  0  0
  188.1100  178.4070  140.3660 C   0  0  1  0  0  3  0  0  0  0  0  0
  184.6930  179.5740  140.1220 O   0  0  0  0  0  0  0  0  0  0  0  0
  186.7320  178.6240  140.8320 N   0  0  0  0  0  0  0  0  0  0  0  0
  188.6750  177.1290  141.0200 C   0  0  1  0  0  3  0  0  0  0  0  0
  190.9760  176.7510  136.6300 C   0  0  0  0  0  2  0  0  0  0  0  0
  188.1980  178.3260  138.8260 C   0  0  2  0  0  3  0  0  0  0  0  0
  191.1950  175.9150  138.7250 C   0  0  0  0  0  2  0  0  0  0  0  0
  189.8790  176.5010  139.2300 C   0  0  1  0  0  3  0  0  0  0  0  0
  186.5330  178.6980  142.2960 C   0  0  2  0  0  3  0  0  0  0  0  0
  189.9860  176.8640  140.5830 O   0  0  0  0  0  0  0  0  0  0  0  0
  187.1810  177.4930  142.9980 C   0  0  0  0  0  2  0  0  0  0  0  0
  187.0850  177.5260  138.3160 N   0  0  0  0  0  2  0  0  0  0  0  0
  185.8540  178.3070  138.4570 C   0  0  1  0  0  3  0  0  0  0  0  0
  189.5500  177.7460  138.3990 C   0  0  1  0  0  3  0  0  0  0  0  0
  188.6220  177.2470  142.5450 C   0  0  2  0  0  3  0  0  0  0  0  0
  191.0630  175.5550  137.3700 O   0  0  0  0  0  0  0  0  0  0  0  0
  189.6400  177.4470  136.9040 C   0  0  0  0  0  2  0  0  0  0  0  0
  183.3230  176.2990  136.4000 C   0  0  0  0  0  0  0  0  0  0  0  0
  183.0480  175.8060  134.6930 S   0  0  0  0  0  1  0  0  0  0  0  0
  182.6680  176.2940  138.7370 C   0  0  0  0  0  3  0  0  0  0  0  0
  184.6700  177.4750  138.0580 C   0  0  0  0  0  0  0  0  0  0  0  0
  182.4290  175.9090  137.4160 C   0  0  0  0  0  0  0  0  0  0  0  0
  183.7790  177.0730  139.0560 C   0  0  0  0  0  3  0  0  0  0  0  0
  184.4420  177.0860  136.7210 C   0  0  0  0  0  0  0  0  0  0  0  0
  185.3250  177.4780  135.7190 O   0  0  0  0  0  1  0  0  0  0  0  0
  181.5950  173.7080  137.2070 O   0  0  0  0  0  1  0  0  0  0  0  0
  181.2390  175.0550  137.1260 C   0  0  0  0  0  2  0  0  0  0  0  0
  189.5600  178.3310  143.0710 C   0  0  0  0  0  2  0  0  0  0  0  0
  189.6450  178.2550  144.4600 O   0  0  0  0  0  1  0  0  0  0  0  0
  185.0710  178.7990  142.7350 C   0  0  0  0  0  2  0  0  0  0  0  0
  184.9080  179.7980  143.6990 O   0  0  0  0  0  1  0  0  0  0  0  0
  1  3  2  0  0  0  0
  1  4  1  0  0  0  0
  2  4  1  6  0  0  0
  2  5  1  0  0  0  0
  4 10  1  0  0  0  0
  5 11  1  1  0  0  0
  5 16  1  0  0  0  0
  6 18  1  0  0  0  0
  6 17  1  0  0  0  0
  7 13  1  1  0  0  0
  7  2  1  0  0  0  0
  9  8  1  6  0  0  0
  9 11  1  0  0  0  0
 10 31  1  6  0  0  0
 10 12  1  0  0  0  0
 13 14  1  0  0  0  0
 14 22  1  1  0  0  0
 14  1  1  0  0  0  0
 15 18  1  6  0  0  0
 15  7  1  0  0  0  0
 15  9  1  0  0  0  0
 16 12  1  0  0  0  0
 16 29  1  6  0  0  0
 17  8  1  0  0  0  0
 19 25  2  0  0  0  0
 19 23  1  0  0  0  0
 20 19  1  0  0  0  0
 21 24  1  0  0  0  0
 22 24  2  0  0  0  0
 23 21  2  0  0  0  0
 25 22  1  0  0  0  0
 26 25  1  0  0  0  0
 28 27  1  0  0  0  0
 28 23  1  0  0  0  0
 29 30  1  0  0  0  0
 31 32  1  0  0  0  0
M  END
>  <MODEL>
3

>  <REMARK>
 VINA RESULT:      -6.6      2.832      5.226
  Name = 
  4 active torsions:
  status: ('A' for Active; 'I' for Inactive)
    1  A    between atoms: C_13  and  C_29
    2  A    between atoms: CA_14  and  C_21
    3  A    between atoms: C_16  and  CA_27
    4  A    between atoms: C_19  and  C_26
                            x       y       z     vdW  Elec       q    Type
                         _______ _______ _______ _____ _____    ______ ____

>  <TORSDO>
F 4

$$$$
=
 OpenBabel10262421013D

 32 36  0  0  1  0  0  0  0  0999 V2000
  183.3060  179.0030  140.8920 C   0  0  0  0  0  0  0  0  0  0  0  0
  185.2580  179.1360  142.4660 C   0  0  1  0  0  3  0  0  0  0  0  0
  182.1970  179.5090  140.5720 O   0  0  0  0  0  0  0  0  0  0  0  0
  183.8040  179.0900  142.2460 N   0  0  0  0  0  0  0  0  0  0  0  0
  185.6500  178.0740  143.5130 C   0  0  1  0  0  3  0  0  0  0  0  0
  189.7310  177.8170  140.6860 C   0  0  0  0  0  2  0  0  0  0  0  0
  186.0510  178.9400  141.1550 C   0  0  2  0  0  3  0  0  0  0  0  0
  189.0940  177.2370  142.7820 C   0  0  0  0  0  2  0  0  0  0  0  0
  187.6190  177.5660  142.5580 C   0  0  1  0  0  3  0  0  0  0  0  0
  182.9490  179.2470  143.4430 C   0  0  2  0  0  3  0  0  0  0  0  0
  187.0400  178.0610  143.7380 O   0  0  0  0  0  0  0  0  0  0  0  0
  183.3810  178.2770  144.5560 C   0  0  0  0  0  2  0  0  0  0  0  0
  185.4330  177.8770  140.3650 N   0  0  0  0  0  2  0  0  0  0  0  0
  184.1700  178.3820  139.8210 C   0  0  1  0  0  3  0  0  0  0  0  0
  187.5200  178.6320  141.4610 C   0  0  1  0  0  3  0  0  0  0  0  0
  184.8890  178.3110  144.8190 C   0  0  2  0  0  3  0  0  0  0  0  0
  189.6530  176.7390  141.5890 O   0  0  0  0  0  0  0  0  0  0  0  0
  188.3290  178.2290  140.2300 C   0  0  0  0  0  2  0  0  0  0  0  0
  183.0010  175.9200  137.1300 C   0  0  0  0  0  0  0  0  0  0  0  0
  183.3450  175.5250  135.4100 S   0  0  0  0  0  1  0  0  0  0  0  0
  181.7900  175.5140  139.1950 C   0  0  0  0  0  3  0  0  0  0  0  0
  183.4430  177.2820  139.1040 C   0  0  0  0  0  0  0  0  0  0  0  0
  182.0350  175.1970  137.8560 C   0  0  0  0  0  0  0  0  0  0  0  0
  182.4880  176.5500  139.8140 C   0  0  0  0  0  3  0  0  0  0  0  0
  183.7020  176.9660  137.7550 C   0  0  0  0  0  0  0  0  0  0  0  0
  184.6540  177.6870  137.0380 O   0  0  0  0  0  1  0  0  0  0  0  0
  180.1880  173.7360  138.0460 O   0  0  0  0  0  1  0  0  0  0  0  0
  181.2810  174.0640  137.2430 C   0  0  0  0  0  2  0  0  0  0  0  0
  185.3030  179.6140  145.4980 C   0  0  0  0  0  2  0  0  0  0  0  0
  185.6290  179.3740  146.8320 O   0  0  0  0  0  1  0  0  0  0  0  0
  181.4530  179.0680  143.1840 C   0  0  0  0  0  2  0  0  0  0  0  0
  180.7950  178.6280  144.3350 O   0  0  0  0  0  1  0  0  0  0  0  0
  1  4  1  0  0  0  0
  2  4  1  6  0  0  0
  2  5  1  0  0  0  0
  3  1  2  0  0  0  0
  4 10  1  0  0  0  0
  5 11  1  1  0  0  0
  5 16  1  0  0  0  0
  6 17  1  0  0  0  0
  7 13  1  1  0  0  0
  7 15  1  0  0  0  0
  7  2  1  0  0  0  0
  9  8  1  1  0  0  0
  9 11  1  0  0  0  0
 10 31  1  6  0  0  0
 10 12  1  0  0  0  0
 12 16  1  0  0  0  0
 14 22  1  1  0  0  0
 14 13  1  0  0  0  0
 14  1  1  0  0  0  0
 15 18  1  6  0  0  0
 15  9  1  0  0  0  0
 16 29  1  6  0  0  0
 17  8  1  0  0  0  0
 18  6  1  0  0  0  0
 19 25  2  0  0  0  0
 19 23  1  0  0  0  0
 20 19  1  0  0  0  0
 21 24  1  0  0  0  0
 22 24  2  0  0  0  0
 23 21  2  0  0  0  0
 25 22  1  0  0  0  0
 26 25  1  0  0  0  0
 28 23  1  0  0  0  0
 28 27  1  0  0  0  0
 29 30  1  0  0  0  0
 31 32  1  0  0  0  0
M  END
>  <MODEL>
4

>  <REMARK>
 VINA RESULT:      -6.6      3.306      4.899
  Name = 
  4 active torsions:
  status: ('A' for Active; 'I' for Inactive)
    1  A    between atoms: C_13  and  C_29
    2  A    between atoms: CA_14  and  C_21
    3  A    between atoms: C_16  and  CA_27
    4  A    between atoms: C_19  and  C_26
                            x       y       z     vdW  Elec       q    Type
                         _______ _______ _______ _____ _____    ______ ____

>  <TORSDO>
F 4

$$$$
=
 OpenBabel10262421013D

 32 36  0  0  1  0  0  0  0  0999 V2000
  185.6650  178.9430  139.2390 C   0  0  0  0  0  0  0  0  0  0  0  0
  186.4480  178.9410  141.6250 C   0  0  1  0  0  3  0  0  0  0  0  0
  184.9460  179.5290  138.3850 O   0  0  0  0  0  0  0  0  0  0  0  0
  185.3500  179.0030  140.6480 N   0  0  0  0  0  0  0  0  0  0  0  0
  186.1340  177.8610  142.6800 C   0  0  1  0  0  3  0  0  0  0  0  0
  191.0680  177.2750  142.5190 C   0  0  0  0  0  2  0  0  0  0  0  0
  187.8120  178.6760  140.9500 C   0  0  2  0  0  3  0  0  0  0  0  0
  189.3540  176.7610  143.9100 C   0  0  0  0  0  2  0  0  0  0  0  0
  188.2660  177.1990  142.9320 C   0  0  1  0  0  3  0  0  0  0  0  0
  183.9930  179.2340  141.1930 C   0  0  2  0  0  3  0  0  0  0  0  0
  187.1720  177.7450  143.6230 O   0  0  0  0  0  0  0  0  0  0  0  0
  183.6830  178.2430  142.3280 C   0  0  0  0  0  2  0  0  0  0  0  0
  187.6540  177.6560  139.9150 N   0  0  0  0  0  2  0  0  0  0  0  0
  186.9280  178.2510  138.7890 C   0  0  1  0  0  3  0  0  0  0  0  0
  188.8520  178.2610  141.9960 C   0  0  1  0  0  3  0  0  0  0  0  0
  184.8020  178.1650  143.3690 C   0  0  2  0  0  3  0  0  0  0  0  0
  190.4380  176.2130  143.1970 O   0  0  0  0  0  0  0  0  0  0  0  0
  190.1720  177.7880  141.3890 C   0  0  0  0  0  2  0  0  0  0  0  0
  187.3070  175.7310  135.9310 C   0  0  0  0  0  0  0  0  0  0  0  0
  188.5820  175.1210  134.8190 S   0  0  0  0  0  1  0  0  0  0  0  0
  185.0190  175.7120  136.7420 C   0  0  0  0  0  3  0  0  0  0  0  0
  186.6370  177.2020  137.7560 C   0  0  0  0  0  0  0  0  0  0  0  0
  185.9920  175.2320  135.8620 C   0  0  0  0  0  0  0  0  0  0  0  0
  185.3390  176.6910  137.6810 C   0  0  0  0  0  3  0  0  0  0  0  0
  187.6280  176.7200  136.8760 C   0  0  0  0  0  0  0  0  0  0  0  0
  188.9260  177.2190  136.9430 O   0  0  0  0  0  1  0  0  0  0  0  0
  185.5130  172.9390  135.5480 O   0  0  0  0  0  1  0  0  0  0  0  0
  185.6090  174.1660  134.8890 C   0  0  0  0  0  2  0  0  0  0  0  0
  184.8670  179.4390  144.2080 C   0  0  0  0  0  2  0  0  0  0  0  0
  183.9350  179.3760  145.2430 O   0  0  0  0  0  1  0  0  0  0  0  0
  182.8720  179.1660  140.1550 C   0  0  0  0  0  2  0  0  0  0  0  0
  182.2630  177.9080  140.1590 O   0  0  0  0  0  1  0  0  0  0  0  0
  1  4  1  0  0  0  0
  2  4  1  6  0  0  0
  2  5  1  0  0  0  0
  3  1  2  0  0  0  0
  4 10  1  0  0  0  0
  5 16  1  0  0  0  0
  5 11  1  1  0  0  0
  6 17  1  0  0  0  0
  7 13  1  6  0  0  0
  7  2  1  0  0  0  0
  7 15  1  0  0  0  0
  9 11  1  0  0  0  0
  9  8  1  1  0  0  0
 10 31  1  6  0  0  0
 10 12  1  0  0  0  0
 12 16  1  0  0  0  0
 14 22  1  6  0  0  0
 14  1  1  0  0  0  0
 14 13  1  0  0  0  0
 15 18  1  6  0  0  0
 15  9  1  0  0  0  0
 16 29  1  6  0  0  0
 17  8  1  0  0  0  0
 18  6  1  0  0  0  0
 19 25  1  0  0  0  0
 20 19  1  0  0  0  0
 21 24  2  0  0  0  0
 23 19  2  0  0  0  0
 23 21  1  0  0  0  0
 24 22  1  0  0  0  0
 25 26  1  0  0  0  0
 25 22  2  0  0  0  0
 28 27  1  0  0  0  0
 28 23  1  0  0  0  0
 29 30  1  0  0  0  0
 31 32  1  0  0  0  0
M  END
>  <MODEL>
5

>  <REMARK>
 VINA RESULT:      -6.5      1.808      2.092
  Name = 
  4 active torsions:
  status: ('A' for Active; 'I' for Inactive)
    1  A    between atoms: C_13  and  C_29
    2  A    between atoms: CA_14  and  C_21
    3  A    between atoms: C_16  and  CA_27
    4  A    between atoms: C_19  and  C_26
                            x       y       z     vdW  Elec       q    Type
                         _______ _______ _______ _____ _____    ______ ____

>  <TORSDO>
F 4

$$$$
=
 OpenBabel10262421013D

 32 36  0  0  1  0  0  0  0  0999 V2000
  184.8350  178.2590  138.3390 C   0  0  0  0  0  0  0  0  0  0  0  0
  184.7650  176.2270  136.8660 C   0  0  1  0  0  3  0  0  0  0  0  0
  185.3040  179.4210  138.4800 O   0  0  0  0  0  0  0  0  0  0  0  0
  185.5410  177.2560  137.5750 N   0  0  0  0  0  0  0  0  0  0  0  0
  185.3220  174.8330  137.2200 C   0  0  1  0  0  3  0  0  0  0  0  0
  180.5270  173.5900  136.8000 C   0  0  0  0  0  2  0  0  0  0  0  0
  183.2550  176.3160  137.1820 C   0  0  2  0  0  3  0  0  0  0  0  0
  182.5430  172.5550  136.7890 C   0  0  0  0  0  2  0  0  0  0  0  0
  183.3250  173.8040  137.1920 C   0  0  1  0  0  3  0  0  0  0  0  0
  187.0040  177.2470  137.3570 C   0  0  2  0  0  3  0  0  0  0  0  0
  184.5920  173.8100  136.5850 O   0  0  0  0  0  0  0  0  0  0  0  0
  187.5840  175.8420  137.5940 C   0  0  0  0  0  2  0  0  0  0  0  0
  183.0700  176.5620  138.6110 N   0  0  0  0  0  2  0  0  0  0  0  0
  183.4680  177.9430  138.8960 C   0  0  1  0  0  3  0  0  0  0  0  0
  182.5400  175.0380  136.7330 C   0  0  1  0  0  3  0  0  0  0  0  0
  186.8060  174.7480  136.8580 C   0  0  2  0  0  3  0  0  0  0  0  0
  181.2800  172.5670  137.4110 O   0  0  0  0  0  0  0  0  0  0  0  0
  181.0840  174.9620  137.1880 C   0  0  0  0  0  2  0  0  0  0  0  0
  182.2130  178.8080  142.4100 C   0  0  0  0  0  0  0  0  0  0  0  0
  180.6870  179.3000  143.2230 S   0  0  0  0  0  1  0  0  0  0  0  0
  184.5750  178.2520  142.4960 C   0  0  0  0  0  3  0  0  0  0  0  0
  183.4100  178.1990  140.3740 C   0  0  0  0  0  0  0  0  0  0  0  0
  183.4020  178.6450  143.1470 C   0  0  0  0  0  0  0  0  0  0  0  0
  184.5790  178.0320  141.1200 C   0  0  0  0  0  3  0  0  0  0  0  0
  182.2190  178.5890  141.0210 C   0  0  0  0  0  0  0  0  0  0  0  0
  181.0470  178.7550  140.2890 O   0  0  0  0  0  1  0  0  0  0  0  0
  184.6750  179.3780  144.9970 O   0  0  0  0  0  1  0  0  0  0  0  0
  183.4400  178.8450  144.6250 C   0  0  0  0  0  2  0  0  0  0  0  0
  187.0360  174.8240  135.3510 C   0  0  0  0  0  2  0  0  0  0  0  0
  188.4030  174.8360  135.0770 O   0  0  0  0  0  1  0  0  0  0  0  0
  187.7800  178.2530  138.2090 C   0  0  0  0  0  2  0  0  0  0  0  0
  188.4090  179.2070  137.4050 O   0  0  0  0  0  1  0  0  0  0  0  0
  1  3  2  0  0  0  0
  1 14  1  0  0  0  0
  2  7  1  0  0  0  0
  2  5  1  0  0  0  0
  2  4  1  1  0  0  0
  4  1  1  0  0  0  0
  5 11  1  6  0  0  0
  6 18  1  0  0  0  0
  6 17  1  0  0  0  0
  7 13  1  1  0  0  0
  8 17  1  0  0  0  0
  9  8  1  6  0  0  0
 10  4  1  0  0  0  0
 10 12  1  0  0  0  0
 10 31  1  1  0  0  0
 11  9  1  0  0  0  0
 13 14  1  0  0  0  0
 14 22  1  1  0  0  0
 15  7  1  0  0  0  0
 15 18  1  1  0  0  0
 15  9  1  0  0  0  0
 16 29  1  6  0  0  0
 16  5  1  0  0  0  0
 16 12  1  0  0  0  0
 19 23  1  0  0  0  0
 19 20  1  0  0  0  0
 21 23  2  0  0  0  0
 22 25  1  0  0  0  0
 22 24  2  0  0  0  0
 23 28  1  0  0  0  0
 24 21  1  0  0  0  0
 25 19  2  0  0  0  0
 26 25  1  0  0  0  0
 28 27  1  0  0  0  0
 30 29  1  0  0  0  0
 32 31  1  0  0  0  0
M  END
>  <MODEL>
6

>  <REMARK>
 VINA RESULT:      -6.5      4.052      8.695
  Name = 
  4 active torsions:
  status: ('A' for Active; 'I' for Inactive)
    1  A    between atoms: C_13  and  C_29
    2  A    between atoms: CA_14  and  C_21
    3  A    between atoms: C_16  and  CA_27
    4  A    between atoms: C_19  and  C_26
                            x       y       z     vdW  Elec       q    Type
                         _______ _______ _______ _____ _____    ______ ____

>  <TORSDO>
F 4

$$$$
=
 OpenBabel10262421013D

 32 36  0  0  1  0  0  0  0  0999 V2000
  188.9450  177.9110  138.6970 C   0  0  0  0  0  0  0  0  0  0  0  0
  188.1860  176.6150  136.6850 C   0  0  1  0  0  3  0  0  0  0  0  0
  189.8750  178.6010  139.1950 O   0  0  0  0  0  0  0  0  0  0  0  0
  189.2140  176.9040  137.6960 N   0  0  0  0  0  0  0  0  0  0  0  0
  187.9380  175.0940  136.6280 C   0  0  1  0  0  3  0  0  0  0  0  0
  183.2960  176.6000  135.6790 C   0  0  0  0  0  2  0  0  0  0  0  0
  186.8720  177.3800  136.9560 C   0  0  2  0  0  3  0  0  0  0  0  0
  184.5420  174.7220  135.4360 C   0  0  0  0  0  2  0  0  0  0  0  0
  185.7350  175.2630  136.2210 C   0  0  1  0  0  3  0  0  0  0  0  0
  190.5090  176.2050  137.5400 C   0  0  2  0  0  3  0  0  0  0  0  0
  186.9390  174.7690  135.6920 O   0  0  0  0  0  0  0  0  0  0  0  0
  190.2970  174.6920  137.3700 C   0  0  0  0  0  2  0  0  0  0  0  0
  186.5690  177.3380  138.3860 N   0  0  0  0  0  2  0  0  0  0  0  0
  187.5170  178.2100  139.0840 C   0  0  1  0  0  3  0  0  0  0  0  0
  185.7300  176.7920  136.1210 C   0  0  1  0  0  3  0  0  0  0  0  0
  189.2410  174.3560  136.3140 C   0  0  2  0  0  3  0  0  0  0  0  0
  183.3470  175.2260  135.9860 O   0  0  0  0  0  0  0  0  0  0  0  0
  184.3580  177.3600  136.4780 C   0  0  0  0  0  2  0  0  0  0  0  0
  186.0880  178.5740  142.6180 C   0  0  0  0  0  0  0  0  0  0  0  0
  184.6980  179.3580  143.4470 S   0  0  0  0  0  1  0  0  0  0  0  0
  188.1000  177.2170  142.6830 C   0  0  0  0  0  3  0  0  0  0  0  0
  187.3190  178.1000  140.5670 C   0  0  0  0  0  0  0  0  0  0  0  0
  187.0330  177.8260  143.3470 C   0  0  0  0  0  0  0  0  0  0  0  0
  188.2430  177.3540  141.3030 C   0  0  0  0  0  3  0  0  0  0  0  0
  186.2350  178.7140  141.2280 C   0  0  0  0  0  0  0  0  0  0  0  0
  185.3060  179.4570  140.5050 O   0  0  0  0  0  1  0  0  0  0  0  0
  188.1120  177.1510  145.3380 O   0  0  0  0  0  1  0  0  0  0  0  0
  186.9080  177.6310  144.8220 C   0  0  0  0  0  2  0  0  0  0  0  0
  189.7490  174.6610  134.9060 C   0  0  0  0  0  2  0  0  0  0  0  0
  190.9650  174.0160  134.6880 O   0  0  0  0  0  1  0  0  0  0  0  0
  191.5000  176.4410  138.6810 C   0  0  0  0  0  2  0  0  0  0  0  0
  192.7790  176.7080  138.1840 O   0  0  0  0  0  1  0  0  0  0  0  0
  1 14  1  0  0  0  0
  1  3  2  0  0  0  0
  2  7  1  0  0  0  0
  2  4  1  1  0  0  0
  4  1  1  0  0  0  0
  5 11  1  6  0  0  0
  5  2  1  0  0  0  0
  6 17  1  0  0  0  0
  6 18  1  0  0  0  0
  7 13  1  1  0  0  0
  8 17  1  0  0  0  0
  9  8  1  6  0  0  0
 10  4  1  0  0  0  0
 10 31  1  1  0  0  0
 11  9  1  0  0  0  0
 12 10  1  0  0  0  0
 13 14  1  0  0  0  0
 14 22  1  1  0  0  0
 15  9  1  0  0  0  0
 15 18  1  1  0  0  0
 15  7  1  0  0  0  0
 16 29  1  6  0  0  0
 16  5  1  0  0  0  0
 16 12  1  0  0  0  0
 19 23  1  0  0  0  0
 19 20  1  0  0  0  0
 21 23  2  0  0  0  0
 22 25  1  0  0  0  0
 22 24  2  0  0  0  0
 23 28  1  0  0  0  0
 24 21  1  0  0  0  0
 25 19  2  0  0  0  0
 26 25  1  0  0  0  0
 28 27  1  0  0  0  0
 30 29  1  0  0  0  0
 32 31  1  0  0  0  0
M  END
>  <MODEL>
7

>  <REMARK>
 VINA RESULT:      -6.4      2.949      8.004
  Name = 
  4 active torsions:
  status: ('A' for Active; 'I' for Inactive)
    1  A    between atoms: C_13  and  C_29
    2  A    between atoms: CA_14  and  C_21
    3  A    between atoms: C_16  and  CA_27
    4  A    between atoms: C_19  and  C_26
                            x       y       z     vdW  Elec       q    Type
                         _______ _______ _______ _____ _____    ______ ____

>  <TORSDO>
F 4

$$$$
=
 OpenBabel10262421013D

 32 36  0  0  1  0  0  0  0  0999 V2000
  187.9850  178.3360  139.5120 C   0  0  0  0  0  0  0  0  0  0  0  0
  186.6930  177.4730  137.5390 C   0  0  1  0  0  3  0  0  0  0  0  0
  189.0600  178.8760  139.8910 O   0  0  0  0  0  0  0  0  0  0  0  0
  187.9390  177.5200  138.3200 N   0  0  0  0  0  0  0  0  0  0  0  0
  186.3040  176.0020  137.2850 C   0  0  1  0  0  3  0  0  0  0  0  0
  181.7210  177.8830  137.6990 C   0  0  0  0  0  2  0  0  0  0  0  0
  185.5440  178.2390  138.2310 C   0  0  2  0  0  3  0  0  0  0  0  0
  182.7100  176.0240  136.8620 C   0  0  0  0  0  2  0  0  0  0  0  0
  184.0890  176.3510  137.4310 C   0  0  1  0  0  3  0  0  0  0  0  0
  189.1010  176.7990  137.7540 C   0  0  2  0  0  3  0  0  0  0  0  0
  185.1000  175.9060  136.5630 O   0  0  0  0  0  0  0  0  0  0  0  0
  188.7220  175.3550  137.3840 C   0  0  0  0  0  2  0  0  0  0  0  0
  185.5570  177.9480  139.6640 N   0  0  0  0  0  2  0  0  0  0  0  0
  186.7090  178.6290  140.2620 C   0  0  1  0  0  3  0  0  0  0  0  0
  184.1990  177.8720  137.5950 C   0  0  1  0  0  3  0  0  0  0  0  0
  187.4360  175.2720  136.5590 C   0  0  2  0  0  3  0  0  0  0  0  0
  181.7140  176.4750  137.7500 O   0  0  0  0  0  0  0  0  0  0  0  0
  182.9950  178.4300  138.3490 C   0  0  0  0  0  2  0  0  0  0  0  0
  186.0220  178.2600  144.0110 C   0  0  0  0  0  0  0  0  0  0  0  0
  184.7860  178.7530  145.2200 S   0  0  0  0  0  1  0  0  0  0  0  0
  188.0870  177.1180  143.4400 C   0  0  0  0  0  3  0  0  0  0  0  0
  186.8300  178.2560  141.7100 C   0  0  0  0  0  0  0  0  0  0  0  0
  187.1430  177.5000  144.3970 C   0  0  0  0  0  0  0  0  0  0  0  0
  187.9320  177.4950  142.1060 C   0  0  0  0  0  3  0  0  0  0  0  0
  185.8680  178.6410  142.6680 C   0  0  0  0  0  0  0  0  0  0  0  0
  184.7640  179.3970  142.2840 O   0  0  0  0  0  1  0  0  0  0  0  0
  188.2680  177.8790  146.4400 O   0  0  0  0  0  1  0  0  0  0  0  0
  187.3390  177.0530  145.8080 C   0  0  0  0  0  2  0  0  0  0  0  0
  187.6500  175.8070  135.1450 C   0  0  0  0  0  2  0  0  0  0  0  0
  188.8030  175.2490  134.5940 O   0  0  0  0  0  1  0  0  0  0  0  0
  190.3340  176.7710  138.6590 C   0  0  0  0  0  2  0  0  0  0  0  0
  190.8830  175.4880  138.7160 O   0  0  0  0  0  1  0  0  0  0  0  0
  1  3  2  0  0  0  0
  1 14  1  0  0  0  0
  2  7  1  0  0  0  0
  2  4  1  1  0  0  0
  4  1  1  0  0  0  0
  5 11  1  6  0  0  0
  5  2  1  0  0  0  0
  6 17  1  0  0  0  0
  6 18  1  0  0  0  0
  7 13  1  1  0  0  0
  8 17  1  0  0  0  0
  9  8  1  6  0  0  0
  9 15  1  0  0  0  0
 10  4  1  0  0  0  0
 10 31  1  1  0  0  0
 11  9  1  0  0  0  0
 12 10  1  0  0  0  0
 13 14  1  0  0  0  0
 14 22  1  1  0  0  0
 15  7  1  0  0  0  0
 15 18  1  1  0  0  0
 16 29  1  6  0  0  0
 16  5  1  0  0  0  0
 16 12  1  0  0  0  0
 19 23  1  0  0  0  0
 19 20  1  0  0  0  0
 21 23  2  0  0  0  0
 22 24  2  0  0  0  0
 22 25  1  0  0  0  0
 23 28  1  0  0  0  0
 24 21  1  0  0  0  0
 25 19  2  0  0  0  0
 26 25  1  0  0  0  0
 28 27  1  0  0  0  0
 30 29  1  0  0  0  0
 31 32  1  0  0  0  0
M  END
>  <MODEL>
8

>  <REMARK>
 VINA RESULT:      -6.3      2.955      7.797
  Name = 
  4 active torsions:
  status: ('A' for Active; 'I' for Inactive)
    1  A    between atoms: C_13  and  C_29
    2  A    between atoms: CA_14  and  C_21
    3  A    between atoms: C_16  and  CA_27
    4  A    between atoms: C_19  and  C_26
                            x       y       z     vdW  Elec       q    Type
                         _______ _______ _______ _____ _____    ______ ____

>  <TORSDO>
F 4

$$$$
=
 OpenBabel10262421013D

 32 36  0  0  1  0  0  0  0  0999 V2000
  187.1060  178.6010  139.6620 C   0  0  0  0  0  0  0  0  0  0  0  0
  185.2970  178.0040  138.0250 C   0  0  1  0  0  3  0  0  0  0  0  0
  188.2950  179.0000  139.7920 O   0  0  0  0  0  0  0  0  0  0  0  0
  186.6880  177.8710  138.4860 N   0  0  0  0  0  0  0  0  0  0  0  0
  184.6910  176.6010  137.8180 C   0  0  1  0  0  3  0  0  0  0  0  0
  180.5830  178.9200  139.3860 C   0  0  0  0  0  2  0  0  0  0  0  0
  184.4380  178.8400  139.0000 C   0  0  2  0  0  3  0  0  0  0  0  0
  181.1260  177.0250  138.2690 C   0  0  0  0  0  2  0  0  0  0  0  0
  182.6280  177.1700  138.5020 C   0  0  1  0  0  3  0  0  0  0  0  0
  187.5930  177.0700  137.6330 C   0  0  2  0  0  3  0  0  0  0  0  0
  183.3480  176.6770  137.4020 O   0  0  0  0  0  0  0  0  0  0  0  0
  186.9730  175.7000  137.3110 C   0  0  0  0  0  2  0  0  0  0  0  0
  184.7520  178.4590  140.3760 N   0  0  0  0  0  2  0  0  0  0  0  0
  186.0830  178.9770  140.7060 C   0  0  1  0  0  3  0  0  0  0  0  0
  182.9490  178.6570  138.6910 C   0  0  1  0  0  3  0  0  0  0  0  0
  185.5290  175.8050  136.8160 C   0  0  2  0  0  3  0  0  0  0  0  0
  180.4240  177.5200  139.3850 O   0  0  0  0  0  0  0  0  0  0  0  0
  182.0280  179.2890  139.7320 C   0  0  0  0  0  2  0  0  0  0  0  0
  186.1470  178.2880  144.4730 C   0  0  0  0  0  0  0  0  0  0  0  0
  185.1490  178.6220  145.9300 S   0  0  0  0  0  1  0  0  0  0  0  0
  188.1050  177.3060  143.4260 C   0  0  0  0  0  3  0  0  0  0  0  0
  186.4950  178.5030  142.0690 C   0  0  0  0  0  0  0  0  0  0  0  0
  187.3490  177.5630  144.5730 C   0  0  0  0  0  0  0  0  0  0  0  0
  187.6820  177.7740  142.1830 C   0  0  0  0  0  3  0  0  0  0  0  0
  185.7220  178.7620  143.2190 C   0  0  0  0  0  0  0  0  0  0  0  0
  184.5360  179.4840  143.1170 O   0  0  0  0  0  1  0  0  0  0  0  0
  189.0170  177.6560  146.2450 O   0  0  0  0  0  1  0  0  0  0  0  0
  187.8300  177.0210  145.8790 C   0  0  0  0  0  2  0  0  0  0  0  0
  185.4670  176.4030  135.4120 C   0  0  0  0  0  2  0  0  0  0  0  0
  184.6280  175.6370  134.6040 O   0  0  0  0  0  1  0  0  0  0  0  0
  188.9910  176.8570  138.2150 C   0  0  0  0  0  2  0  0  0  0  0  0
  189.9620  177.4740  137.4210 O   0  0  0  0  0  1  0  0  0  0  0  0
  1  3  2  0  0  0  0
  1 14  1  0  0  0  0
  2  4  1  1  0  0  0
  2  7  1  0  0  0  0
  4  1  1  0  0  0  0
  5 11  1  6  0  0  0
  5  2  1  0  0  0  0
  6 18  1  0  0  0  0
  7 13  1  1  0  0  0
  8 17  1  0  0  0  0
  9  8  1  6  0  0  0
  9 15  1  0  0  0  0
 10 31  1  1  0  0  0
 10  4  1  0  0  0  0
 11  9  1  0  0  0  0
 12 10  1  0  0  0  0
 13 14  1  0  0  0  0
 14 22  1  1  0  0  0
 15  7  1  0  0  0  0
 15 18  1  1  0  0  0
 16 29  1  6  0  0  0
 16 12  1  0  0  0  0
 16  5  1  0  0  0  0
 17  6  1  0  0  0  0
 19 23  1  0  0  0  0
 19 20  1  0  0  0  0
 21 23  2  0  0  0  0
 22 24  2  0  0  0  0
 22 25  1  0  0  0  0
 23 28  1  0  0  0  0
 24 21  1  0  0  0  0
 25 19  2  0  0  0  0
 26 25  1  0  0  0  0
 28 27  1  0  0  0  0
 30 29  1  0  0  0  0
 32 31  1  0  0  0  0
M  END
>  <MODEL>
9

>  <REMARK>
 VINA RESULT:      -6.2      3.089      7.686
  Name = 
  4 active torsions:
  status: ('A' for Active; 'I' for Inactive)
    1  A    between atoms: C_13  and  C_29
    2  A    between atoms: CA_14  and  C_21
    3  A    between atoms: C_16  and  CA_27
    4  A    between atoms: C_19  and  C_26
                            x       y       z     vdW  Elec       q    Type
                         _______ _______ _______ _____ _____    ______ ____

>  <TORSDO>
F 4

$$$$
