=
 OpenBabel10262421333D

 32 36  0  0  1  0  0  0  0  0999 V2000
  183.9380  178.7190  145.3070 C   0  0  0  0  0  2  0  0  0  0  0  0
  187.2830  178.1830  141.4400 C   0  0  0  0  0  0  0  0  0  0  0  0
  191.7180  178.5650  142.8960 N   0  0  0  0  0  2  0  0  0  0  0  0
  192.2030  177.4040  142.1590 C   0  0  0  0  0  2  0  0  0  0  0  0
  185.3370  178.6910  142.7970 C   0  0  0  0  0  0  0  0  0  0  0  0
  187.4210  178.0360  143.8520 C   0  0  0  0  0  3  0  0  0  0  0  0
  185.4620  178.5730  145.3440 C   0  0  2  0  0  3  0  0  0  0  0  0
  190.3880  178.2850  143.4490 C   0  0  0  0  0  2  0  0  0  0  0  0
  188.0370  177.9410  142.5970 C   0  0  0  0  0  0  0  0  0  0  0  0
  189.4710  177.4970  142.4870 C   0  0  1  0  0  3  0  0  0  0  0  0
  189.1210  177.7250  139.9730 C   0  0  0  0  0  0  0  0  0  0  0  0
  183.5190  179.6760  144.2030 C   0  0  0  0  0  2  0  0  0  0  0  0
  186.0690  178.3890  143.9680 C   0  0  0  0  0  0  0  0  0  0  0  0
  183.8870  179.0710  142.8540 C   0  0  0  0  0  2  0  0  0  0  0  0
  191.4080  177.2750  140.8660 C   0  0  0  0  0  2  0  0  0  0  0  0
  189.9860  177.5230  141.1050 N   0  0  0  0  0  0  0  0  0  0  0  0
  185.9420  178.5600  141.5450 C   0  0  0  0  0  3  0  0  0  0  0  0
  187.8710  178.0380  140.1460 N   0  0  0  0  0  0  0  0  0  0  0  0
  185.8330  177.4240  146.2720 C   0  0  0  0  0  2  0  0  0  0  0  0
  187.9520  177.6300  147.6190 C   0  0  0  0  0  0  0  0  0  0  0  0
  186.5710  177.9270  147.4200 N   0  0  0  0  0  2  0  0  0  0  0  0
  188.5790  176.9160  146.7920 O   0  0  0  0  0  0  0  0  0  0  0  0
  188.6270  178.1460  148.7600 N   0  0  0  0  0  1  0  0  0  0  0  0
  189.6400  177.6020  138.6790 O   0  0  0  0  0  0  0  0  0  0  0  0
  190.6540  175.6210  137.7050 C   0  0  2  0  0  3  0  0  0  0  0  0
  191.3960  175.8960  136.3960 C   0  0  0  0  0  2  0  0  0  0  0  0
  188.8120  176.9580  136.5040 C   0  0  1  0  0  3  0  0  0  0  0  0
  189.0240  175.9180  135.4100 C   0  0  0  0  0  2  0  0  0  0  0  0
  190.5150  175.6620  135.1600 C   0  0  0  0  0  2  0  0  0  0  0  0
  190.3270  174.2660  137.7960 O   0  0  0  0  0  1  0  0  0  0  0  0
  187.3330  177.2500  136.6490 C   0  0  0  0  0  1  0  0  0  0  0  0
  189.3820  176.4770  137.8460 C   0  0  2  0  0  3  0  0  0  0  0  0
  1  7  1  0  0  0  0
  2 17  2  0  0  0  0
  2  9  1  0  0  0  0
  3  8  1  0  0  0  0
  4  3  1  0  0  0  0
  5 14  1  0  0  0  0
  5 13  2  0  0  0  0
  6 13  1  0  0  0  0
  7 19  1  1  0  0  0
  9  6  2  0  0  0  0
 10  9  1  0  0  0  0
 10  8  1  1  0  0  0
 11 18  2  0  0  0  0
 11 16  1  0  0  0  0
 12  1  1  0  0  0  0
 13  7  1  0  0  0  0
 14 12  1  0  0  0  0
 15 16  1  0  0  0  0
 15  4  1  0  0  0  0
 16 10  1  0  0  0  0
 17  5  1  0  0  0  0
 18  2  1  0  0  0  0
 19 21  1  0  0  0  0
 20 23  1  0  0  0  0
 21 20  1  0  0  0  0
 22 20  2  0  0  0  0
 24 11  1  0  0  0  0
 25 30  1  6  0  0  0
 25 32  1  0  0  0  0
 26 25  1  0  0  0  0
 27 31  1  1  0  0  0
 27 32  1  0  0  0  0
 28 27  1  0  0  0  0
 29 28  1  0  0  0  0
 29 26  1  0  0  0  0
 32 24  1  1  0  0  0
M  END
>  <MODEL>
1

>  <REMARK>
 VINA RESULT:      -8.8      0.000      0.000
  Name = 
  4 active torsions:
  status: ('A' for Active; 'I' for Inactive)
    1  A    between atoms: N_10  and  C_24
    2  A    between atoms: C_12  and  C_24
    3  A    between atoms: C_16  and  O_27
    4  A    between atoms: O_27  and  C_32
                            x       y       z     vdW  Elec       q    Type
                         _______ _______ _______ _____ _____    ______ ____

>  <TORSDO>
F 4

$$$$
=
 OpenBabel10262421333D

 32 36  0  0  1  0  0  0  0  0999 V2000
  187.6590  177.5950  147.2350 C   0  0  0  0  0  2  0  0  0  0  0  0
  188.0860  177.6290  142.1110 C   0  0  0  0  0  0  0  0  0  0  0  0
  192.5520  177.9200  140.7290 N   0  0  0  0  0  2  0  0  0  0  0  0
  192.4500  176.8720  139.7200 C   0  0  0  0  0  2  0  0  0  0  0  0
  187.3290  177.9170  144.3970 C   0  0  0  0  0  0  0  0  0  0  0  0
  189.5960  177.1800  143.9490 C   0  0  0  0  0  3  0  0  0  0  0  0
  188.9080  177.4790  146.3550 C   0  0  2  0  0  3  0  0  0  0  0  0
  191.7800  177.5420  141.9190 C   0  0  0  0  0  2  0  0  0  0  0  0
  189.3580  177.2580  142.5700 C   0  0  0  0  0  0  0  0  0  0  0  0
  190.4320  176.8630  141.5920 C   0  0  1  0  0  3  0  0  0  0  0  0
  188.6960  177.4010  139.8050 C   0  0  0  0  0  0  0  0  0  0  0  0
  186.7310  178.6750  146.7030 C   0  0  0  0  0  2  0  0  0  0  0  0
  188.5880  177.4840  144.8740 C   0  0  0  0  0  0  0  0  0  0  0  0
  186.2080  178.2550  145.3360 C   0  0  0  0  0  2  0  0  0  0  0  0
  191.0450  176.8920  139.1310 C   0  0  0  0  0  2  0  0  0  0  0  0
  190.0450  177.0760  140.1840 N   0  0  0  0  0  0  0  0  0  0  0  0
  187.0820  177.9600  143.0230 C   0  0  0  0  0  3  0  0  0  0  0  0
  187.8020  177.6630  140.7120 N   0  0  0  0  0  0  0  0  0  0  0  0
  189.6840  176.2300  146.7500 C   0  0  0  0  0  2  0  0  0  0  0  0
  192.0540  176.0100  147.5760 C   0  0  0  0  0  0  0  0  0  0  0  0
  190.7490  176.5750  147.6790 N   0  0  0  0  0  2  0  0  0  0  0  0
  192.3250  175.1850  146.6620 O   0  0  0  0  0  0  0  0  0  0  0  0
  193.0590  176.3810  148.5110 N   0  0  0  0  0  1  0  0  0  0  0  0
  188.3560  177.4550  138.4480 O   0  0  0  0  0  0  0  0  0  0  0  0
  187.8390  175.5760  136.9990 C   0  0  2  0  0  3  0  0  0  0  0  0
  187.8070  175.9420  135.5130 C   0  0  0  0  0  2  0  0  0  0  0  0
  186.3260  177.6520  137.1550 C   0  0  1  0  0  3  0  0  0  0  0  0
  185.5020  176.9070  136.1120 C   0  0  0  0  0  2  0  0  0  0  0  0
  186.3950  176.2960  135.0240 C   0  0  0  0  0  2  0  0  0  0  0  0
  187.1190  174.4000  137.2190 O   0  0  0  0  0  1  0  0  0  0  0  0
  185.4010  178.3190  138.1530 C   0  0  0  0  0  1  0  0  0  0  0  0
  187.2840  176.7040  137.8890 C   0  0  2  0  0  3  0  0  0  0  0  0
  2  9  2  0  0  0  0
  2 17  1  0  0  0  0
  3  8  1  0  0  0  0
  4  3  1  0  0  0  0
  5 13  1  0  0  0  0
  5 14  1  0  0  0  0
  6 13  2  0  0  0  0
  7 19  1  1  0  0  0
  7  1  1  0  0  0  0
  9  6  1  0  0  0  0
 10  8  1  1  0  0  0
 10  9  1  0  0  0  0
 11 16  1  0  0  0  0
 11 18  2  0  0  0  0
 12  1  1  0  0  0  0
 13  7  1  0  0  0  0
 14 12  1  0  0  0  0
 15  4  1  0  0  0  0
 15 16  1  0  0  0  0
 16 10  1  0  0  0  0
 17  5  2  0  0  0  0
 18  2  1  0  0  0  0
 19 21  1  0  0  0  0
 20 21  1  0  0  0  0
 20 23  1  0  0  0  0
 22 20  2  0  0  0  0
 24 11  1  0  0  0  0
 25 30  1  6  0  0  0
 25 32  1  0  0  0  0
 26 25  1  0  0  0  0
 27 32  1  0  0  0  0
 27 31  1  1  0  0  0
 28 27  1  0  0  0  0
 29 26  1  0  0  0  0
 29 28  1  0  0  0  0
 32 24  1  6  0  0  0
M  END
>  <MODEL>
2

>  <REMARK>
 VINA RESULT:      -8.8      2.088      3.034
  Name = 
  4 active torsions:
  status: ('A' for Active; 'I' for Inactive)
    1  A    between atoms: N_10  and  C_24
    2  A    between atoms: C_12  and  C_24
    3  A    between atoms: C_16  and  O_27
    4  A    between atoms: O_27  and  C_32
                            x       y       z     vdW  Elec       q    Type
                         _______ _______ _______ _____ _____    ______ ____

>  <TORSDO>
F 4

$$$$
=
 OpenBabel10262421333D

 32 36  0  0  1  0  0  0  0  0999 V2000
  187.1290  177.9450  147.0150 C   0  0  0  0  0  2  0  0  0  0  0  0
  185.4320  178.4630  142.1900 C   0  0  0  0  0  0  0  0  0  0  0  0
  188.9400  179.1550  139.1650 N   0  0  0  0  0  2  0  0  0  0  0  0
  188.4580  178.1980  138.1770 C   0  0  0  0  0  2  0  0  0  0  0  0
  185.6650  178.4980  144.6040 C   0  0  0  0  0  0  0  0  0  0  0  0
  187.5680  177.9470  143.2040 C   0  0  0  0  0  3  0  0  0  0  0  0
  187.9140  177.9870  145.7000 C   0  0  2  0  0  3  0  0  0  0  0  0
  188.7280  178.6260  140.5170 C   0  0  0  0  0  2  0  0  0  0  0  0
  186.7880  178.1330  142.0550 C   0  0  0  0  0  0  0  0  0  0  0  0
  187.3780  177.8950  140.6900 C   0  0  1  0  0  3  0  0  0  0  0  0
  185.0540  178.4810  139.8240 C   0  0  0  0  0  0  0  0  0  0  0  0
  186.0430  179.0080  147.0220 C   0  0  0  0  0  2  0  0  0  0  0  0
  187.0180  178.1040  144.4840 C   0  0  0  0  0  0  0  0  0  0  0  0
  185.0170  178.6800  145.9450 C   0  0  0  0  0  2  0  0  0  0  0  0
  186.9350  178.1820  138.2100 C   0  0  0  0  0  2  0  0  0  0  0  0
  186.4470  178.2090  139.5900 N   0  0  0  0  0  0  0  0  0  0  0  0
  184.8800  178.6480  143.4590 C   0  0  0  0  0  3  0  0  0  0  0  0
  184.6010  178.6040  141.0370 N   0  0  0  0  0  0  0  0  0  0  0  0
  188.8100  176.7580  145.6120 C   0  0  0  0  0  2  0  0  0  0  0  0
  191.1320  176.7430  146.5900 C   0  0  0  0  0  0  0  0  0  0  0  0
  189.7150  176.7160  146.7500 N   0  0  0  0  0  2  0  0  0  0  0  0
  191.6450  176.8060  145.4410 O   0  0  0  0  0  0  0  0  0  0  0  0
  191.9720  176.6990  147.7370 N   0  0  0  0  0  1  0  0  0  0  0  0
  184.1900  178.6350  138.7330 O   0  0  0  0  0  0  0  0  0  0  0  0
  183.3180  176.3950  138.3810 C   0  0  2  0  0  3  0  0  0  0  0  0
  183.2610  175.9870  136.9080 C   0  0  0  0  0  2  0  0  0  0  0  0
  182.1450  178.4900  137.4560 C   0  0  1  0  0  3  0  0  0  0  0  0
  181.1640  177.4700  136.8920 C   0  0  0  0  0  2  0  0  0  0  0  0
  181.8940  176.2730  136.2700 C   0  0  0  0  0  2  0  0  0  0  0  0
  182.4430  175.6070  139.1320 O   0  0  0  0  0  1  0  0  0  0  0  0
  181.3860  179.6960  137.9710 C   0  0  0  0  0  1  0  0  0  0  0  0
  182.9890  177.8850  138.5870 C   0  0  2  0  0  3  0  0  0  0  0  0
  1 12  1  0  0  0  0
  2 17  1  0  0  0  0
  3  8  1  0  0  0  0
  4 15  1  0  0  0  0
  4  3  1  0  0  0  0
  5 14  1  0  0  0  0
  6 13  2  0  0  0  0
  7 19  1  6  0  0  0
  7  1  1  0  0  0  0
  9  2  2  0  0  0  0
  9  6  1  0  0  0  0
 10  8  1  6  0  0  0
 10  9  1  0  0  0  0
 11 18  2  0  0  0  0
 13  5  1  0  0  0  0
 13  7  1  0  0  0  0
 14 12  1  0  0  0  0
 15 16  1  0  0  0  0
 16 11  1  0  0  0  0
 16 10  1  0  0  0  0
 17  5  2  0  0  0  0
 18  2  1  0  0  0  0
 19 21  1  0  0  0  0
 20 21  1  0  0  0  0
 20 23  1  0  0  0  0
 22 20  2  0  0  0  0
 24 11  1  0  0  0  0
 25 32  1  0  0  0  0
 25 30  1  1  0  0  0
 26 25  1  0  0  0  0
 27 31  1  1  0  0  0
 27 32  1  0  0  0  0
 28 27  1  0  0  0  0
 29 28  1  0  0  0  0
 29 26  1  0  0  0  0
 32 24  1  6  0  0  0
M  END
>  <MODEL>
3

>  <REMARK>
 VINA RESULT:      -8.6      3.372      4.870
  Name = 
  4 active torsions:
  status: ('A' for Active; 'I' for Inactive)
    1  A    between atoms: N_10  and  C_24
    2  A    between atoms: C_12  and  C_24
    3  A    between atoms: C_16  and  O_27
    4  A    between atoms: O_27  and  C_32
                            x       y       z     vdW  Elec       q    Type
                         _______ _______ _______ _____ _____    ______ ____

>  <TORSDO>
F 4

$$$$
=
 OpenBabel10262421333D

 32 36  0  0  1  0  0  0  0  0999 V2000
  188.3980  177.6580  148.1040 C   0  0  0  0  0  2  0  0  0  0  0  0
  185.8080  178.3920  143.7230 C   0  0  0  0  0  0  0  0  0  0  0  0
  188.6770  179.1570  140.1010 N   0  0  0  0  0  2  0  0  0  0  0  0
  187.9930  178.2470  139.1910 C   0  0  0  0  0  2  0  0  0  0  0  0
  186.5060  178.3270  146.0460 C   0  0  0  0  0  0  0  0  0  0  0  0
  188.0900  177.8070  144.2830 C   0  0  0  0  0  3  0  0  0  0  0  0
  188.9130  177.7420  146.6640 C   0  0  2  0  0  3  0  0  0  0  0  0
  188.7210  178.5770  141.4480 C   0  0  0  0  0  2  0  0  0  0  0  0
  187.1060  178.0500  143.3150 C   0  0  0  0  0  0  0  0  0  0  0  0
  187.4150  177.8580  141.8540 C   0  0  1  0  0  3  0  0  0  0  0  0
  184.9790  178.5100  141.4790 C   0  0  0  0  0  0  0  0  0  0  0  0
  187.3560  178.7350  148.3610 C   0  0  0  0  0  2  0  0  0  0  0  0
  187.8020  177.9200  145.6500 C   0  0  0  0  0  0  0  0  0  0  0  0
  186.1340  178.4640  147.4930 C   0  0  0  0  0  2  0  0  0  0  0  0
  186.5050  178.2500  139.5190 C   0  0  0  0  0  2  0  0  0  0  0  0
  186.2950  178.2280  140.9680 N   0  0  0  0  0  0  0  0  0  0  0  0
  185.5170  178.5330  145.0820 C   0  0  0  0  0  3  0  0  0  0  0  0
  184.7730  178.5900  142.7600 N   0  0  0  0  0  0  0  0  0  0  0  0
  189.7500  176.5060  146.3590 C   0  0  0  0  0  2  0  0  0  0  0  0
  192.0570  175.7510  147.0280 C   0  0  0  0  0  0  0  0  0  0  0  0
  190.8080  176.3620  147.3450 N   0  0  0  0  0  2  0  0  0  0  0  0
  192.2810  175.3140  145.8680 O   0  0  0  0  0  0  0  0  0  0  0  0
  193.0590  175.6340  148.0310 N   0  0  0  0  0  1  0  0  0  0  0  0
  183.9240  178.7180  140.5830 O   0  0  0  0  0  0  0  0  0  0  0  0
  182.8840  177.0050  139.2100 C   0  0  2  0  0  3  0  0  0  0  0  0
  182.0090  177.5700  138.0890 C   0  0  0  0  0  2  0  0  0  0  0  0
  181.5090  178.6700  140.6090 C   0  0  1  0  0  3  0  0  0  0  0  0
  180.3270  177.9290  139.9970 C   0  0  0  0  0  2  0  0  0  0  0  0
  180.5330  177.6860  138.4970 C   0  0  0  0  0  2  0  0  0  0  0  0
  182.5220  175.6850  139.4830 O   0  0  0  0  0  1  0  0  0  0  0  0
  181.2210  178.9740  142.0650 C   0  0  0  0  0  1  0  0  0  0  0  0
  182.8000  177.8480  140.4960 C   0  0  2  0  0  3  0  0  0  0  0  0
  1 12  1  0  0  0  0
  2 17  1  0  0  0  0
  3  8  1  0  0  0  0
  4 15  1  0  0  0  0
  4  3  1  0  0  0  0
  5 14  1  0  0  0  0
  6 13  2  0  0  0  0
  7 19  1  6  0  0  0
  7  1  1  0  0  0  0
  9  2  2  0  0  0  0
  9  6  1  0  0  0  0
 10  8  1  6  0  0  0
 10  9  1  0  0  0  0
 11 18  2  0  0  0  0
 13  5  1  0  0  0  0
 13  7  1  0  0  0  0
 14 12  1  0  0  0  0
 15 16  1  0  0  0  0
 16 11  1  0  0  0  0
 16 10  1  0  0  0  0
 17  5  2  0  0  0  0
 18  2  1  0  0  0  0
 19 21  1  0  0  0  0
 20 21  1  0  0  0  0
 20 23  1  0  0  0  0
 22 20  2  0  0  0  0
 24 11  1  0  0  0  0
 25 30  1  1  0  0  0
 25 32  1  0  0  0  0
 26 29  1  0  0  0  0
 26 25  1  0  0  0  0
 27 31  1  1  0  0  0
 28 27  1  0  0  0  0
 29 28  1  0  0  0  0
 32 24  1  6  0  0  0
 32 27  1  0  0  0  0
M  END
>  <MODEL>
4

>  <REMARK>
 VINA RESULT:      -8.5      3.281      5.730
  Name = 
  4 active torsions:
  status: ('A' for Active; 'I' for Inactive)
    1  A    between atoms: N_10  and  C_24
    2  A    between atoms: C_12  and  C_24
    3  A    between atoms: C_16  and  O_27
    4  A    between atoms: O_27  and  C_32
                            x       y       z     vdW  Elec       q    Type
                         _______ _______ _______ _____ _____    ______ ____

>  <TORSDO>
F 4

$$$$
=
 OpenBabel10262421333D

 32 36  0  0  1  0  0  0  0  0999 V2000
  179.8030  179.1430  139.1490 C   0  0  0  0  0  2  0  0  0  0  0  0
  184.7310  178.9500  140.6020 C   0  0  0  0  0  0  0  0  0  0  0  0
  185.1870  179.0400  145.2620 N   0  0  0  0  0  2  0  0  0  0  0  0
  186.1600  177.9550  145.3240 C   0  0  0  0  0  2  0  0  0  0  0  0
  182.6570  179.3570  139.4110 C   0  0  0  0  0  0  0  0  0  0  0  0
  182.6110  178.5300  141.6910 C   0  0  0  0  0  3  0  0  0  0  0  0
  180.4060  178.9510  140.5440 C   0  0  2  0  0  3  0  0  0  0  0  0
  184.1670  178.7370  144.2520 C   0  0  0  0  0  2  0  0  0  0  0  0
  184.0110  178.5580  141.7390 C   0  0  0  0  0  0  0  0  0  0  0  0
  184.7370  178.0880  142.9710 C   0  0  1  0  0  3  0  0  0  0  0  0
  186.8560  178.6070  141.6540 C   0  0  0  0  0  0  0  0  0  0  0  0
  180.5480  180.2300  138.3910 C   0  0  0  0  0  2  0  0  0  0  0  0
  181.9200  178.9050  140.5300 C   0  0  0  0  0  0  0  0  0  0  0  0
  181.9780  179.7700  138.1380 C   0  0  0  0  0  2  0  0  0  0  0  0
  187.0220  177.9950  144.0680 C   0  0  0  0  0  2  0  0  0  0  0  0
  186.2000  178.2550  142.8850 N   0  0  0  0  0  0  0  0  0  0  0  0
  184.0540  179.3510  139.4480 C   0  0  0  0  0  3  0  0  0  0  0  0
  186.1590  178.9340  140.6060 N   0  0  0  0  0  0  0  0  0  0  0  0
  179.8190  177.6950  141.1750 C   0  0  0  0  0  2  0  0  0  0  0  0
  179.4860  175.2650  140.6010 C   0  0  0  0  0  0  0  0  0  0  0  0
  179.8990  176.5830  140.2420 N   0  0  0  0  0  2  0  0  0  0  0  0
  179.0330  175.0270  141.7520 O   0  0  0  0  0  0  0  0  0  0  0  0
  179.5860  174.2120  139.6500 N   0  0  0  0  0  1  0  0  0  0  0  0
  188.2550  178.6150  141.5970 O   0  0  0  0  0  0  0  0  0  0  0  0
  190.0860  177.1210  142.1560 C   0  0  2  0  0  3  0  0  0  0  0  0
  191.4640  177.6870  141.8070 C   0  0  0  0  0  2  0  0  0  0  0  0
  189.5910  177.8480  139.7380 C   0  0  1  0  0  3  0  0  0  0  0  0
  190.8100  176.9890  139.4220 C   0  0  0  0  0  2  0  0  0  0  0  0
  191.9480  177.2420  140.4190 C   0  0  0  0  0  2  0  0  0  0  0  0
  190.1530  175.7300  142.2700 O   0  0  0  0  0  1  0  0  0  0  0  0
  188.5320  177.6380  138.6750 C   0  0  0  0  0  1  0  0  0  0  0  0
  189.0150  177.5100  141.1200 C   0  0  2  0  0  3  0  0  0  0  0  0
  1  7  1  0  0  0  0
  2 18  1  0  0  0  0
  2  9  1  0  0  0  0
  3  4  1  0  0  0  0
  5 17  1  0  0  0  0
  5 13  2  0  0  0  0
  6  9  2  0  0  0  0
  7 19  1  6  0  0  0
  8  3  1  0  0  0  0
  9 10  1  0  0  0  0
 10  8  1  1  0  0  0
 11 16  1  0  0  0  0
 12  1  1  0  0  0  0
 13  7  1  0  0  0  0
 13  6  1  0  0  0  0
 14 12  1  0  0  0  0
 14  5  1  0  0  0  0
 15  4  1  0  0  0  0
 16 10  1  0  0  0  0
 16 15  1  0  0  0  0
 17  2  2  0  0  0  0
 18 11  2  0  0  0  0
 20 22  2  0  0  0  0
 21 20  1  0  0  0  0
 21 19  1  0  0  0  0
 23 20  1  0  0  0  0
 24 11  1  0  0  0  0
 25 30  1  6  0  0  0
 26 25  1  0  0  0  0
 27 31  1  6  0  0  0
 27 32  1  0  0  0  0
 28 27  1  0  0  0  0
 28 29  1  0  0  0  0
 29 26  1  0  0  0  0
 32 24  1  1  0  0  0
 32 25  1  0  0  0  0
M  END
>  <MODEL>
5

>  <REMARK>
 VINA RESULT:      -8.5      4.095      6.274
  Name = 
  4 active torsions:
  status: ('A' for Active; 'I' for Inactive)
    1  A    between atoms: N_10  and  C_24
    2  A    between atoms: C_12  and  C_24
    3  A    between atoms: C_16  and  O_27
    4  A    between atoms: O_27  and  C_32
                            x       y       z     vdW  Elec       q    Type
                         _______ _______ _______ _____ _____    ______ ____

>  <TORSDO>
F 4

$$$$
=
 OpenBabel10262421333D

 32 36  0  0  1  0  0  0  0  0999 V2000
  186.8710  178.0050  146.7100 C   0  0  0  0  0  2  0  0  0  0  0  0
  185.2950  178.5510  141.8470 C   0  0  0  0  0  0  0  0  0  0  0  0
  188.8870  179.1370  138.8990 N   0  0  0  0  0  2  0  0  0  0  0  0
  188.4010  178.1900  137.9030 C   0  0  0  0  0  2  0  0  0  0  0  0
  185.4760  178.5880  144.2660 C   0  0  0  0  0  0  0  0  0  0  0  0
  187.3940  177.9810  142.9100 C   0  0  0  0  0  3  0  0  0  0  0  0
  187.6850  178.0210  145.4130 C   0  0  2  0  0  3  0  0  0  0  0  0
  188.6310  178.6190  140.2480 C   0  0  0  0  0  2  0  0  0  0  0  0
  186.6450  178.1840  141.7430 C   0  0  0  0  0  0  0  0  0  0  0  0
  187.2580  177.9250  140.3930 C   0  0  1  0  0  3  0  0  0  0  0  0
  184.9700  178.5700  139.4730 C   0  0  0  0  0  0  0  0  0  0  0  0
  185.8130  179.0970  146.6900 C   0  0  0  0  0  2  0  0  0  0  0  0
  186.8200  178.1580  144.1770 C   0  0  0  0  0  0  0  0  0  0  0  0
  184.8030  178.7920  145.5910 C   0  0  0  0  0  2  0  0  0  0  0  0
  186.8780  178.2150  137.9020 C   0  0  0  0  0  2  0  0  0  0  0  0
  186.3610  178.2590  139.2710 N   0  0  0  0  0  0  0  0  0  0  0  0
  184.7200  178.7550  143.1030 C   0  0  0  0  0  3  0  0  0  0  0  0
  184.4950  178.7090  140.6750 N   0  0  0  0  0  0  0  0  0  0  0  0
  188.5490  176.7690  145.3490 C   0  0  0  0  0  2  0  0  0  0  0  0
  190.9340  176.8030  146.1620 C   0  0  0  0  0  0  0  0  0  0  0  0
  189.5310  176.7840  146.4220 N   0  0  0  0  0  2  0  0  0  0  0  0
  191.3660  176.8100  144.9790 O   0  0  0  0  0  0  0  0  0  0  0  0
  191.8520  176.8150  147.2480 N   0  0  0  0  0  1  0  0  0  0  0  0
  184.1350  178.7420  138.3630 O   0  0  0  0  0  0  0  0  0  0  0  0
  181.7480  178.4540  138.7080 C   0  0  2  0  0  3  0  0  0  0  0  0
  181.4010  177.7780  140.0360 C   0  0  0  0  0  2  0  0  0  0  0  0
  183.3680  176.4600  138.5500 C   0  0  1  0  0  3  0  0  0  0  0  0
  182.1010  175.6460  138.7860 C   0  0  0  0  0  2  0  0  0  0  0  0
  181.2400  176.2570  139.8980 C   0  0  0  0  0  2  0  0  0  0  0  0
  180.6870  178.3230  137.8100 O   0  0  0  0  0  1  0  0  0  0  0  0
  184.2320  175.7690  137.5150 C   0  0  0  0  0  1  0  0  0  0  0  0
  183.0350  177.8840  138.0820 C   0  0  2  0  0  3  0  0  0  0  0  0
  2 17  1  0  0  0  0
  3  8  1  0  0  0  0
  4  3  1  0  0  0  0
  5 14  1  0  0  0  0
  6 13  2  0  0  0  0
  7 19  1  6  0  0  0
  7  1  1  0  0  0  0
  9  2  2  0  0  0  0
  9  6  1  0  0  0  0
 10  8  1  6  0  0  0
 10  9  1  0  0  0  0
 11 18  2  0  0  0  0
 12  1  1  0  0  0  0
 13  5  1  0  0  0  0
 13  7  1  0  0  0  0
 14 12  1  0  0  0  0
 15  4  1  0  0  0  0
 15 16  1  0  0  0  0
 16 11  1  0  0  0  0
 16 10  1  0  0  0  0
 17  5  2  0  0  0  0
 18  2  1  0  0  0  0
 19 21  1  0  0  0  0
 20 21  1  0  0  0  0
 20 23  1  0  0  0  0
 22 20  2  0  0  0  0
 24 11  1  0  0  0  0
 25 30  1  6  0  0  0
 25 26  1  0  0  0  0
 27 31  1  6  0  0  0
 27 28  1  0  0  0  0
 28 29  1  0  0  0  0
 29 26  1  0  0  0  0
 32 24  1  1  0  0  0
 32 27  1  0  0  0  0
 32 25  1  0  0  0  0
M  END
>  <MODEL>
6

>  <REMARK>
 VINA RESULT:      -8.5      3.309      5.213
  Name = 
  4 active torsions:
  status: ('A' for Active; 'I' for Inactive)
    1  A    between atoms: N_10  and  C_24
    2  A    between atoms: C_12  and  C_24
    3  A    between atoms: C_16  and  O_27
    4  A    between atoms: O_27  and  C_32
                            x       y       z     vdW  Elec       q    Type
                         _______ _______ _______ _____ _____    ______ ____

>  <TORSDO>
F 4

$$$$
=
 OpenBabel10262421333D

 32 36  0  0  1  0  0  0  0  0999 V2000
  187.6560  178.2660  136.7980 C   0  0  0  0  0  2  0  0  0  0  0  0
  188.0850  177.7190  141.8930 C   0  0  0  0  0  0  0  0  0  0  0  0
  184.6250  179.8910  144.1830 N   0  0  0  0  0  2  0  0  0  0  0  0
  184.3440  178.7820  145.0880 C   0  0  0  0  0  2  0  0  0  0  0  0
  188.5280  177.9550  139.5190 C   0  0  0  0  0  0  0  0  0  0  0  0
  186.2930  178.3310  140.3840 C   0  0  0  0  0  3  0  0  0  0  0  0
  186.6650  178.6280  137.9090 C   0  0  2  0  0  3  0  0  0  0  0  0
  184.9160  179.3780  142.8400 C   0  0  0  0  0  2  0  0  0  0  0  0
  186.7440  178.0750  141.6860 C   0  0  0  0  0  0  0  0  0  0  0  0
  185.7790  178.0960  142.8410 C   0  0  1  0  0  3  0  0  0  0  0  0
  187.8000  177.4610  144.2580 C   0  0  0  0  0  0  0  0  0  0  0  0
  189.0670  178.6770  137.1870 C   0  0  0  0  0  2  0  0  0  0  0  0
  187.1650  178.2540  139.2890 C   0  0  0  0  0  0  0  0  0  0  0  0
  189.5120  177.8550  138.3900 C   0  0  0  0  0  2  0  0  0  0  0  0
  185.6420  178.0390  145.3730 C   0  0  0  0  0  2  0  0  0  0  0  0
  186.4280  177.8820  144.1480 N   0  0  0  0  0  0  0  0  0  0  0  0
  188.9680  177.6650  140.8130 C   0  0  0  0  0  3  0  0  0  0  0  0
  188.5560  177.3990  143.2020 N   0  0  0  0  0  0  0  0  0  0  0  0
  185.3200  177.9780  137.6120 C   0  0  0  0  0  2  0  0  0  0  0  0
  184.6370  175.5840  137.2240 C   0  0  0  0  0  0  0  0  0  0  0  0
  185.5190  176.6790  136.9870 N   0  0  0  0  0  2  0  0  0  0  0  0
  183.6460  175.7140  137.9910 O   0  0  0  0  0  0  0  0  0  0  0  0
  184.8780  174.3350  136.5880 N   0  0  0  0  0  1  0  0  0  0  0  0
  188.3230  177.1390  145.5150 O   0  0  0  0  0  0  0  0  0  0  0  0
  190.6970  177.1440  145.0050 C   0  0  2  0  0  3  0  0  0  0  0  0
  191.4340  175.9050  145.5180 C   0  0  0  0  0  2  0  0  0  0  0  0
  189.8080  177.1510  147.4200 C   0  0  1  0  0  3  0  0  0  0  0  0
  191.2900  177.1280  147.7730 C   0  0  0  0  0  2  0  0  0  0  0  0
  192.0590  176.1240  146.9040 C   0  0  0  0  0  2  0  0  0  0  0  0
  191.6010  178.1860  144.7890 O   0  0  0  0  0  1  0  0  0  0  0  0
  189.0740  178.0810  148.3640 C   0  0  0  0  0  1  0  0  0  0  0  0
  189.5890  177.6040  145.9690 C   0  0  2  0  0  3  0  0  0  0  0  0
  1 12  1  0  0  0  0
  1  7  1  0  0  0  0
  2 18  1  0  0  0  0
  3  4  1  0  0  0  0
  4 15  1  0  0  0  0
  5 17  1  0  0  0  0
  6  9  2  0  0  0  0
  7 19  1  6  0  0  0
  7 13  1  0  0  0  0
  8  3  1  0  0  0  0
  9  2  1  0  0  0  0
  9 10  1  0  0  0  0
 10  8  1  1  0  0  0
 10 16  1  0  0  0  0
 11 24  1  0  0  0  0
 12 14  1  0  0  0  0
 13  5  2  0  0  0  0
 13  6  1  0  0  0  0
 14  5  1  0  0  0  0
 16 11  1  0  0  0  0
 16 15  1  0  0  0  0
 17  2  2  0  0  0  0
 18 11  2  0  0  0  0
 20 22  2  0  0  0  0
 21 20  1  0  0  0  0
 21 19  1  0  0  0  0
 23 20  1  0  0  0  0
 25 30  1  1  0  0  0
 25 26  1  0  0  0  0
 25 32  1  0  0  0  0
 26 29  1  0  0  0  0
 27 28  1  0  0  0  0
 27 31  1  1  0  0  0
 29 28  1  0  0  0  0
 32 24  1  6  0  0  0
 32 27  1  0  0  0  0
M  END
>  <MODEL>
7

>  <REMARK>
 VINA RESULT:      -8.3      2.731      8.100
  Name = 
  4 active torsions:
  status: ('A' for Active; 'I' for Inactive)
    1  A    between atoms: N_10  and  C_24
    2  A    between atoms: C_12  and  C_24
    3  A    between atoms: C_16  and  O_27
    4  A    between atoms: O_27  and  C_32
                            x       y       z     vdW  Elec       q    Type
                         _______ _______ _______ _____ _____    ______ ____

>  <TORSDO>
F 4

$$$$
=
 OpenBabel10262421333D

 32 36  0  0  1  0  0  0  0  0999 V2000
  180.4160  180.0870  139.8440 C   0  0  0  0  0  2  0  0  0  0  0  0
  184.7610  178.2450  141.8840 C   0  0  0  0  0  0  0  0  0  0  0  0
  188.0310  177.4590  138.6240 N   0  0  0  0  0  2  0  0  0  0  0  0
  189.1180  178.0840  139.3680 C   0  0  0  0  0  2  0  0  0  0  0  0
  182.4440  178.7860  141.4120 C   0  0  0  0  0  0  0  0  0  0  0  0
  184.1720  179.3050  139.7890 C   0  0  0  0  0  3  0  0  0  0  0  0
  181.7900  179.8770  139.1980 C   0  0  2  0  0  3  0  0  0  0  0  0
  186.7980  178.2360  138.7950 C   0  0  0  0  0  2  0  0  0  0  0  0
  185.1430  178.7460  140.6310 C   0  0  0  0  0  0  0  0  0  0  0  0
  186.5940  178.7650  140.2320 C   0  0  1  0  0  3  0  0  0  0  0  0
  187.0010  177.6410  142.4840 C   0  0  0  0  0  0  0  0  0  0  0  0
  180.0470  178.8940  140.7110 C   0  0  0  0  0  2  0  0  0  0  0  0
  182.8240  179.3520  140.1720 C   0  0  0  0  0  0  0  0  0  0  0  0
  181.0190  178.8080  141.8800 C   0  0  0  0  0  2  0  0  0  0  0  0
  188.8820  177.8660  140.8580 C   0  0  0  0  0  2  0  0  0  0  0  0
  187.4720  178.0710  141.1940 N   0  0  0  0  0  0  0  0  0  0  0  0
  183.4180  178.2630  142.2660 C   0  0  0  0  0  3  0  0  0  0  0  0
  185.7390  177.7220  142.7850 N   0  0  0  0  0  0  0  0  0  0  0  0
  182.2440  181.1810  138.5560 C   0  0  0  0  0  2  0  0  0  0  0  0
  181.1800  183.2510  137.5930 C   0  0  0  0  0  0  0  0  0  0  0  0
  181.1050  181.8810  137.9840 N   0  0  0  0  0  2  0  0  0  0  0  0
  182.2510  183.9000  137.7320 O   0  0  0  0  0  0  0  0  0  0  0  0
  180.0350  183.8890  137.0390 N   0  0  0  0  0  1  0  0  0  0  0  0
  187.9110  177.1150  143.4080 O   0  0  0  0  0  0  0  0  0  0  0  0
  190.0480  177.8950  144.2570 C   0  0  2  0  0  3  0  0  0  0  0  0
  190.7340  176.8980  145.1930 C   0  0  0  0  0  2  0  0  0  0  0  0
  188.0520  177.3970  145.8020 C   0  0  1  0  0  3  0  0  0  0  0  0
  189.0340  177.7950  146.8980 C   0  0  0  0  0  2  0  0  0  0  0  0
  190.4130  177.1630  146.6720 C   0  0  0  0  0  2  0  0  0  0  0  0
  190.5530  179.1790  144.4700 O   0  0  0  0  0  1  0  0  0  0  0  0
  186.6820  177.9620  146.1170 C   0  0  0  0  0  1  0  0  0  0  0  0
  188.5180  177.8990  144.4290 C   0  0  2  0  0  3  0  0  0  0  0  0
  1 12  1  0  0  0  0
  2 17  1  0  0  0  0
  2 18  1  0  0  0  0
  3  8  1  0  0  0  0
  3  4  1  0  0  0  0
  4 15  1  0  0  0  0
  5 14  1  0  0  0  0
  5 17  2  0  0  0  0
  6 13  2  0  0  0  0
  6  9  1  0  0  0  0
  7 19  1  1  0  0  0
  7  1  1  0  0  0  0
  7 13  1  0  0  0  0
  9  2  2  0  0  0  0
 10  8  1  6  0  0  0
 10  9  1  0  0  0  0
 10 16  1  0  0  0  0
 11 18  2  0  0  0  0
 11 24  1  0  0  0  0
 12 14  1  0  0  0  0
 13  5  1  0  0  0  0
 15 16  1  0  0  0  0
 16 11  1  0  0  0  0
 20 22  2  0  0  0  0
 20 21  1  0  0  0  0
 21 19  1  0  0  0  0
 23 20  1  0  0  0  0
 25 32  1  0  0  0  0
 25 30  1  1  0  0  0
 25 26  1  0  0  0  0
 26 29  1  0  0  0  0
 27 31  1  1  0  0  0
 27 28  1  0  0  0  0
 29 28  1  0  0  0  0
 32 24  1  6  0  0  0
 32 27  1  0  0  0  0
M  END
>  <MODEL>
8

>  <REMARK>
 VINA RESULT:      -8.1      3.991      7.682
  Name = 
  4 active torsions:
  status: ('A' for Active; 'I' for Inactive)
    1  A    between atoms: N_10  and  C_24
    2  A    between atoms: C_12  and  C_24
    3  A    between atoms: C_16  and  O_27
    4  A    between atoms: O_27  and  C_32
                            x       y       z     vdW  Elec       q    Type
                         _______ _______ _______ _____ _____    ______ ____

>  <TORSDO>
F 4

$$$$
=
 OpenBabel10262421333D

 32 36  0  0  1  0  0  0  0  0999 V2000
  190.4120  176.9250  146.9420 C   0  0  0  0  0  2  0  0  0  0  0  0
  188.8090  177.7830  142.1330 C   0  0  0  0  0  0  0  0  0  0  0  0
  184.1390  177.6710  141.7980 N   0  0  0  0  0  2  0  0  0  0  0  0
  184.0310  178.8800  140.9910 C   0  0  0  0  0  2  0  0  0  0  0  0
  190.0680  177.1100  144.0940 C   0  0  0  0  0  0  0  0  0  0  0  0
  187.7790  177.8800  144.3210 C   0  0  0  0  0  3  0  0  0  0  0  0
  188.9970  177.1730  146.4110 C   0  0  2  0  0  3  0  0  0  0  0  0
  185.1750  177.8450  142.8230 C   0  0  0  0  0  2  0  0  0  0  0  0
  187.6880  178.0480  142.9330 C   0  0  0  0  0  0  0  0  0  0  0  0
  186.4280  178.5920  142.3150 C   0  0  1  0  0  3  0  0  0  0  0  0
  187.6890  178.4020  140.1080 C   0  0  0  0  0  0  0  0  0  0  0  0
  191.1640  175.9680  146.0300 C   0  0  0  0  0  2  0  0  0  0  0  0
  188.9650  177.4330  144.9190 C   0  0  0  0  0  0  0  0  0  0  0  0
  191.3670  176.6300  144.6720 C   0  0  0  0  0  2  0  0  0  0  0  0
  185.2610  178.9860  140.0980 C   0  0  0  0  0  2  0  0  0  0  0  0
  186.4720  178.6350  140.8410 N   0  0  0  0  0  0  0  0  0  0  0  0
  189.9890  177.3130  142.7140 C   0  0  0  0  0  3  0  0  0  0  0  0
  188.7610  178.0000  140.7220 N   0  0  0  0  0  0  0  0  0  0  0  0
  188.3660  178.3220  147.1870 C   0  0  0  0  0  2  0  0  0  0  0  0
  185.8770  178.6270  146.9500 C   0  0  0  0  0  0  0  0  0  0  0  0
  186.9990  177.9860  147.5530 N   0  0  0  0  0  2  0  0  0  0  0  0
  186.0420  179.5120  146.0680 O   0  0  0  0  0  0  0  0  0  0  0  0
  184.5600  178.2630  147.3450 N   0  0  0  0  0  1  0  0  0  0  0  0
  187.7030  178.5930  138.7210 O   0  0  0  0  0  0  0  0  0  0  0  0
  189.1580  177.2570  137.3070 C   0  0  2  0  0  3  0  0  0  0  0  0
  189.4310  177.8910  135.9410 C   0  0  0  0  0  2  0  0  0  0  0  0
  186.7290  177.8060  136.6560 C   0  0  1  0  0  3  0  0  0  0  0  0
  187.0780  177.0110  135.4030 C   0  0  0  0  0  2  0  0  0  0  0  0
  188.4590  177.3970  134.8590 C   0  0  0  0  0  2  0  0  0  0  0  0
  189.4040  175.8840  137.2570 O   0  0  0  0  0  1  0  0  0  0  0  0
  185.3220  177.4650  137.1010 C   0  0  0  0  0  1  0  0  0  0  0  0
  187.7190  177.5140  137.7920 C   0  0  2  0  0  3  0  0  0  0  0  0
  2 17  2  0  0  0  0
  2  9  1  0  0  0  0
  3  8  1  0  0  0  0
  4  3  1  0  0  0  0
  5 14  1  0  0  0  0
  5 13  2  0  0  0  0
  6 13  1  0  0  0  0
  7  1  1  0  0  0  0
  7 19  1  1  0  0  0
  9  6  2  0  0  0  0
 10  8  1  6  0  0  0
 10  9  1  0  0  0  0
 11 18  2  0  0  0  0
 11 16  1  0  0  0  0
 12  1  1  0  0  0  0
 13  7  1  0  0  0  0
 14 12  1  0  0  0  0
 15 16  1  0  0  0  0
 15  4  1  0  0  0  0
 16 10  1  0  0  0  0
 17  5  1  0  0  0  0
 18  2  1  0  0  0  0
 19 21  1  0  0  0  0
 20 23  1  0  0  0  0
 20 21  1  0  0  0  0
 22 20  2  0  0  0  0
 24 11  1  0  0  0  0
 25 30  1  6  0  0  0
 25 32  1  0  0  0  0
 26 25  1  0  0  0  0
 27 31  1  1  0  0  0
 27 32  1  0  0  0  0
 28 27  1  0  0  0  0
 29 28  1  0  0  0  0
 29 26  1  0  0  0  0
 32 24  1  1  0  0  0
M  END
>  <MODEL>
9

>  <REMARK>
 VINA RESULT:      -8.1      1.877      4.271
  Name = 
  4 active torsions:
  status: ('A' for Active; 'I' for Inactive)
    1  A    between atoms: N_10  and  C_24
    2  A    between atoms: C_12  and  C_24
    3  A    between atoms: C_16  and  O_27
    4  A    between atoms: O_27  and  C_32
                            x       y       z     vdW  Elec       q    Type
                         _______ _______ _______ _____ _____    ______ ____

>  <TORSDO>
F 4

$$$$
