=
 OpenBabel10262422393D

 43 48  0  0  1  0  0  0  0  0999 V2000
  191.0910  177.1160  145.9420 C   0  0  0  0  0  0  0  0  0  0  0  0
  187.3960  178.1930  142.6960 N   0  0  2  0  0  0  0  0  0  0  0  0
  188.5340  177.5420  139.9920 C   0  0  1  0  0  3  0  0  0  0  0  0
  189.0040  177.2150  144.8090 C   0  0  0  0  0  0  0  0  0  0  0  0
  191.7530  177.6240  144.8230 C   0  0  0  0  0  3  0  0  0  0  0  0
  191.8270  176.7990  147.1180 N   0  0  0  0  0  1  0  0  0  0  0  0
  189.6330  177.7420  143.6650 C   0  0  0  0  0  0  0  0  0  0  0  0
  189.7430  176.9310  145.9160 N   0  0  0  0  0  0  0  0  0  0  0  0
  191.0170  177.9360  143.6790 C   0  0  0  0  0  3  0  0  0  0  0  0
  189.1090  177.0370  141.3200 C   0  0  0  0  0  2  0  0  0  0  0  0
  188.8430  178.0560  142.4240 C   0  0  1  0  0  3  0  0  0  0  0  0
  186.9190  177.0350  143.4560 C   0  0  0  0  0  2  0  0  0  0  0  0
  186.5670  178.2800  141.4760 C   0  0  2  0  0  3  0  0  0  0  0  0
  187.3550  178.5070  140.1730 C   0  0  0  0  0  2  0  0  0  0  0  0
  187.5150  177.0550  144.8600 C   0  0  0  0  0  2  0  0  0  0  0  0
  189.6160  178.2080  139.1360 C   0  0  2  0  0  3  0  0  0  0  0  0
  189.0760  179.2880  138.4380 O   0  0  0  0  0  1  0  0  0  0  0  0
  191.6860  175.3380  137.7100 N   0  0  0  0  0  2  0  0  0  0  0  0
  190.1850  177.2530  138.1930 N   0  0  0  0  0  2  0  0  0  0  0  0
  191.3540  176.4860  138.4930 C   0  0  0  0  0  0  0  0  0  0  0  0
  192.1000  176.8170  139.4520 O   0  0  0  0  0  0  0  0  0  0  0  0
  190.7890  174.8020  136.6960 C   0  0  1  0  0  3  0  0  0  0  0  0
  189.5230  172.6820  135.2310 O   0  0  0  0  0  0  0  0  0  0  0  0
  191.5170  174.0430  135.5730 C   0  0  2  0  0  3  0  0  0  0  0  0
  189.7170  173.9270  137.3350 C   0  0  0  0  0  2  0  0  0  0  0  0
  188.8010  173.3560  136.2470 C   0  0  1  0  0  3  0  0  0  0  0  0
  190.4220  173.5760  134.6030 C   0  0  0  0  0  2  0  0  0  0  0  0
  187.8340  174.3940  135.6900 C   0  0  0  0  0  1  0  0  0  0  0  0
  192.3710  172.8560  136.0730 C   0  0  0  0  0  3  0  0  0  0  0  0
  194.6600  171.0080  135.9360 C   0  0  0  0  0  2  0  0  0  0  0  0
  194.6020  172.1300  136.9680 C   0  0  0  0  0  2  0  0  0  0  0  0
  193.2510  170.5590  135.5630 C   0  0  0  0  0  2  0  0  0  0  0  0
  193.7930  173.3040  136.4210 C   0  0  0  0  0  2  0  0  0  0  0  0
  192.4510  171.7410  135.0220 C   0  0  0  0  0  2  0  0  0  0  0  0
  185.4990  179.3650  141.6380 C   0  0  0  0  0  2  0  0  0  0  0  0
  181.7210  178.8880  142.3030 C   0  0  0  0  0  2  0  0  0  0  0  0
  181.4170  177.9530  141.1560 C   0  0  0  0  0  0  0  0  0  0  0  0
  183.7030  178.2720  140.3550 C   0  0  0  0  0  3  0  0  0  0  0  0
  183.1980  178.8240  142.7060 C   0  0  0  0  0  2  0  0  0  0  0  0
  184.1050  178.8280  141.5040 C   0  0  0  0  0  0  0  0  0  0  0  0
  182.3410  177.7280  140.2190 C   0  0  0  0  0  3  0  0  0  0  0  0
  180.0790  177.3760  140.9770 C   0  0  0  0  0  3  0  0  0  0  0  0
  179.8810  176.2160  140.3630 C   0  0  0  0  0  2  0  0  0  0  0  0
  1  6  1  0  0  0  0
  2 12  1  6  0  0  0
  3 16  1  1  0  0  0
  3 14  1  0  0  0  0
  3 10  1  0  0  0  0
  4 15  1  0  0  0  0
  4  8  2  0  0  0  0
  5  1  2  0  0  0  0
  7  9  2  0  0  0  0
  7  4  1  0  0  0  0
  8  1  1  0  0  0  0
  9  5  1  0  0  0  0
 11 10  1  6  0  0  0
 11  2  1  0  0  0  0
 11  7  1  0  0  0  0
 12 15  1  0  0  0  0
 13 35  1  1  0  0  0
 13  2  1  0  0  0  0
 14 13  1  0  0  0  0
 16 17  1  6  0  0  0
 18 20  1  0  0  0  0
 19 20  1  0  0  0  0
 19 16  1  0  0  0  0
 20 21  2  0  0  0  0
 22 25  1  0  0  0  0
 22 18  1  1  0  0  0
 23 26  1  0  0  0  0
 24 29  1  1  0  0  0
 24 22  1  0  0  0  0
 26 28  1  6  0  0  0
 26 25  1  0  0  0  0
 27 23  1  0  0  0  0
 27 24  1  0  0  0  0
 29 33  1  0  0  0  0
 30 31  1  0  0  0  0
 32 30  1  0  0  0  0
 33 31  1  0  0  0  0
 34 32  1  0  0  0  0
 34 29  1  0  0  0  0
 36 39  1  0  0  0  0
 37 36  1  0  0  0  0
 38 40  2  0  0  0  0
 40 35  1  0  0  0  0
 40 39  1  0  0  0  0
 41 38  1  0  0  0  0
 41 37  2  0  0  0  0
 42 37  1  0  0  0  0
 43 42  2  0  0  0  0
M  END
>  <MODEL>
1

>  <REMARK>
 VINA RESULT:      -8.9      0.000      0.000
  Name = 
  7 active torsions:
  status: ('A' for Active; 'I' for Inactive)
    1  A    between atoms: C_1  and  C_34
    2  A    between atoms: C_1  and  C_35
    3  A    between atoms: C_2  and  N_6
    4  A    between atoms: C_2  and  C_13
    5  A    between atoms: N_3  and  C_4
    6  A    between atoms: C_11  and  C_14
    7  A    between atoms: C_19  and  C_25
                            x       y       z     vdW  Elec       q    Type
                         _______ _______ _______ _____ _____    ______ ____

>  <TORSDO>
F 7

$$$$
=
 OpenBabel10262422393D

 43 48  0  0  1  0  0  0  0  0999 V2000
  189.0540  177.6690  144.7760 C   0  0  0  0  0  0  0  0  0  0  0  0
  190.6010  176.6460  140.0960 N   0  0  2  0  0  0  0  0  0  0  0  0
  188.8200  178.2920  138.3200 C   0  0  1  0  0  3  0  0  0  0  0  0
  190.3730  177.3680  142.8230 C   0  0  0  0  0  0  0  0  0  0  0  0
  187.8820  177.6780  144.0170 C   0  0  0  0  0  3  0  0  0  0  0  0
  188.9830  177.8200  146.1900 N   0  0  0  0  0  1  0  0  0  0  0  0
  189.2130  177.3580  142.0240 C   0  0  0  0  0  0  0  0  0  0  0  0
  190.2620  177.5080  144.1710 N   0  0  0  0  0  0  0  0  0  0  0  0
  187.9670  177.5240  142.6330 C   0  0  0  0  0  3  0  0  0  0  0  0
  189.0120  178.5330  139.8210 C   0  0  0  0  0  2  0  0  0  0  0  0
  189.3060  177.2140  140.5290 C   0  0  1  0  0  3  0  0  0  0  0  0
  191.7030  177.3860  140.7150 C   0  0  0  0  0  2  0  0  0  0  0  0
  190.8130  176.6960  138.6340 C   0  0  2  0  0  3  0  0  0  0  0  0
  189.5620  177.0490  137.8090 C   0  0  0  0  0  2  0  0  0  0  0  0
  191.7220  177.1260  142.2180 C   0  0  0  0  0  2  0  0  0  0  0  0
  187.3360  178.1870  137.9590 C   0  0  2  0  0  3  0  0  0  0  0  0
  186.5500  178.5670  139.0480 O   0  0  0  0  0  1  0  0  0  0  0  0
  185.6930  175.2530  136.1590 N   0  0  0  0  0  2  0  0  0  0  0  0
  186.9970  176.8250  137.5650 N   0  0  0  0  0  2  0  0  0  0  0  0
  185.8220  176.5170  136.8110 C   0  0  0  0  0  0  0  0  0  0  0  0
  184.8910  177.3600  136.7150 O   0  0  0  0  0  0  0  0  0  0  0  0
  186.7900  174.2990  136.0870 C   0  0  1  0  0  3  0  0  0  0  0  0
  188.0400  171.8640  135.2200 O   0  0  0  0  0  0  0  0  0  0  0  0
  186.4650  172.9420  136.7370 C   0  0  2  0  0  3  0  0  0  0  0  0
  187.2490  174.1130  134.6460 C   0  0  0  0  0  2  0  0  0  0  0  0
  188.3870  173.0870  134.5940 C   0  0  1  0  0  3  0  0  0  0  0  0
  187.7330  172.0880  136.5820 C   0  0  0  0  0  2  0  0  0  0  0  0
  189.7080  173.6530  135.1000 C   0  0  0  0  0  1  0  0  0  0  0  0
  185.2330  172.2370  136.1290 C   0  0  0  0  0  3  0  0  0  0  0  0
  183.1960  170.1120  136.0130 C   0  0  0  0  0  2  0  0  0  0  0  0
  182.8550  171.5180  136.4970 C   0  0  0  0  0  2  0  0  0  0  0  0
  184.3530  170.1610  135.0200 C   0  0  0  0  0  2  0  0  0  0  0  0
  184.0820  172.1640  137.1360 C   0  0  0  0  0  2  0  0  0  0  0  0
  185.5710  170.8130  135.6680 C   0  0  0  0  0  2  0  0  0  0  0  0
  191.4120  175.3760  138.1400 C   0  0  0  0  0  2  0  0  0  0  0  0
  195.1100  174.8910  137.1240 C   0  0  0  0  0  2  0  0  0  0  0  0
  195.1170  175.7860  135.9070 C   0  0  0  0  0  0  0  0  0  0  0  0
  192.7040  176.0710  136.1630 C   0  0  0  0  0  3  0  0  0  0  0  0
  194.0040  175.2870  138.1080 C   0  0  0  0  0  2  0  0  0  0  0  0
  192.7030  175.5670  137.4030 C   0  0  0  0  0  0  0  0  0  0  0  0
  193.9690  176.2780  135.4360 C   0  0  0  0  0  3  0  0  0  0  0  0
  196.3510  176.0310  135.1490 C   0  0  0  0  0  3  0  0  0  0  0  0
  197.4940  175.4180  135.4340 C   0  0  0  0  0  2  0  0  0  0  0  0
  1  6  1  0  0  0  0
  2 11  1  0  0  0  0
  2 12  1  1  0  0  0
  3 16  1  1  0  0  0
  3 10  1  0  0  0  0
  4  8  2  0  0  0  0
  5  1  2  0  0  0  0
  7  9  2  0  0  0  0
  7  4  1  0  0  0  0
  8  1  1  0  0  0  0
  9  5  1  0  0  0  0
 11 10  1  6  0  0  0
 11  7  1  0  0  0  0
 12 15  1  0  0  0  0
 13 35  1  6  0  0  0
 13  2  1  0  0  0  0
 14  3  1  0  0  0  0
 14 13  1  0  0  0  0
 15  4  1  0  0  0  0
 16 17  1  1  0  0  0
 18 20  1  0  0  0  0
 19 16  1  0  0  0  0
 20 19  1  0  0  0  0
 21 20  2  0  0  0  0
 22 18  1  6  0  0  0
 22 24  1  0  0  0  0
 23 27  1  0  0  0  0
 24 29  1  6  0  0  0
 25 22  1  0  0  0  0
 26 25  1  0  0  0  0
 26 28  1  1  0  0  0
 26 23  1  0  0  0  0
 27 24  1  0  0  0  0
 29 33  1  0  0  0  0
 30 31  1  0  0  0  0
 31 33  1  0  0  0  0
 32 34  1  0  0  0  0
 32 30  1  0  0  0  0
 34 29  1  0  0  0  0
 36 39  1  0  0  0  0
 37 36  1  0  0  0  0
 38 40  2  0  0  0  0
 40 39  1  0  0  0  0
 40 35  1  0  0  0  0
 41 37  2  0  0  0  0
 41 38  1  0  0  0  0
 42 43  2  0  0  0  0
 42 37  1  0  0  0  0
M  END
>  <MODEL>
2

>  <REMARK>
 VINA RESULT:      -8.6      3.301      7.811
  Name = 
  7 active torsions:
  status: ('A' for Active; 'I' for Inactive)
    1  A    between atoms: C_1  and  C_34
    2  A    between atoms: C_1  and  C_35
    3  A    between atoms: C_2  and  N_6
    4  A    between atoms: C_2  and  C_13
    5  A    between atoms: N_3  and  C_4
    6  A    between atoms: C_11  and  C_14
    7  A    between atoms: C_19  and  C_25
                            x       y       z     vdW  Elec       q    Type
                         _______ _______ _______ _____ _____    ______ ____

>  <TORSDO>
F 7

$$$$
=
 OpenBabel10262422393D

 43 48  0  0  1  0  0  0  0  0999 V2000
  180.7900  178.4720  140.4040 C   0  0  0  0  0  0  0  0  0  0  0  0
  184.7870  178.2490  143.4580 N   0  0  2  0  0  0  0  0  0  0  0  0
  187.1590  178.6210  141.6490 C   0  0  1  0  0  3  0  0  0  0  0  0
  182.3400  178.8430  142.1670 C   0  0  0  0  0  0  0  0  0  0  0  0
  181.7680  177.8240  139.6450 C   0  0  0  0  0  3  0  0  0  0  0  0
  179.4720  178.6170  139.8870 N   0  0  0  0  0  1  0  0  0  0  0  0
  183.3490  178.1860  141.4380 C   0  0  0  0  0  0  0  0  0  0  0  0
  181.0910  178.9560  141.6390 N   0  0  0  0  0  0  0  0  0  0  0  0
  183.0540  177.6850  140.1680 C   0  0  0  0  0  3  0  0  0  0  0  0
  185.7170  178.9850  141.2770 C   0  0  0  0  0  2  0  0  0  0  0  0
  184.7420  178.0550  141.9920 C   0  0  1  0  0  3  0  0  0  0  0  0
  184.0910  179.4860  143.8200 C   0  0  0  0  0  2  0  0  0  0  0  0
  186.1570  178.3480  144.0020 C   0  0  2  0  0  3  0  0  0  0  0  0
  187.2750  177.9460  143.0220 C   0  0  0  0  0  2  0  0  0  0  0  0
  182.5960  179.3350  143.5590 C   0  0  0  0  0  2  0  0  0  0  0  0
  187.7980  177.7260  140.5820 C   0  0  2  0  0  3  0  0  0  0  0  0
  189.1820  177.9020  140.5780 O   0  0  0  0  0  1  0  0  0  0  0  0
  187.6100  178.7340  136.9080 N   0  0  0  0  0  2  0  0  0  0  0  0
  187.2620  178.0360  139.2630 N   0  0  0  0  0  2  0  0  0  0  0  0
  188.0200  178.7420  138.2760 C   0  0  0  0  0  0  0  0  0  0  0  0
  189.0560  179.3760  138.6070 O   0  0  0  0  0  0  0  0  0  0  0  0
  186.5240  177.8920  136.4260 C   0  0  1  0  0  3  0  0  0  0  0  0
  184.9740  175.4770  136.3420 O   0  0  0  0  0  0  0  0  0  0  0  0
  187.0080  176.6410  135.6700 C   0  0  2  0  0  3  0  0  0  0  0  0
  185.5940  177.5070  137.5710 C   0  0  0  0  0  2  0  0  0  0  0  0
  184.4740  176.6020  137.0440 C   0  0  1  0  0  3  0  0  0  0  0  0
  185.7360  175.9000  135.2290 C   0  0  0  0  0  2  0  0  0  0  0  0
  183.4250  177.3710  136.2500 C   0  0  0  0  0  1  0  0  0  0  0  0
  187.9330  175.7270  136.5020 C   0  0  0  0  0  3  0  0  0  0  0  0
  190.1220  173.7830  136.8320 C   0  0  0  0  0  2  0  0  0  0  0  0
  190.2940  175.2500  137.2130 C   0  0  0  0  0  2  0  0  0  0  0  0
  188.6600  173.3690  136.9740 C   0  0  0  0  0  2  0  0  0  0  0  0
  189.4020  176.1270  136.3380 C   0  0  0  0  0  2  0  0  0  0  0  0
  187.7790  174.2550  136.0980 C   0  0  0  0  0  2  0  0  0  0  0  0
  186.2740  177.5320  145.2930 C   0  0  0  0  0  2  0  0  0  0  0  0
  190.1130  177.1800  145.0090 C   0  0  0  0  0  2  0  0  0  0  0  0
  190.4240  177.0250  146.4790 C   0  0  0  0  0  0  0  0  0  0  0  0
  188.0740  177.4720  146.9730 C   0  0  0  0  0  3  0  0  0  0  0  0
  188.6750  176.7580  144.6890 C   0  0  0  0  0  2  0  0  0  0  0  0
  187.6970  177.2960  145.7010 C   0  0  0  0  0  0  0  0  0  0  0  0
  189.4660  177.2280  147.3870 C   0  0  0  0  0  3  0  0  0  0  0  0
  191.7930  176.7730  146.9450 C   0  0  0  0  0  3  0  0  0  0  0  0
  192.1710  175.6020  147.4440 C   0  0  0  0  0  2  0  0  0  0  0  0
  1  8  1  0  0  0  0
  2 12  1  6  0  0  0
  2 13  1  0  0  0  0
  3 16  1  6  0  0  0
  3 14  1  0  0  0  0
  4 15  1  0  0  0  0
  5  9  1  0  0  0  0
  5  1  2  0  0  0  0
  6  1  1  0  0  0  0
  7 11  1  0  0  0  0
  7  4  1  0  0  0  0
  8  4  2  0  0  0  0
  9  7  2  0  0  0  0
 10  3  1  0  0  0  0
 11 10  1  6  0  0  0
 11  2  1  0  0  0  0
 13 35  1  1  0  0  0
 14 13  1  0  0  0  0
 15 12  1  0  0  0  0
 16 17  1  6  0  0  0
 18 20  1  0  0  0  0
 19 16  1  0  0  0  0
 20 21  2  0  0  0  0
 20 19  1  0  0  0  0
 22 18  1  1  0  0  0
 22 25  1  0  0  0  0
 23 26  1  0  0  0  0
 24 22  1  0  0  0  0
 24 29  1  1  0  0  0
 26 28  1  6  0  0  0
 26 25  1  0  0  0  0
 27 24  1  0  0  0  0
 27 23  1  0  0  0  0
 30 32  1  0  0  0  0
 30 31  1  0  0  0  0
 33 29  1  0  0  0  0
 33 31  1  0  0  0  0
 34 29  1  0  0  0  0
 34 32  1  0  0  0  0
 35 40  1  0  0  0  0
 36 37  1  0  0  0  0
 37 42  1  0  0  0  0
 37 41  2  0  0  0  0
 38 41  1  0  0  0  0
 39 36  1  0  0  0  0
 39 40  1  0  0  0  0
 40 38  2  0  0  0  0
 42 43  2  0  0  0  0
M  END
>  <MODEL>
3

>  <REMARK>
 VINA RESULT:      -8.4      2.823      7.036
  Name = 
  7 active torsions:
  status: ('A' for Active; 'I' for Inactive)
    1  A    between atoms: C_1  and  C_34
    2  A    between atoms: C_1  and  C_35
    3  A    between atoms: C_2  and  N_6
    4  A    between atoms: C_2  and  C_13
    5  A    between atoms: N_3  and  C_4
    6  A    between atoms: C_11  and  C_14
    7  A    between atoms: C_19  and  C_25
                            x       y       z     vdW  Elec       q    Type
                         _______ _______ _______ _____ _____    ______ ____

>  <TORSDO>
F 7

$$$$
=
 OpenBabel10262422393D

 43 48  0  0  1  0  0  0  0  0999 V2000
  188.1660  178.0120  148.4080 C   0  0  0  0  0  0  0  0  0  0  0  0
  187.0140  178.2470  143.5130 N   0  0  2  0  0  0  0  0  0  0  0  0
  188.9070  176.3280  142.1840 C   0  0  1  0  0  3  0  0  0  0  0  0
  187.0130  177.9870  146.3310 C   0  0  0  0  0  0  0  0  0  0  0  0
  189.3950  177.8760  147.7580 C   0  0  0  0  0  3  0  0  0  0  0  0
  188.1210  178.0970  149.8280 N   0  0  0  0  0  1  0  0  0  0  0  0
  188.2320  177.8630  145.6380 C   0  0  0  0  0  0  0  0  0  0  0  0
  187.0130  178.0720  147.6890 N   0  0  0  0  0  0  0  0  0  0  0  0
  189.4240  177.8000  146.3660 C   0  0  0  0  0  3  0  0  0  0  0  0
  188.5930  176.3390  143.6840 C   0  0  0  0  0  2  0  0  0  0  0  0
  188.2620  177.7580  144.1370 C   0  0  1  0  0  3  0  0  0  0  0  0
  185.8550  177.6210  144.1540 C   0  0  0  0  0  2  0  0  0  0  0  0
  186.9190  177.9560  142.0670 C   0  0  2  0  0  3  0  0  0  0  0  0
  188.2270  177.4700  141.4170 C   0  0  0  0  0  2  0  0  0  0  0  0
  185.7190  178.1270  145.5860 C   0  0  0  0  0  2  0  0  0  0  0  0
  190.4180  176.3700  141.9330 C   0  0  2  0  0  3  0  0  0  0  0  0
  190.9600  177.5360  142.4740 O   0  0  0  0  0  1  0  0  0  0  0  0
  192.2510  176.6920  138.6030 N   0  0  0  0  0  2  0  0  0  0  0  0
  190.7030  176.3170  140.5050 N   0  0  0  0  0  2  0  0  0  0  0  0
  191.7970  177.0250  139.9160 C   0  0  0  0  0  0  0  0  0  0  0  0
  192.3700  177.9480  140.5520 O   0  0  0  0  0  0  0  0  0  0  0  0
  191.7490  175.5340  137.8770 C   0  0  1  0  0  3  0  0  0  0  0  0
  190.4780  174.2340  135.6550 O   0  0  0  0  0  0  0  0  0  0  0  0
  190.2200  175.5400  137.6970 C   0  0  2  0  0  3  0  0  0  0  0  0
  192.4520  175.3960  136.5320 C   0  0  0  0  0  2  0  0  0  0  0  0
  191.8890  174.1860  135.7770 C   0  0  1  0  0  3  0  0  0  0  0  0
  189.8820  174.2480  136.9370 C   0  0  0  0  0  2  0  0  0  0  0  0
  192.3860  172.8610  136.3420 C   0  0  0  0  0  1  0  0  0  0  0  0
  189.6820  176.7850  136.9590 C   0  0  0  0  0  3  0  0  0  0  0  0
  187.5640  178.6680  136.1550 C   0  0  0  0  0  2  0  0  0  0  0  0
  188.6120  179.0440  137.1990 C   0  0  0  0  0  2  0  0  0  0  0  0
  188.1370  177.6480  135.1760 C   0  0  0  0  0  2  0  0  0  0  0  0
  189.0840  177.7970  137.9410 C   0  0  0  0  0  2  0  0  0  0  0  0
  188.6090  176.4080  135.9300 C   0  0  0  0  0  2  0  0  0  0  0  0
  186.3810  179.1760  141.3150 C   0  0  0  0  0  2  0  0  0  0  0  0
  182.7360  178.9600  140.0460 C   0  0  0  0  0  2  0  0  0  0  0  0
  183.0180  178.3750  138.6820 C   0  0  0  0  0  0  0  0  0  0  0  0
  185.4070  178.6340  139.1190 C   0  0  0  0  0  3  0  0  0  0  0  0
  183.8580  178.6400  141.0390 C   0  0  0  0  0  2  0  0  0  0  0  0
  185.2190  178.8420  140.4280 C   0  0  0  0  0  0  0  0  0  0  0  0
  184.2750  178.2900  138.2420 C   0  0  0  0  0  3  0  0  0  0  0  0
  181.9270  178.0080  137.7700 C   0  0  0  0  0  3  0  0  0  0  0  0
  182.1010  177.9030  136.4580 C   0  0  0  0  0  2  0  0  0  0  0  0
  1  6  1  0  0  0  0
  2 11  1  0  0  0  0
  2 12  1  1  0  0  0
  3 16  1  1  0  0  0
  3 10  1  0  0  0  0
  4  8  1  0  0  0  0
  5  1  1  0  0  0  0
  7  4  2  0  0  0  0
  7  9  1  0  0  0  0
  8  1  2  0  0  0  0
  9  5  2  0  0  0  0
 11 10  1  1  0  0  0
 11  7  1  0  0  0  0
 12 15  1  0  0  0  0
 13 35  1  6  0  0  0
 13  2  1  0  0  0  0
 14 13  1  0  0  0  0
 14  3  1  0  0  0  0
 15  4  1  0  0  0  0
 16 17  1  6  0  0  0
 18 20  1  0  0  0  0
 19 16  1  0  0  0  0
 20 19  1  0  0  0  0
 20 21  2  0  0  0  0
 22 18  1  6  0  0  0
 23 26  1  0  0  0  0
 23 27  1  0  0  0  0
 24 29  1  6  0  0  0
 24 22  1  0  0  0  0
 25 22  1  0  0  0  0
 26 28  1  1  0  0  0
 26 25  1  0  0  0  0
 27 24  1  0  0  0  0
 29 33  1  0  0  0  0
 30 31  1  0  0  0  0
 31 33  1  0  0  0  0
 32 34  1  0  0  0  0
 32 30  1  0  0  0  0
 34 29  1  0  0  0  0
 36 39  1  0  0  0  0
 37 36  1  0  0  0  0
 38 40  2  0  0  0  0
 40 39  1  0  0  0  0
 40 35  1  0  0  0  0
 41 37  2  0  0  0  0
 41 38  1  0  0  0  0
 42 37  1  0  0  0  0
 43 42  2  0  0  0  0
M  END
>  <MODEL>
4

>  <REMARK>
 VINA RESULT:      -8.4      2.110      3.963
  Name = 
  7 active torsions:
  status: ('A' for Active; 'I' for Inactive)
    1  A    between atoms: C_1  and  C_34
    2  A    between atoms: C_1  and  C_35
    3  A    between atoms: C_2  and  N_6
    4  A    between atoms: C_2  and  C_13
    5  A    between atoms: N_3  and  C_4
    6  A    between atoms: C_11  and  C_14
    7  A    between atoms: C_19  and  C_25
                            x       y       z     vdW  Elec       q    Type
                         _______ _______ _______ _____ _____    ______ ____

>  <TORSDO>
F 7

$$$$
=
 OpenBabel10262422393D

 43 48  0  0  1  0  0  0  0  0999 V2000
  193.3790  175.4980  137.4110 C   0  0  0  0  0  0  0  0  0  0  0  0
  188.5140  174.2440  137.0720 N   0  0  2  0  0  0  0  0  0  0  0  0
  187.0950  176.8250  136.4710 C   0  0  1  0  0  3  0  0  0  0  0  0
  191.3230  174.4690  136.8080 C   0  0  0  0  0  0  0  0  0  0  0  0
  192.7020  176.5900  137.9580 C   0  0  0  0  0  3  0  0  0  0  0  0
  194.8010  175.4580  137.4380 N   0  0  0  0  0  1  0  0  0  0  0  0
  190.6050  175.5460  137.3620 C   0  0  0  0  0  0  0  0  0  0  0  0
  192.6820  174.4670  136.8600 N   0  0  0  0  0  0  0  0  0  0  0  0
  191.3080  176.6120  137.9290 C   0  0  0  0  0  3  0  0  0  0  0  0
  188.6000  176.5990  136.2910 C   0  0  0  0  0  2  0  0  0  0  0  0
  189.1010  175.5810  137.3110 C   0  0  1  0  0  3  0  0  0  0  0  0
  189.1580  173.6140  135.9160 C   0  0  0  0  0  2  0  0  0  0  0  0
  187.0630  174.2730  136.7960 C   0  0  2  0  0  3  0  0  0  0  0  0
  186.3740  175.6190  137.0880 C   0  0  0  0  0  2  0  0  0  0  0  0
  190.6070  173.2760  136.2510 C   0  0  0  0  0  2  0  0  0  0  0  0
  186.8170  178.0740  137.3130 C   0  0  2  0  0  3  0  0  0  0  0  0
  187.5350  179.1590  136.8090 O   0  0  0  0  0  1  0  0  0  0  0  0
  188.4490  178.5160  140.7330 N   0  0  0  0  0  2  0  0  0  0  0  0
  187.1860  177.8480  138.7050 N   0  0  0  0  0  2  0  0  0  0  0  0
  188.3130  178.4870  139.3110 C   0  0  0  0  0  0  0  0  0  0  0  0
  189.1940  179.0300  138.5950 O   0  0  0  0  0  0  0  0  0  0  0  0
  187.3930  178.0560  141.6240 C   0  0  1  0  0  3  0  0  0  0  0  0
  186.0570  177.8660  144.1590 O   0  0  0  0  0  0  0  0  0  0  0  0
  187.8970  177.1250  142.7410 C   0  0  2  0  0  3  0  0  0  0  0  0
  186.6300  179.2390  142.2090 C   0  0  0  0  0  2  0  0  0  0  0  0
  185.5420  178.7320  143.1620 C   0  0  1  0  0  3  0  0  0  0  0  0
  186.6540  176.7340  143.5560 C   0  0  0  0  0  2  0  0  0  0  0  0
  184.3500  178.1340  142.4240 C   0  0  0  0  0  1  0  0  0  0  0  0
  188.9840  177.7570  143.6390 C   0  0  0  0  0  3  0  0  0  0  0  0
  191.4890  177.7030  145.1880 C   0  0  0  0  0  2  0  0  0  0  0  0
  191.4020  178.4030  143.8350 C   0  0  0  0  0  2  0  0  0  0  0  0
  190.1270  177.7120  145.8760 C   0  0  0  0  0  2  0  0  0  0  0  0
  190.3550  177.7230  142.9580 C   0  0  0  0  0  2  0  0  0  0  0  0
  189.0880  177.0330  144.9870 C   0  0  0  0  0  2  0  0  0  0  0  0
  186.3560  173.1460  137.5550 C   0  0  0  0  0  2  0  0  0  0  0  0
  184.5370  170.6840  135.1960 C   0  0  0  0  0  2  0  0  0  0  0  0
  183.1320  171.2060  135.3820 C   0  0  0  0  0  0  0  0  0  0  0  0
  183.9730  172.7120  137.1130 C   0  0  0  0  0  3  0  0  0  0  0  0
  185.5840  171.7590  135.5050 C   0  0  0  0  0  2  0  0  0  0  0  0
  185.2500  172.5190  136.7610 C   0  0  0  0  0  0  0  0  0  0  0  0
  182.8790  172.1120  136.3300 C   0  0  0  0  0  3  0  0  0  0  0  0
  182.0050  170.6500  134.6220 C   0  0  0  0  0  3  0  0  0  0  0  0
  180.9050  170.1980  135.2110 C   0  0  0  0  0  2  0  0  0  0  0  0
  1  6  1  0  0  0  0
  1  5  1  0  0  0  0
  2 12  1  6  0  0  0
  2 11  1  0  0  0  0
  3 14  1  0  0  0  0
  3 16  1  1  0  0  0
  4  8  1  0  0  0  0
  4  7  2  0  0  0  0
  7  9  1  0  0  0  0
  8  1  2  0  0  0  0
  9  5  2  0  0  0  0
 10  3  1  0  0  0  0
 11 10  1  6  0  0  0
 11  7  1  0  0  0  0
 12 15  1  0  0  0  0
 13  2  1  0  0  0  0
 13 14  1  0  0  0  0
 13 35  1  1  0  0  0
 15  4  1  0  0  0  0
 16 17  1  6  0  0  0
 16 19  1  0  0  0  0
 19 20  1  0  0  0  0
 20 18  1  0  0  0  0
 21 20  2  0  0  0  0
 22 18  1  1  0  0  0
 22 25  1  0  0  0  0
 22 24  1  0  0  0  0
 24 27  1  0  0  0  0
 24 29  1  1  0  0  0
 25 26  1  0  0  0  0
 26 28  1  6  0  0  0
 26 23  1  0  0  0  0
 27 23  1  0  0  0  0
 29 34  1  0  0  0  0
 30 32  1  0  0  0  0
 31 30  1  0  0  0  0
 33 29  1  0  0  0  0
 33 31  1  0  0  0  0
 34 32  1  0  0  0  0
 36 37  1  0  0  0  0
 36 39  1  0  0  0  0
 37 41  2  0  0  0  0
 39 40  1  0  0  0  0
 40 38  2  0  0  0  0
 40 35  1  0  0  0  0
 41 38  1  0  0  0  0
 42 43  2  0  0  0  0
 42 37  1  0  0  0  0
M  END
>  <MODEL>
5

>  <REMARK>
 VINA RESULT:      -8.3      3.032      8.172
  Name = 
  7 active torsions:
  status: ('A' for Active; 'I' for Inactive)
    1  A    between atoms: C_1  and  C_34
    2  A    between atoms: C_1  and  C_35
    3  A    between atoms: C_2  and  N_6
    4  A    between atoms: C_2  and  C_13
    5  A    between atoms: N_3  and  C_4
    6  A    between atoms: C_11  and  C_14
    7  A    between atoms: C_19  and  C_25
                            x       y       z     vdW  Elec       q    Type
                         _______ _______ _______ _____ _____    ______ ____

>  <TORSDO>
F 7

$$$$
=
 OpenBabel10262422393D

 43 48  0  0  1  0  0  0  0  0999 V2000
  182.5200  175.9510  135.2230 C   0  0  0  0  0  0  0  0  0  0  0  0
  187.5470  175.7770  135.4450 N   0  0  2  0  0  0  0  0  0  0  0  0
  188.2480  177.1160  138.0440 C   0  0  1  0  0  3  0  0  0  0  0  0
  184.7810  175.2190  135.2300 C   0  0  0  0  0  0  0  0  0  0  0  0
  182.8790  177.1540  135.8340 C   0  0  0  0  0  3  0  0  0  0  0  0
  181.1570  175.7010  134.8970 N   0  0  0  0  0  1  0  0  0  0  0  0
  185.1850  176.4250  135.8340 C   0  0  0  0  0  0  0  0  0  0  0  0
  183.4690  175.0210  134.9290 N   0  0  0  0  0  0  0  0  0  0  0  0
  184.2200  177.3880  136.1410 C   0  0  0  0  0  3  0  0  0  0  0  0
  186.8570  176.5780  137.6920 C   0  0  0  0  0  2  0  0  0  0  0  0
  186.6270  176.6680  136.1870 C   0  0  1  0  0  3  0  0  0  0  0  0
  187.1050  174.3870  135.5710 C   0  0  0  0  0  2  0  0  0  0  0  0
  188.9430  175.8330  135.9250 C   0  0  2  0  0  3  0  0  0  0  0  0
  189.2520  176.9930  136.8890 C   0  0  0  0  0  2  0  0  0  0  0  0
  185.7910  174.1900  134.8220 C   0  0  0  0  0  2  0  0  0  0  0  0
  188.1780  178.5730  138.5100 C   0  0  2  0  0  3  0  0  0  0  0  0
  189.0320  179.3630  137.7400 O   0  0  0  0  0  1  0  0  0  0  0  0
  188.0360  178.2930  142.3110 N   0  0  0  0  0  2  0  0  0  0  0  0
  188.5470  178.6820  139.9160 N   0  0  0  0  0  2  0  0  0  0  0  0
  187.5960  178.5170  140.9710 C   0  0  0  0  0  0  0  0  0  0  0  0
  186.3620  178.5650  140.7250 O   0  0  0  0  0  0  0  0  0  0  0  0
  189.4350  178.0600  142.6430 C   0  0  1  0  0  3  0  0  0  0  0  0
  191.5700  176.7650  144.0580 O   0  0  0  0  0  0  0  0  0  0  0  0
  189.7900  178.4300  144.0940 C   0  0  2  0  0  3  0  0  0  0  0  0
  189.8270  176.6190  142.3390 C   0  0  0  0  0  2  0  0  0  0  0  0
  191.2950  176.3930  142.7190 C   0  0  1  0  0  3  0  0  0  0  0  0
  191.2900  178.1390  144.2460 C   0  0  0  0  0  2  0  0  0  0  0  0
  192.2610  177.0240  141.7230 C   0  0  0  0  0  1  0  0  0  0  0  0
  188.9580  177.6730  145.1530 C   0  0  0  0  0  3  0  0  0  0  0  0
  187.3070  177.5040  147.5860 C   0  0  0  0  0  2  0  0  0  0  0  0
  186.6930  177.3760  146.1960 C   0  0  0  0  0  2  0  0  0  0  0  0
  188.7550  177.0240  147.5710 C   0  0  0  0  0  2  0  0  0  0  0  0
  187.5120  178.1750  145.1850 C   0  0  0  0  0  2  0  0  0  0  0  0
  189.5610  177.8270  146.5550 C   0  0  0  0  0  2  0  0  0  0  0  0
  189.9100  175.8670  134.7380 C   0  0  0  0  0  2  0  0  0  0  0  0
  193.4440  175.2140  136.1630 C   0  0  0  0  0  2  0  0  0  0  0  0
  193.5880  173.7750  135.7280 C   0  0  0  0  0  0  0  0  0  0  0  0
  191.2700  173.8260  134.9590 C   0  0  0  0  0  3  0  0  0  0  0  0
  192.4440  175.9720  135.2820 C   0  0  0  0  0  2  0  0  0  0  0  0
  191.2010  175.1610  135.0240 C   0  0  0  0  0  0  0  0  0  0  0  0
  192.5380  173.1240  135.2230 C   0  0  0  0  0  3  0  0  0  0  0  0
  194.8320  173.0300  135.9610 C   0  0  0  0  0  3  0  0  0  0  0  0
  196.0300  173.5890  135.8330 C   0  0  0  0  0  2  0  0  0  0  0  0
  1  5  1  0  0  0  0
  2 12  1  1  0  0  0
  2 13  1  0  0  0  0
  2 11  1  0  0  0  0
  3 16  1  6  0  0  0
  4  7  2  0  0  0  0
  5  9  2  0  0  0  0
  6  1  1  0  0  0  0
  7  9  1  0  0  0  0
  7 11  1  0  0  0  0
  8  1  2  0  0  0  0
  8  4  1  0  0  0  0
 10  3  1  0  0  0  0
 11 10  1  1  0  0  0
 13 35  1  6  0  0  0
 13 14  1  0  0  0  0
 14  3  1  0  0  0  0
 15  4  1  0  0  0  0
 15 12  1  0  0  0  0
 16 17  1  6  0  0  0
 16 19  1  0  0  0  0
 19 20  1  0  0  0  0
 20 18  1  0  0  0  0
 21 20  2  0  0  0  0
 22 18  1  1  0  0  0
 22 24  1  0  0  0  0
 23 27  1  0  0  0  0
 24 27  1  0  0  0  0
 24 29  1  1  0  0  0
 25 22  1  0  0  0  0
 25 26  1  0  0  0  0
 26 28  1  6  0  0  0
 26 23  1  0  0  0  0
 29 33  1  0  0  0  0
 29 34  1  0  0  0  0
 31 30  1  0  0  0  0
 32 30  1  0  0  0  0
 33 31  1  0  0  0  0
 34 32  1  0  0  0  0
 35 40  1  0  0  0  0
 37 42  1  0  0  0  0
 37 36  1  0  0  0  0
 38 40  2  0  0  0  0
 38 41  1  0  0  0  0
 39 36  1  0  0  0  0
 40 39  1  0  0  0  0
 41 37  2  0  0  0  0
 43 42  2  0  0  0  0
M  END
>  <MODEL>
6

>  <REMARK>
 VINA RESULT:      -7.9      3.154     10.390
  Name = 
  7 active torsions:
  status: ('A' for Active; 'I' for Inactive)
    1  A    between atoms: C_1  and  C_34
    2  A    between atoms: C_1  and  C_35
    3  A    between atoms: C_2  and  N_6
    4  A    between atoms: C_2  and  C_13
    5  A    between atoms: N_3  and  C_4
    6  A    between atoms: C_11  and  C_14
    7  A    between atoms: C_19  and  C_25
                            x       y       z     vdW  Elec       q    Type
                         _______ _______ _______ _____ _____    ______ ____

>  <TORSDO>
F 7

$$$$
=
 OpenBabel10262422393D

 43 48  0  0  1  0  0  0  0  0999 V2000
  185.3530  177.0270  136.0110 C   0  0  0  0  0  0  0  0  0  0  0  0
  190.2990  176.1500  135.6750 N   0  0  2  0  0  0  0  0  0  0  0  0
  191.2690  176.1130  138.5200 C   0  0  1  0  0  3  0  0  0  0  0  0
  187.4760  176.0920  135.4950 C   0  0  0  0  0  0  0  0  0  0  0  0
  185.9080  177.7840  137.0450 C   0  0  0  0  0  3  0  0  0  0  0  0
  183.9590  177.1160  135.7360 N   0  0  0  0  0  1  0  0  0  0  0  0
  188.0750  176.8490  136.5190 C   0  0  0  0  0  0  0  0  0  0  0  0
  186.1410  176.2110  135.2610 N   0  0  0  0  0  0  0  0  0  0  0  0
  187.2760  177.6910  137.2990 C   0  0  0  0  0  3  0  0  0  0  0  0
  189.8030  175.9610  138.1000 C   0  0  0  0  0  2  0  0  0  0  0  0
  189.5470  176.7310  136.8080 C   0  0  1  0  0  3  0  0  0  0  0  0
  189.6550  174.9120  135.2300 C   0  0  0  0  0  2  0  0  0  0  0  0
  191.7010  175.8150  136.0020 C   0  0  2  0  0  3  0  0  0  0  0  0
  192.2090  176.3860  137.3380 C   0  0  0  0  0  2  0  0  0  0  0  0
  188.3060  175.2290  134.5940 C   0  0  0  0  0  2  0  0  0  0  0  0
  191.4340  177.2140  139.5720 C   0  0  2  0  0  3  0  0  0  0  0  0
  192.7330  177.1990  140.0790 O   0  0  0  0  0  1  0  0  0  0  0  0
  189.8570  177.3190  143.0440 N   0  0  0  0  0  2  0  0  0  0  0  0
  190.4820  177.0310  140.6610 N   0  0  0  0  0  2  0  0  0  0  0  0
  190.8560  177.1680  142.0350 C   0  0  0  0  0  0  0  0  0  0  0  0
  192.0710  177.1580  142.3640 O   0  0  0  0  0  0  0  0  0  0  0  0
  188.4490  177.5050  142.7230 C   0  0  1  0  0  3  0  0  0  0  0  0
  185.8540  178.6800  143.0820 O   0  0  0  0  0  0  0  0  0  0  0  0
  187.5000  177.0520  143.8470 C   0  0  2  0  0  3  0  0  0  0  0  0
  188.1730  178.9520  142.3310 C   0  0  0  0  0  2  0  0  0  0  0  0
  186.6820  179.1280  142.0220 C   0  0  1  0  0  3  0  0  0  0  0  0
  186.0780  177.3040  143.3220 C   0  0  0  0  0  2  0  0  0  0  0  0
  186.2890  178.5310  140.6760 C   0  0  0  0  0  1  0  0  0  0  0  0
  187.7390  177.7680  145.1940 C   0  0  0  0  0  3  0  0  0  0  0  0
  187.8560  177.8920  148.1350 C   0  0  0  0  0  2  0  0  0  0  0  0
  189.1230  177.8540  147.2870 C   0  0  0  0  0  2  0  0  0  0  0  0
  186.7180  178.5440  147.3540 C   0  0  0  0  0  2  0  0  0  0  0  0
  188.8630  177.0970  145.9870 C   0  0  0  0  0  2  0  0  0  0  0  0
  186.4700  177.7810  146.0560 C   0  0  0  0  0  2  0  0  0  0  0  0
  192.6280  176.2460  134.8610 C   0  0  0  0  0  2  0  0  0  0  0  0
  195.8350  174.1030  135.1130 C   0  0  0  0  0  2  0  0  0  0  0  0
  196.8120  175.2130  135.4200 C   0  0  0  0  0  0  0  0  0  0  0  0
  195.0120  176.8270  135.0700 C   0  0  0  0  0  3  0  0  0  0  0  0
  194.4070  174.4790  135.5230 C   0  0  0  0  0  2  0  0  0  0  0  0
  194.0610  175.8860  135.1140 C   0  0  0  0  0  0  0  0  0  0  0  0
  196.4210  176.4870  135.3320 C   0  0  0  0  0  3  0  0  0  0  0  0
  198.2260  174.9290  135.6960 C   0  0  0  0  0  3  0  0  0  0  0  0
  198.6220  174.2880  136.7890 C   0  0  0  0  0  2  0  0  0  0  0  0
  1  5  1  0  0  0  0
  2 12  1  1  0  0  0
  2 13  1  0  0  0  0
  2 11  1  0  0  0  0
  3 16  1  1  0  0  0
  4  7  2  0  0  0  0
  5  9  2  0  0  0  0
  6  1  1  0  0  0  0
  7 11  1  0  0  0  0
  7  9  1  0  0  0  0
  8  4  1  0  0  0  0
  8  1  2  0  0  0  0
 10  3  1  0  0  0  0
 11 10  1  1  0  0  0
 13 35  1  6  0  0  0
 13 14  1  0  0  0  0
 14  3  1  0  0  0  0
 15 12  1  0  0  0  0
 15  4  1  0  0  0  0
 16 17  1  1  0  0  0
 16 19  1  0  0  0  0
 19 20  1  0  0  0  0
 20 21  2  0  0  0  0
 20 18  1  0  0  0  0
 22 18  1  1  0  0  0
 22 24  1  0  0  0  0
 23 27  1  0  0  0  0
 24 29  1  1  0  0  0
 25 22  1  0  0  0  0
 26 28  1  6  0  0  0
 26 25  1  0  0  0  0
 26 23  1  0  0  0  0
 27 24  1  0  0  0  0
 29 33  1  0  0  0  0
 29 34  1  0  0  0  0
 31 30  1  0  0  0  0
 32 30  1  0  0  0  0
 33 31  1  0  0  0  0
 34 32  1  0  0  0  0
 35 40  1  0  0  0  0
 36 37  1  0  0  0  0
 36 39  1  0  0  0  0
 37 42  1  0  0  0  0
 38 40  2  0  0  0  0
 38 41  1  0  0  0  0
 40 39  1  0  0  0  0
 41 37  2  0  0  0  0
 42 43  2  0  0  0  0
M  END
>  <MODEL>
7

>  <REMARK>
 VINA RESULT:      -7.9      3.105     10.779
  Name = 
  7 active torsions:
  status: ('A' for Active; 'I' for Inactive)
    1  A    between atoms: C_1  and  C_34
    2  A    between atoms: C_1  and  C_35
    3  A    between atoms: C_2  and  N_6
    4  A    between atoms: C_2  and  C_13
    5  A    between atoms: N_3  and  C_4
    6  A    between atoms: C_11  and  C_14
    7  A    between atoms: C_19  and  C_25
                            x       y       z     vdW  Elec       q    Type
                         _______ _______ _______ _____ _____    ______ ____

>  <TORSDO>
F 7

$$$$
=
 OpenBabel10262422393D

 43 48  0  0  1  0  0  0  0  0999 V2000
  190.5010  176.9130  146.4050 C   0  0  0  0  0  0  0  0  0  0  0  0
  189.8840  176.8700  141.4080 N   0  0  2  0  0  0  0  0  0  0  0  0
  187.7830  178.9520  140.8750 C   0  0  1  0  0  3  0  0  0  0  0  0
  190.8700  176.9840  144.0590 C   0  0  0  0  0  0  0  0  0  0  0  0
  189.1360  177.1460  146.2250 C   0  0  0  0  0  3  0  0  0  0  0  0
  191.0250  176.7520  147.7190 N   0  0  0  0  0  1  0  0  0  0  0  0
  189.4980  177.2070  143.8350 C   0  0  0  0  0  0  0  0  0  0  0  0
  191.3300  176.8300  145.3300 N   0  0  0  0  0  0  0  0  0  0  0  0
  188.6360  177.2960  144.9310 C   0  0  0  0  0  3  0  0  0  0  0  0
  188.5920  178.8470  142.1720 C   0  0  0  0  0  2  0  0  0  0  0  0
  188.9620  177.3920  142.4410 C   0  0  1  0  0  3  0  0  0  0  0  0
  191.2320  177.4000  141.6280 C   0  0  0  0  0  2  0  0  0  0  0  0
  189.4970  177.2300  140.0290 C   0  0  2  0  0  3  0  0  0  0  0  0
  188.0810  177.8170  139.8860 C   0  0  0  0  0  2  0  0  0  0  0  0
  191.8170  176.8150  142.9090 C   0  0  0  0  0  2  0  0  0  0  0  0
  186.2790  179.0030  141.1610 C   0  0  2  0  0  3  0  0  0  0  0  0
  186.0090  178.4360  142.4070 O   0  0  0  0  0  1  0  0  0  0  0  0
  184.2120  178.3050  138.0310 N   0  0  0  0  0  2  0  0  0  0  0  0
  185.5360  178.2900  140.1290 N   0  0  0  0  0  2  0  0  0  0  0  0
  184.6540  178.9580  139.2220 C   0  0  0  0  0  0  0  0  0  0  0  0
  184.2610  180.1290  139.4680 O   0  0  0  0  0  0  0  0  0  0  0  0
  184.7520  177.0230  137.6010 C   0  0  1  0  0  3  0  0  0  0  0  0
  184.7370  174.6070  136.0500 O   0  0  0  0  0  0  0  0  0  0  0  0
  183.8550  175.8270  137.9670 C   0  0  2  0  0  3  0  0  0  0  0  0
  185.0490  177.0400  136.1060 C   0  0  0  0  0  2  0  0  0  0  0  0
  185.5930  175.6730  135.6730 C   0  0  1  0  0  3  0  0  0  0  0  0
  184.5900  174.5790  137.4560 C   0  0  0  0  0  2  0  0  0  0  0  0
  187.0360  175.4510  136.1110 C   0  0  0  0  0  1  0  0  0  0  0  0
  182.4260  175.9170  137.3870 C   0  0  0  0  0  3  0  0  0  0  0  0
  179.5320  175.3680  137.4000 C   0  0  0  0  0  2  0  0  0  0  0  0
  180.0840  176.7480  137.7460 C   0  0  0  0  0  2  0  0  0  0  0  0
  180.4750  174.6470  136.4410 C   0  0  0  0  0  2  0  0  0  0  0  0
  181.4740  176.6170  138.3620 C   0  0  0  0  0  2  0  0  0  0  0  0
  181.8630  174.5270  137.0660 C   0  0  0  0  0  2  0  0  0  0  0  0
  189.6600  176.0230  139.1000 C   0  0  0  0  0  2  0  0  0  0  0  0
  193.3400  176.2170  137.9330 C   0  0  0  0  0  2  0  0  0  0  0  0
  193.0920  176.2320  136.4430 C   0  0  0  0  0  0  0  0  0  0  0  0
  190.7190  175.8570  136.8830 C   0  0  0  0  0  3  0  0  0  0  0  0
  192.1250  176.7310  138.7120 C   0  0  0  0  0  2  0  0  0  0  0  0
  190.8380  176.1560  138.1820 C   0  0  0  0  0  0  0  0  0  0  0  0
  191.8660  175.9990  135.9700 C   0  0  0  0  0  3  0  0  0  0  0  0
  194.1980  176.3790  135.4880 C   0  0  0  0  0  3  0  0  0  0  0  0
  195.4030  175.8680  135.7120 C   0  0  0  0  0  2  0  0  0  0  0  0
  1  6  1  0  0  0  0
  2 12  1  1  0  0  0
  2 11  1  0  0  0  0
  3 16  1  1  0  0  0
  3 10  1  0  0  0  0
  4  8  1  0  0  0  0
  5  1  1  0  0  0  0
  7  4  2  0  0  0  0
  7  9  1  0  0  0  0
  8  1  2  0  0  0  0
  9  5  2  0  0  0  0
 11 10  1  6  0  0  0
 11  7  1  0  0  0  0
 12 15  1  0  0  0  0
 13 35  1  6  0  0  0
 13  2  1  0  0  0  0
 14 13  1  0  0  0  0
 14  3  1  0  0  0  0
 15  4  1  0  0  0  0
 16 17  1  1  0  0  0
 18 20  1  0  0  0  0
 19 16  1  0  0  0  0
 20 21  2  0  0  0  0
 20 19  1  0  0  0  0
 22 24  1  0  0  0  0
 22 18  1  6  0  0  0
 23 27  1  0  0  0  0
 24 29  1  6  0  0  0
 25 22  1  0  0  0  0
 26 23  1  0  0  0  0
 26 25  1  0  0  0  0
 26 28  1  1  0  0  0
 27 24  1  0  0  0  0
 29 33  1  0  0  0  0
 30 31  1  0  0  0  0
 31 33  1  0  0  0  0
 32 34  1  0  0  0  0
 32 30  1  0  0  0  0
 34 29  1  0  0  0  0
 36 39  1  0  0  0  0
 37 36  1  0  0  0  0
 38 40  2  0  0  0  0
 40 39  1  0  0  0  0
 40 35  1  0  0  0  0
 41 37  2  0  0  0  0
 41 38  1  0  0  0  0
 42 43  2  0  0  0  0
 42 37  1  0  0  0  0
M  END
>  <MODEL>
8

>  <REMARK>
 VINA RESULT:      -7.8      2.934      8.135
  Name = 
  7 active torsions:
  status: ('A' for Active; 'I' for Inactive)
    1  A    between atoms: C_1  and  C_34
    2  A    between atoms: C_1  and  C_35
    3  A    between atoms: C_2  and  N_6
    4  A    between atoms: C_2  and  C_13
    5  A    between atoms: N_3  and  C_4
    6  A    between atoms: C_11  and  C_14
    7  A    between atoms: C_19  and  C_25
                            x       y       z     vdW  Elec       q    Type
                         _______ _______ _______ _____ _____    ______ ____

>  <TORSDO>
F 7

$$$$
=
 OpenBabel10262422393D

 43 48  0  0  1  0  0  0  0  0999 V2000
  183.5480  179.1900  139.5590 C   0  0  0  0  0  0  0  0  0  0  0  0
  188.2330  177.6810  140.6150 N   0  0  2  0  0  0  0  0  0  0  0  0
  189.7240  177.9270  138.0170 C   0  0  1  0  0  3  0  0  0  0  0  0
  185.7020  178.9430  140.5320 C   0  0  0  0  0  0  0  0  0  0  0  0
  183.9620  178.5210  138.4050 C   0  0  0  0  0  3  0  0  0  0  0  0
  182.2110  179.6690  139.6590 N   0  0  0  0  0  1  0  0  0  0  0  0
  186.1540  178.2520  139.3910 C   0  0  0  0  0  0  0  0  0  0  0  0
  184.4140  179.3790  140.5910 N   0  0  0  0  0  0  0  0  0  0  0  0
  185.2740  178.0530  138.3240 C   0  0  0  0  0  3  0  0  0  0  0  0
  188.3890  178.6140  138.3200 C   0  0  0  0  0  2  0  0  0  0  0  0
  187.5750  177.7670  139.2930 C   0  0  1  0  0  3  0  0  0  0  0  0
  188.0580  178.9390  141.3440 C   0  0  0  0  0  2  0  0  0  0  0  0
  189.6860  177.4230  140.5390 C   0  0  2  0  0  3  0  0  0  0  0  0
  190.1990  177.0060  139.1490 C   0  0  0  0  0  2  0  0  0  0  0  0
  186.5920  179.1180  141.7240 C   0  0  0  0  0  2  0  0  0  0  0  0
  189.6590  177.1370  136.7070 C   0  0  2  0  0  3  0  0  0  0  0  0
  189.8160  177.9990  135.6200 O   0  0  0  0  0  1  0  0  0  0  0  0
  186.4000  175.7820  135.2580 N   0  0  0  0  0  2  0  0  0  0  0  0
  188.3860  176.4360  136.5930 N   0  0  0  0  0  2  0  0  0  0  0  0
  187.4580  176.7000  135.5370 C   0  0  0  0  0  0  0  0  0  0  0  0
  187.5690  177.7450  134.8430 O   0  0  0  0  0  0  0  0  0  0  0  0
  186.3090  174.4810  135.9050 C   0  0  1  0  0  3  0  0  0  0  0  0
  184.9730  172.0400  136.6150 O   0  0  0  0  0  0  0  0  0  0  0  0
  185.2550  174.4270  137.0250 C   0  0  2  0  0  3  0  0  0  0  0  0
  186.0610  173.3840  134.8750 C   0  0  0  0  0  2  0  0  0  0  0  0
  185.9440  172.0290  135.5820 C   0  0  1  0  0  3  0  0  0  0  0  0
  185.3180  173.0010  137.5940 C   0  0  0  0  0  2  0  0  0  0  0  0
  187.2930  171.4940  136.0500 C   0  0  0  0  0  1  0  0  0  0  0  0
  183.8270  174.7840  136.5580 C   0  0  0  0  0  3  0  0  0  0  0  0
  181.4430  176.5100  136.4370 C   0  0  0  0  0  2  0  0  0  0  0  0
  182.4060  176.3960  135.2590 C   0  0  0  0  0  2  0  0  0  0  0  0
  181.4520  175.2210  137.2530 C   0  0  0  0  0  2  0  0  0  0  0  0
  183.8150  176.0920  135.7610 C   0  0  0  0  0  2  0  0  0  0  0  0
  182.8660  174.9260  137.7460 C   0  0  0  0  0  2  0  0  0  0  0  0
  190.0950  176.3800  141.5840 C   0  0  0  0  0  2  0  0  0  0  0  0
  189.9300  178.2770  144.9480 C   0  0  0  0  0  2  0  0  0  0  0  0
  188.7250  177.5770  145.5300 C   0  0  0  0  0  0  0  0  0  0  0  0
  188.4360  176.4090  143.4040 C   0  0  0  0  0  3  0  0  0  0  0  0
  190.6370  177.4070  143.9030 C   0  0  0  0  0  2  0  0  0  0  0  0
  189.6560  176.7480  142.9690 C   0  0  0  0  0  0  0  0  0  0  0  0
  188.0010  176.7530  144.7690 C   0  0  0  0  0  3  0  0  0  0  0  0
  188.2530  177.8760  146.8880 C   0  0  0  0  0  3  0  0  0  0  0  0
  189.0550  177.8330  147.9450 C   0  0  0  0  0  2  0  0  0  0  0  0
  1  6  1  0  0  0  0
  1  8  1  0  0  0  0
  2 12  1  6  0  0  0
  3 16  1  6  0  0  0
  3 10  1  0  0  0  0
  3 14  1  0  0  0  0
  4  8  2  0  0  0  0
  4 15  1  0  0  0  0
  5  1  2  0  0  0  0
  7  4  1  0  0  0  0
  9  5  1  0  0  0  0
  9  7  2  0  0  0  0
 11 10  1  6  0  0  0
 11  7  1  0  0  0  0
 11  2  1  0  0  0  0
 12 15  1  0  0  0  0
 13  2  1  0  0  0  0
 13 35  1  1  0  0  0
 14 13  1  0  0  0  0
 16 17  1  6  0  0  0
 18 20  1  0  0  0  0
 19 16  1  0  0  0  0
 20 19  1  0  0  0  0
 21 20  2  0  0  0  0
 22 18  1  6  0  0  0
 22 24  1  0  0  0  0
 23 27  1  0  0  0  0
 24 29  1  6  0  0  0
 24 27  1  0  0  0  0
 25 26  1  0  0  0  0
 25 22  1  0  0  0  0
 26 28  1  1  0  0  0
 26 23  1  0  0  0  0
 29 34  1  0  0  0  0
 30 32  1  0  0  0  0
 31 33  1  0  0  0  0
 31 30  1  0  0  0  0
 32 34  1  0  0  0  0
 33 29  1  0  0  0  0
 35 40  1  0  0  0  0
 36 37  1  0  0  0  0
 37 42  1  0  0  0  0
 38 41  1  0  0  0  0
 39 36  1  0  0  0  0
 40 38  2  0  0  0  0
 40 39  1  0  0  0  0
 41 37  2  0  0  0  0
 42 43  2  0  0  0  0
M  END
>  <MODEL>
9

>  <REMARK>
 VINA RESULT:      -7.7      3.543      7.401
  Name = 
  7 active torsions:
  status: ('A' for Active; 'I' for Inactive)
    1  A    between atoms: C_1  and  C_34
    2  A    between atoms: C_1  and  C_35
    3  A    between atoms: C_2  and  N_6
    4  A    between atoms: C_2  and  C_13
    5  A    between atoms: N_3  and  C_4
    6  A    between atoms: C_11  and  C_14
    7  A    between atoms: C_19  and  C_25
                            x       y       z     vdW  Elec       q    Type
                         _______ _______ _______ _____ _____    ______ ____

>  <TORSDO>
F 7

$$$$
