=
 OpenBabel10252415023D

 34 39  0  0  1  0  0  0  0  0999 V2000
  185.8950  178.0020  144.0840 C   0  0  0  0  0  0  0  0  0  0  0  0
  185.9950  178.6280  141.6300 C   0  0  2  0  0  3  0  0  0  0  0  0
  188.0140  177.6970  142.8980 C   0  0  0  0  0  0  0  0  0  0  0  0
  190.1750  177.2910  141.7840 C   0  0  0  0  0  0  0  0  0  0  0  0
  183.8510  178.5910  142.8730 C   0  0  0  0  0  3  0  0  0  0  0  0
  184.4970  178.7310  141.7170 C   0  0  0  0  0  3  0  0  0  0  0  0
  188.4270  177.7600  140.3170 C   0  0  0  0  0  2  0  0  0  0  0  0
  186.6420  178.0650  142.8820 C   0  0  0  0  0  0  0  0  0  0  0  0
  190.8360  177.1840  140.4730 C   0  0  0  0  0  2  0  0  0  0  0  0
  184.5850  178.2600  144.1020 C   0  0  0  0  0  3  0  0  0  0  0  0
  188.6410  177.3440  144.1270 C   0  0  0  0  0  0  0  0  0  0  0  0
  186.5140  177.6320  145.2750 C   0  0  0  0  0  3  0  0  0  0  0  0
  186.5110  179.8870  141.3780 F   0  0  0  0  0  0  0  0  0  0  0  0
  190.7190  176.9690  142.9120 N   0  0  0  0  0  0  0  0  0  0  0  0
  189.9700  177.0170  144.1450 C   0  0  0  0  0  0  0  0  0  0  0  0
  189.7130  177.5500  139.4950 C   0  0  1  0  0  3  0  0  0  0  0  0
  188.8260  177.6750  141.7090 N   0  0  0  0  0  0  0  0  0  0  0  0
  187.8670  177.3150  145.2950 C   0  0  0  0  0  3  0  0  0  0  0  0
  191.2640  177.0380  147.7280 C   0  0  0  0  0  0  0  0  0  0  0  0
  192.2120  176.0140  147.6720 C   0  0  0  0  0  3  0  0  0  0  0  0
  190.7100  176.6630  145.3860 C   0  0  0  0  0  0  0  0  0  0  0  0
  192.4210  175.3210  146.4780 C   0  0  0  0  0  3  0  0  0  0  0  0
  190.5220  177.3650  146.5890 C   0  0  0  0  0  3  0  0  0  0  0  0
  191.6780  175.6480  145.3410 C   0  0  0  0  0  3  0  0  0  0  0  0
  191.0650  177.7160  148.8830 F   0  0  0  0  0  0  0  0  0  0  0  0
  189.5200  176.4660  138.5460 N   0  0  0  0  0  2  0  0  0  0  0  0
  188.7760  177.0070  137.4220 C   0  0  0  0  0  2  0  0  0  0  0  0
  186.0710  178.2220  137.6690 C   0  0  0  0  0  1  0  0  0  0  0  0
  187.5320  176.2090  137.2090 C   0  0  0  0  0  0  0  0  0  0  0  0
  186.2540  176.7850  137.3130 C   0  0  0  0  0  0  0  0  0  0  0  0
  185.2780  174.6530  136.7460 C   0  0  0  0  0  3  0  0  0  0  0  0
  186.5240  174.1150  136.6430 N   0  0  0  0  0  0  0  0  0  0  0  0
  187.6410  174.8590  136.8630 C   0  0  0  0  0  3  0  0  0  0  0  0
  185.1230  175.9990  137.0820 C   0  0  0  0  0  3  0  0  0  0  0  0
  1 10  2  0  0  0  0
  1 12  1  0  0  0  0
  2 13  1  1  0  0  0
  2  6  1  0  0  0  0
  2  8  1  0  0  0  0
  3 11  1  0  0  0  0
  4 14  2  0  0  0  0
  5 10  1  0  0  0  0
  6  5  2  0  0  0  0
  7 17  1  0  0  0  0
  8  3  2  0  0  0  0
  8  1  1  0  0  0  0
  9  4  1  0  0  0  0
 11 15  2  0  0  0  0
 11 18  1  0  0  0  0
 12 18  2  0  0  0  0
 14 15  1  0  0  0  0
 15 21  1  0  0  0  0
 16 26  1  6  0  0  0
 16  7  1  0  0  0  0
 16  9  1  0  0  0  0
 17  4  1  0  0  0  0
 17  3  1  0  0  0  0
 19 25  1  0  0  0  0
 20 19  1  0  0  0  0
 21 23  1  0  0  0  0
 22 20  2  0  0  0  0
 23 19  2  0  0  0  0
 24 21  2  0  0  0  0
 24 22  1  0  0  0  0
 27 26  1  0  0  0  0
 29 30  1  0  0  0  0
 29 27  1  0  0  0  0
 30 28  1  0  0  0  0
 31 34  1  0  0  0  0
 32 31  2  0  0  0  0
 32 33  1  0  0  0  0
 33 29  2  0  0  0  0
 34 30  2  0  0  0  0
M  END
>  <MODEL>
1

>  <REMARK>
 VINA RESULT:     -10.1      0.000      0.000
  Name = 
  4 active torsions:
  status: ('A' for Active; 'I' for Inactive)
    1  A    between atoms: C_3  and  C_13
    2  A    between atoms: C_3  and  N_17
    3  A    between atoms: C_12  and  C_28
    4  A    between atoms: N_17  and  C_29
                            x       y       z     vdW  Elec       q    Type
                         _______ _______ _______ _____ _____    ______ ____

>  <TORSDO>
F 4

$$$$
=
 OpenBabel10252415023D

 34 39  0  0  1  0  0  0  0  0999 V2000
  189.3560  177.2490  146.6690 C   0  0  0  0  0  0  0  0  0  0  0  0
  191.1660  176.3290  145.1510 C   0  0  2  0  0  3  0  0  0  0  0  0
  188.9190  177.1720  144.2620 C   0  0  0  0  0  0  0  0  0  0  0  0
  188.4020  177.1990  141.8520 C   0  0  0  0  0  0  0  0  0  0  0  0
  191.5830  176.7530  147.5580 C   0  0  0  0  0  3  0  0  0  0  0  0
  192.0560  176.4060  146.3620 C   0  0  0  0  0  3  0  0  0  0  0  0
  190.6380  176.7600  142.3350 C   0  0  0  0  0  2  0  0  0  0  0  0
  189.8010  176.9610  145.3550 C   0  0  0  0  0  0  0  0  0  0  0  0
  188.9890  177.0770  140.5080 C   0  0  0  0  0  2  0  0  0  0  0  0
  190.1750  177.1420  147.7190 C   0  0  0  0  0  3  0  0  0  0  0  0
  187.5810  177.5950  144.5010 C   0  0  0  0  0  0  0  0  0  0  0  0
  188.0530  177.6840  146.8870 C   0  0  0  0  0  3  0  0  0  0  0  0
  191.0060  175.0000  144.8030 F   0  0  0  0  0  0  0  0  0  0  0  0
  187.1930  177.5890  142.0960 N   0  0  0  0  0  0  0  0  0  0  0  0
  186.7230  177.7720  143.4490 C   0  0  0  0  0  0  0  0  0  0  0  0
  190.4520  176.7250  140.8060 C   0  0  1  0  0  3  0  0  0  0  0  0
  189.3140  176.9620  142.8930 N   0  0  0  0  0  0  0  0  0  0  0  0
  187.1780  177.8480  145.8200 C   0  0  0  0  0  3  0  0  0  0  0  0
  183.1100  178.7060  142.6880 C   0  0  0  0  0  0  0  0  0  0  0  0
  182.6570  179.0690  143.9590 C   0  0  0  0  0  3  0  0  0  0  0  0
  185.3030  178.1850  143.6090 C   0  0  0  0  0  0  0  0  0  0  0  0
  183.5230  179.0030  145.0520 C   0  0  0  0  0  3  0  0  0  0  0  0
  184.4270  178.2730  142.5130 C   0  0  0  0  0  3  0  0  0  0  0  0
  184.8400  178.5690  144.8760 C   0  0  0  0  0  3  0  0  0  0  0  0
  182.2740  178.7770  141.6250 F   0  0  0  0  0  0  0  0  0  0  0  0
  191.3250  177.7050  140.1820 N   0  0  0  0  0  2  0  0  0  0  0  0
  191.2270  177.5120  138.7450 C   0  0  0  0  0  2  0  0  0  0  0  0
  190.1370  175.1010  137.3840 C   0  0  0  0  0  1  0  0  0  0  0  0
  192.1060  176.3790  138.3270 C   0  0  0  0  0  0  0  0  0  0  0  0
  191.5930  175.2450  137.6720 C   0  0  0  0  0  0  0  0  0  0  0  0
  193.8280  174.3450  137.5440 C   0  0  0  0  0  3  0  0  0  0  0  0
  194.3060  175.4530  138.1720 N   0  0  0  0  0  0  0  0  0  0  0  0
  193.4820  176.4620  138.5620 C   0  0  0  0  0  3  0  0  0  0  0  0
  192.4620  174.2230  137.2830 C   0  0  0  0  0  3  0  0  0  0  0  0
  1 12  1  0  0  0  0
  1 10  2  0  0  0  0
  2 13  1  1  0  0  0
  2  8  1  0  0  0  0
  2  6  1  0  0  0  0
  3 11  1  0  0  0  0
  3  8  2  0  0  0  0
  4 14  2  0  0  0  0
  4 17  1  0  0  0  0
  5 10  1  0  0  0  0
  6  5  2  0  0  0  0
  7 17  1  0  0  0  0
  8  1  1  0  0  0  0
  9 16  1  0  0  0  0
  9  4  1  0  0  0  0
 11 18  1  0  0  0  0
 14 15  1  0  0  0  0
 15 21  1  0  0  0  0
 15 11  2  0  0  0  0
 16 26  1  6  0  0  0
 16  7  1  0  0  0  0
 17  3  1  0  0  0  0
 18 12  2  0  0  0  0
 19 20  1  0  0  0  0
 20 22  2  0  0  0  0
 21 24  2  0  0  0  0
 23 19  2  0  0  0  0
 23 21  1  0  0  0  0
 24 22  1  0  0  0  0
 25 19  1  0  0  0  0
 27 26  1  0  0  0  0
 28 30  1  0  0  0  0
 29 33  1  0  0  0  0
 29 27  1  0  0  0  0
 30 29  2  0  0  0  0
 31 32  1  0  0  0  0
 32 33  2  0  0  0  0
 34 31  2  0  0  0  0
 34 30  1  0  0  0  0
M  END
>  <MODEL>
2

>  <REMARK>
 VINA RESULT:     -10.0      2.560      6.227
  Name = 
  4 active torsions:
  status: ('A' for Active; 'I' for Inactive)
    1  A    between atoms: C_3  and  C_13
    2  A    between atoms: C_3  and  N_17
    3  A    between atoms: C_12  and  C_28
    4  A    between atoms: N_17  and  C_29
                            x       y       z     vdW  Elec       q    Type
                         _______ _______ _______ _____ _____    ______ ____

>  <TORSDO>
F 4

$$$$
=
 OpenBabel10252415023D

 34 39  0  0  1  0  0  0  0  0999 V2000
  185.3070  178.1630  144.0340 C   0  0  0  0  0  0  0  0  0  0  0  0
  185.3790  178.7450  141.5680 C   0  0  2  0  0  3  0  0  0  0  0  0
  187.4360  177.9270  142.8510 C   0  0  0  0  0  0  0  0  0  0  0  0
  189.6120  177.5930  141.7410 C   0  0  0  0  0  0  0  0  0  0  0  0
  183.2380  178.6390  142.8140 C   0  0  0  0  0  3  0  0  0  0  0  0
  183.8780  178.7850  141.6550 C   0  0  0  0  0  3  0  0  0  0  0  0
  187.8450  177.9570  140.2680 C   0  0  0  0  0  2  0  0  0  0  0  0
  186.0500  178.2340  142.8300 C   0  0  0  0  0  0  0  0  0  0  0  0
  190.2770  177.4890  140.4320 C   0  0  0  0  0  2  0  0  0  0  0  0
  183.9870  178.3650  144.0490 C   0  0  0  0  0  3  0  0  0  0  0  0
  188.0790  177.6250  144.0850 C   0  0  0  0  0  0  0  0  0  0  0  0
  185.9410  177.8430  145.2300 C   0  0  0  0  0  3  0  0  0  0  0  0
  185.8390  180.0200  141.2900 F   0  0  0  0  0  0  0  0  0  0  0  0
  190.1700  177.3170  142.8750 N   0  0  0  0  0  0  0  0  0  0  0  0
  189.4200  177.3560  144.1080 C   0  0  0  0  0  0  0  0  0  0  0  0
  189.1380  177.7880  139.4480 C   0  0  1  0  0  3  0  0  0  0  0  0
  188.2480  177.9170  141.6610 N   0  0  0  0  0  0  0  0  0  0  0  0
  187.3070  177.5850  145.2550 C   0  0  0  0  0  3  0  0  0  0  0  0
  190.5860  177.3730  147.7350 C   0  0  0  0  0  0  0  0  0  0  0  0
  191.7030  176.5380  147.6570 C   0  0  0  0  0  3  0  0  0  0  0  0
  190.1760  177.0590  145.3550 C   0  0  0  0  0  0  0  0  0  0  0  0
  192.0670  175.9720  146.4340 C   0  0  0  0  0  3  0  0  0  0  0  0
  189.8310  177.6380  146.5880 C   0  0  0  0  0  3  0  0  0  0  0  0
  191.3110  176.2360  145.2890 C   0  0  0  0  0  3  0  0  0  0  0  0
  190.2360  177.9290  148.9190 F   0  0  0  0  0  0  0  0  0  0  0  0
  188.9920  176.6780  138.5220 N   0  0  0  0  0  2  0  0  0  0  0  0
  189.9220  176.9070  137.4290 C   0  0  0  0  0  2  0  0  0  0  0  0
  192.8080  176.4400  137.9840 C   0  0  0  0  0  1  0  0  0  0  0  0
  190.5960  175.6260  137.0640 C   0  0  0  0  0  0  0  0  0  0  0  0
  191.9570  175.3990  137.3380 C   0  0  0  0  0  0  0  0  0  0  0  0
  191.7490  173.1890  136.3930 C   0  0  0  0  0  3  0  0  0  0  0  0
  190.4330  173.4240  136.1430 N   0  0  0  0  0  0  0  0  0  0  0  0
  189.8470  174.6080  136.4650 C   0  0  0  0  0  3  0  0  0  0  0  0
  192.5330  174.1740  136.9960 C   0  0  0  0  0  3  0  0  0  0  0  0
  1 10  2  0  0  0  0
  1 12  1  0  0  0  0
  2 13  1  1  0  0  0
  2  6  1  0  0  0  0
  2  8  1  0  0  0  0
  3 11  1  0  0  0  0
  4 14  2  0  0  0  0
  5 10  1  0  0  0  0
  6  5  2  0  0  0  0
  7 17  1  0  0  0  0
  8  3  2  0  0  0  0
  8  1  1  0  0  0  0
  9  4  1  0  0  0  0
 11 15  2  0  0  0  0
 11 18  1  0  0  0  0
 12 18  2  0  0  0  0
 14 15  1  0  0  0  0
 15 21  1  0  0  0  0
 16 26  1  6  0  0  0
 16  7  1  0  0  0  0
 16  9  1  0  0  0  0
 17  4  1  0  0  0  0
 17  3  1  0  0  0  0
 19 25  1  0  0  0  0
 20 19  1  0  0  0  0
 21 23  1  0  0  0  0
 22 20  2  0  0  0  0
 23 19  2  0  0  0  0
 24 21  2  0  0  0  0
 24 22  1  0  0  0  0
 27 26  1  0  0  0  0
 29 30  1  0  0  0  0
 29 27  1  0  0  0  0
 30 28  1  0  0  0  0
 31 34  1  0  0  0  0
 32 31  2  0  0  0  0
 32 33  1  0  0  0  0
 33 29  2  0  0  0  0
 34 30  2  0  0  0  0
M  END
>  <MODEL>
3

>  <REMARK>
 VINA RESULT:     -10.0      1.756      2.595
  Name = 
  4 active torsions:
  status: ('A' for Active; 'I' for Inactive)
    1  A    between atoms: C_3  and  C_13
    2  A    between atoms: C_3  and  N_17
    3  A    between atoms: C_12  and  C_28
    4  A    between atoms: N_17  and  C_29
                            x       y       z     vdW  Elec       q    Type
                         _______ _______ _______ _____ _____    ______ ____

>  <TORSDO>
F 4

$$$$
=
 OpenBabel10252415023D

 34 39  0  0  1  0  0  0  0  0999 V2000
  187.4480  178.3600  147.4270 C   0  0  0  0  0  0  0  0  0  0  0  0
  189.6290  177.2710  146.7340 C   0  0  2  0  0  3  0  0  0  0  0  0
  187.7240  177.7150  145.0830 C   0  0  0  0  0  0  0  0  0  0  0  0
  187.9230  177.1630  142.6890 C   0  0  0  0  0  0  0  0  0  0  0  0
  189.3290  178.2530  148.9910 C   0  0  0  0  0  3  0  0  0  0  0  0
  190.1300  177.6860  148.0900 C   0  0  0  0  0  3  0  0  0  0  0  0
  189.9300  177.0190  143.8630 C   0  0  0  0  0  2  0  0  0  0  0  0
  188.2560  177.8230  146.3960 C   0  0  0  0  0  0  0  0  0  0  0  0
  188.8740  176.7900  141.6290 C   0  0  0  0  0  2  0  0  0  0  0  0
  187.9300  178.5560  148.6580 C   0  0  0  0  0  3  0  0  0  0  0  0
  186.3690  178.0730  144.8340 C   0  0  0  0  0  0  0  0  0  0  0  0
  186.1320  178.7300  147.1660 C   0  0  0  0  0  3  0  0  0  0  0  0
  189.5910  175.8890  146.6800 F   0  0  0  0  0  0  0  0  0  0  0  0
  186.6910  177.5010  142.4890 N   0  0  0  0  0  0  0  0  0  0  0  0
  185.8490  177.9430  143.5750 C   0  0  0  0  0  0  0  0  0  0  0  0
  190.1930  176.6300  142.3960 C   0  0  1  0  0  3  0  0  0  0  0  0
  188.4990  177.2360  143.9670 N   0  0  0  0  0  0  0  0  0  0  0  0
  185.6000  178.5820  145.8900 C   0  0  0  0  0  3  0  0  0  0  0  0
  182.6600  178.6300  141.6080 C   0  0  0  0  0  0  0  0  0  0  0  0
  181.7870  178.9890  142.6380 C   0  0  0  0  0  3  0  0  0  0  0  0
  184.4380  178.2680  143.2320 C   0  0  0  0  0  0  0  0  0  0  0  0
  182.2350  179.0010  143.9600 C   0  0  0  0  0  3  0  0  0  0  0  0
  183.9800  178.2780  141.9030 C   0  0  0  0  0  3  0  0  0  0  0  0
  183.5550  178.6480  144.2540 C   0  0  0  0  0  3  0  0  0  0  0  0
  182.2290  178.6250  140.3240 F   0  0  0  0  0  0  0  0  0  0  0  0
  191.1970  177.5110  141.8250 N   0  0  0  0  0  2  0  0  0  0  0  0
  190.7840  177.8080  140.4640 C   0  0  0  0  0  2  0  0  0  0  0  0
  189.7650  176.4970  137.9960 C   0  0  0  0  0  1  0  0  0  0  0  0
  191.6990  177.1290  139.5000 C   0  0  0  0  0  0  0  0  0  0  0  0
  191.2200  176.5200  138.3260 C   0  0  0  0  0  0  0  0  0  0  0  0
  193.4850  175.9340  137.7400 C   0  0  0  0  0  3  0  0  0  0  0  0
  193.9300  176.5340  138.8770 N   0  0  0  0  0  0  0  0  0  0  0  0
  193.0740  177.1280  139.7510 C   0  0  0  0  0  3  0  0  0  0  0  0
  192.1210  175.9180  137.4460 C   0  0  0  0  0  3  0  0  0  0  0  0
  1 10  2  0  0  0  0
  2 13  1  1  0  0  0
  2  6  1  0  0  0  0
  3  8  2  0  0  0  0
  4 17  1  0  0  0  0
  6  5  2  0  0  0  0
  7 17  1  0  0  0  0
  8  2  1  0  0  0  0
  8  1  1  0  0  0  0
  9 16  1  0  0  0  0
  9  4  1  0  0  0  0
 10  5  1  0  0  0  0
 11  3  1  0  0  0  0
 11 18  1  0  0  0  0
 12  1  1  0  0  0  0
 14  4  2  0  0  0  0
 14 15  1  0  0  0  0
 15 11  2  0  0  0  0
 16 26  1  6  0  0  0
 16  7  1  0  0  0  0
 17  3  1  0  0  0  0
 18 12  2  0  0  0  0
 19 23  2  0  0  0  0
 19 20  1  0  0  0  0
 20 22  2  0  0  0  0
 21 15  1  0  0  0  0
 21 24  2  0  0  0  0
 22 24  1  0  0  0  0
 23 21  1  0  0  0  0
 25 19  1  0  0  0  0
 27 26  1  0  0  0  0
 28 30  1  0  0  0  0
 29 33  1  0  0  0  0
 29 27  1  0  0  0  0
 30 29  2  0  0  0  0
 31 32  1  0  0  0  0
 32 33  2  0  0  0  0
 34 31  2  0  0  0  0
 34 30  1  0  0  0  0
M  END
>  <MODEL>
4

>  <REMARK>
 VINA RESULT:     -10.0      2.658      6.506
  Name = 
  4 active torsions:
  status: ('A' for Active; 'I' for Inactive)
    1  A    between atoms: C_3  and  C_13
    2  A    between atoms: C_3  and  N_17
    3  A    between atoms: C_12  and  C_28
    4  A    between atoms: N_17  and  C_29
                            x       y       z     vdW  Elec       q    Type
                         _______ _______ _______ _____ _____    ______ ____

>  <TORSDO>
F 4

$$$$
=
 OpenBabel10252415023D

 34 39  0  0  1  0  0  0  0  0999 V2000
  185.5060  178.1360  143.8620 C   0  0  0  0  0  0  0  0  0  0  0  0
  185.7210  178.6090  141.3810 C   0  0  2  0  0  3  0  0  0  0  0  0
  187.7020  177.8630  142.8190 C   0  0  0  0  0  0  0  0  0  0  0  0
  189.9420  177.4960  141.8570 C   0  0  0  0  0  0  0  0  0  0  0  0
  183.5110  178.5440  142.5020 C   0  0  0  0  0  3  0  0  0  0  0  0
  184.2170  178.6420  141.3770 C   0  0  0  0  0  3  0  0  0  0  0  0
  188.2640  177.7810  140.2670 C   0  0  0  0  0  2  0  0  0  0  0  0
  186.3180  178.1600  142.7020 C   0  0  0  0  0  0  0  0  0  0  0  0
  190.6840  177.3380  140.5950 C   0  0  0  0  0  2  0  0  0  0  0  0
  184.1860  178.3290  143.7890 C   0  0  0  0  0  3  0  0  0  0  0  0
  188.2710  177.6210  144.1020 C   0  0  0  0  0  0  0  0  0  0  0  0
  186.0690  177.8740  145.1070 C   0  0  0  0  0  3  0  0  0  0  0  0
  186.1920  179.8740  141.0740 F   0  0  0  0  0  0  0  0  0  0  0  0
  190.4320  177.2740  143.0330 N   0  0  0  0  0  0  0  0  0  0  0  0
  189.6100  177.3620  144.2160 C   0  0  0  0  0  0  0  0  0  0  0  0
  189.6050  177.5850  139.5330 C   0  0  1  0  0  3  0  0  0  0  0  0
  188.5840  177.8060  141.6810 N   0  0  0  0  0  0  0  0  0  0  0  0
  187.4320  177.6280  145.2240 C   0  0  0  0  0  3  0  0  0  0  0  0
  192.0140  176.0590  146.8680 C   0  0  0  0  0  0  0  0  0  0  0  0
  191.4740  176.6350  148.0210 C   0  0  0  0  0  3  0  0  0  0  0  0
  190.2910  177.1260  145.5170 C   0  0  0  0  0  0  0  0  0  0  0  0
  190.3410  177.4460  147.9290 C   0  0  0  0  0  3  0  0  0  0  0  0
  191.4210  176.2970  145.6250 C   0  0  0  0  0  3  0  0  0  0  0  0
  189.7500  177.6840  146.6850 C   0  0  0  0  0  3  0  0  0  0  0  0
  193.1090  175.2660  146.9550 F   0  0  0  0  0  0  0  0  0  0  0  0
  189.5190  176.4340  138.6500 N   0  0  0  0  0  2  0  0  0  0  0  0
  190.3250  176.7320  137.4780 C   0  0  0  0  0  2  0  0  0  0  0  0
  190.3900  173.8190  136.8770 C   0  0  0  0  0  1  0  0  0  0  0  0
  191.5940  175.9470  137.5270 C   0  0  0  0  0  0  0  0  0  0  0  0
  191.6280  174.5730  137.2300 C   0  0  0  0  0  0  0  0  0  0  0  0
  194.0120  174.5820  137.5950 C   0  0  0  0  0  3  0  0  0  0  0  0
  193.9610  175.9130  137.8720 N   0  0  0  0  0  0  0  0  0  0  0  0
  192.7880  176.6020  137.8420 C   0  0  0  0  0  3  0  0  0  0  0  0
  192.8460  173.8900  137.2680 C   0  0  0  0  0  3  0  0  0  0  0  0
  1 12  1  0  0  0  0
  2 13  1  1  0  0  0
  2  8  1  0  0  0  0
  3 11  1  0  0  0  0
  4 14  2  0  0  0  0
  5 10  1  0  0  0  0
  6  2  1  0  0  0  0
  6  5  2  0  0  0  0
  7 17  1  0  0  0  0
  8  3  2  0  0  0  0
  8  1  1  0  0  0  0
  9  4  1  0  0  0  0
 10  1  2  0  0  0  0
 11 15  2  0  0  0  0
 11 18  1  0  0  0  0
 12 18  2  0  0  0  0
 14 15  1  0  0  0  0
 15 21  1  0  0  0  0
 16 26  1  6  0  0  0
 16  7  1  0  0  0  0
 16  9  1  0  0  0  0
 17  4  1  0  0  0  0
 17  3  1  0  0  0  0
 19 25  1  0  0  0  0
 19 20  1  0  0  0  0
 21 23  1  0  0  0  0
 21 24  2  0  0  0  0
 22 20  2  0  0  0  0
 23 19  2  0  0  0  0
 24 22  1  0  0  0  0
 27 29  1  0  0  0  0
 27 26  1  0  0  0  0
 28 30  1  0  0  0  0
 29 33  1  0  0  0  0
 30 34  1  0  0  0  0
 30 29  2  0  0  0  0
 31 32  1  0  0  0  0
 33 32  2  0  0  0  0
 34 31  2  0  0  0  0
M  END
>  <MODEL>
5

>  <REMARK>
 VINA RESULT:     -10.0      2.006      3.288
  Name = 
  4 active torsions:
  status: ('A' for Active; 'I' for Inactive)
    1  A    between atoms: C_3  and  C_13
    2  A    between atoms: C_3  and  N_17
    3  A    between atoms: C_12  and  C_28
    4  A    between atoms: N_17  and  C_29
                            x       y       z     vdW  Elec       q    Type
                         _______ _______ _______ _____ _____    ______ ____

>  <TORSDO>
F 4

$$$$
=
 OpenBabel10252415023D

 34 39  0  0  1  0  0  0  0  0999 V2000
  185.0820  178.2210  143.7740 C   0  0  0  0  0  0  0  0  0  0  0  0
  185.2150  178.7040  141.2890 C   0  0  2  0  0  3  0  0  0  0  0  0
  187.2430  177.9530  142.6580 C   0  0  0  0  0  0  0  0  0  0  0  0
  189.4500  177.5900  141.6210 C   0  0  0  0  0  0  0  0  0  0  0  0
  183.0430  178.6330  142.4820 C   0  0  0  0  0  3  0  0  0  0  0  0
  183.7120  178.7360  141.3350 C   0  0  0  0  0  3  0  0  0  0  0  0
  187.7200  177.8820  140.0880 C   0  0  0  0  0  2  0  0  0  0  0  0
  185.8560  178.2500  142.5880 C   0  0  0  0  0  0  0  0  0  0  0  0
  190.1490  177.4380  140.3350 C   0  0  0  0  0  2  0  0  0  0  0  0
  183.7600  178.4140  143.7460 C   0  0  0  0  0  3  0  0  0  0  0  0
  187.8540  177.7070  143.9200 C   0  0  0  0  0  0  0  0  0  0  0  0
  185.6860  177.9550  144.9990 C   0  0  0  0  0  3  0  0  0  0  0  0
  185.6750  179.9700  140.9720 F   0  0  0  0  0  0  0  0  0  0  0  0
  189.9790  177.3640  142.7790 N   0  0  0  0  0  0  0  0  0  0  0  0
  189.1960  177.4480  143.9890 C   0  0  0  0  0  0  0  0  0  0  0  0
  189.0360  177.6880  139.3100 C   0  0  1  0  0  3  0  0  0  0  0  0
  188.0870  177.9010  141.4910 N   0  0  0  0  0  0  0  0  0  0  0  0
  187.0520  177.7090  145.0700 C   0  0  0  0  0  3  0  0  0  0  0  0
  191.6960  176.1460  146.5530 C   0  0  0  0  0  0  0  0  0  0  0  0
  191.1860  176.7050  147.7270 C   0  0  0  0  0  3  0  0  0  0  0  0
  189.9200  177.2070  145.2670 C   0  0  0  0  0  0  0  0  0  0  0  0
  190.0410  177.5040  147.6790 C   0  0  0  0  0  3  0  0  0  0  0  0
  191.0620  176.3890  145.3300 C   0  0  0  0  0  3  0  0  0  0  0  0
  189.4090  177.7470  146.4560 C   0  0  0  0  0  3  0  0  0  0  0  0
  192.8010  175.3650  146.5980 F   0  0  0  0  0  0  0  0  0  0  0  0
  188.9210  176.5410  138.4260 N   0  0  0  0  0  2  0  0  0  0  0  0
  188.0740  176.9390  137.3140 C   0  0  0  0  0  2  0  0  0  0  0  0
  185.2110  177.7230  137.5120 C   0  0  0  0  0  1  0  0  0  0  0  0
  186.9730  175.9470  137.1380 C   0  0  0  0  0  0  0  0  0  0  0  0
  185.6190  176.3190  137.2190 C   0  0  0  0  0  0  0  0  0  0  0  0
  184.9950  174.0370  136.7460 C   0  0  0  0  0  3  0  0  0  0  0  0
  186.3100  173.6980  136.6660 N   0  0  0  0  0  0  0  0  0  0  0  0
  187.2940  174.6170  136.8510 C   0  0  0  0  0  3  0  0  0  0  0  0
  184.6280  175.3550  137.0240 C   0  0  0  0  0  3  0  0  0  0  0  0
  1 12  1  0  0  0  0
  2 13  1  1  0  0  0
  2  6  1  0  0  0  0
  2  8  1  0  0  0  0
  3 11  1  0  0  0  0
  4 14  2  0  0  0  0
  5 10  1  0  0  0  0
  6  5  2  0  0  0  0
  7 17  1  0  0  0  0
  8  3  2  0  0  0  0
  8  1  1  0  0  0  0
  9  4  1  0  0  0  0
 10  1  2  0  0  0  0
 11 15  2  0  0  0  0
 11 18  1  0  0  0  0
 12 18  2  0  0  0  0
 14 15  1  0  0  0  0
 15 21  1  0  0  0  0
 16 26  1  6  0  0  0
 16  7  1  0  0  0  0
 16  9  1  0  0  0  0
 17  4  1  0  0  0  0
 17  3  1  0  0  0  0
 19 25  1  0  0  0  0
 19 20  1  0  0  0  0
 21 23  1  0  0  0  0
 21 24  2  0  0  0  0
 22 20  2  0  0  0  0
 23 19  2  0  0  0  0
 24 22  1  0  0  0  0
 27 26  1  0  0  0  0
 29 30  1  0  0  0  0
 29 27  1  0  0  0  0
 30 28  1  0  0  0  0
 31 34  1  0  0  0  0
 32 31  2  0  0  0  0
 32 33  1  0  0  0  0
 33 29  2  0  0  0  0
 34 30  2  0  0  0  0
M  END
>  <MODEL>
6

>  <REMARK>
 VINA RESULT:      -9.8      1.010      1.348
  Name = 
  4 active torsions:
  status: ('A' for Active; 'I' for Inactive)
    1  A    between atoms: C_3  and  C_13
    2  A    between atoms: C_3  and  N_17
    3  A    between atoms: C_12  and  C_28
    4  A    between atoms: N_17  and  C_29
                            x       y       z     vdW  Elec       q    Type
                         _______ _______ _______ _____ _____    ______ ____

>  <TORSDO>
F 4

$$$$
=
 OpenBabel10252415023D

 34 39  0  0  1  0  0  0  0  0999 V2000
  187.4920  177.6070  144.4930 C   0  0  0  0  0  0  0  0  0  0  0  0
  185.2780  178.8060  144.2030 C   0  0  2  0  0  3  0  0  0  0  0  0
  186.7670  178.1640  142.2230 C   0  0  0  0  0  0  0  0  0  0  0  0
  186.1020  178.6210  139.8940 C   0  0  0  0  0  0  0  0  0  0  0  0
  185.9880  177.9080  146.4020 C   0  0  0  0  0  3  0  0  0  0  0  0
  185.0490  178.4860  145.6550 C   0  0  0  0  0  3  0  0  0  0  0  0
  184.3970  178.9500  141.4460 C   0  0  0  0  0  2  0  0  0  0  0  0
  186.5170  178.1500  143.6210 C   0  0  0  0  0  0  0  0  0  0  0  0
  184.9720  179.0090  139.0330 C   0  0  0  0  0  2  0  0  0  0  0  0
  187.2670  177.4990  145.8060 C   0  0  0  0  0  3  0  0  0  0  0  0
  188.0180  177.7060  141.7210 C   0  0  0  0  0  0  0  0  0  0  0  0
  188.7010  177.1390  143.9880 C   0  0  0  0  0  3  0  0  0  0  0  0
  185.3800  180.1790  144.0630 F   0  0  0  0  0  0  0  0  0  0  0  0
  187.2440  178.1940  139.4630 N   0  0  0  0  0  0  0  0  0  0  0  0
  188.2690  177.7450  140.3760 C   0  0  0  0  0  0  0  0  0  0  0  0
  183.8540  179.2900  140.0450 C   0  0  1  0  0  3  0  0  0  0  0  0
  185.8030  178.6430  141.2660 N   0  0  0  0  0  0  0  0  0  0  0  0
  188.9610  177.1950  142.6230 C   0  0  0  0  0  3  0  0  0  0  0  0
  191.9860  177.1550  139.7910 C   0  0  0  0  0  0  0  0  0  0  0  0
  191.9640  176.5640  138.5250 C   0  0  0  0  0  3  0  0  0  0  0  0
  189.5560  177.3130  139.7690 C   0  0  0  0  0  0  0  0  0  0  0  0
  190.7470  176.3560  137.8740 C   0  0  0  0  0  3  0  0  0  0  0  0
  190.7890  177.5340  140.4060 C   0  0  0  0  0  3  0  0  0  0  0  0
  189.5510  176.7340  138.4900 C   0  0  0  0  0  3  0  0  0  0  0  0
  193.1660  177.3650  140.4210 F   0  0  0  0  0  0  0  0  0  0  0  0
  182.7050  178.4530  139.7460 N   0  0  0  0  0  2  0  0  0  0  0  0
  182.1610  178.0010  141.0150 C   0  0  0  0  0  2  0  0  0  0  0  0
  181.6360  178.6410  143.8730 C   0  0  0  0  0  1  0  0  0  0  0  0
  181.0370  178.8920  141.4280 C   0  0  0  0  0  0  0  0  0  0  0  0
  180.7960  179.2050  142.7770 C   0  0  0  0  0  0  0  0  0  0  0  0
  178.9510  180.6010  142.0930 C   0  0  0  0  0  3  0  0  0  0  0  0
  179.2040  180.2910  140.7930 N   0  0  0  0  0  0  0  0  0  0  0  0
  180.2210  179.4600  140.4440 C   0  0  0  0  0  3  0  0  0  0  0  0
  179.7440  180.0630  143.1080 C   0  0  0  0  0  3  0  0  0  0  0  0
  1 10  2  0  0  0  0
  2 13  1  1  0  0  0
  2  6  1  0  0  0  0
  3  8  2  0  0  0  0
  4 17  1  0  0  0  0
  6  5  2  0  0  0  0
  8  2  1  0  0  0  0
  8  1  1  0  0  0  0
  9  4  1  0  0  0  0
  9 16  1  0  0  0  0
 10  5  1  0  0  0  0
 11  3  1  0  0  0  0
 11 18  1  0  0  0  0
 12  1  1  0  0  0  0
 14  4  2  0  0  0  0
 14 15  1  0  0  0  0
 15 11  2  0  0  0  0
 16 26  1  6  0  0  0
 16  7  1  0  0  0  0
 17  7  1  0  0  0  0
 17  3  1  0  0  0  0
 18 12  2  0  0  0  0
 19 23  1  0  0  0  0
 19 25  1  0  0  0  0
 20 19  2  0  0  0  0
 21 15  1  0  0  0  0
 21 23  2  0  0  0  0
 22 24  2  0  0  0  0
 22 20  1  0  0  0  0
 24 21  1  0  0  0  0
 26 27  1  0  0  0  0
 27 29  1  0  0  0  0
 29 30  1  0  0  0  0
 30 34  2  0  0  0  0
 30 28  1  0  0  0  0
 31 34  1  0  0  0  0
 32 31  2  0  0  0  0
 33 32  1  0  0  0  0
 33 29  2  0  0  0  0
M  END
>  <MODEL>
7

>  <REMARK>
 VINA RESULT:      -9.5      3.230      6.344
  Name = 
  4 active torsions:
  status: ('A' for Active; 'I' for Inactive)
    1  A    between atoms: C_3  and  C_13
    2  A    between atoms: C_3  and  N_17
    3  A    between atoms: C_12  and  C_28
    4  A    between atoms: N_17  and  C_29
                            x       y       z     vdW  Elec       q    Type
                         _______ _______ _______ _____ _____    ______ ____

>  <TORSDO>
F 4

$$$$
=
 OpenBabel10252415023D

 34 39  0  0  1  0  0  0  0  0999 V2000
  188.2970  178.3110  139.6040 C   0  0  0  0  0  0  0  0  0  0  0  0
  186.4010  178.2560  137.9230 C   0  0  2  0  0  3  0  0  0  0  0  0
  186.0020  178.4170  140.4450 C   0  0  0  0  0  0  0  0  0  0  0  0
  183.7330  178.5930  141.3940 C   0  0  0  0  0  0  0  0  0  0  0  0
  188.7650  178.4680  137.2060 C   0  0  0  0  0  3  0  0  0  0  0  0
  187.4720  178.4610  136.8860 C   0  0  0  0  0  3  0  0  0  0  0  0
  183.8150  178.8600  139.0820 C   0  0  0  0  0  2  0  0  0  0  0  0
  186.9050  178.3660  139.3500 C   0  0  0  0  0  0  0  0  0  0  0  0
  182.3230  178.8530  141.0640 C   0  0  0  0  0  2  0  0  0  0  0  0
  189.1870  178.3430  138.6080 C   0  0  0  0  0  3  0  0  0  0  0  0
  186.4960  178.3360  141.7790 C   0  0  0  0  0  0  0  0  0  0  0  0
  188.7700  178.2570  140.9120 C   0  0  0  0  0  3  0  0  0  0  0  0
  185.8350  177.0080  137.7330 F   0  0  0  0  0  0  0  0  0  0  0  0
  184.2090  178.5240  142.5950 N   0  0  0  0  0  0  0  0  0  0  0  0
  185.6230  178.3570  142.8320 C   0  0  0  0  0  0  0  0  0  0  0  0
  182.3470  178.9700  139.5350 C   0  0  1  0  0  3  0  0  0  0  0  0
  184.5760  178.5350  140.2730 N   0  0  0  0  0  0  0  0  0  0  0  0
  187.8810  178.2620  141.9810 C   0  0  0  0  0  3  0  0  0  0  0  0
  187.5590  177.4260  145.9770 C   0  0  0  0  0  0  0  0  0  0  0  0
  186.7510  177.9950  146.9640 C   0  0  0  0  0  3  0  0  0  0  0  0
  186.0500  178.2500  144.2530 C   0  0  0  0  0  0  0  0  0  0  0  0
  185.5890  178.6810  146.6040 C   0  0  0  0  0  3  0  0  0  0  0  0
  187.2070  177.5460  144.6300 C   0  0  0  0  0  3  0  0  0  0  0  0
  185.2380  178.8020  145.2560 C   0  0  0  0  0  3  0  0  0  0  0  0
  188.6820  176.7540  146.3260 F   0  0  0  0  0  0  0  0  0  0  0  0
  181.8050  180.2580  139.1370 N   0  0  0  0  0  2  0  0  0  0  0  0
  181.1810  180.0770  137.8360 C   0  0  0  0  0  2  0  0  0  0  0  0
  180.6420  180.2780  134.9170 C   0  0  0  0  0  1  0  0  0  0  0  0
  181.0590  181.3970  137.1480 C   0  0  0  0  0  0  0  0  0  0  0  0
  180.7910  181.4920  135.7710 C   0  0  0  0  0  0  0  0  0  0  0  0
  180.7980  183.8970  135.9660 C   0  0  0  0  0  3  0  0  0  0  0  0
  181.0500  183.7840  137.2990 N   0  0  0  0  0  0  0  0  0  0  0  0
  181.1780  182.5700  137.8980 C   0  0  0  0  0  3  0  0  0  0  0  0
  180.6640  182.7520  135.1800 C   0  0  0  0  0  3  0  0  0  0  0  0
  1 12  1  0  0  0  0
  2 13  1  1  0  0  0
  2  8  1  0  0  0  0
  3 11  1  0  0  0  0
  4 14  2  0  0  0  0
  5 10  1  0  0  0  0
  6  5  2  0  0  0  0
  6  2  1  0  0  0  0
  7 16  1  0  0  0  0
  7 17  1  0  0  0  0
  8  1  1  0  0  0  0
  8  3  2  0  0  0  0
  9  4  1  0  0  0  0
 10  1  2  0  0  0  0
 11 18  1  0  0  0  0
 11 15  2  0  0  0  0
 12 18  2  0  0  0  0
 14 15  1  0  0  0  0
 15 21  1  0  0  0  0
 16 26  1  1  0  0  0
 16  9  1  0  0  0  0
 17  3  1  0  0  0  0
 17  4  1  0  0  0  0
 19 25  1  0  0  0  0
 19 20  1  0  0  0  0
 21 23  1  0  0  0  0
 21 24  2  0  0  0  0
 22 20  2  0  0  0  0
 23 19  2  0  0  0  0
 24 22  1  0  0  0  0
 27 26  1  0  0  0  0
 28 30  1  0  0  0  0
 29 27  1  0  0  0  0
 29 33  1  0  0  0  0
 30 29  2  0  0  0  0
 31 32  1  0  0  0  0
 32 33  2  0  0  0  0
 34 30  1  0  0  0  0
 34 31  2  0  0  0  0
M  END
>  <MODEL>
8

>  <REMARK>
 VINA RESULT:      -9.4      4.247      6.601
  Name = 
  4 active torsions:
  status: ('A' for Active; 'I' for Inactive)
    1  A    between atoms: C_3  and  C_13
    2  A    between atoms: C_3  and  N_17
    3  A    between atoms: C_12  and  C_28
    4  A    between atoms: N_17  and  C_29
                            x       y       z     vdW  Elec       q    Type
                         _______ _______ _______ _____ _____    ______ ____

>  <TORSDO>
F 4

$$$$
=
 OpenBabel10252415023D

 34 39  0  0  1  0  0  0  0  0999 V2000
  186.3280  178.0810  145.7430 C   0  0  0  0  0  0  0  0  0  0  0  0
  188.3110  177.3410  144.3490 C   0  0  2  0  0  3  0  0  0  0  0  0
  186.1080  178.1200  143.3060 C   0  0  0  0  0  0  0  0  0  0  0  0
  185.8020  178.2590  140.8640 C   0  0  0  0  0  0  0  0  0  0  0  0
  188.4920  177.6470  146.8020 C   0  0  0  0  0  3  0  0  0  0  0  0
  189.0860  177.3920  145.6370 C   0  0  0  0  0  3  0  0  0  0  0  0
  188.0080  177.9040  141.5230 C   0  0  0  0  0  2  0  0  0  0  0  0
  186.9010  177.8910  144.4620 C   0  0  0  0  0  0  0  0  0  0  0  0
  186.5100  178.2420  139.5740 C   0  0  0  0  0  2  0  0  0  0  0  0
  187.0570  177.9560  146.8560 C   0  0  0  0  0  3  0  0  0  0  0  0
  184.7320  178.4620  143.4450 C   0  0  0  0  0  0  0  0  0  0  0  0
  184.9890  178.4390  145.8650 C   0  0  0  0  0  3  0  0  0  0  0  0
  188.2550  176.0270  143.9190 F   0  0  0  0  0  0  0  0  0  0  0  0
  184.5570  178.5740  141.0180 N   0  0  0  0  0  0  0  0  0  0  0  0
  183.9620  178.6560  142.3300 C   0  0  0  0  0  0  0  0  0  0  0  0
  187.9580  177.9470  139.9840 C   0  0  1  0  0  3  0  0  0  0  0  0
  186.6320  178.0090  141.9690 N   0  0  0  0  0  0  0  0  0  0  0  0
  184.2030  178.6200  144.7330 C   0  0  0  0  0  3  0  0  0  0  0  0
  180.3920  179.1300  143.5720 C   0  0  0  0  0  0  0  0  0  0  0  0
  179.7550  179.5340  142.3960 C   0  0  0  0  0  3  0  0  0  0  0  0
  182.5130  178.9880  142.3830 C   0  0  0  0  0  0  0  0  0  0  0  0
  180.4860  179.6550  141.2130 C   0  0  0  0  0  3  0  0  0  0  0  0
  181.7620  178.8520  143.5630 C   0  0  0  0  0  3  0  0  0  0  0  0
  181.8560  179.3780  141.2060 C   0  0  0  0  0  3  0  0  0  0  0  0
  179.6830  179.0050  144.7180 F   0  0  0  0  0  0  0  0  0  0  0  0
  188.8280  179.0030  139.4930 N   0  0  0  0  0  2  0  0  0  0  0  0
  189.0540  178.7490  138.0800 C   0  0  0  0  0  2  0  0  0  0  0  0
  187.7850  176.6490  136.3960 C   0  0  0  0  0  1  0  0  0  0  0  0
  189.6740  177.4020  137.9020 C   0  0  0  0  0  0  0  0  0  0  0  0
  189.0810  176.4140  137.0960 C   0  0  0  0  0  0  0  0  0  0  0  0
  190.9280  174.9430  137.5930 C   0  0  0  0  0  3  0  0  0  0  0  0
  191.4890  175.9140  138.3630 N   0  0  0  0  0  0  0  0  0  0  0  0
  190.8940  177.1260  138.5260 C   0  0  0  0  0  3  0  0  0  0  0  0
  189.7140  175.1780  136.9460 C   0  0  0  0  0  3  0  0  0  0  0  0
  1 12  1  0  0  0  0
  1 10  2  0  0  0  0
  2 13  1  1  0  0  0
  2  8  1  0  0  0  0
  2  6  1  0  0  0  0
  3 11  1  0  0  0  0
  3  8  2  0  0  0  0
  4 14  2  0  0  0  0
  4 17  1  0  0  0  0
  5 10  1  0  0  0  0
  6  5  2  0  0  0  0
  7 17  1  0  0  0  0
  8  1  1  0  0  0  0
  9 16  1  0  0  0  0
  9  4  1  0  0  0  0
 11 18  1  0  0  0  0
 14 15  1  0  0  0  0
 15 21  1  0  0  0  0
 15 11  2  0  0  0  0
 16 26  1  1  0  0  0
 16  7  1  0  0  0  0
 17  3  1  0  0  0  0
 18 12  2  0  0  0  0
 19 25  1  0  0  0  0
 20 19  2  0  0  0  0
 21 23  2  0  0  0  0
 22 20  1  0  0  0  0
 23 19  1  0  0  0  0
 24 22  2  0  0  0  0
 24 21  1  0  0  0  0
 27 26  1  0  0  0  0
 28 30  1  0  0  0  0
 29 27  1  0  0  0  0
 29 33  1  0  0  0  0
 30 29  2  0  0  0  0
 31 32  1  0  0  0  0
 32 33  2  0  0  0  0
 34 30  1  0  0  0  0
 34 31  2  0  0  0  0
M  END
>  <MODEL>
9

>  <REMARK>
 VINA RESULT:      -9.4      2.587      6.460
  Name = 
  4 active torsions:
  status: ('A' for Active; 'I' for Inactive)
    1  A    between atoms: C_3  and  C_13
    2  A    between atoms: C_3  and  N_17
    3  A    between atoms: C_12  and  C_28
    4  A    between atoms: N_17  and  C_29
                            x       y       z     vdW  Elec       q    Type
                         _______ _______ _______ _____ _____    ______ ____

>  <TORSDO>
F 4

$$$$
