=
 OpenBabel10262423023D

 37 45  0  0  1  0  0  0  0  0999 V2000
  185.6400  179.0340  145.2790 C   0  0  1  0  0  3  0  0  0  0  0  0
  190.3600  176.2280  147.4460 C   0  0  0  0  0  2  0  0  0  0  0  0
  190.0400  177.5500  143.1570 C   0  0  2  0  0  0  0  0  0  0  0  0
  187.3530  177.5030  140.8440 N   0  0  0  0  0  2  0  0  0  0  0  0
  190.9470  177.3890  145.2540 C   0  0  0  0  0  0  0  0  0  0  0  0
  188.8200  178.3000  142.6970 C   0  0  1  0  0  3  0  0  0  0  0  0
  186.0350  178.0920  147.4420 O   0  0  0  0  0  1  0  0  0  0  0  0
  189.8060  177.0160  144.4900 N   0  0  0  0  0  0  0  0  0  0  0  0
  188.5290  178.3190  141.1960 C   0  0  1  0  0  3  0  0  0  0  0  0
  191.8330  178.1110  144.4800 O   0  0  0  0  0  0  0  0  0  0  0  0
  188.3590  177.0640  144.7820 C   0  0  1  0  0  3  0  0  0  0  0  0
  188.6570  177.7310  147.2250 C   0  0  0  0  0  2  0  0  0  0  0  0
  191.9880  177.5050  141.1270 C   0  0  0  0  0  2  0  0  0  0  0  0
  186.4030  177.9750  146.0960 C   0  0  2  0  0  3  0  0  0  0  0  0
  191.3060  178.3260  143.1710 C   0  0  1  0  0  3  0  0  0  0  0  0
  187.9380  178.0470  145.9070 C   0  0  2  0  0  3  0  0  0  0  0  0
  186.1880  178.0080  141.5990 C   0  0  0  0  0  2  0  0  0  0  0  0
  191.2370  176.9940  142.3580 C   0  0  2  0  0  0  0  0  0  0  0  0
  187.7880  177.4670  143.4230 C   0  0  1  0  0  3  0  0  0  0  0  0
  191.2130  177.0690  146.5230 C   0  0  0  0  0  3  0  0  0  0  0  0
  189.7770  178.0230  140.3620 C   0  0  1  0  0  3  0  0  0  0  0  0
  188.9670  176.3640  147.2900 O   0  0  0  0  0  0  0  0  0  0  0  0
  186.3490  177.8520  143.1310 C   0  0  1  0  0  3  0  0  0  0  0  0
  186.0390  179.1810  143.8070 C   0  0  0  0  0  2  0  0  0  0  0  0
  190.6640  176.8910  140.9020 C   0  0  1  0  0  3  0  0  0  0  0  0
  189.0410  178.9980  138.1480 C   0  0  0  0  0  3  0  0  0  0  0  0
  189.5060  177.9040  138.8930 C   0  0  0  0  0  0  0  0  0  0  0  0
  189.7490  176.6840  138.2520 C   0  0  0  0  0  3  0  0  0  0  0  0
  189.7540  175.3700  136.2630 F   0  0  0  0  0  0  0  0  0  0  0  0
  189.0520  177.6450  136.1400 C   0  0  0  0  0  3  0  0  0  0  0  0
  189.5210  176.5540  136.8790 C   0  0  0  0  0  0  0  0  0  0  0  0
  188.8130  178.8670  136.7750 C   0  0  0  0  0  3  0  0  0  0  0  0
  184.1200  178.9120  145.4440 C   0  0  0  0  0  2  0  0  0  0  0  0
  183.3440  179.6430  144.3570 C   0  0  0  0  0  2  0  0  0  0  0  0
  182.2520  178.7480  143.8060 C   0  0  0  0  0  2  0  0  0  0  0  0
  182.3750  178.6610  142.3510 C   0  0  0  0  0  0  0  0  0  0  0  0
  182.4780  178.5900  141.1520 C   0  0  0  0  0  3  0  0  0  0  0  0
  1 33  1  6  0  0  0
  1 14  1  0  0  0  0
  3 15  1  0  0  0  0
  3  8  1  1  0  0  0
  4  9  1  0  0  0  0
  4 17  1  0  0  0  0
  5 20  2  0  0  0  0
  6  3  1  0  0  0  0
  6 19  1  0  0  0  0
  8 11  1  0  0  0  0
  8  5  1  0  0  0  0
  9  6  1  0  0  0  0
 10  5  1  0  0  0  0
 11 16  1  0  0  0  0
 12 22  1  0  0  0  0
 13 18  1  0  0  0  0
 14  7  1  0  0  0  0
 15 10  1  0  0  0  0
 16 14  1  0  0  0  0
 16 12  1  0  0  0  0
 17 23  1  0  0  0  0
 18  3  1  0  0  0  0
 18 15  1  0  0  0  0
 19 11  1  0  0  0  0
 20  2  1  0  0  0  0
 21 25  1  0  0  0  0
 21  9  1  0  0  0  0
 22  2  1  0  0  0  0
 23 19  1  0  0  0  0
 23 24  1  0  0  0  0
 24  1  1  0  0  0  0
 25 13  1  0  0  0  0
 25 18  1  0  0  0  0
 26 27  1  0  0  0  0
 27 21  1  0  0  0  0
 28 27  2  0  0  0  0
 29 31  1  0  0  0  0
 30 32  1  0  0  0  0
 30 31  2  0  0  0  0
 31 28  1  0  0  0  0
 32 26  2  0  0  0  0
 34 33  1  0  0  0  0
 35 34  1  0  0  0  0
 36 35  1  0  0  0  0
 37 36  3  0  0  0  0
M  END
>  <MODEL>
1

>  <REMARK>
 VINA RESULT:      -9.6      0.000      0.000
  Name = 
  5 active torsions:
  status: ('A' for Active; 'I' for Inactive)
    1  A    between atoms: C_1  and  C_5
    2  A    between atoms: C_5  and  C_17
    3  A    between atoms: C_6  and  C_31
    4  A    between atoms: C_11  and  C_26
    5  A    between atoms: C_17  and  C_26
                            x       y       z     vdW  Elec       q    Type
                         _______ _______ _______ _____ _____    ______ ____

>  <TORSDO>
F 5

$$$$
=
 OpenBabel10262423023D

 37 45  0  0  1  0  0  0  0  0999 V2000
  183.8070  178.0350  140.0360 C   0  0  1  0  0  3  0  0  0  0  0  0
  189.0600  178.6780  137.4200 C   0  0  0  0  0  2  0  0  0  0  0  0
  188.5920  177.6840  141.7830 C   0  0  2  0  0  0  0  0  0  0  0  0
  186.3410  178.8480  144.2640 N   0  0  0  0  0  2  0  0  0  0  0  0
  189.3140  177.4250  139.6250 C   0  0  0  0  0  0  0  0  0  0  0  0
  187.2170  177.4930  142.3610 C   0  0  1  0  0  3  0  0  0  0  0  0
  184.3660  178.6950  137.8060 O   0  0  0  0  0  1  0  0  0  0  0  0
  188.4810  178.2390  140.4430 N   0  0  0  0  0  0  0  0  0  0  0  0
  187.0640  177.6240  143.8770 C   0  0  1  0  0  3  0  0  0  0  0  0
  189.9020  176.4270  140.3750 O   0  0  0  0  0  0  0  0  0  0  0  0
  187.1150  178.7660  140.2500 C   0  0  1  0  0  3  0  0  0  0  0  0
  186.9250  177.9840  137.8300 C   0  0  0  0  0  2  0  0  0  0  0  0
  190.5560  176.9910  143.6750 C   0  0  0  0  0  2  0  0  0  0  0  0
  184.8580  178.6840  139.1170 C   0  0  2  0  0  3  0  0  0  0  0  0
  189.4410  176.4670  141.7250 C   0  0  1  0  0  3  0  0  0  0  0  0
  186.2490  178.0100  139.2080 C   0  0  2  0  0  3  0  0  0  0  0  0
  185.0140  178.8350  143.6140 C   0  0  0  0  0  2  0  0  0  0  0  0
  189.9720  177.7330  142.4720 C   0  0  2  0  0  0  0  0  0  0  0  0
  186.5440  178.6530  141.6630 C   0  0  1  0  0  3  0  0  0  0  0  0
  189.5820  177.5860  138.3260 C   0  0  0  0  0  3  0  0  0  0  0  0
  188.3910  177.4140  144.6100 C   0  0  1  0  0  3  0  0  0  0  0  0
  187.7440  179.1120  137.6750 O   0  0  0  0  0  0  0  0  0  0  0  0
  185.0990  178.8800  142.0690 C   0  0  1  0  0  3  0  0  0  0  0  0
  184.2340  177.7710  141.4840 C   0  0  0  0  0  2  0  0  0  0  0  0
  189.6070  178.0870  143.9540 C   0  0  1  0  0  3  0  0  0  0  0  0
  187.0720  177.7470  146.7420 C   0  0  0  0  0  3  0  0  0  0  0  0
  188.3090  177.6630  146.0860 C   0  0  0  0  0  0  0  0  0  0  0  0
  189.4930  177.7850  146.8230 C   0  0  0  0  0  3  0  0  0  0  0  0
  190.5910  178.1200  148.9110 F   0  0  0  0  0  0  0  0  0  0  0  0
  188.2080  178.0880  148.8530 C   0  0  0  0  0  3  0  0  0  0  0  0
  189.4420  177.9990  148.2030 C   0  0  0  0  0  0  0  0  0  0  0  0
  187.0230  177.9610  148.1230 C   0  0  0  0  0  3  0  0  0  0  0  0
  182.4530  178.7500  139.9660 C   0  0  0  0  0  2  0  0  0  0  0  0
  181.3230  177.9480  140.5990 C   0  0  0  0  0  2  0  0  0  0  0  0
  180.4620  178.8500  141.4590 C   0  0  0  0  0  2  0  0  0  0  0  0
  180.9380  178.8110  142.8420 C   0  0  0  0  0  0  0  0  0  0  0  0
  181.3320  178.7780  143.9810 C   0  0  0  0  0  3  0  0  0  0  0  0
  1 33  1  1  0  0  0
  1 24  1  0  0  0  0
  2 22  1  0  0  0  0
  2 20  1  0  0  0  0
  3  8  1  6  0  0  0
  3  6  1  0  0  0  0
  3 18  1  0  0  0  0
  5 10  1  0  0  0  0
  5  8  1  0  0  0  0
  6  9  1  0  0  0  0
  7 14  1  0  0  0  0
  9  4  1  0  0  0  0
  9 21  1  0  0  0  0
 10 15  1  0  0  0  0
 11  8  1  0  0  0  0
 11 19  1  0  0  0  0
 12 16  1  0  0  0  0
 13 25  1  0  0  0  0
 14 16  1  0  0  0  0
 14  1  1  0  0  0  0
 15  3  1  0  0  0  0
 15 18  1  0  0  0  0
 16 11  1  0  0  0  0
 17  4  1  0  0  0  0
 18 13  1  0  0  0  0
 18 25  1  0  0  0  0
 19 23  1  0  0  0  0
 19  6  1  0  0  0  0
 20  5  2  0  0  0  0
 21 27  1  0  0  0  0
 22 12  1  0  0  0  0
 23 17  1  0  0  0  0
 24 23  1  0  0  0  0
 25 21  1  0  0  0  0
 26 32  1  0  0  0  0
 27 26  2  0  0  0  0
 27 28  1  0  0  0  0
 28 31  2  0  0  0  0
 31 30  1  0  0  0  0
 31 29  1  0  0  0  0
 32 30  2  0  0  0  0
 33 34  1  0  0  0  0
 34 35  1  0  0  0  0
 35 36  1  0  0  0  0
 36 37  3  0  0  0  0
M  END
>  <MODEL>
2

>  <REMARK>
 VINA RESULT:      -9.0      3.420      6.752
  Name = 
  5 active torsions:
  status: ('A' for Active; 'I' for Inactive)
    1  A    between atoms: C_1  and  C_5
    2  A    between atoms: C_5  and  C_17
    3  A    between atoms: C_6  and  C_31
    4  A    between atoms: C_11  and  C_26
    5  A    between atoms: C_17  and  C_26
                            x       y       z     vdW  Elec       q    Type
                         _______ _______ _______ _____ _____    ______ ____

>  <TORSDO>
F 5

$$$$
=
 OpenBabel10262423023D

 37 45  0  0  1  0  0  0  0  0999 V2000
  188.1780  178.8400  140.7980 C   0  0  1  0  0  3  0  0  0  0  0  0
  183.1110  178.3050  143.7810 C   0  0  0  0  0  2  0  0  0  0  0  0
  187.1550  178.0250  145.7340 C   0  0  2  0  0  0  0  0  0  0  0  0
  190.1890  176.4920  144.7230 N   0  0  0  0  0  2  0  0  0  0  0  0
  185.0330  178.8090  145.3780 C   0  0  0  0  0  0  0  0  0  0  0  0
  188.3970  178.2180  144.9080 C   0  0  1  0  0  3  0  0  0  0  0  0
  185.9140  178.7950  140.0270 O   0  0  0  0  0  1  0  0  0  0  0  0
  186.0020  177.9080  144.8540 N   0  0  0  0  0  0  0  0  0  0  0  0
  189.7090  177.6690  145.4690 C   0  0  1  0  0  3  0  0  0  0  0  0
  185.5250  179.4560  146.4930 O   0  0  0  0  0  0  0  0  0  0  0  0
  186.4690  177.6460  143.4790 C   0  0  1  0  0  3  0  0  0  0  0  0
  184.7090  179.1230  142.3720 C   0  0  0  0  0  2  0  0  0  0  0  0
  187.8090  177.8660  148.4660 C   0  0  0  0  0  2  0  0  0  0  0  0
  186.7410  178.3560  141.0680 C   0  0  2  0  0  3  0  0  0  0  0  0
  186.8800  179.0820  146.7410 C   0  0  1  0  0  3  0  0  0  0  0  0
  186.2030  178.7840  142.4560 C   0  0  2  0  0  3  0  0  0  0  0  0
  190.3560  176.8710  143.3050 C   0  0  0  0  0  2  0  0  0  0  0  0
  186.9850  177.5940  147.2060 C   0  0  2  0  0  0  0  0  0  0  0  0
  187.9630  177.4140  143.7040 C   0  0  1  0  0  3  0  0  0  0  0  0
  183.7850  179.0030  144.9400 C   0  0  0  0  0  3  0  0  0  0  0  0
  189.6520  177.4770  146.9860 C   0  0  1  0  0  3  0  0  0  0  0  0
  183.9400  177.9920  142.6850 O   0  0  0  0  0  0  0  0  0  0  0  0
  189.0230  177.2710  142.6270 C   0  0  1  0  0  3  0  0  0  0  0  0
  189.2000  178.6070  141.9170 C   0  0  0  0  0  2  0  0  0  0  0  0
  188.3420  176.8720  147.5140 C   0  0  1  0  0  3  0  0  0  0  0  0
  191.2780  175.5450  147.1300 C   0  0  0  0  0  3  0  0  0  0  0  0
  190.8720  176.8190  147.5570 C   0  0  0  0  0  0  0  0  0  0  0  0
  191.6320  177.5030  148.5120 C   0  0  0  0  0  3  0  0  0  0  0  0
  193.5130  177.5820  149.9740 F   0  0  0  0  0  0  0  0  0  0  0  0
  193.1820  175.6460  148.6220 C   0  0  0  0  0  3  0  0  0  0  0  0
  192.7830  176.9170  149.0460 C   0  0  0  0  0  0  0  0  0  0  0  0
  192.4300  174.9610  147.6640 C   0  0  0  0  0  3  0  0  0  0  0  0
  188.7070  178.3620  139.4410 C   0  0  0  0  0  2  0  0  0  0  0  0
  189.0550  176.8800  139.4270 C   0  0  0  0  0  2  0  0  0  0  0  0
  190.3680  176.6610  138.7010 C   0  0  0  0  0  2  0  0  0  0  0  0
  191.4750  177.1230  139.5380 C   0  0  0  0  0  0  0  0  0  0  0  0
  192.3890  177.5030  140.2270 C   0  0  0  0  0  3  0  0  0  0  0  0
  1 33  1  6  0  0  0
  1 14  1  0  0  0  0
  1 24  1  0  0  0  0
  2 20  1  0  0  0  0
  3  8  1  6  0  0  0
  3 15  1  0  0  0  0
  3 18  1  0  0  0  0
  4  9  1  0  0  0  0
  5 10  1  0  0  0  0
  6  9  1  0  0  0  0
  6  3  1  0  0  0  0
  7 14  1  0  0  0  0
  8  5  1  0  0  0  0
  9 21  1  0  0  0  0
 10 15  1  0  0  0  0
 11 19  1  0  0  0  0
 11  8  1  0  0  0  0
 12 16  1  0  0  0  0
 12 22  1  0  0  0  0
 14 16  1  0  0  0  0
 15 18  1  0  0  0  0
 16 11  1  0  0  0  0
 17  4  1  0  0  0  0
 18 25  1  0  0  0  0
 18 13  1  0  0  0  0
 19  6  1  0  0  0  0
 20  5  2  0  0  0  0
 21 25  1  0  0  0  0
 21 27  1  0  0  0  0
 22  2  1  0  0  0  0
 23 17  1  0  0  0  0
 23 19  1  0  0  0  0
 24 23  1  0  0  0  0
 25 13  1  0  0  0  0
 26 27  2  0  0  0  0
 26 32  1  0  0  0  0
 27 28  1  0  0  0  0
 28 31  2  0  0  0  0
 30 31  1  0  0  0  0
 31 29  1  0  0  0  0
 32 30  2  0  0  0  0
 34 33  1  0  0  0  0
 35 34  1  0  0  0  0
 35 36  1  0  0  0  0
 36 37  3  0  0  0  0
M  END
>  <MODEL>
3

>  <REMARK>
 VINA RESULT:      -8.5      3.155      7.680
  Name = 
  5 active torsions:
  status: ('A' for Active; 'I' for Inactive)
    1  A    between atoms: C_1  and  C_5
    2  A    between atoms: C_5  and  C_17
    3  A    between atoms: C_6  and  C_31
    4  A    between atoms: C_11  and  C_26
    5  A    between atoms: C_17  and  C_26
                            x       y       z     vdW  Elec       q    Type
                         _______ _______ _______ _____ _____    ______ ____

>  <TORSDO>
F 5

$$$$
=
 OpenBabel10262423023D

 37 45  0  0  1  0  0  0  0  0999 V2000
  190.5560  176.1310  143.5710 C   0  0  1  0  0  3  0  0  0  0  0  0
  188.8820  178.5540  148.6880 C   0  0  0  0  0  2  0  0  0  0  0  0
  186.1610  178.2180  145.1200 C   0  0  2  0  0  0  0  0  0  0  0  0
  186.7160  178.6820  141.6480 N   0  0  0  0  0  2  0  0  0  0  0  0
  186.8430  177.9380  147.2880 C   0  0  0  0  0  0  0  0  0  0  0  0
  186.6520  177.5460  143.8680 C   0  0  1  0  0  3  0  0  0  0  0  0
  191.8010  176.5780  145.5650 O   0  0  0  0  0  1  0  0  0  0  0  0
  187.2790  178.4300  146.0260 N   0  0  0  0  0  0  0  0  0  0  0  0
  185.9130  177.8530  142.5650 C   0  0  1  0  0  3  0  0  0  0  0  0
  185.5570  177.4420  147.1970 O   0  0  0  0  0  0  0  0  0  0  0  0
  188.5430  178.2640  145.2810 C   0  0  1  0  0  3  0  0  0  0  0  0
  189.7560  177.0770  147.1850 C   0  0  0  0  0  2  0  0  0  0  0  0
  183.4140  178.7910  144.9120 C   0  0  0  0  0  2  0  0  0  0  0  0
  190.6890  177.0080  144.8310 C   0  0  2  0  0  3  0  0  0  0  0  0
  185.0820  177.5070  145.8530 C   0  0  1  0  0  3  0  0  0  0  0  0
  189.4020  177.0380  145.6920 C   0  0  2  0  0  3  0  0  0  0  0  0
  187.9820  177.9770  141.3650 C   0  0  0  0  0  2  0  0  0  0  0  0
  184.8510  178.9840  145.3990 C   0  0  2  0  0  0  0  0  0  0  0  0
  188.0360  178.1540  143.8440 C   0  0  1  0  0  3  0  0  0  0  0  0
  187.5060  177.9750  148.4470 C   0  0  0  0  0  3  0  0  0  0  0  0
  184.4970  178.3750  142.8150 C   0  0  1  0  0  3  0  0  0  0  0  0
  189.8050  178.4050  147.6340 O   0  0  0  0  0  0  0  0  0  0  0  0
  188.8630  177.7910  142.6250 C   0  0  1  0  0  3  0  0  0  0  0  0
  189.2930  176.3330  142.7270 C   0  0  0  0  0  2  0  0  0  0  0  0
  184.3730  179.3900  143.9630 C   0  0  1  0  0  3  0  0  0  0  0  0
  184.4870  179.3710  140.4910 C   0  0  0  0  0  3  0  0  0  0  0  0
  183.7860  178.8110  141.5700 C   0  0  0  0  0  0  0  0  0  0  0  0
  182.4020  178.6280  141.4750 C   0  0  0  0  0  3  0  0  0  0  0  0
  180.3800  178.8350  140.2310 F   0  0  0  0  0  0  0  0  0  0  0  0
  182.4210  179.5730  139.2450 C   0  0  0  0  0  3  0  0  0  0  0  0
  181.7200  179.0110  140.3170 C   0  0  0  0  0  0  0  0  0  0  0  0
  183.8040  179.7520  139.3320 C   0  0  0  0  0  3  0  0  0  0  0  0
  191.8230  176.1560  142.7090 C   0  0  0  0  0  2  0  0  0  0  0  0
  192.0590  177.5030  142.0390 C   0  0  0  0  0  2  0  0  0  0  0  0
  192.5300  177.2990  140.6130 C   0  0  0  0  0  2  0  0  0  0  0  0
  191.3770  177.0700  139.7420 C   0  0  0  0  0  0  0  0  0  0  0  0
  190.4260  176.8790  139.0260 C   0  0  0  0  0  3  0  0  0  0  0  0
  1 33  1  6  0  0  0
  1 14  1  0  0  0  0
  3 18  1  0  0  0  0
  3 15  1  0  0  0  0
  3  8  1  1  0  0  0
  4  9  1  0  0  0  0
  5 20  2  0  0  0  0
  6  3  1  0  0  0  0
  8  5  1  0  0  0  0
  9 21  1  0  0  0  0
  9  6  1  0  0  0  0
 10  5  1  0  0  0  0
 11 16  1  0  0  0  0
 11  8  1  0  0  0  0
 12 22  1  0  0  0  0
 13 18  1  0  0  0  0
 14  7  1  0  0  0  0
 14 16  1  0  0  0  0
 15 10  1  0  0  0  0
 16 12  1  0  0  0  0
 17  4  1  0  0  0  0
 17 23  1  0  0  0  0
 18 15  1  0  0  0  0
 19  6  1  0  0  0  0
 19 11  1  0  0  0  0
 20  2  1  0  0  0  0
 21 25  1  0  0  0  0
 22  2  1  0  0  0  0
 23 24  1  0  0  0  0
 23 19  1  0  0  0  0
 24  1  1  0  0  0  0
 25 13  1  0  0  0  0
 25 18  1  0  0  0  0
 26 27  1  0  0  0  0
 27 21  1  0  0  0  0
 28 27  2  0  0  0  0
 29 31  1  0  0  0  0
 30 32  1  0  0  0  0
 30 31  2  0  0  0  0
 31 28  1  0  0  0  0
 32 26  2  0  0  0  0
 34 33  1  0  0  0  0
 35 34  1  0  0  0  0
 36 35  1  0  0  0  0
 37 36  3  0  0  0  0
M  END
>  <MODEL>
4

>  <REMARK>
 VINA RESULT:      -8.4      2.372      6.194
  Name = 
  5 active torsions:
  status: ('A' for Active; 'I' for Inactive)
    1  A    between atoms: C_1  and  C_5
    2  A    between atoms: C_5  and  C_17
    3  A    between atoms: C_6  and  C_31
    4  A    between atoms: C_11  and  C_26
    5  A    between atoms: C_17  and  C_26
                            x       y       z     vdW  Elec       q    Type
                         _______ _______ _______ _____ _____    ______ ____

>  <TORSDO>
F 5

$$$$
=
 OpenBabel10262423023D

 37 45  0  0  1  0  0  0  0  0999 V2000
  187.6230  177.3420  143.2840 C   0  0  1  0  0  3  0  0  0  0  0  0
  184.2910  179.6600  138.9970 C   0  0  0  0  0  2  0  0  0  0  0  0
  187.9890  177.2280  138.1930 C   0  0  2  0  0  0  0  0  0  0  0  0
  191.1650  177.1280  139.7680 N   0  0  0  0  0  2  0  0  0  0  0  0
  185.7790  177.8140  138.0640 C   0  0  0  0  0  0  0  0  0  0  0  0
  188.7570  176.6350  139.3420 C   0  0  1  0  0  3  0  0  0  0  0  0
  185.7140  178.7800  143.4000 O   0  0  0  0  0  1  0  0  0  0  0  0
  187.0010  178.1660  138.7030 N   0  0  0  0  0  0  0  0  0  0  0  0
  190.2110  176.2350  139.0880 C   0  0  1  0  0  3  0  0  0  0  0  0
  185.9660  176.7350  137.2230 O   0  0  0  0  0  0  0  0  0  0  0  0
  187.3270  178.4950  140.1050 C   0  0  1  0  0  3  0  0  0  0  0  0
  184.8990  178.5300  140.8840 C   0  0  0  0  0  2  0  0  0  0  0  0
  189.0060  176.2850  135.7440 C   0  0  0  0  0  2  0  0  0  0  0  0
  186.7850  178.4200  142.5720 C   0  0  2  0  0  3  0  0  0  0  0  0
  187.3070  176.2540  137.3030 C   0  0  1  0  0  3  0  0  0  0  0  0
  186.3080  177.9910  141.1620 C   0  0  2  0  0  3  0  0  0  0  0  0
  190.8740  177.1110  141.2160 C   0  0  0  0  0  2  0  0  0  0  0  0
  188.3160  177.2750  136.6850 C   0  0  2  0  0  0  0  0  0  0  0  0
  188.6950  177.8330  140.2630 C   0  0  1  0  0  3  0  0  0  0  0  0
  184.6000  178.4330  138.1700 C   0  0  0  0  0  3  0  0  0  0  0  0
  190.4970  176.0170  137.6010 C   0  0  1  0  0  3  0  0  0  0  0  0
  184.9770  179.7650  140.2240 O   0  0  0  0  0  0  0  0  0  0  0  0
  189.4720  177.6740  141.5560 C   0  0  1  0  0  3  0  0  0  0  0  0
  188.7420  176.6920  142.4630 C   0  0  0  0  0  2  0  0  0  0  0  0
  189.8690  177.0570  136.6610 C   0  0  1  0  0  3  0  0  0  0  0  0
  192.6760  176.6010  136.4580 C   0  0  0  0  0  3  0  0  0  0  0  0
  191.9410  175.7500  137.2970 C   0  0  0  0  0  0  0  0  0  0  0  0
  192.5680  174.6470  137.8860 C   0  0  0  0  0  3  0  0  0  0  0  0
  194.5210  173.3170  138.2030 F   0  0  0  0  0  0  0  0  0  0  0  0
  194.6470  175.2350  136.7920 C   0  0  0  0  0  3  0  0  0  0  0  0
  193.9180  174.3890  137.6320 C   0  0  0  0  0  0  0  0  0  0  0  0
  194.0260  176.3410  136.2050 C   0  0  0  0  0  3  0  0  0  0  0  0
  188.1240  177.8080  144.6560 C   0  0  0  0  0  2  0  0  0  0  0  0
  189.1940  176.8950  145.2390 C   0  0  0  0  0  2  0  0  0  0  0  0
  189.8850  177.5790  146.4020 C   0  0  0  0  0  2  0  0  0  0  0  0
  188.9430  177.7340  147.5110 C   0  0  0  0  0  0  0  0  0  0  0  0
  188.1660  177.8640  148.4240 C   0  0  0  0  0  3  0  0  0  0  0  0
  1 33  1  1  0  0  0
  2 22  1  0  0  0  0
  3  8  1  1  0  0  0
  3  6  1  0  0  0  0
  4 17  1  0  0  0  0
  5 20  2  0  0  0  0
  5  8  1  0  0  0  0
  6 19  1  0  0  0  0
  8 11  1  0  0  0  0
  9  6  1  0  0  0  0
  9  4  1  0  0  0  0
 10 15  1  0  0  0  0
 10  5  1  0  0  0  0
 11 19  1  0  0  0  0
 11 16  1  0  0  0  0
 12 16  1  0  0  0  0
 13 25  1  0  0  0  0
 13 18  1  0  0  0  0
 14  1  1  0  0  0  0
 14  7  1  0  0  0  0
 15  3  1  0  0  0  0
 16 14  1  0  0  0  0
 17 23  1  0  0  0  0
 18 15  1  0  0  0  0
 18  3  1  0  0  0  0
 19 23  1  0  0  0  0
 20  2  1  0  0  0  0
 21  9  1  0  0  0  0
 22 12  1  0  0  0  0
 23 24  1  0  0  0  0
 24  1  1  0  0  0  0
 25 18  1  0  0  0  0
 25 21  1  0  0  0  0
 26 27  1  0  0  0  0
 27 21  1  0  0  0  0
 27 28  2  0  0  0  0
 30 31  2  0  0  0  0
 31 28  1  0  0  0  0
 31 29  1  0  0  0  0
 32 26  2  0  0  0  0
 32 30  1  0  0  0  0
 33 34  1  0  0  0  0
 34 35  1  0  0  0  0
 35 36  1  0  0  0  0
 36 37  3  0  0  0  0
M  END
>  <MODEL>
5

>  <REMARK>
 VINA RESULT:      -8.3      3.213      6.202
  Name = 
  5 active torsions:
  status: ('A' for Active; 'I' for Inactive)
    1  A    between atoms: C_1  and  C_5
    2  A    between atoms: C_5  and  C_17
    3  A    between atoms: C_6  and  C_31
    4  A    between atoms: C_11  and  C_26
    5  A    between atoms: C_17  and  C_26
                            x       y       z     vdW  Elec       q    Type
                         _______ _______ _______ _____ _____    ______ ____

>  <TORSDO>
F 5

$$$$
=
 OpenBabel10262423023D

 37 45  0  0  1  0  0  0  0  0999 V2000
  189.3250  177.3670  141.3040 C   0  0  1  0  0  3  0  0  0  0  0  0
  186.8410  178.3270  136.0350 C   0  0  0  0  0  2  0  0  0  0  0  0
  190.7540  176.1690  136.5510 C   0  0  2  0  0  0  0  0  0  0  0  0
  193.5300  176.7450  138.6810 N   0  0  0  0  0  2  0  0  0  0  0  0
  188.5910  176.4820  135.8680 C   0  0  0  0  0  0  0  0  0  0  0  0
  191.2960  175.9260  137.9320 C   0  0  1  0  0  3  0  0  0  0  0  0
  187.3580  178.5920  140.7080 O   0  0  0  0  0  1  0  0  0  0  0  0
  189.6310  177.0900  136.6260 N   0  0  0  0  0  0  0  0  0  0  0  0
  192.7910  175.6300  138.0630 C   0  0  1  0  0  3  0  0  0  0  0  0
  189.0090  175.2690  135.3580 O   0  0  0  0  0  0  0  0  0  0  0  0
  189.6370  177.7530  137.9450 C   0  0  1  0  0  3  0  0  0  0  0  0
  187.1020  177.7110  138.2160 C   0  0  0  0  0  2  0  0  0  0  0  0
  192.3120  174.8160  134.6360 C   0  0  0  0  0  2  0  0  0  0  0  0
  188.5960  178.1700  140.2090 C   0  0  2  0  0  3  0  0  0  0  0  0
  190.3280  174.9570  135.8040 C   0  0  1  0  0  3  0  0  0  0  0  0
  188.4500  177.3930  138.8780 C   0  0  2  0  0  3  0  0  0  0  0  0
  192.9450  177.0180  140.0090 C   0  0  0  0  0  2  0  0  0  0  0  0
  191.3860  175.9140  135.1660 C   0  0  2  0  0  0  0  0  0  0  0  0
  190.9770  177.2850  138.5130 C   0  0  1  0  0  3  0  0  0  0  0  0
  187.3830  176.9860  135.5970 C   0  0  0  0  0  3  0  0  0  0  0  0
  193.3930  175.1190  136.7530 C   0  0  1  0  0  3  0  0  0  0  0  0
  187.2480  178.7700  137.3090 O   0  0  0  0  0  0  0  0  0  0  0  0
  191.4740  177.4960  139.9320 C   0  0  1  0  0  3  0  0  0  0  0  0
  190.6250  176.6700  140.8890 C   0  0  0  0  0  2  0  0  0  0  0  0
  192.9190  175.8560  135.4900 C   0  0  1  0  0  3  0  0  0  0  0  0
  195.4830  174.1160  137.7640 C   0  0  0  0  0  3  0  0  0  0  0  0
  194.8810  174.9420  136.8020 C   0  0  0  0  0  0  0  0  0  0  0  0
  195.6770  175.5910  135.8530 C   0  0  0  0  0  3  0  0  0  0  0  0
  197.8320  176.0610  134.9490 F   0  0  0  0  0  0  0  0  0  0  0  0
  197.6620  174.6080  136.8310 C   0  0  0  0  0  3  0  0  0  0  0  0
  197.0650  175.4270  135.8680 C   0  0  0  0  0  0  0  0  0  0  0  0
  196.8710  173.9520  137.7780 C   0  0  0  0  0  3  0  0  0  0  0  0
  189.5020  178.1740  142.5950 C   0  0  0  0  0  2  0  0  0  0  0  0
  189.1450  177.3810  143.8450 C   0  0  0  0  0  2  0  0  0  0  0  0
  187.8030  176.6990  143.6640 C   0  0  0  0  0  2  0  0  0  0  0  0
  186.7580  177.4900  144.3160 C   0  0  0  0  0  0  0  0  0  0  0  0
  185.8990  178.1410  144.8540 C   0  0  0  0  0  3  0  0  0  0  0  0
  1 33  1  1  0  0  0
  2 22  1  0  0  0  0
  3  8  1  6  0  0  0
  3  6  1  0  0  0  0
  4 17  1  0  0  0  0
  5  8  1  0  0  0  0
  6  9  1  0  0  0  0
  6 19  1  0  0  0  0
  8 11  1  0  0  0  0
  9  4  1  0  0  0  0
 10 15  1  0  0  0  0
 10  5  1  0  0  0  0
 11 19  1  0  0  0  0
 11 16  1  0  0  0  0
 12 16  1  0  0  0  0
 13 18  1  0  0  0  0
 13 25  1  0  0  0  0
 14  7  1  0  0  0  0
 14  1  1  0  0  0  0
 15  3  1  0  0  0  0
 16 14  1  0  0  0  0
 18 25  1  0  0  0  0
 18 15  1  0  0  0  0
 18  3  1  0  0  0  0
 19 23  1  0  0  0  0
 20  5  2  0  0  0  0
 20  2  1  0  0  0  0
 21 27  1  0  0  0  0
 21  9  1  0  0  0  0
 22 12  1  0  0  0  0
 23 17  1  0  0  0  0
 23 24  1  0  0  0  0
 24  1  1  0  0  0  0
 25 21  1  0  0  0  0
 26 32  1  0  0  0  0
 27 26  2  0  0  0  0
 28 31  2  0  0  0  0
 28 27  1  0  0  0  0
 29 31  1  0  0  0  0
 30 32  2  0  0  0  0
 31 30  1  0  0  0  0
 33 34  1  0  0  0  0
 35 34  1  0  0  0  0
 35 36  1  0  0  0  0
 36 37  3  0  0  0  0
M  END
>  <MODEL>
6

>  <REMARK>
 VINA RESULT:      -8.2      4.399      7.556
  Name = 
  5 active torsions:
  status: ('A' for Active; 'I' for Inactive)
    1  A    between atoms: C_1  and  C_5
    2  A    between atoms: C_5  and  C_17
    3  A    between atoms: C_6  and  C_31
    4  A    between atoms: C_11  and  C_26
    5  A    between atoms: C_17  and  C_26
                            x       y       z     vdW  Elec       q    Type
                         _______ _______ _______ _____ _____    ______ ____

>  <TORSDO>
F 5

$$$$
=
 OpenBabel10262423023D

 37 45  0  0  1  0  0  0  0  0999 V2000
  189.8760  177.0360  139.4790 C   0  0  1  0  0  3  0  0  0  0  0  0
  191.8930  178.2820  144.8860 C   0  0  0  0  0  2  0  0  0  0  0  0
  187.5130  177.9340  143.9160 C   0  0  2  0  0  0  0  0  0  0  0  0
  185.5960  179.0110  141.1330 N   0  0  0  0  0  2  0  0  0  0  0  0
  189.4770  177.4790  145.0030 C   0  0  0  0  0  0  0  0  0  0  0  0
  187.0850  177.5690  142.5210 C   0  0  1  0  0  3  0  0  0  0  0  0
  192.1030  177.4260  140.2590 O   0  0  0  0  0  1  0  0  0  0  0  0
  188.9370  178.2320  143.9220 N   0  0  0  0  0  0  0  0  0  0  0  0
  185.6520  177.9100  142.1110 C   0  0  1  0  0  3  0  0  0  0  0  0
  188.4840  176.7530  145.6300 O   0  0  0  0  0  0  0  0  0  0  0  0
  189.3940  178.4380  142.5330 C   0  0  1  0  0  3  0  0  0  0  0  0
  191.6270  177.2530  142.8660 C   0  0  0  0  0  2  0  0  0  0  0  0
  185.2950  177.9620  145.6470 C   0  0  0  0  0  2  0  0  0  0  0  0
  190.7630  177.7250  140.5330 C   0  0  2  0  0  3  0  0  0  0  0  0
  187.2340  176.9180  144.9620 C   0  0  1  0  0  3  0  0  0  0  0  0
  190.3740  177.3650  141.9880 C   0  0  2  0  0  3  0  0  0  0  0  0
  186.3910  178.6290  139.9480 C   0  0  0  0  0  2  0  0  0  0  0  0
  186.6800  178.3680  145.1400 C   0  0  2  0  0  0  0  0  0  0  0  0
  188.0670  178.4430  141.7750 C   0  0  1  0  0  3  0  0  0  0  0  0
  190.7390  177.4780  145.4400 C   0  0  0  0  0  3  0  0  0  0  0  0
  184.7330  178.0910  143.3210 C   0  0  1  0  0  3  0  0  0  0  0  0
  191.8900  178.4810  143.4910 O   0  0  0  0  0  0  0  0  0  0  0  0
  187.8950  178.4400  140.2670 C   0  0  1  0  0  3  0  0  0  0  0  0
  188.3620  177.1010  139.7110 C   0  0  0  0  0  2  0  0  0  0  0  0
  185.3480  178.8770  144.4890 C   0  0  1  0  0  3  0  0  0  0  0  0
  182.4600  179.0030  143.9520 C   0  0  0  0  0  3  0  0  0  0  0  0
  183.3520  178.5530  142.9660 C   0  0  0  0  0  0  0  0  0  0  0  0
  182.9600  178.5600  141.6230 C   0  0  0  0  0  3  0  0  0  0  0  0
  181.3070  179.0050  139.9650 F   0  0  0  0  0  0  0  0  0  0  0  0
  180.7950  179.4460  142.2510 C   0  0  0  0  0  3  0  0  0  0  0  0
  181.6830  179.0030  141.2660 C   0  0  0  0  0  0  0  0  0  0  0  0
  181.1840  179.4460  143.5930 C   0  0  0  0  0  3  0  0  0  0  0  0
  190.2470  177.4460  138.0490 C   0  0  0  0  0  2  0  0  0  0  0  0
  189.8100  176.4260  137.0060 C   0  0  0  0  0  2  0  0  0  0  0  0
  189.3090  177.1340  135.7630 C   0  0  0  0  0  2  0  0  0  0  0  0
  188.1410  177.9500  136.0990 C   0  0  0  0  0  0  0  0  0  0  0  0
  187.1800  178.6230  136.3760 C   0  0  0  0  0  3  0  0  0  0  0  0
  1 33  1  6  0  0  0
  1 24  1  0  0  0  0
  1 14  1  0  0  0  0
  2 20  1  0  0  0  0
  3  8  1  1  0  0  0
  3 15  1  0  0  0  0
  3 18  1  0  0  0  0
  4  9  1  0  0  0  0
  5 20  2  0  0  0  0
  5 10  1  0  0  0  0
  6  3  1  0  0  0  0
  7 14  1  0  0  0  0
  8  5  1  0  0  0  0
  9  6  1  0  0  0  0
  9 21  1  0  0  0  0
 11  8  1  0  0  0  0
 12 22  1  0  0  0  0
 14 16  1  0  0  0  0
 15 18  1  0  0  0  0
 15 10  1  0  0  0  0
 16 11  1  0  0  0  0
 16 12  1  0  0  0  0
 17 23  1  0  0  0  0
 17  4  1  0  0  0  0
 18 13  1  0  0  0  0
 19  6  1  0  0  0  0
 19 11  1  0  0  0  0
 21 25  1  0  0  0  0
 22  2  1  0  0  0  0
 23 19  1  0  0  0  0
 24 23  1  0  0  0  0
 25 18  1  0  0  0  0
 25 13  1  0  0  0  0
 27 21  1  0  0  0  0
 27 26  2  0  0  0  0
 28 27  1  0  0  0  0
 29 31  1  0  0  0  0
 30 32  2  0  0  0  0
 31 28  2  0  0  0  0
 31 30  1  0  0  0  0
 32 26  1  0  0  0  0
 34 33  1  0  0  0  0
 35 36  1  0  0  0  0
 35 34  1  0  0  0  0
 36 37  3  0  0  0  0
M  END
>  <MODEL>
7

>  <REMARK>
 VINA RESULT:      -8.1      2.118      6.591
  Name = 
  5 active torsions:
  status: ('A' for Active; 'I' for Inactive)
    1  A    between atoms: C_1  and  C_5
    2  A    between atoms: C_5  and  C_17
    3  A    between atoms: C_6  and  C_31
    4  A    between atoms: C_11  and  C_26
    5  A    between atoms: C_17  and  C_26
                            x       y       z     vdW  Elec       q    Type
                         _______ _______ _______ _____ _____    ______ ____

>  <TORSDO>
F 5

$$$$
=
 OpenBabel10262423023D

 37 45  0  0  1  0  0  0  0  0999 V2000
  183.8850  178.0070  139.8900 C   0  0  1  0  0  3  0  0  0  0  0  0
  189.2330  178.5590  137.4500 C   0  0  0  0  0  2  0  0  0  0  0  0
  188.6020  177.6760  141.8160 C   0  0  2  0  0  0  0  0  0  0  0  0
  186.2700  178.9120  144.1850 N   0  0  0  0  0  2  0  0  0  0  0  0
  189.4000  177.3600  139.6930 C   0  0  0  0  0  0  0  0  0  0  0  0
  187.2060  177.5060  142.3490 C   0  0  1  0  0  3  0  0  0  0  0  0
  184.5280  178.6100  137.6660 O   0  0  0  0  0  1  0  0  0  0  0  0
  188.5430  178.1980  140.4600 N   0  0  0  0  0  0  0  0  0  0  0  0
  187.0000  177.6750  143.8550 C   0  0  1  0  0  3  0  0  0  0  0  0
  189.9550  176.3770  140.4880 O   0  0  0  0  0  0  0  0  0  0  0  0
  187.1880  178.7270  140.2050 C   0  0  1  0  0  3  0  0  0  0  0  0
  187.0800  177.8870  137.8000 C   0  0  0  0  0  2  0  0  0  0  0  0
  190.4930  177.0200  143.7950 C   0  0  0  0  0  2  0  0  0  0  0  0
  184.9730  178.6280  138.9930 C   0  0  2  0  0  3  0  0  0  0  0  0
  189.4460  176.4530  141.8190 C   0  0  1  0  0  3  0  0  0  0  0  0
  186.3550  177.9490  139.1510 C   0  0  2  0  0  3  0  0  0  0  0  0
  184.9680  178.8890  143.4890 C   0  0  0  0  0  2  0  0  0  0  0  0
  189.9570  177.7350  142.5530 C   0  0  2  0  0  0  0  0  0  0  0  0
  186.5660  178.6520  141.5990 C   0  0  1  0  0  3  0  0  0  0  0  0
  189.7150  177.4870  138.4010 C   0  0  0  0  0  3  0  0  0  0  0  0
  188.2980  177.4770  144.6400 C   0  0  1  0  0  3  0  0  0  0  0  0
  187.9110  179.0060  137.6470 O   0  0  0  0  0  0  0  0  0  0  0  0
  185.1090  178.8960  141.9460 C   0  0  1  0  0  3  0  0  0  0  0  0
  184.2580  177.7780  141.3590 C   0  0  0  0  0  2  0  0  0  0  0  0
  189.5410  178.1270  144.0120 C   0  0  1  0  0  3  0  0  0  0  0  0
  186.9060  177.8880  146.7110 C   0  0  0  0  0  3  0  0  0  0  0  0
  188.1650  177.7620  146.1060 C   0  0  0  0  0  0  0  0  0  0  0  0
  189.3220  177.8770  146.8850 C   0  0  0  0  0  3  0  0  0  0  0  0
  190.3460  178.2390  149.0070 F   0  0  0  0  0  0  0  0  0  0  0  0
  187.9670  178.2550  148.8560 C   0  0  0  0  0  3  0  0  0  0  0  0
  189.2230  178.1250  148.2570 C   0  0  0  0  0  0  0  0  0  0  0  0
  186.8080  178.1350  148.0830 C   0  0  0  0  0  3  0  0  0  0  0  0
  182.5390  178.7270  139.7540 C   0  0  0  0  0  2  0  0  0  0  0  0
  182.6840  180.1850  139.3390 C   0  0  0  0  0  2  0  0  0  0  0  0
  181.4190  180.6600  138.6520 C   0  0  0  0  0  2  0  0  0  0  0  0
  181.1870  179.8650  137.4460 C   0  0  0  0  0  0  0  0  0  0  0  0
  180.9970  179.2110  136.4510 C   0  0  0  0  0  3  0  0  0  0  0  0
  1 33  1  1  0  0  0
  1 24  1  0  0  0  0
  2 22  1  0  0  0  0
  2 20  1  0  0  0  0
  3  8  1  6  0  0  0
  3 15  1  0  0  0  0
  3  6  1  0  0  0  0
  3 18  1  0  0  0  0
  5  8  1  0  0  0  0
  5 10  1  0  0  0  0
  6  9  1  0  0  0  0
  7 14  1  0  0  0  0
  9  4  1  0  0  0  0
  9 21  1  0  0  0  0
 10 15  1  0  0  0  0
 11  8  1  0  0  0  0
 11 19  1  0  0  0  0
 12 16  1  0  0  0  0
 13 25  1  0  0  0  0
 14 16  1  0  0  0  0
 14  1  1  0  0  0  0
 15 18  1  0  0  0  0
 16 11  1  0  0  0  0
 17  4  1  0  0  0  0
 18 13  1  0  0  0  0
 18 25  1  0  0  0  0
 19 23  1  0  0  0  0
 19  6  1  0  0  0  0
 20  5  2  0  0  0  0
 21 27  1  0  0  0  0
 22 12  1  0  0  0  0
 23 17  1  0  0  0  0
 24 23  1  0  0  0  0
 25 21  1  0  0  0  0
 26 32  1  0  0  0  0
 27 26  2  0  0  0  0
 27 28  1  0  0  0  0
 28 31  2  0  0  0  0
 31 30  1  0  0  0  0
 31 29  1  0  0  0  0
 32 30  2  0  0  0  0
 34 33  1  0  0  0  0
 35 34  1  0  0  0  0
 36 35  1  0  0  0  0
 37 36  3  0  0  0  0
M  END
>  <MODEL>
8

>  <REMARK>
 VINA RESULT:      -8.0      3.630      6.904
  Name = 
  5 active torsions:
  status: ('A' for Active; 'I' for Inactive)
    1  A    between atoms: C_1  and  C_5
    2  A    between atoms: C_5  and  C_17
    3  A    between atoms: C_6  and  C_31
    4  A    between atoms: C_11  and  C_26
    5  A    between atoms: C_17  and  C_26
                            x       y       z     vdW  Elec       q    Type
                         _______ _______ _______ _____ _____    ______ ____

>  <TORSDO>
F 5

$$$$
=
 OpenBabel10262423023D

 37 45  0  0  1  0  0  0  0  0999 V2000
  191.0200  178.2420  143.2590 C   0  0  1  0  0  3  0  0  0  0  0  0
  190.8830  176.1470  137.7410 C   0  0  0  0  0  2  0  0  0  0  0  0
  187.3040  177.9730  139.7660 C   0  0  2  0  0  0  0  0  0  0  0  0
  186.0540  177.7240  143.0760 N   0  0  0  0  0  2  0  0  0  0  0  0
  188.9030  177.7000  138.1500 C   0  0  0  0  0  0  0  0  0  0  0  0
  187.4360  178.5240  141.1600 C   0  0  1  0  0  3  0  0  0  0  0  0
  192.6910  177.1000  141.9840 O   0  0  0  0  0  1  0  0  0  0  0  0
  188.5020  177.2200  139.4290 N   0  0  0  0  0  0  0  0  0  0  0  0
  186.1540  178.6980  141.9740 C   0  0  1  0  0  3  0  0  0  0  0  0
  188.0420  178.6840  137.7100 O   0  0  0  0  0  0  0  0  0  0  0  0
  189.2600  176.9390  140.6640 C   0  0  1  0  0  3  0  0  0  0  0  0
  191.5480  177.2990  139.5950 C   0  0  0  0  0  2  0  0  0  0  0  0
  184.7780  178.6020  138.6990 C   0  0  0  0  0  2  0  0  0  0  0  0
  191.3050  177.2500  142.1160 C   0  0  2  0  0  3  0  0  0  0  0  0
  187.0540  178.9740  138.6990 C   0  0  1  0  0  3  0  0  0  0  0  0
  190.6360  177.6500  140.7780 C   0  0  2  0  0  3  0  0  0  0  0  0
  187.2390  177.8760  143.9460 C   0  0  0  0  0  2  0  0  0  0  0  0
  186.0580  177.7830  138.8770 C   0  0  2  0  0  0  0  0  0  0  0  0
  188.2790  177.4100  141.7370 C   0  0  1  0  0  3  0  0  0  0  0  0
  189.9200  177.2610  137.4020 C   0  0  0  0  0  3  0  0  0  0  0  0
  184.9120  178.7760  141.0850 C   0  0  1  0  0  3  0  0  0  0  0  0
  191.2280  176.0250  139.1020 O   0  0  0  0  0  0  0  0  0  0  0  0
  188.5660  177.5400  143.2210 C   0  0  1  0  0  3  0  0  0  0  0  0
  189.5600  178.6730  143.4420 C   0  0  0  0  0  2  0  0  0  0  0  0
  184.8860  177.7760  139.9180 C   0  0  1  0  0  3  0  0  0  0  0  0
  183.6070  179.0450  143.2340 C   0  0  0  0  0  3  0  0  0  0  0  0
  183.6230  178.8150  141.8500 C   0  0  0  0  0  0  0  0  0  0  0  0
  182.4170  178.6460  141.1620 C   0  0  0  0  0  3  0  0  0  0  0  0
  180.0360  178.5280  141.1810 F   0  0  0  0  0  0  0  0  0  0  0  0
  181.1890  178.9200  143.2310 C   0  0  0  0  0  3  0  0  0  0  0  0
  181.2020  178.6960  141.8510 C   0  0  0  0  0  0  0  0  0  0  0  0
  182.3910  179.0950  143.9220 C   0  0  0  0  0  3  0  0  0  0  0  0
  191.6500  177.8000  144.5840 C   0  0  0  0  0  2  0  0  0  0  0  0
  191.1500  176.4410  145.0560 C   0  0  0  0  0  2  0  0  0  0  0  0
  191.0500  176.4200  146.5680 C   0  0  0  0  0  2  0  0  0  0  0  0
  189.8180  177.0890  146.9890 C   0  0  0  0  0  0  0  0  0  0  0  0
  188.8030  177.6380  147.3360 C   0  0  0  0  0  3  0  0  0  0  0  0
  1 24  1  0  0  0  0
  1 33  1  1  0  0  0
  2 22  1  0  0  0  0
  3  8  1  6  0  0  0
  3  6  1  0  0  0  0
  4 17  1  0  0  0  0
  5  8  1  0  0  0  0
  6 19  1  0  0  0  0
  6  9  1  0  0  0  0
  7 14  1  0  0  0  0
  8 11  1  0  0  0  0
  9  4  1  0  0  0  0
 10  5  1  0  0  0  0
 10 15  1  0  0  0  0
 11 16  1  0  0  0  0
 11 19  1  0  0  0  0
 12 16  1  0  0  0  0
 13 18  1  0  0  0  0
 13 25  1  0  0  0  0
 14  1  1  0  0  0  0
 15 18  1  0  0  0  0
 15  3  1  0  0  0  0
 16 14  1  0  0  0  0
 18  3  1  0  0  0  0
 18 25  1  0  0  0  0
 19 23  1  0  0  0  0
 20  2  1  0  0  0  0
 20  5  2  0  0  0  0
 21 27  1  0  0  0  0
 21  9  1  0  0  0  0
 22 12  1  0  0  0  0
 23 24  1  0  0  0  0
 23 17  1  0  0  0  0
 25 21  1  0  0  0  0
 26 32  1  0  0  0  0
 27 26  2  0  0  0  0
 28 27  1  0  0  0  0
 28 31  2  0  0  0  0
 29 31  1  0  0  0  0
 30 32  2  0  0  0  0
 31 30  1  0  0  0  0
 33 34  1  0  0  0  0
 34 35  1  0  0  0  0
 35 36  1  0  0  0  0
 36 37  3  0  0  0  0
M  END
>  <MODEL>
9

>  <REMARK>
 VINA RESULT:      -7.4      2.963      7.168
  Name = 
  5 active torsions:
  status: ('A' for Active; 'I' for Inactive)
    1  A    between atoms: C_1  and  C_5
    2  A    between atoms: C_5  and  C_17
    3  A    between atoms: C_6  and  C_31
    4  A    between atoms: C_11  and  C_26
    5  A    between atoms: C_17  and  C_26
                            x       y       z     vdW  Elec       q    Type
                         _______ _______ _______ _____ _____    ______ ____

>  <TORSDO>
F 5

$$$$
