=
 OpenBabel10262419453D

 25 27  0  0  1  0  0  0  0  0999 V2000
  190.6100  176.9500  144.8460 C   0  0  0  0  0  0  0  0  0  0  0  0
  189.4110  177.3560  145.4740 C   0  0  0  0  0  0  0  0  0  0  0  0
  191.5340  176.4060  146.9640 C   0  0  0  0  0  3  0  0  0  0  0  0
  185.8340  178.5780  144.7430 N   0  0  0  0  0  2  0  0  0  0  0  0
  190.3910  176.7890  147.5840 N   0  0  0  0  0  0  0  0  0  0  0  0
  188.0950  177.6600  147.5460 C   0  0  0  0  0  0  0  0  0  0  0  0
  187.9920  177.5930  148.8310 N   0  0  0  0  0  2  0  0  0  0  0  0
  184.5360  178.8170  145.3000 C   0  0  0  0  0  0  0  0  0  0  0  0
  188.2800  177.9800  144.6900 C   0  0  0  0  0  2  0  0  0  0  0  0
  191.6350  176.4890  145.6130 N   0  0  0  0  0  0  0  0  0  0  0  0
  186.9650  178.0580  146.7660 N   0  0  0  0  0  0  0  0  0  0  0  0
  187.0030  178.1800  145.4700 C   0  0  0  0  0  0  0  0  0  0  0  0
  189.3350  177.2610  146.8710 C   0  0  0  0  0  0  0  0  0  0  0  0
  184.3180  178.6570  146.5320 O   0  0  0  0  0  0  0  0  0  0  0  0
  190.7890  176.9950  143.3740 C   0  0  0  0  0  0  0  0  0  0  0  0
  191.1220  177.1750  140.5880 C   0  0  0  0  0  3  0  0  0  0  0  0
  189.8960  176.3300  142.5030 C   0  0  0  0  0  0  0  0  0  0  0  0
  190.0730  176.4210  141.1190 C   0  0  0  0  0  3  0  0  0  0  0  0
  192.0020  177.8420  141.4400 C   0  0  0  0  0  3  0  0  0  0  0  0
  188.8290  175.5340  143.0100 N   0  0  0  0  0  1  0  0  0  0  0  0
  191.8340  177.7540  142.8240 C   0  0  0  0  0  3  0  0  0  0  0  0
  183.4210  179.2240  144.3930 C   0  0  2  0  0  3  0  0  0  0  0  0
  182.2300  178.6260  144.7680 F   0  0  0  0  0  0  0  0  0  0  0  0
  182.4910  178.6630  142.1150 C   0  0  0  0  0  1  0  0  0  0  0  0
  183.7450  178.9340  142.9310 C   0  0  0  0  0  2  0  0  0  0  0  0
  1  2  2  0  0  0  0
  1 10  1  0  0  0  0
  2 13  1  0  0  0  0
  3  5  1  0  0  0  0
  4  8  1  0  0  0  0
  4 12  1  0  0  0  0
  6  7  2  0  0  0  0
  8 14  2  0  0  0  0
  9 12  1  0  0  0  0
  9  2  1  0  0  0  0
 10  3  2  0  0  0  0
 11  6  1  0  0  0  0
 12 11  2  0  0  0  0
 13  6  1  0  0  0  0
 13  5  2  0  0  0  0
 15  1  1  0  0  0  0
 16 18  2  0  0  0  0
 16 19  1  0  0  0  0
 17 20  1  0  0  0  0
 17 15  2  0  0  0  0
 18 17  1  0  0  0  0
 19 21  2  0  0  0  0
 21 15  1  0  0  0  0
 22 23  1  1  0  0  0
 22  8  1  0  0  0  0
 24 25  1  0  0  0  0
 25 22  1  0  0  0  0
M  END
>  <MODEL>
1

>  <REMARK>
 VINA RESULT:      -9.3      0.000      0.000
  Name = 
  3 active torsions:
  status: ('A' for Active; 'I' for Inactive)
    1  A    between atoms: C_1  and  C_5
    2  A    between atoms: C_2  and  C_15
    3  A    between atoms: C_2  and  C_21
                            x       y       z     vdW  Elec       q    Type
                         _______ _______ _______ _____ _____    ______ ____

>  <TORSDO>
F 3

$$$$
=
 OpenBabel10262419453D

 25 27  0  0  1  0  0  0  0  0999 V2000
  187.0560  177.7470  145.0840 C   0  0  0  0  0  0  0  0  0  0  0  0
  188.1010  177.4270  144.1880 C   0  0  0  0  0  0  0  0  0  0  0  0
  188.5040  177.3330  146.9190 C   0  0  0  0  0  3  0  0  0  0  0  0
  189.0040  177.3350  140.4470 N   0  0  0  0  0  2  0  0  0  0  0  0
  189.5190  177.0240  146.0750 N   0  0  0  0  0  0  0  0  0  0  0  0
  190.4480  176.7410  143.8190 C   0  0  0  0  0  0  0  0  0  0  0  0
  191.6030  176.3950  144.2810 N   0  0  0  0  0  2  0  0  0  0  0  0
  190.0690  177.2130  139.4970 C   0  0  0  0  0  0  0  0  0  0  0  0
  187.8710  177.3660  142.6960 C   0  0  0  0  0  2  0  0  0  0  0  0
  187.2920  177.6880  146.4230 N   0  0  0  0  0  0  0  0  0  0  0  0
  190.2650  176.8860  142.4090 N   0  0  0  0  0  0  0  0  0  0  0  0
  189.1230  177.2000  141.8690 C   0  0  0  0  0  0  0  0  0  0  0  0
  189.3430  177.0620  144.7280 C   0  0  0  0  0  0  0  0  0  0  0  0
  191.2530  176.9940  139.8720 O   0  0  0  0  0  0  0  0  0  0  0  0
  185.7100  178.1610  144.6170 C   0  0  0  0  0  0  0  0  0  0  0  0
  183.1990  179.0060  143.6740 C   0  0  0  0  0  3  0  0  0  0  0  0
  184.7390  178.6580  145.5160 C   0  0  0  0  0  0  0  0  0  0  0  0
  183.4910  179.0710  145.0380 C   0  0  0  0  0  3  0  0  0  0  0  0
  184.1550  178.5250  142.7800 C   0  0  0  0  0  3  0  0  0  0  0  0
  184.9940  178.7160  146.9160 N   0  0  0  0  0  1  0  0  0  0  0  0
  185.4030  178.1080  143.2480 C   0  0  0  0  0  3  0  0  0  0  0  0
  189.7700  177.3890  138.0440 C   0  0  2  0  0  3  0  0  0  0  0  0
  190.9030  177.1900  137.2730 F   0  0  0  0  0  0  0  0  0  0  0  0
  187.9440  178.6340  136.8260 C   0  0  0  0  0  1  0  0  0  0  0  0
  189.1420  178.7490  137.7560 C   0  0  0  0  0  2  0  0  0  0  0  0
  1 10  1  0  0  0  0
  2 13  1  0  0  0  0
  2  1  2  0  0  0  0
  4 12  1  0  0  0  0
  5  3  1  0  0  0  0
  6  7  2  0  0  0  0
  6 13  1  0  0  0  0
  8 14  2  0  0  0  0
  8  4  1  0  0  0  0
  9  2  1  0  0  0  0
 10  3  2  0  0  0  0
 11  6  1  0  0  0  0
 12 11  2  0  0  0  0
 12  9  1  0  0  0  0
 13  5  2  0  0  0  0
 15  1  1  0  0  0  0
 15 17  1  0  0  0  0
 16 18  1  0  0  0  0
 17 20  1  0  0  0  0
 18 17  2  0  0  0  0
 19 21  1  0  0  0  0
 19 16  2  0  0  0  0
 21 15  2  0  0  0  0
 22 23  1  6  0  0  0
 22  8  1  0  0  0  0
 24 25  1  0  0  0  0
 25 22  1  0  0  0  0
M  END
>  <MODEL>
2

>  <REMARK>
 VINA RESULT:      -9.0      3.578      6.465
  Name = 
  3 active torsions:
  status: ('A' for Active; 'I' for Inactive)
    1  A    between atoms: C_1  and  C_5
    2  A    between atoms: C_2  and  C_15
    3  A    between atoms: C_2  and  C_21
                            x       y       z     vdW  Elec       q    Type
                         _______ _______ _______ _____ _____    ______ ____

>  <TORSDO>
F 3

$$$$
=
 OpenBabel10262419453D

 25 27  0  0  1  0  0  0  0  0999 V2000
  185.2260  178.3540  144.1660 C   0  0  0  0  0  0  0  0  0  0  0  0
  185.3500  178.5440  142.7720 C   0  0  0  0  0  0  0  0  0  0  0  0
  182.8850  178.7120  144.0060 C   0  0  0  0  0  3  0  0  0  0  0  0
  187.8820  178.4050  139.8750 N   0  0  0  0  0  2  0  0  0  0  0  0
  182.9840  178.8950  142.6670 N   0  0  0  0  0  0  0  0  0  0  0  0
  184.2850  179.0040  140.5870 C   0  0  0  0  0  0  0  0  0  0  0  0
  183.2350  179.2650  139.8820 N   0  0  0  0  0  2  0  0  0  0  0  0
  188.0420  178.3940  138.4520 C   0  0  0  0  0  0  0  0  0  0  0  0
  186.7000  178.5650  142.0930 C   0  0  0  0  0  2  0  0  0  0  0  0
  183.9950  178.4450  144.7400 N   0  0  0  0  0  0  0  0  0  0  0  0
  185.5450  178.8190  139.9380 N   0  0  0  0  0  0  0  0  0  0  0  0
  186.6510  178.5860  140.5850 C   0  0  0  0  0  0  0  0  0  0  0  0
  184.1860  178.8190  142.0390 C   0  0  0  0  0  0  0  0  0  0  0  0
  187.0490  178.5220  137.6860 O   0  0  0  0  0  0  0  0  0  0  0  0
  186.3920  178.0430  145.0300 C   0  0  0  0  0  0  0  0  0  0  0  0
  188.5890  177.3620  146.6480 C   0  0  0  0  0  3  0  0  0  0  0  0
  186.4130  178.4050  146.3960 C   0  0  0  0  0  0  0  0  0  0  0  0
  187.5130  178.0670  147.1910 C   0  0  0  0  0  3  0  0  0  0  0  0
  188.5710  176.9920  145.3020 C   0  0  0  0  0  3  0  0  0  0  0  0
  185.3440  179.1450  146.9790 N   0  0  0  0  0  1  0  0  0  0  0  0
  187.4780  177.3280  144.5000 C   0  0  0  0  0  3  0  0  0  0  0  0
  189.4050  178.1870  137.8750 C   0  0  2  0  0  3  0  0  0  0  0  0
  189.4360  178.5290  136.5340 F   0  0  0  0  0  0  0  0  0  0  0  0
  191.0090  176.6960  139.1300 C   0  0  0  0  0  1  0  0  0  0  0  0
  189.9000  176.7600  138.0910 C   0  0  0  0  0  2  0  0  0  0  0  0
  1 10  1  0  0  0  0
  1 15  1  0  0  0  0
  2  1  2  0  0  0  0
  3 10  2  0  0  0  0
  4 12  1  0  0  0  0
  5  3  1  0  0  0  0
  6 13  1  0  0  0  0
  7  6  2  0  0  0  0
  8  4  1  0  0  0  0
  9  2  1  0  0  0  0
 11 12  2  0  0  0  0
 11  6  1  0  0  0  0
 12  9  1  0  0  0  0
 13  5  2  0  0  0  0
 13  2  1  0  0  0  0
 14  8  2  0  0  0  0
 15 17  1  0  0  0  0
 16 18  1  0  0  0  0
 17 20  1  0  0  0  0
 17 18  2  0  0  0  0
 19 16  2  0  0  0  0
 21 15  2  0  0  0  0
 21 19  1  0  0  0  0
 22 23  1  6  0  0  0
 22 25  1  0  0  0  0
 22  8  1  0  0  0  0
 25 24  1  0  0  0  0
M  END
>  <MODEL>
3

>  <REMARK>
 VINA RESULT:      -8.7      3.989      7.363
  Name = 
  3 active torsions:
  status: ('A' for Active; 'I' for Inactive)
    1  A    between atoms: C_1  and  C_5
    2  A    between atoms: C_2  and  C_15
    3  A    between atoms: C_2  and  C_21
                            x       y       z     vdW  Elec       q    Type
                         _______ _______ _______ _____ _____    ______ ____

>  <TORSDO>
F 3

$$$$
=
 OpenBabel10262419453D

 25 27  0  0  1  0  0  0  0  0999 V2000
  188.0570  177.8210  145.0370 C   0  0  0  0  0  0  0  0  0  0  0  0
  186.8450  178.1950  144.4150 C   0  0  0  0  0  0  0  0  0  0  0  0
  186.9790  177.8460  147.1520 C   0  0  0  0  0  3  0  0  0  0  0  0
  185.2250  178.7820  140.9730 N   0  0  0  0  0  2  0  0  0  0  0  0
  185.8060  178.2030  146.5720 N   0  0  0  0  0  0  0  0  0  0  0  0
  184.4430  178.7530  144.6050 C   0  0  0  0  0  0  0  0  0  0  0  0
  183.3860  178.9400  145.3240 N   0  0  0  0  0  2  0  0  0  0  0  0
  183.9900  178.9670  140.2700 C   0  0  0  0  0  0  0  0  0  0  0  0
  186.7750  178.4960  142.9360 C   0  0  0  0  0  2  0  0  0  0  0  0
  188.0850  177.6600  146.3880 N   0  0  0  0  0  0  0  0  0  0  0  0
  184.3530  178.8360  143.1810 N   0  0  0  0  0  0  0  0  0  0  0  0
  185.3800  178.6920  142.3940 C   0  0  0  0  0  0  0  0  0  0  0  0
  185.7180  178.3810  145.2290 C   0  0  0  0  0  0  0  0  0  0  0  0
  182.8940  179.0390  140.8890 O   0  0  0  0  0  0  0  0  0  0  0  0
  189.3030  177.5830  144.2670 C   0  0  0  0  0  0  0  0  0  0  0  0
  191.6550  177.2170  142.7700 C   0  0  0  0  0  3  0  0  0  0  0  0
  189.4220  176.4900  143.3790 C   0  0  0  0  0  0  0  0  0  0  0  0
  190.5980  176.3140  142.6430 C   0  0  0  0  0  3  0  0  0  0  0  0
  191.5410  178.3030  143.6380 C   0  0  0  0  0  3  0  0  0  0  0  0
  188.3740  175.5360  143.2410 N   0  0  0  0  0  1  0  0  0  0  0  0
  190.3720  178.4860  144.3790 C   0  0  0  0  0  3  0  0  0  0  0  0
  184.0070  179.0350  138.7770 C   0  0  2  0  0  3  0  0  0  0  0  0
  182.7650  179.3910  138.2800 F   0  0  0  0  0  0  0  0  0  0  0  0
  185.8770  177.8750  137.5410 C   0  0  0  0  0  1  0  0  0  0  0  0
  184.4940  177.7290  138.1570 C   0  0  0  0  0  2  0  0  0  0  0  0
  1 10  1  0  0  0  0
  2  1  2  0  0  0  0
  2 13  1  0  0  0  0
  4 12  1  0  0  0  0
  5  3  1  0  0  0  0
  6 13  1  0  0  0  0
  6  7  2  0  0  0  0
  8 14  2  0  0  0  0
  8  4  1  0  0  0  0
  9  2  1  0  0  0  0
 10  3  2  0  0  0  0
 11  6  1  0  0  0  0
 12  9  1  0  0  0  0
 12 11  2  0  0  0  0
 13  5  2  0  0  0  0
 15 21  1  0  0  0  0
 15  1  1  0  0  0  0
 16 19  1  0  0  0  0
 17 15  2  0  0  0  0
 18 16  2  0  0  0  0
 18 17  1  0  0  0  0
 19 21  2  0  0  0  0
 20 17  1  0  0  0  0
 22 23  1  6  0  0  0
 22  8  1  0  0  0  0
 24 25  1  0  0  0  0
 25 22  1  0  0  0  0
M  END
>  <MODEL>
4

>  <REMARK>
 VINA RESULT:      -8.7      2.820      4.101
  Name = 
  3 active torsions:
  status: ('A' for Active; 'I' for Inactive)
    1  A    between atoms: C_1  and  C_5
    2  A    between atoms: C_2  and  C_15
    3  A    between atoms: C_2  and  C_21
                            x       y       z     vdW  Elec       q    Type
                         _______ _______ _______ _____ _____    ______ ____

>  <TORSDO>
F 3

$$$$
=
 OpenBabel10262419453D

 25 27  0  0  1  0  0  0  0  0999 V2000
  188.9370  177.5280  145.3280 C   0  0  0  0  0  0  0  0  0  0  0  0
  187.5900  177.8800  145.0870 C   0  0  0  0  0  0  0  0  0  0  0  0
  188.5370  177.6000  147.6670 C   0  0  0  0  0  3  0  0  0  0  0  0
  185.0120  178.3740  142.2710 N   0  0  0  0  0  2  0  0  0  0  0  0
  187.2400  177.9360  147.4550 N   0  0  0  0  0  0  0  0  0  0  0  0
  185.3470  178.4310  145.9710 C   0  0  0  0  0  0  0  0  0  0  0  0
  184.5500  178.6310  146.9680 N   0  0  0  0  0  2  0  0  0  0  0  0
  183.6220  178.5350  141.9640 C   0  0  0  0  0  0  0  0  0  0  0  0
  187.0800  178.1450  143.6890 C   0  0  0  0  0  2  0  0  0  0  0  0
  189.3680  177.4000  146.6130 N   0  0  0  0  0  0  0  0  0  0  0  0
  184.8360  178.4790  144.6370 N   0  0  0  0  0  0  0  0  0  0  0  0
  185.5850  178.3200  143.5830 C   0  0  0  0  0  0  0  0  0  0  0  0
  186.7540  178.0810  146.1950 C   0  0  0  0  0  0  0  0  0  0  0  0
  182.7590  178.6170  142.8800 O   0  0  0  0  0  0  0  0  0  0  0  0
  189.9000  177.2770  144.2270 C   0  0  0  0  0  0  0  0  0  0  0  0
  191.7610  176.7300  142.1920 C   0  0  0  0  0  3  0  0  0  0  0  0
  190.8040  178.2750  143.7980 C   0  0  0  0  0  0  0  0  0  0  0  0
  191.7220  177.9950  142.7810 C   0  0  0  0  0  3  0  0  0  0  0  0
  190.8780  175.7370  142.6160 C   0  0  0  0  0  3  0  0  0  0  0  0
  190.7780  179.5830  144.3610 N   0  0  0  0  0  1  0  0  0  0  0  0
  189.9560  176.0080  143.6290 C   0  0  0  0  0  3  0  0  0  0  0  0
  183.1930  178.5660  140.5330 C   0  0  2  0  0  3  0  0  0  0  0  0
  183.0280  177.2860  140.0330 F   0  0  0  0  0  0  0  0  0  0  0  0
  184.8630  178.5010  138.6420 C   0  0  0  0  0  1  0  0  0  0  0  0
  184.1590  179.3730  139.6700 C   0  0  0  0  0  2  0  0  0  0  0  0
  1 10  1  0  0  0  0
  2  1  2  0  0  0  0
  2 13  1  0  0  0  0
  4 12  1  0  0  0  0
  5  3  1  0  0  0  0
  6 13  1  0  0  0  0
  6  7  2  0  0  0  0
  8  4  1  0  0  0  0
  8 14  2  0  0  0  0
  9  2  1  0  0  0  0
 10  3  2  0  0  0  0
 11  6  1  0  0  0  0
 12  9  1  0  0  0  0
 12 11  2  0  0  0  0
 13  5  2  0  0  0  0
 15  1  1  0  0  0  0
 16 19  2  0  0  0  0
 16 18  1  0  0  0  0
 17 15  1  0  0  0  0
 17 20  1  0  0  0  0
 18 17  2  0  0  0  0
 19 21  1  0  0  0  0
 21 15  2  0  0  0  0
 22 23  1  6  0  0  0
 22  8  1  0  0  0  0
 24 25  1  0  0  0  0
 25 22  1  0  0  0  0
M  END
>  <MODEL>
5

>  <REMARK>
 VINA RESULT:      -8.7      2.165      3.145
  Name = 
  3 active torsions:
  status: ('A' for Active; 'I' for Inactive)
    1  A    between atoms: C_1  and  C_5
    2  A    between atoms: C_2  and  C_15
    3  A    between atoms: C_2  and  C_21
                            x       y       z     vdW  Elec       q    Type
                         _______ _______ _______ _____ _____    ______ ____

>  <TORSDO>
F 3

$$$$
=
 OpenBabel10262419453D

 25 27  0  0  1  0  0  0  0  0999 V2000
  190.9210  177.1310  142.1530 C   0  0  0  0  0  0  0  0  0  0  0  0
  189.5900  177.4730  141.8260 C   0  0  0  0  0  0  0  0  0  0  0  0
  191.5680  177.5020  139.8990 C   0  0  0  0  0  3  0  0  0  0  0  0
  186.1100  178.0470  143.3700 N   0  0  0  0  0  2  0  0  0  0  0  0
  190.2960  177.8360  139.5680 N   0  0  0  0  0  0  0  0  0  0  0  0
  187.9360  178.2030  140.1380 C   0  0  0  0  0  0  0  0  0  0  0  0
  187.6380  178.5280  138.9240 N   0  0  0  0  0  2  0  0  0  0  0  0
  184.7950  178.5690  143.1460 C   0  0  0  0  0  0  0  0  0  0  0  0
  188.4730  177.3590  142.8380 C   0  0  0  0  0  2  0  0  0  0  0  0
  191.8690  177.1550  141.1760 N   0  0  0  0  0  0  0  0  0  0  0  0
  186.9360  178.2820  141.1560 N   0  0  0  0  0  0  0  0  0  0  0  0
  187.1530  177.9400  142.3940 C   0  0  0  0  0  0  0  0  0  0  0  0
  189.3070  177.8270  140.4990 C   0  0  0  0  0  0  0  0  0  0  0  0
  184.4590  179.0190  142.0170 O   0  0  0  0  0  0  0  0  0  0  0  0
  191.3290  176.7570  143.5300 C   0  0  0  0  0  0  0  0  0  0  0  0
  192.0340  175.9840  146.1390 C   0  0  0  0  0  3  0  0  0  0  0  0
  191.3230  177.7020  144.5810 C   0  0  0  0  0  0  0  0  0  0  0  0
  191.6810  177.3080  145.8750 C   0  0  0  0  0  3  0  0  0  0  0  0
  192.0340  175.0440  145.1080 C   0  0  0  0  0  3  0  0  0  0  0  0
  190.9900  179.0660  144.3440 N   0  0  0  0  0  1  0  0  0  0  0  0
  191.6800  175.4280  143.8130 C   0  0  0  0  0  3  0  0  0  0  0  0
  183.8260  178.6120  144.2830 C   0  0  2  0  0  3  0  0  0  0  0  0
  182.6460  179.2320  143.9100 F   0  0  0  0  0  0  0  0  0  0  0  0
  184.8560  178.2530  146.5590 C   0  0  0  0  0  1  0  0  0  0  0  0
  184.4310  179.2750  145.5160 C   0  0  0  0  0  2  0  0  0  0  0  0
  1 15  1  0  0  0  0
  2  1  1  0  0  0  0
  2  9  1  0  0  0  0
  3 10  1  0  0  0  0
  5  3  2  0  0  0  0
  5 13  1  0  0  0  0
  6 13  1  0  0  0  0
  6 11  1  0  0  0  0
  7  6  2  0  0  0  0
  8  4  1  0  0  0  0
  8 22  1  0  0  0  0
 10  1  2  0  0  0  0
 11 12  2  0  0  0  0
 12  9  1  0  0  0  0
 12  4  1  0  0  0  0
 13  2  2  0  0  0  0
 14  8  2  0  0  0  0
 15 21  2  0  0  0  0
 15 17  1  0  0  0  0
 17 18  2  0  0  0  0
 18 16  1  0  0  0  0
 19 16  2  0  0  0  0
 20 17  1  0  0  0  0
 21 19  1  0  0  0  0
 22 23  1  6  0  0  0
 22 25  1  0  0  0  0
 25 24  1  0  0  0  0
M  END
>  <MODEL>
6

>  <REMARK>
 VINA RESULT:      -8.5      2.515      4.792
  Name = 
  3 active torsions:
  status: ('A' for Active; 'I' for Inactive)
    1  A    between atoms: C_1  and  C_5
    2  A    between atoms: C_2  and  C_15
    3  A    between atoms: C_2  and  C_21
                            x       y       z     vdW  Elec       q    Type
                         _______ _______ _______ _____ _____    ______ ____

>  <TORSDO>
F 3

$$$$
=
 OpenBabel10262419453D

 25 27  0  0  1  0  0  0  0  0999 V2000
  190.1710  176.8730  137.8840 C   0  0  0  0  0  0  0  0  0  0  0  0
  189.8250  177.1700  139.2220 C   0  0  0  0  0  0  0  0  0  0  0  0
  188.3360  178.1730  137.1230 C   0  0  0  0  0  3  0  0  0  0  0  0
  190.9940  176.7080  142.8600 N   0  0  0  0  0  2  0  0  0  0  0  0
  187.9910  178.4720  138.3990 N   0  0  0  0  0  0  0  0  0  0  0  0
  188.3390  178.3260  140.8260 C   0  0  0  0  0  0  0  0  0  0  0  0
  187.3130  179.0700  141.0710 N   0  0  0  0  0  2  0  0  0  0  0  0
  190.8130  177.1310  144.2170 C   0  0  0  0  0  0  0  0  0  0  0  0
  190.5590  176.5450  140.3860 C   0  0  0  0  0  2  0  0  0  0  0  0
  189.4120  177.3840  136.8760 N   0  0  0  0  0  0  0  0  0  0  0  0
  189.1680  177.8880  141.9050 N   0  0  0  0  0  0  0  0  0  0  0  0
  190.1990  177.1100  141.7380 C   0  0  0  0  0  0  0  0  0  0  0  0
  188.7080  177.9880  139.4470 C   0  0  0  0  0  0  0  0  0  0  0  0
  189.9070  177.9530  144.5260 O   0  0  0  0  0  0  0  0  0  0  0  0
  191.3420  176.0310  137.5360 C   0  0  0  0  0  0  0  0  0  0  0  0
  193.5780  174.4920  136.8020 C   0  0  0  0  0  3  0  0  0  0  0  0
  191.2060  174.6470  137.2850 C   0  0  0  0  0  0  0  0  0  0  0  0
  192.3250  173.8890  136.9260 C   0  0  0  0  0  3  0  0  0  0  0  0
  193.7190  175.8600  137.0400 C   0  0  0  0  0  3  0  0  0  0  0  0
  189.9470  173.9940  137.4240 N   0  0  0  0  0  1  0  0  0  0  0  0
  192.6070  176.6240  137.4020 C   0  0  0  0  0  3  0  0  0  0  0  0
  191.7410  176.6160  145.2690 C   0  0  2  0  0  3  0  0  0  0  0  0
  192.1190  175.3110  145.0050 F   0  0  0  0  0  0  0  0  0  0  0  0
  191.9590  175.9950  147.7060 C   0  0  0  0  0  1  0  0  0  0  0  0
  191.1390  176.7430  146.6650 C   0  0  0  0  0  2  0  0  0  0  0  0
  1  2  1  0  0  0  0
  2 13  2  0  0  0  0
  2  9  1  0  0  0  0
  3  5  2  0  0  0  0
  4  8  1  0  0  0  0
  5 13  1  0  0  0  0
  6  7  2  0  0  0  0
  6 11  1  0  0  0  0
  8 14  2  0  0  0  0
  8 22  1  0  0  0  0
  9 12  1  0  0  0  0
 10  3  1  0  0  0  0
 10  1  2  0  0  0  0
 12 11  2  0  0  0  0
 12  4  1  0  0  0  0
 13  6  1  0  0  0  0
 15  1  1  0  0  0  0
 16 18  2  0  0  0  0
 16 19  1  0  0  0  0
 17 20  1  0  0  0  0
 17 15  2  0  0  0  0
 18 17  1  0  0  0  0
 19 21  2  0  0  0  0
 21 15  1  0  0  0  0
 22 23  1  6  0  0  0
 22 25  1  0  0  0  0
 25 24  1  0  0  0  0
M  END
>  <MODEL>
7

>  <REMARK>
 VINA RESULT:      -8.5      4.289      7.303
  Name = 
  3 active torsions:
  status: ('A' for Active; 'I' for Inactive)
    1  A    between atoms: C_1  and  C_5
    2  A    between atoms: C_2  and  C_15
    3  A    between atoms: C_2  and  C_21
                            x       y       z     vdW  Elec       q    Type
                         _______ _______ _______ _____ _____    ______ ____

>  <TORSDO>
F 3

$$$$
=
 OpenBabel10262419453D

 25 27  0  0  1  0  0  0  0  0999 V2000
  189.9270  177.1010  138.3390 C   0  0  0  0  0  0  0  0  0  0  0  0
  189.8330  177.2750  139.7390 C   0  0  0  0  0  0  0  0  0  0  0  0
  192.2740  176.7990  138.5360 C   0  0  0  0  0  3  0  0  0  0  0  0
  187.3020  177.7450  142.6020 N   0  0  0  0  0  2  0  0  0  0  0  0
  192.2020  176.9610  139.8800 N   0  0  0  0  0  0  0  0  0  0  0  0
  190.9400  177.3570  141.9490 C   0  0  0  0  0  0  0  0  0  0  0  0
  192.0070  177.2990  142.6740 N   0  0  0  0  0  2  0  0  0  0  0  0
  187.1180  177.7340  144.0220 C   0  0  0  0  0  0  0  0  0  0  0  0
  188.5270  177.6430  140.4040 C   0  0  0  0  0  2  0  0  0  0  0  0
  191.1470  176.8700  137.7820 N   0  0  0  0  0  0  0  0  0  0  0  0
  189.6650  177.5050  142.5780 N   0  0  0  0  0  0  0  0  0  0  0  0
  188.5500  177.6030  141.9120 C   0  0  0  0  0  0  0  0  0  0  0  0
  191.0130  177.1970  140.4920 C   0  0  0  0  0  0  0  0  0  0  0  0
  188.0930  177.5610  144.8030 O   0  0  0  0  0  0  0  0  0  0  0  0
  188.7380  177.1480  137.4530 C   0  0  0  0  0  0  0  0  0  0  0  0
  186.5300  177.1790  135.7130 C   0  0  0  0  0  3  0  0  0  0  0  0
  188.2560  178.3700  136.9320 C   0  0  0  0  0  0  0  0  0  0  0  0
  187.1530  178.3760  136.0720 C   0  0  0  0  0  3  0  0  0  0  0  0
  187.0060  175.9680  136.2160 C   0  0  0  0  0  3  0  0  0  0  0  0
  188.8520  179.6120  137.2950 N   0  0  0  0  0  1  0  0  0  0  0  0
  188.1040  175.9530  137.0770 C   0  0  0  0  0  3  0  0  0  0  0  0
  185.7400  177.8900  144.5770 C   0  0  2  0  0  3  0  0  0  0  0  0
  184.8250  178.1590  143.5730 F   0  0  0  0  0  0  0  0  0  0  0  0
  184.9850  178.4500  146.9200 C   0  0  0  0  0  1  0  0  0  0  0  0
  185.6870  178.9550  145.6690 C   0  0  0  0  0  2  0  0  0  0  0  0
  1  2  1  0  0  0  0
  2  9  1  0  0  0  0
  2 13  2  0  0  0  0
  3  5  2  0  0  0  0
  4  8  1  0  0  0  0
  5 13  1  0  0  0  0
  6 11  1  0  0  0  0
  6  7  2  0  0  0  0
  8 22  1  0  0  0  0
  8 14  2  0  0  0  0
  9 12  1  0  0  0  0
 10  1  2  0  0  0  0
 10  3  1  0  0  0  0
 12 11  2  0  0  0  0
 12  4  1  0  0  0  0
 13  6  1  0  0  0  0
 15  1  1  0  0  0  0
 16 18  2  0  0  0  0
 16 19  1  0  0  0  0
 17 20  1  0  0  0  0
 17 15  2  0  0  0  0
 18 17  1  0  0  0  0
 19 21  2  0  0  0  0
 21 15  1  0  0  0  0
 22 23  1  6  0  0  0
 22 25  1  0  0  0  0
 25 24  1  0  0  0  0
M  END
>  <MODEL>
8

>  <REMARK>
 VINA RESULT:      -8.4      3.800      5.915
  Name = 
  3 active torsions:
  status: ('A' for Active; 'I' for Inactive)
    1  A    between atoms: C_1  and  C_5
    2  A    between atoms: C_2  and  C_15
    3  A    between atoms: C_2  and  C_21
                            x       y       z     vdW  Elec       q    Type
                         _______ _______ _______ _____ _____    ______ ____

>  <TORSDO>
F 3

$$$$
=
 OpenBabel10262419453D

 25 27  0  0  1  0  0  0  0  0999 V2000
  188.0520  177.7480  144.9600 C   0  0  0  0  0  0  0  0  0  0  0  0
  188.7000  177.6090  143.7120 C   0  0  0  0  0  0  0  0  0  0  0  0
  190.1060  177.3180  146.0720 C   0  0  0  0  0  3  0  0  0  0  0  0
  188.1350  177.9290  139.9170 N   0  0  0  0  0  2  0  0  0  0  0  0
  190.7450  177.1840  144.8840 N   0  0  0  0  0  0  0  0  0  0  0  0
  190.7720  177.1890  142.4280 C   0  0  0  0  0  0  0  0  0  0  0  0
  192.0340  176.9170  142.3890 N   0  0  0  0  0  2  0  0  0  0  0  0
  188.7700  177.9940  138.6350 C   0  0  0  0  0  0  0  0  0  0  0  0
  187.9310  177.6560  142.4120 C   0  0  0  0  0  2  0  0  0  0  0  0
  188.7780  177.5960  146.1020 N   0  0  0  0  0  0  0  0  0  0  0  0
  190.0640  177.4370  141.2110 N   0  0  0  0  0  0  0  0  0  0  0  0
  188.7870  177.6840  141.1690 C   0  0  0  0  0  0  0  0  0  0  0  0
  190.0730  177.3210  143.7110 C   0  0  0  0  0  0  0  0  0  0  0  0
  190.0180  177.8590  138.5200 O   0  0  0  0  0  0  0  0  0  0  0  0
  186.6080  178.0670  145.0720 C   0  0  0  0  0  0  0  0  0  0  0  0
  183.8830  178.7450  145.2250 C   0  0  0  0  0  3  0  0  0  0  0  0
  186.0160  178.3730  146.3190 C   0  0  0  0  0  0  0  0  0  0  0  0
  184.6590  178.7030  146.3850 C   0  0  0  0  0  3  0  0  0  0  0  0
  184.4620  178.4530  143.9900 C   0  0  0  0  0  3  0  0  0  0  0  0
  186.7720  178.3180  147.5260 N   0  0  0  0  0  1  0  0  0  0  0  0
  185.8160  178.1200  143.9140 C   0  0  0  0  0  3  0  0  0  0  0  0
  187.9360  178.2650  137.4250 C   0  0  2  0  0  3  0  0  0  0  0  0
  188.2630  179.4850  136.8570 F   0  0  0  0  0  0  0  0  0  0  0  0
  185.7770  177.0270  137.0090 C   0  0  0  0  0  1  0  0  0  0  0  0
  186.4450  178.1840  137.7350 C   0  0  0  0  0  2  0  0  0  0  0  0
  1 15  1  0  0  0  0
  1 10  1  0  0  0  0
  2  1  2  0  0  0  0
  3 10  2  0  0  0  0
  4 12  1  0  0  0  0
  5  3  1  0  0  0  0
  6 13  1  0  0  0  0
  7  6  2  0  0  0  0
  8  4  1  0  0  0  0
  9  2  1  0  0  0  0
 11  6  1  0  0  0  0
 12 11  2  0  0  0  0
 12  9  1  0  0  0  0
 13  2  1  0  0  0  0
 13  5  2  0  0  0  0
 14  8  2  0  0  0  0
 15 17  1  0  0  0  0
 16 18  1  0  0  0  0
 17 18  2  0  0  0  0
 17 20  1  0  0  0  0
 19 16  2  0  0  0  0
 21 19  1  0  0  0  0
 21 15  2  0  0  0  0
 22 23  1  1  0  0  0
 22 25  1  0  0  0  0
 22  8  1  0  0  0  0
 24 25  1  0  0  0  0
M  END
>  <MODEL>
9

>  <REMARK>
 VINA RESULT:      -8.2      3.769      6.207
  Name = 
  3 active torsions:
  status: ('A' for Active; 'I' for Inactive)
    1  A    between atoms: C_1  and  C_5
    2  A    between atoms: C_2  and  C_15
    3  A    between atoms: C_2  and  C_21
                            x       y       z     vdW  Elec       q    Type
                         _______ _______ _______ _____ _____    ______ ____

>  <TORSDO>
F 3

$$$$
