=
 OpenBabel10262421343D

 32 36  0  0  1  0  0  0  0  0999 V2000
  187.4130  176.8120  144.5860 C   0  0  0  0  0  3  0  0  0  0  0  0
  190.9550  177.6030  141.3270 C   0  0  0  0  0  0  0  0  0  0  0  0
  187.3830  178.4530  137.3690 C   0  0  0  0  0  3  0  0  0  0  0  0
  188.5050  178.3120  136.5550 C   0  0  0  0  0  3  0  0  0  0  0  0
  190.0640  177.5020  143.9980 C   0  0  0  0  0  0  0  0  0  0  0  0
  189.5790  177.3440  141.5910 C   0  0  0  0  0  0  0  0  0  0  0  0
  187.8330  176.8910  143.2580 C   0  0  0  0  0  3  0  0  0  0  0  0
  187.4630  178.1190  138.7210 C   0  0  0  0  0  3  0  0  0  0  0  0
  188.6410  177.3470  140.6800 N   0  0  0  0  0  0  0  0  0  0  0  0
  188.6570  177.6470  139.2800 C   0  0  0  0  0  0  0  0  0  0  0  0
  190.9970  176.9080  138.9610 N   0  0  0  0  0  0  0  0  0  0  0  0
  190.5020  177.6890  146.3470 F   0  0  0  0  0  0  0  0  0  0  0  0
  189.6350  177.4260  145.3340 C   0  0  0  0  0  0  0  0  0  0  0  0
  189.1620  177.2280  142.9410 C   0  0  0  0  0  0  0  0  0  0  0  0
  191.3750  177.8700  143.7070 C   0  0  0  0  0  3  0  0  0  0  0  0
  188.3070  177.0830  145.6240 C   0  0  0  0  0  0  0  0  0  0  0  0
  189.6940  177.8220  137.0960 C   0  0  0  0  0  3  0  0  0  0  0  0
  189.7800  177.4710  138.4560 C   0  0  0  0  0  0  0  0  0  0  0  0
  191.8130  177.9040  142.3890 C   0  0  0  0  0  3  0  0  0  0  0  0
  191.5780  177.4230  140.1610 C   0  0  0  0  0  3  0  0  0  0  0  0
  191.9640  173.9070  136.8520 C   0  0  0  0  0  0  0  0  0  0  0  0
  193.2030  174.1690  136.4430 C   0  0  0  0  0  3  0  0  0  0  0  0
  193.2700  176.2520  137.9580 C   0  0  2  0  0  3  0  0  0  0  0  0
  194.9920  175.7080  136.3870 O   0  0  0  0  0  0  0  0  0  0  0  0
  193.8760  175.3990  136.8790 C   0  0  0  0  0  0  0  0  0  0  0  0
  191.2250  174.8690  137.6870 C   0  0  0  0  0  3  0  0  0  0  0  0
  191.3490  172.7720  136.4390 F   0  0  0  0  0  0  0  0  0  0  0  0
  193.9470  176.0250  139.1430 F   0  0  0  0  0  0  0  0  0  0  0  0
  191.7860  175.9960  138.1620 C   0  0  0  0  0  0  0  0  0  0  0  0
  187.8440  176.9660  147.0360 C   0  0  0  0  0  2  0  0  0  0  0  0
  187.6340  178.2370  147.5700 O   0  0  0  0  0  0  0  0  0  0  0  0
  188.2830  178.2110  148.8040 C   0  0  0  0  0  1  0  0  0  0  0  0
  1 16  1  0  0  0  0
  2  6  1  0  0  0  0
  2 19  1  0  0  0  0
  3  8  1  0  0  0  0
  4 17  1  0  0  0  0
  4  3  2  0  0  0  0
  5 13  1  0  0  0  0
  6 14  1  0  0  0  0
  7  1  2  0  0  0  0
  8 10  2  0  0  0  0
  9  6  2  0  0  0  0
 10  9  1  0  0  0  0
 11 20  1  0  0  0  0
 13 16  2  0  0  0  0
 13 12  1  0  0  0  0
 14  7  1  0  0  0  0
 14  5  2  0  0  0  0
 15  5  1  0  0  0  0
 16 30  1  0  0  0  0
 17 18  2  0  0  0  0
 18 11  1  0  0  0  0
 18 10  1  0  0  0  0
 19 15  2  0  0  0  0
 20  2  2  0  0  0  0
 21 26  1  0  0  0  0
 22 21  2  0  0  0  0
 22 25  1  0  0  0  0
 23 29  1  0  0  0  0
 23 28  1  1  0  0  0
 24 25  2  0  0  0  0
 25 23  1  0  0  0  0
 26 29  2  0  0  0  0
 27 21  1  0  0  0  0
 29 11  1  0  0  0  0
 30 31  1  0  0  0  0
 31 32  1  0  0  0  0
M  END
>  <MODEL>
1

>  <REMARK>
 VINA RESULT:      -9.4      0.000      0.000
  Name = 
  3 active torsions:
  status: ('A' for Active; 'I' for Inactive)
    1  A    between atoms: O_1  and  C_10
    2  A    between atoms: C_10  and  C_24
    3  A    between atoms: N_16  and  C_32
                            x       y       z     vdW  Elec       q    Type
                         _______ _______ _______ _____ _____    ______ ____

>  <TORSDO>
F 3

$$$$
=
 OpenBabel10262421343D

 32 36  0  0  1  0  0  0  0  0999 V2000
  188.5980  177.0200  145.4070 C   0  0  0  0  0  3  0  0  0  0  0  0
  186.3450  178.5580  141.3630 C   0  0  0  0  0  0  0  0  0  0  0  0
  181.6830  179.2490  143.9960 C   0  0  0  0  0  3  0  0  0  0  0  0
  181.1620  179.3320  142.7070 C   0  0  0  0  0  3  0  0  0  0  0  0
  188.7100  178.1110  142.8290 C   0  0  0  0  0  0  0  0  0  0  0  0
  186.2520  178.0930  142.7070 C   0  0  0  0  0  0  0  0  0  0  0  0
  187.4190  177.2680  144.7050 C   0  0  0  0  0  3  0  0  0  0  0  0
  182.9950  178.8150  144.1860 C   0  0  0  0  0  3  0  0  0  0  0  0
  185.1410  178.0470  143.3950 N   0  0  0  0  0  0  0  0  0  0  0  0
  183.8050  178.4640  143.0980 C   0  0  0  0  0  0  0  0  0  0  0  0
  184.0290  178.0790  140.6640 N   0  0  0  0  0  0  0  0  0  0  0  0
  191.1010  178.1550  142.9860 F   0  0  0  0  0  0  0  0  0  0  0  0
  189.8950  177.8640  143.5410 C   0  0  0  0  0  0  0  0  0  0  0  0
  187.4520  177.8070  143.4060 C   0  0  0  0  0  0  0  0  0  0  0  0
  188.7660  178.6760  141.5580 C   0  0  0  0  0  3  0  0  0  0  0  0
  189.8350  177.3200  144.8320 C   0  0  0  0  0  0  0  0  0  0  0  0
  181.9510  178.9630  141.6170 C   0  0  0  0  0  3  0  0  0  0  0  0
  183.2710  178.5130  141.8000 C   0  0  0  0  0  0  0  0  0  0  0  0
  187.5980  178.8810  140.8340 C   0  0  0  0  0  3  0  0  0  0  0  0
  185.3590  178.5630  140.4650 C   0  0  0  0  0  3  0  0  0  0  0  0
  181.8220  175.6180  138.8020 C   0  0  0  0  0  0  0  0  0  0  0  0
  181.9780  175.9320  137.5180 C   0  0  0  0  0  3  0  0  0  0  0  0
  183.8320  177.6090  138.1450 C   0  0  2  0  0  3  0  0  0  0  0  0
  182.9430  177.3920  135.9340 O   0  0  0  0  0  0  0  0  0  0  0  0
  182.8980  177.0090  137.1310 C   0  0  0  0  0  0  0  0  0  0  0  0
  182.5120  176.3830  139.8550 C   0  0  0  0  0  3  0  0  0  0  0  0
  180.9660  174.6270  139.1490 F   0  0  0  0  0  0  0  0  0  0  0  0
  185.1010  177.0960  137.9440 F   0  0  0  0  0  0  0  0  0  0  0  0
  183.4020  177.3540  139.5800 C   0  0  0  0  0  0  0  0  0  0  0  0
  191.0840  177.0220  145.5890 C   0  0  0  0  0  2  0  0  0  0  0  0
  190.7640  176.5770  146.8710 O   0  0  0  0  0  0  0  0  0  0  0  0
  191.8990  175.8910  147.2990 C   0  0  0  0  0  1  0  0  0  0  0  0
  2  6  1  0  0  0  0
  3  8  1  0  0  0  0
  4  3  2  0  0  0  0
  5 14  2  0  0  0  0
  5 13  1  0  0  0  0
  6  9  2  0  0  0  0
  6 14  1  0  0  0  0
  7  1  2  0  0  0  0
 10  9  1  0  0  0  0
 10  8  2  0  0  0  0
 11 18  1  0  0  0  0
 12 13  1  0  0  0  0
 13 16  2  0  0  0  0
 14  7  1  0  0  0  0
 15  5  1  0  0  0  0
 16  1  1  0  0  0  0
 16 30  1  0  0  0  0
 17 18  2  0  0  0  0
 17  4  1  0  0  0  0
 18 10  1  0  0  0  0
 19  2  1  0  0  0  0
 19 15  2  0  0  0  0
 20 11  1  0  0  0  0
 20  2  2  0  0  0  0
 21 27  1  0  0  0  0
 21 26  1  0  0  0  0
 22 21  2  0  0  0  0
 23 28  1  1  0  0  0
 23 29  1  0  0  0  0
 24 25  2  0  0  0  0
 25 22  1  0  0  0  0
 25 23  1  0  0  0  0
 29 26  2  0  0  0  0
 29 11  1  0  0  0  0
 30 31  1  0  0  0  0
 31 32  1  0  0  0  0
M  END
>  <MODEL>
2

>  <REMARK>
 VINA RESULT:      -8.8      4.966      7.097
  Name = 
  3 active torsions:
  status: ('A' for Active; 'I' for Inactive)
    1  A    between atoms: O_1  and  C_10
    2  A    between atoms: C_10  and  C_24
    3  A    between atoms: N_16  and  C_32
                            x       y       z     vdW  Elec       q    Type
                         _______ _______ _______ _____ _____    ______ ____

>  <TORSDO>
F 3

$$$$
=
 OpenBabel10262421343D

 32 36  0  0  1  0  0  0  0  0999 V2000
  184.7690  178.4720  146.5600 C   0  0  0  0  0  3  0  0  0  0  0  0
  184.0580  178.3320  141.7360 C   0  0  0  0  0  0  0  0  0  0  0  0
  179.1740  180.5850  142.2000 C   0  0  0  0  0  3  0  0  0  0  0  0
  179.0360  180.1540  140.8830 C   0  0  0  0  0  3  0  0  0  0  0  0
  185.7930  178.3170  143.9560 C   0  0  0  0  0  0  0  0  0  0  0  0
  183.5160  178.5080  143.0420 C   0  0  0  0  0  0  0  0  0  0  0  0
  183.9030  178.5130  145.4680 C   0  0  0  0  0  3  0  0  0  0  0  0
  180.2540  180.1400  142.9640 C   0  0  0  0  0  3  0  0  0  0  0  0
  182.2880  178.8830  143.2850 N   0  0  0  0  0  0  0  0  0  0  0  0
  181.2090  179.2680  142.4270 C   0  0  0  0  0  0  0  0  0  0  0  0
  181.9540  177.8440  140.5450 N   0  0  0  0  0  0  0  0  0  0  0  0
  188.0040  178.1720  144.8690 F   0  0  0  0  0  0  0  0  0  0  0  0
  186.6630  178.2800  145.0590 C   0  0  0  0  0  0  0  0  0  0  0  0
  184.3950  178.4290  144.1530 C   0  0  0  0  0  0  0  0  0  0  0  0
  186.3050  178.2650  142.6630 C   0  0  0  0  0  3  0  0  0  0  0  0
  186.1470  178.3600  146.3600 C   0  0  0  0  0  0  0  0  0  0  0  0
  179.9690  179.2680  140.3440 C   0  0  0  0  0  3  0  0  0  0  0  0
  181.0540  178.8050  141.1100 C   0  0  0  0  0  0  0  0  0  0  0  0
  185.4440  178.2580  141.5720 C   0  0  0  0  0  3  0  0  0  0  0  0
  183.3660  178.0510  140.6310 C   0  0  0  0  0  3  0  0  0  0  0  0
  180.1350  174.7390  139.3440 C   0  0  0  0  0  0  0  0  0  0  0  0
  180.3360  174.7210  138.0270 C   0  0  0  0  0  3  0  0  0  0  0  0
  181.9620  176.7090  138.2400 C   0  0  2  0  0  3  0  0  0  0  0  0
  181.2360  175.8170  136.1410 O   0  0  0  0  0  0  0  0  0  0  0  0
  181.1590  175.7590  137.3950 C   0  0  0  0  0  0  0  0  0  0  0  0
  180.6760  175.8290  140.1740 C   0  0  0  0  0  3  0  0  0  0  0  0
  179.3690  173.7800  139.9170 F   0  0  0  0  0  0  0  0  0  0  0  0
  183.2870  176.3140  138.2220 F   0  0  0  0  0  0  0  0  0  0  0  0
  181.4740  176.7910  139.6770 C   0  0  0  0  0  0  0  0  0  0  0  0
  187.0530  178.2900  147.5420 C   0  0  0  0  0  2  0  0  0  0  0  0
  187.7210  177.0660  147.5520 O   0  0  0  0  0  0  0  0  0  0  0  0
  189.0380  177.3860  147.8750 C   0  0  0  0  0  1  0  0  0  0  0  0
  2  6  1  0  0  0  0
  3  8  1  0  0  0  0
  4  3  2  0  0  0  0
  5 14  2  0  0  0  0
  5 13  1  0  0  0  0
  6  9  2  0  0  0  0
  6 14  1  0  0  0  0
  7  1  2  0  0  0  0
 10  8  2  0  0  0  0
 10  9  1  0  0  0  0
 11 20  1  0  0  0  0
 11 18  1  0  0  0  0
 12 13  1  0  0  0  0
 13 16  2  0  0  0  0
 14  7  1  0  0  0  0
 15  5  1  0  0  0  0
 16  1  1  0  0  0  0
 16 30  1  0  0  0  0
 17  4  1  0  0  0  0
 17 18  2  0  0  0  0
 18 10  1  0  0  0  0
 19  2  1  0  0  0  0
 19 15  2  0  0  0  0
 20  2  2  0  0  0  0
 21 27  1  0  0  0  0
 21 26  1  0  0  0  0
 22 21  2  0  0  0  0
 23 28  1  1  0  0  0
 23 29  1  0  0  0  0
 24 25  2  0  0  0  0
 25 22  1  0  0  0  0
 25 23  1  0  0  0  0
 29 26  2  0  0  0  0
 29 11  1  0  0  0  0
 30 31  1  0  0  0  0
 31 32  1  0  0  0  0
M  END
>  <MODEL>
3

>  <REMARK>
 VINA RESULT:      -8.7      6.468      8.491
  Name = 
  3 active torsions:
  status: ('A' for Active; 'I' for Inactive)
    1  A    between atoms: O_1  and  C_10
    2  A    between atoms: C_10  and  C_24
    3  A    between atoms: N_16  and  C_32
                            x       y       z     vdW  Elec       q    Type
                         _______ _______ _______ _____ _____    ______ ____

>  <TORSDO>
F 3

$$$$
=
 OpenBabel10262421343D

 32 36  0  0  1  0  0  0  0  0999 V2000
  186.9480  177.1930  145.8360 C   0  0  0  0  0  3  0  0  0  0  0  0
  185.7350  178.5710  141.3170 C   0  0  0  0  0  0  0  0  0  0  0  0
  180.6580  179.6460  142.8040 C   0  0  0  0  0  3  0  0  0  0  0  0
  180.4380  179.6700  141.4290 C   0  0  0  0  0  3  0  0  0  0  0  0
  187.6890  178.1090  143.2940 C   0  0  0  0  0  0  0  0  0  0  0  0
  185.3210  178.1980  142.6290 C   0  0  0  0  0  0  0  0  0  0  0  0
  185.9690  177.4490  144.8770 C   0  0  0  0  0  3  0  0  0  0  0  0
  181.8680  179.1640  143.3040 C   0  0  0  0  0  3  0  0  0  0  0  0
  184.0860  178.2480  143.0530 N   0  0  0  0  0  0  0  0  0  0  0  0
  182.8740  178.7060  142.4440 C   0  0  0  0  0  0  0  0  0  0  0  0
  183.6050  178.1570  140.1450 N   0  0  0  0  0  0  0  0  0  0  0  0
  189.9850  178.0520  143.9780 F   0  0  0  0  0  0  0  0  0  0  0  0
  188.6710  177.8540  144.2650 C   0  0  0  0  0  0  0  0  0  0  0  0
  186.3190  177.9020  143.5920 C   0  0  0  0  0  0  0  0  0  0  0  0
  188.0570  178.5880  142.0400 C   0  0  0  0  0  3  0  0  0  0  0  0
  188.2960  177.3970  145.5370 C   0  0  0  0  0  0  0  0  0  0  0  0
  181.4240  179.1950  140.5630 C   0  0  0  0  0  3  0  0  0  0  0  0
  182.6430  178.6970  141.0590 C   0  0  0  0  0  0  0  0  0  0  0  0
  187.0900  178.8010  141.0640 C   0  0  0  0  0  3  0  0  0  0  0  0
  184.9730  178.5650  140.2220 C   0  0  0  0  0  3  0  0  0  0  0  0
  182.7130  177.2710  136.5650 C   0  0  0  0  0  0  0  0  0  0  0  0
  182.5160  175.9550  136.5840 C   0  0  0  0  0  3  0  0  0  0  0  0
  182.7380  175.9510  139.1510 C   0  0  2  0  0  3  0  0  0  0  0  0
  182.5720  173.9570  137.8390 O   0  0  0  0  0  0  0  0  0  0  0  0
  182.6270  175.2130  137.8460 C   0  0  0  0  0  0  0  0  0  0  0  0
  183.1090  177.9920  137.7860 C   0  0  0  0  0  3  0  0  0  0  0  0
  182.6150  177.9450  135.3940 F   0  0  0  0  0  0  0  0  0  0  0  0
  181.5110  175.9200  139.7900 F   0  0  0  0  0  0  0  0  0  0  0  0
  183.1900  177.3930  138.9880 C   0  0  0  0  0  0  0  0  0  0  0  0
  189.3280  177.0900  146.5680 C   0  0  0  0  0  2  0  0  0  0  0  0
  188.7280  176.9950  147.8220 O   0  0  0  0  0  0  0  0  0  0  0  0
  189.0710  178.1820  148.4680 C   0  0  0  0  0  1  0  0  0  0  0  0
  2  6  1  0  0  0  0
  3  8  1  0  0  0  0
  4  3  2  0  0  0  0
  5 14  2  0  0  0  0
  5 13  1  0  0  0  0
  6  9  2  0  0  0  0
  6 14  1  0  0  0  0
  7  1  2  0  0  0  0
 10  9  1  0  0  0  0
 10  8  2  0  0  0  0
 11 20  1  0  0  0  0
 11 18  1  0  0  0  0
 12 13  1  0  0  0  0
 13 16  2  0  0  0  0
 14  7  1  0  0  0  0
 15  5  1  0  0  0  0
 16  1  1  0  0  0  0
 16 30  1  0  0  0  0
 17 18  2  0  0  0  0
 17  4  1  0  0  0  0
 18 10  1  0  0  0  0
 19  2  1  0  0  0  0
 19 15  2  0  0  0  0
 20  2  2  0  0  0  0
 21 22  2  0  0  0  0
 21 26  1  0  0  0  0
 22 25  1  0  0  0  0
 23 28  1  6  0  0  0
 24 25  2  0  0  0  0
 25 23  1  0  0  0  0
 26 29  2  0  0  0  0
 27 21  1  0  0  0  0
 29 23  1  0  0  0  0
 29 11  1  0  0  0  0
 30 31  1  0  0  0  0
 31 32  1  0  0  0  0
M  END
>  <MODEL>
4

>  <REMARK>
 VINA RESULT:      -8.7      5.239      7.260
  Name = 
  3 active torsions:
  status: ('A' for Active; 'I' for Inactive)
    1  A    between atoms: O_1  and  C_10
    2  A    between atoms: C_10  and  C_24
    3  A    between atoms: N_16  and  C_32
                            x       y       z     vdW  Elec       q    Type
                         _______ _______ _______ _____ _____    ______ ____

>  <TORSDO>
F 3

$$$$
=
 OpenBabel10262421343D

 32 36  0  0  1  0  0  0  0  0999 V2000
  186.4310  178.1490  143.5580 C   0  0  0  0  0  3  0  0  0  0  0  0
  182.2040  178.9870  141.2720 C   0  0  0  0  0  0  0  0  0  0  0  0
  184.0030  176.7220  136.7140 C   0  0  0  0  0  3  0  0  0  0  0  0
  182.8820  177.3390  136.1640 C   0  0  0  0  0  3  0  0  0  0  0  0
  183.6790  178.6700  143.6520 C   0  0  0  0  0  0  0  0  0  0  0  0
  183.5810  178.6270  141.1940 C   0  0  0  0  0  0  0  0  0  0  0  0
  185.7050  178.2710  142.3740 C   0  0  0  0  0  3  0  0  0  0  0  0
  184.4050  177.0450  138.0100 C   0  0  0  0  0  3  0  0  0  0  0  0
  184.1760  178.2300  140.1000 N   0  0  0  0  0  0  0  0  0  0  0  0
  183.6950  177.9800  138.7750 C   0  0  0  0  0  0  0  0  0  0  0  0
  181.8780  179.6540  138.9210 N   0  0  0  0  0  0  0  0  0  0  0  0
  183.7930  178.6680  146.0460 F   0  0  0  0  0  0  0  0  0  0  0  0
  184.4130  178.5420  144.8430 C   0  0  0  0  0  0  0  0  0  0  0  0
  184.3250  178.5400  142.3980 C   0  0  0  0  0  0  0  0  0  0  0  0
  182.3080  178.9040  143.7010 C   0  0  0  0  0  3  0  0  0  0  0  0
  185.7890  178.2790  144.7920 C   0  0  0  0  0  0  0  0  0  0  0  0
  182.1790  178.2880  136.9080 C   0  0  0  0  0  3  0  0  0  0  0  0
  182.5840  178.6280  138.2120 C   0  0  0  0  0  0  0  0  0  0  0  0
  181.5880  179.0740  142.5240 C   0  0  0  0  0  3  0  0  0  0  0  0
  181.4490  179.4280  140.2650 C   0  0  0  0  0  3  0  0  0  0  0  0
  181.5870  183.2190  137.6540 C   0  0  0  0  0  0  0  0  0  0  0  0
  180.5600  183.1910  136.8080 C   0  0  0  0  0  3  0  0  0  0  0  0
  180.0490  180.7610  137.4950 C   0  0  2  0  0  3  0  0  0  0  0  0
  178.9310  181.8880  135.7040 O   0  0  0  0  0  0  0  0  0  0  0  0
  179.8120  181.9450  136.6000 C   0  0  0  0  0  0  0  0  0  0  0  0
  182.0320  181.9940  138.3400 C   0  0  0  0  0  3  0  0  0  0  0  0
  182.2750  184.3720  137.8350 F   0  0  0  0  0  0  0  0  0  0  0  0
  179.0130  180.6740  138.4070 F   0  0  0  0  0  0  0  0  0  0  0  0
  181.3750  180.8250  138.2350 C   0  0  0  0  0  0  0  0  0  0  0  0
  186.5890  178.1730  146.0460 C   0  0  0  0  0  2  0  0  0  0  0  0
  187.9470  178.1140  145.7360 O   0  0  0  0  0  0  0  0  0  0  0  0
  188.4940  177.2810  146.7110 C   0  0  0  0  0  1  0  0  0  0  0  0
  1 16  1  0  0  0  0
  2 19  1  0  0  0  0
  3  8  1  0  0  0  0
  4  3  2  0  0  0  0
  4 17  1  0  0  0  0
  5 15  1  0  0  0  0
  5 13  1  0  0  0  0
  6  2  1  0  0  0  0
  6 14  1  0  0  0  0
  7 14  1  0  0  0  0
  7  1  2  0  0  0  0
  8 10  2  0  0  0  0
  9  6  2  0  0  0  0
 10  9  1  0  0  0  0
 11 20  1  0  0  0  0
 13 12  1  0  0  0  0
 14  5  2  0  0  0  0
 16 13  2  0  0  0  0
 16 30  1  0  0  0  0
 17 18  2  0  0  0  0
 18 10  1  0  0  0  0
 18 11  1  0  0  0  0
 19 15  2  0  0  0  0
 20  2  2  0  0  0  0
 21 27  1  0  0  0  0
 21 26  1  0  0  0  0
 22 21  2  0  0  0  0
 23 29  1  0  0  0  0
 23 28  1  1  0  0  0
 24 25  2  0  0  0  0
 25 22  1  0  0  0  0
 25 23  1  0  0  0  0
 29 26  2  0  0  0  0
 29 11  1  0  0  0  0
 31 30  1  0  0  0  0
 31 32  1  0  0  0  0
M  END
>  <MODEL>
5

>  <REMARK>
 VINA RESULT:      -8.6      6.696      9.342
  Name = 
  3 active torsions:
  status: ('A' for Active; 'I' for Inactive)
    1  A    between atoms: O_1  and  C_10
    2  A    between atoms: C_10  and  C_24
    3  A    between atoms: N_16  and  C_32
                            x       y       z     vdW  Elec       q    Type
                         _______ _______ _______ _____ _____    ______ ____

>  <TORSDO>
F 3

$$$$
=
 OpenBabel10262421343D

 32 36  0  0  1  0  0  0  0  0999 V2000
  190.9510  174.7990  137.4010 C   0  0  0  0  0  3  0  0  0  0  0  0
  188.9430  178.2990  140.1440 C   0  0  0  0  0  0  0  0  0  0  0  0
  191.6930  176.7150  144.5110 C   0  0  0  0  0  3  0  0  0  0  0  0
  190.7830  177.5350  145.1740 C   0  0  0  0  0  3  0  0  0  0  0  0
  189.6470  177.2700  137.6160 C   0  0  0  0  0  0  0  0  0  0  0  0
  189.6910  177.0870  140.0700 C   0  0  0  0  0  0  0  0  0  0  0  0
  190.6370  175.3130  138.6590 C   0  0  0  0  0  3  0  0  0  0  0  0
  191.4850  176.3920  143.1700 C   0  0  0  0  0  3  0  0  0  0  0  0
  190.2590  176.5090  141.0950 N   0  0  0  0  0  0  0  0  0  0  0  0
  190.3740  176.8840  142.4720 C   0  0  0  0  0  0  0  0  0  0  0  0
  188.2400  178.1360  142.5020 N   0  0  0  0  0  0  0  0  0  0  0  0
  189.6510  177.4450  135.2260 F   0  0  0  0  0  0  0  0  0  0  0  0
  189.9680  176.7510  136.3510 C   0  0  0  0  0  0  0  0  0  0  0  0
  189.9760  176.5480  138.7900 C   0  0  0  0  0  0  0  0  0  0  0  0
  189.0210  178.5090  137.7220 C   0  0  0  0  0  3  0  0  0  0  0  0
  190.6230  175.5150  136.2470 C   0  0  0  0  0  0  0  0  0  0  0  0
  189.6610  178.0120  144.4960 C   0  0  0  0  0  3  0  0  0  0  0  0
  189.4370  177.6820  143.1470 C   0  0  0  0  0  0  0  0  0  0  0  0
  188.6640  179.0050  138.9700 C   0  0  0  0  0  3  0  0  0  0  0  0
  188.3140  178.7670  141.2220 C   0  0  0  0  0  3  0  0  0  0  0  0
  185.6930  177.8860  145.3030 C   0  0  0  0  0  0  0  0  0  0  0  0
  184.5760  178.3940  144.7870 C   0  0  0  0  0  3  0  0  0  0  0  0
  185.7030  178.5440  142.4740 C   0  0  2  0  0  3  0  0  0  0  0  0
  183.5390  179.4500  142.9480 O   0  0  0  0  0  0  0  0  0  0  0  0
  184.5520  178.8500  143.3910 C   0  0  0  0  0  0  0  0  0  0  0  0
  186.9340  177.8340  144.5110 C   0  0  0  0  0  3  0  0  0  0  0  0
  185.7070  177.4740  146.5930 F   0  0  0  0  0  0  0  0  0  0  0  0
  185.3480  177.4970  141.6420 F   0  0  0  0  0  0  0  0  0  0  0  0
  186.9830  178.1920  143.2150 C   0  0  0  0  0  0  0  0  0  0  0  0
  190.9420  174.9350  134.9120 C   0  0  0  0  0  2  0  0  0  0  0  0
  192.2630  174.4910  134.8940 O   0  0  0  0  0  0  0  0  0  0  0  0
  193.0120  175.6270  134.5940 C   0  0  0  0  0  1  0  0  0  0  0  0
  1  7  1  0  0  0  0
  2 20  2  0  0  0  0
  3  4  1  0  0  0  0
  5 15  1  0  0  0  0
  5 14  1  0  0  0  0
  6  2  1  0  0  0  0
  6  9  2  0  0  0  0
  7 14  2  0  0  0  0
  8  3  2  0  0  0  0
  9 10  1  0  0  0  0
 10 18  2  0  0  0  0
 10  8  1  0  0  0  0
 11 18  1  0  0  0  0
 11 29  1  0  0  0  0
 12 13  1  0  0  0  0
 13  5  2  0  0  0  0
 14  6  1  0  0  0  0
 15 19  2  0  0  0  0
 16 13  1  0  0  0  0
 16  1  2  0  0  0  0
 17  4  2  0  0  0  0
 18 17  1  0  0  0  0
 19  2  1  0  0  0  0
 20 11  1  0  0  0  0
 21 27  1  0  0  0  0
 22 21  2  0  0  0  0
 23 28  1  6  0  0  0
 23 29  1  0  0  0  0
 23 25  1  0  0  0  0
 24 25  2  0  0  0  0
 25 22  1  0  0  0  0
 26 21  1  0  0  0  0
 29 26  2  0  0  0  0
 30 16  1  0  0  0  0
 31 30  1  0  0  0  0
 32 31  1  0  0  0  0
M  END
>  <MODEL>
6

>  <REMARK>
 VINA RESULT:      -7.5      2.710      8.856
  Name = 
  3 active torsions:
  status: ('A' for Active; 'I' for Inactive)
    1  A    between atoms: O_1  and  C_10
    2  A    between atoms: C_10  and  C_24
    3  A    between atoms: N_16  and  C_32
                            x       y       z     vdW  Elec       q    Type
                         _______ _______ _______ _____ _____    ______ ____

>  <TORSDO>
F 3

$$$$
=
 OpenBabel10262421343D

 32 36  0  0  1  0  0  0  0  0999 V2000
  186.4620  174.9090  135.7230 C   0  0  0  0  0  3  0  0  0  0  0  0
  187.8560  177.9090  139.3080 C   0  0  0  0  0  0  0  0  0  0  0  0
  193.0420  176.5390  138.6940 C   0  0  0  0  0  3  0  0  0  0  0  0
  193.1810  177.1740  139.9260 C   0  0  0  0  0  3  0  0  0  0  0  0
  185.9790  177.1350  137.3550 C   0  0  0  0  0  0  0  0  0  0  0  0
  188.1720  176.8320  138.4290 C   0  0  0  0  0  0  0  0  0  0  0  0
  187.4140  175.3020  136.6640 C   0  0  0  0  0  3  0  0  0  0  0  0
  191.7680  176.2590  138.1990 C   0  0  0  0  0  3  0  0  0  0  0  0
  189.3590  176.2950  138.3190 N   0  0  0  0  0  0  0  0  0  0  0  0
  190.6190  176.6100  138.9200 C   0  0  0  0  0  0  0  0  0  0  0  0
  189.6150  177.5160  140.9920 N   0  0  0  0  0  0  0  0  0  0  0  0
  183.8650  177.4340  136.2660 F   0  0  0  0  0  0  0  0  0  0  0  0
  185.0250  176.7390  136.4030 C   0  0  0  0  0  0  0  0  0  0  0  0
  187.1880  176.4120  137.4990 C   0  0  0  0  0  0  0  0  0  0  0  0
  185.7480  178.2560  138.1470 C   0  0  0  0  0  3  0  0  0  0  0  0
  185.2710  175.6260  135.5860 C   0  0  0  0  0  0  0  0  0  0  0  0
  192.0450  177.5080  140.6640 C   0  0  0  0  0  3  0  0  0  0  0  0
  190.7560  177.2190  140.1780 C   0  0  0  0  0  0  0  0  0  0  0  0
  186.6710  178.6250  139.1190 C   0  0  0  0  0  3  0  0  0  0  0  0
  188.5020  178.2180  140.4340 C   0  0  0  0  0  3  0  0  0  0  0  0
  190.9110  176.7510  144.4750 C   0  0  0  0  0  0  0  0  0  0  0  0
  189.9110  177.0900  145.2870 C   0  0  0  0  0  3  0  0  0  0  0  0
  188.3890  177.5080  143.2500 C   0  0  2  0  0  3  0  0  0  0  0  0
  187.7580  178.0320  145.4980 O   0  0  0  0  0  0  0  0  0  0  0  0
  188.6480  177.5880  144.7280 C   0  0  0  0  0  0  0  0  0  0  0  0
  190.7930  176.9310  143.0180 C   0  0  0  0  0  3  0  0  0  0  0  0
  192.0750  176.2980  145.0000 F   0  0  0  0  0  0  0  0  0  0  0  0
  187.5330  176.4500  143.0020 F   0  0  0  0  0  0  0  0  0  0  0  0
  189.6560  177.3410  142.4270 C   0  0  0  0  0  0  0  0  0  0  0  0
  184.2560  175.1730  134.5940 C   0  0  0  0  0  2  0  0  0  0  0  0
  183.9390  173.8340  134.8210 O   0  0  0  0  0  0  0  0  0  0  0  0
  182.7850  173.8740  135.6030 C   0  0  0  0  0  1  0  0  0  0  0  0
  1  7  1  0  0  0  0
  2 20  2  0  0  0  0
  3  4  1  0  0  0  0
  4 17  2  0  0  0  0
  5 14  1  0  0  0  0
  5 15  1  0  0  0  0
  6  2  1  0  0  0  0
  7 14  2  0  0  0  0
  8  3  2  0  0  0  0
  8 10  1  0  0  0  0
  9  6  2  0  0  0  0
  9 10  1  0  0  0  0
 10 18  2  0  0  0  0
 11 29  1  0  0  0  0
 12 13  1  0  0  0  0
 13  5  2  0  0  0  0
 14  6  1  0  0  0  0
 15 19  2  0  0  0  0
 16  1  2  0  0  0  0
 16 13  1  0  0  0  0
 18 17  1  0  0  0  0
 18 11  1  0  0  0  0
 19  2  1  0  0  0  0
 20 11  1  0  0  0  0
 21 27  1  0  0  0  0
 21 22  2  0  0  0  0
 23 28  1  1  0  0  0
 23 25  1  0  0  0  0
 25 22  1  0  0  0  0
 25 24  2  0  0  0  0
 26 21  1  0  0  0  0
 29 26  2  0  0  0  0
 29 23  1  0  0  0  0
 30 31  1  0  0  0  0
 30 16  1  0  0  0  0
 31 32  1  0  0  0  0
M  END
>  <MODEL>
7

>  <REMARK>
 VINA RESULT:      -7.4      3.516      8.097
  Name = 
  3 active torsions:
  status: ('A' for Active; 'I' for Inactive)
    1  A    between atoms: O_1  and  C_10
    2  A    between atoms: C_10  and  C_24
    3  A    between atoms: N_16  and  C_32
                            x       y       z     vdW  Elec       q    Type
                         _______ _______ _______ _____ _____    ______ ____

>  <TORSDO>
F 3

$$$$
=
 OpenBabel10262421343D

 32 36  0  0  1  0  0  0  0  0999 V2000
  183.7460  178.8260  145.4310 C   0  0  0  0  0  3  0  0  0  0  0  0
  183.7210  178.4290  140.5700 C   0  0  0  0  0  0  0  0  0  0  0  0
  178.9370  180.9040  140.2040 C   0  0  0  0  0  3  0  0  0  0  0  0
  178.9660  180.4030  138.9050 C   0  0  0  0  0  3  0  0  0  0  0  0
  185.1200  178.4750  143.0150 C   0  0  0  0  0  0  0  0  0  0  0  0
  183.0090  178.7050  141.7730 C   0  0  0  0  0  0  0  0  0  0  0  0
  183.0460  178.8380  144.2250 C   0  0  0  0  0  3  0  0  0  0  0  0
  179.8740  180.4620  141.1380 C   0  0  0  0  0  3  0  0  0  0  0  0
  181.7780  179.1430  141.8160 N   0  0  0  0  0  0  0  0  0  0  0  0
  180.8520  179.5210  140.7910 C   0  0  0  0  0  0  0  0  0  0  0  0
  181.7860  177.9590  139.1150 N   0  0  0  0  0  0  0  0  0  0  0  0
  187.1700  178.2940  144.2440 F   0  0  0  0  0  0  0  0  0  0  0  0
  185.8220  178.4680  144.2320 C   0  0  0  0  0  0  0  0  0  0  0  0
  183.7150  178.6560  143.0010 C   0  0  0  0  0  0  0  0  0  0  0  0
  185.8080  178.3260  141.8140 C   0  0  0  0  0  3  0  0  0  0  0  0
  185.1310  178.6460  145.4390 C   0  0  0  0  0  0  0  0  0  0  0  0
  179.9220  179.4480  138.5530 C   0  0  0  0  0  3  0  0  0  0  0  0
  180.8630  178.9880  139.4920 C   0  0  0  0  0  0  0  0  0  0  0  0
  185.1110  178.2900  140.6120 C   0  0  0  0  0  3  0  0  0  0  0  0
  183.1790  178.1120  139.3930 C   0  0  0  0  0  3  0  0  0  0  0  0
  181.4740  175.7600  136.0390 C   0  0  0  0  0  0  0  0  0  0  0  0
  180.7730  174.7050  136.4500 C   0  0  0  0  0  3  0  0  0  0  0  0
  180.3730  175.8490  138.7240 C   0  0  2  0  0  3  0  0  0  0  0  0
  179.7400  173.5890  138.2550 O   0  0  0  0  0  0  0  0  0  0  0  0
  180.2850  174.6410  137.8330 C   0  0  0  0  0  0  0  0  0  0  0  0
  181.8280  176.8410  136.9740 C   0  0  0  0  0  3  0  0  0  0  0  0
  181.9260  175.8070  134.7620 F   0  0  0  0  0  0  0  0  0  0  0  0
  179.1220  176.4340  138.8110 F   0  0  0  0  0  0  0  0  0  0  0  0
  181.3830  176.8770  138.2430 C   0  0  0  0  0  0  0  0  0  0  0  0
  185.8560  178.6090  146.7410 C   0  0  0  0  0  2  0  0  0  0  0  0
  186.7170  177.5130  146.7700 O   0  0  0  0  0  0  0  0  0  0  0  0
  187.6740  177.8430  147.7290 C   0  0  0  0  0  1  0  0  0  0  0  0
  1 16  1  0  0  0  0
  2 19  1  0  0  0  0
  2  6  1  0  0  0  0
  3  8  1  0  0  0  0
  4  3  2  0  0  0  0
  5 13  1  0  0  0  0
  6  9  2  0  0  0  0
  6 14  1  0  0  0  0
  7  1  2  0  0  0  0
 10  8  2  0  0  0  0
 10  9  1  0  0  0  0
 11 20  1  0  0  0  0
 11 18  1  0  0  0  0
 13 12  1  0  0  0  0
 13 16  2  0  0  0  0
 14  5  2  0  0  0  0
 14  7  1  0  0  0  0
 15  5  1  0  0  0  0
 16 30  1  0  0  0  0
 17  4  1  0  0  0  0
 17 18  2  0  0  0  0
 18 10  1  0  0  0  0
 19 15  2  0  0  0  0
 20  2  2  0  0  0  0
 21 22  2  0  0  0  0
 21 26  1  0  0  0  0
 22 25  1  0  0  0  0
 23 28  1  6  0  0  0
 25 24  2  0  0  0  0
 25 23  1  0  0  0  0
 26 29  2  0  0  0  0
 27 21  1  0  0  0  0
 29 23  1  0  0  0  0
 29 11  1  0  0  0  0
 30 31  1  0  0  0  0
 31 32  1  0  0  0  0
M  END
>  <MODEL>
8

>  <REMARK>
 VINA RESULT:      -7.3      6.642      8.734
  Name = 
  3 active torsions:
  status: ('A' for Active; 'I' for Inactive)
    1  A    between atoms: O_1  and  C_10
    2  A    between atoms: C_10  and  C_24
    3  A    between atoms: N_16  and  C_32
                            x       y       z     vdW  Elec       q    Type
                         _______ _______ _______ _____ _____    ______ ____

>  <TORSDO>
F 3

$$$$
=
 OpenBabel10262421343D

 32 36  0  0  1  0  0  0  0  0999 V2000
  188.4510  177.2710  145.1790 C   0  0  0  0  0  3  0  0  0  0  0  0
  189.7190  177.6590  140.4850 C   0  0  0  0  0  0  0  0  0  0  0  0
  184.7420  179.2020  139.0730 C   0  0  0  0  0  3  0  0  0  0  0  0
  185.2040  178.9290  137.7870 C   0  0  0  0  0  3  0  0  0  0  0  0
  190.4220  177.5800  143.2120 C   0  0  0  0  0  0  0  0  0  0  0  0
  188.6880  177.5980  141.4670 C   0  0  0  0  0  0  0  0  0  0  0  0
  188.0870  177.3420  143.8350 C   0  0  0  0  0  3  0  0  0  0  0  0
  185.4940  178.8030  140.1780 C   0  0  0  0  0  3  0  0  0  0  0  0
  187.4190  177.7810  141.2140 N   0  0  0  0  0  0  0  0  0  0  0  0
  186.7140  178.1330  140.0180 C   0  0  0  0  0  0  0  0  0  0  0  0
  188.3620  177.0670  138.5120 N   0  0  0  0  0  0  0  0  0  0  0  0
  192.0910  177.5990  144.9330 F   0  0  0  0  0  0  0  0  0  0  0  0
  190.7840  177.5120  144.5680 C   0  0  0  0  0  0  0  0  0  0  0  0
  189.0610  177.4890  142.8300 C   0  0  0  0  0  0  0  0  0  0  0  0
  191.4010  177.7580  142.2380 C   0  0  0  0  0  3  0  0  0  0  0  0
  189.7950  177.3600  145.5490 C   0  0  0  0  0  0  0  0  0  0  0  0
  186.4070  178.2430  137.6160 C   0  0  0  0  0  3  0  0  0  0  0  0
  187.1660  177.8270  138.7250 C   0  0  0  0  0  0  0  0  0  0  0  0
  191.0500  177.7820  140.8940 C   0  0  0  0  0  3  0  0  0  0  0  0
  189.5720  177.4370  139.1780 C   0  0  0  0  0  3  0  0  0  0  0  0
  187.3630  174.3480  136.0620 C   0  0  0  0  0  0  0  0  0  0  0  0
  188.4300  174.1900  135.2820 C   0  0  0  0  0  3  0  0  0  0  0  0
  189.7770  175.7890  136.7890 C   0  0  2  0  0  3  0  0  0  0  0  0
  190.6010  174.9230  134.7160 O   0  0  0  0  0  0  0  0  0  0  0  0
  189.6450  174.9760  135.5310 C   0  0  0  0  0  0  0  0  0  0  0  0
  187.3570  175.3530  137.1380 C   0  0  0  0  0  3  0  0  0  0  0  0
  186.2450  173.6230  135.8200 F   0  0  0  0  0  0  0  0  0  0  0  0
  190.6010  175.1170  137.6740 F   0  0  0  0  0  0  0  0  0  0  0  0
  188.4430  176.0810  137.4560 C   0  0  0  0  0  0  0  0  0  0  0  0
  190.1640  177.2540  146.9900 C   0  0  0  0  0  2  0  0  0  0  0  0
  189.0300  176.9630  147.7470 O   0  0  0  0  0  0  0  0  0  0  0  0
  188.7750  178.1320  148.4620 C   0  0  0  0  0  1  0  0  0  0  0  0
  1 16  1  0  0  0  0
  2 19  1  0  0  0  0
  2  6  1  0  0  0  0
  3  8  1  0  0  0  0
  4  3  2  0  0  0  0
  5 13  1  0  0  0  0
  6 14  1  0  0  0  0
  7  1  2  0  0  0  0
  9  6  2  0  0  0  0
 10  8  2  0  0  0  0
 10  9  1  0  0  0  0
 11 18  1  0  0  0  0
 11 20  1  0  0  0  0
 13 12  1  0  0  0  0
 13 16  2  0  0  0  0
 14  5  2  0  0  0  0
 14  7  1  0  0  0  0
 15  5  1  0  0  0  0
 16 30  1  0  0  0  0
 17  4  1  0  0  0  0
 17 18  2  0  0  0  0
 18 10  1  0  0  0  0
 19 15  2  0  0  0  0
 20  2  2  0  0  0  0
 21 26  1  0  0  0  0
 22 25  1  0  0  0  0
 22 21  2  0  0  0  0
 23 29  1  0  0  0  0
 23 28  1  1  0  0  0
 24 25  2  0  0  0  0
 25 23  1  0  0  0  0
 26 29  2  0  0  0  0
 27 21  1  0  0  0  0
 29 11  1  0  0  0  0
 30 31  1  0  0  0  0
 31 32  1  0  0  0  0
M  END
>  <MODEL>
9

>  <REMARK>
 VINA RESULT:      -7.2      2.250      2.889
  Name = 
  3 active torsions:
  status: ('A' for Active; 'I' for Inactive)
    1  A    between atoms: O_1  and  C_10
    2  A    between atoms: C_10  and  C_24
    3  A    between atoms: N_16  and  C_32
                            x       y       z     vdW  Elec       q    Type
                         _______ _______ _______ _____ _____    ______ ____

>  <TORSDO>
F 3

$$$$
