=
 OpenBabel10262419133D

 34 39  0  0  1  0  0  0  0  0999 V2000
  179.5530  180.0530  135.7480 C   0  0  0  0  0  0  0  0  0  0  0  0
  180.8320  181.7910  136.8920 C   0  0  0  0  0  0  0  0  0  0  0  0
  181.1820  179.4480  137.4590 C   0  0  0  0  0  0  0  0  0  0  0  0
  182.6650  178.8910  139.3910 N   0  0  0  0  0  0  0  0  0  0  0  0
  179.2590  182.3800  135.1430 C   0  0  0  0  0  3  0  0  0  0  0  0
  180.1920  182.7610  136.1150 C   0  0  0  0  0  3  0  0  0  0  0  0
  182.3870  181.2730  138.7070 C   0  0  0  0  0  3  0  0  0  0  0  0
  180.5370  180.4300  136.6880 C   0  0  0  0  0  0  0  0  0  0  0  0
  184.1560  178.0480  141.1880 N   0  0  0  0  0  2  0  0  0  0  0  0
  184.7180  179.9030  139.8960 O   0  0  0  0  0  0  0  0  0  0  0  0
  178.9330  181.0300  134.9650 C   0  0  0  0  0  3  0  0  0  0  0  0
  180.7730  178.1100  137.3670 C   0  0  0  0  0  0  0  0  0  0  0  0
  179.1880  178.7090  135.6260 C   0  0  0  0  0  3  0  0  0  0  0  0
  181.7030  182.1900  138.0140 C   0  0  0  0  0  3  0  0  0  0  0  0
  181.8060  177.7230  139.6100 C   0  0  0  0  0  2  0  0  0  0  0  0
  181.3670  177.0830  138.2850 C   0  0  2  0  0  3  0  0  0  0  0  0
  183.8800  178.9950  140.1530 C   0  0  0  0  0  0  0  0  0  0  0  0
  182.3970  179.8240  138.2820 C   0  0  2  0  0  3  0  0  0  0  0  0
  179.7850  177.7420  136.4450 C   0  0  0  0  0  3  0  0  0  0  0  0
  183.0200  175.1990  138.4750 C   0  0  0  0  0  2  0  0  0  0  0  0
  182.8200  174.1250  136.4120 C   0  0  0  0  0  1  0  0  0  0  0  0
  182.4650  176.2440  137.6220 C   0  0  1  0  0  0  0  0  0  0  0  0
  182.0480  174.8300  137.4300 N   0  0  0  0  0  0  0  0  0  0  0  0
  183.3910  176.8480  136.5820 C   0  0  0  0  0  0  0  0  0  0  0  0
  184.6020  177.2880  136.9230 C   0  0  0  0  0  2  0  0  0  0  0  0
  182.8220  177.1050  134.9000 S   0  0  0  0  0  1  0  0  0  0  0  0
  185.3970  178.0660  141.9440 C   0  0  0  0  0  2  0  0  0  0  0  0
  187.3580  177.3650  144.0620 C   0  0  0  0  0  1  0  0  0  0  0  0
  185.1010  178.2910  143.3890 C   0  0  0  0  0  0  0  0  0  0  0  0
  186.0270  177.9480  144.3940 C   0  0  0  0  0  0  0  0  0  0  0  0
  184.4580  178.6910  146.0880 C   0  0  0  0  0  3  0  0  0  0  0  0
  183.5360  179.0250  145.0920 C   0  0  0  0  0  3  0  0  0  0  0  0
  183.8570  178.8230  143.7470 C   0  0  0  0  0  3  0  0  0  0  0  0
  185.6990  178.1530  145.7390 C   0  0  0  0  0  3  0  0  0  0  0  0
  1  8  1  0  0  0  0
  2 14  1  0  0  0  0
  3 18  1  0  0  0  0
  4 15  1  0  0  0  0
  4 17  1  0  0  0  0
  5  6  1  0  0  0  0
  6  2  2  0  0  0  0
  8  2  1  0  0  0  0
  8  3  2  0  0  0  0
  9 27  1  0  0  0  0
 10 17  2  0  0  0  0
 11  5  2  0  0  0  0
 11  1  1  0  0  0  0
 12  3  1  0  0  0  0
 12 16  1  0  0  0  0
 13  1  2  0  0  0  0
 13 19  1  0  0  0  0
 14  7  2  0  0  0  0
 16 15  1  1  0  0  0
 17  9  1  0  0  0  0
 18  7  1  1  0  0  0
 18  4  1  0  0  0  0
 19 12  2  0  0  0  0
 21 23  1  0  0  0  0
 22 24  1  6  0  0  0
 22 16  1  0  0  0  0
 22 20  1  0  0  0  0
 23 22  1  0  0  0  0
 23 20  1  0  0  0  0
 24 25  2  0  0  0  0
 26 24  1  0  0  0  0
 27 29  1  0  0  0  0
 28 30  1  0  0  0  0
 29 33  2  0  0  0  0
 29 30  1  0  0  0  0
 30 34  2  0  0  0  0
 32 31  2  0  0  0  0
 33 32  1  0  0  0  0
 34 31  1  0  0  0  0
M  END
>  <MODEL>
1

>  <REMARK>
 VINA RESULT:      -7.8      0.000      0.000
  Name = 
  4 active torsions:
  status: ('A' for Active; 'I' for Inactive)
    1  A    between atoms: C_3  and  C_13
    2  A    between atoms: C_3  and  N_17
    3  A    between atoms: C_7  and  C_23
    4  A    between atoms: C_23  and  C_28
                            x       y       z     vdW  Elec       q    Type
                         _______ _______ _______ _____ _____    ______ ____

>  <TORSDO>
F 4

$$$$
=
 OpenBabel10262419133D

 34 39  0  0  1  0  0  0  0  0999 V2000
  187.6990  177.8560  147.2700 C   0  0  0  0  0  0  0  0  0  0  0  0
  190.1190  177.7700  146.9630 C   0  0  0  0  0  0  0  0  0  0  0  0
  188.6380  177.5020  145.0480 C   0  0  0  0  0  0  0  0  0  0  0  0
  189.6310  176.8840  142.8410 N   0  0  0  0  0  0  0  0  0  0  0  0
  189.1790  178.1890  149.1580 C   0  0  0  0  0  3  0  0  0  0  0  0
  190.2920  178.0030  148.3300 C   0  0  0  0  0  3  0  0  0  0  0  0
  191.1330  177.2890  144.7900 C   0  0  0  0  0  3  0  0  0  0  0  0
  188.8200  177.7270  146.4230 C   0  0  0  0  0  0  0  0  0  0  0  0
  190.3490  176.3730  140.5200 N   0  0  0  0  0  2  0  0  0  0  0  0
  191.5930  177.7660  141.9110 O   0  0  0  0  0  0  0  0  0  0  0  0
  187.8850  178.1060  148.6320 C   0  0  0  0  0  3  0  0  0  0  0  0
  187.3460  177.3010  144.5400 C   0  0  0  0  0  0  0  0  0  0  0  0
  186.4110  177.7060  146.7460 C   0  0  0  0  0  3  0  0  0  0  0  0
  191.2760  177.4290  146.1120 C   0  0  0  0  0  3  0  0  0  0  0  0
  188.3820  176.1640  142.5700 C   0  0  0  0  0  2  0  0  0  0  0  0
  187.1600  176.9280  143.1000 C   0  0  2  0  0  3  0  0  0  0  0  0
  190.5760  177.0330  141.7670 C   0  0  0  0  0  0  0  0  0  0  0  0
  189.8230  177.6080  144.1100 C   0  0  2  0  0  3  0  0  0  0  0  0
  186.2360  177.4130  145.3870 C   0  0  0  0  0  3  0  0  0  0  0  0
  187.8770  178.8870  141.6960 C   0  0  0  0  0  2  0  0  0  0  0  0
  186.4470  178.7550  139.8560 C   0  0  0  0  0  1  0  0  0  0  0  0
  186.7540  178.1130  142.2160 C   0  0  1  0  0  0  0  0  0  0  0  0
  187.1890  177.9330  140.8060 N   0  0  0  0  0  0  0  0  0  0  0  0
  185.4550  178.8610  142.4590 C   0  0  0  0  0  0  0  0  0  0  0  0
  185.4480  180.0080  143.1390 C   0  0  0  0  0  2  0  0  0  0  0  0
  183.8890  178.1470  141.9530 S   0  0  0  0  0  1  0  0  0  0  0  0
  191.2360  176.5420  139.3810 C   0  0  0  0  0  2  0  0  0  0  0  0
  191.2000  175.0030  136.8400 C   0  0  0  0  0  1  0  0  0  0  0  0
  190.4530  177.0050  138.1980 C   0  0  0  0  0  0  0  0  0  0  0  0
  190.4450  176.2810  136.9890 C   0  0  0  0  0  0  0  0  0  0  0  0
  189.0030  177.9600  135.9980 C   0  0  0  0  0  3  0  0  0  0  0  0
  189.0160  178.6820  137.1940 C   0  0  0  0  0  3  0  0  0  0  0  0
  189.7420  178.2060  138.2890 C   0  0  0  0  0  3  0  0  0  0  0  0
  189.7170  176.7630  135.8970 C   0  0  0  0  0  3  0  0  0  0  0  0
  1 11  2  0  0  0  0
  2  6  1  0  0  0  0
  3  8  1  0  0  0  0
  4 18  1  0  0  0  0
  6  5  2  0  0  0  0
  7 14  2  0  0  0  0
  8  2  2  0  0  0  0
  8  1  1  0  0  0  0
  9 17  1  0  0  0  0
 11  5  1  0  0  0  0
 12  3  2  0  0  0  0
 12 19  1  0  0  0  0
 13  1  1  0  0  0  0
 14  2  1  0  0  0  0
 15  4  1  0  0  0  0
 16 15  1  6  0  0  0
 16 12  1  0  0  0  0
 17 10  2  0  0  0  0
 17  4  1  0  0  0  0
 18  7  1  1  0  0  0
 18  3  1  0  0  0  0
 19 13  2  0  0  0  0
 20 22  1  0  0  0  0
 21 23  1  0  0  0  0
 22 24  1  1  0  0  0
 22 16  1  0  0  0  0
 23 20  1  0  0  0  0
 23 22  1  0  0  0  0
 24 25  2  0  0  0  0
 26 24  1  0  0  0  0
 27  9  1  0  0  0  0
 28 30  1  0  0  0  0
 29 33  1  0  0  0  0
 29 27  1  0  0  0  0
 30 29  2  0  0  0  0
 31 32  1  0  0  0  0
 32 33  2  0  0  0  0
 34 31  2  0  0  0  0
 34 30  1  0  0  0  0
M  END
>  <MODEL>
2

>  <REMARK>
 VINA RESULT:      -7.7      5.678     10.361
  Name = 
  4 active torsions:
  status: ('A' for Active; 'I' for Inactive)
    1  A    between atoms: C_3  and  C_13
    2  A    between atoms: C_3  and  N_17
    3  A    between atoms: C_7  and  C_23
    4  A    between atoms: C_23  and  C_28
                            x       y       z     vdW  Elec       q    Type
                         _______ _______ _______ _____ _____    ______ ____

>  <TORSDO>
F 4

$$$$
=
 OpenBabel10262419133D

 34 39  0  0  1  0  0  0  0  0999 V2000
  182.4940  178.7750  143.3450 C   0  0  0  0  0  0  0  0  0  0  0  0
  184.9110  178.8380  143.0050 C   0  0  0  0  0  0  0  0  0  0  0  0
  183.4250  178.4520  141.1140 C   0  0  0  0  0  0  0  0  0  0  0  0
  184.4270  177.8700  138.9010 N   0  0  0  0  0  0  0  0  0  0  0  0
  183.9750  179.2250  145.2080 C   0  0  0  0  0  3  0  0  0  0  0  0
  185.0870  179.1000  144.3670 C   0  0  0  0  0  3  0  0  0  0  0  0
  185.9250  178.3950  140.8240 C   0  0  0  0  0  3  0  0  0  0  0  0
  183.6110  178.7060  142.4840 C   0  0  0  0  0  0  0  0  0  0  0  0
  185.1460  177.3760  136.5770 N   0  0  0  0  0  2  0  0  0  0  0  0
  186.3170  178.8620  137.9340 O   0  0  0  0  0  0  0  0  0  0  0  0
  182.6810  179.0540  144.7010 C   0  0  0  0  0  3  0  0  0  0  0  0
  182.1420  178.1640  140.6260 C   0  0  0  0  0  0  0  0  0  0  0  0
  181.2120  178.5370  142.8400 C   0  0  0  0  0  3  0  0  0  0  0  0
  186.0760  178.5600  142.1430 C   0  0  0  0  0  3  0  0  0  0  0  0
  183.2230  177.0690  138.6570 C   0  0  0  0  0  2  0  0  0  0  0  0
  181.9620  177.7610  139.1940 C   0  0  2  0  0  3  0  0  0  0  0  0
  185.3470  178.0650  137.8130 C   0  0  0  0  0  0  0  0  0  0  0  0
  184.5890  178.6210  140.1590 C   0  0  2  0  0  3  0  0  0  0  0  0
  181.0390  178.2160  141.4870 C   0  0  0  0  0  3  0  0  0  0  0  0
  181.7140  178.7060  136.8770 C   0  0  0  0  0  2  0  0  0  0  0  0
  179.5550  179.5920  136.9080 C   0  0  0  0  0  1  0  0  0  0  0  0
  181.4700  178.9060  138.3020 C   0  0  1  0  0  0  0  0  0  0  0  0
  180.3570  178.4820  137.4100 N   0  0  0  0  0  0  0  0  0  0  0  0
  181.4580  180.3390  138.8040 C   0  0  0  0  0  0  0  0  0  0  0  0
  182.5070  181.1370  138.6070 C   0  0  0  0  0  2  0  0  0  0  0  0
  180.0860  180.9440  139.7890 S   0  0  0  0  0  1  0  0  0  0  0  0
  186.0060  177.5850  135.4240 C   0  0  0  0  0  2  0  0  0  0  0  0
  188.9300  177.8030  135.9030 C   0  0  0  0  0  1  0  0  0  0  0  0
  186.9150  176.4140  135.2560 C   0  0  0  0  0  0  0  0  0  0  0  0
  188.3030  176.5210  135.4720 C   0  0  0  0  0  0  0  0  0  0  0  0
  188.5720  174.1860  134.8690 C   0  0  0  0  0  3  0  0  0  0  0  0
  187.1960  174.0820  134.6480 C   0  0  0  0  0  3  0  0  0  0  0  0
  186.3720  175.1940  134.8390 C   0  0  0  0  0  3  0  0  0  0  0  0
  189.1230  175.4040  135.2790 C   0  0  0  0  0  3  0  0  0  0  0  0
  1 11  2  0  0  0  0
  2  6  1  0  0  0  0
  3  8  1  0  0  0  0
  4 18  1  0  0  0  0
  6  5  2  0  0  0  0
  7 14  2  0  0  0  0
  8  2  2  0  0  0  0
  8  1  1  0  0  0  0
  9 17  1  0  0  0  0
 11  5  1  0  0  0  0
 12  3  2  0  0  0  0
 12 19  1  0  0  0  0
 13  1  1  0  0  0  0
 14  2  1  0  0  0  0
 15  4  1  0  0  0  0
 16 15  1  6  0  0  0
 16 12  1  0  0  0  0
 17 10  2  0  0  0  0
 17  4  1  0  0  0  0
 18  7  1  1  0  0  0
 18  3  1  0  0  0  0
 19 13  2  0  0  0  0
 20 23  1  0  0  0  0
 20 22  1  0  0  0  0
 21 23  1  0  0  0  0
 22 24  1  1  0  0  0
 22 16  1  0  0  0  0
 23 22  1  0  0  0  0
 24 26  1  0  0  0  0
 25 24  2  0  0  0  0
 27  9  1  0  0  0  0
 29 27  1  0  0  0  0
 29 30  1  0  0  0  0
 30 28  1  0  0  0  0
 31 34  1  0  0  0  0
 32 33  1  0  0  0  0
 32 31  2  0  0  0  0
 33 29  2  0  0  0  0
 34 30  2  0  0  0  0
M  END
>  <MODEL>
3

>  <REMARK>
 VINA RESULT:      -7.0      2.757      7.189
  Name = 
  4 active torsions:
  status: ('A' for Active; 'I' for Inactive)
    1  A    between atoms: C_3  and  C_13
    2  A    between atoms: C_3  and  N_17
    3  A    between atoms: C_7  and  C_23
    4  A    between atoms: C_23  and  C_28
                            x       y       z     vdW  Elec       q    Type
                         _______ _______ _______ _____ _____    ______ ____

>  <TORSDO>
F 4

$$$$
=
 OpenBabel10262419133D

 34 39  0  0  1  0  0  0  0  0999 V2000
  189.5860  177.8340  145.9140 C   0  0  0  0  0  0  0  0  0  0  0  0
  187.1750  177.6370  146.2440 C   0  0  0  0  0  0  0  0  0  0  0  0
  188.0610  178.2010  144.0470 C   0  0  0  0  0  0  0  0  0  0  0  0
  186.4610  178.8210  142.2320 N   0  0  0  0  0  0  0  0  0  0  0  0
  188.7000  177.2070  148.0800 C   0  0  0  0  0  3  0  0  0  0  0  0
  187.3940  177.3030  147.5840 C   0  0  0  0  0  3  0  0  0  0  0  0
  185.5780  178.1170  144.4550 C   0  0  0  0  0  3  0  0  0  0  0  0
  188.2730  177.8730  145.3970 C   0  0  0  0  0  0  0  0  0  0  0  0
  185.1060  179.3770  140.2270 N   0  0  0  0  0  2  0  0  0  0  0  0
  184.4260  177.7600  141.7590 O   0  0  0  0  0  0  0  0  0  0  0  0
  189.7940  177.4810  147.2500 C   0  0  0  0  0  3  0  0  0  0  0  0
  189.1450  178.5900  143.2460 C   0  0  0  0  0  0  0  0  0  0  0  0
  190.6660  178.1730  145.0930 C   0  0  0  0  0  3  0  0  0  0  0  0
  185.8060  177.8820  145.7520 C   0  0  0  0  0  3  0  0  0  0  0  0
  187.5120  179.7060  141.7170 C   0  0  0  0  0  2  0  0  0  0  0  0
  188.9030  179.0690  141.8460 C   0  0  2  0  0  3  0  0  0  0  0  0
  185.2870  178.6210  141.4260 C   0  0  0  0  0  0  0  0  0  0  0  0
  186.6880  178.0050  143.4370 C   0  0  2  0  0  3  0  0  0  0  0  0
  190.4440  178.5660  143.7680 C   0  0  0  0  0  3  0  0  0  0  0  0
  187.9910  177.5040  140.1020 C   0  0  0  0  0  2  0  0  0  0  0  0
  189.5300  177.7170  138.3600 C   0  0  0  0  0  1  0  0  0  0  0  0
  189.1830  177.9980  140.7850 C   0  0  1  0  0  0  0  0  0  0  0  0
  188.8620  178.4740  139.4130 N   0  0  0  0  0  0  0  0  0  0  0  0
  190.3420  177.0300  140.9370 C   0  0  0  0  0  0  0  0  0  0  0  0
  190.1770  175.8660  141.5660 C   0  0  0  0  0  2  0  0  0  0  0  0
  191.9870  177.4910  140.3920 S   0  0  0  0  0  1  0  0  0  0  0  0
  183.9720  179.1680  139.3430 C   0  0  0  0  0  2  0  0  0  0  0  0
  182.1980  176.7870  139.2320 C   0  0  0  0  0  1  0  0  0  0  0  0
  184.2540  178.0250  138.4260 C   0  0  0  0  0  0  0  0  0  0  0  0
  183.4190  176.8910  138.3820 C   0  0  0  0  0  0  0  0  0  0  0  0
  184.8740  175.8900  136.7190 C   0  0  0  0  0  3  0  0  0  0  0  0
  185.7060  177.0110  136.7670 C   0  0  0  0  0  3  0  0  0  0  0  0
  185.3980  178.0740  137.6200 C   0  0  0  0  0  3  0  0  0  0  0  0
  183.7340  175.8310  137.5260 C   0  0  0  0  0  3  0  0  0  0  0  0
  1 11  2  0  0  0  0
  2  6  1  0  0  0  0
  3  8  1  0  0  0  0
  4 18  1  0  0  0  0
  6  5  2  0  0  0  0
  7 14  2  0  0  0  0
  8  1  1  0  0  0  0
  8  2  2  0  0  0  0
  9 17  1  0  0  0  0
 11  5  1  0  0  0  0
 12 19  1  0  0  0  0
 12  3  2  0  0  0  0
 13  1  1  0  0  0  0
 14  2  1  0  0  0  0
 15  4  1  0  0  0  0
 16 15  1  1  0  0  0
 16 12  1  0  0  0  0
 17 10  2  0  0  0  0
 17  4  1  0  0  0  0
 18  3  1  0  0  0  0
 18  7  1  1  0  0  0
 19 13  2  0  0  0  0
 20 22  1  0  0  0  0
 21 23  1  0  0  0  0
 22 24  1  1  0  0  0
 22 16  1  0  0  0  0
 23 20  1  0  0  0  0
 23 22  1  0  0  0  0
 24 25  2  0  0  0  0
 26 24  1  0  0  0  0
 27  9  1  0  0  0  0
 29 27  1  0  0  0  0
 30 29  1  0  0  0  0
 30 28  1  0  0  0  0
 31 32  2  0  0  0  0
 31 34  1  0  0  0  0
 32 33  1  0  0  0  0
 33 29  2  0  0  0  0
 34 30  2  0  0  0  0
M  END
>  <MODEL>
4

>  <REMARK>
 VINA RESULT:      -6.6      3.818      9.523
  Name = 
  4 active torsions:
  status: ('A' for Active; 'I' for Inactive)
    1  A    between atoms: C_3  and  C_13
    2  A    between atoms: C_3  and  N_17
    3  A    between atoms: C_7  and  C_23
    4  A    between atoms: C_23  and  C_28
                            x       y       z     vdW  Elec       q    Type
                         _______ _______ _______ _____ _____    ______ ____

>  <TORSDO>
F 4

$$$$
=
 OpenBabel10262419133D

 34 39  0  0  1  0  0  0  0  0999 V2000
  187.1100  177.8820  142.7410 C   0  0  0  0  0  0  0  0  0  0  0  0
  184.9460  178.2790  143.8010 C   0  0  0  0  0  0  0  0  0  0  0  0
  185.1730  178.4760  141.3840 C   0  0  0  0  0  0  0  0  0  0  0  0
  183.2350  179.3370  140.0640 N   0  0  0  0  0  0  0  0  0  0  0  0
  186.8600  177.6220  145.1370 C   0  0  0  0  0  3  0  0  0  0  0  0
  185.5120  177.9890  145.0460 C   0  0  0  0  0  3  0  0  0  0  0  0
  182.9910  179.0040  142.5230 C   0  0  0  0  0  3  0  0  0  0  0  0
  185.7370  178.1950  142.6400 C   0  0  0  0  0  0  0  0  0  0  0  0
  181.4500  180.0660  138.5010 N   0  0  0  0  0  2  0  0  0  0  0  0
  180.9860  178.7550  140.3690 O   0  0  0  0  0  0  0  0  0  0  0  0
  187.6600  177.5770  143.9890 C   0  0  0  0  0  3  0  0  0  0  0  0
  185.9970  178.5480  140.2510 C   0  0  0  0  0  0  0  0  0  0  0  0
  187.9140  177.9050  141.5970 C   0  0  0  0  0  3  0  0  0  0  0  0
  183.5710  178.8060  143.7120 C   0  0  0  0  0  3  0  0  0  0  0  0
  184.2210  179.9150  139.1440 C   0  0  0  0  0  2  0  0  0  0  0  0
  185.4200  178.9790  138.9360 C   0  0  2  0  0  3  0  0  0  0  0  0
  181.8490  179.3670  139.6810 C   0  0  0  0  0  0  0  0  0  0  0  0
  183.6680  178.5700  141.2450 C   0  0  2  0  0  3  0  0  0  0  0  0
  187.3620  178.2530  140.3580 C   0  0  0  0  0  3  0  0  0  0  0  0
  184.0680  176.9120  138.4650 C   0  0  0  0  0  2  0  0  0  0  0  0
  183.5900  177.1140  136.1890 C   0  0  0  0  0  1  0  0  0  0  0  0
  185.1200  177.8070  137.9940 C   0  0  1  0  0  0  0  0  0  0  0  0
  183.7550  177.8950  137.4100 N   0  0  0  0  0  0  0  0  0  0  0  0
  186.2120  177.1950  137.1350 C   0  0  0  0  0  0  0  0  0  0  0  0
  186.5340  175.9080  137.2600 C   0  0  0  0  0  2  0  0  0  0  0  0
  187.1800  178.2240  136.0300 S   0  0  0  0  0  1  0  0  0  0  0  0
  180.0740  180.0730  138.0320 C   0  0  0  0  0  2  0  0  0  0  0  0
  180.8070  179.9370  135.1560 C   0  0  0  0  0  1  0  0  0  0  0  0
  179.8610  181.2310  137.1150 C   0  0  0  0  0  0  0  0  0  0  0  0
  180.2200  181.1700  135.7540 C   0  0  0  0  0  0  0  0  0  0  0  0
  179.4840  183.4630  135.4620 C   0  0  0  0  0  3  0  0  0  0  0  0
  179.1350  183.5260  136.8140 C   0  0  0  0  0  3  0  0  0  0  0  0
  179.3260  182.4140  137.6380 C   0  0  0  0  0  3  0  0  0  0  0  0
  180.0260  182.2880  134.9350 C   0  0  0  0  0  3  0  0  0  0  0  0
  1 11  2  0  0  0  0
  2  6  1  0  0  0  0
  3  8  1  0  0  0  0
  4 18  1  0  0  0  0
  6  5  2  0  0  0  0
  7 14  2  0  0  0  0
  8  1  1  0  0  0  0
  8  2  2  0  0  0  0
  9 17  1  0  0  0  0
 11  5  1  0  0  0  0
 12 19  1  0  0  0  0
 12  3  2  0  0  0  0
 13  1  1  0  0  0  0
 14  2  1  0  0  0  0
 15  4  1  0  0  0  0
 16 15  1  1  0  0  0
 16 12  1  0  0  0  0
 17  4  1  0  0  0  0
 17 10  2  0  0  0  0
 18  3  1  0  0  0  0
 18  7  1  1  0  0  0
 19 13  2  0  0  0  0
 21 23  1  0  0  0  0
 22 24  1  6  0  0  0
 22 20  1  0  0  0  0
 22 16  1  0  0  0  0
 23 22  1  0  0  0  0
 23 20  1  0  0  0  0
 24 25  2  0  0  0  0
 26 24  1  0  0  0  0
 27  9  1  0  0  0  0
 28 30  1  0  0  0  0
 29 33  1  0  0  0  0
 29 27  1  0  0  0  0
 30 29  2  0  0  0  0
 31 32  1  0  0  0  0
 32 33  2  0  0  0  0
 34 31  2  0  0  0  0
 34 30  1  0  0  0  0
M  END
>  <MODEL>
5

>  <REMARK>
 VINA RESULT:      -6.4      1.965      7.835
  Name = 
  4 active torsions:
  status: ('A' for Active; 'I' for Inactive)
    1  A    between atoms: C_3  and  C_13
    2  A    between atoms: C_3  and  N_17
    3  A    between atoms: C_7  and  C_23
    4  A    between atoms: C_23  and  C_28
                            x       y       z     vdW  Elec       q    Type
                         _______ _______ _______ _____ _____    ______ ____

>  <TORSDO>
F 4

$$$$
=
 OpenBabel10262419133D

 34 39  0  0  1  0  0  0  0  0999 V2000
  187.7730  177.8270  142.3730 C   0  0  0  0  0  0  0  0  0  0  0  0
  185.8270  178.0380  143.8320 C   0  0  0  0  0  0  0  0  0  0  0  0
  185.5810  178.3210  141.4250 C   0  0  0  0  0  0  0  0  0  0  0  0
  183.3780  179.0800  140.5250 N   0  0  0  0  0  0  0  0  0  0  0  0
  187.9960  177.4800  144.7600 C   0  0  0  0  0  3  0  0  0  0  0  0
  186.6340  177.7540  144.9360 C   0  0  0  0  0  3  0  0  0  0  0  0
  183.6230  178.6600  142.9710 C   0  0  0  0  0  3  0  0  0  0  0  0
  186.3880  178.0440  142.5410 C   0  0  0  0  0  0  0  0  0  0  0  0
  181.2870  179.7250  139.3520 N   0  0  0  0  0  2  0  0  0  0  0  0
  181.2680  178.3310  141.2190 O   0  0  0  0  0  0  0  0  0  0  0  0
  188.5670  177.5260  143.4820 C   0  0  0  0  0  3  0  0  0  0  0  0
  186.1700  178.4830  140.1620 C   0  0  0  0  0  0  0  0  0  0  0  0
  188.3440  177.9390  141.1010 C   0  0  0  0  0  3  0  0  0  0  0  0
  184.4280  178.4690  144.0220 C   0  0  0  0  0  3  0  0  0  0  0  0
  184.1340  179.7530  139.4630 C   0  0  0  0  0  2  0  0  0  0  0  0
  185.3300  178.9100  138.9960 C   0  0  2  0  0  3  0  0  0  0  0  0
  181.9460  179.0220  140.4080 C   0  0  0  0  0  0  0  0  0  0  0  0
  184.0740  178.3110  141.5720 C   0  0  2  0  0  3  0  0  0  0  0  0
  187.5470  178.2830  140.0020 C   0  0  0  0  0  3  0  0  0  0  0  0
  183.8950  176.8790  138.6240 C   0  0  0  0  0  2  0  0  0  0  0  0
  183.2620  177.0960  136.3880 C   0  0  0  0  0  1  0  0  0  0  0  0
  184.9340  177.7470  138.0790 C   0  0  1  0  0  0  0  0  0  0  0  0
  183.5340  177.8700  137.5940 N   0  0  0  0  0  0  0  0  0  0  0  0
  185.9460  177.1090  137.1450 C   0  0  0  0  0  0  0  0  0  0  0  0
  186.6530  177.8540  136.2970 C   0  0  0  0  0  2  0  0  0  0  0  0
  186.1110  175.3240  137.0700 S   0  0  0  0  0  1  0  0  0  0  0  0
  179.8500  179.6470  139.1490 C   0  0  0  0  0  2  0  0  0  0  0  0
  179.6920  180.5590  136.3250 C   0  0  0  0  0  1  0  0  0  0  0  0
  179.5510  178.6980  138.0360 C   0  0  0  0  0  0  0  0  0  0  0  0
  179.4640  179.1330  136.6990 C   0  0  0  0  0  0  0  0  0  0  0  0
  178.9310  176.8720  136.0030 C   0  0  0  0  0  3  0  0  0  0  0  0
  179.0090  176.4420  137.3300 C   0  0  0  0  0  3  0  0  0  0  0  0
  179.3150  177.3540  138.3430 C   0  0  0  0  0  3  0  0  0  0  0  0
  179.1570  178.2150  135.6900 C   0  0  0  0  0  3  0  0  0  0  0  0
  1  8  1  0  0  0  0
  1 11  2  0  0  0  0
  2 14  1  0  0  0  0
  2  6  1  0  0  0  0
  3 18  1  0  0  0  0
  3  8  1  0  0  0  0
  4 18  1  0  0  0  0
  5  6  2  0  0  0  0
  7 14  2  0  0  0  0
  8  2  2  0  0  0  0
  9 17  1  0  0  0  0
 11  5  1  0  0  0  0
 12  3  2  0  0  0  0
 13  1  1  0  0  0  0
 15  4  1  0  0  0  0
 16 15  1  1  0  0  0
 16 12  1  0  0  0  0
 17  4  1  0  0  0  0
 17 10  2  0  0  0  0
 18  7  1  1  0  0  0
 19 12  1  0  0  0  0
 19 13  2  0  0  0  0
 21 23  1  0  0  0  0
 22 24  1  6  0  0  0
 22 20  1  0  0  0  0
 22 16  1  0  0  0  0
 23 22  1  0  0  0  0
 23 20  1  0  0  0  0
 25 24  2  0  0  0  0
 26 24  1  0  0  0  0
 27  9  1  0  0  0  0
 28 30  1  0  0  0  0
 29 33  1  0  0  0  0
 29 27  1  0  0  0  0
 30 29  2  0  0  0  0
 31 32  1  0  0  0  0
 32 33  2  0  0  0  0
 34 31  2  0  0  0  0
 34 30  1  0  0  0  0
M  END
>  <MODEL>
6

>  <REMARK>
 VINA RESULT:      -5.9      1.963      7.735
  Name = 
  4 active torsions:
  status: ('A' for Active; 'I' for Inactive)
    1  A    between atoms: C_3  and  C_13
    2  A    between atoms: C_3  and  N_17
    3  A    between atoms: C_7  and  C_23
    4  A    between atoms: C_23  and  C_28
                            x       y       z     vdW  Elec       q    Type
                         _______ _______ _______ _____ _____    ______ ____

>  <TORSDO>
F 4

$$$$
=
 OpenBabel10262419133D

 34 39  0  0  1  0  0  0  0  0999 V2000
  190.9730  176.6320  141.3310 C   0  0  0  0  0  0  0  0  0  0  0  0
  189.5290  177.8460  139.7810 C   0  0  0  0  0  0  0  0  0  0  0  0
  188.7460  177.3360  142.0310 C   0  0  0  0  0  0  0  0  0  0  0  0
  186.3720  177.8450  142.6190 N   0  0  0  0  0  0  0  0  0  0  0  0
  191.7690  177.2010  139.1150 C   0  0  0  0  0  3  0  0  0  0  0  0
  190.5400  177.8010  138.8180 C   0  0  0  0  0  3  0  0  0  0  0  0
  187.2380  178.4700  140.3650 C   0  0  0  0  0  3  0  0  0  0  0  0
  189.7550  177.2880  141.0540 C   0  0  0  0  0  0  0  0  0  0  0  0
  184.1040  178.3310  143.5040 N   0  0  0  0  0  2  0  0  0  0  0  0
  185.1880  179.7820  142.0390 O   0  0  0  0  0  0  0  0  0  0  0  0
  191.9830  176.6100  140.3660 C   0  0  0  0  0  3  0  0  0  0  0  0
  188.9130  176.6440  143.2390 C   0  0  0  0  0  0  0  0  0  0  0  0
  191.1510  175.9880  142.5590 C   0  0  0  0  0  3  0  0  0  0  0  0
  188.1850  178.3430  139.4300 C   0  0  0  0  0  3  0  0  0  0  0  0
  186.4290  176.6840  143.5140 C   0  0  0  0  0  2  0  0  0  0  0  0
  187.7860  176.5830  144.2260 C   0  0  2  0  0  3  0  0  0  0  0  0
  185.2160  178.6970  142.6830 C   0  0  0  0  0  0  0  0  0  0  0  0
  187.5490  178.2410  141.8250 C   0  0  2  0  0  3  0  0  0  0  0  0
  190.1170  175.9800  143.5040 C   0  0  0  0  0  3  0  0  0  0  0  0
  186.9300  178.6270  145.4130 C   0  0  0  0  0  2  0  0  0  0  0  0
  187.1260  178.0380  147.6640 C   0  0  0  0  0  1  0  0  0  0  0  0
  187.9420  177.5760  145.3830 C   0  0  1  0  0  0  0  0  0  0  0  0
  186.8130  177.4920  146.3480 N   0  0  0  0  0  0  0  0  0  0  0  0
  189.3120  177.9220  145.9370 C   0  0  0  0  0  0  0  0  0  0  0  0
  190.0240  178.9220  145.4150 C   0  0  0  0  0  2  0  0  0  0  0  0
  190.0570  176.9080  147.2150 S   0  0  0  0  0  1  0  0  0  0  0  0
  182.9390  179.1870  143.6570 C   0  0  0  0  0  2  0  0  0  0  0  0
  180.0860  178.8650  144.4200 C   0  0  0  0  0  1  0  0  0  0  0  0
  181.9010  178.8050  142.6560 C   0  0  0  0  0  0  0  0  0  0  0  0
  180.5490  178.6410  143.0200 C   0  0  0  0  0  0  0  0  0  0  0  0
  180.0110  178.0340  140.7340 C   0  0  0  0  0  3  0  0  0  0  0  0
  181.3520  178.1890  140.3740 C   0  0  0  0  0  3  0  0  0  0  0  0
  182.2940  178.5710  141.3330 C   0  0  0  0  0  3  0  0  0  0  0  0
  179.6120  178.2590  142.0550 C   0  0  0  0  0  3  0  0  0  0  0  0
  1 13  1  0  0  0  0
  2  8  1  0  0  0  0
  3 12  2  0  0  0  0
  4 17  1  0  0  0  0
  4 15  1  0  0  0  0
  5 11  2  0  0  0  0
  6  5  1  0  0  0  0
  6  2  2  0  0  0  0
  8  1  2  0  0  0  0
  8  3  1  0  0  0  0
  9 27  1  0  0  0  0
 10 17  2  0  0  0  0
 11  1  1  0  0  0  0
 12 19  1  0  0  0  0
 12 16  1  0  0  0  0
 13 19  2  0  0  0  0
 14  2  1  0  0  0  0
 14  7  2  0  0  0  0
 16 15  1  6  0  0  0
 16 22  1  0  0  0  0
 17  9  1  0  0  0  0
 18  7  1  6  0  0  0
 18  3  1  0  0  0  0
 18  4  1  0  0  0  0
 20 23  1  0  0  0  0
 22 20  1  0  0  0  0
 22 24  1  1  0  0  0
 22 23  1  0  0  0  0
 23 21  1  0  0  0  0
 24 26  1  0  0  0  0
 25 24  2  0  0  0  0
 29 30  1  0  0  0  0
 29 27  1  0  0  0  0
 30 28  1  0  0  0  0
 31 34  1  0  0  0  0
 32 31  2  0  0  0  0
 32 33  1  0  0  0  0
 33 29  2  0  0  0  0
 34 30  2  0  0  0  0
M  END
>  <MODEL>
7

>  <REMARK>
 VINA RESULT:      -5.6      4.636      9.226
  Name = 
  4 active torsions:
  status: ('A' for Active; 'I' for Inactive)
    1  A    between atoms: C_3  and  C_13
    2  A    between atoms: C_3  and  N_17
    3  A    between atoms: C_7  and  C_23
    4  A    between atoms: C_23  and  C_28
                            x       y       z     vdW  Elec       q    Type
                         _______ _______ _______ _____ _____    ______ ____

>  <TORSDO>
F 4

$$$$
=
 OpenBabel10262419133D

 34 39  0  0  1  0  0  0  0  0999 V2000
  182.9970  178.7740  144.1750 C   0  0  0  0  0  0  0  0  0  0  0  0
  185.3330  178.6970  143.4700 C   0  0  0  0  0  0  0  0  0  0  0  0
  183.5550  178.4570  141.8230 C   0  0  0  0  0  0  0  0  0  0  0  0
  184.1680  177.8760  139.4720 N   0  0  0  0  0  0  0  0  0  0  0  0
  184.7700  179.0790  145.7970 C   0  0  0  0  0  3  0  0  0  0  0  0
  185.7310  178.9090  144.7930 C   0  0  0  0  0  3  0  0  0  0  0  0
  185.9720  178.2530  141.1520 C   0  0  0  0  0  3  0  0  0  0  0  0
  183.9630  178.6600  143.1520 C   0  0  0  0  0  0  0  0  0  0  0  0
  184.4910  177.4040  137.0570 N   0  0  0  0  0  2  0  0  0  0  0  0
  185.9500  178.7770  138.2450 O   0  0  0  0  0  0  0  0  0  0  0  0
  183.4060  179.0030  145.4920 C   0  0  0  0  0  3  0  0  0  0  0  0
  182.1960  178.2620  141.5330 C   0  0  0  0  0  0  0  0  0  0  0  0
  181.6400  178.6290  143.8690 C   0  0  0  0  0  3  0  0  0  0  0  0
  186.3330  178.3720  142.4340 C   0  0  0  0  0  3  0  0  0  0  0  0
  182.8910  177.1580  139.4010 C   0  0  0  0  0  2  0  0  0  0  0  0
  181.7740  177.9110  140.1380 C   0  0  2  0  0  3  0  0  0  0  0  0
  184.9220  178.0440  138.2590 C   0  0  0  0  0  0  0  0  0  0  0  0
  184.5680  178.5800  140.7040 C   0  0  2  0  0  3  0  0  0  0  0  0
  181.2430  178.3580  142.5540 C   0  0  0  0  0  3  0  0  0  0  0  0
  180.8800  180.2600  140.1790 C   0  0  0  0  0  2  0  0  0  0  0  0
  181.9300  181.2450  138.3410 C   0  0  0  0  0  1  0  0  0  0  0  0
  181.2280  179.1090  139.3530 C   0  0  1  0  0  0  0  0  0  0  0  0
  182.1420  180.2810  139.4150 N   0  0  0  0  0  0  0  0  0  0  0  0
  180.4300  178.9100  138.0770 C   0  0  0  0  0  0  0  0  0  0  0  0
  179.1040  179.0460  138.0760 C   0  0  0  0  0  2  0  0  0  0  0  0
  181.2410  178.3560  136.5760 S   0  0  0  0  0  1  0  0  0  0  0  0
  185.1780  177.5920  135.7890 C   0  0  0  0  0  2  0  0  0  0  0  0
  184.3370  175.0010  134.6030 C   0  0  0  0  0  1  0  0  0  0  0  0
  186.1490  176.4790  135.5740 C   0  0  0  0  0  0  0  0  0  0  0  0
  185.7470  175.2460  135.0220 C   0  0  0  0  0  0  0  0  0  0  0  0
  188.0140  174.4130  135.2470 C   0  0  0  0  0  3  0  0  0  0  0  0
  188.4110  175.6330  135.8010 C   0  0  0  0  0  3  0  0  0  0  0  0
  187.4790  176.6610  135.9660 C   0  0  0  0  0  3  0  0  0  0  0  0
  186.6850  174.2210  134.8600 C   0  0  0  0  0  3  0  0  0  0  0  0
  1 11  2  0  0  0  0
  2  6  1  0  0  0  0
  3  8  1  0  0  0  0
  4 18  1  0  0  0  0
  6  5  2  0  0  0  0
  7 14  2  0  0  0  0
  8  2  2  0  0  0  0
  8  1  1  0  0  0  0
  9 17  1  0  0  0  0
 10 17  2  0  0  0  0
 11  5  1  0  0  0  0
 12  3  2  0  0  0  0
 12 19  1  0  0  0  0
 13  1  1  0  0  0  0
 14  2  1  0  0  0  0
 15  4  1  0  0  0  0
 16 15  1  6  0  0  0
 16 12  1  0  0  0  0
 17  4  1  0  0  0  0
 18  7  1  1  0  0  0
 18  3  1  0  0  0  0
 19 13  2  0  0  0  0
 21 23  1  0  0  0  0
 22 24  1  6  0  0  0
 22 23  1  0  0  0  0
 22 16  1  0  0  0  0
 22 20  1  0  0  0  0
 23 20  1  0  0  0  0
 25 24  2  0  0  0  0
 26 24  1  0  0  0  0
 27  9  1  0  0  0  0
 28 30  1  0  0  0  0
 29 27  1  0  0  0  0
 29 33  1  0  0  0  0
 30 29  2  0  0  0  0
 31 32  1  0  0  0  0
 32 33  2  0  0  0  0
 34 30  1  0  0  0  0
 34 31  2  0  0  0  0
M  END
>  <MODEL>
8

>  <REMARK>
 VINA RESULT:      -5.6      2.194      7.465
  Name = 
  4 active torsions:
  status: ('A' for Active; 'I' for Inactive)
    1  A    between atoms: C_3  and  C_13
    2  A    between atoms: C_3  and  N_17
    3  A    between atoms: C_7  and  C_23
    4  A    between atoms: C_23  and  C_28
                            x       y       z     vdW  Elec       q    Type
                         _______ _______ _______ _____ _____    ______ ____

>  <TORSDO>
F 4

$$$$
=
 OpenBabel10262419133D

 34 39  0  0  1  0  0  0  0  0999 V2000
  189.2560  178.0750  145.7360 C   0  0  0  0  0  0  0  0  0  0  0  0
  186.8490  177.7430  145.9760 C   0  0  0  0  0  0  0  0  0  0  0  0
  187.8000  178.2230  143.7860 C   0  0  0  0  0  0  0  0  0  0  0  0
  186.2520  178.6220  141.8670 N   0  0  0  0  0  0  0  0  0  0  0  0
  188.3110  177.5310  147.8990 C   0  0  0  0  0  3  0  0  0  0  0  0
  187.0270  177.5100  147.3430 C   0  0  0  0  0  3  0  0  0  0  0  0
  185.3110  178.0040  144.0930 C   0  0  0  0  0  3  0  0  0  0  0  0
  187.9690  177.9960  145.1620 C   0  0  0  0  0  0  0  0  0  0  0  0
  184.9600  178.9610  139.7750 N   0  0  0  0  0  2  0  0  0  0  0  0
  184.3100  177.4030  141.3800 O   0  0  0  0  0  0  0  0  0  0  0  0
  189.4230  177.8220  147.1000 C   0  0  0  0  0  3  0  0  0  0  0  0
  188.8940  178.6300  143.0070 C   0  0  0  0  0  0  0  0  0  0  0  0
  190.3510  178.4310  144.9420 C   0  0  0  0  0  3  0  0  0  0  0  0
  185.4920  177.8670  145.4110 C   0  0  0  0  0  3  0  0  0  0  0  0
  187.2690  179.5390  141.3400 C   0  0  0  0  0  2  0  0  0  0  0  0
  188.6890  179.0030  141.5700 C   0  0  2  0  0  3  0  0  0  0  0  0
  185.1310  178.2950  141.0280 C   0  0  0  0  0  0  0  0  0  0  0  0
  186.4720  177.9000  143.1330 C   0  0  2  0  0  3  0  0  0  0  0  0
  190.1670  178.7240  143.5850 C   0  0  0  0  0  3  0  0  0  0  0  0
  187.9930  177.4180  139.7460 C   0  0  0  0  0  2  0  0  0  0  0  0
  189.7950  177.5130  138.2640 C   0  0  0  0  0  1  0  0  0  0  0  0
  189.0830  177.8870  140.5950 C   0  0  1  0  0  0  0  0  0  0  0  0
  189.0040  178.3300  139.1780 N   0  0  0  0  0  0  0  0  0  0  0  0
  190.1590  176.8790  140.9540 C   0  0  0  0  0  0  0  0  0  0  0  0
  189.8600  175.7850  141.6560 C   0  0  0  0  0  2  0  0  0  0  0  0
  191.8780  177.2050  140.5580 S   0  0  0  0  0  1  0  0  0  0  0  0
  183.8830  178.6230  138.8580 C   0  0  0  0  0  2  0  0  0  0  0  0
  181.4300  177.6610  140.2310 C   0  0  0  0  0  1  0  0  0  0  0  0
  182.7180  179.5240  139.0990 C   0  0  0  0  0  0  0  0  0  0  0  0
  181.5500  179.0640  139.7390 C   0  0  0  0  0  0  0  0  0  0  0  0
  180.5450  181.2550  139.4690 C   0  0  0  0  0  3  0  0  0  0  0  0
  181.7000  181.7090  138.8270 C   0  0  0  0  0  3  0  0  0  0  0  0
  182.7810  180.8440  138.6410 C   0  0  0  0  0  3  0  0  0  0  0  0
  180.4710  179.9350  139.9220 C   0  0  0  0  0  3  0  0  0  0  0  0
  1 11  2  0  0  0  0
  2  6  1  0  0  0  0
  3  8  1  0  0  0  0
  4 18  1  0  0  0  0
  6  5  2  0  0  0  0
  7 14  2  0  0  0  0
  8  1  1  0  0  0  0
  8  2  2  0  0  0  0
  9 17  1  0  0  0  0
 11  5  1  0  0  0  0
 12 19  1  0  0  0  0
 12  3  2  0  0  0  0
 13  1  1  0  0  0  0
 14  2  1  0  0  0  0
 15  4  1  0  0  0  0
 16 15  1  1  0  0  0
 16 12  1  0  0  0  0
 17 10  2  0  0  0  0
 17  4  1  0  0  0  0
 18  3  1  0  0  0  0
 18  7  1  1  0  0  0
 19 13  2  0  0  0  0
 20 22  1  0  0  0  0
 21 23  1  0  0  0  0
 22 24  1  1  0  0  0
 22 16  1  0  0  0  0
 23 20  1  0  0  0  0
 23 22  1  0  0  0  0
 24 25  2  0  0  0  0
 26 24  1  0  0  0  0
 27 29  1  0  0  0  0
 27  9  1  0  0  0  0
 29 30  1  0  0  0  0
 30 34  2  0  0  0  0
 30 28  1  0  0  0  0
 31 34  1  0  0  0  0
 32 31  2  0  0  0  0
 33 32  1  0  0  0  0
 33 29  2  0  0  0  0
M  END
>  <MODEL>
9

>  <REMARK>
 VINA RESULT:      -5.4      3.340      9.174
  Name = 
  4 active torsions:
  status: ('A' for Active; 'I' for Inactive)
    1  A    between atoms: C_3  and  C_13
    2  A    between atoms: C_3  and  N_17
    3  A    between atoms: C_7  and  C_23
    4  A    between atoms: C_23  and  C_28
                            x       y       z     vdW  Elec       q    Type
                         _______ _______ _______ _____ _____    ______ ____

>  <TORSDO>
F 4

$$$$
