=
 OpenBabel10262420003D

 27 31  0  0  1  0  0  0  0  0999 V2000
  187.4210  176.9790  143.1920 C   0  0  0  0  0  2  0  0  0  0  0  0
  188.2260  177.9360  141.0960 N   0  0  0  0  0  0  0  0  0  0  0  0
  190.4270  177.7960  142.3710 N   0  0  0  0  0  2  0  0  0  0  0  0
  190.2520  175.8300  137.5630 C   0  0  0  0  0  3  0  0  0  0  0  0
  192.5280  175.2940  137.8280 O   0  0  0  0  0  1  0  0  0  0  0  0
  187.8080  177.4910  139.8580 O   0  0  0  0  0  0  0  0  0  0  0  0
  191.3980  176.5070  139.7080 C   0  0  0  0  0  0  0  0  0  0  0  0
  192.0630  178.3030  144.9350 N   0  0  0  0  0  0  0  0  0  0  0  0
  192.4290  177.6230  139.7320 C   0  0  0  0  0  1  0  0  0  0  0  0
  191.5540  177.0240  145.3640 C   0  0  0  0  0  3  0  0  0  0  0  0
  190.0490  177.0500  140.0820 C   0  0  0  0  0  0  0  0  0  0  0  0
  187.3370  178.1530  142.2280 C   0  0  1  0  0  3  0  0  0  0  0  0
  191.3650  175.8690  138.3250 C   0  0  0  0  0  0  0  0  0  0  0  0
  188.9550  176.3910  138.0120 C   0  0  0  0  0  3  0  0  0  0  0  0
  187.8880  177.4820  144.5420 C   0  0  0  0  0  2  0  0  0  0  0  0
  189.6210  177.6220  141.2010 C   0  0  0  0  0  0  0  0  0  0  0  0
  191.3910  179.0820  144.1290 C   0  0  0  0  0  3  0  0  0  0  0  0
  188.9050  176.9540  139.2100 C   0  0  1  0  0  3  0  0  0  0  0  0
  190.2610  176.7230  145.1960 C   0  0  0  0  0  3  0  0  0  0  0  0
  189.3850  177.7920  144.6210 C   0  0  1  0  0  3  0  0  0  0  0  0
  190.0890  178.6200  143.5280 C   0  0  2  0  0  3  0  0  0  0  0  0
  183.2840  178.9880  141.0560 C   0  0  0  0  0  3  0  0  0  0  0  0
  185.9290  178.4360  141.7980 C   0  0  0  0  0  0  0  0  0  0  0  0
  184.8890  178.2580  142.7170 C   0  0  0  0  0  3  0  0  0  0  0  0
  183.5690  178.5310  142.3470 C   0  0  0  0  0  3  0  0  0  0  0  0
  184.3190  179.1730  140.1360 C   0  0  0  0  0  3  0  0  0  0  0  0
  185.6390  178.9000  140.5050 C   0  0  0  0  0  3  0  0  0  0  0  0
  1 15  1  0  0  0  0
  2 16  1  0  0  0  0
  2 12  1  0  0  0  0
  3 21  1  0  0  0  0
  4 14  2  0  0  0  0
  4 13  1  0  0  0  0
  5 13  1  0  0  0  0
  6  2  1  0  0  0  0
  7  9  1  0  0  0  0
  7 11  1  0  0  0  0
  8 10  1  0  0  0  0
 11 16  2  0  0  0  0
 12 23  1  6  0  0  0
 12  1  1  0  0  0  0
 13  7  2  0  0  0  0
 16  3  1  0  0  0  0
 17  8  2  0  0  0  0
 18 14  1  1  0  0  0
 18  6  1  0  0  0  0
 18 11  1  0  0  0  0
 19 10  2  0  0  0  0
 20 15  1  6  0  0  0
 20 19  1  0  0  0  0
 21 17  1  1  0  0  0
 21 20  1  0  0  0  0
 22 25  1  0  0  0  0
 23 24  1  0  0  0  0
 25 24  2  0  0  0  0
 26 27  1  0  0  0  0
 26 22  2  0  0  0  0
 27 23  2  0  0  0  0
M  END
>  <MODEL>
1

>  <REMARK>
 VINA RESULT:      -8.6      0.000      0.000
  Name = 
  1 active torsions:
  status: ('A' for Active; 'I' for Inactive)
    1  A    between atoms: C_9  and  C_15
                            x       y       z     vdW  Elec       q    Type
                         _______ _______ _______ _____ _____    ______ ____

>  <TORSDO>
F 1

$$$$
=
 OpenBabel10262420003D

 27 31  0  0  1  0  0  0  0  0999 V2000
  189.5370  176.4670  140.8040 C   0  0  0  0  0  2  0  0  0  0  0  0
  188.1480  178.3330  141.5440 N   0  0  0  0  0  0  0  0  0  0  0  0
  187.6030  178.3600  139.0560 N   0  0  0  0  0  2  0  0  0  0  0  0
  183.6500  178.3960  142.4310 C   0  0  0  0  0  3  0  0  0  0  0  0
  182.2150  178.4770  140.5660 O   0  0  0  0  0  1  0  0  0  0  0  0
  187.3810  178.2890  142.6910 O   0  0  0  0  0  0  0  0  0  0  0  0
  184.6840  178.5100  140.1300 C   0  0  1  0  0  3  0  0  0  0  0  0
  188.5380  178.3070  136.1180 N   0  0  0  0  0  0  0  0  0  0  0  0
  184.6150  179.7800  139.2980 C   0  0  0  0  0  1  0  0  0  0  0  0
  188.5140  176.8730  136.2660 C   0  0  0  0  0  3  0  0  0  0  0  0
  185.9860  178.4600  140.8770 C   0  0  0  0  0  0  0  0  0  0  0  0
  189.5160  177.8410  141.4580 C   0  0  1  0  0  3  0  0  0  0  0  0
  183.5020  178.4620  141.0900 C   0  0  0  0  0  0  0  0  0  0  0  0
  184.9780  178.3470  143.0870 C   0  0  0  0  0  3  0  0  0  0  0  0
  190.3760  176.5340  139.5440 C   0  0  0  0  0  2  0  0  0  0  0  0
  187.2380  178.4170  140.4390 C   0  0  0  0  0  0  0  0  0  0  0  0
  188.7820  179.1050  137.1240 C   0  0  0  0  0  3  0  0  0  0  0  0
  186.0540  178.3760  142.3140 C   0  0  0  0  0  0  0  0  0  0  0  0
  189.0320  176.3010  137.3590 C   0  0  0  0  0  3  0  0  0  0  0  0
  189.6830  177.2080  138.3560 C   0  0  1  0  0  3  0  0  0  0  0  0
  188.9460  178.5510  138.5160 C   0  0  2  0  0  3  0  0  0  0  0  0
  191.5180  177.7970  145.2630 C   0  0  0  0  0  3  0  0  0  0  0  0
  190.2060  177.8480  142.7880 C   0  0  0  0  0  0  0  0  0  0  0  0
  190.2660  176.6620  143.5280 C   0  0  0  0  0  3  0  0  0  0  0  0
  190.9190  176.6360  144.7640 C   0  0  0  0  0  3  0  0  0  0  0  0
  191.4670  178.9830  144.5260 C   0  0  0  0  0  3  0  0  0  0  0  0
  190.8140  179.0090  143.2900 C   0  0  0  0  0  3  0  0  0  0  0  0
  1 12  1  0  0  0  0
  2  6  1  0  0  0  0
  3 16  1  0  0  0  0
  4 14  1  0  0  0  0
  5 13  1  0  0  0  0
  7  9  1  1  0  0  0
  7 11  1  0  0  0  0
  7 13  1  0  0  0  0
  8 10  1  0  0  0  0
  8 17  2  0  0  0  0
 10 19  2  0  0  0  0
 11 18  1  0  0  0  0
 12  2  1  0  0  0  0
 12 23  1  1  0  0  0
 13  4  2  0  0  0  0
 15  1  1  0  0  0  0
 16 11  2  0  0  0  0
 16  2  1  0  0  0  0
 18  6  1  0  0  0  0
 18 14  2  0  0  0  0
 20 19  1  1  0  0  0
 20 21  1  0  0  0  0
 20 15  1  0  0  0  0
 21 17  1  6  0  0  0
 21  3  1  0  0  0  0
 23 27  2  0  0  0  0
 23 24  1  0  0  0  0
 24 25  2  0  0  0  0
 25 22  1  0  0  0  0
 26 22  2  0  0  0  0
 27 26  1  0  0  0  0
M  END
>  <MODEL>
2

>  <REMARK>
 VINA RESULT:      -8.5      2.244      6.753
  Name = 
  1 active torsions:
  status: ('A' for Active; 'I' for Inactive)
    1  A    between atoms: C_9  and  C_15
                            x       y       z     vdW  Elec       q    Type
                         _______ _______ _______ _____ _____    ______ ____

>  <TORSDO>
F 1

$$$$
=
 OpenBabel10262420003D

 27 31  0  0  1  0  0  0  0  0999 V2000
  186.9490  176.7320  143.4560 C   0  0  0  0  0  2  0  0  0  0  0  0
  186.6880  178.4580  141.7510 N   0  0  0  0  0  0  0  0  0  0  0  0
  189.1830  178.0070  141.5180 N   0  0  0  0  0  2  0  0  0  0  0  0
  186.2760  177.9770  137.2100 C   0  0  0  0  0  3  0  0  0  0  0  0
  188.2590  177.5420  136.0180 O   0  0  0  0  0  1  0  0  0  0  0  0
  185.6320  178.4810  140.8610 O   0  0  0  0  0  0  0  0  0  0  0  0
  188.4480  177.8800  138.4950 C   0  0  1  0  0  3  0  0  0  0  0  0
  191.9600  177.6310  142.8070 N   0  0  0  0  0  0  0  0  0  0  0  0
  189.4910  178.9760  138.3600 C   0  0  0  0  0  1  0  0  0  0  0  0
  191.5660  176.2520  142.9560 C   0  0  0  0  0  3  0  0  0  0  0  0
  187.5780  178.1470  139.6900 C   0  0  0  0  0  0  0  0  0  0  0  0
  186.5510  178.1720  143.1720 C   0  0  1  0  0  3  0  0  0  0  0  0
  187.6160  177.8060  137.2200 C   0  0  0  0  0  0  0  0  0  0  0  0
  185.4930  178.2350  138.4410 C   0  0  0  0  0  3  0  0  0  0  0  0
  188.1120  176.7240  144.4270 C   0  0  0  0  0  2  0  0  0  0  0  0
  187.8750  178.2270  140.9810 C   0  0  0  0  0  0  0  0  0  0  0  0
  191.0890  178.6060  142.8160 C   0  0  0  0  0  3  0  0  0  0  0  0
  186.1490  178.3040  139.5900 C   0  0  0  0  0  0  0  0  0  0  0  0
  190.3450  175.9450  143.4060 C   0  0  0  0  0  3  0  0  0  0  0  0
  189.4620  177.0880  143.8030 C   0  0  1  0  0  3  0  0  0  0  0  0
  189.6130  178.3120  142.8800 C   0  0  2  0  0  3  0  0  0  0  0  0
  182.6470  179.1390  144.6940 C   0  0  0  0  0  3  0  0  0  0  0  0
  185.1800  178.4950  143.6850 C   0  0  0  0  0  0  0  0  0  0  0  0
  184.9940  178.6680  145.0620 C   0  0  0  0  0  3  0  0  0  0  0  0
  183.7300  178.9870  145.5660 C   0  0  0  0  0  3  0  0  0  0  0  0
  182.8280  178.9740  143.3190 C   0  0  0  0  0  3  0  0  0  0  0  0
  184.0920  178.6540  142.8140 C   0  0  0  0  0  3  0  0  0  0  0  0
  1 15  1  0  0  0  0
  2 12  1  0  0  0  0
  3 21  1  0  0  0  0
  4 13  2  0  0  0  0
  4 14  1  0  0  0  0
  5 13  1  0  0  0  0
  6  2  1  0  0  0  0
  7  9  1  6  0  0  0
  7 11  1  0  0  0  0
  8 17  2  0  0  0  0
  8 10  1  0  0  0  0
 10 19  2  0  0  0  0
 11 16  2  0  0  0  0
 12  1  1  0  0  0  0
 12 23  1  6  0  0  0
 13  7  1  0  0  0  0
 14 18  2  0  0  0  0
 16  3  1  0  0  0  0
 16  2  1  0  0  0  0
 18 11  1  0  0  0  0
 18  6  1  0  0  0  0
 20 19  1  6  0  0  0
 20 15  1  0  0  0  0
 21 17  1  6  0  0  0
 21 20  1  0  0  0  0
 22 25  1  0  0  0  0
 23 24  1  0  0  0  0
 24 25  2  0  0  0  0
 26 22  2  0  0  0  0
 27 26  1  0  0  0  0
 27 23  2  0  0  0  0
M  END
>  <MODEL>
3

>  <REMARK>
 VINA RESULT:      -8.4      2.175      2.819
  Name = 
  1 active torsions:
  status: ('A' for Active; 'I' for Inactive)
    1  A    between atoms: C_9  and  C_15
                            x       y       z     vdW  Elec       q    Type
                         _______ _______ _______ _____ _____    ______ ____

>  <TORSDO>
F 1

$$$$
=
 OpenBabel10262420003D

 27 31  0  0  1  0  0  0  0  0999 V2000
  188.2260  176.5140  142.6640 C   0  0  0  0  0  2  0  0  0  0  0  0
  186.6870  178.4050  142.7590 N   0  0  0  0  0  0  0  0  0  0  0  0
  187.1970  178.4000  140.2640 N   0  0  0  0  0  2  0  0  0  0  0  0
  182.2170  178.5290  141.7450 C   0  0  0  0  0  3  0  0  0  0  0  0
  181.6630  178.5970  139.4580 O   0  0  0  0  0  1  0  0  0  0  0  0
  185.5200  178.3870  143.4970 O   0  0  0  0  0  0  0  0  0  0  0  0
  184.0960  178.5970  140.0600 C   0  0  1  0  0  3  0  0  0  0  0  0
  189.2420  178.2910  137.9580 N   0  0  0  0  0  0  0  0  0  0  0  0
  184.3900  179.8540  139.2600 C   0  0  0  0  0  1  0  0  0  0  0  0
  189.1370  176.8600  138.0980 C   0  0  0  0  0  3  0  0  0  0  0  0
  184.9830  178.5450  141.2720 C   0  0  0  0  0  0  0  0  0  0  0  0
  187.9640  177.8970  143.2400 C   0  0  1  0  0  3  0  0  0  0  0  0
  182.6260  178.5770  140.4600 C   0  0  0  0  0  0  0  0  0  0  0  0
  183.1640  178.4770  142.8840 C   0  0  0  0  0  3  0  0  0  0  0  0
  189.5050  176.5520  141.8520 C   0  0  0  0  0  2  0  0  0  0  0  0
  186.3040  178.4820  141.3800 C   0  0  0  0  0  0  0  0  0  0  0  0
  189.0690  179.1020  138.9690 C   0  0  0  0  0  3  0  0  0  0  0  0
  184.4610  178.4820  142.6130 C   0  0  0  0  0  0  0  0  0  0  0  0
  189.1580  176.2990  139.3120 C   0  0  0  0  0  3  0  0  0  0  0  0
  189.3640  177.2150  140.4790 C   0  0  1  0  0  3  0  0  0  0  0  0
  188.6470  178.5680  140.3130 C   0  0  2  0  0  3  0  0  0  0  0  0
  188.1670  177.9180  147.5350 C   0  0  0  0  0  3  0  0  0  0  0  0
  188.0550  177.9170  144.7360 C   0  0  0  0  0  0  0  0  0  0  0  0
  186.8780  177.9990  145.4870 C   0  0  0  0  0  3  0  0  0  0  0  0
  186.9330  178.0020  146.8840 C   0  0  0  0  0  3  0  0  0  0  0  0
  189.3460  177.8300  146.7910 C   0  0  0  0  0  3  0  0  0  0  0  0
  189.2920  177.8270  145.3940 C   0  0  0  0  0  3  0  0  0  0  0  0
  1 12  1  0  0  0  0
  2 12  1  0  0  0  0
  2  6  1  0  0  0  0
  3 21  1  0  0  0  0
  3 16  1  0  0  0  0
  4 14  1  0  0  0  0
  5 13  1  0  0  0  0
  7  9  1  1  0  0  0
  7 13  1  0  0  0  0
  7 11  1  0  0  0  0
  8 10  1  0  0  0  0
  8 17  2  0  0  0  0
 10 19  2  0  0  0  0
 11 16  2  0  0  0  0
 11 18  1  0  0  0  0
 12 23  1  1  0  0  0
 13  4  2  0  0  0  0
 15  1  1  0  0  0  0
 16  2  1  0  0  0  0
 18 14  2  0  0  0  0
 18  6  1  0  0  0  0
 20 19  1  6  0  0  0
 20 15  1  0  0  0  0
 21 17  1  6  0  0  0
 21 20  1  0  0  0  0
 23 27  2  0  0  0  0
 23 24  1  0  0  0  0
 24 25  2  0  0  0  0
 25 22  1  0  0  0  0
 26 22  2  0  0  0  0
 27 26  1  0  0  0  0
M  END
>  <MODEL>
4

>  <REMARK>
 VINA RESULT:      -8.3      2.813      6.306
  Name = 
  1 active torsions:
  status: ('A' for Active; 'I' for Inactive)
    1  A    between atoms: C_9  and  C_15
                            x       y       z     vdW  Elec       q    Type
                         _______ _______ _______ _____ _____    ______ ____

>  <TORSDO>
F 1

$$$$
=
 OpenBabel10262420003D

 27 31  0  0  1  0  0  0  0  0999 V2000
  186.8150  179.0360  142.1460 C   0  0  0  0  0  2  0  0  0  0  0  0
  186.2210  177.8110  144.1730 N   0  0  0  0  0  0  0  0  0  0  0  0
  188.6490  177.0820  143.9340 N   0  0  0  0  0  2  0  0  0  0  0  0
  187.0790  178.8960  148.5440 C   0  0  0  0  0  3  0  0  0  0  0  0
  189.2650  178.4880  149.3150 O   0  0  0  0  0  1  0  0  0  0  0  0
  185.4860  178.3710  145.2000 O   0  0  0  0  0  0  0  0  0  0  0  0
  188.7330  177.8460  146.9510 C   0  0  0  0  0  0  0  0  0  0  0  0
  190.9520  175.9990  142.1910 N   0  0  0  0  0  0  0  0  0  0  0  0
  189.2020  176.4130  147.1350 C   0  0  0  0  0  1  0  0  0  0  0  0
  191.1690  177.3800  141.8400 C   0  0  0  0  0  3  0  0  0  0  0  0
  187.5910  177.8880  145.9760 C   0  0  0  0  0  0  0  0  0  0  0  0
  185.9080  177.9800  142.7600 C   0  0  1  0  0  3  0  0  0  0  0  0
  188.3210  178.4270  148.2980 C   0  0  0  0  0  0  0  0  0  0  0  0
  186.0090  178.9020  147.5190 C   0  0  0  0  0  3  0  0  0  0  0  0
  187.6180  178.4050  141.0270 C   0  0  0  0  0  2  0  0  0  0  0  0
  187.5300  177.5480  144.6940 C   0  0  0  0  0  0  0  0  0  0  0  0
  189.7680  175.5410  142.5020 C   0  0  0  0  0  3  0  0  0  0  0  0
  186.2970  178.4200  146.3180 C   0  0  1  0  0  3  0  0  0  0  0  0
  190.1340  178.1670  141.5290 C   0  0  0  0  0  3  0  0  0  0  0  0
  188.7800  177.5270  141.4980 C   0  0  1  0  0  3  0  0  0  0  0  0
  188.5900  176.4740  142.6070 C   0  0  2  0  0  3  0  0  0  0  0  0
  181.7390  178.7700  142.0640 C   0  0  0  0  0  3  0  0  0  0  0  0
  184.4560  178.2740  142.5320 C   0  0  0  0  0  0  0  0  0  0  0  0
  183.9040  178.0320  141.2690 C   0  0  0  0  0  3  0  0  0  0  0  0
  182.5490  178.2810  141.0340 C   0  0  0  0  0  3  0  0  0  0  0  0
  182.2820  179.0080  143.3280 C   0  0  0  0  0  3  0  0  0  0  0  0
  183.6380  178.7600  143.5640 C   0  0  0  0  0  3  0  0  0  0  0  0
  1 12  1  0  0  0  0
  2 16  1  0  0  0  0
  2  6  1  0  0  0  0
  3 16  1  0  0  0  0
  6 18  1  0  0  0  0
  7  9  1  0  0  0  0
  7 13  2  0  0  0  0
  8 17  2  0  0  0  0
 10  8  1  0  0  0  0
 11 18  1  0  0  0  0
 11  7  1  0  0  0  0
 12 23  1  1  0  0  0
 12  2  1  0  0  0  0
 13  4  1  0  0  0  0
 13  5  1  0  0  0  0
 14  4  2  0  0  0  0
 15  1  1  0  0  0  0
 16 11  2  0  0  0  0
 18 14  1  6  0  0  0
 19 10  2  0  0  0  0
 20 15  1  1  0  0  0
 20 19  1  0  0  0  0
 20 21  1  0  0  0  0
 21 17  1  1  0  0  0
 21  3  1  0  0  0  0
 22 26  1  0  0  0  0
 23 27  1  0  0  0  0
 24 23  2  0  0  0  0
 25 24  1  0  0  0  0
 25 22  2  0  0  0  0
 26 27  2  0  0  0  0
M  END
>  <MODEL>
5

>  <REMARK>
 VINA RESULT:      -8.3      3.264      5.940
  Name = 
  1 active torsions:
  status: ('A' for Active; 'I' for Inactive)
    1  A    between atoms: C_9  and  C_15
                            x       y       z     vdW  Elec       q    Type
                         _______ _______ _______ _____ _____    ______ ____

>  <TORSDO>
F 1

$$$$
=
 OpenBabel10262420003D

 27 31  0  0  1  0  0  0  0  0999 V2000
  189.1650  176.1730  142.4920 C   0  0  0  0  0  2  0  0  0  0  0  0
  187.7340  178.0830  143.0060 N   0  0  0  0  0  0  0  0  0  0  0  0
  187.6710  178.1790  140.4620 N   0  0  0  0  0  2  0  0  0  0  0  0
  183.1550  178.3220  143.0300 C   0  0  0  0  0  3  0  0  0  0  0  0
  182.1040  178.4990  140.9310 O   0  0  0  0  0  1  0  0  0  0  0  0
  186.7620  178.0500  143.9860 O   0  0  0  0  0  0  0  0  0  0  0  0
  184.6100  178.4340  140.9690 C   0  0  1  0  0  3  0  0  0  0  0  0
  189.1440  178.1400  137.7520 N   0  0  0  0  0  0  0  0  0  0  0  0
  184.7480  179.7210  140.1730 C   0  0  0  0  0  1  0  0  0  0  0  0
  189.0370  176.7060  137.8550 C   0  0  0  0  0  3  0  0  0  0  0  0
  185.7440  178.3140  141.9460 C   0  0  0  0  0  0  0  0  0  0  0  0
  189.0730  177.5340  143.1660 C   0  0  1  0  0  3  0  0  0  0  0  0
  183.2660  178.4190  141.6880 C   0  0  0  0  0  0  0  0  0  0  0  0
  184.3320  178.2040  143.9230 C   0  0  0  0  0  3  0  0  0  0  0  0
  190.2290  176.2270  141.4150 C   0  0  0  0  0  2  0  0  0  0  0  0
  187.0540  178.2260  141.7520 C   0  0  0  0  0  0  0  0  0  0  0  0
  189.2230  178.9080  138.8070 C   0  0  0  0  0  3  0  0  0  0  0  0
  185.5350  178.2010  143.3680 C   0  0  0  0  0  0  0  0  0  0  0  0
  189.3150  176.0920  139.0100 C   0  0  0  0  0  3  0  0  0  0  0  0
  189.8010  176.9520  140.1360 C   0  0  1  0  0  3  0  0  0  0  0  0
  189.0990  178.3220  140.1890 C   0  0  2  0  0  3  0  0  0  0  0  0
  190.2260  177.3880  147.3060 C   0  0  0  0  0  3  0  0  0  0  0  0
  189.4980  177.4860  144.6030 C   0  0  0  0  0  0  0  0  0  0  0  0
  188.6430  178.0060  145.5810 C   0  0  0  0  0  3  0  0  0  0  0  0
  189.0070  177.9590  146.9300 C   0  0  0  0  0  3  0  0  0  0  0  0
  191.0820  176.8620  146.3340 C   0  0  0  0  0  3  0  0  0  0  0  0
  190.7190  176.9090  144.9850 C   0  0  0  0  0  3  0  0  0  0  0  0
  1 12  1  0  0  0  0
  2 12  1  0  0  0  0
  2  6  1  0  0  0  0
  3 16  1  0  0  0  0
  4 14  1  0  0  0  0
  5 13  1  0  0  0  0
  7  9  1  1  0  0  0
  7 13  1  0  0  0  0
  7 11  1  0  0  0  0
  8 10  1  0  0  0  0
  8 17  2  0  0  0  0
 10 19  2  0  0  0  0
 11 18  1  0  0  0  0
 12 23  1  1  0  0  0
 13  4  2  0  0  0  0
 15  1  1  0  0  0  0
 16 11  2  0  0  0  0
 16  2  1  0  0  0  0
 18 14  2  0  0  0  0
 18  6  1  0  0  0  0
 20 19  1  1  0  0  0
 20 21  1  0  0  0  0
 20 15  1  0  0  0  0
 21 17  1  6  0  0  0
 21  3  1  0  0  0  0
 23 27  2  0  0  0  0
 23 24  1  0  0  0  0
 24 25  2  0  0  0  0
 25 22  1  0  0  0  0
 26 22  2  0  0  0  0
 27 26  1  0  0  0  0
M  END
>  <MODEL>
6

>  <REMARK>
 VINA RESULT:      -7.5      2.490      6.514
  Name = 
  1 active torsions:
  status: ('A' for Active; 'I' for Inactive)
    1  A    between atoms: C_9  and  C_15
                            x       y       z     vdW  Elec       q    Type
                         _______ _______ _______ _____ _____    ______ ____

>  <TORSDO>
F 1

$$$$
=
 OpenBabel10262420003D

 27 31  0  0  1  0  0  0  0  0999 V2000
  189.4290  178.6040  140.0190 C   0  0  0  0  0  2  0  0  0  0  0  0
  187.3210  177.6600  140.8100 N   0  0  0  0  0  0  0  0  0  0  0  0
  188.8060  177.1110  142.8050 N   0  0  0  0  0  2  0  0  0  0  0  0
  184.2660  179.4730  143.7080 C   0  0  0  0  0  3  0  0  0  0  0  0
  184.8060  179.3750  145.9970 O   0  0  0  0  0  1  0  0  0  0  0  0
  186.1090  178.3070  140.6690 O   0  0  0  0  0  0  0  0  0  0  0  0
  186.4160  178.3340  144.3820 C   0  0  0  0  0  0  0  0  0  0  0  0
  191.4370  175.9710  143.9400 N   0  0  0  0  0  0  0  0  0  0  0  0
  186.4070  176.9920  145.0920 C   0  0  0  0  0  1  0  0  0  0  0  0
  191.9620  177.2960  143.7160 C   0  0  0  0  0  3  0  0  0  0  0  0
  186.5940  178.1290  142.9050 C   0  0  0  0  0  0  0  0  0  0  0  0
  188.3310  177.5820  139.7640 C   0  0  1  0  0  3  0  0  0  0  0  0
  185.1200  179.0790  144.6770 C   0  0  0  0  0  0  0  0  0  0  0  0
  184.5220  179.2310  142.2690 C   0  0  0  0  0  3  0  0  0  0  0  0
  190.7490  177.8790  140.1790 C   0  0  0  0  0  2  0  0  0  0  0  0
  187.5930  177.5920  142.2160 C   0  0  0  0  0  0  0  0  0  0  0  0
  190.4860  175.4680  143.1990 C   0  0  0  0  0  3  0  0  0  0  0  0
  185.6360  178.5960  141.9350 C   0  0  1  0  0  3  0  0  0  0  0  0
  191.7090  177.9350  142.5690 C   0  0  0  0  0  3  0  0  0  0  0  0
  190.9320  177.1850  141.5320 C   0  0  1  0  0  3  0  0  0  0  0  0
  189.8220  176.3030  142.1350 C   0  0  2  0  0  3  0  0  0  0  0  0
  186.6960  177.9710  135.8060 C   0  0  0  0  0  3  0  0  0  0  0  0
  187.7390  177.7140  138.3930 C   0  0  0  0  0  0  0  0  0  0  0  0
  188.3100  178.6190  137.4910 C   0  0  0  0  0  3  0  0  0  0  0  0
  187.7880  178.7490  136.2000 C   0  0  0  0  0  3  0  0  0  0  0  0
  186.1250  177.0620  136.7000 C   0  0  0  0  0  3  0  0  0  0  0  0
  186.6460  176.9310  137.9910 C   0  0  0  0  0  3  0  0  0  0  0  0
  1 15  1  0  0  0  0
  2 16  1  0  0  0  0
  4 13  1  0  0  0  0
  6  2  1  0  0  0  0
  6 18  1  0  0  0  0
  7 13  2  0  0  0  0
  7  9  1  0  0  0  0
 10  8  1  0  0  0  0
 11  7  1  0  0  0  0
 12 23  1  6  0  0  0
 12  1  1  0  0  0  0
 12  2  1  0  0  0  0
 13  5  1  0  0  0  0
 14  4  2  0  0  0  0
 16  3  1  0  0  0  0
 16 11  2  0  0  0  0
 17  8  2  0  0  0  0
 18 14  1  6  0  0  0
 18 11  1  0  0  0  0
 19 10  2  0  0  0  0
 20 15  1  6  0  0  0
 20 21  1  0  0  0  0
 20 19  1  0  0  0  0
 21  3  1  0  0  0  0
 21 17  1  1  0  0  0
 22 25  2  0  0  0  0
 22 26  1  0  0  0  0
 24 23  2  0  0  0  0
 25 24  1  0  0  0  0
 26 27  2  0  0  0  0
 27 23  1  0  0  0  0
M  END
>  <MODEL>
7

>  <REMARK>
 VINA RESULT:      -7.2      2.356      5.523
  Name = 
  1 active torsions:
  status: ('A' for Active; 'I' for Inactive)
    1  A    between atoms: C_9  and  C_15
                            x       y       z     vdW  Elec       q    Type
                         _______ _______ _______ _____ _____    ______ ____

>  <TORSDO>
F 1

$$$$
=
 OpenBabel10262420003D

 27 31  0  0  1  0  0  0  0  0999 V2000
  183.2090  176.7480  139.0730 C   0  0  0  0  0  2  0  0  0  0  0  0
  184.6120  178.3630  140.2480 N   0  0  0  0  0  0  0  0  0  0  0  0
  182.4160  178.7320  141.4840 N   0  0  0  0  0  2  0  0  0  0  0  0
  186.7100  177.9390  144.3020 C   0  0  0  0  0  3  0  0  0  0  0  0
  185.3590  178.1950  146.2130 O   0  0  0  0  0  1  0  0  0  0  0  0
  185.9020  178.0830  140.6520 O   0  0  0  0  0  0  0  0  0  0  0  0
  184.2670  178.4870  143.9750 C   0  0  0  0  0  0  0  0  0  0  0  0
  179.3690  179.2060  141.4290 N   0  0  0  0  0  0  0  0  0  0  0  0
  183.7160  179.8600  144.3190 C   0  0  0  0  0  1  0  0  0  0  0  0
  179.2720  177.7690  141.3660 C   0  0  0  0  0  3  0  0  0  0  0  0
  184.6030  178.4230  142.5130 C   0  0  0  0  0  0  0  0  0  0  0  0
  184.0670  177.9970  138.9480 C   0  0  1  0  0  3  0  0  0  0  0  0
  185.4950  178.2000  144.8300 C   0  0  0  0  0  0  0  0  0  0  0  0
  186.9530  177.8920  142.8410 C   0  0  0  0  0  3  0  0  0  0  0  0
  181.7960  177.0730  138.6340 C   0  0  0  0  0  2  0  0  0  0  0  0
  183.8340  178.5460  141.4380 C   0  0  0  0  0  0  0  0  0  0  0  0
  180.3880  179.8550  140.9320 C   0  0  0  0  0  3  0  0  0  0  0  0
  185.9290  178.1240  142.0340 C   0  0  1  0  0  3  0  0  0  0  0  0
  180.0640  177.0760  140.5400 C   0  0  0  0  0  3  0  0  0  0  0  0
  180.9800  177.8660  139.6570 C   0  0  1  0  0  3  0  0  0  0  0  0
  181.5640  179.1080  140.3580 C   0  0  2  0  0  3  0  0  0  0  0  0
  187.0810  177.5620  135.9120 C   0  0  0  0  0  3  0  0  0  0  0  0
  185.1340  177.8530  137.9060 C   0  0  0  0  0  0  0  0  0  0  0  0
  185.0270  176.8250  136.9620 C   0  0  0  0  0  3  0  0  0  0  0  0
  185.9990  176.6780  135.9690 C   0  0  0  0  0  3  0  0  0  0  0  0
  187.1900  178.5940  136.8470 C   0  0  0  0  0  3  0  0  0  0  0  0
  186.2190  178.7410  137.8410 C   0  0  0  0  0  3  0  0  0  0  0  0
  2  6  1  0  0  0  0
  2 16  1  0  0  0  0
  4 13  1  0  0  0  0
  6 18  1  0  0  0  0
  7  9  1  0  0  0  0
  7 13  2  0  0  0  0
 10  8  1  0  0  0  0
 11  7  1  0  0  0  0
 12 23  1  6  0  0  0
 12  1  1  0  0  0  0
 12  2  1  0  0  0  0
 13  5  1  0  0  0  0
 14  4  2  0  0  0  0
 15  1  1  0  0  0  0
 16  3  1  0  0  0  0
 16 11  2  0  0  0  0
 17  8  2  0  0  0  0
 18 11  1  0  0  0  0
 18 14  1  1  0  0  0
 19 10  2  0  0  0  0
 20 15  1  1  0  0  0
 20 21  1  0  0  0  0
 20 19  1  0  0  0  0
 21 17  1  1  0  0  0
 21  3  1  0  0  0  0
 22 25  2  0  0  0  0
 22 26  1  0  0  0  0
 24 23  2  0  0  0  0
 25 24  1  0  0  0  0
 26 27  2  0  0  0  0
 27 23  1  0  0  0  0
M  END
>  <MODEL>
8

>  <REMARK>
 VINA RESULT:      -7.1      4.056      8.007
  Name = 
  1 active torsions:
  status: ('A' for Active; 'I' for Inactive)
    1  A    between atoms: C_9  and  C_15
                            x       y       z     vdW  Elec       q    Type
                         _______ _______ _______ _____ _____    ______ ____

>  <TORSDO>
F 1

$$$$
=
 OpenBabel10262420003D

 27 31  0  0  1  0  0  0  0  0999 V2000
  191.0090  174.1940  137.2060 C   0  0  0  0  0  2  0  0  0  0  0  0
  191.3060  176.4320  138.1340 N   0  0  0  0  0  0  0  0  0  0  0  0
  188.7620  176.3360  138.0650 N   0  0  0  0  0  2  0  0  0  0  0  0
  191.0380  177.7910  142.5050 C   0  0  0  0  0  3  0  0  0  0  0  0
  188.8730  178.0520  143.3900 O   0  0  0  0  0  1  0  0  0  0  0  0
  192.2260  176.7190  139.1230 O   0  0  0  0  0  0  0  0  0  0  0  0
  189.0660  177.3760  140.9840 C   0  0  0  0  0  0  0  0  0  0  0  0
  186.1540  175.7180  136.5380 N   0  0  0  0  0  0  0  0  0  0  0  0
  188.1940  178.5210  140.4950 C   0  0  0  0  0  1  0  0  0  0  0  0
  186.3480  174.3670  137.0040 C   0  0  0  0  0  3  0  0  0  0  0  0
  190.1160  177.0600  139.9580 C   0  0  0  0  0  0  0  0  0  0  0  0
  191.5830  175.5850  136.9820 C   0  0  1  0  0  3  0  0  0  0  0  0
  189.7020  177.7500  142.3170 C   0  0  0  0  0  0  0  0  0  0  0  0
  192.0070  177.4600  141.4330 C   0  0  0  0  0  3  0  0  0  0  0  0
  189.9970  173.8980  136.1180 C   0  0  0  0  0  2  0  0  0  0  0  0
  190.0070  176.6370  138.7040 C   0  0  0  0  0  0  0  0  0  0  0  0
  187.1580  176.5250  136.3140 C   0  0  0  0  0  3  0  0  0  0  0  0
  191.5260  177.1160  140.2470 C   0  0  1  0  0  3  0  0  0  0  0  0
  187.5570  173.7980  136.9360 C   0  0  0  0  0  3  0  0  0  0  0  0
  188.6490  174.6000  136.2980 C   0  0  1  0  0  3  0  0  0  0  0  0
  188.5670  176.1010  136.6370 C   0  0  2  0  0  3  0  0  0  0  0  0
  195.7690  175.4160  136.0130 C   0  0  0  0  0  3  0  0  0  0  0  0
  193.0430  175.5500  136.6420 C   0  0  0  0  0  0  0  0  0  0  0  0
  193.8600  174.5940  137.2560 C   0  0  0  0  0  3  0  0  0  0  0  0
  195.2210  174.5280  136.9430 C   0  0  0  0  0  3  0  0  0  0  0  0
  194.9570  176.3690  135.3920 C   0  0  0  0  0  3  0  0  0  0  0  0
  193.5960  176.4350  135.7040 C   0  0  0  0  0  3  0  0  0  0  0  0
  2 16  1  0  0  0  0
  2  6  1  0  0  0  0
  3 16  1  0  0  0  0
  6 18  1  0  0  0  0
  7 13  2  0  0  0  0
  8 10  1  0  0  0  0
  9  7  1  0  0  0  0
 11 18  1  0  0  0  0
 11  7  1  0  0  0  0
 12 23  1  1  0  0  0
 12  1  1  0  0  0  0
 12  2  1  0  0  0  0
 13  4  1  0  0  0  0
 13  5  1  0  0  0  0
 14  4  2  0  0  0  0
 15  1  1  0  0  0  0
 16 11  2  0  0  0  0
 17  8  2  0  0  0  0
 18 14  1  1  0  0  0
 19 10  2  0  0  0  0
 20 15  1  1  0  0  0
 20 21  1  0  0  0  0
 20 19  1  0  0  0  0
 21 17  1  1  0  0  0
 21  3  1  0  0  0  0
 22 25  1  0  0  0  0
 23 24  1  0  0  0  0
 25 24  2  0  0  0  0
 26 27  1  0  0  0  0
 26 22  2  0  0  0  0
 27 23  2  0  0  0  0
M  END
>  <MODEL>
9

>  <REMARK>
 VINA RESULT:      -7.1      3.066      8.100
  Name = 
  1 active torsions:
  status: ('A' for Active; 'I' for Inactive)
    1  A    between atoms: C_9  and  C_15
                            x       y       z     vdW  Elec       q    Type
                         _______ _______ _______ _____ _____    ______ ____

>  <TORSDO>
F 1

$$$$
