=
 OpenBabel10262421523D

 30 31  0  0  1  0  0  0  0  0999 V2000
  187.0150  178.4410  140.5320 N   0  0  0  0  0  0  0  0  0  0  0  0
  185.9440  179.0920  141.2610 C   0  0  1  0  0  3  0  0  0  0  0  0
  189.3680  177.7290  140.2160 N   0  0  0  0  0  2  0  0  0  0  0  0
  184.8310  179.2890  140.2440 C   0  0  0  0  0  2  0  0  0  0  0  0
  186.6410  178.0540  139.1870 C   0  0  0  0  0  2  0  0  0  0  0  0
  185.1680  178.3930  139.0590 C   0  0  0  0  0  2  0  0  0  0  0  0
  188.6390  178.7500  142.1840 O   0  0  0  0  0  0  0  0  0  0  0  0
  188.3540  178.3230  141.0300 C   0  0  0  0  0  0  0  0  0  0  0  0
  190.7410  177.5450  140.6750 C   0  0  1  0  0  3  0  0  0  0  0  0
  190.1040  175.7720  142.1410 O   0  0  0  0  0  0  0  0  0  0  0  0
  190.7770  176.8260  141.9890 C   0  0  0  0  0  0  0  0  0  0  0  0
  191.5430  177.3400  143.0790 N   0  0  0  0  0  1  0  0  0  0  0  0
  193.0340  177.3580  139.6180 C   0  0  0  0  0  1  0  0  0  0  0  0
  191.6050  176.8380  139.6250 C   0  0  2  0  0  3  0  0  0  0  0  0
  190.9530  174.5300  137.9150 O   0  0  0  0  0  0  0  0  0  0  0  0
  191.0110  176.8450  138.2860 N   0  0  0  0  0  2  0  0  0  0  0  0
  190.1990  175.8630  136.1740 N   0  0  0  0  0  1  0  0  0  0  0  0
  190.7390  175.6930  137.4800 C   0  0  0  0  0  0  0  0  0  0  0  0
  185.4650  178.1870  142.3920 C   0  0  0  0  0  2  0  0  0  0  0  0
  185.6640  178.8420  143.6770 N   0  0  0  0  0  0  0  0  0  0  0  0
  184.5480  179.7520  143.8540 C   0  0  0  0  0  1  0  0  0  0  0  0
  185.5400  177.8230  144.7100 C   0  0  0  0  0  2  0  0  0  0  0  0
  189.4210  177.1280  147.0310 C   0  0  0  0  0  0  0  0  0  0  0  0
  188.3100  177.0310  148.0250 C   0  0  0  0  0  2  0  0  0  0  0  0
  190.7310  177.1250  147.4930 O   0  0  0  0  0  1  0  0  0  0  0  0
  186.7630  177.8060  145.5670 C   0  0  0  0  0  0  0  0  0  0  0  0
  187.4030  178.2150  147.9490 C   0  0  0  0  0  3  0  0  0  0  0  0
  189.1980  177.1650  145.7140 C   0  0  0  0  0  3  0  0  0  0  0  0
  186.6970  178.5230  146.8580 C   0  0  0  0  0  3  0  0  0  0  0  0
  187.8730  177.2460  145.0640 C   0  0  0  0  0  3  0  0  0  0  0  0
  1  8  1  0  0  0  0
  1  2  1  0  0  0  0
  2 19  1  1  0  0  0
  3  8  1  0  0  0  0
  4  2  1  0  0  0  0
  5  1  1  0  0  0  0
  6  5  1  0  0  0  0
  6  4  1  0  0  0  0
  8  7  2  0  0  0  0
  9  3  1  6  0  0  0
  9 11  1  0  0  0  0
 11 10  2  0  0  0  0
 11 12  1  0  0  0  0
 14 13  1  6  0  0  0
 14  9  1  0  0  0  0
 16 14  1  0  0  0  0
 17 18  1  0  0  0  0
 18 15  2  0  0  0  0
 18 16  1  0  0  0  0
 19 20  1  0  0  0  0
 20 21  1  0  0  0  0
 20 22  1  0  0  0  0
 22 26  1  0  0  0  0
 23 25  1  0  0  0  0
 23 24  1  0  0  0  0
 26 29  1  0  0  0  0
 27 24  1  0  0  0  0
 28 23  2  0  0  0  0
 29 27  2  0  0  0  0
 30 26  2  0  0  0  0
 30 28  1  0  0  0  0
M  END
>  <MODEL>
1

>  <REMARK>
 VINA RESULT:      -7.8      0.000      0.000
  Name = 
  8 active torsions:
  status: ('A' for Active; 'I' for Inactive)
    1  A    between atoms: C_3  and  N_11
    2  A    between atoms: C_3  and  C_19
    3  A    between atoms: C_4  and  C_8
    4  A    between atoms: C_8  and  C_12
    5  A    between atoms: C_8  and  N_13
    6  A    between atoms: N_9  and  C_12
    7  A    between atoms: C_10  and  C_25
    8  A    between atoms: N_11  and  C_25
                            x       y       z     vdW  Elec       q    Type
                         _______ _______ _______ _____ _____    ______ ____

>  <TORSDO>
F 8

$$$$
=
 OpenBabel10262421523D

 30 31  0  0  1  0  0  0  0  0999 V2000
  190.2530  177.4400  143.1950 N   0  0  0  0  0  0  0  0  0  0  0  0
  189.8370  177.1450  144.5520 C   0  0  1  0  0  3  0  0  0  0  0  0
  189.9770  177.3940  140.7310 N   0  0  0  0  0  2  0  0  0  0  0  0
  191.0890  177.3090  145.3980 C   0  0  0  0  0  2  0  0  0  0  0  0
  191.6110  177.9360  143.1060 C   0  0  0  0  0  2  0  0  0  0  0  0
  192.0920  178.0670  144.5380 C   0  0  0  0  0  2  0  0  0  0  0  0
  188.3110  176.6310  142.1770 O   0  0  0  0  0  0  0  0  0  0  0  0
  189.4600  177.1350  142.0390 C   0  0  0  0  0  0  0  0  0  0  0  0
  189.2090  177.1420  139.5160 C   0  0  1  0  0  3  0  0  0  0  0  0
  187.2960  178.5630  139.6490 O   0  0  0  0  0  0  0  0  0  0  0  0
  188.4180  178.3510  139.1180 C   0  0  0  0  0  0  0  0  0  0  0  0
  188.9110  179.2480  138.1230 N   0  0  0  0  0  1  0  0  0  0  0  0
  189.5090  175.4400  137.6660 C   0  0  0  0  0  1  0  0  0  0  0  0
  190.1000  176.6520  138.3690 C   0  0  2  0  0  3  0  0  0  0  0  0
  192.4740  176.4290  136.6400 O   0  0  0  0  0  0  0  0  0  0  0  0
  191.4920  176.4310  138.7700 N   0  0  0  0  0  2  0  0  0  0  0  0
  193.9020  176.0420  138.4240 N   0  0  0  0  0  1  0  0  0  0  0  0
  192.6110  176.3000  137.8850 C   0  0  0  0  0  0  0  0  0  0  0  0
  188.7710  178.1420  144.9930 C   0  0  0  0  0  2  0  0  0  0  0  0
  187.6840  177.4510  145.6690 N   0  0  0  0  0  0  0  0  0  0  0  0
  188.2240  176.9540  146.9210 C   0  0  0  0  0  1  0  0  0  0  0  0
  186.6790  178.4470  146.0130 C   0  0  0  0  0  2  0  0  0  0  0  0
  183.6860  178.6440  142.5580 C   0  0  0  0  0  0  0  0  0  0  0  0
  183.1880  179.5880  143.6040 C   0  0  0  0  0  2  0  0  0  0  0  0
  182.8760  178.3760  141.4630 O   0  0  0  0  0  1  0  0  0  0  0  0
  185.5530  178.4040  145.0340 C   0  0  0  0  0  0  0  0  0  0  0  0
  183.1100  178.9290  144.9430 C   0  0  0  0  0  3  0  0  0  0  0  0
  184.9020  178.0930  142.6170 C   0  0  0  0  0  3  0  0  0  0  0  0
  184.1780  178.4410  145.5770 C   0  0  0  0  0  3  0  0  0  0  0  0
  185.8540  178.2170  143.7400 C   0  0  0  0  0  3  0  0  0  0  0  0
  1  2  1  0  0  0  0
  2 19  1  1  0  0  0
  2  4  1  0  0  0  0
  3  8  1  0  0  0  0
  5  1  1  0  0  0  0
  5  6  1  0  0  0  0
  6  4  1  0  0  0  0
  8  7  2  0  0  0  0
  8  1  1  0  0  0  0
  9 11  1  6  0  0  0
  9  3  1  0  0  0  0
 11 10  2  0  0  0  0
 12 11  1  0  0  0  0
 14 13  1  1  0  0  0
 14 16  1  0  0  0  0
 14  9  1  0  0  0  0
 15 18  2  0  0  0  0
 18 17  1  0  0  0  0
 18 16  1  0  0  0  0
 19 20  1  0  0  0  0
 20 22  1  0  0  0  0
 20 21  1  0  0  0  0
 23 28  2  0  0  0  0
 23 24  1  0  0  0  0
 24 27  1  0  0  0  0
 25 23  1  0  0  0  0
 26 29  1  0  0  0  0
 26 22  1  0  0  0  0
 27 29  2  0  0  0  0
 28 30  1  0  0  0  0
 30 26  2  0  0  0  0
M  END
>  <MODEL>
2

>  <REMARK>
 VINA RESULT:      -7.7      2.155      4.898
  Name = 
  8 active torsions:
  status: ('A' for Active; 'I' for Inactive)
    1  A    between atoms: C_3  and  N_11
    2  A    between atoms: C_3  and  C_19
    3  A    between atoms: C_4  and  C_8
    4  A    between atoms: C_8  and  C_12
    5  A    between atoms: C_8  and  N_13
    6  A    between atoms: N_9  and  C_12
    7  A    between atoms: C_10  and  C_25
    8  A    between atoms: N_11  and  C_25
                            x       y       z     vdW  Elec       q    Type
                         _______ _______ _______ _____ _____    ______ ____

>  <TORSDO>
F 8

$$$$
=
 OpenBabel10262421523D

 30 31  0  0  1  0  0  0  0  0999 V2000
  186.6000  178.4750  140.3720 N   0  0  0  0  0  0  0  0  0  0  0  0
  185.6890  179.0340  141.3520 C   0  0  1  0  0  3  0  0  0  0  0  0
  188.8520  177.8800  139.5240 N   0  0  0  0  0  2  0  0  0  0  0  0
  184.3830  179.2510  140.6040 C   0  0  0  0  0  2  0  0  0  0  0  0
  185.9620  178.1600  139.1100 C   0  0  0  0  0  2  0  0  0  0  0  0
  184.4870  178.4470  139.3150 C   0  0  0  0  0  2  0  0  0  0  0  0
  188.5260  178.7430  141.6680 O   0  0  0  0  0  0  0  0  0  0  0  0
  188.0170  178.3800  140.5710 C   0  0  0  0  0  0  0  0  0  0  0  0
  190.2950  177.7230  139.6740 C   0  0  1  0  0  3  0  0  0  0  0  0
  190.0290  175.9810  141.2840 O   0  0  0  0  0  0  0  0  0  0  0  0
  190.6310  177.0400  140.9650 C   0  0  0  0  0  0  0  0  0  0  0  0
  191.6050  177.5940  141.8490 N   0  0  0  0  0  1  0  0  0  0  0  0
  189.9710  175.9690  137.8770 C   0  0  0  0  0  1  0  0  0  0  0  0
  190.9180  176.9960  138.4770 C   0  0  2  0  0  3  0  0  0  0  0  0
  193.0840  176.3720  136.5810 O   0  0  0  0  0  0  0  0  0  0  0  0
  192.2360  176.4250  138.7670 N   0  0  0  0  0  2  0  0  0  0  0  0
  194.4660  175.5170  138.2350 N   0  0  0  0  0  1  0  0  0  0  0  0
  193.2480  176.1120  137.8020 C   0  0  0  0  0  0  0  0  0  0  0  0
  185.4830  178.0410  142.4900 C   0  0  0  0  0  2  0  0  0  0  0  0
  185.9210  178.6220  143.7500 N   0  0  0  0  0  0  0  0  0  0  0  0
  184.8280  179.4510  144.2250 C   0  0  0  0  0  1  0  0  0  0  0  0
  186.0670  177.5340  144.7060 C   0  0  0  0  0  2  0  0  0  0  0  0
  190.3650  177.0400  146.1950 C   0  0  0  0  0  0  0  0  0  0  0  0
  189.4770  176.7320  147.3560 C   0  0  0  0  0  2  0  0  0  0  0  0
  191.7340  177.1330  146.4100 O   0  0  0  0  0  1  0  0  0  0  0  0
  187.4270  177.5660  145.3210 C   0  0  0  0  0  0  0  0  0  0  0  0
  188.4720  177.8150  147.5800 C   0  0  0  0  0  3  0  0  0  0  0  0
  189.8920  177.1770  144.9530 C   0  0  0  0  0  3  0  0  0  0  0  0
  187.5470  178.1470  146.6760 C   0  0  0  0  0  3  0  0  0  0  0  0
  188.4660  177.1780  144.5660 C   0  0  0  0  0  3  0  0  0  0  0  0
  1  8  1  0  0  0  0
  1  2  1  0  0  0  0
  2 19  1  1  0  0  0
  3  8  1  0  0  0  0
  4  2  1  0  0  0  0
  5  6  1  0  0  0  0
  5  1  1  0  0  0  0
  6  4  1  0  0  0  0
  8  7  2  0  0  0  0
  9  3  1  6  0  0  0
  9 11  1  0  0  0  0
 11 10  2  0  0  0  0
 11 12  1  0  0  0  0
 14 13  1  1  0  0  0
 14 16  1  0  0  0  0
 14  9  1  0  0  0  0
 15 18  2  0  0  0  0
 18 17  1  0  0  0  0
 18 16  1  0  0  0  0
 19 20  1  0  0  0  0
 20 21  1  0  0  0  0
 20 22  1  0  0  0  0
 22 26  1  0  0  0  0
 23 25  1  0  0  0  0
 23 24  1  0  0  0  0
 24 27  1  0  0  0  0
 26 29  1  0  0  0  0
 28 23  2  0  0  0  0
 29 27  2  0  0  0  0
 30 28  1  0  0  0  0
 30 26  2  0  0  0  0
M  END
>  <MODEL>
3

>  <REMARK>
 VINA RESULT:      -7.6      1.270      1.588
  Name = 
  8 active torsions:
  status: ('A' for Active; 'I' for Inactive)
    1  A    between atoms: C_3  and  N_11
    2  A    between atoms: C_3  and  C_19
    3  A    between atoms: C_4  and  C_8
    4  A    between atoms: C_8  and  C_12
    5  A    between atoms: C_8  and  N_13
    6  A    between atoms: N_9  and  C_12
    7  A    between atoms: C_10  and  C_25
    8  A    between atoms: N_11  and  C_25
                            x       y       z     vdW  Elec       q    Type
                         _______ _______ _______ _____ _____    ______ ____

>  <TORSDO>
F 8

$$$$
=
 OpenBabel10262421523D

 30 31  0  0  1  0  0  0  0  0999 V2000
  188.5630  177.3480  144.5880 N   0  0  0  0  0  0  0  0  0  0  0  0
  187.5510  177.3050  145.6250 C   0  0  1  0  0  3  0  0  0  0  0  0
  189.3430  177.1680  142.2410 N   0  0  0  0  0  2  0  0  0  0  0  0
  188.3210  177.1780  146.9290 C   0  0  0  0  0  2  0  0  0  0  0  0
  189.9140  177.4250  145.1070 C   0  0  0  0  0  2  0  0  0  0  0  0
  189.7670  177.5390  146.6120 C   0  0  0  0  0  2  0  0  0  0  0  0
  187.0820  177.0430  142.8060 O   0  0  0  0  0  0  0  0  0  0  0  0
  188.2750  177.1830  143.1930 C   0  0  0  0  0  0  0  0  0  0  0  0
  189.1170  177.0400  140.8060 C   0  0  1  0  0  3  0  0  0  0  0  0
  188.8240  179.4060  140.6660 O   0  0  0  0  0  0  0  0  0  0  0  0
  188.4660  178.2710  140.2510 C   0  0  0  0  0  0  0  0  0  0  0  0
  187.4250  178.1690  139.2800 N   0  0  0  0  0  1  0  0  0  0  0  0
  191.6050  177.4670  140.5960 C   0  0  0  0  0  1  0  0  0  0  0  0
  190.4080  176.7010  140.0520 C   0  0  2  0  0  3  0  0  0  0  0  0
  190.8610  174.6470  137.9900 O   0  0  0  0  0  0  0  0  0  0  0  0
  190.2840  176.8370  138.5990 N   0  0  0  0  0  2  0  0  0  0  0  0
  190.4220  176.1100  136.2460 N   0  0  0  0  0  1  0  0  0  0  0  0
  190.5440  175.8120  137.6320 C   0  0  0  0  0  0  0  0  0  0  0  0
  186.7470  178.6010  145.6160 C   0  0  0  0  0  2  0  0  0  0  0  0
  185.3290  178.3120  145.4610 N   0  0  0  0  0  0  0  0  0  0  0  0
  184.7680  178.2680  146.7980 C   0  0  0  0  0  1  0  0  0  0  0  0
  184.7210  179.4520  144.7890 C   0  0  0  0  0  2  0  0  0  0  0  0
  182.1070  178.3890  141.1870 C   0  0  0  0  0  0  0  0  0  0  0  0
  181.2980  179.3110  142.0400 C   0  0  0  0  0  2  0  0  0  0  0  0
  181.4940  177.7720  140.1050 O   0  0  0  0  0  1  0  0  0  0  0  0
  183.7370  178.9840  143.7680 C   0  0  0  0  0  0  0  0  0  0  0  0
  181.2590  178.8480  143.4600 C   0  0  0  0  0  3  0  0  0  0  0  0
  183.4100  178.1820  141.4000 C   0  0  0  0  0  3  0  0  0  0  0  0
  182.3500  178.7430  144.2220 C   0  0  0  0  0  3  0  0  0  0  0  0
  184.1940  178.7020  142.5400 C   0  0  0  0  0  3  0  0  0  0  0  0
  1  5  1  0  0  0  0
  1  2  1  0  0  0  0
  2 19  1  1  0  0  0
  2  4  1  0  0  0  0
  3  8  1  0  0  0  0
  5  6  1  0  0  0  0
  6  4  1  0  0  0  0
  7  8  2  0  0  0  0
  8  1  1  0  0  0  0
  9 11  1  6  0  0  0
  9  3  1  0  0  0  0
 11 10  2  0  0  0  0
 12 11  1  0  0  0  0
 14 13  1  1  0  0  0
 14  9  1  0  0  0  0
 16 14  1  0  0  0  0
 17 18  1  0  0  0  0
 18 15  2  0  0  0  0
 18 16  1  0  0  0  0
 20 19  1  0  0  0  0
 20 21  1  0  0  0  0
 22 20  1  0  0  0  0
 23 28  2  0  0  0  0
 23 24  1  0  0  0  0
 24 27  1  0  0  0  0
 25 23  1  0  0  0  0
 26 29  1  0  0  0  0
 26 22  1  0  0  0  0
 27 29  2  0  0  0  0
 28 30  1  0  0  0  0
 30 26  2  0  0  0  0
M  END
>  <MODEL>
4

>  <REMARK>
 VINA RESULT:      -7.3      2.253      5.286
  Name = 
  8 active torsions:
  status: ('A' for Active; 'I' for Inactive)
    1  A    between atoms: C_3  and  N_11
    2  A    between atoms: C_3  and  C_19
    3  A    between atoms: C_4  and  C_8
    4  A    between atoms: C_8  and  C_12
    5  A    between atoms: C_8  and  N_13
    6  A    between atoms: N_9  and  C_12
    7  A    between atoms: C_10  and  C_25
    8  A    between atoms: N_11  and  C_25
                            x       y       z     vdW  Elec       q    Type
                         _______ _______ _______ _____ _____    ______ ____

>  <TORSDO>
F 8

$$$$
=
 OpenBabel10262421523D

 30 31  0  0  1  0  0  0  0  0999 V2000
  185.7510  178.5590  141.2820 N   0  0  0  0  0  0  0  0  0  0  0  0
  185.1330  178.9770  142.5250 C   0  0  1  0  0  3  0  0  0  0  0  0
  187.6840  178.2560  139.7580 N   0  0  0  0  0  2  0  0  0  0  0  0
  183.6460  179.0640  142.2210 C   0  0  0  0  0  2  0  0  0  0  0  0
  184.7930  178.2110  140.2520 C   0  0  0  0  0  2  0  0  0  0  0  0
  183.4300  178.3200  140.9100 C   0  0  0  0  0  2  0  0  0  0  0  0
  187.9450  179.0060  141.9530 O   0  0  0  0  0  0  0  0  0  0  0  0
  187.1630  178.6220  141.0390 C   0  0  0  0  0  0  0  0  0  0  0  0
  189.1110  178.2620  139.4570 C   0  0  1  0  0  3  0  0  0  0  0  0
  189.2960  176.2760  140.7690 O   0  0  0  0  0  0  0  0  0  0  0  0
  189.8570  177.3280  140.3610 C   0  0  0  0  0  0  0  0  0  0  0  0
  191.1840  177.6330  140.7870 N   0  0  0  0  0  1  0  0  0  0  0  0
  189.0460  179.1270  137.0780 C   0  0  0  0  0  1  0  0  0  0  0  0
  189.3850  177.9510  137.9810 C   0  0  2  0  0  3  0  0  0  0  0  0
  190.6350  175.3080  137.6240 O   0  0  0  0  0  0  0  0  0  0  0  0
  188.7570  176.7090  137.5240 N   0  0  0  0  0  2  0  0  0  0  0  0
  188.6790  174.3400  136.8430 N   0  0  0  0  0  1  0  0  0  0  0  0
  189.4170  175.4510  137.3390 C   0  0  0  0  0  0  0  0  0  0  0  0
  185.3860  177.9300  143.6050 C   0  0  0  0  0  2  0  0  0  0  0  0
  186.0740  178.5330  144.7370 N   0  0  0  0  0  0  0  0  0  0  0  0
  185.1310  179.4460  145.3560 C   0  0  0  0  0  1  0  0  0  0  0  0
  186.3300  177.4760  145.7060 C   0  0  0  0  0  2  0  0  0  0  0  0
  190.8130  177.1210  146.5490 C   0  0  0  0  0  0  0  0  0  0  0  0
  190.6830  177.8300  145.2410 C   0  0  0  0  0  2  0  0  0  0  0  0
  192.0750  176.7260  146.9710 O   0  0  0  0  0  1  0  0  0  0  0  0
  187.7960  177.2080  145.8010 C   0  0  0  0  0  0  0  0  0  0  0  0
  189.7930  177.0850  144.3010 C   0  0  0  0  0  3  0  0  0  0  0  0
  189.7640  176.9020  147.3480 C   0  0  0  0  0  3  0  0  0  0  0  0
  188.5030  176.8500  144.5520 C   0  0  0  0  0  3  0  0  0  0  0  0
  188.3520  177.1930  147.0210 C   0  0  0  0  0  3  0  0  0  0  0  0
  1  2  1  0  0  0  0
  2 19  1  1  0  0  0
  3  8  1  0  0  0  0
  4  2  1  0  0  0  0
  5  6  1  0  0  0  0
  5  1  1  0  0  0  0
  6  4  1  0  0  0  0
  8  1  1  0  0  0  0
  8  7  2  0  0  0  0
  9  3  1  6  0  0  0
  9 11  1  0  0  0  0
 11 10  2  0  0  0  0
 11 12  1  0  0  0  0
 14 13  1  6  0  0  0
 14  9  1  0  0  0  0
 16 14  1  0  0  0  0
 17 18  1  0  0  0  0
 18 16  1  0  0  0  0
 18 15  2  0  0  0  0
 19 20  1  0  0  0  0
 20 21  1  0  0  0  0
 20 22  1  0  0  0  0
 22 26  1  0  0  0  0
 23 25  1  0  0  0  0
 23 28  2  0  0  0  0
 24 23  1  0  0  0  0
 26 30  2  0  0  0  0
 27 29  2  0  0  0  0
 27 24  1  0  0  0  0
 29 26  1  0  0  0  0
 30 28  1  0  0  0  0
M  END
>  <MODEL>
5

>  <REMARK>
 VINA RESULT:      -7.2      1.569      2.286
  Name = 
  8 active torsions:
  status: ('A' for Active; 'I' for Inactive)
    1  A    between atoms: C_3  and  N_11
    2  A    between atoms: C_3  and  C_19
    3  A    between atoms: C_4  and  C_8
    4  A    between atoms: C_8  and  C_12
    5  A    between atoms: C_8  and  N_13
    6  A    between atoms: N_9  and  C_12
    7  A    between atoms: C_10  and  C_25
    8  A    between atoms: N_11  and  C_25
                            x       y       z     vdW  Elec       q    Type
                         _______ _______ _______ _____ _____    ______ ____

>  <TORSDO>
F 8

$$$$
=
 OpenBabel10262421523D

 30 31  0  0  1  0  0  0  0  0999 V2000
  189.8150  177.3070  139.7530 N   0  0  0  0  0  0  0  0  0  0  0  0
  189.4220  177.7150  138.4180 C   0  0  1  0  0  3  0  0  0  0  0  0
  189.7580  177.4620  142.2260 N   0  0  0  0  0  2  0  0  0  0  0  0
  190.4770  177.1280  137.4940 C   0  0  0  0  0  2  0  0  0  0  0  0
  190.9270  176.3780  139.7640 C   0  0  0  0  0  2  0  0  0  0  0  0
  191.2260  176.0800  138.3080 C   0  0  0  0  0  2  0  0  0  0  0  0
  188.3450  178.7360  140.8740 O   0  0  0  0  0  0  0  0  0  0  0  0
  189.2620  177.8720  140.9490 C   0  0  0  0  0  0  0  0  0  0  0  0
  189.2150  177.9700  143.4820 C   0  0  1  0  0  3  0  0  0  0  0  0
  187.9300  175.9580  143.4410 O   0  0  0  0  0  0  0  0  0  0  0  0
  188.2320  177.0050  144.0730 C   0  0  0  0  0  0  0  0  0  0  0  0
  187.6120  177.2770  145.3290 N   0  0  0  0  0  1  0  0  0  0  0  0
  191.2160  179.4430  143.9690 C   0  0  0  0  0  1  0  0  0  0  0  0
  190.3220  178.3240  144.4810 C   0  0  2  0  0  3  0  0  0  0  0  0
  190.6090  177.2700  147.2160 O   0  0  0  0  0  0  0  0  0  0  0  0
  191.0960  177.1620  144.9250 N   0  0  0  0  0  2  0  0  0  0  0  0
  192.0550  175.5830  146.5580 N   0  0  0  0  0  1  0  0  0  0  0  0
  191.2280  176.7050  146.2760 C   0  0  0  0  0  0  0  0  0  0  0  0
  188.0520  177.1370  138.0830 C   0  0  0  0  0  2  0  0  0  0  0  0
  187.1100  178.2090  137.7970 N   0  0  0  0  0  0  0  0  0  0  0  0
  187.6980  179.0020  136.7340 C   0  0  0  0  0  1  0  0  0  0  0  0
  185.9080  177.5980  137.2470 C   0  0  0  0  0  2  0  0  0  0  0  0
  182.8700  178.2710  140.6020 C   0  0  0  0  0  0  0  0  0  0  0  0
  182.6710  176.8690  140.1250 C   0  0  0  0  0  2  0  0  0  0  0  0
  181.9620  178.8020  141.5080 O   0  0  0  0  0  1  0  0  0  0  0  0
  184.7540  177.8080  138.1710 C   0  0  0  0  0  0  0  0  0  0  0  0
  182.5080  176.8130  138.6410 C   0  0  0  0  0  3  0  0  0  0  0  0
  183.9180  179.0090  140.2250 C   0  0  0  0  0  3  0  0  0  0  0  0
  183.4590  177.2030  137.7890 C   0  0  0  0  0  3  0  0  0  0  0  0
  184.9310  178.6240  139.2200 C   0  0  0  0  0  3  0  0  0  0  0  0
  1  5  1  0  0  0  0
  1  8  1  0  0  0  0
  2 19  1  6  0  0  0
  2  1  1  0  0  0  0
  4  6  1  0  0  0  0
  4  2  1  0  0  0  0
  6  5  1  0  0  0  0
  7  8  2  0  0  0  0
  8  3  1  0  0  0  0
  9  3  1  6  0  0  0
  9 11  1  0  0  0  0
  9 14  1  0  0  0  0
 10 11  2  0  0  0  0
 11 12  1  0  0  0  0
 14 13  1  6  0  0  0
 14 16  1  0  0  0  0
 16 18  1  0  0  0  0
 18 17  1  0  0  0  0
 18 15  2  0  0  0  0
 20 19  1  0  0  0  0
 21 20  1  0  0  0  0
 22 20  1  0  0  0  0
 22 26  1  0  0  0  0
 23 25  1  0  0  0  0
 24 23  1  0  0  0  0
 26 30  2  0  0  0  0
 27 24  1  0  0  0  0
 28 23  2  0  0  0  0
 29 26  1  0  0  0  0
 29 27  2  0  0  0  0
 30 28  1  0  0  0  0
M  END
>  <MODEL>
6

>  <REMARK>
 VINA RESULT:      -7.2      2.523      6.893
  Name = 
  8 active torsions:
  status: ('A' for Active; 'I' for Inactive)
    1  A    between atoms: C_3  and  N_11
    2  A    between atoms: C_3  and  C_19
    3  A    between atoms: C_4  and  C_8
    4  A    between atoms: C_8  and  C_12
    5  A    between atoms: C_8  and  N_13
    6  A    between atoms: N_9  and  C_12
    7  A    between atoms: C_10  and  C_25
    8  A    between atoms: N_11  and  C_25
                            x       y       z     vdW  Elec       q    Type
                         _______ _______ _______ _____ _____    ______ ____

>  <TORSDO>
F 8

$$$$
=
 OpenBabel10262421523D

 30 31  0  0  1  0  0  0  0  0999 V2000
  185.9520  178.1490  144.2130 N   0  0  0  0  0  0  0  0  0  0  0  0
  185.1820  178.1400  142.9850 C   0  0  1  0  0  3  0  0  0  0  0  0
  187.9070  177.5350  145.6100 N   0  0  0  0  0  2  0  0  0  0  0  0
  183.7810  178.5690  143.3890 C   0  0  0  0  0  2  0  0  0  0  0  0
  185.2270  178.6980  145.3410 C   0  0  0  0  0  2  0  0  0  0  0  0
  183.9020  179.1780  144.7800 C   0  0  0  0  0  2  0  0  0  0  0  0
  187.7970  177.0110  143.3380 O   0  0  0  0  0  0  0  0  0  0  0  0
  187.2460  177.5430  144.3420 C   0  0  0  0  0  0  0  0  0  0  0  0
  189.2370  176.9690  145.8020 C   0  0  1  0  0  3  0  0  0  0  0  0
  190.2520  178.9380  144.9110 O   0  0  0  0  0  0  0  0  0  0  0  0
  190.2520  177.6790  144.9570 C   0  0  0  0  0  0  0  0  0  0  0  0
  191.1970  176.9430  144.1820 N   0  0  0  0  0  1  0  0  0  0  0  0
  188.9530  178.0560  148.0710 C   0  0  0  0  0  1  0  0  0  0  0  0
  189.6460  176.9580  147.2780 C   0  0  2  0  0  3  0  0  0  0  0  0
  191.4370  174.6610  147.7200 O   0  0  0  0  0  0  0  0  0  0  0  0
  191.0980  176.9690  147.4780 N   0  0  0  0  0  2  0  0  0  0  0  0
  193.3170  175.9990  147.9400 N   0  0  0  0  0  1  0  0  0  0  0  0
  191.9230  175.8230  147.7190 C   0  0  0  0  0  0  0  0  0  0  0  0
  185.7730  179.1420  141.9980 C   0  0  0  0  0  2  0  0  0  0  0  0
  186.2260  178.4560  140.7970 N   0  0  0  0  0  0  0  0  0  0  0  0
  185.3150  178.8380  139.7340 C   0  0  0  0  0  1  0  0  0  0  0  0
  187.5290  179.0040  140.4470 C   0  0  0  0  0  2  0  0  0  0  0  0
  190.6410  176.1900  138.6200 C   0  0  0  0  0  0  0  0  0  0  0  0
  190.0020  176.9130  137.4800 C   0  0  0  0  0  2  0  0  0  0  0  0
  191.5110  175.1440  138.3440 O   0  0  0  0  0  1  0  0  0  0  0  0
  188.3600  177.9660  139.7670 C   0  0  0  0  0  0  0  0  0  0  0  0
  188.5120  176.8290  137.5440 C   0  0  0  0  0  3  0  0  0  0  0  0
  190.4440  176.5510  139.8920 C   0  0  0  0  0  3  0  0  0  0  0  0
  187.7980  177.3350  138.5530 C   0  0  0  0  0  3  0  0  0  0  0  0
  189.5020  177.5890  140.3600 C   0  0  0  0  0  3  0  0  0  0  0  0
  1  8  1  0  0  0  0
  1  5  1  0  0  0  0
  2 19  1  6  0  0  0
  2  4  1  0  0  0  0
  2  1  1  0  0  0  0
  3  9  1  0  0  0  0
  4  6  1  0  0  0  0
  6  5  1  0  0  0  0
  7  8  2  0  0  0  0
  8  3  1  0  0  0  0
  9 11  1  6  0  0  0
  9 14  1  0  0  0  0
 10 11  2  0  0  0  0
 12 11  1  0  0  0  0
 14 16  1  0  0  0  0
 14 13  1  1  0  0  0
 16 18  1  0  0  0  0
 18 15  2  0  0  0  0
 18 17  1  0  0  0  0
 20 19  1  0  0  0  0
 21 20  1  0  0  0  0
 22 20  1  0  0  0  0
 23 28  2  0  0  0  0
 24 27  1  0  0  0  0
 24 23  1  0  0  0  0
 25 23  1  0  0  0  0
 26 30  2  0  0  0  0
 26 22  1  0  0  0  0
 27 29  2  0  0  0  0
 28 30  1  0  0  0  0
 29 26  1  0  0  0  0
M  END
>  <MODEL>
7

>  <REMARK>
 VINA RESULT:      -7.1      2.217      6.847
  Name = 
  8 active torsions:
  status: ('A' for Active; 'I' for Inactive)
    1  A    between atoms: C_3  and  N_11
    2  A    between atoms: C_3  and  C_19
    3  A    between atoms: C_4  and  C_8
    4  A    between atoms: C_8  and  C_12
    5  A    between atoms: C_8  and  N_13
    6  A    between atoms: N_9  and  C_12
    7  A    between atoms: C_10  and  C_25
    8  A    between atoms: N_11  and  C_25
                            x       y       z     vdW  Elec       q    Type
                         _______ _______ _______ _____ _____    ______ ____

>  <TORSDO>
F 8

$$$$
=
 OpenBabel10262421523D

 30 31  0  0  1  0  0  0  0  0999 V2000
  184.3970  178.9220  142.1930 N   0  0  0  0  0  0  0  0  0  0  0  0
  185.6830  179.3120  142.7350 C   0  0  1  0  0  3  0  0  0  0  0  0
  182.7470  178.6750  140.3590 N   0  0  0  0  0  2  0  0  0  0  0  0
  185.4780  179.3780  144.2400 C   0  0  0  0  0  2  0  0  0  0  0  0
  183.4260  178.5740  143.2100 C   0  0  0  0  0  2  0  0  0  0  0  0
  184.1720  178.6490  144.5290 C   0  0  0  0  0  2  0  0  0  0  0  0
  184.9310  179.3980  139.9680 O   0  0  0  0  0  0  0  0  0  0  0  0
  184.0640  179.0130  140.8010 C   0  0  0  0  0  0  0  0  0  0  0  0
  182.3530  178.7100  138.9540 C   0  0  1  0  0  3  0  0  0  0  0  0
  182.6770  177.0150  137.3050 O   0  0  0  0  0  0  0  0  0  0  0  0
  182.1650  177.3250  138.4130 C   0  0  0  0  0  0  0  0  0  0  0  0
  181.3860  176.3650  139.1260 N   0  0  0  0  0  1  0  0  0  0  0  0
  181.2190  180.4250  137.4770 C   0  0  0  0  0  1  0  0  0  0  0  0
  181.1070  179.5730  138.7320 C   0  0  2  0  0  3  0  0  0  0  0  0
  179.2650  178.8450  140.9120 O   0  0  0  0  0  0  0  0  0  0  0  0
  180.7350  180.3690  139.9040 N   0  0  0  0  0  2  0  0  0  0  0  0
  179.5150  180.8850  141.9850 N   0  0  0  0  0  1  0  0  0  0  0  0
  179.8090  179.9800  140.9260 C   0  0  0  0  0  0  0  0  0  0  0  0
  186.7280  178.2550  142.3950 C   0  0  0  0  0  2  0  0  0  0  0  0
  187.4030  177.8080  143.6050 N   0  0  0  0  0  0  0  0  0  0  0  0
  187.3180  176.3590  143.6140 C   0  0  0  0  0  1  0  0  0  0  0  0
  188.8140  178.1420  143.4670 C   0  0  0  0  0  2  0  0  0  0  0  0
  191.3120  176.5970  146.9750 C   0  0  0  0  0  0  0  0  0  0  0  0
  189.8800  176.3960  147.3530 C   0  0  0  0  0  2  0  0  0  0  0  0
  192.2920  176.3700  147.9320 O   0  0  0  0  0  1  0  0  0  0  0  0
  189.5450  177.8250  144.7290 C   0  0  0  0  0  0  0  0  0  0  0  0
  189.0870  177.6500  147.1820 C   0  0  0  0  0  3  0  0  0  0  0  0
  191.6800  176.9380  145.7360 C   0  0  0  0  0  3  0  0  0  0  0  0
  188.9210  178.2500  146.0010 C   0  0  0  0  0  3  0  0  0  0  0  0
  190.7670  177.2830  144.6270 C   0  0  0  0  0  3  0  0  0  0  0  0
  1  2  1  0  0  0  0
  1  5  1  0  0  0  0
  2 19  1  1  0  0  0
  2  4  1  0  0  0  0
  3  8  1  0  0  0  0
  4  6  1  0  0  0  0
  5  6  1  0  0  0  0
  7  8  2  0  0  0  0
  8  1  1  0  0  0  0
  9 11  1  1  0  0  0
  9  3  1  0  0  0  0
 10 11  2  0  0  0  0
 11 12  1  0  0  0  0
 14 13  1  6  0  0  0
 14  9  1  0  0  0  0
 14 16  1  0  0  0  0
 15 18  2  0  0  0  0
 16 18  1  0  0  0  0
 18 17  1  0  0  0  0
 19 20  1  0  0  0  0
 20 21  1  0  0  0  0
 22 20  1  0  0  0  0
 22 26  1  0  0  0  0
 23 24  1  0  0  0  0
 23 25  1  0  0  0  0
 26 29  1  0  0  0  0
 27 24  1  0  0  0  0
 28 23  2  0  0  0  0
 29 27  2  0  0  0  0
 30 26  2  0  0  0  0
 30 28  1  0  0  0  0
M  END
>  <MODEL>
8

>  <REMARK>
 VINA RESULT:      -7.0      3.867      7.050
  Name = 
  8 active torsions:
  status: ('A' for Active; 'I' for Inactive)
    1  A    between atoms: C_3  and  N_11
    2  A    between atoms: C_3  and  C_19
    3  A    between atoms: C_4  and  C_8
    4  A    between atoms: C_8  and  C_12
    5  A    between atoms: C_8  and  N_13
    6  A    between atoms: N_9  and  C_12
    7  A    between atoms: C_10  and  C_25
    8  A    between atoms: N_11  and  C_25
                            x       y       z     vdW  Elec       q    Type
                         _______ _______ _______ _____ _____    ______ ____

>  <TORSDO>
F 8

$$$$
=
 OpenBabel10262421523D

 30 31  0  0  1  0  0  0  0  0999 V2000
  190.4410  177.1000  138.1880 N   0  0  0  0  0  0  0  0  0  0  0  0
  189.7400  177.8000  139.2470 C   0  0  1  0  0  3  0  0  0  0  0  0
  192.4510  176.0760  137.1580 N   0  0  0  0  0  2  0  0  0  0  0  0
  188.4620  178.3160  138.6060 C   0  0  0  0  0  2  0  0  0  0  0  0
  189.6650  176.9760  136.9710 C   0  0  0  0  0  2  0  0  0  0  0  0
  188.3030  177.5600  137.2940 C   0  0  0  0  0  2  0  0  0  0  0  0
  192.4650  176.9040  139.3410 O   0  0  0  0  0  0  0  0  0  0  0  0
  191.8150  176.7000  138.2780 C   0  0  0  0  0  0  0  0  0  0  0  0
  193.8330  175.6120  137.1950 C   0  0  1  0  0  3  0  0  0  0  0  0
  194.7290  173.7200  138.3430 O   0  0  0  0  0  0  0  0  0  0  0  0
  193.9010  174.1450  137.4930 C   0  0  0  0  0  0  0  0  0  0  0  0
  193.0580  173.2230  136.8040 N   0  0  0  0  0  1  0  0  0  0  0  0
  193.6420  176.1630  134.7300 C   0  0  0  0  0  1  0  0  0  0  0  0
  194.5860  175.9570  135.9050 C   0  0  2  0  0  3  0  0  0  0  0  0
  197.4950  176.3770  136.0940 O   0  0  0  0  0  0  0  0  0  0  0  0
  195.6580  175.0100  135.5890 N   0  0  0  0  0  2  0  0  0  0  0  0
  197.9880  174.2620  135.2840 N   0  0  0  0  0  1  0  0  0  0  0  0
  197.0640  175.2730  135.6700 C   0  0  0  0  0  0  0  0  0  0  0  0
  189.4060  176.8280  140.3740 C   0  0  0  0  0  2  0  0  0  0  0  0
  189.4830  177.5050  141.6600 N   0  0  0  0  0  0  0  0  0  0  0  0
  188.5620  178.6240  141.5950 C   0  0  0  0  0  1  0  0  0  0  0  0
  188.9610  176.5910  142.6670 C   0  0  0  0  0  2  0  0  0  0  0  0
  191.1570  176.7950  146.6760 C   0  0  0  0  0  0  0  0  0  0  0  0
  189.6990  176.7280  146.9940 C   0  0  0  0  0  2  0  0  0  0  0  0
  192.0540  177.0350  147.7070 O   0  0  0  0  0  1  0  0  0  0  0  0
  189.5850  176.8730  143.9940 C   0  0  0  0  0  0  0  0  0  0  0  0
  188.9260  177.7580  146.2380 C   0  0  0  0  0  3  0  0  0  0  0  0
  191.6270  176.5790  145.4430 C   0  0  0  0  0  3  0  0  0  0  0  0
  188.8590  177.7850  144.9050 C   0  0  0  0  0  3  0  0  0  0  0  0
  190.8100  176.3810  144.2280 C   0  0  0  0  0  3  0  0  0  0  0  0
  1  8  1  0  0  0  0
  1  2  1  0  0  0  0
  2 19  1  1  0  0  0
  3  8  1  0  0  0  0
  4  2  1  0  0  0  0
  5  6  1  0  0  0  0
  5  1  1  0  0  0  0
  6  4  1  0  0  0  0
  8  7  2  0  0  0  0
  9  3  1  6  0  0  0
  9 11  1  0  0  0  0
 11 10  2  0  0  0  0
 12 11  1  0  0  0  0
 14 13  1  6  0  0  0
 14  9  1  0  0  0  0
 16 18  1  0  0  0  0
 16 14  1  0  0  0  0
 17 18  1  0  0  0  0
 18 15  2  0  0  0  0
 19 20  1  0  0  0  0
 20 22  1  0  0  0  0
 21 20  1  0  0  0  0
 22 26  1  0  0  0  0
 23 24  1  0  0  0  0
 23 25  1  0  0  0  0
 26 30  2  0  0  0  0
 26 29  1  0  0  0  0
 27 24  1  0  0  0  0
 28 23  2  0  0  0  0
 29 27  2  0  0  0  0
 30 28  1  0  0  0  0
M  END
>  <MODEL>
9

>  <REMARK>
 VINA RESULT:      -6.8      3.317      4.784
  Name = 
  8 active torsions:
  status: ('A' for Active; 'I' for Inactive)
    1  A    between atoms: C_3  and  N_11
    2  A    between atoms: C_3  and  C_19
    3  A    between atoms: C_4  and  C_8
    4  A    between atoms: C_8  and  C_12
    5  A    between atoms: C_8  and  N_13
    6  A    between atoms: N_9  and  C_12
    7  A    between atoms: C_10  and  C_25
    8  A    between atoms: N_11  and  C_25
                            x       y       z     vdW  Elec       q    Type
                         _______ _______ _______ _____ _____    ______ ____

>  <TORSDO>
F 8

$$$$
