=
 OpenBabel10262423103D

 34 39  0  0  1  0  0  0  0  0999 V2000
  185.5370  178.7020  142.2320 C   0  0  0  0  0  0  0  0  0  0  0  0
  185.9780  178.2730  138.5930 C   0  0  0  0  0  3  0  0  0  0  0  0
  183.9960  178.5240  139.9330 N   0  0  0  0  0  0  0  0  0  0  0  0
  184.9200  178.9030  144.2810 C   0  0  0  0  0  0  0  0  0  0  0  0
  186.0320  178.7710  143.4910 N   0  0  0  0  0  2  0  0  0  0  0  0
  182.3090  178.9600  143.7840 C   0  0  0  0  0  2  0  0  0  0  0  0
  181.4690  178.8850  142.7210 C   0  0  0  0  0  3  0  0  0  0  0  0
  183.7590  178.9050  143.5120 C   0  0  0  0  0  0  0  0  0  0  0  0
  183.4000  178.6910  141.1500 C   0  0  0  0  0  0  0  0  0  0  0  0
  184.1970  178.7820  142.2540 C   0  0  0  0  0  0  0  0  0  0  0  0
  181.9780  178.7480  141.3620 N   0  0  0  0  0  0  0  0  0  0  0  0
  187.3770  178.1810  138.4810 C   0  0  0  0  0  0  0  0  0  0  0  0
  188.1640  178.2620  139.6470 C   0  0  0  0  0  3  0  0  0  0  0  0
  185.3710  178.4460  139.8380 C   0  0  0  0  0  0  0  0  0  0  0  0
  187.5780  178.4360  140.9040 C   0  0  0  0  0  3  0  0  0  0  0  0
  186.1900  178.5300  141.0100 C   0  0  0  0  0  0  0  0  0  0  0  0
  187.2020  177.9810  135.9990 C   0  0  0  0  0  3  0  0  0  0  0  0
  189.4430  177.8410  137.0820 C   0  0  0  0  0  1  0  0  0  0  0  0
  187.7310  177.8260  134.8650 O   0  0  0  0  0  0  0  0  0  0  0  0
  187.9970  178.0030  137.1910 N   0  0  0  0  0  0  0  0  0  0  0  0
  184.9700  178.9440  145.7770 C   0  0  0  0  0  2  0  0  0  0  0  0
  187.7610  177.7010  148.1460 C   0  0  0  0  0  2  0  0  0  0  0  0
  187.1440  177.7530  145.3520 C   0  0  0  0  0  3  0  0  0  0  0  0
  190.9830  176.7000  146.5580 C   0  0  0  0  0  0  0  0  0  0  0  0
  190.0370  176.9590  147.4690 C   0  0  0  0  0  3  0  0  0  0  0  0
  188.8890  177.8640  147.1330 C   0  0  1  0  0  3  0  0  0  0  0  0
  189.4490  177.2850  144.6450 C   0  0  0  0  0  2  0  0  0  0  0  0
  188.4310  177.6200  145.7060 C   0  0  0  0  0  0  0  0  0  0  0  0
  190.8850  177.3260  145.1900 C   0  0  0  0  0  2  0  0  0  0  0  0
  186.0480  178.0280  146.3550 C   0  0  1  0  0  3  0  0  0  0  0  0
  186.5700  178.5390  147.7010 C   0  0  0  0  0  2  0  0  0  0  0  0
  192.1220  175.8350  146.8980 C   0  0  0  0  0  0  0  0  0  0  0  0
  192.4860  174.9250  146.1070 O   0  0  0  0  0  0  0  0  0  0  0  0
  192.8090  176.0120  148.0940 O   0  0  0  0  0  1  0  0  0  0  0  0
  1 10  2  0  0  0  0
  1  5  1  0  0  0  0
  2 14  1  0  0  0  0
  3  9  2  0  0  0  0
  4 21  1  0  0  0  0
  5  4  1  0  0  0  0
  7  6  1  0  0  0  0
  8  6  1  0  0  0  0
  8  4  2  0  0  0  0
  9 11  1  0  0  0  0
  9 10  1  0  0  0  0
 10  8  1  0  0  0  0
 11  7  2  0  0  0  0
 12  2  2  0  0  0  0
 12 13  1  0  0  0  0
 13 15  2  0  0  0  0
 14  3  1  0  0  0  0
 14 16  2  0  0  0  0
 15 16  1  0  0  0  0
 16  1  1  0  0  0  0
 17 20  1  0  0  0  0
 18 20  1  0  0  0  0
 19 17  2  0  0  0  0
 20 12  1  0  0  0  0
 23 28  2  0  0  0  0
 23 30  1  0  0  0  0
 24 32  1  0  0  0  0
 24 25  2  0  0  0  0
 26 25  1  1  0  0  0
 26 22  1  0  0  0  0
 27 29  1  0  0  0  0
 27 28  1  0  0  0  0
 28 26  1  0  0  0  0
 29 24  1  0  0  0  0
 30 21  1  6  0  0  0
 30 31  1  0  0  0  0
 31 22  1  0  0  0  0
 32 34  1  0  0  0  0
 33 32  2  0  0  0  0
M  END
>  <MODEL>
1

>  <REMARK>
 VINA RESULT:     -12.0      0.000      0.000
  Name = 
  4 active torsions:
  status: ('A' for Active; 'I' for Inactive)
    1  A    between atoms: C_7  and  C_11
    2  A    between atoms: C_8  and  C_18
    3  A    between atoms: C_18  and  C_30
    4  A    between atoms: C_23  and  N_25
                            x       y       z     vdW  Elec       q    Type
                         _______ _______ _______ _____ _____    ______ ____

>  <TORSDO>
F 4

$$$$
=
 OpenBabel10262423103D

 34 39  0  0  1  0  0  0  0  0999 V2000
  187.6790  177.9380  140.9060 C   0  0  0  0  0  0  0  0  0  0  0  0
  189.5220  177.3880  137.7560 C   0  0  0  0  0  3  0  0  0  0  0  0
  187.3010  178.2120  138.1730 N   0  0  0  0  0  0  0  0  0  0  0  0
  186.3130  178.3180  142.5210 C   0  0  0  0  0  0  0  0  0  0  0  0
  187.5780  177.8630  142.2540 N   0  0  0  0  0  2  0  0  0  0  0  0
  184.2950  179.1340  140.9960 C   0  0  0  0  0  2  0  0  0  0  0  0
  184.0120  179.3040  139.6800 C   0  0  0  0  0  3  0  0  0  0  0  0
  185.6460  178.6570  141.3470 C   0  0  0  0  0  0  0  0  0  0  0  0
  186.3040  178.5500  139.0430 C   0  0  0  0  0  0  0  0  0  0  0  0
  186.5360  178.4070  140.3790 C   0  0  0  0  0  0  0  0  0  0  0  0
  185.0030  179.0200  138.6490 N   0  0  0  0  0  0  0  0  0  0  0  0
  190.7520  176.8910  138.2250 C   0  0  0  0  0  0  0  0  0  0  0  0
  190.9460  176.7420  139.6130 C   0  0  0  0  0  3  0  0  0  0  0  0
  188.5060  177.7350  138.6470 C   0  0  0  0  0  0  0  0  0  0  0  0
  189.9420  177.0830  140.5230 C   0  0  0  0  0  3  0  0  0  0  0  0
  188.7260  177.5790  140.0540 C   0  0  0  0  0  0  0  0  0  0  0  0
  193.1750  176.6310  137.6820 C   0  0  0  0  0  3  0  0  0  0  0  0
  191.4680  176.0740  135.9540 C   0  0  0  0  0  1  0  0  0  0  0  0
  194.0980  176.3230  136.8810 O   0  0  0  0  0  0  0  0  0  0  0  0
  191.7970  176.5350  137.2980 N   0  0  0  0  0  0  0  0  0  0  0  0
  185.7180  178.3470  143.8950 C   0  0  0  0  0  2  0  0  0  0  0  0
  187.6110  177.6720  147.1990 C   0  0  0  0  0  2  0  0  0  0  0  0
  187.9530  177.2980  144.3820 C   0  0  0  0  0  3  0  0  0  0  0  0
  191.2100  176.7450  146.9080 C   0  0  0  0  0  0  0  0  0  0  0  0
  190.0080  177.0430  147.4140 C   0  0  0  0  0  3  0  0  0  0  0  0
  189.0030  177.7930  146.5910 C   0  0  1  0  0  3  0  0  0  0  0  0
  190.3770  176.9380  144.5370 C   0  0  0  0  0  2  0  0  0  0  0  0
  189.0540  177.3240  145.1480 C   0  0  0  0  0  0  0  0  0  0  0  0
  191.5490  177.1730  145.5020 C   0  0  0  0  0  2  0  0  0  0  0  0
  186.5770  177.6110  144.9230 C   0  0  1  0  0  3  0  0  0  0  0  0
  186.6040  178.3390  146.2710 C   0  0  0  0  0  2  0  0  0  0  0  0
  192.2040  176.0330  147.7250 C   0  0  0  0  0  0  0  0  0  0  0  0
  192.4880  174.8330  147.4740 O   0  0  0  0  0  0  0  0  0  0  0  0
  192.8370  176.6770  148.7830 O   0  0  0  0  0  1  0  0  0  0  0  0
  1  5  1  0  0  0  0
  2 12  2  0  0  0  0
  2 14  1  0  0  0  0
  3 14  1  0  0  0  0
  3  9  2  0  0  0  0
  4 21  1  0  0  0  0
  5  4  1  0  0  0  0
  6  8  1  0  0  0  0
  7  6  1  0  0  0  0
  8  4  2  0  0  0  0
  9 10  1  0  0  0  0
 10  1  2  0  0  0  0
 10  8  1  0  0  0  0
 11  9  1  0  0  0  0
 11  7  2  0  0  0  0
 12 13  1  0  0  0  0
 13 15  2  0  0  0  0
 14 16  2  0  0  0  0
 16 15  1  0  0  0  0
 16  1  1  0  0  0  0
 18 20  1  0  0  0  0
 19 17  2  0  0  0  0
 20 17  1  0  0  0  0
 20 12  1  0  0  0  0
 23 30  1  0  0  0  0
 23 28  2  0  0  0  0
 24 25  2  0  0  0  0
 24 32  1  0  0  0  0
 26 22  1  1  0  0  0
 26 25  1  0  0  0  0
 27 28  1  0  0  0  0
 27 29  1  0  0  0  0
 28 26  1  0  0  0  0
 29 24  1  0  0  0  0
 30 21  1  6  0  0  0
 30 31  1  0  0  0  0
 31 22  1  0  0  0  0
 32 34  1  0  0  0  0
 33 32  2  0  0  0  0
M  END
>  <MODEL>
2

>  <REMARK>
 VINA RESULT:     -11.0      1.997      2.975
  Name = 
  4 active torsions:
  status: ('A' for Active; 'I' for Inactive)
    1  A    between atoms: C_7  and  C_11
    2  A    between atoms: C_8  and  C_18
    3  A    between atoms: C_18  and  C_30
    4  A    between atoms: C_23  and  N_25
                            x       y       z     vdW  Elec       q    Type
                         _______ _______ _______ _____ _____    ______ ____

>  <TORSDO>
F 4

$$$$
=
 OpenBabel10262423103D

 34 39  0  0  1  0  0  0  0  0999 V2000
  188.9750  177.4380  143.6410 C   0  0  0  0  0  0  0  0  0  0  0  0
  191.6430  176.8280  141.1650 C   0  0  0  0  0  3  0  0  0  0  0  0
  191.6700  176.7850  143.5690 N   0  0  0  0  0  0  0  0  0  0  0  0
  187.6960  177.7830  145.3330 C   0  0  0  0  0  0  0  0  0  0  0  0
  187.7080  177.7880  143.9620 N   0  0  0  0  0  0  0  0  0  0  0  0
  189.5480  177.3270  147.1840 C   0  0  0  0  0  2  0  0  0  0  0  0
  190.8650  177.0070  147.2550 C   0  0  0  0  0  3  0  0  0  0  0  0
  188.9460  177.4430  145.8410 C   0  0  0  0  0  0  0  0  0  0  0  0
  191.0260  176.9230  144.7660 C   0  0  0  0  0  0  0  0  0  0  0  0
  189.6990  177.2370  144.7540 C   0  0  2  0  0  3  0  0  0  0  0  0
  191.6580  176.7900  146.0520 N   0  0  0  0  0  0  0  0  0  0  0  0
  190.9580  177.0200  139.9500 C   0  0  0  0  0  0  0  0  0  0  0  0
  189.5920  177.3600  139.9820 C   0  0  0  0  0  3  0  0  0  0  0  0
  190.9830  176.9670  142.3860 C   0  0  0  0  0  0  0  0  0  0  0  0
  188.9100  177.5050  141.1940 C   0  0  0  0  0  3  0  0  0  0  0  0
  189.5920  177.3090  142.3940 C   0  0  0  0  0  0  0  0  0  0  0  0
  193.0790  176.8360  138.6470 C   0  0  0  0  0  3  0  0  0  0  0  0
  190.8960  176.7640  137.4460 C   0  0  0  0  0  1  0  0  0  0  0  0
  193.6940  176.7090  137.5530 O   0  0  0  0  0  0  0  0  0  0  0  0
  191.6480  176.8740  138.6920 N   0  0  0  0  0  0  0  0  0  0  0  0
  186.5080  178.1860  146.1500 C   0  0  0  0  0  2  0  0  0  0  0  0
  182.9840  179.2450  144.9600 C   0  0  0  0  0  2  0  0  0  0  0  0
  185.5210  178.5100  143.8590 C   0  0  0  0  0  3  0  0  0  0  0  0
  182.2130  178.7360  141.3490 C   0  0  0  0  0  0  0  0  0  0  0  0
  182.0990  179.0540  142.6440 C   0  0  0  0  0  3  0  0  0  0  0  0
  183.0340  178.4600  143.6550 C   0  0  1  0  0  3  0  0  0  0  0  0
  184.6240  178.0530  141.6190 C   0  0  0  0  0  2  0  0  0  0  0  0
  184.4370  178.3700  143.0810 C   0  0  0  0  0  0  0  0  0  0  0  0
  183.2880  177.7720  140.9140 C   0  0  0  0  0  2  0  0  0  0  0  0
  185.4320  178.8850  145.3200 C   0  0  1  0  0  3  0  0  0  0  0  0
  184.0340  178.6890  145.9140 C   0  0  0  0  0  2  0  0  0  0  0  0
  181.2780  179.2980  140.3620 C   0  0  0  0  0  0  0  0  0  0  0  0
  181.3540  178.9580  139.1520 O   0  0  0  0  0  0  0  0  0  0  0  0
  180.3030  180.2080  140.7550 O   0  0  0  0  0  1  0  0  0  0  0  0
  1  5  2  0  0  0  0
  2 14  1  0  0  0  0
  3  9  2  0  0  0  0
  4  8  2  0  0  0  0
  4 21  1  0  0  0  0
  5  4  1  0  0  0  0
  6  7  1  0  0  0  0
  8  6  1  0  0  0  0
  9 11  1  0  0  0  0
 10  1  1  6  0  0  0
 10  9  1  0  0  0  0
 10  8  1  0  0  0  0
 11  7  2  0  0  0  0
 12 13  1  0  0  0  0
 12  2  2  0  0  0  0
 13 15  2  0  0  0  0
 14 16  2  0  0  0  0
 14  3  1  0  0  0  0
 15 16  1  0  0  0  0
 16  1  1  0  0  0  0
 17 20  1  0  0  0  0
 18 20  1  0  0  0  0
 19 17  2  0  0  0  0
 20 12  1  0  0  0  0
 22 31  1  0  0  0  0
 23 30  1  0  0  0  0
 24 25  2  0  0  0  0
 26 25  1  6  0  0  0
 26 22  1  0  0  0  0
 27 28  1  0  0  0  0
 28 26  1  0  0  0  0
 28 23  2  0  0  0  0
 29 24  1  0  0  0  0
 29 27  1  0  0  0  0
 30 31  1  0  0  0  0
 30 21  1  1  0  0  0
 32 34  1  0  0  0  0
 32 24  1  0  0  0  0
 33 32  2  0  0  0  0
M  END
>  <MODEL>
3

>  <REMARK>
 VINA RESULT:     -11.0      3.420      7.273
  Name = 
  4 active torsions:
  status: ('A' for Active; 'I' for Inactive)
    1  A    between atoms: C_7  and  C_11
    2  A    between atoms: C_8  and  C_18
    3  A    between atoms: C_18  and  C_30
    4  A    between atoms: C_23  and  N_25
                            x       y       z     vdW  Elec       q    Type
                         _______ _______ _______ _____ _____    ______ ____

>  <TORSDO>
F 4

$$$$
=
 OpenBabel10262423103D

 34 39  0  0  1  0  0  0  0  0999 V2000
  187.8310  177.7500  143.8190 C   0  0  0  0  0  0  0  0  0  0  0  0
  190.9760  176.8830  142.0930 C   0  0  0  0  0  3  0  0  0  0  0  0
  190.4210  176.9700  144.4320 N   0  0  0  0  0  0  0  0  0  0  0  0
  186.2040  178.2450  145.1320 C   0  0  0  0  0  0  0  0  0  0  0  0
  186.5460  178.1750  143.8070 N   0  0  0  0  0  0  0  0  0  0  0  0
  187.5260  177.8050  147.3960 C   0  0  0  0  0  2  0  0  0  0  0  0
  188.7660  177.4280  147.7990 C   0  0  0  0  0  3  0  0  0  0  0  0
  187.2730  177.8760  145.9440 C   0  0  0  0  0  0  0  0  0  0  0  0
  189.5170  177.2010  145.4290 C   0  0  0  0  0  0  0  0  0  0  0  0
  188.2520  177.5760  145.0820 C   0  0  2  0  0  3  0  0  0  0  0  0
  189.8120  177.1100  146.8340 N   0  0  0  0  0  0  0  0  0  0  0  0
  190.6160  177.0400  140.7420 C   0  0  0  0  0  0  0  0  0  0  0  0
  189.3040  177.4450  140.4260 C   0  0  0  0  0  3  0  0  0  0  0  0
  190.0510  177.1190  143.1110 C   0  0  0  0  0  0  0  0  0  0  0  0
  188.3610  177.6860  141.4280 C   0  0  0  0  0  3  0  0  0  0  0  0
  188.7210  177.5250  142.7660 C   0  0  0  0  0  0  0  0  0  0  0  0
  192.9580  177.1330  139.8830 C   0  0  0  0  0  3  0  0  0  0  0  0
  191.1600  176.1980  138.4330 C   0  0  0  0  0  1  0  0  0  0  0  0
  193.8100  176.9240  138.9770 O   0  0  0  0  0  0  0  0  0  0  0  0
  191.5790  176.7950  139.6970 N   0  0  0  0  0  0  0  0  0  0  0  0
  184.8790  178.7460  145.6180 C   0  0  0  0  0  2  0  0  0  0  0  0
  181.8610  179.0580  143.2220 C   0  0  0  0  0  2  0  0  0  0  0  0
  184.7160  179.2360  143.1570 C   0  0  0  0  0  3  0  0  0  0  0  0
  182.6140  179.0710  139.5710 C   0  0  0  0  0  0  0  0  0  0  0  0
  181.9570  179.0930  140.7370 C   0  0  0  0  0  3  0  0  0  0  0  0
  182.6120  178.5800  141.9860 C   0  0  1  0  0  3  0  0  0  0  0  0
  184.8590  179.0010  140.7170 C   0  0  0  0  0  2  0  0  0  0  0  0
  184.0790  178.9710  142.0060 C   0  0  0  0  0  0  0  0  0  0  0  0
  184.0190  178.5230  139.5220 C   0  0  0  0  0  2  0  0  0  0  0  0
  184.0040  179.2870  144.4880 C   0  0  1  0  0  3  0  0  0  0  0  0
  182.6240  178.6230  144.4660 C   0  0  0  0  0  2  0  0  0  0  0  0
  181.9620  179.5480  138.3430 C   0  0  0  0  0  0  0  0  0  0  0  0
  181.7560  178.7560  137.3860 O   0  0  0  0  0  0  0  0  0  0  0  0
  181.5670  180.8760  138.2260 O   0  0  0  0  0  1  0  0  0  0  0  0
  2 14  1  0  0  0  0
  3  9  2  0  0  0  0
  4 21  1  0  0  0  0
  4  8  2  0  0  0  0
  5  1  2  0  0  0  0
  5  4  1  0  0  0  0
  6  7  1  0  0  0  0
  8  6  1  0  0  0  0
  9 11  1  0  0  0  0
 10  1  1  6  0  0  0
 10  9  1  0  0  0  0
 10  8  1  0  0  0  0
 11  7  2  0  0  0  0
 12  2  2  0  0  0  0
 13 12  1  0  0  0  0
 13 15  2  0  0  0  0
 14  3  1  0  0  0  0
 15 16  1  0  0  0  0
 16 14  2  0  0  0  0
 16  1  1  0  0  0  0
 18 20  1  0  0  0  0
 19 17  2  0  0  0  0
 20 17  1  0  0  0  0
 20 12  1  0  0  0  0
 22 31  1  0  0  0  0
 23 30  1  0  0  0  0
 24 25  2  0  0  0  0
 26 25  1  6  0  0  0
 26 28  1  0  0  0  0
 26 22  1  0  0  0  0
 27 28  1  0  0  0  0
 28 23  2  0  0  0  0
 29 24  1  0  0  0  0
 29 27  1  0  0  0  0
 30 21  1  1  0  0  0
 31 30  1  0  0  0  0
 32 24  1  0  0  0  0
 33 32  2  0  0  0  0
 34 32  1  0  0  0  0
M  END
>  <MODEL>
4

>  <REMARK>
 VINA RESULT:     -10.6      3.142      7.368
  Name = 
  4 active torsions:
  status: ('A' for Active; 'I' for Inactive)
    1  A    between atoms: C_7  and  C_11
    2  A    between atoms: C_8  and  C_18
    3  A    between atoms: C_18  and  C_30
    4  A    between atoms: C_23  and  N_25
                            x       y       z     vdW  Elec       q    Type
                         _______ _______ _______ _____ _____    ______ ____

>  <TORSDO>
F 4

$$$$
=
 OpenBabel10262423103D

 34 39  0  0  1  0  0  0  0  0999 V2000
  186.6380  178.1430  144.1300 C   0  0  0  0  0  0  0  0  0  0  0  0
  183.0500  178.7900  144.7060 C   0  0  0  0  0  3  0  0  0  0  0  0
  184.8860  178.5540  146.2410 N   0  0  0  0  0  0  0  0  0  0  0  0
  188.7450  177.7220  144.1630 C   0  0  0  0  0  0  0  0  0  0  0  0
  187.6820  177.8740  143.3120 N   0  0  0  0  0  0  0  0  0  0  0  0
  189.0050  177.7940  146.8070 C   0  0  0  0  0  3  0  0  0  0  0  0
  188.2310  177.9840  147.9060 C   0  0  0  0  0  3  0  0  0  0  0  0
  188.3510  177.8880  145.4880 C   0  0  0  0  0  0  0  0  0  0  0  0
  186.2140  178.3390  146.4790 C   0  0  0  0  0  0  0  0  0  0  0  0
  187.0410  178.1490  145.4110 C   0  0  2  0  0  3  0  0  0  0  0  0
  186.8060  178.2650  147.7890 N   0  0  0  0  0  2  0  0  0  0  0  0
  182.5450  178.8010  143.3920 C   0  0  0  0  0  0  0  0  0  0  0  0
  183.4290  178.5840  142.3170 C   0  0  0  0  0  3  0  0  0  0  0  0
  184.4070  178.5720  144.9470 C   0  0  0  0  0  0  0  0  0  0  0  0
  184.7920  178.3640  142.5350 C   0  0  0  0  0  3  0  0  0  0  0  0
  185.2890  178.3580  143.8380 C   0  0  0  0  0  0  0  0  0  0  0  0
  180.1610  178.5980  144.1040 C   0  0  0  0  0  3  0  0  0  0  0  0
  180.7000  179.6970  141.9330 C   0  0  0  0  0  1  0  0  0  0  0  0
  178.9310  178.7900  143.9050 O   0  0  0  0  0  0  0  0  0  0  0  0
  181.1420  179.0280  143.1510 N   0  0  0  0  0  0  0  0  0  0  0  0
  190.1190  177.3380  143.7090 C   0  0  0  0  0  2  0  0  0  0  0  0
  191.3990  176.7410  140.1090 C   0  0  0  0  0  2  0  0  0  0  0  0
  188.9560  177.3340  141.4780 C   0  0  0  0  0  3  0  0  0  0  0  0
  189.0890  177.6700  137.3340 C   0  0  0  0  0  0  0  0  0  0  0  0
  190.1610  177.2400  138.0100 C   0  0  0  0  0  3  0  0  0  0  0  0
  190.3660  177.6410  139.4410 C   0  0  1  0  0  3  0  0  0  0  0  0
  187.7900  178.0910  139.4540 C   0  0  0  0  0  2  0  0  0  0  0  0
  189.0380  177.6520  140.1770 C   0  0  0  0  0  0  0  0  0  0  0  0
  188.0890  178.5650  138.0230 C   0  0  0  0  0  2  0  0  0  0  0  0
  190.1410  176.8280  142.2680 C   0  0  1  0  0  3  0  0  0  0  0  0
  191.4870  177.0980  141.5870 C   0  0  0  0  0  2  0  0  0  0  0  0
  188.9040  177.2990  135.9240 C   0  0  0  0  0  0  0  0  0  0  0  0
  189.7790  176.6200  135.3260 O   0  0  0  0  0  1  0  0  0  0  0  0
  187.7610  177.6950  135.2360 O   0  0  0  0  0  0  0  0  0  0  0  0
  2 14  1  0  0  0  0
  3  9  2  0  0  0  0
  4  8  2  0  0  0  0
  5  1  2  0  0  0  0
  5  4  1  0  0  0  0
  6  7  2  0  0  0  0
  8  6  1  0  0  0  0
  9 11  1  0  0  0  0
 10  1  1  1  0  0  0
 10  8  1  0  0  0  0
 10  9  1  0  0  0  0
 11  7  1  0  0  0  0
 12  2  2  0  0  0  0
 13 15  2  0  0  0  0
 13 12  1  0  0  0  0
 14  3  1  0  0  0  0
 15 16  1  0  0  0  0
 16  1  1  0  0  0  0
 16 14  2  0  0  0  0
 18 20  1  0  0  0  0
 19 17  2  0  0  0  0
 20 12  1  0  0  0  0
 20 17  1  0  0  0  0
 21  4  1  0  0  0  0
 22 31  1  0  0  0  0
 23 30  1  0  0  0  0
 24 25  2  0  0  0  0
 24 29  1  0  0  0  0
 26 25  1  6  0  0  0
 26 22  1  0  0  0  0
 26 28  1  0  0  0  0
 27 28  1  0  0  0  0
 28 23  2  0  0  0  0
 29 27  1  0  0  0  0
 30 21  1  1  0  0  0
 31 30  1  0  0  0  0
 32 24  1  0  0  0  0
 33 32  1  0  0  0  0
 34 32  2  0  0  0  0
M  END
>  <MODEL>
5

>  <REMARK>
 VINA RESULT:     -10.3      3.513      7.703
  Name = 
  4 active torsions:
  status: ('A' for Active; 'I' for Inactive)
    1  A    between atoms: C_7  and  C_11
    2  A    between atoms: C_8  and  C_18
    3  A    between atoms: C_18  and  C_30
    4  A    between atoms: C_23  and  N_25
                            x       y       z     vdW  Elec       q    Type
                         _______ _______ _______ _____ _____    ______ ____

>  <TORSDO>
F 4

$$$$
=
 OpenBabel10262423103D

 34 39  0  0  1  0  0  0  0  0999 V2000
  186.7030  178.0430  143.3830 C   0  0  0  0  0  0  0  0  0  0  0  0
  188.8050  177.2060  146.3000 C   0  0  0  0  0  3  0  0  0  0  0  0
  186.5030  177.8880  146.1450 N   0  0  0  0  0  0  0  0  0  0  0  0
  185.2310  178.6440  141.9370 C   0  0  0  0  0  0  0  0  0  0  0  0
  186.5360  178.2420  142.0550 N   0  0  0  0  0  0  0  0  0  0  0  0
  183.2840  179.0970  143.6890 C   0  0  0  0  0  3  0  0  0  0  0  0
  183.0840  179.0510  145.0310 C   0  0  0  0  0  3  0  0  0  0  0  0
  184.6120  178.6980  143.1830 C   0  0  0  0  0  0  0  0  0  0  0  0
  185.4230  178.2590  145.3970 C   0  0  0  0  0  0  0  0  0  0  0  0
  185.5640  178.3140  144.0410 C   0  0  2  0  0  3  0  0  0  0  0  0
  184.1440  178.6300  145.9390 N   0  0  0  0  0  2  0  0  0  0  0  0
  190.0360  176.9030  145.6900 C   0  0  0  0  0  0  0  0  0  0  0  0
  190.1450  176.9890  144.2880 C   0  0  0  0  0  3  0  0  0  0  0  0
  187.7020  177.5840  145.5330 C   0  0  0  0  0  0  0  0  0  0  0  0
  189.0530  177.3640  143.4990 C   0  0  0  0  0  3  0  0  0  0  0  0
  187.8340  177.6600  144.1080 C   0  0  0  0  0  0  0  0  0  0  0  0
  191.4130  177.1320  147.7590 C   0  0  0  0  0  3  0  0  0  0  0  0
  192.0900  175.4850  146.0160 C   0  0  0  0  0  1  0  0  0  0  0  0
  192.4020  176.8010  148.4680 O   0  0  0  0  0  0  0  0  0  0  0  0
  191.1710  176.5140  146.4890 N   0  0  0  0  0  0  0  0  0  0  0  0
  184.6070  179.0530  140.6400 C   0  0  0  0  0  2  0  0  0  0  0  0
  183.7070  177.0870  137.4340 C   0  0  0  0  0  2  0  0  0  0  0  0
  183.0570  177.1170  140.2210 C   0  0  0  0  0  3  0  0  0  0  0  0
  180.7370  174.8420  137.6240 C   0  0  0  0  0  0  0  0  0  0  0  0
  181.8040  175.5080  137.1670 C   0  0  0  0  0  3  0  0  0  0  0  0
  182.2910  176.7370  137.8760 C   0  0  1  0  0  3  0  0  0  0  0  0
  181.0170  175.7780  139.9480 C   0  0  0  0  0  2  0  0  0  0  0  0
  182.1770  176.5540  139.3790 C   0  0  0  0  0  0  0  0  0  0  0  0
  180.0270  175.3390  138.8590 C   0  0  0  0  0  2  0  0  0  0  0  0
  184.2820  177.8610  139.7410 C   0  0  1  0  0  3  0  0  0  0  0  0
  184.2100  178.2610  138.2640 C   0  0  0  0  0  2  0  0  0  0  0  0
  180.2440  173.6540  136.9130 C   0  0  0  0  0  0  0  0  0  0  0  0
  180.1770  173.6500  135.6550 O   0  0  0  0  0  0  0  0  0  0  0  0
  179.8460  172.5240  137.6200 O   0  0  0  0  0  1  0  0  0  0  0  0
  1 10  1  0  0  0  0
  1 16  1  0  0  0  0
  4  5  1  0  0  0  0
  4  8  2  0  0  0  0
  5  1  2  0  0  0  0
  6  7  2  0  0  0  0
  7 11  1  0  0  0  0
  8  6  1  0  0  0  0
  9 11  1  0  0  0  0
  9  3  2  0  0  0  0
 10  8  1  1  0  0  0
 10  9  1  0  0  0  0
 12  2  1  0  0  0  0
 12 20  1  0  0  0  0
 13 12  2  0  0  0  0
 14  3  1  0  0  0  0
 14  2  2  0  0  0  0
 15 16  2  0  0  0  0
 15 13  1  0  0  0  0
 16 14  1  0  0  0  0
 17 19  2  0  0  0  0
 18 20  1  0  0  0  0
 20 17  1  0  0  0  0
 21  4  1  0  0  0  0
 22 26  1  0  0  0  0
 22 31  1  0  0  0  0
 24 29  1  0  0  0  0
 25 24  2  0  0  0  0
 26 25  1  6  0  0  0
 26 28  1  0  0  0  0
 28 27  1  0  0  0  0
 28 23  2  0  0  0  0
 29 27  1  0  0  0  0
 30 23  1  0  0  0  0
 30 21  1  1  0  0  0
 31 30  1  0  0  0  0
 32 34  1  0  0  0  0
 32 24  1  0  0  0  0
 33 32  2  0  0  0  0
M  END
>  <MODEL>
6

>  <REMARK>
 VINA RESULT:     -10.2      3.650      9.183
  Name = 
  4 active torsions:
  status: ('A' for Active; 'I' for Inactive)
    1  A    between atoms: C_7  and  C_11
    2  A    between atoms: C_8  and  C_18
    3  A    between atoms: C_18  and  C_30
    4  A    between atoms: C_23  and  N_25
                            x       y       z     vdW  Elec       q    Type
                         _______ _______ _______ _____ _____    ______ ____

>  <TORSDO>
F 4

$$$$
=
 OpenBabel10262423103D

 34 39  0  0  1  0  0  0  0  0999 V2000
  188.2740  177.8950  140.0680 C   0  0  0  0  0  0  0  0  0  0  0  0
  189.3840  177.0710  143.4900 C   0  0  0  0  0  3  0  0  0  0  0  0
  190.4550  176.7680  141.3580 N   0  0  0  0  0  0  0  0  0  0  0  0
  187.9260  178.1830  137.9670 C   0  0  0  0  0  0  0  0  0  0  0  0
  187.3460  178.3540  139.1970 N   0  0  0  0  0  0  0  0  0  0  0  0
  190.2420  177.1610  137.1560 C   0  0  0  0  0  3  0  0  0  0  0  0
  191.3550  176.5980  137.6910 C   0  0  0  0  0  3  0  0  0  0  0  0
  189.1930  177.6170  138.0880 C   0  0  0  0  0  0  0  0  0  0  0  0
  190.4500  176.8950  139.9990 C   0  0  0  0  0  0  0  0  0  0  0  0
  189.3600  177.4630  139.4060 C   0  0  2  0  0  3  0  0  0  0  0  0
  191.5050  176.4420  139.1330 N   0  0  0  0  0  2  0  0  0  0  0  0
  188.2870  177.5000  144.2600 C   0  0  0  0  0  0  0  0  0  0  0  0
  187.1730  178.0660  143.6080 C   0  0  0  0  0  3  0  0  0  0  0  0
  189.3770  177.2030  142.1010 C   0  0  0  0  0  0  0  0  0  0  0  0
  187.1440  178.2090  142.2180 C   0  0  0  0  0  3  0  0  0  0  0  0
  188.2350  177.7850  141.4600 C   0  0  0  0  0  0  0  0  0  0  0  0
  189.5240  177.0720  146.3850 C   0  0  0  0  0  3  0  0  0  0  0  0
  187.0720  177.5100  146.4650 C   0  0  0  0  0  1  0  0  0  0  0  0
  189.5510  176.9470  147.6400 O   0  0  0  0  0  0  0  0  0  0  0  0
  188.3020  177.3600  145.6950 N   0  0  0  0  0  0  0  0  0  0  0  0
  187.2320  178.4860  136.6760 C   0  0  0  0  0  2  0  0  0  0  0  0
  183.8760  176.5690  136.7880 C   0  0  0  0  0  2  0  0  0  0  0  0
  186.6760  176.0380  136.5260 C   0  0  0  0  0  3  0  0  0  0  0  0
  184.0730  172.8730  137.2410 C   0  0  0  0  0  0  0  0  0  0  0  0
  183.5970  174.1150  137.0840 C   0  0  0  0  0  3  0  0  0  0  0  0
  184.4580  175.3010  137.4030 C   0  0  1  0  0  3  0  0  0  0  0  0
  186.4640  173.6550  137.0820 C   0  0  0  0  0  2  0  0  0  0  0  0
  185.8890  175.0440  136.9640 C   0  0  0  0  0  0  0  0  0  0  0  0
  185.4810  172.6770  137.7440 C   0  0  0  0  0  2  0  0  0  0  0  0
  186.1690  177.4470  136.3210 C   0  0  1  0  0  3  0  0  0  0  0  0
  184.8390  177.7240  137.0270 C   0  0  0  0  0  2  0  0  0  0  0  0
  183.2190  171.7110  136.9540 C   0  0  0  0  0  0  0  0  0  0  0  0
  183.7180  170.6640  136.4640 O   0  0  0  0  0  0  0  0  0  0  0  0
  181.8550  171.7560  137.2200 O   0  0  0  0  0  1  0  0  0  0  0  0
  1 16  1  0  0  0  0
  2 12  1  0  0  0  0
  3 14  1  0  0  0  0
  4  8  2  0  0  0  0
  4  5  1  0  0  0  0
  5  1  2  0  0  0  0
  6  7  2  0  0  0  0
  6  8  1  0  0  0  0
  7 11  1  0  0  0  0
  9  3  2  0  0  0  0
 10  8  1  6  0  0  0
 10  9  1  0  0  0  0
 10  1  1  0  0  0  0
 11  9  1  0  0  0  0
 12 20  1  0  0  0  0
 13 12  2  0  0  0  0
 14  2  2  0  0  0  0
 15 13  1  0  0  0  0
 16 14  1  0  0  0  0
 16 15  2  0  0  0  0
 17 19  2  0  0  0  0
 20 17  1  0  0  0  0
 20 18  1  0  0  0  0
 21  4  1  0  0  0  0
 22 31  1  0  0  0  0
 23 28  2  0  0  0  0
 24 29  1  0  0  0  0
 25 24  2  0  0  0  0
 25 26  1  0  0  0  0
 26 22  1  6  0  0  0
 27 29  1  0  0  0  0
 28 27  1  0  0  0  0
 28 26  1  0  0  0  0
 30 23  1  0  0  0  0
 30 21  1  1  0  0  0
 30 31  1  0  0  0  0
 32 34  1  0  0  0  0
 32 24  1  0  0  0  0
 33 32  2  0  0  0  0
M  END
>  <MODEL>
7

>  <REMARK>
 VINA RESULT:     -10.0      3.701      9.489
  Name = 
  4 active torsions:
  status: ('A' for Active; 'I' for Inactive)
    1  A    between atoms: C_7  and  C_11
    2  A    between atoms: C_8  and  C_18
    3  A    between atoms: C_18  and  C_30
    4  A    between atoms: C_23  and  N_25
                            x       y       z     vdW  Elec       q    Type
                         _______ _______ _______ _____ _____    ______ ____

>  <TORSDO>
F 4

$$$$
=
 OpenBabel10262423103D

 34 39  0  0  1  0  0  0  0  0999 V2000
  182.5010  178.3460  141.4990 C   0  0  0  0  0  0  0  0  0  0  0  0
  181.2830  177.2450  138.1940 C   0  0  0  0  0  3  0  0  0  0  0  0
  180.1030  177.8230  140.2080 N   0  0  0  0  0  0  0  0  0  0  0  0
  182.8590  178.9430  143.5330 C   0  0  0  0  0  0  0  0  0  0  0  0
  183.5030  178.6200  142.3670 N   0  0  0  0  0  2  0  0  0  0  0  0
  180.3020  179.0260  144.2550 C   0  0  0  0  0  2  0  0  0  0  0  0
  179.0780  178.7960  143.7140 C   0  0  0  0  0  3  0  0  0  0  0  0
  181.4770  178.8580  143.3790 C   0  0  0  0  0  0  0  0  0  0  0  0
  180.1090  178.2350  141.5100 C   0  0  0  0  0  0  0  0  0  0  0  0
  181.3100  178.4890  142.1030 C   0  0  0  0  0  0  0  0  0  0  0  0
  178.9300  178.3920  142.3210 N   0  0  0  0  0  0  0  0  0  0  0  0
  182.4870  177.0720  137.4860 C   0  0  0  0  0  0  0  0  0  0  0  0
  183.7090  177.3280  138.1410 C   0  0  0  0  0  3  0  0  0  0  0  0
  181.2910  177.6670  139.5240 C   0  0  0  0  0  0  0  0  0  0  0  0
  183.7400  177.7520  139.4720 C   0  0  0  0  0  3  0  0  0  0  0  0
  182.5440  177.9260  140.1680 C   0  0  0  0  0  0  0  0  0  0  0  0
  182.5530  175.2410  135.7910 C   0  0  0  0  0  3  0  0  0  0  0  0
  182.3700  177.6070  135.0290 C   0  0  0  0  0  1  0  0  0  0  0  0
  182.5400  174.8460  134.5940 O   0  0  0  0  0  0  0  0  0  0  0  0
  182.4710  176.6350  136.1120 N   0  0  0  0  0  0  0  0  0  0  0  0
  183.5710  179.2530  144.8120 C   0  0  0  0  0  2  0  0  0  0  0  0
  186.9810  177.7660  143.7590 C   0  0  0  0  0  2  0  0  0  0  0  0
  185.7430  178.9580  146.0470 C   0  0  0  0  0  3  0  0  0  0  0  0
  189.4170  177.0600  146.4920 C   0  0  0  0  0  0  0  0  0  0  0  0
  188.8490  177.1550  145.2840 C   0  0  0  0  0  3  0  0  0  0  0  0
  187.3600  177.2810  145.1540 C   0  0  1  0  0  3  0  0  0  0  0  0
  187.4380  178.1380  147.6230 C   0  0  0  0  0  2  0  0  0  0  0  0
  186.8120  178.1750  146.2520 C   0  0  0  0  0  0  0  0  0  0  0  0
  188.5450  177.0780  147.7230 C   0  0  0  0  0  2  0  0  0  0  0  0
  185.0870  179.1040  144.6930 C   0  0  1  0  0  3  0  0  0  0  0  0
  185.4770  177.9990  143.7070 C   0  0  0  0  0  2  0  0  0  0  0  0
  190.8740  176.9100  146.6180 C   0  0  0  0  0  0  0  0  0  0  0  0
  191.3910  176.6580  147.7380 O   0  0  0  0  0  1  0  0  0  0  0  0
  191.6940  177.0450  145.5030 O   0  0  0  0  0  0  0  0  0  0  0  0
  1 10  2  0  0  0  0
  1  5  1  0  0  0  0
  2 14  1  0  0  0  0
  3  9  2  0  0  0  0
  4 21  1  0  0  0  0
  5  4  1  0  0  0  0
  7  6  1  0  0  0  0
  8  4  2  0  0  0  0
  8  6  1  0  0  0  0
  9 10  1  0  0  0  0
  9 11  1  0  0  0  0
 10  8  1  0  0  0  0
 11  7  2  0  0  0  0
 12 13  1  0  0  0  0
 12  2  2  0  0  0  0
 13 15  2  0  0  0  0
 14 16  2  0  0  0  0
 14  3  1  0  0  0  0
 15 16  1  0  0  0  0
 16  1  1  0  0  0  0
 17 20  1  0  0  0  0
 18 20  1  0  0  0  0
 19 17  2  0  0  0  0
 20 12  1  0  0  0  0
 23 28  2  0  0  0  0
 24 32  1  0  0  0  0
 24 29  1  0  0  0  0
 25 24  2  0  0  0  0
 26 22  1  6  0  0  0
 26 25  1  0  0  0  0
 26 28  1  0  0  0  0
 27 29  1  0  0  0  0
 28 27  1  0  0  0  0
 30 21  1  1  0  0  0
 30 23  1  0  0  0  0
 31 22  1  0  0  0  0
 31 30  1  0  0  0  0
 32 33  1  0  0  0  0
 34 32  2  0  0  0  0
M  END
>  <MODEL>
8

>  <REMARK>
 VINA RESULT:     -10.0      2.580      3.720
  Name = 
  4 active torsions:
  status: ('A' for Active; 'I' for Inactive)
    1  A    between atoms: C_7  and  C_11
    2  A    between atoms: C_8  and  C_18
    3  A    between atoms: C_18  and  C_30
    4  A    between atoms: C_23  and  N_25
                            x       y       z     vdW  Elec       q    Type
                         _______ _______ _______ _____ _____    ______ ____

>  <TORSDO>
F 4

$$$$
=
 OpenBabel10262423103D

 34 39  0  0  1  0  0  0  0  0999 V2000
  185.7300  178.3030  142.1530 C   0  0  0  0  0  0  0  0  0  0  0  0
  187.4270  177.6680  145.3680 C   0  0  0  0  0  3  0  0  0  0  0  0
  185.1260  178.1470  144.8550 N   0  0  0  0  0  0  0  0  0  0  0  0
  184.4500  178.7660  140.4900 C   0  0  0  0  0  0  0  0  0  0  0  0
  185.7510  178.4790  140.8110 N   0  0  0  0  0  0  0  0  0  0  0  0
  182.2270  179.0580  141.9180 C   0  0  0  0  0  3  0  0  0  0  0  0
  181.8300  179.0030  143.2150 C   0  0  0  0  0  3  0  0  0  0  0  0
  183.6460  178.7730  141.6260 C   0  0  0  0  0  0  0  0  0  0  0  0
  184.1450  178.4180  143.9450 C   0  0  0  0  0  0  0  0  0  0  0  0
  184.4850  178.4780  142.6250 C   0  0  2  0  0  3  0  0  0  0  0  0
  182.7710  178.6810  144.2810 N   0  0  0  0  0  2  0  0  0  0  0  0
  188.7580  177.4690  144.9570 C   0  0  0  0  0  0  0  0  0  0  0  0
  189.0710  177.5560  143.5860 C   0  0  0  0  0  3  0  0  0  0  0  0
  186.4250  177.9440  144.4360 C   0  0  0  0  0  0  0  0  0  0  0  0
  188.0840  177.8320  142.6350 C   0  0  0  0  0  3  0  0  0  0  0  0
  186.7660  178.0240  143.0470 C   0  0  0  0  0  0  0  0  0  0  0  0
  191.1460  177.0030  145.5120 C   0  0  0  0  0  3  0  0  0  0  0  0
  189.4580  177.0770  147.3430 C   0  0  0  0  0  1  0  0  0  0  0  0
  192.0550  176.7530  146.3490 O   0  0  0  0  0  0  0  0  0  0  0  0
  189.7870  177.1850  145.9260 N   0  0  0  0  0  0  0  0  0  0  0  0
  183.9980  179.1130  139.1050 C   0  0  0  0  0  2  0  0  0  0  0  0
  182.4680  175.6480  138.3260 C   0  0  0  0  0  2  0  0  0  0  0  0
  184.7800  177.2010  137.6690 C   0  0  0  0  0  3  0  0  0  0  0  0
  184.7030  173.1640  136.6720 C   0  0  0  0  0  0  0  0  0  0  0  0
  183.6380  173.7370  137.2460 C   0  0  0  0  0  3  0  0  0  0  0  0
  183.8050  174.9470  138.1160 C   0  0  1  0  0  3  0  0  0  0  0  0
  186.0640  175.2790  136.8410 C   0  0  0  0  0  2  0  0  0  0  0  0
  184.8620  175.8690  137.5330 C   0  0  0  0  0  0  0  0  0  0  0  0
  186.0740  173.7440  136.9100 C   0  0  0  0  0  2  0  0  0  0  0  0
  183.5860  177.8840  138.2950 C   0  0  1  0  0  3  0  0  0  0  0  0
  182.6990  176.9350  139.1080 C   0  0  0  0  0  2  0  0  0  0  0  0
  184.5400  171.9620  135.8420 C   0  0  0  0  0  0  0  0  0  0  0  0
  185.0660  171.9050  134.6990 O   0  0  0  0  0  0  0  0  0  0  0  0
  183.8060  170.8770  136.3090 O   0  0  0  0  0  1  0  0  0  0  0  0
  1 10  1  0  0  0  0
  1 16  1  0  0  0  0
  4  5  1  0  0  0  0
  4  8  2  0  0  0  0
  5  1  2  0  0  0  0
  6  7  2  0  0  0  0
  7 11  1  0  0  0  0
  8  6  1  0  0  0  0
  9 11  1  0  0  0  0
  9  3  2  0  0  0  0
 10  8  1  1  0  0  0
 10  9  1  0  0  0  0
 12  2  1  0  0  0  0
 12 20  1  0  0  0  0
 13 12  2  0  0  0  0
 14  3  1  0  0  0  0
 14  2  2  0  0  0  0
 15 16  2  0  0  0  0
 15 13  1  0  0  0  0
 16 14  1  0  0  0  0
 17 20  1  0  0  0  0
 17 19  2  0  0  0  0
 20 18  1  0  0  0  0
 21  4  1  0  0  0  0
 22 31  1  0  0  0  0
 23 30  1  0  0  0  0
 24 29  1  0  0  0  0
 24 25  2  0  0  0  0
 26 25  1  6  0  0  0
 26 22  1  0  0  0  0
 27 29  1  0  0  0  0
 27 28  1  0  0  0  0
 28 23  2  0  0  0  0
 28 26  1  0  0  0  0
 30 21  1  1  0  0  0
 30 31  1  0  0  0  0
 32 34  1  0  0  0  0
 32 24  1  0  0  0  0
 33 32  2  0  0  0  0
M  END
>  <MODEL>
9

>  <REMARK>
 VINA RESULT:      -9.8      3.243      8.367
  Name = 
  4 active torsions:
  status: ('A' for Active; 'I' for Inactive)
    1  A    between atoms: C_7  and  C_11
    2  A    between atoms: C_8  and  C_18
    3  A    between atoms: C_18  and  C_30
    4  A    between atoms: C_23  and  N_25
                            x       y       z     vdW  Elec       q    Type
                         _______ _______ _______ _____ _____    ______ ____

>  <TORSDO>
F 4

$$$$
