=
 OpenBabel10262421393D

 32 36  0  0  1  0  0  0  0  0999 V2000
  183.0350  179.1680  144.5470 C   0  0  0  0  0  3  0  0  0  0  0  0
  184.3170  178.9740  145.0590 C   0  0  0  0  0  3  0  0  0  0  0  0
  182.7860  178.9530  143.1910 C   0  0  0  0  0  3  0  0  0  0  0  0
  183.8120  178.5450  142.3230 C   0  0  0  0  0  0  0  0  0  0  0  0
  185.3460  178.5540  144.2170 C   0  0  0  0  0  3  0  0  0  0  0  0
  185.1100  178.3340  142.8500 C   0  0  0  0  0  0  0  0  0  0  0  0
  187.5970  178.2570  139.9650 N   0  0  0  0  0  0  0  0  0  0  0  0
  188.6850  177.6020  140.6190 C   0  0  0  0  0  0  0  0  0  0  0  0
  189.8720  176.6800  142.1650 C   0  0  0  0  0  0  0  0  0  0  0  0
  186.2280  177.8190  141.9940 C   0  0  2  0  0  3  0  0  0  0  0  0
  190.5970  176.7020  141.0260 N   0  0  0  0  0  0  0  0  0  0  0  0
  189.8670  177.2700  140.0700 N   0  0  0  0  0  0  0  0  0  0  0  0
  187.4980  177.5560  142.8350 C   0  0  0  0  0  2  0  0  0  0  0  0
  187.6420  178.5580  138.5420 C   0  0  0  0  0  1  0  0  0  0  0  0
  190.3680  176.1470  143.4640 C   0  0  0  0  0  1  0  0  0  0  0  0
  186.4830  178.7460  140.7820 C   0  0  0  0  0  2  0  0  0  0  0  0
  188.6390  177.2380  141.9280 C   0  0  1  0  0  3  0  0  0  0  0  0
  179.3470  179.4400  138.1850 C   0  0  0  0  0  2  0  0  0  0  0  0
  183.0760  177.0630  140.4230 C   0  0  0  0  0  2  0  0  0  0  0  0
  181.7400  179.5190  139.7270 C   0  0  2  0  0  3  0  0  0  0  0  0
  181.5850  177.1460  140.1160 C   0  0  0  0  0  2  0  0  0  0  0  0
  179.8520  178.2450  139.0120 C   0  0  0  0  0  2  0  0  0  0  0  0
  183.5170  178.3600  140.9230 N   0  0  0  0  0  0  0  0  0  0  0  0
  180.4690  180.3270  137.6490 C   0  0  1  0  0  3  0  0  0  0  0  0
  181.3080  178.2240  139.1630 N   0  0  1  0  0  0  0  0  0  0  0  0
  181.4810  180.6730  138.7490 C   0  0  0  0  0  2  0  0  0  0  0  0
  183.2330  179.4990  140.0590 C   0  0  0  0  0  2  0  0  0  0  0  0
  181.1490  179.6620  136.4620 C   0  0  0  0  0  2  0  0  0  0  0  0
  180.7720  180.3640  135.1720 C   0  0  0  0  0  2  0  0  0  0  0  0
  180.0790  181.6700  135.5000 C   0  0  0  0  0  2  0  0  0  0  0  0
  180.9730  183.9460  135.9830 C   0  0  0  0  0  1  0  0  0  0  0  0
  180.8600  182.8470  134.9420 C   0  0  0  0  0  2  0  0  0  0  0  0
  1  2  1  0  0  0  0
  3  1  2  0  0  0  0
  4  6  2  0  0  0  0
  4  3  1  0  0  0  0
  5  2  2  0  0  0  0
  6  5  1  0  0  0  0
  7  8  1  0  0  0  0
  7 16  1  0  0  0  0
  8 17  1  0  0  0  0
  9 15  1  0  0  0  0
 10 13  1  0  0  0  0
 10  6  1  1  0  0  0
 11  9  2  0  0  0  0
 12  8  2  0  0  0  0
 12 11  1  0  0  0  0
 14  7  1  0  0  0  0
 16 10  1  0  0  0  0
 17  9  1  0  0  0  0
 17 13  1  1  0  0  0
 18 22  1  0  0  0  0
 19 23  1  0  0  0  0
 20 26  1  6  0  0  0
 20 27  1  0  0  0  0
 21 19  1  0  0  0  0
 23  4  1  0  0  0  0
 24 28  1  6  0  0  0
 24 18  1  0  0  0  0
 24 26  1  0  0  0  0
 25 22  1  1  0  0  0
 25 20  1  0  0  0  0
 25 21  1  0  0  0  0
 27 23  1  0  0  0  0
 29 30  1  0  0  0  0
 29 28  1  0  0  0  0
 32 30  1  0  0  0  0
 32 31  1  0  0  0  0
M  END
>  <MODEL>
1

>  <REMARK>
 VINA RESULT:      -7.3      0.000      0.000
  Name = 
  6 active torsions:
  status: ('A' for Active; 'I' for Inactive)
    1  A    between atoms: C_10  and  C_20
    2  A    between atoms: C_10  and  C_24
    3  A    between atoms: N_14  and  C_15
    4  A    between atoms: C_16  and  C_26
    5  A    between atoms: C_17  and  C_20
    6  A    between atoms: C_19  and  C_24
                            x       y       z     vdW  Elec       q    Type
                         _______ _______ _______ _____ _____    ______ ____

>  <TORSDO>
F 6

$$$$
=
 OpenBabel10262421393D

 32 36  0  0  1  0  0  0  0  0999 V2000
  188.4290  174.6880  135.7200 C   0  0  0  0  0  3  0  0  0  0  0  0
  189.4340  173.8820  135.1900 C   0  0  0  0  0  3  0  0  0  0  0  0
  188.7420  175.6590  136.6720 C   0  0  0  0  0  3  0  0  0  0  0  0
  190.0640  175.8390  137.1130 C   0  0  0  0  0  0  0  0  0  0  0  0
  190.7550  174.0540  135.6030 C   0  0  0  0  0  3  0  0  0  0  0  0
  191.0850  175.0280  136.5600 C   0  0  0  0  0  0  0  0  0  0  0  0
  194.6060  174.0820  137.6690 N   0  0  0  0  0  0  0  0  0  0  0  0
  195.3460  175.0650  136.9430 C   0  0  0  0  0  0  0  0  0  0  0  0
  195.7970  176.6880  135.5970 C   0  0  0  0  0  0  0  0  0  0  0  0
  192.5260  175.2260  136.9260 C   0  0  2  0  0  3  0  0  0  0  0  0
  196.9540  176.2420  136.1320 N   0  0  0  0  0  0  0  0  0  0  0  0
  196.6790  175.2410  136.9620 N   0  0  0  0  0  2  0  0  0  0  0  0
  193.2910  175.9590  135.8010 C   0  0  0  0  0  2  0  0  0  0  0  0
  195.2590  173.1940  138.6180 C   0  0  0  0  0  1  0  0  0  0  0  0
  195.7050  177.7850  134.5940 C   0  0  0  0  0  1  0  0  0  0  0  0
  193.1890  173.8910  137.3430 C   0  0  0  0  0  2  0  0  0  0  0  0
  194.7510  175.9600  136.1110 C   0  0  0  0  0  0  0  0  0  0  0  0
  188.0620  177.8550  142.5710 C   0  0  0  0  0  2  0  0  0  0  0  0
  189.8530  178.2010  137.9620 C   0  0  0  0  0  2  0  0  0  0  0  0
  189.5470  176.7260  140.4190 C   0  0  2  0  0  3  0  0  0  0  0  0
  188.6890  178.4110  138.9240 C   0  0  0  0  0  2  0  0  0  0  0  0
  187.8820  178.2930  141.1060 C   0  0  0  0  0  2  0  0  0  0  0  0
  190.3400  176.8350  138.1180 N   0  0  0  0  0  0  0  0  0  0  0  0
  189.4800  177.3900  142.8970 C   0  0  1  0  0  3  0  0  0  0  0  0
  189.0940  178.1280  140.3040 N   0  0  1  0  0  0  0  0  0  0  0  0
  189.9970  176.3960  141.8480 C   0  0  0  0  0  2  0  0  0  0  0  0
  190.7170  176.4510  139.4730 C   0  0  0  0  0  2  0  0  0  0  0  0
  190.4130  178.5850  143.0310 C   0  0  0  0  0  2  0  0  0  0  0  0
  191.1380  178.5440  144.3630 C   0  0  0  0  0  2  0  0  0  0  0  0
  190.6050  177.3900  145.1850 C   0  0  0  0  0  2  0  0  0  0  0  0
  191.5390  176.1440  147.1320 C   0  0  0  0  0  1  0  0  0  0  0  0
  191.7420  176.5080  145.6720 C   0  0  0  0  0  2  0  0  0  0  0  0
  1  3  1  0  0  0  0
  2  5  1  0  0  0  0
  2  1  2  0  0  0  0
  3  4  2  0  0  0  0
  4 23  1  0  0  0  0
  5  6  2  0  0  0  0
  6  4  1  0  0  0  0
  7 14  1  0  0  0  0
  8 12  1  0  0  0  0
  8  7  1  0  0  0  0
  9 17  1  0  0  0  0
  9 11  2  0  0  0  0
 10  6  1  6  0  0  0
 10 16  1  0  0  0  0
 11 12  1  0  0  0  0
 13 17  1  0  0  0  0
 13 10  1  0  0  0  0
 15  9  1  0  0  0  0
 16  7  1  0  0  0  0
 17  8  2  0  0  0  0
 18 24  1  0  0  0  0
 19 23  1  0  0  0  0
 19 21  1  0  0  0  0
 20 27  1  6  0  0  0
 20 26  1  0  0  0  0
 22 18  1  0  0  0  0
 23 27  1  0  0  0  0
 24 28  1  6  0  0  0
 25 21  1  6  0  0  0
 25 20  1  0  0  0  0
 25 22  1  0  0  0  0
 26 24  1  0  0  0  0
 28 29  1  0  0  0  0
 29 30  1  0  0  0  0
 30 32  1  0  0  0  0
 32 31  1  0  0  0  0
M  END
>  <MODEL>
2

>  <REMARK>
 VINA RESULT:      -7.3      5.807     10.245
  Name = 
  6 active torsions:
  status: ('A' for Active; 'I' for Inactive)
    1  A    between atoms: C_10  and  C_20
    2  A    between atoms: C_10  and  C_24
    3  A    between atoms: N_14  and  C_15
    4  A    between atoms: C_16  and  C_26
    5  A    between atoms: C_17  and  C_20
    6  A    between atoms: C_19  and  C_24
                            x       y       z     vdW  Elec       q    Type
                         _______ _______ _______ _____ _____    ______ ____

>  <TORSDO>
F 6

$$$$
=
 OpenBabel10262421393D

 32 36  0  0  1  0  0  0  0  0999 V2000
  188.6920  179.2670  137.3580 C   0  0  0  0  0  3  0  0  0  0  0  0
  188.8330  178.5740  136.1570 C   0  0  0  0  0  3  0  0  0  0  0  0
  189.1240  178.6900  138.5520 C   0  0  0  0  0  3  0  0  0  0  0  0
  189.7020  177.4090  138.5680 C   0  0  0  0  0  0  0  0  0  0  0  0
  189.4170  177.3080  136.1500 C   0  0  0  0  0  3  0  0  0  0  0  0
  189.8570  176.7140  137.3440 C   0  0  0  0  0  0  0  0  0  0  0  0
  190.7550  173.2690  135.9880 N   0  0  0  0  0  0  0  0  0  0  0  0
  192.1150  173.1990  136.4220 C   0  0  0  0  0  0  0  0  0  0  0  0
  194.0070  173.7720  137.2840 C   0  0  0  0  0  0  0  0  0  0  0  0
  190.5410  175.3810  137.2830 C   0  0  2  0  0  3  0  0  0  0  0  0
  194.1270  172.5250  136.7780 N   0  0  0  0  0  0  0  0  0  0  0  0
  192.9610  172.1700  136.2450 N   0  0  0  0  0  0  0  0  0  0  0  0
  192.0770  175.5390  137.3450 C   0  0  0  0  0  2  0  0  0  0  0  0
  190.1050  172.1290  135.3600 C   0  0  0  0  0  1  0  0  0  0  0  0
  195.1150  174.5210  137.9360 C   0  0  0  0  0  1  0  0  0  0  0  0
  190.0630  174.5590  136.0630 C   0  0  0  0  0  2  0  0  0  0  0  0
  192.7240  174.2200  137.0820 C   0  0  1  0  0  3  0  0  0  0  0  0
  190.6180  178.9150  144.4640 C   0  0  0  0  0  2  0  0  0  0  0  0
  191.5250  176.6660  140.1410 C   0  0  0  0  0  2  0  0  0  0  0  0
  189.6670  177.8440  142.0030 C   0  0  2  0  0  3  0  0  0  0  0  0
  191.9240  177.7210  141.1670 C   0  0  0  0  0  2  0  0  0  0  0  0
  191.5150  178.7290  143.2270 C   0  0  0  0  0  2  0  0  0  0  0  0
  190.1100  176.8390  139.8280 N   0  0  0  0  0  0  0  0  0  0  0  0
  189.4970  177.8820  144.5640 C   0  0  1  0  0  3  0  0  0  0  0  0
  191.0830  177.6290  142.3640 N   0  0  1  0  0  0  0  0  0  0  0  0
  188.7520  177.7380  143.2300 C   0  0  0  0  0  2  0  0  0  0  0  0
  189.2050  176.8130  140.9710 C   0  0  0  0  0  2  0  0  0  0  0  0
  190.0480  176.5450  145.0360 C   0  0  0  0  0  2  0  0  0  0  0  0
  190.5400  176.6500  146.4670 C   0  0  0  0  0  2  0  0  0  0  0  0
  189.3490  176.6770  147.4020 C   0  0  0  0  0  2  0  0  0  0  0  0
  187.8750  178.3270  148.5500 C   0  0  0  0  0  1  0  0  0  0  0  0
  189.3060  177.9820  148.1780 C   0  0  0  0  0  2  0  0  0  0  0  0
  1  3  1  0  0  0  0
  2  1  2  0  0  0  0
  3  4  2  0  0  0  0
  4 23  1  0  0  0  0
  5  2  1  0  0  0  0
  5  6  2  0  0  0  0
  6  4  1  0  0  0  0
  7 16  1  0  0  0  0
  7  8  1  0  0  0  0
  8 17  1  0  0  0  0
  9 15  1  0  0  0  0
 10  6  1  6  0  0  0
 10 13  1  0  0  0  0
 11  9  2  0  0  0  0
 12  8  2  0  0  0  0
 12 11  1  0  0  0  0
 14  7  1  0  0  0  0
 16 10  1  0  0  0  0
 17  9  1  0  0  0  0
 17 13  1  6  0  0  0
 18 24  1  0  0  0  0
 19 21  1  0  0  0  0
 20 27  1  6  0  0  0
 20 25  1  0  0  0  0
 20 26  1  0  0  0  0
 22 18  1  0  0  0  0
 23 19  1  0  0  0  0
 23 27  1  0  0  0  0
 24 28  1  6  0  0  0
 25 21  1  6  0  0  0
 25 22  1  0  0  0  0
 26 24  1  0  0  0  0
 28 29  1  0  0  0  0
 29 30  1  0  0  0  0
 30 32  1  0  0  0  0
 32 31  1  0  0  0  0
M  END
>  <MODEL>
3

>  <REMARK>
 VINA RESULT:      -6.9      6.056      9.909
  Name = 
  6 active torsions:
  status: ('A' for Active; 'I' for Inactive)
    1  A    between atoms: C_10  and  C_20
    2  A    between atoms: C_10  and  C_24
    3  A    between atoms: N_14  and  C_15
    4  A    between atoms: C_16  and  C_26
    5  A    between atoms: C_17  and  C_20
    6  A    between atoms: C_19  and  C_24
                            x       y       z     vdW  Elec       q    Type
                         _______ _______ _______ _____ _____    ______ ____

>  <TORSDO>
F 6

$$$$
=
 OpenBabel10262421393D

 32 36  0  0  1  0  0  0  0  0999 V2000
  191.9300  177.8930  142.6990 C   0  0  0  0  0  3  0  0  0  0  0  0
  192.4020  177.8320  141.3890 C   0  0  0  0  0  3  0  0  0  0  0  0
  190.5930  177.6040  142.9730 C   0  0  0  0  0  3  0  0  0  0  0  0
  189.7040  177.2530  141.9440 C   0  0  0  0  0  0  0  0  0  0  0  0
  191.5390  177.4700  140.3550 C   0  0  0  0  0  3  0  0  0  0  0  0
  190.1910  177.1770  140.6160 C   0  0  0  0  0  0  0  0  0  0  0  0
  187.7540  177.4840  137.7040 N   0  0  0  0  0  0  0  0  0  0  0  0
  188.2050  176.3840  136.9110 C   0  0  0  0  0  0  0  0  0  0  0  0
  189.3820  174.7050  136.2440 C   0  0  0  0  0  0  0  0  0  0  0  0
  189.3140  176.7270  139.4860 C   0  0  2  0  0  3  0  0  0  0  0  0
  188.4150  174.9390  135.3310 N   0  0  0  0  0  0  0  0  0  0  0  0
  187.6880  175.9740  135.7400 N   0  0  0  0  0  0  0  0  0  0  0  0
  190.1070  175.8670  138.4750 C   0  0  0  0  0  2  0  0  0  0  0  0
  186.5700  178.2430  137.3350 C   0  0  0  0  0  1  0  0  0  0  0  0
  190.4150  173.6400  136.1170 C   0  0  0  0  0  1  0  0  0  0  0  0
  188.5850  177.9220  138.8280 C   0  0  0  0  0  2  0  0  0  0  0  0
  189.2610  175.6070  137.2730 C   0  0  1  0  0  3  0  0  0  0  0  0
  185.0270  179.4760  145.2680 C   0  0  0  0  0  2  0  0  0  0  0  0
  187.9760  176.0140  143.2960 C   0  0  0  0  0  2  0  0  0  0  0  0
  186.7860  178.6370  143.1920 C   0  0  2  0  0  3  0  0  0  0  0  0
  187.5030  176.7680  144.5340 C   0  0  0  0  0  2  0  0  0  0  0  0
  186.0710  178.3600  145.4530 C   0  0  0  0  0  2  0  0  0  0  0  0
  188.3240  176.9880  142.2680 N   0  0  0  0  0  0  0  0  0  0  0  0
  184.4880  179.5760  143.8430 C   0  0  1  0  0  3  0  0  0  0  0  0
  186.3770  177.6480  144.2110 N   0  0  1  0  0  0  0  0  0  0  0  0
  185.6260  179.5670  142.8140 C   0  0  0  0  0  2  0  0  0  0  0  0
  187.2750  177.9400  141.9210 C   0  0  0  0  0  2  0  0  0  0  0  0
  183.4920  178.4580  143.5730 C   0  0  0  0  0  2  0  0  0  0  0  0
  182.8000  178.6750  142.2400 C   0  0  0  0  0  2  0  0  0  0  0  0
  181.3330  178.9600  142.4810 C   0  0  0  0  0  2  0  0  0  0  0  0
  179.4610  178.7700  144.1160 C   0  0  0  0  0  1  0  0  0  0  0  0
  180.9660  178.6990  143.9320 C   0  0  0  0  0  2  0  0  0  0  0  0
  1  3  1  0  0  0  0
  2  1  2  0  0  0  0
  4 23  1  0  0  0  0
  4  3  2  0  0  0  0
  5  6  2  0  0  0  0
  5  2  1  0  0  0  0
  6  4  1  0  0  0  0
  7 16  1  0  0  0  0
  8 17  1  0  0  0  0
  8  7  1  0  0  0  0
  9 17  1  0  0  0  0
 10  6  1  1  0  0  0
 11 12  1  0  0  0  0
 11  9  2  0  0  0  0
 12  8  2  0  0  0  0
 13 10  1  0  0  0  0
 14  7  1  0  0  0  0
 15  9  1  0  0  0  0
 16 10  1  0  0  0  0
 17 13  1  6  0  0  0
 18 22  1  0  0  0  0
 19 21  1  0  0  0  0
 20 27  1  6  0  0  0
 20 25  1  0  0  0  0
 23 19  1  0  0  0  0
 24 28  1  6  0  0  0
 24 18  1  0  0  0  0
 25 21  1  1  0  0  0
 25 22  1  0  0  0  0
 26 20  1  0  0  0  0
 26 24  1  0  0  0  0
 27 23  1  0  0  0  0
 29 30  1  0  0  0  0
 29 28  1  0  0  0  0
 30 32  1  0  0  0  0
 32 31  1  0  0  0  0
M  END
>  <MODEL>
4

>  <REMARK>
 VINA RESULT:      -6.8      3.831      6.762
  Name = 
  6 active torsions:
  status: ('A' for Active; 'I' for Inactive)
    1  A    between atoms: C_10  and  C_20
    2  A    between atoms: C_10  and  C_24
    3  A    between atoms: N_14  and  C_15
    4  A    between atoms: C_16  and  C_26
    5  A    between atoms: C_17  and  C_20
    6  A    between atoms: C_19  and  C_24
                            x       y       z     vdW  Elec       q    Type
                         _______ _______ _______ _____ _____    ______ ____

>  <TORSDO>
F 6

$$$$
=
 OpenBabel10262421393D

 32 36  0  0  1  0  0  0  0  0999 V2000
  191.9130  177.9380  142.9430 C   0  0  0  0  0  3  0  0  0  0  0  0
  192.4730  177.8890  141.6670 C   0  0  0  0  0  3  0  0  0  0  0  0
  190.5600  177.6500  143.1220 C   0  0  0  0  0  3  0  0  0  0  0  0
  189.7420  177.3120  142.0310 C   0  0  0  0  0  0  0  0  0  0  0  0
  191.6820  177.5400  140.5730 C   0  0  0  0  0  3  0  0  0  0  0  0
  190.3180  177.2480  140.7390 C   0  0  0  0  0  0  0  0  0  0  0  0
  188.1720  177.5980  137.6110 N   0  0  0  0  0  0  0  0  0  0  0  0
  188.6250  176.4480  136.8930 C   0  0  0  0  0  0  0  0  0  0  0  0
  189.7540  174.6840  136.3810 C   0  0  0  0  0  0  0  0  0  0  0  0
  189.5200  176.8120  139.5470 C   0  0  2  0  0  3  0  0  0  0  0  0
  188.8870  174.9430  135.3780 N   0  0  0  0  0  0  0  0  0  0  0  0
  188.1890  176.0310  135.6910 N   0  0  0  0  0  0  0  0  0  0  0  0
  190.3460  175.8760  138.6350 C   0  0  0  0  0  2  0  0  0  0  0  0
  187.0720  178.4110  137.1160 C   0  0  0  0  0  1  0  0  0  0  0  0
  190.7280  173.5580  136.3770 C   0  0  0  0  0  1  0  0  0  0  0  0
  188.9250  178.0250  138.7930 C   0  0  0  0  0  2  0  0  0  0  0  0
  189.5960  175.6250  137.3690 C   0  0  1  0  0  3  0  0  0  0  0  0
  184.8510  179.5220  145.0420 C   0  0  0  0  0  2  0  0  0  0  0  0
  187.9230  176.0680  143.2520 C   0  0  0  0  0  2  0  0  0  0  0  0
  186.7480  178.6940  143.0850 C   0  0  2  0  0  3  0  0  0  0  0  0
  187.3670  176.8140  144.4600 C   0  0  0  0  0  2  0  0  0  0  0  0
  185.8780  178.4030  145.2890 C   0  0  0  0  0  2  0  0  0  0  0  0
  188.3420  177.0480  142.2570 N   0  0  0  0  0  0  0  0  0  0  0  0
  184.4120  179.6330  143.5830 C   0  0  1  0  0  3  0  0  0  0  0  0
  186.2680  177.6990  144.0660 N   0  0  1  0  0  0  0  0  0  0  0  0
  185.6190  179.6300  142.6350 C   0  0  0  0  0  2  0  0  0  0  0  0
  187.3220  178.0050  141.8460 C   0  0  0  0  0  2  0  0  0  0  0  0
  183.4350  178.5200  143.2370 C   0  0  0  0  0  2  0  0  0  0  0  0
  183.4600  178.2370  141.7470 C   0  0  0  0  0  2  0  0  0  0  0  0
  182.1240  178.6180  141.1450 C   0  0  0  0  0  2  0  0  0  0  0  0
  183.7530  179.3730  139.4170 C   0  0  0  0  0  1  0  0  0  0  0  0
  182.2930  179.0720  139.7060 C   0  0  0  0  0  2  0  0  0  0  0  0
  1  3  1  0  0  0  0
  2  1  2  0  0  0  0
  4 23  1  0  0  0  0
  4  3  2  0  0  0  0
  5  6  2  0  0  0  0
  5  2  1  0  0  0  0
  6  4  1  0  0  0  0
  7 16  1  0  0  0  0
  8 17  1  0  0  0  0
  8  7  1  0  0  0  0
  9 17  1  0  0  0  0
 10  6  1  1  0  0  0
 11 12  1  0  0  0  0
 11  9  2  0  0  0  0
 12  8  2  0  0  0  0
 13 10  1  0  0  0  0
 14  7  1  0  0  0  0
 15  9  1  0  0  0  0
 16 10  1  0  0  0  0
 17 13  1  6  0  0  0
 18 22  1  0  0  0  0
 19 21  1  0  0  0  0
 20 27  1  6  0  0  0
 20 25  1  0  0  0  0
 23 19  1  0  0  0  0
 24 28  1  6  0  0  0
 24 18  1  0  0  0  0
 25 21  1  1  0  0  0
 25 22  1  0  0  0  0
 26 20  1  0  0  0  0
 26 24  1  0  0  0  0
 27 23  1  0  0  0  0
 29 28  1  0  0  0  0
 30 29  1  0  0  0  0
 31 32  1  0  0  0  0
 32 30  1  0  0  0  0
M  END
>  <MODEL>
5

>  <REMARK>
 VINA RESULT:      -6.7      3.020      6.371
  Name = 
  6 active torsions:
  status: ('A' for Active; 'I' for Inactive)
    1  A    between atoms: C_10  and  C_20
    2  A    between atoms: C_10  and  C_24
    3  A    between atoms: N_14  and  C_15
    4  A    between atoms: C_16  and  C_26
    5  A    between atoms: C_17  and  C_20
    6  A    between atoms: C_19  and  C_24
                            x       y       z     vdW  Elec       q    Type
                         _______ _______ _______ _____ _____    ______ ____

>  <TORSDO>
F 6

$$$$
=
 OpenBabel10262421393D

 32 36  0  0  1  0  0  0  0  0999 V2000
  188.5810  179.7320  137.2120 C   0  0  0  0  0  3  0  0  0  0  0  0
  187.9290  179.0560  136.1820 C   0  0  0  0  0  3  0  0  0  0  0  0
  189.0380  179.0290  138.3270 C   0  0  0  0  0  3  0  0  0  0  0  0
  188.8500  177.6410  138.4340 C   0  0  0  0  0  0  0  0  0  0  0  0
  187.7450  177.6760  136.2620 C   0  0  0  0  0  3  0  0  0  0  0  0
  188.2010  176.9560  137.3780 C   0  0  0  0  0  0  0  0  0  0  0  0
  186.4050  173.5970  137.2900 N   0  0  0  0  0  0  0  0  0  0  0  0
  187.4110  172.8170  136.6400 C   0  0  0  0  0  0  0  0  0  0  0  0
  189.2420  172.2930  135.6290 C   0  0  0  0  0  0  0  0  0  0  0  0
  188.0440  175.4650  137.3920 C   0  0  2  0  0  3  0  0  0  0  0  0
  188.4760  171.1850  135.7290 N   0  0  0  0  0  0  0  0  0  0  0  0
  187.3460  171.5050  136.3520 N   0  0  0  0  0  2  0  0  0  0  0  0
  188.9190  174.8020  136.3050 C   0  0  0  0  0  2  0  0  0  0  0  0
  185.1920  172.9840  137.8080 C   0  0  0  0  0  1  0  0  0  0  0  0
  190.5720  172.3350  134.9620 C   0  0  0  0  0  1  0  0  0  0  0  0
  186.5540  175.0550  137.3070 C   0  0  0  0  0  2  0  0  0  0  0  0
  188.5880  173.3490  136.2170 C   0  0  0  0  0  0  0  0  0  0  0  0
  191.2160  178.7310  144.0090 C   0  0  0  0  0  2  0  0  0  0  0  0
  190.6620  176.4010  139.6690 C   0  0  0  0  0  2  0  0  0  0  0  0
  189.5710  178.0050  141.8000 C   0  0  2  0  0  3  0  0  0  0  0  0
  191.5150  177.2880  140.5700 C   0  0  0  0  0  2  0  0  0  0  0  0
  191.7840  178.3310  142.6350 C   0  0  0  0  0  2  0  0  0  0  0  0
  189.3150  176.9580  139.6160 N   0  0  0  0  0  0  0  0  0  0  0  0
  189.8950  178.0420  144.3460 C   0  0  1  0  0  3  0  0  0  0  0  0
  190.9180  177.4060  141.9030 N   0  0  1  0  0  0  0  0  0  0  0  0
  188.9050  178.1300  143.1770 C   0  0  0  0  0  2  0  0  0  0  0  0
  188.6640  177.1590  140.9050 C   0  0  0  0  0  2  0  0  0  0  0  0
  190.1400  176.5970  144.7540 C   0  0  0  0  0  2  0  0  0  0  0  0
  190.5000  176.5140  146.2250 C   0  0  0  0  0  2  0  0  0  0  0  0
  189.2500  176.7140  147.0550 C   0  0  0  0  0  2  0  0  0  0  0  0
  188.0750  178.2720  148.6060 C   0  0  0  0  0  1  0  0  0  0  0  0
  189.4130  177.8950  147.9960 C   0  0  0  0  0  2  0  0  0  0  0  0
  1  3  1  0  0  0  0
  2  5  1  0  0  0  0
  2  1  2  0  0  0  0
  3  4  2  0  0  0  0
  4 23  1  0  0  0  0
  5  6  2  0  0  0  0
  6  4  1  0  0  0  0
  7 16  1  0  0  0  0
  7 14  1  0  0  0  0
  8  7  1  0  0  0  0
  9 11  2  0  0  0  0
  9 17  1  0  0  0  0
 10  6  1  6  0  0  0
 11 12  1  0  0  0  0
 12  8  1  0  0  0  0
 13 10  1  0  0  0  0
 15  9  1  0  0  0  0
 16 10  1  0  0  0  0
 17 13  1  0  0  0  0
 17  8  2  0  0  0  0
 18 24  1  0  0  0  0
 19 21  1  0  0  0  0
 20 27  1  6  0  0  0
 20 25  1  0  0  0  0
 20 26  1  0  0  0  0
 22 18  1  0  0  0  0
 23 19  1  0  0  0  0
 23 27  1  0  0  0  0
 24 28  1  6  0  0  0
 25 21  1  6  0  0  0
 25 22  1  0  0  0  0
 26 24  1  0  0  0  0
 28 29  1  0  0  0  0
 29 30  1  0  0  0  0
 30 32  1  0  0  0  0
 32 31  1  0  0  0  0
M  END
>  <MODEL>
6

>  <REMARK>
 VINA RESULT:      -6.7      5.503      9.705
  Name = 
  6 active torsions:
  status: ('A' for Active; 'I' for Inactive)
    1  A    between atoms: C_10  and  C_20
    2  A    between atoms: C_10  and  C_24
    3  A    between atoms: N_14  and  C_15
    4  A    between atoms: C_16  and  C_26
    5  A    between atoms: C_17  and  C_20
    6  A    between atoms: C_19  and  C_24
                            x       y       z     vdW  Elec       q    Type
                         _______ _______ _______ _____ _____    ______ ____

>  <TORSDO>
F 6

$$$$
=
 OpenBabel10262421393D

 32 36  0  0  1  0  0  0  0  0999 V2000
  187.7810  178.3520  138.1320 C   0  0  0  0  0  3  0  0  0  0  0  0
  186.4320  178.4780  137.8030 C   0  0  0  0  0  3  0  0  0  0  0  0
  188.1660  178.2390  139.4680 C   0  0  0  0  0  3  0  0  0  0  0  0
  187.2110  178.2540  140.4990 C   0  0  0  0  0  0  0  0  0  0  0  0
  185.4680  178.4790  138.8110 C   0  0  0  0  0  3  0  0  0  0  0  0
  185.8410  178.3660  140.1600 C   0  0  0  0  0  0  0  0  0  0  0  0
  183.9500  179.2990  143.3340 N   0  0  0  0  0  0  0  0  0  0  0  0
  182.6200  178.9960  142.9050 C   0  0  0  0  0  0  0  0  0  0  0  0
  180.9730  178.4180  141.6390 C   0  0  0  0  0  0  0  0  0  0  0  0
  184.7690  178.3030  141.2070 C   0  0  2  0  0  3  0  0  0  0  0  0
  180.4840  178.7500  142.8530 N   0  0  0  0  0  0  0  0  0  0  0  0
  181.4970  179.1080  143.6360 N   0  0  0  0  0  2  0  0  0  0  0  0
  183.3640  178.4190  140.5720 C   0  0  0  0  0  2  0  0  0  0  0  0
  184.2290  179.6880  144.7070 C   0  0  0  0  0  1  0  0  0  0  0  0
  180.1340  177.9940  140.4850 C   0  0  0  0  0  1  0  0  0  0  0  0
  185.0160  179.3400  142.3290 C   0  0  0  0  0  2  0  0  0  0  0  0
  182.3410  178.5530  141.6500 C   0  0  0  0  0  0  0  0  0  0  0  0
  191.7680  175.9610  143.9410 C   0  0  0  0  0  2  0  0  0  0  0  0
  187.1030  177.1490  142.7600 C   0  0  0  0  0  2  0  0  0  0  0  0
  189.9350  177.6350  142.5440 C   0  0  2  0  0  3  0  0  0  0  0  0
  188.1560  176.0660  142.9710 C   0  0  0  0  0  2  0  0  0  0  0  0
  190.3370  175.5230  143.5810 C   0  0  0  0  0  2  0  0  0  0  0  0
  187.6550  178.1620  141.8680 N   0  0  0  0  0  0  0  0  0  0  0  0
  191.9010  177.4630  144.1860 C   0  0  1  0  0  3  0  0  0  0  0  0
  189.3970  176.6410  143.4960 N   0  0  1  0  0  0  0  0  0  0  0  0
  191.2290  178.2720  143.0680 C   0  0  0  0  0  2  0  0  0  0  0  0
  188.9200  178.7510  142.2900 C   0  0  0  0  0  2  0  0  0  0  0  0
  191.3350  177.8310  145.5500 C   0  0  0  0  0  2  0  0  0  0  0  0
  191.5680  176.7060  146.5400 C   0  0  0  0  0  2  0  0  0  0  0  0
  190.3340  176.5390  147.4030 C   0  0  0  0  0  2  0  0  0  0  0  0
  188.6890  178.1870  148.2910 C   0  0  0  0  0  1  0  0  0  0  0  0
  189.2800  177.5690  147.0370 C   0  0  0  0  0  2  0  0  0  0  0  0
  1  3  1  0  0  0  0
  2  1  2  0  0  0  0
  2  5  1  0  0  0  0
  3  4  2  0  0  0  0
  4 23  1  0  0  0  0
  5  6  2  0  0  0  0
  6  4  1  0  0  0  0
  7 14  1  0  0  0  0
  8  7  1  0  0  0  0
  8 12  1  0  0  0  0
  9 17  1  0  0  0  0
  9 11  2  0  0  0  0
 10  6  1  6  0  0  0
 10 16  1  0  0  0  0
 11 12  1  0  0  0  0
 13 10  1  0  0  0  0
 13 17  1  0  0  0  0
 15  9  1  0  0  0  0
 16  7  1  0  0  0  0
 17  8  2  0  0  0  0
 18 24  1  0  0  0  0
 19 21  1  0  0  0  0
 20 27  1  1  0  0  0
 20 26  1  0  0  0  0
 20 25  1  0  0  0  0
 22 18  1  0  0  0  0
 23 27  1  0  0  0  0
 23 19  1  0  0  0  0
 24 28  1  1  0  0  0
 25 21  1  6  0  0  0
 25 22  1  0  0  0  0
 26 24  1  0  0  0  0
 28 29  1  0  0  0  0
 29 30  1  0  0  0  0
 32 30  1  0  0  0  0
 32 31  1  0  0  0  0
M  END
>  <MODEL>
7

>  <REMARK>
 VINA RESULT:      -6.5      3.110      9.603
  Name = 
  6 active torsions:
  status: ('A' for Active; 'I' for Inactive)
    1  A    between atoms: C_10  and  C_20
    2  A    between atoms: C_10  and  C_24
    3  A    between atoms: N_14  and  C_15
    4  A    between atoms: C_16  and  C_26
    5  A    between atoms: C_17  and  C_20
    6  A    between atoms: C_19  and  C_24
                            x       y       z     vdW  Elec       q    Type
                         _______ _______ _______ _____ _____    ______ ____

>  <TORSDO>
F 6

$$$$
=
 OpenBabel10262421393D

 32 36  0  0  1  0  0  0  0  0999 V2000
  188.4410  177.9590  135.5900 C   0  0  0  0  0  3  0  0  0  0  0  0
  187.7280  178.6380  136.5760 C   0  0  0  0  0  3  0  0  0  0  0  0
  189.4170  177.0290  135.9500 C   0  0  0  0  0  3  0  0  0  0  0  0
  189.7000  176.7650  137.3000 C   0  0  0  0  0  0  0  0  0  0  0  0
  187.9840  178.3800  137.9220 C   0  0  0  0  0  3  0  0  0  0  0  0
  188.9630  177.4460  138.2990 C   0  0  0  0  0  0  0  0  0  0  0  0
  190.7290  177.3500  141.6740 N   0  0  0  0  0  0  0  0  0  0  0  0
  189.5900  177.4500  142.5310 C   0  0  0  0  0  0  0  0  0  0  0  0
  187.5460  177.6760  143.1800 C   0  0  0  0  0  0  0  0  0  0  0  0
  189.1590  177.1490  139.7560 C   0  0  2  0  0  3  0  0  0  0  0  0
  188.3340  177.5810  144.2730 N   0  0  0  0  0  0  0  0  0  0  0  0
  189.5950  177.4420  143.8760 N   0  0  0  0  0  2  0  0  0  0  0  0
  187.9990  177.7200  140.6020 C   0  0  0  0  0  2  0  0  0  0  0  0
  192.0610  177.1250  142.2130 C   0  0  0  0  0  1  0  0  0  0  0  0
  186.0710  177.8720  143.2250 C   0  0  0  0  0  1  0  0  0  0  0  0
  190.5520  177.6130  140.2430 C   0  0  0  0  0  2  0  0  0  0  0  0
  188.3250  177.5810  142.0520 C   0  0  0  0  0  0  0  0  0  0  0  0
  194.5610  173.9010  134.8430 C   0  0  0  0  0  2  0  0  0  0  0  0
  190.4670  174.3830  137.5950 C   0  0  0  0  0  2  0  0  0  0  0  0
  192.8020  175.5420  136.3670 C   0  0  2  0  0  3  0  0  0  0  0  0
  191.1430  173.7940  136.3620 C   0  0  0  0  0  2  0  0  0  0  0  0
  193.0900  173.5330  135.1100 C   0  0  0  0  0  2  0  0  0  0  0  0
  190.7360  175.8160  137.6290 N   0  0  0  0  0  0  0  0  0  0  0  0
  195.1990  174.7150  135.9670 C   0  0  1  0  0  3  0  0  0  0  0  0
  192.5800  174.0810  136.3680 N   0  0  1  0  0  0  0  0  0  0  0  0
  194.2980  175.8830  136.3900 C   0  0  0  0  0  2  0  0  0  0  0  0
  192.1430  176.1940  137.5840 C   0  0  0  0  0  2  0  0  0  0  0  0
  195.5300  173.8180  137.1500 C   0  0  0  0  0  2  0  0  0  0  0  0
  196.5360  174.4940  138.0620 C   0  0  0  0  0  2  0  0  0  0  0  0
  195.9820  174.5360  139.4710 C   0  0  0  0  0  2  0  0  0  0  0  0
  198.3450  175.2550  139.8110 C   0  0  0  0  0  1  0  0  0  0  0  0
  196.9480  175.2420  140.4070 C   0  0  0  0  0  2  0  0  0  0  0  0
  1  3  2  0  0  0  0
  1  2  1  0  0  0  0
  2  5  2  0  0  0  0
  3  4  1  0  0  0  0
  4 23  1  0  0  0  0
  4  6  2  0  0  0  0
  5  6  1  0  0  0  0
  7 14  1  0  0  0  0
  7  8  1  0  0  0  0
  8 12  1  0  0  0  0
  9 15  1  0  0  0  0
  9 11  2  0  0  0  0
 10  6  1  6  0  0  0
 10 16  1  0  0  0  0
 10 13  1  0  0  0  0
 12 11  1  0  0  0  0
 13 17  1  0  0  0  0
 16  7  1  0  0  0  0
 17  8  2  0  0  0  0
 17  9  1  0  0  0  0
 18 22  1  0  0  0  0
 18 24  1  0  0  0  0
 19 23  1  0  0  0  0
 20 25  1  0  0  0  0
 20 26  1  1  0  0  0
 20 27  1  0  0  0  0
 21 25  1  0  0  0  0
 21 19  1  0  0  0  0
 24 26  1  0  0  0  0
 24 28  1  1  0  0  0
 25 22  1  6  0  0  0
 27 23  1  0  0  0  0
 28 29  1  0  0  0  0
 29 30  1  0  0  0  0
 30 32  1  0  0  0  0
 31 32  1  0  0  0  0
M  END
>  <MODEL>
8

>  <REMARK>
 VINA RESULT:      -6.3      5.079     10.849
  Name = 
  6 active torsions:
  status: ('A' for Active; 'I' for Inactive)
    1  A    between atoms: C_10  and  C_20
    2  A    between atoms: C_10  and  C_24
    3  A    between atoms: N_14  and  C_15
    4  A    between atoms: C_16  and  C_26
    5  A    between atoms: C_17  and  C_20
    6  A    between atoms: C_19  and  C_24
                            x       y       z     vdW  Elec       q    Type
                         _______ _______ _______ _____ _____    ______ ____

>  <TORSDO>
F 6

$$$$
=
 OpenBabel10262421393D

 32 36  0  0  1  0  0  0  0  0999 V2000
  188.9150  178.1780  135.8760 C   0  0  0  0  0  3  0  0  0  0  0  0
  188.3320  178.9800  136.8570 C   0  0  0  0  0  3  0  0  0  0  0  0
  189.6650  177.0610  136.2440 C   0  0  0  0  0  3  0  0  0  0  0  0
  189.8490  176.7270  137.5960 C   0  0  0  0  0  0  0  0  0  0  0  0
  188.4900  178.6560  138.2040 C   0  0  0  0  0  3  0  0  0  0  0  0
  189.2420  177.5350  138.5890 C   0  0  0  0  0  0  0  0  0  0  0  0
  190.7690  177.2840  142.0710 N   0  0  0  0  0  0  0  0  0  0  0  0
  189.5760  177.3840  142.8510 C   0  0  0  0  0  0  0  0  0  0  0  0
  187.4980  177.6390  143.3670 C   0  0  0  0  0  0  0  0  0  0  0  0
  189.3300  177.1850  140.0440 C   0  0  2  0  0  3  0  0  0  0  0  0
  188.2060  177.4880  144.5060 N   0  0  0  0  0  0  0  0  0  0  0  0
  189.4880  177.3320  144.1920 N   0  0  0  0  0  2  0  0  0  0  0  0
  188.1270  177.7560  140.8280 C   0  0  0  0  0  2  0  0  0  0  0  0
  192.0550  177.0090  142.6910 C   0  0  0  0  0  1  0  0  0  0  0  0
  186.0280  177.8700  143.3170 C   0  0  0  0  0  1  0  0  0  0  0  0
  190.6970  177.5980  140.6400 C   0  0  0  0  0  2  0  0  0  0  0  0
  188.3500  177.5620  142.2910 C   0  0  0  0  0  0  0  0  0  0  0  0
  194.6770  173.4790  135.5960 C   0  0  0  0  0  2  0  0  0  0  0  0
  190.2050  174.2330  137.5960 C   0  0  0  0  0  2  0  0  0  0  0  0
  192.8800  175.1500  137.0410 C   0  0  2  0  0  3  0  0  0  0  0  0
  191.0370  173.7270  136.4220 C   0  0  0  0  0  2  0  0  0  0  0  0
  193.1470  173.3290  135.5200 C   0  0  0  0  0  2  0  0  0  0  0  0
  190.6540  175.5790  137.9330 N   0  0  0  0  0  0  0  0  0  0  0  0
  195.1730  173.9990  136.9440 C   0  0  1  0  0  3  0  0  0  0  0  0
  192.4660  173.7640  136.7410 N   0  0  1  0  0  0  0  0  0  0  0  0
  194.3710  175.2260  137.3970 C   0  0  0  0  0  2  0  0  0  0  0  0
  192.0780  175.7160  138.2140 C   0  0  0  0  0  2  0  0  0  0  0  0
  195.1260  172.8930  137.9880 C   0  0  0  0  0  2  0  0  0  0  0  0
  196.0330  171.7460  137.5870 C   0  0  0  0  0  2  0  0  0  0  0  0
  195.3790  170.4360  137.9700 C   0  0  0  0  0  2  0  0  0  0  0  0
  195.0660  169.8910  135.5580 C   0  0  0  0  0  1  0  0  0  0  0  0
  194.3820  170.0040  136.9080 C   0  0  0  0  0  2  0  0  0  0  0  0
  1  3  2  0  0  0  0
  1  2  1  0  0  0  0
  2  5  2  0  0  0  0
  3  4  1  0  0  0  0
  4 23  1  0  0  0  0
  4  6  2  0  0  0  0
  5  6  1  0  0  0  0
  7 14  1  0  0  0  0
  7  8  1  0  0  0  0
  8 12  1  0  0  0  0
  9 11  2  0  0  0  0
 10  6  1  6  0  0  0
 10 16  1  0  0  0  0
 10 13  1  0  0  0  0
 12 11  1  0  0  0  0
 13 17  1  0  0  0  0
 15  9  1  0  0  0  0
 16  7  1  0  0  0  0
 17  8  2  0  0  0  0
 17  9  1  0  0  0  0
 18 24  1  0  0  0  0
 19 23  1  0  0  0  0
 20 26  1  1  0  0  0
 20 27  1  0  0  0  0
 21 25  1  0  0  0  0
 21 19  1  0  0  0  0
 22 18  1  0  0  0  0
 23 27  1  0  0  0  0
 24 26  1  0  0  0  0
 24 28  1  1  0  0  0
 25 22  1  6  0  0  0
 25 20  1  0  0  0  0
 29 30  1  0  0  0  0
 29 28  1  0  0  0  0
 31 32  1  0  0  0  0
 32 30  1  0  0  0  0
M  END
>  <MODEL>
9

>  <REMARK>
 VINA RESULT:      -6.3      5.376     10.986
  Name = 
  6 active torsions:
  status: ('A' for Active; 'I' for Inactive)
    1  A    between atoms: C_10  and  C_20
    2  A    between atoms: C_10  and  C_24
    3  A    between atoms: N_14  and  C_15
    4  A    between atoms: C_16  and  C_26
    5  A    between atoms: C_17  and  C_20
    6  A    between atoms: C_19  and  C_24
                            x       y       z     vdW  Elec       q    Type
                         _______ _______ _______ _____ _____    ______ ____

>  <TORSDO>
F 6

$$$$
