=
 OpenBabel10262421003D

 32 38  0  0  1  0  0  0  0  0999 V2000
  189.9960  177.1670  141.4500 C   0  0  1  0  0  3  0  0  0  0  0  0
  187.7200  177.6670  142.4920 C   0  0  0  0  0  0  0  0  0  0  0  0
  191.3970  177.5500  141.8500 C   0  0  0  0  0  3  0  0  0  0  0  0
  189.0520  177.2550  142.6350 C   0  0  0  0  0  0  0  0  0  0  0  0
  186.8750  177.6920  143.6210 C   0  0  0  0  0  0  0  0  0  0  0  0
  183.8890  179.3600  139.7360 C   0  0  0  0  0  2  0  0  0  0  0  0
  187.2230  178.0310  141.1150 C   0  0  2  0  0  3  0  0  0  0  0  0
  183.6910  178.8740  142.0750 O   0  0  0  0  0  0  0  0  0  0  0  0
  184.9160  178.1810  142.1030 C   0  0  2  0  0  3  0  0  0  0  0  0
  189.5370  176.9210  143.9080 C   0  0  0  0  0  0  0  0  0  0  0  0
  185.4710  178.2300  143.5220 C   0  0  0  0  0  2  0  0  0  0  0  0
  188.7080  176.9510  144.9820 N   0  0  0  0  0  0  0  0  0  0  0  0
  190.9780  176.5200  144.0720 C   0  0  0  0  0  2  0  0  0  0  0  0
  188.3220  178.8010  140.3860 C   0  0  0  0  0  2  0  0  0  0  0  0
  189.5520  177.9050  140.1660 C   0  0  2  0  0  3  0  0  0  0  0  0
  185.9170  178.8260  141.1280 C   0  0  2  0  0  3  0  0  0  0  0  0
  187.4020  177.3170  144.8730 C   0  0  0  0  0  0  0  0  0  0  0  0
  191.8530  177.2460  143.0760 C   0  0  0  0  0  3  0  0  0  0  0  0
  183.1060  178.6270  140.8210 C   0  0  0  0  0  2  0  0  0  0  0  0
  185.3150  178.8260  139.7190 C   0  0  0  0  0  2  0  0  0  0  0  0
  187.9100  176.3150  136.9420 C   0  0  2  0  0  3  0  0  0  0  0  0
  191.2250  175.6690  135.9220 C   0  0  0  0  0  1  0  0  0  0  0  0
  186.4780  175.8220  136.9870 C   0  0  0  0  0  1  0  0  0  0  0  0
  190.9780  175.1490  138.4060 C   0  0  0  0  0  2  0  0  0  0  0  0
  189.3080  176.9070  139.0200 C   0  0  2  0  0  3  0  0  0  0  0  0
  188.8660  175.1190  136.9530 C   0  0  0  0  0  2  0  0  0  0  0  0
  190.5830  176.6110  138.2190 C   0  0  2  0  0  3  0  0  0  0  0  0
  188.1520  177.3200  138.0820 C   0  0  1  0  0  3  0  0  0  0  0  0
  188.3700  178.7030  137.4860 C   0  0  0  0  0  1  0  0  0  0  0  0
  190.3100  175.5850  137.1260 C   0  0  2  0  0  0  0  0  0  0  0  0
  186.5670  177.3630  146.1100 C   0  0  0  0  0  2  0  0  0  0  0  0
  187.2320  178.0890  147.0980 O   0  0  0  0  0  1  0  0  0  0  0  0
  1  3  1  1  0  0  0
  1  4  1  0  0  0  0
  2  4  2  0  0  0  0
  2  5  1  0  0  0  0
  3 18  2  0  0  0  0
  4 10  1  0  0  0  0
  5 17  2  0  0  0  0
  6 19  1  0  0  0  0
  7 14  1  1  0  0  0
  7 16  1  0  0  0  0
  7  2  1  0  0  0  0
  8  9  1  0  0  0  0
  9 11  1  1  0  0  0
 10 13  1  0  0  0  0
 10 12  2  0  0  0  0
 11  5  1  0  0  0  0
 15 14  1  1  0  0  0
 15  1  1  0  0  0  0
 16 20  1  6  0  0  0
 16  9  1  0  0  0  0
 17 12  1  0  0  0  0
 17 31  1  0  0  0  0
 18 13  1  0  0  0  0
 19  8  1  0  0  0  0
 20  6  1  0  0  0  0
 21 26  1  0  0  0  0
 21 23  1  1  0  0  0
 21 28  1  0  0  0  0
 25 15  1  1  0  0  0
 26 30  1  0  0  0  0
 27 24  1  1  0  0  0
 27 25  1  0  0  0  0
 28 29  1  6  0  0  0
 28 25  1  0  0  0  0
 30 22  1  6  0  0  0
 30 27  1  0  0  0  0
 30 24  1  0  0  0  0
 31 32  1  0  0  0  0
M  END
>  <MODEL>
1

>  <REMARK>
 VINA RESULT:      -9.3      0.000      0.000
  Name = 
  2 active torsions:
  status: ('A' for Active; 'I' for Inactive)
    1  A    between atoms: C_13  and  CA_29
    2  A    between atoms: C_16  and  C_27
                            x       y       z     vdW  Elec       q    Type
                         _______ _______ _______ _____ _____    ______ ____

>  <TORSDO>
F 2

$$$$
=
 OpenBabel10262421003D

 32 38  0  0  1  0  0  0  0  0999 V2000
  187.8430  177.7890  139.6870 C   0  0  1  0  0  3  0  0  0  0  0  0
  187.7350  177.7370  142.2380 C   0  0  0  0  0  0  0  0  0  0  0  0
  188.8740  178.3280  138.7300 C   0  0  0  0  0  3  0  0  0  0  0  0
  188.4550  177.5320  141.0520 C   0  0  0  0  0  0  0  0  0  0  0  0
  188.3390  177.4430  143.4780 C   0  0  0  0  0  0  0  0  0  0  0  0
  183.6280  179.1930  144.7180 C   0  0  0  0  0  2  0  0  0  0  0  0
  186.3120  178.2280  142.1390 C   0  0  2  0  0  3  0  0  0  0  0  0
  185.5690  178.3160  145.8200 O   0  0  0  0  0  0  0  0  0  0  0  0
  186.1190  177.8380  144.6150 C   0  0  2  0  0  3  0  0  0  0  0  0
  189.7820  177.0840  141.1210 C   0  0  0  0  0  0  0  0  0  0  0  0
  187.6320  177.7510  144.7720 C   0  0  0  0  0  2  0  0  0  0  0  0
  190.3460  176.8060  142.3240 N   0  0  0  0  0  0  0  0  0  0  0  0
  190.5730  176.9040  139.8540 C   0  0  0  0  0  2  0  0  0  0  0  0
  186.2310  179.2740  141.0290 C   0  0  0  0  0  2  0  0  0  0  0  0
  186.5520  178.6380  139.6670 C   0  0  2  0  0  3  0  0  0  0  0  0
  185.7670  178.7850  143.4540 C   0  0  2  0  0  3  0  0  0  0  0  0
  189.6650  176.9650  143.4920 C   0  0  0  0  0  0  0  0  0  0  0  0
  190.1490  177.9130  138.8100 C   0  0  0  0  0  3  0  0  0  0  0  0
  184.1730  178.1780  145.7190 C   0  0  0  0  0  2  0  0  0  0  0  0
  184.2430  178.9100  143.3530 C   0  0  0  0  0  2  0  0  0  0  0  0
  182.8040  177.5570  139.0360 C   0  0  2  0  0  3  0  0  0  0  0  0
  183.8520  176.8850  135.7360 C   0  0  0  0  0  1  0  0  0  0  0  0
  181.9320  177.1330  140.2010 C   0  0  0  0  0  1  0  0  0  0  0  0
  185.6210  176.0650  137.3780 C   0  0  0  0  0  2  0  0  0  0  0  0
  185.3620  177.8090  139.1520 C   0  0  2  0  0  3  0  0  0  0  0  0
  183.2150  176.3240  138.2270 C   0  0  0  0  0  2  0  0  0  0  0  0
  185.4330  177.5560  137.6410 C   0  0  2  0  0  3  0  0  0  0  0  0
  183.9880  178.3940  139.5480 C   0  0  1  0  0  3  0  0  0  0  0  0
  183.8230  179.8300  139.0720 C   0  0  0  0  0  1  0  0  0  0  0  0
  184.2640  176.6930  137.1800 C   0  0  2  0  0  0  0  0  0  0  0  0
  190.3710  176.6770  144.7760 C   0  0  0  0  0  2  0  0  0  0  0  0
  191.6560  176.2070  144.5100 O   0  0  0  0  0  1  0  0  0  0  0  0
  1  3  1  6  0  0  0
  1  4  1  0  0  0  0
  2  5  1  0  0  0  0
  3 18  2  0  0  0  0
  4 10  1  0  0  0  0
  4  2  2  0  0  0  0
  5 17  2  0  0  0  0
  5 11  1  0  0  0  0
  6 19  1  0  0  0  0
  7 14  1  6  0  0  0
  7  2  1  0  0  0  0
  7 16  1  0  0  0  0
  9 11  1  1  0  0  0
  9  8  1  0  0  0  0
 10 12  2  0  0  0  0
 12 17  1  0  0  0  0
 13 10  1  0  0  0  0
 15  1  1  0  0  0  0
 15 14  1  1  0  0  0
 16 20  1  6  0  0  0
 16  9  1  0  0  0  0
 17 31  1  0  0  0  0
 18 13  1  0  0  0  0
 19  8  1  0  0  0  0
 20  6  1  0  0  0  0
 21 28  1  0  0  0  0
 21 23  1  1  0  0  0
 25 28  1  0  0  0  0
 25 15  1  6  0  0  0
 26 21  1  0  0  0  0
 27 24  1  1  0  0  0
 27 25  1  0  0  0  0
 28 29  1  6  0  0  0
 30 22  1  6  0  0  0
 30 24  1  0  0  0  0
 30 27  1  0  0  0  0
 30 26  1  0  0  0  0
 32 31  1  0  0  0  0
M  END
>  <MODEL>
2

>  <REMARK>
 VINA RESULT:      -8.5      1.937      4.232
  Name = 
  2 active torsions:
  status: ('A' for Active; 'I' for Inactive)
    1  A    between atoms: C_13  and  CA_29
    2  A    between atoms: C_16  and  C_27
                            x       y       z     vdW  Elec       q    Type
                         _______ _______ _______ _____ _____    ______ ____

>  <TORSDO>
F 2

$$$$
=
 OpenBabel10262421003D

 32 38  0  0  1  0  0  0  0  0999 V2000
  186.2110  178.1430  138.6970 C   0  0  1  0  0  3  0  0  0  0  0  0
  187.2900  177.9760  141.0050 C   0  0  0  0  0  0  0  0  0  0  0  0
  186.6390  178.8340  137.4290 C   0  0  0  0  0  3  0  0  0  0  0  0
  187.4000  177.9020  139.6090 C   0  0  0  0  0  0  0  0  0  0  0  0
  188.4180  177.7040  141.8070 C   0  0  0  0  0  0  0  0  0  0  0  0
  184.6750  178.8520  145.1920 C   0  0  0  0  0  2  0  0  0  0  0  0
  185.9450  178.3040  141.6040 C   0  0  2  0  0  3  0  0  0  0  0  0
  186.9700  178.1600  145.2150 O   0  0  0  0  0  0  0  0  0  0  0  0
  186.9440  177.7960  143.8550 C   0  0  2  0  0  3  0  0  0  0  0  0
  188.6440  177.6070  139.0310 C   0  0  0  0  0  0  0  0  0  0  0  0
  188.3610  177.8780  143.3020 C   0  0  0  0  0  2  0  0  0  0  0  0
  189.7170  177.3490  139.8200 N   0  0  0  0  0  0  0  0  0  0  0  0
  188.7760  177.5710  137.5330 C   0  0  0  0  0  2  0  0  0  0  0  0
  185.2770  179.3780  140.7480 C   0  0  0  0  0  2  0  0  0  0  0  0
  184.9880  178.8380  139.3380 C   0  0  2  0  0  3  0  0  0  0  0  0
  186.0200  178.7420  143.0670 C   0  0  2  0  0  3  0  0  0  0  0  0
  189.6380  177.3820  141.1780 C   0  0  0  0  0  0  0  0  0  0  0  0
  187.8380  178.5640  136.8870 C   0  0  0  0  0  3  0  0  0  0  0  0
  185.7010  177.8670  145.7450 C   0  0  0  0  0  2  0  0  0  0  0  0
  184.6160  178.6950  143.6770 C   0  0  0  0  0  2  0  0  0  0  0  0
  181.2440  177.6530  139.7720 C   0  0  2  0  0  3  0  0  0  0  0  0
  181.7470  175.9020  136.7520 C   0  0  0  0  0  1  0  0  0  0  0  0
  180.6040  177.6560  141.1460 C   0  0  0  0  0  1  0  0  0  0  0  0
  183.8060  175.6580  138.2360 C   0  0  0  0  0  2  0  0  0  0  0  0
  183.7700  177.8980  139.3460 C   0  0  2  0  0  3  0  0  0  0  0  0
  181.5700  176.2160  139.3600 C   0  0  0  0  0  2  0  0  0  0  0  0
  183.5950  177.1530  138.0170 C   0  0  2  0  0  3  0  0  0  0  0  0
  182.4560  178.6000  139.7610 C   0  0  1  0  0  3  0  0  0  0  0  0
  182.1450  179.7950  138.8710 C   0  0  0  0  0  1  0  0  0  0  0  0
  182.4070  176.2000  138.0820 C   0  0  2  0  0  0  0  0  0  0  0  0
  190.8750  177.1260  141.9730 C   0  0  0  0  0  2  0  0  0  0  0  0
  191.9950  177.5030  141.2330 O   0  0  0  0  0  1  0  0  0  0  0  0
  1  3  1  6  0  0  0
  1 15  1  0  0  0  0
  1  4  1  0  0  0  0
  2  7  1  0  0  0  0
  2  5  1  0  0  0  0
  4  2  2  0  0  0  0
  5 11  1  0  0  0  0
  6 19  1  0  0  0  0
  7 14  1  6  0  0  0
  7 16  1  0  0  0  0
  8 19  1  0  0  0  0
  9 11  1  6  0  0  0
  9  8  1  0  0  0  0
 10  4  1  0  0  0  0
 10 12  2  0  0  0  0
 12 17  1  0  0  0  0
 13 10  1  0  0  0  0
 15 14  1  1  0  0  0
 16 20  1  1  0  0  0
 16  9  1  0  0  0  0
 17  5  2  0  0  0  0
 17 31  1  0  0  0  0
 18  3  2  0  0  0  0
 18 13  1  0  0  0  0
 20  6  1  0  0  0  0
 21 23  1  1  0  0  0
 25 15  1  6  0  0  0
 25 28  1  0  0  0  0
 26 21  1  0  0  0  0
 27 30  1  0  0  0  0
 27 24  1  1  0  0  0
 27 25  1  0  0  0  0
 28 29  1  6  0  0  0
 28 21  1  0  0  0  0
 30 22  1  6  0  0  0
 30 24  1  0  0  0  0
 30 26  1  0  0  0  0
 32 31  1  0  0  0  0
M  END
>  <MODEL>
3

>  <REMARK>
 VINA RESULT:      -8.2      2.462      5.715
  Name = 
  2 active torsions:
  status: ('A' for Active; 'I' for Inactive)
    1  A    between atoms: C_13  and  CA_29
    2  A    between atoms: C_16  and  C_27
                            x       y       z     vdW  Elec       q    Type
                         _______ _______ _______ _____ _____    ______ ____

>  <TORSDO>
F 2

$$$$
=
 OpenBabel10262421003D

 32 38  0  0  1  0  0  0  0  0999 V2000
  183.2690  178.8290  140.3060 C   0  0  1  0  0  3  0  0  0  0  0  0
  185.5760  178.3160  139.3400 C   0  0  0  0  0  0  0  0  0  0  0  0
  182.5920  178.4080  141.5840 C   0  0  0  0  0  3  0  0  0  0  0  0
  184.7760  178.7020  140.4260 C   0  0  0  0  0  0  0  0  0  0  0  0
  186.9760  178.2530  139.4950 C   0  0  0  0  0  0  0  0  0  0  0  0
  186.1540  176.8080  134.5940 C   0  0  0  0  0  2  0  0  0  0  0  0
  184.9040  178.0230  138.0210 C   0  0  2  0  0  3  0  0  0  0  0  0
  188.0040  177.1900  136.0700 O   0  0  0  0  0  0  0  0  0  0  0  0
  187.2010  177.8630  137.0110 C   0  0  2  0  0  3  0  0  0  0  0  0
  185.3790  178.9700  141.6640 C   0  0  0  0  0  0  0  0  0  0  0  0
  187.8530  177.7410  138.3830 C   0  0  0  0  0  2  0  0  0  0  0  0
  186.7280  178.9040  141.7930 N   0  0  0  0  0  0  0  0  0  0  0  0
  184.5210  179.3410  142.8420 C   0  0  0  0  0  2  0  0  0  0  0  0
  183.6040  177.2700  138.2910 C   0  0  0  0  0  2  0  0  0  0  0  0
  182.6220  178.1570  139.0740 C   0  0  2  0  0  3  0  0  0  0  0  0
  185.7910  177.2480  137.0450 C   0  0  2  0  0  3  0  0  0  0  0  0
  187.5360  178.5630  140.7520 C   0  0  0  0  0  0  0  0  0  0  0  0
  183.1790  178.6490  142.7680 C   0  0  0  0  0  3  0  0  0  0  0  0
  187.4980  177.5030  134.7960 C   0  0  0  0  0  2  0  0  0  0  0  0
  185.1770  177.3210  135.6440 C   0  0  0  0  0  2  0  0  0  0  0  0
  180.4070  179.6590  136.1660 C   0  0  2  0  0  3  0  0  0  0  0  0
  179.4690  182.1040  138.5290 C   0  0  0  0  0  1  0  0  0  0  0  0
  180.7480  179.3560  134.7220 C   0  0  0  0  0  1  0  0  0  0  0  0
  181.9700  181.6470  138.7180 C   0  0  0  0  0  2  0  0  0  0  0  0
  181.9770  179.2100  138.1550 C   0  0  2  0  0  3  0  0  0  0  0  0
  180.8090  181.0980  136.4990 C   0  0  0  0  0  2  0  0  0  0  0  0
  181.2600  180.3150  138.9410 C   0  0  2  0  0  3  0  0  0  0  0  0
  181.0430  178.6010  137.0840 C   0  0  1  0  0  3  0  0  0  0  0  0
  179.9400  177.7560  137.7070 C   0  0  0  0  0  1  0  0  0  0  0  0
  180.6760  181.3600  137.9980 C   0  0  2  0  0  0  0  0  0  0  0  0
  189.0070  178.4720  140.9880 C   0  0  0  0  0  2  0  0  0  0  0  0
  189.2520  178.2530  142.3430 O   0  0  0  0  0  1  0  0  0  0  0  0
  1  4  1  0  0  0  0
  1  3  1  1  0  0  0
  2  5  2  0  0  0  0
  2  4  1  0  0  0  0
  3 18  2  0  0  0  0
  4 10  2  0  0  0  0
  5 17  1  0  0  0  0
  6 19  1  0  0  0  0
  6 20  1  0  0  0  0
  7 14  1  1  0  0  0
  7  2  1  0  0  0  0
  8  9  1  0  0  0  0
  9 16  1  0  0  0  0
  9 11  1  1  0  0  0
 10 12  1  0  0  0  0
 10 13  1  0  0  0  0
 11  5  1  0  0  0  0
 15 14  1  6  0  0  0
 15  1  1  0  0  0  0
 16 20  1  6  0  0  0
 16  7  1  0  0  0  0
 17 31  1  0  0  0  0
 17 12  2  0  0  0  0
 18 13  1  0  0  0  0
 19  8  1  0  0  0  0
 21 23  1  6  0  0  0
 21 26  1  0  0  0  0
 21 28  1  0  0  0  0
 25 27  1  0  0  0  0
 25 15  1  1  0  0  0
 26 30  1  0  0  0  0
 27 24  1  1  0  0  0
 28 29  1  1  0  0  0
 28 25  1  0  0  0  0
 30 22  1  1  0  0  0
 30 24  1  0  0  0  0
 30 27  1  0  0  0  0
 31 32  1  0  0  0  0
M  END
>  <MODEL>
4

>  <REMARK>
 VINA RESULT:      -7.4      3.271      7.345
  Name = 
  2 active torsions:
  status: ('A' for Active; 'I' for Inactive)
    1  A    between atoms: C_13  and  CA_29
    2  A    between atoms: C_16  and  C_27
                            x       y       z     vdW  Elec       q    Type
                         _______ _______ _______ _____ _____    ______ ____

>  <TORSDO>
F 2

$$$$
=
 OpenBabel10262421003D

 32 38  0  0  1  0  0  0  0  0999 V2000
  184.3700  178.6750  142.8700 C   0  0  1  0  0  3  0  0  0  0  0  0
  183.4740  178.1480  140.5380 C   0  0  0  0  0  0  0  0  0  0  0  0
  183.9300  179.6560  143.9240 C   0  0  0  0  0  3  0  0  0  0  0  0
  183.2400  178.3780  141.9010 C   0  0  0  0  0  0  0  0  0  0  0  0
  182.3910  177.8380  139.6900 C   0  0  0  0  0  0  0  0  0  0  0  0
  186.5150  177.8530  136.5630 C   0  0  0  0  0  2  0  0  0  0  0  0
  184.8940  178.2000  140.0330 C   0  0  2  0  0  3  0  0  0  0  0  0
  184.1610  177.4190  136.4330 O   0  0  0  0  0  0  0  0  0  0  0  0
  184.0290  177.3450  137.8320 C   0  0  2  0  0  3  0  0  0  0  0  0
  181.9260  178.3440  142.3910 C   0  0  0  0  0  0  0  0  0  0  0  0
  182.5920  177.6900  138.2050 C   0  0  0  0  0  2  0  0  0  0  0  0
  180.8970  178.0430  141.5580 N   0  0  0  0  0  0  0  0  0  0  0  0
  181.6670  178.6330  143.8440 C   0  0  0  0  0  2  0  0  0  0  0  0
  185.6190  179.3510  140.7270 C   0  0  0  0  0  2  0  0  0  0  0  0
  185.7200  179.0880  142.2390 C   0  0  2  0  0  3  0  0  0  0  0  0
  184.9960  178.3310  138.5120 C   0  0  2  0  0  3  0  0  0  0  0  0
  181.0920  177.7840  140.2360 C   0  0  0  0  0  0  0  0  0  0  0  0
  182.6660  179.6340  144.3780 C   0  0  0  0  0  3  0  0  0  0  0  0
  185.4230  176.8890  136.1090 C   0  0  0  0  0  2  0  0  0  0  0  0
  186.4290  178.0090  138.0760 C   0  0  0  0  0  2  0  0  0  0  0  0
  189.1510  177.1450  141.9750 C   0  0  2  0  0  3  0  0  0  0  0  0
  189.1100  177.1730  145.5020 C   0  0  0  0  0  1  0  0  0  0  0  0
  189.4870  176.3720  140.7160 C   0  0  0  0  0  1  0  0  0  0  0  0
  186.7740  176.6540  144.6240 C   0  0  0  0  0  2  0  0  0  0  0  0
  186.8070  178.0430  142.5450 C   0  0  2  0  0  3  0  0  0  0  0  0
  188.7720  176.1690  143.0920 C   0  0  0  0  0  2  0  0  0  0  0  0
  187.1780  178.0010  144.0330 C   0  0  2  0  0  3  0  0  0  0  0  0
  188.0700  178.1960  141.6670 C   0  0  1  0  0  3  0  0  0  0  0  0
  188.6810  179.5850  141.7880 C   0  0  0  0  0  1  0  0  0  0  0  0
  188.2220  176.9230  144.3010 C   0  0  2  0  0  0  0  0  0  0  0  0
  179.9020  177.5020  139.3800 C   0  0  0  0  0  2  0  0  0  0  0  0
  179.5900  176.1440  139.4440 O   0  0  0  0  0  1  0  0  0  0  0  0
  1  3  1  1  0  0  0
  2  4  1  0  0  0  0
  3 18  2  0  0  0  0
  4 10  2  0  0  0  0
  4  1  1  0  0  0  0
  5 17  1  0  0  0  0
  5  2  2  0  0  0  0
  6 20  1  0  0  0  0
  7  2  1  0  0  0  0
  7 14  1  1  0  0  0
  8  9  1  0  0  0  0
  9 11  1  6  0  0  0
  9 16  1  0  0  0  0
 10 13  1  0  0  0  0
 11  5  1  0  0  0  0
 12 10  1  0  0  0  0
 13 18  1  0  0  0  0
 15 14  1  6  0  0  0
 15  1  1  0  0  0  0
 16 20  1  6  0  0  0
 16  7  1  0  0  0  0
 17 12  2  0  0  0  0
 19  8  1  0  0  0  0
 19  6  1  0  0  0  0
 21 23  1  6  0  0  0
 21 26  1  0  0  0  0
 25 15  1  1  0  0  0
 25 27  1  0  0  0  0
 26 30  1  0  0  0  0
 27 30  1  0  0  0  0
 27 24  1  1  0  0  0
 28 29  1  1  0  0  0
 28 21  1  0  0  0  0
 28 25  1  0  0  0  0
 30 24  1  0  0  0  0
 30 22  1  1  0  0  0
 31 32  1  0  0  0  0
 31 17  1  0  0  0  0
M  END
>  <MODEL>
5

>  <REMARK>
 VINA RESULT:      -7.2      3.334      6.561
  Name = 
  2 active torsions:
  status: ('A' for Active; 'I' for Inactive)
    1  A    between atoms: C_13  and  CA_29
    2  A    between atoms: C_16  and  C_27
                            x       y       z     vdW  Elec       q    Type
                         _______ _______ _______ _____ _____    ______ ____

>  <TORSDO>
F 2

$$$$
=
 OpenBabel10262421003D

 32 38  0  0  1  0  0  0  0  0999 V2000
  185.7630  178.1180  140.4880 C   0  0  1  0  0  3  0  0  0  0  0  0
  184.3350  178.4050  142.5860 C   0  0  0  0  0  0  0  0  0  0  0  0
  187.0930  178.6970  140.0840 C   0  0  0  0  0  3  0  0  0  0  0  0
  185.5850  178.1710  141.9940 C   0  0  0  0  0  0  0  0  0  0  0  0
  184.2200  178.4030  143.9910 C   0  0  0  0  0  0  0  0  0  0  0  0
  179.4330  179.4180  142.3030 C   0  0  0  0  0  2  0  0  0  0  0  0
  183.1410  178.6080  141.6860 C   0  0  2  0  0  3  0  0  0  0  0  0
  180.5710  179.0750  144.3850 O   0  0  0  0  0  0  0  0  0  0  0  0
  181.7090  178.5410  143.7520 C   0  0  2  0  0  3  0  0  0  0  0  0
  186.7100  177.9880  142.8120 C   0  0  0  0  0  0  0  0  0  0  0  0
  182.9160  178.7560  144.6580 C   0  0  0  0  0  2  0  0  0  0  0  0
  186.5780  177.9900  144.1620 N   0  0  0  0  0  0  0  0  0  0  0  0
  188.0600  177.7800  142.1820 C   0  0  0  0  0  2  0  0  0  0  0  0
  183.5680  179.4560  140.4900 C   0  0  0  0  0  2  0  0  0  0  0  0
  184.6090  178.7050  139.6430 C   0  0  2  0  0  3  0  0  0  0  0  0
  181.9420  179.2350  142.3990 C   0  0  2  0  0  3  0  0  0  0  0  0
  185.3750  178.1830  144.7680 C   0  0  0  0  0  0  0  0  0  0  0  0
  188.1660  178.5370  140.8770 C   0  0  0  0  0  3  0  0  0  0  0  0
  179.4540  178.6710  143.6340 C   0  0  0  0  0  2  0  0  0  0  0  0
  180.6950  179.0640  141.5260 C   0  0  0  0  0  2  0  0  0  0  0  0
  181.7700  176.7420  137.7190 C   0  0  2  0  0  3  0  0  0  0  0  0
  184.1800  176.3210  135.1780 C   0  0  0  0  0  1  0  0  0  0  0  0
  180.6190  176.1290  138.4900 C   0  0  0  0  0  1  0  0  0  0  0  0
  185.2680  175.9660  137.4550 C   0  0  0  0  0  2  0  0  0  0  0  0
  183.9410  177.6080  138.7960 C   0  0  2  0  0  3  0  0  0  0  0  0
  182.7320  175.6400  137.2680 C   0  0  0  0  0  2  0  0  0  0  0  0
  184.6690  177.3690  137.4670 C   0  0  2  0  0  3  0  0  0  0  0  0
  182.4320  177.8450  138.5620 C   0  0  1  0  0  3  0  0  0  0  0  0
  182.1640  179.1950  137.9120 C   0  0  0  0  0  1  0  0  0  0  0  0
  184.0050  176.2450  136.6800 C   0  0  2  0  0  0  0  0  0  0  0  0
  185.3220  178.2120  146.2600 C   0  0  0  0  0  2  0  0  0  0  0  0
  185.6340  179.4930  146.7160 O   0  0  0  0  0  1  0  0  0  0  0  0
  1  3  1  1  0  0  0
  1  4  1  0  0  0  0
  2  5  1  0  0  0  0
  3 18  2  0  0  0  0
  4  2  2  0  0  0  0
  4 10  1  0  0  0  0
  5 11  1  0  0  0  0
  5 17  2  0  0  0  0
  6 19  1  0  0  0  0
  7 14  1  6  0  0  0
  7 16  1  0  0  0  0
  7  2  1  0  0  0  0
  9  8  1  0  0  0  0
  9 11  1  1  0  0  0
 10 12  2  0  0  0  0
 12 17  1  0  0  0  0
 13 10  1  0  0  0  0
 15  1  1  0  0  0  0
 15 14  1  1  0  0  0
 16 20  1  6  0  0  0
 16  9  1  0  0  0  0
 17 31  1  0  0  0  0
 18 13  1  0  0  0  0
 19  8  1  0  0  0  0
 20  6  1  0  0  0  0
 21 23  1  1  0  0  0
 21 28  1  0  0  0  0
 25 15  1  6  0  0  0
 26 21  1  0  0  0  0
 27 24  1  1  0  0  0
 27 25  1  0  0  0  0
 28 29  1  6  0  0  0
 28 25  1  0  0  0  0
 30 22  1  6  0  0  0
 30 26  1  0  0  0  0
 30 24  1  0  0  0  0
 30 27  1  0  0  0  0
 31 32  1  0  0  0  0
M  END
>  <MODEL>
6

>  <REMARK>
 VINA RESULT:      -7.2      2.781      4.697
  Name = 
  2 active torsions:
  status: ('A' for Active; 'I' for Inactive)
    1  A    between atoms: C_13  and  CA_29
    2  A    between atoms: C_16  and  C_27
                            x       y       z     vdW  Elec       q    Type
                         _______ _______ _______ _____ _____    ______ ____

>  <TORSDO>
F 2

$$$$
=
 OpenBabel10262421003D

 32 38  0  0  1  0  0  0  0  0999 V2000
  186.2700  178.2530  139.9910 C   0  0  1  0  0  3  0  0  0  0  0  0
  187.5700  177.2040  138.0590 C   0  0  0  0  0  0  0  0  0  0  0  0
  185.2770  179.3830  140.0440 C   0  0  0  0  0  3  0  0  0  0  0  0
  186.3610  177.6790  138.5890 C   0  0  0  0  0  0  0  0  0  0  0  0
  187.5900  176.6440  136.7650 C   0  0  0  0  0  0  0  0  0  0  0  0
  192.5060  176.3780  138.3640 C   0  0  0  0  0  2  0  0  0  0  0  0
  188.8070  177.2710  138.9200 C   0  0  2  0  0  3  0  0  0  0  0  0
  191.1960  175.7370  136.4610 O   0  0  0  0  0  0  0  0  0  0  0  0
  189.9820  175.9300  137.1470 C   0  0  2  0  0  3  0  0  0  0  0  0
  185.2000  177.6340  137.8030 C   0  0  0  0  0  0  0  0  0  0  0  0
  188.8880  176.2230  136.1280 C   0  0  0  0  0  2  0  0  0  0  0  0
  185.2400  177.0920  136.5590 N   0  0  0  0  0  0  0  0  0  0  0  0
  183.9110  178.1830  138.3500 C   0  0  0  0  0  2  0  0  0  0  0  0
  188.7990  178.5920  139.6870 C   0  0  0  0  0  2  0  0  0  0  0  0
  187.6090  178.6420  140.6580 C   0  0  2  0  0  3  0  0  0  0  0  0
  190.1070  177.1060  138.1320 C   0  0  2  0  0  3  0  0  0  0  0  0
  186.3900  176.5940  136.0270 C   0  0  0  0  0  0  0  0  0  0  0  0
  184.1740  179.3480  139.2770 C   0  0  0  0  0  3  0  0  0  0  0  0
  192.1280  175.2580  137.3990 C   0  0  0  0  0  2  0  0  0  0  0  0
  191.2530  176.8230  139.1080 C   0  0  0  0  0  2  0  0  0  0  0  0
  189.6290  176.7670  143.4900 C   0  0  2  0  0  3  0  0  0  0  0  0
  187.1210  177.9520  145.6680 C   0  0  0  0  0  1  0  0  0  0  0  0
  190.5590  175.6270  143.1270 C   0  0  0  0  0  1  0  0  0  0  0  0
  186.0560  177.1420  143.4980 C   0  0  0  0  0  2  0  0  0  0  0  0
  187.8730  177.7710  141.8990 C   0  0  2  0  0  3  0  0  0  0  0  0
  188.3570  176.2080  144.1330 C   0  0  0  0  0  2  0  0  0  0  0  0
  187.0610  178.2250  143.1190 C   0  0  2  0  0  3  0  0  0  0  0  0
  189.3720  177.6430  142.2520 C   0  0  1  0  0  3  0  0  0  0  0  0
  190.0230  179.0030  142.4630 C   0  0  0  0  0  1  0  0  0  0  0  0
  187.3150  177.3100  144.3110 C   0  0  2  0  0  0  0  0  0  0  0  0
  186.3580  176.0510  134.6370 C   0  0  0  0  0  2  0  0  0  0  0  0
  185.9400  174.7210  134.6620 O   0  0  0  0  0  1  0  0  0  0  0  0
  1  3  1  6  0  0  0
  1 15  1  0  0  0  0
  2  4  1  0  0  0  0
  2  7  1  0  0  0  0
  4  1  1  0  0  0  0
  5  2  2  0  0  0  0
  6 20  1  0  0  0  0
  7 14  1  6  0  0  0
  8  9  1  0  0  0  0
  8 19  1  0  0  0  0
  9 11  1  6  0  0  0
  9 16  1  0  0  0  0
 10 13  1  0  0  0  0
 10  4  2  0  0  0  0
 11  5  1  0  0  0  0
 12 10  1  0  0  0  0
 13 18  1  0  0  0  0
 15 14  1  6  0  0  0
 16  7  1  0  0  0  0
 16 20  1  1  0  0  0
 17 12  2  0  0  0  0
 17  5  1  0  0  0  0
 18  3  2  0  0  0  0
 19  6  1  0  0  0  0
 21 23  1  6  0  0  0
 21 26  1  0  0  0  0
 24 30  1  0  0  0  0
 25 15  1  6  0  0  0
 25 28  1  0  0  0  0
 25 27  1  0  0  0  0
 26 30  1  0  0  0  0
 27 24  1  6  0  0  0
 27 30  1  0  0  0  0
 28 29  1  1  0  0  0
 28 21  1  0  0  0  0
 30 22  1  1  0  0  0
 31 32  1  0  0  0  0
 31 17  1  0  0  0  0
M  END
>  <MODEL>
7

>  <REMARK>
 VINA RESULT:      -6.7      3.249      7.536
  Name = 
  2 active torsions:
  status: ('A' for Active; 'I' for Inactive)
    1  A    between atoms: C_13  and  CA_29
    2  A    between atoms: C_16  and  C_27
                            x       y       z     vdW  Elec       q    Type
                         _______ _______ _______ _____ _____    ______ ____

>  <TORSDO>
F 2

$$$$
=
 OpenBabel10262421003D

 32 38  0  0  1  0  0  0  0  0999 V2000
  185.8570  178.0570  137.9420 C   0  0  1  0  0  3  0  0  0  0  0  0
  185.7720  178.3760  140.4740 C   0  0  0  0  0  0  0  0  0  0  0  0
  186.7530  178.6370  136.8800 C   0  0  0  0  0  3  0  0  0  0  0  0
  186.5140  178.1400  139.3080 C   0  0  0  0  0  0  0  0  0  0  0  0
  186.4280  178.4040  141.7220 C   0  0  0  0  0  0  0  0  0  0  0  0
  181.4640  179.3440  142.8510 C   0  0  0  0  0  2  0  0  0  0  0  0
  184.2780  178.5510  140.3520 C   0  0  2  0  0  3  0  0  0  0  0  0
  183.5470  179.0540  144.0020 O   0  0  0  0  0  0  0  0  0  0  0  0
  184.1780  178.5160  142.8650 C   0  0  2  0  0  3  0  0  0  0  0  0
  187.9050  177.9830  139.3970 C   0  0  0  0  0  0  0  0  0  0  0  0
  185.6780  178.7600  142.9790 C   0  0  0  0  0  2  0  0  0  0  0  0
  188.5180  178.0130  140.6070 N   0  0  0  0  0  0  0  0  0  0  0  0
  188.7100  177.7730  138.1440 C   0  0  0  0  0  2  0  0  0  0  0  0
  183.9820  179.3760  139.1020 C   0  0  0  0  0  2  0  0  0  0  0  0
  184.4200  178.6160  137.8400 C   0  0  2  0  0  3  0  0  0  0  0  0
  183.6360  179.1830  141.5880 C   0  0  2  0  0  3  0  0  0  0  0  0
  187.8230  178.2100  141.7610 C   0  0  0  0  0  0  0  0  0  0  0  0
  188.0860  178.5030  136.9760 C   0  0  0  0  0  3  0  0  0  0  0  0
  182.2080  178.6250  143.9730 C   0  0  0  0  0  2  0  0  0  0  0  0
  182.1190  178.9830  141.5230 C   0  0  0  0  0  2  0  0  0  0  0  0
  181.9660  176.3880  135.6880 C   0  0  2  0  0  3  0  0  0  0  0  0
  183.4680  173.6510  137.3290 C   0  0  0  0  0  1  0  0  0  0  0  0
  180.6920  176.9890  135.1300 C   0  0  0  0  0  1  0  0  0  0  0  0
  183.0570  175.5310  139.0020 C   0  0  0  0  0  2  0  0  0  0  0  0
  183.4220  177.4950  137.4980 C   0  0  2  0  0  3  0  0  0  0  0  0
  181.6300  175.4790  136.8720 C   0  0  0  0  0  2  0  0  0  0  0  0
  183.9390  176.1070  137.8980 C   0  0  2  0  0  3  0  0  0  0  0  0
  182.9670  177.5070  136.0210 C   0  0  1  0  0  3  0  0  0  0  0  0
  184.1470  177.4200  135.0620 C   0  0  0  0  0  1  0  0  0  0  0  0
  182.9040  175.0330  137.5860 C   0  0  2  0  0  0  0  0  0  0  0  0
  188.5780  178.2710  143.0480 C   0  0  0  0  0  2  0  0  0  0  0  0
  188.5520  177.0210  143.6670 O   0  0  0  0  0  1  0  0  0  0  0  0
  1  3  1  6  0  0  0
  1  4  1  0  0  0  0
  2  5  1  0  0  0  0
  3 18  2  0  0  0  0
  4 10  1  0  0  0  0
  4  2  2  0  0  0  0
  5 17  2  0  0  0  0
  5 11  1  0  0  0  0
  6 19  1  0  0  0  0
  7 14  1  6  0  0  0
  7  2  1  0  0  0  0
  7 16  1  0  0  0  0
  9 11  1  1  0  0  0
  9  8  1  0  0  0  0
 10 12  2  0  0  0  0
 12 17  1  0  0  0  0
 13 10  1  0  0  0  0
 15  1  1  0  0  0  0
 15 14  1  1  0  0  0
 16 20  1  6  0  0  0
 16  9  1  0  0  0  0
 17 31  1  0  0  0  0
 18 13  1  0  0  0  0
 19  8  1  0  0  0  0
 20  6  1  0  0  0  0
 21 23  1  1  0  0  0
 21 28  1  0  0  0  0
 21 26  1  0  0  0  0
 25 15  1  6  0  0  0
 25 27  1  0  0  0  0
 26 30  1  0  0  0  0
 27 24  1  1  0  0  0
 28 29  1  6  0  0  0
 28 25  1  0  0  0  0
 30 22  1  6  0  0  0
 30 27  1  0  0  0  0
 30 24  1  0  0  0  0
 31 32  1  0  0  0  0
M  END
>  <MODEL>
8

>  <REMARK>
 VINA RESULT:      -6.6      2.797      5.160
  Name = 
  2 active torsions:
  status: ('A' for Active; 'I' for Inactive)
    1  A    between atoms: C_13  and  CA_29
    2  A    between atoms: C_16  and  C_27
                            x       y       z     vdW  Elec       q    Type
                         _______ _______ _______ _____ _____    ______ ____

>  <TORSDO>
F 2

$$$$
=
 OpenBabel10262421003D

 32 38  0  0  1  0  0  0  0  0999 V2000
  187.7670  178.0850  145.8660 C   0  0  1  0  0  3  0  0  0  0  0  0
  187.0890  178.0780  143.4040 C   0  0  0  0  0  0  0  0  0  0  0  0
  187.3560  178.9540  147.0250 C   0  0  0  0  0  3  0  0  0  0  0  0
  186.7300  178.1350  144.7590 C   0  0  0  0  0  0  0  0  0  0  0  0
  186.0820  178.0880  142.4170 C   0  0  0  0  0  0  0  0  0  0  0  0
  190.5090  177.8810  139.7430 C   0  0  0  0  0  2  0  0  0  0  0  0
  188.5520  177.9660  143.0520 C   0  0  2  0  0  3  0  0  0  0  0  0
  188.1500  177.8760  139.3190 O   0  0  0  0  0  0  0  0  0  0  0  0
  187.8400  177.6140  140.6670 C   0  0  2  0  0  3  0  0  0  0  0  0
  185.3770  178.2490  145.1080 C   0  0  0  0  0  0  0  0  0  0  0  0
  186.4370  178.1360  140.9540 C   0  0  0  0  0  2  0  0  0  0  0  0
  184.4220  178.2560  144.1430 N   0  0  0  0  0  0  0  0  0  0  0  0
  184.9900  178.3530  146.5580 C   0  0  0  0  0  2  0  0  0  0  0  0
  189.3530  178.8580  143.9970 C   0  0  0  0  0  2  0  0  0  0  0  0
  189.2290  178.3550  145.4450 C   0  0  2  0  0  3  0  0  0  0  0  0
  188.8550  178.3070  141.5930 C   0  0  2  0  0  3  0  0  0  0  0  0
  184.7340  178.1720  142.8210 C   0  0  0  0  0  0  0  0  0  0  0  0
  186.0570  179.0780  147.3470 C   0  0  0  0  0  3  0  0  0  0  0  0
  189.3460  177.1960  139.0310 C   0  0  0  0  0  2  0  0  0  0  0  0
  190.2650  177.8170  141.2460 C   0  0  0  0  0  2  0  0  0  0  0  0
  192.0090  175.6250  144.7850 C   0  0  2  0  0  3  0  0  0  0  0  0
  192.7440  175.9540  148.2190 C   0  0  0  0  0  1  0  0  0  0  0  0
  191.8850  174.6920  143.5980 C   0  0  0  0  0  1  0  0  0  0  0  0
  190.2170  175.9440  147.8820 C   0  0  0  0  0  2  0  0  0  0  0  0
  190.1010  177.1070  145.6710 C   0  0  2  0  0  3  0  0  0  0  0  0
  191.6770  174.8660  146.0720 C   0  0  0  0  0  2  0  0  0  0  0  0
  190.7680  177.1000  147.0530 C   0  0  2  0  0  3  0  0  0  0  0  0
  191.1450  176.8770  144.5550 C   0  0  1  0  0  3  0  0  0  0  0  0
  192.0560  178.0820  144.3720 C   0  0  0  0  0  1  0  0  0  0  0  0
  191.5830  175.8280  147.2540 C   0  0  2  0  0  0  0  0  0  0  0  0
  183.6280  178.2280  141.8200 C   0  0  0  0  0  2  0  0  0  0  0  0
  182.4480  178.6290  142.4470 O   0  0  0  0  0  1  0  0  0  0  0  0
  1  3  1  1  0  0  0
  2  4  1  0  0  0  0
  3 18  2  0  0  0  0
  4 10  2  0  0  0  0
  4  1  1  0  0  0  0
  5 17  1  0  0  0  0
  5  2  2  0  0  0  0
  6 20  1  0  0  0  0
  7  2  1  0  0  0  0
  7 14  1  1  0  0  0
  8  9  1  0  0  0  0
  9 11  1  1  0  0  0
  9 16  1  0  0  0  0
 10 13  1  0  0  0  0
 11  5  1  0  0  0  0
 12 10  1  0  0  0  0
 13 18  1  0  0  0  0
 15 14  1  6  0  0  0
 15  1  1  0  0  0  0
 16 20  1  6  0  0  0
 16  7  1  0  0  0  0
 17 12  2  0  0  0  0
 19  8  1  0  0  0  0
 19  6  1  0  0  0  0
 21 23  1  6  0  0  0
 21 26  1  0  0  0  0
 25 15  1  6  0  0  0
 25 27  1  0  0  0  0
 26 30  1  0  0  0  0
 27 30  1  0  0  0  0
 27 24  1  1  0  0  0
 28 29  1  1  0  0  0
 28 21  1  0  0  0  0
 28 25  1  0  0  0  0
 30 24  1  0  0  0  0
 30 22  1  1  0  0  0
 31 32  1  0  0  0  0
 31 17  1  0  0  0  0
M  END
>  <MODEL>
9

>  <REMARK>
 VINA RESULT:      -6.4      2.289      6.524
  Name = 
  2 active torsions:
  status: ('A' for Active; 'I' for Inactive)
    1  A    between atoms: C_13  and  CA_29
    2  A    between atoms: C_16  and  C_27
                            x       y       z     vdW  Elec       q    Type
                         _______ _______ _______ _____ _____    ______ ____

>  <TORSDO>
F 2

$$$$
