=
 OpenBabel10262419253D

 31 35  0  0  1  0  0  0  0  0999 V2000
  185.5810  178.8720  146.0300 C   0  0  0  0  0  0  0  0  0  0  0  0
  188.6490  177.5690  144.2420 C   0  0  0  0  0  0  0  0  0  0  0  0
  189.5740  177.1750  145.2460 C   0  0  0  0  0  0  0  0  0  0  0  0
  190.0830  176.4490  147.5170 C   0  0  0  0  0  3  0  0  0  0  0  0
  187.1450  177.6720  144.5040 C   0  0  1  0  0  3  0  0  0  0  0  0
  184.5350  178.9790  144.9440 C   0  0  0  0  0  2  0  0  0  0  0  0
  189.1570  176.8210  146.5410 C   0  0  0  0  0  3  0  0  0  0  0  0
  188.2010  178.0170  141.8400 N   0  0  0  0  0  0  0  0  0  0  0  0
  185.3060  179.4140  147.2780 O   0  0  0  0  0  1  0  0  0  0  0  0
  191.4100  177.3900  143.6570 C   0  0  0  0  0  3  0  0  0  0  0  0
  192.3440  176.0640  148.1630 F   0  0  0  0  0  0  0  0  0  0  0  0
  186.7760  177.7930  142.0410 C   0  0  0  0  0  2  0  0  0  0  0  0
  189.1270  177.7650  142.9180 C   0  0  0  0  0  0  0  0  0  0  0  0
  186.7870  178.3300  145.8110 C   0  0  0  0  0  3  0  0  0  0  0  0
  191.4450  176.4230  147.2150 C   0  0  0  0  0  0  0  0  0  0  0  0
  186.3880  178.3840  143.3790 C   0  0  1  0  0  3  0  0  0  0  0  0
  184.8990  178.2420  143.6480 C   0  0  0  0  0  2  0  0  0  0  0  0
  190.5010  177.6990  142.6510 C   0  0  0  0  0  3  0  0  0  0  0  0
  190.9580  177.1150  144.9450 C   0  0  0  0  0  0  0  0  0  0  0  0
  191.8820  176.7500  145.9300 C   0  0  0  0  0  3  0  0  0  0  0  0
  188.6360  178.6360  140.5940 C   0  0  0  0  0  2  0  0  0  0  0  0
  191.1060  174.4330  137.2940 C   0  0  2  0  0  3  0  0  0  0  0  0
  190.5420  177.4510  139.4400 N   0  0  0  0  0  2  0  0  0  0  0  0
  193.2170  175.7220  137.5430 C   0  0  0  0  0  3  0  0  0  0  0  0
  188.3080  176.8210  139.0920 O   0  0  0  0  0  0  0  0  0  0  0  0
  190.2150  173.9210  136.3690 F   0  0  0  0  0  0  0  0  0  0  0  0
  189.1330  177.5920  139.6540 C   0  0  0  0  0  0  0  0  0  0  0  0
  190.4730  175.5230  138.0430 N   0  0  0  0  0  0  0  0  0  0  0  0
  192.6400  176.4710  138.4850 C   0  0  0  0  0  3  0  0  0  0  0  0
  191.1730  176.4450  138.6420 C   0  0  0  0  0  0  0  0  0  0  0  0
  192.3740  174.9210  136.5900 C   0  0  0  0  0  2  0  0  0  0  0  0
  1  9  1  0  0  0  0
  2  5  1  0  0  0  0
  2  3  1  0  0  0  0
  3  7  1  0  0  0  0
  5 14  1  1  0  0  0
  6  1  1  0  0  0  0
  7  4  2  0  0  0  0
  8 12  1  0  0  0  0
  8 13  1  0  0  0  0
 10 19  1  0  0  0  0
 13  2  2  0  0  0  0
 14  1  2  0  0  0  0
 15  4  1  0  0  0  0
 15 11  1  0  0  0  0
 16 12  1  6  0  0  0
 16 17  1  0  0  0  0
 16  5  1  0  0  0  0
 17  6  1  0  0  0  0
 18 13  1  0  0  0  0
 18 10  2  0  0  0  0
 19  3  2  0  0  0  0
 19 20  1  0  0  0  0
 20 15  2  0  0  0  0
 21  8  1  0  0  0  0
 22 26  1  6  0  0  0
 22 28  1  0  0  0  0
 23 27  1  0  0  0  0
 24 29  2  0  0  0  0
 25 27  2  0  0  0  0
 27 21  1  0  0  0  0
 28 30  2  0  0  0  0
 29 30  1  0  0  0  0
 30 23  1  0  0  0  0
 31 22  1  0  0  0  0
 31 24  1  0  0  0  0
M  END
>  <MODEL>
1

>  <REMARK>
 VINA RESULT:     -11.5      0.000      0.000
  Name = 
  2 active torsions:
  status: ('A' for Active; 'I' for Inactive)
    1  A    between atoms: C_9  and  C_23
    2  A    between atoms: N_15  and  C_23
                            x       y       z     vdW  Elec       q    Type
                         _______ _______ _______ _____ _____    ______ ____

>  <TORSDO>
F 2

$$$$
=
 OpenBabel10262419253D

 31 35  0  0  1  0  0  0  0  0999 V2000
  185.5720  178.8520  146.0800 C   0  0  0  0  0  0  0  0  0  0  0  0
  188.6240  177.5900  144.2380 C   0  0  0  0  0  0  0  0  0  0  0  0
  189.5550  177.1660  145.2260 C   0  0  0  0  0  0  0  0  0  0  0  0
  190.0760  176.3780  147.4730 C   0  0  0  0  0  3  0  0  0  0  0  0
  187.1220  177.6890  144.5120 C   0  0  1  0  0  3  0  0  0  0  0  0
  184.5190  178.9920  145.0030 C   0  0  0  0  0  2  0  0  0  0  0  0
  189.1440  176.7780  146.5130 C   0  0  0  0  0  3  0  0  0  0  0  0
  188.1630  178.1040  141.8520 N   0  0  0  0  0  0  0  0  0  0  0  0
  185.3060  179.3620  147.3440 O   0  0  0  0  0  1  0  0  0  0  0  0
  191.3810  177.4190  143.6310 C   0  0  0  0  0  3  0  0  0  0  0  0
  192.3390  175.9690  148.0940 F   0  0  0  0  0  0  0  0  0  0  0  0
  186.7390  177.8780  142.0560 C   0  0  0  0  0  2  0  0  0  0  0  0
  189.0950  177.8200  142.9160 C   0  0  0  0  0  0  0  0  0  0  0  0
  186.7740  178.3130  145.8380 C   0  0  0  0  0  3  0  0  0  0  0  0
  191.4360  176.3570  147.1620 C   0  0  0  0  0  0  0  0  0  0  0  0
  186.3610  178.4340  143.4110 C   0  0  1  0  0  3  0  0  0  0  0  0
  184.8730  178.2890  143.6860 C   0  0  0  0  0  2  0  0  0  0  0  0
  190.4670  177.7580  142.6400 C   0  0  0  0  0  3  0  0  0  0  0  0
  190.9370  177.1110  144.9140 C   0  0  0  0  0  0  0  0  0  0  0  0
  191.8660  176.7160  145.8830 C   0  0  0  0  0  3  0  0  0  0  0  0
  188.5920  178.7550  140.6210 C   0  0  0  0  0  2  0  0  0  0  0  0
  187.9850  175.5800  135.7000 C   0  0  2  0  0  3  0  0  0  0  0  0
  187.5800  178.1590  138.3870 N   0  0  0  0  0  2  0  0  0  0  0  0
  186.0580  177.0650  135.1880 C   0  0  0  0  0  3  0  0  0  0  0  0
  189.1260  176.7530  139.4530 O   0  0  0  0  0  0  0  0  0  0  0  0
  188.3560  174.2630  135.8940 F   0  0  0  0  0  0  0  0  0  0  0  0
  188.4490  177.8160  139.4720 C   0  0  0  0  0  0  0  0  0  0  0  0
  188.0830  176.3150  136.9650 N   0  0  0  0  0  0  0  0  0  0  0  0
  186.4300  177.8780  136.1790 C   0  0  0  0  0  3  0  0  0  0  0  0
  187.4070  177.4080  137.1800 C   0  0  0  0  0  0  0  0  0  0  0  0
  186.5620  175.6490  135.1390 C   0  0  0  0  0  2  0  0  0  0  0  0
  1  9  1  0  0  0  0
  2  5  1  0  0  0  0
  2  3  1  0  0  0  0
  3  7  1  0  0  0  0
  5 14  1  1  0  0  0
  6  1  1  0  0  0  0
  7  4  2  0  0  0  0
  8 12  1  0  0  0  0
  8 13  1  0  0  0  0
 10 19  1  0  0  0  0
 13  2  2  0  0  0  0
 14  1  2  0  0  0  0
 15  4  1  0  0  0  0
 15 11  1  0  0  0  0
 16 12  1  6  0  0  0
 16 17  1  0  0  0  0
 16  5  1  0  0  0  0
 17  6  1  0  0  0  0
 18 13  1  0  0  0  0
 18 10  2  0  0  0  0
 19  3  2  0  0  0  0
 19 20  1  0  0  0  0
 20 15  2  0  0  0  0
 21  8  1  0  0  0  0
 22 26  1  1  0  0  0
 22 28  1  0  0  0  0
 23 27  1  0  0  0  0
 24 29  2  0  0  0  0
 25 27  2  0  0  0  0
 27 21  1  0  0  0  0
 28 30  2  0  0  0  0
 29 30  1  0  0  0  0
 30 23  1  0  0  0  0
 31 24  1  0  0  0  0
 31 22  1  0  0  0  0
M  END
>  <MODEL>
2

>  <REMARK>
 VINA RESULT:     -11.4      1.982      2.507
  Name = 
  2 active torsions:
  status: ('A' for Active; 'I' for Inactive)
    1  A    between atoms: C_9  and  C_23
    2  A    between atoms: N_15  and  C_23
                            x       y       z     vdW  Elec       q    Type
                         _______ _______ _______ _____ _____    ______ ____

>  <TORSDO>
F 2

$$$$
=
 OpenBabel10262419253D

 31 35  0  0  1  0  0  0  0  0999 V2000
  185.4050  178.9480  146.3640 C   0  0  0  0  0  0  0  0  0  0  0  0
  188.0780  177.6480  144.0240 C   0  0  0  0  0  0  0  0  0  0  0  0
  189.1920  177.2900  144.8310 C   0  0  0  0  0  0  0  0  0  0  0  0
  190.1590  176.6260  146.9690 C   0  0  0  0  0  3  0  0  0  0  0  0
  186.6550  177.7350  144.5800 C   0  0  1  0  0  3  0  0  0  0  0  0
  184.1610  179.0150  145.5060 C   0  0  0  0  0  2  0  0  0  0  0  0
  189.0490  176.9610  146.1900 C   0  0  0  0  0  3  0  0  0  0  0  0
  187.1510  178.0330  141.7520 N   0  0  0  0  0  0  0  0  0  0  0  0
  185.3740  179.5160  147.6300 O   0  0  0  0  0  1  0  0  0  0  0  0
  190.6690  177.4950  142.9030 C   0  0  0  0  0  3  0  0  0  0  0  0
  192.5090  176.2890  147.1570 F   0  0  0  0  0  0  0  0  0  0  0  0
  185.8000  177.7920  142.2390 C   0  0  0  0  0  2  0  0  0  0  0  0
  188.2780  177.8190  142.6280 C   0  0  0  0  0  0  0  0  0  0  0  0
  186.5530  178.4190  145.9180 C   0  0  0  0  0  3  0  0  0  0  0  0
  191.4330  176.6130  146.4010 C   0  0  0  0  0  0  0  0  0  0  0  0
  185.6760  178.4100  143.6150 C   0  0  1  0  0  3  0  0  0  0  0  0
  184.2730  178.2530  144.1790 C   0  0  0  0  0  2  0  0  0  0  0  0
  189.5720  177.7670  142.0930 C   0  0  0  0  0  3  0  0  0  0  0  0
  190.4890  177.2440  144.2610 C   0  0  0  0  0  0  0  0  0  0  0  0
  191.5980  176.9150  145.0480 C   0  0  0  0  0  3  0  0  0  0  0  0
  187.3170  178.6280  140.4320 C   0  0  0  0  0  2  0  0  0  0  0  0
  182.0660  178.5470  137.7720 C   0  0  2  0  0  3  0  0  0  0  0  0
  185.6310  177.8800  138.7100 N   0  0  0  0  0  2  0  0  0  0  0  0
  183.1190  177.0090  136.1250 C   0  0  0  0  0  3  0  0  0  0  0  0
  185.1870  179.6560  140.1780 O   0  0  0  0  0  0  0  0  0  0  0  0
  181.4080  179.7540  137.9050 F   0  0  0  0  0  0  0  0  0  0  0  0
  185.9900  178.7740  139.7690 C   0  0  0  0  0  0  0  0  0  0  0  0
  183.3950  178.6340  138.3840 N   0  0  0  0  0  0  0  0  0  0  0  0
  184.1760  176.8830  136.9310 C   0  0  0  0  0  3  0  0  0  0  0  0
  184.3660  177.8370  138.0400 C   0  0  0  0  0  0  0  0  0  0  0  0
  182.1730  178.1660  136.2920 C   0  0  0  0  0  2  0  0  0  0  0  0
  1  9  1  0  0  0  0
  2  5  1  0  0  0  0
  2  3  1  0  0  0  0
  3  7  1  0  0  0  0
  5 14  1  1  0  0  0
  6  1  1  0  0  0  0
  7  4  2  0  0  0  0
  8 12  1  0  0  0  0
  8 13  1  0  0  0  0
 10 19  1  0  0  0  0
 13  2  2  0  0  0  0
 14  1  2  0  0  0  0
 15  4  1  0  0  0  0
 15 11  1  0  0  0  0
 16 12  1  6  0  0  0
 16 17  1  0  0  0  0
 16  5  1  0  0  0  0
 17  6  1  0  0  0  0
 18 13  1  0  0  0  0
 18 10  2  0  0  0  0
 19  3  2  0  0  0  0
 19 20  1  0  0  0  0
 20 15  2  0  0  0  0
 21  8  1  0  0  0  0
 22 26  1  6  0  0  0
 22 28  1  0  0  0  0
 23 27  1  0  0  0  0
 24 31  1  0  0  0  0
 24 29  2  0  0  0  0
 27 25  2  0  0  0  0
 27 21  1  0  0  0  0
 29 30  1  0  0  0  0
 30 28  2  0  0  0  0
 30 23  1  0  0  0  0
 31 22  1  0  0  0  0
M  END
>  <MODEL>
3

>  <REMARK>
 VINA RESULT:     -10.2      3.601      4.700
  Name = 
  2 active torsions:
  status: ('A' for Active; 'I' for Inactive)
    1  A    between atoms: C_9  and  C_23
    2  A    between atoms: N_15  and  C_23
                            x       y       z     vdW  Elec       q    Type
                         _______ _______ _______ _____ _____    ______ ____

>  <TORSDO>
F 2

$$$$
=
 OpenBabel10262419253D

 31 35  0  0  1  0  0  0  0  0999 V2000
  189.6190  176.9420  140.7080 C   0  0  0  0  0  0  0  0  0  0  0  0
  188.3130  177.7590  144.1620 C   0  0  0  0  0  0  0  0  0  0  0  0
  189.3390  177.4100  145.0830 C   0  0  0  0  0  0  0  0  0  0  0  0
  191.6800  176.9930  145.6170 C   0  0  0  0  0  3  0  0  0  0  0  0
  188.5980  178.0590  142.6890 C   0  0  1  0  0  3  0  0  0  0  0  0
  188.6370  177.6090  139.7710 C   0  0  0  0  0  2  0  0  0  0  0  0
  190.6900  177.3510  144.7000 C   0  0  0  0  0  3  0  0  0  0  0  0
  185.9560  178.4460  143.7850 N   0  0  0  0  0  0  0  0  0  0  0  0
  190.5690  176.0810  140.1750 O   0  0  0  0  0  1  0  0  0  0  0  0
  187.6910  177.2420  146.8720 C   0  0  0  0  0  3  0  0  0  0  0  0
  192.2970  176.3400  147.8230 F   0  0  0  0  0  0  0  0  0  0  0  0
  186.3080  179.0260  142.4960 C   0  0  0  0  0  2  0  0  0  0  0  0
  186.9930  177.9460  144.6550 C   0  0  0  0  0  0  0  0  0  0  0  0
  189.5620  177.1020  142.0370 C   0  0  0  0  0  3  0  0  0  0  0  0
  191.3370  176.6880  146.9350 C   0  0  0  0  0  0  0  0  0  0  0  0
  187.3280  178.1250  141.8350 C   0  0  1  0  0  3  0  0  0  0  0  0
  187.7140  178.6280  140.4540 C   0  0  0  0  0  2  0  0  0  0  0  0
  186.6970  177.6600  145.9940 C   0  0  0  0  0  3  0  0  0  0  0  0
  189.0080  177.1280  146.4320 C   0  0  0  0  0  0  0  0  0  0  0  0
  190.0030  176.7620  147.3440 C   0  0  0  0  0  3  0  0  0  0  0  0
  184.5450  178.2530  144.0950 C   0  0  0  0  0  2  0  0  0  0  0  0
  181.1710  179.1640  139.3580 C   0  0  2  0  0  3  0  0  0  0  0  0
  183.7790  177.8790  141.7200 N   0  0  0  0  0  2  0  0  0  0  0  0
  182.6750  177.5620  138.1950 C   0  0  0  0  0  3  0  0  0  0  0  0
  182.9200  179.6250  143.0310 O   0  0  0  0  0  0  0  0  0  0  0  0
  180.6770  180.4550  139.3240 F   0  0  0  0  0  0  0  0  0  0  0  0
  183.7080  178.6470  142.9270 C   0  0  0  0  0  0  0  0  0  0  0  0
  182.0610  179.0030  140.5120 N   0  0  0  0  0  0  0  0  0  0  0  0
  183.2120  177.2250  139.3690 C   0  0  0  0  0  3  0  0  0  0  0  0
  182.9770  178.0760  140.5510 C   0  0  0  0  0  0  0  0  0  0  0  0
  181.9080  178.8480  138.0540 C   0  0  0  0  0  2  0  0  0  0  0  0
  1 14  2  0  0  0  0
  2 13  2  0  0  0  0
  2  3  1  0  0  0  0
  3 19  1  0  0  0  0
  4 15  2  0  0  0  0
  5 14  1  6  0  0  0
  5  2  1  0  0  0  0
  6 17  1  0  0  0  0
  6  1  1  0  0  0  0
  7  3  2  0  0  0  0
  7  4  1  0  0  0  0
  8 21  1  0  0  0  0
  8 13  1  0  0  0  0
  9  1  1  0  0  0  0
 12  8  1  0  0  0  0
 13 18  1  0  0  0  0
 15 20  1  0  0  0  0
 15 11  1  0  0  0  0
 16 17  1  6  0  0  0
 16 12  1  0  0  0  0
 16  5  1  0  0  0  0
 18 10  2  0  0  0  0
 19 10  1  0  0  0  0
 19 20  2  0  0  0  0
 22 26  1  6  0  0  0
 22 28  1  0  0  0  0
 23 27  1  0  0  0  0
 24 29  2  0  0  0  0
 27 25  2  0  0  0  0
 27 21  1  0  0  0  0
 28 30  2  0  0  0  0
 29 30  1  0  0  0  0
 30 23  1  0  0  0  0
 31 24  1  0  0  0  0
 31 22  1  0  0  0  0
M  END
>  <MODEL>
4

>  <REMARK>
 VINA RESULT:     -10.1      3.565      6.383
  Name = 
  2 active torsions:
  status: ('A' for Active; 'I' for Inactive)
    1  A    between atoms: C_9  and  C_23
    2  A    between atoms: N_15  and  C_23
                            x       y       z     vdW  Elec       q    Type
                         _______ _______ _______ _____ _____    ______ ____

>  <TORSDO>
F 2

$$$$
=
 OpenBabel10262419253D

 31 35  0  0  1  0  0  0  0  0999 V2000
  189.6490  176.9030  140.2300 C   0  0  0  0  0  0  0  0  0  0  0  0
  187.7120  177.9240  143.3140 C   0  0  0  0  0  0  0  0  0  0  0  0
  188.5480  177.6550  144.4320 C   0  0  0  0  0  0  0  0  0  0  0  0
  190.7490  177.3130  145.4240 C   0  0  0  0  0  3  0  0  0  0  0  0
  188.2680  178.1310  141.9030 C   0  0  1  0  0  3  0  0  0  0  0  0
  188.8580  177.4900  139.0830 C   0  0  0  0  0  2  0  0  0  0  0  0
  189.9470  177.5930  144.3150 C   0  0  0  0  0  3  0  0  0  0  0  0
  185.4660  178.5450  142.4550 N   0  0  0  0  0  0  0  0  0  0  0  0
  190.6860  176.0240  139.9450 O   0  0  0  0  0  1  0  0  0  0  0  0
  186.5940  177.5770  145.8880 C   0  0  0  0  0  3  0  0  0  0  0  0
  190.9420  176.8190  147.7460 F   0  0  0  0  0  0  0  0  0  0  0  0
  186.0520  179.0440  141.2190 C   0  0  0  0  0  2  0  0  0  0  0  0
  186.3220  178.1210  143.5370 C   0  0  0  0  0  0  0  0  0  0  0  0
  189.3420  177.1490  141.5110 C   0  0  0  0  0  3  0  0  0  0  0  0
  190.1640  177.0910  146.6710 C   0  0  0  0  0  0  0  0  0  0  0  0
  187.1820  178.1180  140.8240 C   0  0  1  0  0  3  0  0  0  0  0  0
  187.8190  178.5350  139.5090 C   0  0  0  0  0  2  0  0  0  0  0  0
  185.7810  177.9190  144.8130 C   0  0  0  0  0  3  0  0  0  0  0  0
  187.9700  177.4570  145.7120 C   0  0  0  0  0  0  0  0  0  0  0  0
  188.7780  177.1690  146.8170 C   0  0  0  0  0  3  0  0  0  0  0  0
  184.0230  178.3480  142.5080 C   0  0  0  0  0  2  0  0  0  0  0  0
  182.1210  178.3310  136.9370 C   0  0  2  0  0  3  0  0  0  0  0  0
  182.9410  179.3330  140.4520 N   0  0  0  0  0  2  0  0  0  0  0  0
  181.2090  180.5930  137.4250 C   0  0  0  0  0  3  0  0  0  0  0  0
  183.5390  177.0670  140.5640 O   0  0  0  0  0  0  0  0  0  0  0  0
  181.7800  177.0590  136.5180 F   0  0  0  0  0  0  0  0  0  0  0  0
  183.4790  178.1920  141.1290 C   0  0  0  0  0  0  0  0  0  0  0  0
  182.5190  178.3000  138.3470 N   0  0  0  0  0  0  0  0  0  0  0  0
  181.8960  180.6130  138.5700 C   0  0  0  0  0  3  0  0  0  0  0  0
  182.4670  179.3620  139.1010 C   0  0  0  0  0  0  0  0  0  0  0  0
  180.9450  179.2880  136.7240 C   0  0  0  0  0  2  0  0  0  0  0  0
  1 14  2  0  0  0  0
  2 13  2  0  0  0  0
  2  3  1  0  0  0  0
  3 19  1  0  0  0  0
  4 15  2  0  0  0  0
  5 14  1  6  0  0  0
  5  2  1  0  0  0  0
  6 17  1  0  0  0  0
  6  1  1  0  0  0  0
  7  3  2  0  0  0  0
  7  4  1  0  0  0  0
  8 21  1  0  0  0  0
  8 13  1  0  0  0  0
  9  1  1  0  0  0  0
 12  8  1  0  0  0  0
 13 18  1  0  0  0  0
 15 20  1  0  0  0  0
 15 11  1  0  0  0  0
 16 17  1  6  0  0  0
 16 12  1  0  0  0  0
 16  5  1  0  0  0  0
 18 10  2  0  0  0  0
 19 10  1  0  0  0  0
 19 20  2  0  0  0  0
 22 26  1  1  0  0  0
 22 28  1  0  0  0  0
 23 27  1  0  0  0  0
 24 29  2  0  0  0  0
 25 27  2  0  0  0  0
 27 21  1  0  0  0  0
 28 30  2  0  0  0  0
 29 30  1  0  0  0  0
 30 23  1  0  0  0  0
 31 22  1  0  0  0  0
 31 24  1  0  0  0  0
M  END
>  <MODEL>
5

>  <REMARK>
 VINA RESULT:      -9.9      3.897      6.516
  Name = 
  2 active torsions:
  status: ('A' for Active; 'I' for Inactive)
    1  A    between atoms: C_9  and  C_23
    2  A    between atoms: N_15  and  C_23
                            x       y       z     vdW  Elec       q    Type
                         _______ _______ _______ _____ _____    ______ ____

>  <TORSDO>
F 2

$$$$
=
 OpenBabel10262419253D

 31 35  0  0  1  0  0  0  0  0999 V2000
  185.2180  178.9480  145.9450 C   0  0  0  0  0  0  0  0  0  0  0  0
  186.7600  178.0280  142.6160 C   0  0  0  0  0  0  0  0  0  0  0  0
  188.0990  177.6280  142.8790 C   0  0  0  0  0  0  0  0  0  0  0  0
  189.8180  176.7700  144.3790 C   0  0  0  0  0  3  0  0  0  0  0  0
  185.6660  177.9940  143.6850 C   0  0  1  0  0  3  0  0  0  0  0  0
  183.7390  179.0600  145.6510 C   0  0  0  0  0  2  0  0  0  0  0  0
  188.4940  177.1440  144.1380 C   0  0  0  0  0  3  0  0  0  0  0  0
  185.0230  178.6250  140.9440 N   0  0  0  0  0  0  0  0  0  0  0  0
  185.6870  179.3700  147.1810 O   0  0  0  0  0  1  0  0  0  0  0  0
  188.7080  178.1070  140.5670 C   0  0  0  0  0  3  0  0  0  0  0  0
  192.0540  176.5100  143.5990 F   0  0  0  0  0  0  0  0  0  0  0  0
  183.9670  178.2770  141.8840 C   0  0  0  0  0  2  0  0  0  0  0  0
  186.4010  178.3620  141.2820 C   0  0  0  0  0  0  0  0  0  0  0  0
  186.0980  178.5200  145.0300 C   0  0  0  0  0  3  0  0  0  0  0  0
  190.7700  176.8720  143.3640 C   0  0  0  0  0  0  0  0  0  0  0  0
  184.3930  178.7320  143.2630 C   0  0  1  0  0  3  0  0  0  0  0  0
  183.3200  178.4560  144.3040 C   0  0  0  0  0  2  0  0  0  0  0  0
  187.3840  178.4220  140.2850 C   0  0  0  0  0  3  0  0  0  0  0  0
  189.0700  177.6980  141.8490 C   0  0  0  0  0  0  0  0  0  0  0  0
  190.3960  177.3300  142.0990 C   0  0  0  0  0  3  0  0  0  0  0  0
  184.6640  179.3710  139.7440 C   0  0  0  0  0  2  0  0  0  0  0  0
  182.5930  175.3400  135.9870 C   0  0  2  0  0  3  0  0  0  0  0  0
  184.8410  177.5990  137.9550 N   0  0  0  0  0  2  0  0  0  0  0  0
  184.9410  175.1190  135.2000 C   0  0  0  0  0  3  0  0  0  0  0  0
  182.7650  178.4340  138.6620 O   0  0  0  0  0  0  0  0  0  0  0  0
  181.3050  175.6340  135.5800 F   0  0  0  0  0  0  0  0  0  0  0  0
  184.0210  178.4610  138.7530 C   0  0  0  0  0  0  0  0  0  0  0  0
  183.0940  176.4030  136.8620 N   0  0  0  0  0  0  0  0  0  0  0  0
  185.3510  175.8390  136.2470 C   0  0  0  0  0  3  0  0  0  0  0  0
  184.3690  176.6130  137.0300 C   0  0  0  0  0  0  0  0  0  0  0  0
  183.5020  175.1640  134.7670 C   0  0  0  0  0  2  0  0  0  0  0  0
  1  9  1  0  0  0  0
  2  3  1  0  0  0  0
  2  5  1  0  0  0  0
  3  7  1  0  0  0  0
  5 14  1  1  0  0  0
  6  1  1  0  0  0  0
  7  4  2  0  0  0  0
  8 13  1  0  0  0  0
  8 12  1  0  0  0  0
 10 19  1  0  0  0  0
 13  2  2  0  0  0  0
 14  1  2  0  0  0  0
 15 11  1  0  0  0  0
 15  4  1  0  0  0  0
 16 12  1  6  0  0  0
 16  5  1  0  0  0  0
 16 17  1  0  0  0  0
 17  6  1  0  0  0  0
 18 10  2  0  0  0  0
 18 13  1  0  0  0  0
 19 20  1  0  0  0  0
 19  3  2  0  0  0  0
 20 15  2  0  0  0  0
 21  8  1  0  0  0  0
 22 26  1  6  0  0  0
 22 28  1  0  0  0  0
 23 27  1  0  0  0  0
 24 29  2  0  0  0  0
 25 27  2  0  0  0  0
 27 21  1  0  0  0  0
 28 30  2  0  0  0  0
 29 30  1  0  0  0  0
 30 23  1  0  0  0  0
 31 24  1  0  0  0  0
 31 22  1  0  0  0  0
M  END
>  <MODEL>
6

>  <REMARK>
 VINA RESULT:      -9.5      4.024      4.968
  Name = 
  2 active torsions:
  status: ('A' for Active; 'I' for Inactive)
    1  A    between atoms: C_9  and  C_23
    2  A    between atoms: N_15  and  C_23
                            x       y       z     vdW  Elec       q    Type
                         _______ _______ _______ _____ _____    ______ ____

>  <TORSDO>
F 2

$$$$
=
 OpenBabel10262419253D

 31 35  0  0  1  0  0  0  0  0999 V2000
  186.5900  178.6440  140.4550 C   0  0  0  0  0  0  0  0  0  0  0  0
  189.4710  177.5680  142.6570 C   0  0  0  0  0  0  0  0  0  0  0  0
  188.9840  177.5490  143.9920 C   0  0  0  0  0  0  0  0  0  0  0  0
  187.1570  177.3900  145.5990 C   0  0  0  0  0  3  0  0  0  0  0  0
  188.5470  177.4560  141.4430 C   0  0  1  0  0  3  0  0  0  0  0  0
  187.0660  178.3490  139.0510 C   0  0  0  0  0  2  0  0  0  0  0  0
  187.6170  177.3920  144.2800 C   0  0  0  0  0  3  0  0  0  0  0  0
  191.4140  177.4450  141.1150 N   0  0  0  0  0  0  0  0  0  0  0  0
  185.4180  179.3680  140.6250 O   0  0  0  0  0  1  0  0  0  0  0  0
  191.2600  177.7620  144.8390 C   0  0  0  0  0  3  0  0  0  0  0  0
  187.6110  177.5420  147.9330 F   0  0  0  0  0  0  0  0  0  0  0  0
  190.5500  177.0190  140.0240 C   0  0  0  0  0  2  0  0  0  0  0  0
  190.8770  177.5780  142.4480 C   0  0  0  0  0  0  0  0  0  0  0  0
  187.2950  178.2890  141.5380 C   0  0  0  0  0  3  0  0  0  0  0  0
  188.0570  177.5430  146.6540 C   0  0  0  0  0  0  0  0  0  0  0  0
  189.2500  177.7880  140.1230 C   0  0  1  0  0  3  0  0  0  0  0  0
  188.3030  177.4450  138.9850 C   0  0  0  0  0  2  0  0  0  0  0  0
  191.7480  177.7010  143.5380 C   0  0  0  0  0  3  0  0  0  0  0  0
  189.8900  177.6740  145.0750 C   0  0  0  0  0  0  0  0  0  0  0  0
  189.4220  177.6780  146.3930 C   0  0  0  0  0  3  0  0  0  0  0  0
  192.7720  177.8700  140.7980 C   0  0  0  0  0  2  0  0  0  0  0  0
  194.9160  174.6670  136.3480 C   0  0  2  0  0  3  0  0  0  0  0  0
  192.7080  176.7620  138.5320 N   0  0  0  0  0  2  0  0  0  0  0  0
  192.6730  174.9310  135.3080 C   0  0  0  0  0  3  0  0  0  0  0  0
  194.4700  176.3880  140.0360 O   0  0  0  0  0  0  0  0  0  0  0  0
  195.8380  173.7360  136.7870 F   0  0  0  0  0  0  0  0  0  0  0  0
  193.3700  176.9520  139.7870 C   0  0  0  0  0  0  0  0  0  0  0  0
  194.3560  175.3910  137.4930 N   0  0  0  0  0  0  0  0  0  0  0  0
  192.3660  175.8540  136.2220 C   0  0  0  0  0  3  0  0  0  0  0  0
  193.1990  175.9880  137.4320 C   0  0  0  0  0  0  0  0  0  0  0  0
  193.8090  173.9760  135.5480 C   0  0  0  0  0  2  0  0  0  0  0  0
  1  9  1  0  0  0  0
  1 14  2  0  0  0  0
  2  3  1  0  0  0  0
  3  7  2  0  0  0  0
  3 19  1  0  0  0  0
  4 15  2  0  0  0  0
  5 14  1  1  0  0  0
  5  2  1  0  0  0  0
  6  1  1  0  0  0  0
  7  4  1  0  0  0  0
  8 13  1  0  0  0  0
 10 19  1  0  0  0  0
 12 16  1  0  0  0  0
 12  8  1  0  0  0  0
 13  2  2  0  0  0  0
 13 18  1  0  0  0  0
 15 11  1  0  0  0  0
 16 17  1  6  0  0  0
 16  5  1  0  0  0  0
 17  6  1  0  0  0  0
 18 10  2  0  0  0  0
 19 20  2  0  0  0  0
 20 15  1  0  0  0  0
 21  8  1  0  0  0  0
 22 26  1  1  0  0  0
 22 28  1  0  0  0  0
 23 27  1  0  0  0  0
 24 31  1  0  0  0  0
 24 29  2  0  0  0  0
 27 25  2  0  0  0  0
 27 21  1  0  0  0  0
 29 30  1  0  0  0  0
 30 28  2  0  0  0  0
 30 23  1  0  0  0  0
 31 22  1  0  0  0  0
M  END
>  <MODEL>
7

>  <REMARK>
 VINA RESULT:      -9.5      2.505      3.918
  Name = 
  2 active torsions:
  status: ('A' for Active; 'I' for Inactive)
    1  A    between atoms: C_9  and  C_23
    2  A    between atoms: N_15  and  C_23
                            x       y       z     vdW  Elec       q    Type
                         _______ _______ _______ _____ _____    ______ ____

>  <TORSDO>
F 2

$$$$
=
 OpenBabel10262419253D

 31 35  0  0  1  0  0  0  0  0999 V2000
  189.6960  176.3090  142.3290 C   0  0  0  0  0  0  0  0  0  0  0  0
  186.9630  178.2350  144.0980 C   0  0  0  0  0  0  0  0  0  0  0  0
  187.2310  178.1450  145.4910 C   0  0  0  0  0  0  0  0  0  0  0  0
  188.7660  177.8040  147.3550 C   0  0  0  0  0  3  0  0  0  0  0  0
  188.0480  178.0420  143.0370 C   0  0  1  0  0  3  0  0  0  0  0  0
  189.5410  176.6950  140.8750 C   0  0  0  0  0  2  0  0  0  0  0  0
  188.5260  177.9030  145.9820 C   0  0  0  0  0  3  0  0  0  0  0  0
  185.3910  178.8820  142.2870 N   0  0  0  0  0  0  0  0  0  0  0  0
  190.5670  175.2800  142.6580 O   0  0  0  0  0  1  0  0  0  0  0  0
  184.8940  178.6280  145.9850 C   0  0  0  0  0  3  0  0  0  0  0  0
  187.9480  177.8500  149.5910 F   0  0  0  0  0  0  0  0  0  0  0  0
  186.4940  179.0080  141.3450 C   0  0  0  0  0  2  0  0  0  0  0  0
  185.6630  178.6320  143.6820 C   0  0  0  0  0  0  0  0  0  0  0  0
  188.9730  176.8820  143.3020 C   0  0  0  0  0  3  0  0  0  0  0  0
  187.7140  177.9470  148.2610 C   0  0  0  0  0  0  0  0  0  0  0  0
  187.4820  177.8960  141.6210 C   0  0  1  0  0  3  0  0  0  0  0  0
  188.6460  177.9190  140.6440 C   0  0  0  0  0  2  0  0  0  0  0  0
  184.6430  178.7960  144.6280 C   0  0  0  0  0  3  0  0  0  0  0  0
  186.1780  178.3180  146.4240 C   0  0  0  0  0  0  0  0  0  0  0  0
  186.4240  178.2100  147.7970 C   0  0  0  0  0  3  0  0  0  0  0  0
  184.0310  178.8640  141.7630 C   0  0  0  0  0  2  0  0  0  0  0  0
  183.4770  176.8970  136.2420 C   0  0  2  0  0  3  0  0  0  0  0  0
  183.4660  177.1720  139.9780 N   0  0  0  0  0  2  0  0  0  0  0  0
  182.8530  174.7180  137.2660 C   0  0  0  0  0  3  0  0  0  0  0  0
  184.5170  179.2050  139.4600 O   0  0  0  0  0  0  0  0  0  0  0  0
  184.3750  177.5100  135.3890 F   0  0  0  0  0  0  0  0  0  0  0  0
  184.0400  178.4340  140.3360 C   0  0  0  0  0  0  0  0  0  0  0  0
  183.6980  177.3620  137.6150 N   0  0  0  0  0  0  0  0  0  0  0  0
  182.7490  175.3160  138.4550 C   0  0  0  0  0  3  0  0  0  0  0  0
  183.3200  176.6630  138.6480 C   0  0  0  0  0  0  0  0  0  0  0  0
  183.6220  175.3750  136.1530 C   0  0  0  0  0  2  0  0  0  0  0  0
  1  9  1  0  0  0  0
  1 14  2  0  0  0  0
  2  3  1  0  0  0  0
  3  7  2  0  0  0  0
  3 19  1  0  0  0  0
  4 15  2  0  0  0  0
  5 14  1  1  0  0  0
  5  2  1  0  0  0  0
  6  1  1  0  0  0  0
  7  4  1  0  0  0  0
  8 13  1  0  0  0  0
 10 19  1  0  0  0  0
 12 16  1  0  0  0  0
 12  8  1  0  0  0  0
 13  2  2  0  0  0  0
 13 18  1  0  0  0  0
 15 11  1  0  0  0  0
 16 17  1  6  0  0  0
 16  5  1  0  0  0  0
 17  6  1  0  0  0  0
 18 10  2  0  0  0  0
 19 20  2  0  0  0  0
 20 15  1  0  0  0  0
 21  8  1  0  0  0  0
 22 26  1  6  0  0  0
 22 28  1  0  0  0  0
 23 27  1  0  0  0  0
 24 29  2  0  0  0  0
 25 27  2  0  0  0  0
 27 21  1  0  0  0  0
 28 30  2  0  0  0  0
 29 30  1  0  0  0  0
 30 23  1  0  0  0  0
 31 22  1  0  0  0  0
 31 24  1  0  0  0  0
M  END
>  <MODEL>
8

>  <REMARK>
 VINA RESULT:      -9.4      3.721      5.836
  Name = 
  2 active torsions:
  status: ('A' for Active; 'I' for Inactive)
    1  A    between atoms: C_9  and  C_23
    2  A    between atoms: N_15  and  C_23
                            x       y       z     vdW  Elec       q    Type
                         _______ _______ _______ _____ _____    ______ ____

>  <TORSDO>
F 2

$$$$
=
 OpenBabel10262419253D

 31 35  0  0  1  0  0  0  0  0999 V2000
  189.6050  176.5590  142.0840 C   0  0  0  0  0  0  0  0  0  0  0  0
  186.2340  178.2260  142.4910 C   0  0  0  0  0  0  0  0  0  0  0  0
  185.9840  178.3140  143.8880 C   0  0  0  0  0  0  0  0  0  0  0  0
  186.7600  178.3880  146.1980 C   0  0  0  0  0  3  0  0  0  0  0  0
  187.6450  178.0910  141.9150 C   0  0  1  0  0  3  0  0  0  0  0  0
  189.9520  176.7720  140.6280 C   0  0  0  0  0  2  0  0  0  0  0  0
  187.0280  178.3140  144.8290 C   0  0  0  0  0  3  0  0  0  0  0  0
  185.3730  178.4530  140.1720 N   0  0  0  0  0  0  0  0  0  0  0  0
  190.3960  175.7060  142.8410 O   0  0  0  0  0  1  0  0  0  0  0  0
  183.5910  178.4940  143.4610 C   0  0  0  0  0  3  0  0  0  0  0  0
  185.1830  178.5330  147.9770 F   0  0  0  0  0  0  0  0  0  0  0  0
  186.7250  178.6480  139.6660 C   0  0  0  0  0  2  0  0  0  0  0  0
  185.1420  178.3840  141.5950 C   0  0  0  0  0  0  0  0  0  0  0  0
  188.5240  177.1120  142.6500 C   0  0  0  0  0  3  0  0  0  0  0  0
  185.4420  178.4630  146.6500 C   0  0  0  0  0  0  0  0  0  0  0  0
  187.6520  177.7260  140.4280 C   0  0  1  0  0  3  0  0  0  0  0  0
  189.0830  177.8230  139.9240 C   0  0  0  0  0  2  0  0  0  0  0  0
  183.8360  178.4890  142.0920 C   0  0  0  0  0  3  0  0  0  0  0  0
  184.6520  178.4210  144.3600 C   0  0  0  0  0  0  0  0  0  0  0  0
  184.3900  178.4860  145.7320 C   0  0  0  0  0  3  0  0  0  0  0  0
  184.3070  178.1840  139.2160 C   0  0  0  0  0  2  0  0  0  0  0  0
  181.1330  182.9470  137.8390 C   0  0  2  0  0  3  0  0  0  0  0  0
  182.3380  179.4230  138.2370 N   0  0  0  0  0  2  0  0  0  0  0  0
  179.5990  181.3740  136.6750 C   0  0  0  0  0  3  0  0  0  0  0  0
  184.2320  180.5540  139.0350 O   0  0  0  0  0  0  0  0  0  0  0  0
  181.9330  184.0600  137.6600 F   0  0  0  0  0  0  0  0  0  0  0  0
  183.6470  179.4600  138.8170 C   0  0  0  0  0  0  0  0  0  0  0  0
  181.9670  181.7720  138.1080 N   0  0  0  0  0  0  0  0  0  0  0  0
  180.2290  180.3470  137.2490 C   0  0  0  0  0  3  0  0  0  0  0  0
  181.5420  180.5600  137.8870 C   0  0  0  0  0  0  0  0  0  0  0  0
  180.2600  182.7220  136.6010 C   0  0  0  0  0  2  0  0  0  0  0  0
  1 14  2  0  0  0  0
  1  9  1  0  0  0  0
  2  3  1  0  0  0  0
  3 19  2  0  0  0  0
  3  7  1  0  0  0  0
  4 15  1  0  0  0  0
  5  2  1  0  0  0  0
  5 14  1  1  0  0  0
  6  1  1  0  0  0  0
  7  4  2  0  0  0  0
  8 13  1  0  0  0  0
 10 19  1  0  0  0  0
 12  8  1  0  0  0  0
 13 18  1  0  0  0  0
 13  2  2  0  0  0  0
 15 11  1  0  0  0  0
 16 12  1  6  0  0  0
 16  5  1  0  0  0  0
 17 16  1  0  0  0  0
 17  6  1  0  0  0  0
 18 10  2  0  0  0  0
 19 20  1  0  0  0  0
 20 15  2  0  0  0  0
 21  8  1  0  0  0  0
 22 26  1  6  0  0  0
 22 28  1  0  0  0  0
 23 27  1  0  0  0  0
 24 29  2  0  0  0  0
 27 25  2  0  0  0  0
 27 21  1  0  0  0  0
 29 30  1  0  0  0  0
 30 28  2  0  0  0  0
 30 23  1  0  0  0  0
 31 24  1  0  0  0  0
 31 22  1  0  0  0  0
M  END
>  <MODEL>
9

>  <REMARK>
 VINA RESULT:      -9.4      5.191      7.887
  Name = 
  2 active torsions:
  status: ('A' for Active; 'I' for Inactive)
    1  A    between atoms: C_9  and  C_23
    2  A    between atoms: N_15  and  C_23
                            x       y       z     vdW  Elec       q    Type
                         _______ _______ _______ _____ _____    ______ ____

>  <TORSDO>
F 2

$$$$
