=
 OpenBabel10262420043D

 27 31  0  0  1  0  0  0  0  0999 V2000
  187.7430  178.9630  142.0240 C   0  0  0  0  0  2  0  0  0  0  0  0
  189.2900  177.8630  140.6740 C   0  0  2  0  0  3  0  0  0  0  0  0
  187.1850  178.1190  139.3120 N   0  0  0  0  0  2  0  0  0  0  0  0
  190.6320  175.9300  136.6590 C   0  0  0  0  0  3  0  0  0  0  0  0
  189.8910  177.1120  134.6800 C   0  0  0  0  0  1  0  0  0  0  0  0
  189.9600  176.6280  140.2600 N   0  0  0  0  0  2  0  0  0  0  0  0
  189.2460  177.8540  136.9320 C   0  0  0  0  0  0  0  0  0  0  0  0
  183.8110  177.7490  140.2700 C   0  0  0  0  0  3  0  0  0  0  0  0
  188.5760  178.8010  136.4370 O   0  0  0  0  0  0  0  0  0  0  0  0
  183.4660  177.9150  141.5440 C   0  0  0  0  0  3  0  0  0  0  0  0
  189.3090  177.6840  138.3160 C   0  0  0  0  0  0  0  0  0  0  0  0
  188.3720  177.6580  141.8080 N   0  0  1  0  0  0  0  0  0  0  0  0
  189.9210  176.9710  136.1270 N   0  0  0  0  0  0  0  0  0  0  0  0
  190.0140  176.6460  138.8500 C   0  0  0  0  0  0  0  0  0  0  0  0
  186.3650  178.9660  141.4530 C   0  0  0  0  0  0  0  0  0  0  0  0
  188.6110  178.4410  139.3890 C   0  0  2  0  0  3  0  0  0  0  0  0
  184.7690  178.6610  139.5780 C   0  0  0  0  0  2  0  0  0  0  0  0
  190.6950  175.7370  138.0470 C   0  0  0  0  0  3  0  0  0  0  0  0
  184.0440  178.9380  142.4340 C   0  0  0  0  0  3  0  0  0  0  0  0
  185.3000  179.3990  142.3850 C   0  0  0  0  0  3  0  0  0  0  0  0
  186.1370  178.5900  140.1740 C   0  0  0  0  0  0  0  0  0  0  0  0
  190.4070  176.9380  145.4840 C   0  0  0  0  0  2  0  0  0  0  0  0
  189.1430  177.3110  143.0210 C   0  0  0  0  0  3  0  0  0  0  0  0
  188.2100  177.1270  144.2360 C   0  0  0  0  0  2  0  0  0  0  0  0
  188.9170  177.2460  145.5950 C   0  0  0  0  0  2  0  0  0  0  0  0
  191.1000  177.9130  144.5230 C   0  0  0  0  0  2  0  0  0  0  0  0
  190.1970  178.3770  143.3730 C   0  0  0  0  0  2  0  0  0  0  0  0
  2  6  1  6  0  0  0
  2 12  1  0  0  0  0
  3 16  1  0  0  0  0
  3 21  1  0  0  0  0
  4 18  2  0  0  0  0
  5 13  1  0  0  0  0
  7 11  1  0  0  0  0
  8 10  2  0  0  0  0
  9  7  2  0  0  0  0
 10 19  1  0  0  0  0
 11 14  2  0  0  0  0
 12  1  1  0  0  0  0
 12 23  1  1  0  0  0
 13  4  1  0  0  0  0
 13  7  1  0  0  0  0
 14  6  1  0  0  0  0
 15  1  1  0  0  0  0
 15 20  1  0  0  0  0
 16 11  1  6  0  0  0
 16  2  1  0  0  0  0
 17 21  1  0  0  0  0
 17  8  1  0  0  0  0
 18 14  1  0  0  0  0
 20 19  2  0  0  0  0
 21 15  2  0  0  0  0
 22 25  1  0  0  0  0
 23 27  1  0  0  0  0
 23 24  1  0  0  0  0
 24 25  1  0  0  0  0
 26 22  1  0  0  0  0
 27 26  1  0  0  0  0
M  END
>  <MODEL>
1

>  <REMARK>
 VINA RESULT:      -8.6      0.000      0.000
  Name = 
  1 active torsions:
  status: ('A' for Active; 'I' for Inactive)
    1  A    between atoms: C_9  and  N_15
                            x       y       z     vdW  Elec       q    Type
                         _______ _______ _______ _____ _____    ______ ____

>  <TORSDO>
F 1

$$$$
=
 OpenBabel10262420043D

 27 31  0  0  1  0  0  0  0  0999 V2000
  186.3360  177.1660  145.1620 C   0  0  0  0  0  2  0  0  0  0  0  0
  186.8470  177.6360  142.9390 C   0  0  2  0  0  3  0  0  0  0  0  0
  189.0380  177.2670  144.1290 N   0  0  0  0  0  2  0  0  0  0  0  0
  189.8340  178.1670  139.4100 C   0  0  0  0  0  3  0  0  0  0  0  0
  191.6560  176.5720  139.3900 C   0  0  0  0  0  1  0  0  0  0  0  0
  187.0640  178.6100  141.8660 N   0  0  0  0  0  2  0  0  0  0  0  0
  189.9860  176.5870  141.1930 C   0  0  0  0  0  0  0  0  0  0  0  0
  190.0760  178.3080  147.3340 C   0  0  0  0  0  3  0  0  0  0  0  0
  190.5770  175.6280  141.7600 O   0  0  0  0  0  0  0  0  0  0  0  0
  189.1660  178.5560  148.2740 C   0  0  0  0  0  3  0  0  0  0  0  0
  188.8320  177.1340  141.7560 C   0  0  0  0  0  0  0  0  0  0  0  0
  186.4220  178.2680  144.2010 N   0  0  1  0  0  0  0  0  0  0  0  0
  190.4610  177.1130  140.0190 N   0  0  0  0  0  0  0  0  0  0  0  0
  188.2050  178.1860  141.1540 C   0  0  0  0  0  0  0  0  0  0  0  0
  187.5320  177.1720  146.0520 C   0  0  0  0  0  0  0  0  0  0  0  0
  188.1680  176.8060  143.0460 C   0  0  2  0  0  3  0  0  0  0  0  0
  189.9850  177.1260  146.4280 C   0  0  0  0  0  2  0  0  0  0  0  0
  188.6810  178.7360  139.9690 C   0  0  0  0  0  3  0  0  0  0  0  0
  187.9380  177.7650  148.4680 C   0  0  0  0  0  3  0  0  0  0  0  0
  187.2370  177.1570  147.5020 C   0  0  0  0  0  3  0  0  0  0  0  0
  188.7840  177.1940  145.5410 C   0  0  0  0  0  0  0  0  0  0  0  0
  182.3880  179.6020  143.8570 C   0  0  0  0  0  2  0  0  0  0  0  0
  185.0700  178.8470  144.0410 C   0  0  0  0  0  3  0  0  0  0  0  0
  184.2200  178.6280  145.3090 C   0  0  0  0  0  2  0  0  0  0  0  0
  182.7060  178.7480  145.0800 C   0  0  0  0  0  2  0  0  0  0  0  0
  182.9940  178.9920  142.5870 C   0  0  0  0  0  2  0  0  0  0  0  0
  184.3140  178.2520  142.8380 C   0  0  0  0  0  2  0  0  0  0  0  0
  1 15  1  0  0  0  0
  2  6  1  6  0  0  0
  2 16  1  0  0  0  0
  2 12  1  0  0  0  0
  3 21  1  0  0  0  0
  4 18  2  0  0  0  0
  4 13  1  0  0  0  0
  5 13  1  0  0  0  0
  7 11  1  0  0  0  0
  7  9  2  0  0  0  0
  8 10  2  0  0  0  0
 10 19  1  0  0  0  0
 12 23  1  6  0  0  0
 12  1  1  0  0  0  0
 13  7  1  0  0  0  0
 14 11  2  0  0  0  0
 14  6  1  0  0  0  0
 15 20  1  0  0  0  0
 16 11  1  6  0  0  0
 16  3  1  0  0  0  0
 17  8  1  0  0  0  0
 18 14  1  0  0  0  0
 20 19  2  0  0  0  0
 21 15  2  0  0  0  0
 21 17  1  0  0  0  0
 22 25  1  0  0  0  0
 23 24  1  0  0  0  0
 25 24  1  0  0  0  0
 26 27  1  0  0  0  0
 26 22  1  0  0  0  0
 27 23  1  0  0  0  0
M  END
>  <MODEL>
2

>  <REMARK>
 VINA RESULT:      -8.0      2.485      5.797
  Name = 
  1 active torsions:
  status: ('A' for Active; 'I' for Inactive)
    1  A    between atoms: C_9  and  N_15
                            x       y       z     vdW  Elec       q    Type
                         _______ _______ _______ _____ _____    ______ ____

>  <TORSDO>
F 1

$$$$
=
 OpenBabel10262420043D

 27 31  0  0  1  0  0  0  0  0999 V2000
  187.5380  176.9530  143.5590 C   0  0  0  0  0  2  0  0  0  0  0  0
  187.4280  177.5720  141.3160 C   0  0  2  0  0  3  0  0  0  0  0  0
  189.8560  177.1290  141.8330 N   0  0  0  0  0  2  0  0  0  0  0  0
  189.3440  178.3430  137.1450 C   0  0  0  0  0  3  0  0  0  0  0  0
  191.0650  176.7580  136.5230 C   0  0  0  0  0  1  0  0  0  0  0  0
  187.3590  178.6160  140.2900 N   0  0  0  0  0  2  0  0  0  0  0  0
  189.9530  176.6480  138.7120 C   0  0  0  0  0  0  0  0  0  0  0  0
  191.7480  177.9570  144.6910 C   0  0  0  0  0  3  0  0  0  0  0  0
  190.6610  175.6550  139.0320 O   0  0  0  0  0  0  0  0  0  0  0  0
  191.1340  178.1380  145.8590 C   0  0  0  0  0  3  0  0  0  0  0  0
  189.0060  177.1540  139.6040 C   0  0  0  0  0  0  0  0  0  0  0  0
  187.3750  178.1170  142.6840 N   0  0  1  0  0  0  0  0  0  0  0  0
  190.0970  177.2540  137.4890 N   0  0  0  0  0  0  0  0  0  0  0  0
  188.2550  178.2420  139.2670 C   0  0  0  0  0  0  0  0  0  0  0  0
  188.9330  176.9020  144.0850 C   0  0  0  0  0  0  0  0  0  0  0  0
  188.7150  176.7390  141.0020 C   0  0  2  0  0  3  0  0  0  0  0  0
  191.3930  176.8370  143.7700 C   0  0  0  0  0  2  0  0  0  0  0  0
  188.3970  178.8720  138.0350 C   0  0  0  0  0  3  0  0  0  0  0  0
  189.9930  177.3340  146.3310 C   0  0  0  0  0  3  0  0  0  0  0  0
  189.0450  176.7900  145.5560 C   0  0  0  0  0  3  0  0  0  0  0  0
  189.9970  176.9610  143.2530 C   0  0  0  0  0  0  0  0  0  0  0  0
  183.4520  179.4930  143.6260 C   0  0  0  0  0  2  0  0  0  0  0  0
  186.0410  178.7020  142.9390 C   0  0  0  0  0  3  0  0  0  0  0  0
  185.7110  178.6940  144.4460 C   0  0  0  0  0  2  0  0  0  0  0  0
  184.2130  178.8190  144.7630 C   0  0  0  0  0  2  0  0  0  0  0  0
  183.5770  178.6880  142.3250 C   0  0  0  0  0  2  0  0  0  0  0  0
  184.9190  177.9580  142.1910 C   0  0  0  0  0  2  0  0  0  0  0  0
  1 15  1  0  0  0  0
  2  6  1  6  0  0  0
  2 12  1  0  0  0  0
  3 21  1  0  0  0  0
  4 13  1  0  0  0  0
  4 18  2  0  0  0  0
  5 13  1  0  0  0  0
  7  9  2  0  0  0  0
  7 11  1  0  0  0  0
  8 10  2  0  0  0  0
 10 19  1  0  0  0  0
 12 23  1  1  0  0  0
 12  1  1  0  0  0  0
 13  7  1  0  0  0  0
 14 11  2  0  0  0  0
 14  6  1  0  0  0  0
 15 20  1  0  0  0  0
 16 11  1  6  0  0  0
 16  2  1  0  0  0  0
 16  3  1  0  0  0  0
 17  8  1  0  0  0  0
 18 14  1  0  0  0  0
 20 19  2  0  0  0  0
 21 17  1  0  0  0  0
 21 15  2  0  0  0  0
 22 25  1  0  0  0  0
 23 24  1  0  0  0  0
 24 25  1  0  0  0  0
 26 22  1  0  0  0  0
 27 26  1  0  0  0  0
 27 23  1  0  0  0  0
M  END
>  <MODEL>
3

>  <REMARK>
 VINA RESULT:      -7.6      1.607      4.928
  Name = 
  1 active torsions:
  status: ('A' for Active; 'I' for Inactive)
    1  A    between atoms: C_9  and  N_15
                            x       y       z     vdW  Elec       q    Type
                         _______ _______ _______ _____ _____    ______ ____

>  <TORSDO>
F 1

$$$$
=
 OpenBabel10262420043D

 27 31  0  0  1  0  0  0  0  0999 V2000
  190.7730  177.5820  139.2710 C   0  0  0  0  0  2  0  0  0  0  0  0
  189.0150  177.2390  137.7820 C   0  0  2  0  0  3  0  0  0  0  0  0
  187.9960  177.4420  140.0780 N   0  0  0  0  0  2  0  0  0  0  0  0
  184.4960  176.8220  136.7510 C   0  0  0  0  0  3  0  0  0  0  0  0
  183.0480  178.3420  137.9580 C   0  0  0  0  0  1  0  0  0  0  0  0
  188.1840  176.3290  136.9880 N   0  0  0  0  0  2  0  0  0  0  0  0
  185.4680  178.2750  138.3760 C   0  0  0  0  0  0  0  0  0  0  0  0
  189.1040  176.1530  143.1680 C   0  0  0  0  0  3  0  0  0  0  0  0
  185.3500  179.1700  139.2560 O   0  0  0  0  0  0  0  0  0  0  0  0
  190.3960  175.8810  143.3440 C   0  0  0  0  0  3  0  0  0  0  0  0
  186.7230  177.7380  138.0830 C   0  0  0  0  0  0  0  0  0  0  0  0
  190.1130  176.5430  138.4770 N   0  0  1  0  0  0  0  0  0  0  0  0
  184.3740  177.8080  137.6920 N   0  0  0  0  0  0  0  0  0  0  0  0
  186.8490  176.7540  137.1460 C   0  0  0  0  0  0  0  0  0  0  0  0
  190.3600  177.4710  140.7000 C   0  0  0  0  0  0  0  0  0  0  0  0
  188.0360  178.0070  138.7280 C   0  0  2  0  0  3  0  0  0  0  0  0
  188.6370  177.3950  142.4840 C   0  0  0  0  0  2  0  0  0  0  0  0
  185.7480  176.2630  136.4530 C   0  0  0  0  0  3  0  0  0  0  0  0
  191.4970  176.7050  142.8150 C   0  0  0  0  0  3  0  0  0  0  0  0
  191.4740  177.4020  141.6720 C   0  0  0  0  0  3  0  0  0  0  0  0
  189.0540  177.4320  141.0500 C   0  0  0  0  0  0  0  0  0  0  0  0
  193.0530  174.8360  135.9060 C   0  0  0  0  0  2  0  0  0  0  0  0
  191.0860  176.0290  137.4890 C   0  0  0  0  0  3  0  0  0  0  0  0
  191.0870  174.4860  137.4640 C   0  0  0  0  0  2  0  0  0  0  0  0
  192.3560  173.8680  136.8560 C   0  0  0  0  0  2  0  0  0  0  0  0
  193.4760  176.1170  136.6370 C   0  0  0  0  0  2  0  0  0  0  0  0
  192.5210  176.5130  137.7700 C   0  0  0  0  0  2  0  0  0  0  0  0
  1 15  1  0  0  0  0
  2  6  1  1  0  0  0
  2 12  1  0  0  0  0
  2 16  1  0  0  0  0
  3 21  1  0  0  0  0
  4 13  1  0  0  0  0
  6 14  1  0  0  0  0
  7  9  2  0  0  0  0
  8 10  2  0  0  0  0
 11  7  1  0  0  0  0
 12 23  1  6  0  0  0
 12  1  1  0  0  0  0
 13  5  1  0  0  0  0
 13  7  1  0  0  0  0
 14 11  2  0  0  0  0
 15 21  2  0  0  0  0
 15 20  1  0  0  0  0
 16 11  1  6  0  0  0
 16  3  1  0  0  0  0
 17  8  1  0  0  0  0
 18  4  2  0  0  0  0
 18 14  1  0  0  0  0
 19 10  1  0  0  0  0
 20 19  2  0  0  0  0
 21 17  1  0  0  0  0
 22 26  1  0  0  0  0
 22 25  1  0  0  0  0
 23 27  1  0  0  0  0
 24 23  1  0  0  0  0
 25 24  1  0  0  0  0
 26 27  1  0  0  0  0
M  END
>  <MODEL>
4

>  <REMARK>
 VINA RESULT:      -7.5      2.309      5.888
  Name = 
  1 active torsions:
  status: ('A' for Active; 'I' for Inactive)
    1  A    between atoms: C_9  and  N_15
                            x       y       z     vdW  Elec       q    Type
                         _______ _______ _______ _____ _____    ______ ____

>  <TORSDO>
F 1

$$$$
=
 OpenBabel10262420043D

 27 31  0  0  1  0  0  0  0  0999 V2000
  190.0710  177.4880  139.0480 C   0  0  0  0  0  2  0  0  0  0  0  0
  188.1220  177.2860  137.7890 C   0  0  2  0  0  3  0  0  0  0  0  0
  187.4130  177.7460  140.1640 N   0  0  0  0  0  2  0  0  0  0  0  0
  183.4960  177.3860  137.2930 C   0  0  0  0  0  3  0  0  0  0  0  0
  182.3910  179.1420  138.5420 C   0  0  0  0  0  1  0  0  0  0  0  0
  187.1010  176.4450  137.1580 N   0  0  0  0  0  2  0  0  0  0  0  0
  184.8190  178.7940  138.6950 C   0  0  0  0  0  0  0  0  0  0  0  0
  188.7160  176.5040  143.1960 C   0  0  0  0  0  3  0  0  0  0  0  0
  184.9120  179.7460  139.5170 O   0  0  0  0  0  0  0  0  0  0  0  0
  189.9770  176.0820  143.2480 C   0  0  0  0  0  3  0  0  0  0  0  0
  185.9570  178.0870  138.3040 C   0  0  0  0  0  0  0  0  0  0  0  0
  189.2030  176.4970  138.4070 N   0  0  1  0  0  0  0  0  0  0  0  0
  183.6040  178.4310  138.1700 N   0  0  0  0  0  0  0  0  0  0  0  0
  185.8540  177.0430  137.4320 C   0  0  0  0  0  0  0  0  0  0  0  0
  189.8200  177.5110  140.5180 C   0  0  0  0  0  0  0  0  0  0  0  0
  187.3600  178.2240  138.7810 C   0  0  2  0  0  3  0  0  0  0  0  0
  188.3220  177.7550  142.4820 C   0  0  0  0  0  2  0  0  0  0  0  0
  184.6280  176.6570  136.9000 C   0  0  0  0  0  3  0  0  0  0  0  0
  191.0990  176.7290  142.5440 C   0  0  0  0  0  3  0  0  0  0  0  0
  191.0240  177.3570  141.3640 C   0  0  0  0  0  3  0  0  0  0  0  0
  188.5690  177.6580  141.0110 C   0  0  0  0  0  0  0  0  0  0  0  0
  191.7590  174.7180  135.4960 C   0  0  0  0  0  2  0  0  0  0  0  0
  189.9850  175.8090  137.3570 C   0  0  0  0  0  3  0  0  0  0  0  0
  191.2890  175.2200  137.9340 C   0  0  0  0  0  2  0  0  0  0  0  0
  192.3670  174.9250  136.8800 C   0  0  0  0  0  2  0  0  0  0  0  0
  191.0000  175.9690  135.0350 C   0  0  0  0  0  2  0  0  0  0  0  0
  190.3490  176.7440  136.1880 C   0  0  0  0  0  2  0  0  0  0  0  0
  1 15  1  0  0  0  0
  2  6  1  1  0  0  0
  2 12  1  0  0  0  0
  2 16  1  0  0  0  0
  3 21  1  0  0  0  0
  4 13  1  0  0  0  0
  6 14  1  0  0  0  0
  7  9  2  0  0  0  0
  8 10  2  0  0  0  0
 11  7  1  0  0  0  0
 12 23  1  6  0  0  0
 12  1  1  0  0  0  0
 13  5  1  0  0  0  0
 13  7  1  0  0  0  0
 14 11  2  0  0  0  0
 15 21  2  0  0  0  0
 15 20  1  0  0  0  0
 16 11  1  6  0  0  0
 16  3  1  0  0  0  0
 17  8  1  0  0  0  0
 18  4  2  0  0  0  0
 18 14  1  0  0  0  0
 19 10  1  0  0  0  0
 20 19  2  0  0  0  0
 21 17  1  0  0  0  0
 22 25  1  0  0  0  0
 23 24  1  0  0  0  0
 25 24  1  0  0  0  0
 26 22  1  0  0  0  0
 26 27  1  0  0  0  0
 27 23  1  0  0  0  0
M  END
>  <MODEL>
5

>  <REMARK>
 VINA RESULT:      -7.2      2.177      6.112
  Name = 
  1 active torsions:
  status: ('A' for Active; 'I' for Inactive)
    1  A    between atoms: C_9  and  N_15
                            x       y       z     vdW  Elec       q    Type
                         _______ _______ _______ _____ _____    ______ ____

>  <TORSDO>
F 1

$$$$
=
 OpenBabel10262420043D

 27 31  0  0  1  0  0  0  0  0999 V2000
  185.1030  179.1050  142.8130 C   0  0  0  0  0  2  0  0  0  0  0  0
  187.2470  178.2840  142.4170 C   0  0  2  0  0  3  0  0  0  0  0  0
  185.9820  178.0990  140.2440 N   0  0  0  0  0  2  0  0  0  0  0  0
  190.5550  176.5350  139.6500 C   0  0  0  0  0  3  0  0  0  0  0  0
  190.6220  177.5030  137.4310 C   0  0  0  0  0  1  0  0  0  0  0  0
  188.2170  177.1870  142.4810 N   0  0  0  0  0  2  0  0  0  0  0  0
  188.9140  178.1680  139.0690 C   0  0  0  0  0  0  0  0  0  0  0  0
  182.6480  177.1210  139.6430 C   0  0  0  0  0  3  0  0  0  0  0  0
  188.4030  178.9580  138.2280 O   0  0  0  0  0  0  0  0  0  0  0  0
  181.7380  177.2520  140.6060 C   0  0  0  0  0  3  0  0  0  0  0  0
  188.3650  178.0490  140.3470 C   0  0  0  0  0  0  0  0  0  0  0  0
  185.9580  177.9380  143.0420 N   0  0  1  0  0  0  0  0  0  0  0  0
  190.0110  177.4080  138.7480 N   0  0  0  0  0  0  0  0  0  0  0  0
  188.9030  177.1780  141.2490 C   0  0  0  0  0  0  0  0  0  0  0  0
  184.1550  178.8310  141.6940 C   0  0  0  0  0  0  0  0  0  0  0  0
  187.1450  178.6880  140.9100 C   0  0  2  0  0  3  0  0  0  0  0  0
  183.6590  178.1800  139.3520 C   0  0  0  0  0  2  0  0  0  0  0  0
  190.0080  176.3950  140.9350 C   0  0  0  0  0  3  0  0  0  0  0  0
  181.6780  178.3890  141.5420 C   0  0  0  0  0  3  0  0  0  0  0  0
  182.7300  179.0780  142.0040 C   0  0  0  0  0  3  0  0  0  0  0  0
  184.5970  178.3850  140.4970 C   0  0  0  0  0  0  0  0  0  0  0  0
  186.5190  177.8490  147.2670 C   0  0  0  0  0  2  0  0  0  0  0  0
  186.1360  177.7750  144.5010 C   0  0  0  0  0  3  0  0  0  0  0  0
  185.2330  178.7540  145.2810 C   0  0  0  0  0  2  0  0  0  0  0  0
  185.6810  179.0040  146.7290 C   0  0  0  0  0  2  0  0  0  0  0  0
  187.7870  177.6500  146.4260 C   0  0  0  0  0  2  0  0  0  0  0  0
  187.5940  177.9990  144.9440 C   0  0  0  0  0  2  0  0  0  0  0  0
  1 12  1  0  0  0  0
  2  6  1  6  0  0  0
  2 12  1  0  0  0  0
  3 21  1  0  0  0  0
  4 18  2  0  0  0  0
  5 13  1  0  0  0  0
  7 11  1  0  0  0  0
  8 10  2  0  0  0  0
  9  7  2  0  0  0  0
 10 19  1  0  0  0  0
 11 16  1  0  0  0  0
 11 14  2  0  0  0  0
 12 23  1  1  0  0  0
 13  7  1  0  0  0  0
 13  4  1  0  0  0  0
 14  6  1  0  0  0  0
 15 20  1  0  0  0  0
 15  1  1  0  0  0  0
 16  3  1  6  0  0  0
 16  2  1  0  0  0  0
 17  8  1  0  0  0  0
 17 21  1  0  0  0  0
 18 14  1  0  0  0  0
 19 20  2  0  0  0  0
 21 15  2  0  0  0  0
 23 27  1  0  0  0  0
 23 24  1  0  0  0  0
 24 25  1  0  0  0  0
 25 22  1  0  0  0  0
 26 22  1  0  0  0  0
 27 26  1  0  0  0  0
M  END
>  <MODEL>
6

>  <REMARK>
 VINA RESULT:      -7.2      1.747      2.742
  Name = 
  1 active torsions:
  status: ('A' for Active; 'I' for Inactive)
    1  A    between atoms: C_9  and  N_15
                            x       y       z     vdW  Elec       q    Type
                         _______ _______ _______ _____ _____    ______ ____

>  <TORSDO>
F 1

$$$$
=
 OpenBabel10262420043D

 27 31  0  0  1  0  0  0  0  0999 V2000
  184.7130  179.2940  140.6020 C   0  0  0  0  0  2  0  0  0  0  0  0
  186.6420  178.5100  141.6470 C   0  0  2  0  0  3  0  0  0  0  0  0
  186.8310  177.8950  139.2100 N   0  0  0  0  0  2  0  0  0  0  0  0
  190.8150  176.4510  141.6090 C   0  0  0  0  0  3  0  0  0  0  0  0
  192.1960  177.0200  139.7030 C   0  0  0  0  0  1  0  0  0  0  0  0
  187.3290  177.4840  142.4360 N   0  0  0  0  0  2  0  0  0  0  0  0
  189.9080  177.8850  139.9300 C   0  0  0  0  0  0  0  0  0  0  0  0
  184.3790  176.6850  136.9830 C   0  0  0  0  0  3  0  0  0  0  0  0
  190.0200  178.4940  138.8310 O   0  0  0  0  0  0  0  0  0  0  0  0
  183.0940  176.9420  137.2150 C   0  0  0  0  0  3  0  0  0  0  0  0
  188.7220  177.9670  140.6630 C   0  0  0  0  0  0  0  0  0  0  0  0
  185.2070  178.2220  141.4690 N   0  0  1  0  0  0  0  0  0  0  0  0
  190.9390  177.1290  140.4270 N   0  0  0  0  0  0  0  0  0  0  0  0
  188.5920  177.2900  141.8400 C   0  0  0  0  0  0  0  0  0  0  0  0
  184.5560  178.7890  139.2070 C   0  0  0  0  0  0  0  0  0  0  0  0
  187.4440  178.6410  140.3110 C   0  0  2  0  0  3  0  0  0  0  0  0
  185.4420  177.7190  137.1500 C   0  0  0  0  0  2  0  0  0  0  0  0
  189.6260  176.5120  142.3510 C   0  0  0  0  0  3  0  0  0  0  0  0
  182.5850  178.2210  137.7420 C   0  0  0  0  0  3  0  0  0  0  0  0
  183.2280  179.0250  138.6000 C   0  0  0  0  0  3  0  0  0  0  0  0
  185.5720  178.1610  138.5720 C   0  0  0  0  0  0  0  0  0  0  0  0
  183.0560  178.8470  145.0960 C   0  0  0  0  0  2  0  0  0  0  0  0
  184.5110  178.3230  142.7700 C   0  0  0  0  0  3  0  0  0  0  0  0
  183.0110  178.6280  142.5730 C   0  0  0  0  0  2  0  0  0  0  0  0
  182.3200  179.2180  143.8120 C   0  0  0  0  0  2  0  0  0  0  0  0
  184.4950  179.3780  145.0800 C   0  0  0  0  0  2  0  0  0  0  0  0
  185.1130  179.4130  143.6770 C   0  0  0  0  0  2  0  0  0  0  0  0
  1 12  1  0  0  0  0
  2  6  1  1  0  0  0
  4 18  2  0  0  0  0
  5 13  1  0  0  0  0
  7 13  1  0  0  0  0
  7 11  1  0  0  0  0
  8 17  1  0  0  0  0
  8 10  2  0  0  0  0
  9  7  2  0  0  0  0
 10 19  1  0  0  0  0
 11 14  2  0  0  0  0
 12  2  1  0  0  0  0
 12 23  1  1  0  0  0
 13  4  1  0  0  0  0
 14 18  1  0  0  0  0
 14  6  1  0  0  0  0
 15  1  1  0  0  0  0
 16  3  1  6  0  0  0
 16 11  1  0  0  0  0
 16  2  1  0  0  0  0
 17 21  1  0  0  0  0
 19 20  2  0  0  0  0
 20 15  1  0  0  0  0
 21 15  2  0  0  0  0
 21  3  1  0  0  0  0
 23 27  1  0  0  0  0
 24 23  1  0  0  0  0
 24 25  1  0  0  0  0
 25 22  1  0  0  0  0
 26 22  1  0  0  0  0
 27 26  1  0  0  0  0
M  END
>  <MODEL>
7

>  <REMARK>
 VINA RESULT:      -7.2      2.337      4.325
  Name = 
  1 active torsions:
  status: ('A' for Active; 'I' for Inactive)
    1  A    between atoms: C_9  and  N_15
                            x       y       z     vdW  Elec       q    Type
                         _______ _______ _______ _____ _____    ______ ____

>  <TORSDO>
F 1

$$$$
=
 OpenBabel10262420043D

 27 31  0  0  1  0  0  0  0  0999 V2000
  186.2540  178.9040  138.8420 C   0  0  0  0  0  2  0  0  0  0  0  0
  186.4680  178.6670  141.1490 C   0  0  2  0  0  3  0  0  0  0  0  0
  188.3440  177.3480  140.1030 N   0  0  0  0  0  2  0  0  0  0  0  0
  188.6360  177.0980  144.9570 C   0  0  0  0  0  3  0  0  0  0  0  0
  191.0530  177.1760  144.8380 C   0  0  0  0  0  1  0  0  0  0  0  0
  186.0800  178.0050  142.3980 N   0  0  0  0  0  2  0  0  0  0  0  0
  189.6540  177.8500  142.9330 C   0  0  0  0  0  0  0  0  0  0  0  0
  188.3380  175.2820  137.2450 C   0  0  0  0  0  3  0  0  0  0  0  0
  190.6870  178.0960  142.2520 O   0  0  0  0  0  0  0  0  0  0  0  0
  187.4290  175.4770  136.2920 C   0  0  0  0  0  3  0  0  0  0  0  0
  188.3860  178.0430  142.3840 C   0  0  0  0  0  0  0  0  0  0  0  0
  185.6780  178.2050  139.9930 N   0  0  1  0  0  0  0  0  0  0  0  0
  189.7530  177.3860  144.2210 N   0  0  0  0  0  0  0  0  0  0  0  0
  187.2690  177.7560  143.1140 C   0  0  0  0  0  0  0  0  0  0  0  0
  187.1370  177.9790  138.0730 C   0  0  0  0  0  0  0  0  0  0  0  0
  188.0100  178.4510  141.0040 C   0  0  2  0  0  3  0  0  0  0  0  0
  189.0540  176.4120  137.9060 C   0  0  0  0  0  2  0  0  0  0  0  0
  187.3530  177.2750  144.4160 C   0  0  0  0  0  3  0  0  0  0  0  0
  186.9590  176.8020  135.8510 C   0  0  0  0  0  3  0  0  0  0  0  0
  186.8430  177.8890  136.6260 C   0  0  0  0  0  3  0  0  0  0  0  0
  188.1220  177.2830  138.6850 C   0  0  0  0  0  0  0  0  0  0  0  0
  181.5350  179.1920  140.1590 C   0  0  0  0  0  2  0  0  0  0  0  0
  184.2720  178.6390  140.1420 C   0  0  0  0  0  3  0  0  0  0  0  0
  183.3420  177.4300  140.3770 C   0  0  0  0  0  2  0  0  0  0  0  0
  181.8630  177.7050  140.0650 C   0  0  0  0  0  2  0  0  0  0  0  0
  182.3700  180.0050  139.1610 C   0  0  0  0  0  2  0  0  0  0  0  0
  183.7630  179.4130  138.9110 C   0  0  0  0  0  2  0  0  0  0  0  0
  1 12  1  0  0  0  0
  2  6  1  1  0  0  0
  6 14  1  0  0  0  0
  7 13  1  0  0  0  0
  8 17  1  0  0  0  0
  9  7  2  0  0  0  0
 10  8  2  0  0  0  0
 11  7  1  0  0  0  0
 11 14  2  0  0  0  0
 12 23  1  1  0  0  0
 12  2  1  0  0  0  0
 13  5  1  0  0  0  0
 13  4  1  0  0  0  0
 14 18  1  0  0  0  0
 15 21  2  0  0  0  0
 15  1  1  0  0  0  0
 16  3  1  6  0  0  0
 16  2  1  0  0  0  0
 16 11  1  0  0  0  0
 17 21  1  0  0  0  0
 18  4  2  0  0  0  0
 19 10  1  0  0  0  0
 19 20  2  0  0  0  0
 20 15  1  0  0  0  0
 21  3  1  0  0  0  0
 23 24  1  0  0  0  0
 25 22  1  0  0  0  0
 25 24  1  0  0  0  0
 26 22  1  0  0  0  0
 27 26  1  0  0  0  0
 27 23  1  0  0  0  0
M  END
>  <MODEL>
8

>  <REMARK>
 VINA RESULT:      -6.8      2.157      6.499
  Name = 
  1 active torsions:
  status: ('A' for Active; 'I' for Inactive)
    1  A    between atoms: C_9  and  N_15
                            x       y       z     vdW  Elec       q    Type
                         _______ _______ _______ _____ _____    ______ ____

>  <TORSDO>
F 1

$$$$
=
 OpenBabel10262420043D

 27 31  0  0  1  0  0  0  0  0999 V2000
  188.4280  178.6790  140.1900 C   0  0  0  0  0  2  0  0  0  0  0  0
  186.1210  178.6780  139.8700 C   0  0  2  0  0  3  0  0  0  0  0  0
  186.5270  177.9720  142.2560 N   0  0  0  0  0  2  0  0  0  0  0  0
  181.7440  178.1540  141.3620 C   0  0  0  0  0  3  0  0  0  0  0  0
  181.3370  179.0030  143.5940 C   0  0  0  0  0  1  0  0  0  0  0  0
  184.9070  178.0110  139.3920 N   0  0  0  0  0  2  0  0  0  0  0  0
  183.5800  179.0590  142.5910 C   0  0  0  0  0  0  0  0  0  0  0  0
  188.9890  175.8310  143.5930 C   0  0  0  0  0  3  0  0  0  0  0  0
  184.0450  179.5810  143.6410 O   0  0  0  0  0  0  0  0  0  0  0  0
  190.1370  175.6560  142.9410 C   0  0  0  0  0  3  0  0  0  0  0  0
  184.4170  178.7930  141.5060 C   0  0  0  0  0  0  0  0  0  0  0  0
  187.3440  177.9090  139.5760 N   0  0  1  0  0  0  0  0  0  0  0  0
  182.2500  178.7390  142.4920 N   0  0  0  0  0  0  0  0  0  0  0  0
  183.9180  178.2090  140.3790 C   0  0  0  0  0  0  0  0  0  0  0  0
  188.8420  178.0410  141.4730 C   0  0  0  0  0  0  0  0  0  0  0  0
  185.8900  178.9650  141.3900 C   0  0  2  0  0  3  0  0  0  0  0  0
  188.3550  177.1730  143.7460 C   0  0  0  0  0  2  0  0  0  0  0  0
  182.5740  177.8690  140.2680 C   0  0  0  0  0  3  0  0  0  0  0  0
  190.8560  176.7260  142.2260 C   0  0  0  0  0  3  0  0  0  0  0  0
  190.2910  177.7650  141.5990 C   0  0  0  0  0  3  0  0  0  0  0  0
  187.9350  177.7450  142.4310 C   0  0  0  0  0  0  0  0  0  0  0  0
  188.2710  177.5380  135.4320 C   0  0  0  0  0  2  0  0  0  0  0  0
  187.5730  177.8730  138.1150 C   0  0  0  0  0  3  0  0  0  0  0  0
  187.5360  176.4250  137.5850 C   0  0  0  0  0  2  0  0  0  0  0  0
  188.2220  176.2350  136.2230 C   0  0  0  0  0  2  0  0  0  0  0  0
  189.0540  178.6160  136.1910 C   0  0  0  0  0  2  0  0  0  0  0  0
  188.9200  178.5030  137.7150 C   0  0  0  0  0  2  0  0  0  0  0  0
  1 15  1  0  0  0  0
  2  6  1  1  0  0  0
  2 16  1  0  0  0  0
  3 21  1  0  0  0  0
  4 13  1  0  0  0  0
  6 14  1  0  0  0  0
  7  9  2  0  0  0  0
  8 17  1  0  0  0  0
 10  8  2  0  0  0  0
 11  7  1  0  0  0  0
 12 23  1  6  0  0  0
 12  2  1  0  0  0  0
 12  1  1  0  0  0  0
 13  7  1  0  0  0  0
 13  5  1  0  0  0  0
 14 11  2  0  0  0  0
 15 20  1  0  0  0  0
 15 21  2  0  0  0  0
 16 11  1  6  0  0  0
 16  3  1  0  0  0  0
 18 14  1  0  0  0  0
 18  4  2  0  0  0  0
 19 10  1  0  0  0  0
 20 19  2  0  0  0  0
 21 17  1  0  0  0  0
 22 26  1  0  0  0  0
 22 25  1  0  0  0  0
 24 23  1  0  0  0  0
 25 24  1  0  0  0  0
 26 27  1  0  0  0  0
 27 23  1  0  0  0  0
M  END
>  <MODEL>
9

>  <REMARK>
 VINA RESULT:      -6.8      2.477      6.999
  Name = 
  1 active torsions:
  status: ('A' for Active; 'I' for Inactive)
    1  A    between atoms: C_9  and  N_15
                            x       y       z     vdW  Elec       q    Type
                         _______ _______ _______ _____ _____    ______ ____

>  <TORSDO>
F 1

$$$$
