=
 OpenBabel10262421363D

 32 36  0  0  1  0  0  0  0  0999 V2000
  180.4980  177.7290  140.6740 C   0  0  0  0  0  3  0  0  0  0  0  0
  185.2240  178.7630  141.0050 C   0  0  0  0  0  0  0  0  0  0  0  0
  185.3050  178.5890  146.5390 C   0  0  0  0  0  2  0  0  0  0  0  0
  186.2410  177.4530  146.2460 C   0  0  0  0  0  3  0  0  0  0  0  0
  182.9820  178.0450  139.4770 C   0  0  0  0  0  0  0  0  0  0  0  0
  183.9840  178.5890  141.6490 C   0  0  0  0  0  0  0  0  0  0  0  0
  181.5940  178.0790  141.4610 C   0  0  0  0  0  3  0  0  0  0  0  0
  184.1990  178.6820  145.4870 C   0  0  0  0  0  2  0  0  0  0  0  0
  183.8280  178.7830  143.1130 C   0  0  0  0  0  3  0  0  0  0  0  0
  184.7360  178.6020  144.0820 C   0  0  0  0  0  0  0  0  0  0  0  0
  186.8440  178.2180  142.7700 C   0  0  0  0  0  0  0  0  0  0  0  0
  181.9590  177.5020  137.4750 O   0  0  0  0  0  0  0  0  0  0  0  0
  181.8520  177.6890  138.7200 C   0  0  0  0  0  0  0  0  0  0  0  0
  182.8520  178.2450  140.8720 C   0  0  0  0  0  0  0  0  0  0  0  0
  184.2320  178.2060  138.8680 C   0  0  0  0  0  3  0  0  0  0  0  0
  180.6360  177.5430  139.3330 N   0  0  0  0  0  0  0  0  0  0  0  0
  186.6460  177.2210  144.9980 C   0  0  0  0  0  3  0  0  0  0  0  0
  186.0950  178.0070  143.8720 C   0  0  0  0  0  0  0  0  0  0  0  0
  185.3420  178.5690  139.6270 C   0  0  0  0  0  3  0  0  0  0  0  0
  186.4220  179.2290  141.7500 C   0  0  0  0  0  2  0  0  0  0  0  0
  190.5050  177.0970  143.4850 C   0  0  2  0  0  3  0  0  0  0  0  0
  190.6060  176.2570  142.2030 C   0  0  0  0  0  2  0  0  0  0  0  0
  188.6440  177.4720  141.1260 C   0  0  2  0  0  3  0  0  0  0  0  0
  190.2610  176.2600  139.8370 O   0  0  0  0  0  1  0  0  0  0  0  0
  190.1100  177.0360  140.9850 C   0  0  2  0  0  3  0  0  0  0  0  0
  189.2730  178.0120  143.5310 C   0  0  0  0  0  2  0  0  0  0  0  0
  191.6580  177.8650  143.6400 O   0  0  0  0  0  1  0  0  0  0  0  0
  188.4830  178.7150  140.5110 O   0  0  0  0  0  1  0  0  0  0  0  0
  188.1700  177.5150  142.5930 C   0  0  1  0  0  3  0  0  0  0  0  0
  179.4510  177.1790  138.5630 C   0  0  0  0  0  2  0  0  0  0  0  0
  178.9310  175.8080  138.9790 C   0  0  0  0  0  2  0  0  0  0  0  0
  179.8780  174.7170  138.5190 C   0  0  0  0  0  1  0  0  0  0  0  0
  1  7  2  0  0  0  0
  2  6  1  0  0  0  0
  2 20  1  0  0  0  0
  4  3  1  0  0  0  0
  5 14  1  0  0  0  0
  6  9  1  0  0  0  0
  8  3  1  0  0  0  0
  9 10  2  0  0  0  0
 10  8  1  0  0  0  0
 11 18  2  0  0  0  0
 12 13  2  0  0  0  0
 13 16  1  0  0  0  0
 13  5  1  0  0  0  0
 14  7  1  0  0  0  0
 14  6  2  0  0  0  0
 15  5  2  0  0  0  0
 15 19  1  0  0  0  0
 16  1  1  0  0  0  0
 17  4  2  0  0  0  0
 18 10  1  0  0  0  0
 18 17  1  0  0  0  0
 19  2  2  0  0  0  0
 20 11  1  0  0  0  0
 21 26  1  0  0  0  0
 21 27  1  6  0  0  0
 22 21  1  0  0  0  0
 23 28  1  1  0  0  0
 23 29  1  0  0  0  0
 25 24  1  6  0  0  0
 25 23  1  0  0  0  0
 25 22  1  0  0  0  0
 29 11  1  6  0  0  0
 29 26  1  0  0  0  0
 30 31  1  0  0  0  0
 30 16  1  0  0  0  0
 32 31  1  0  0  0  0
M  END
>  <MODEL>
1

>  <REMARK>
 VINA RESULT:      -9.9      0.000      0.000
  Name = 
  3 active torsions:
  status: ('A' for Active; 'I' for Inactive)
    1  A    between atoms: C_1  and  C_10
    2  A    between atoms: C_10  and  N_24
    3  A    between atoms: C_16  and  C_32
                            x       y       z     vdW  Elec       q    Type
                         _______ _______ _______ _____ _____    ______ ____

>  <TORSDO>
F 3

$$$$
=
 OpenBabel10262421363D

 32 36  0  0  1  0  0  0  0  0999 V2000
  188.2990  176.4950  137.1730 C   0  0  0  0  0  3  0  0  0  0  0  0
  189.8880  177.8800  141.5400 C   0  0  0  0  0  0  0  0  0  0  0  0
  184.8630  179.3010  143.3840 C   0  0  0  0  0  2  0  0  0  0  0  0
  185.1700  178.1900  144.3460 C   0  0  0  0  0  3  0  0  0  0  0  0
  190.3180  176.6130  139.0730 C   0  0  0  0  0  0  0  0  0  0  0  0
  188.8340  177.8190  140.6090 C   0  0  0  0  0  0  0  0  0  0  0  0
  188.0520  177.1250  138.3920 C   0  0  0  0  0  3  0  0  0  0  0  0
  185.4560  179.0180  142.0030 C   0  0  0  0  0  2  0  0  0  0  0  0
  187.5020  178.4120  140.8930 C   0  0  0  0  0  3  0  0  0  0  0  0
  186.8940  178.5750  142.0760 C   0  0  0  0  0  0  0  0  0  0  0  0
  188.7150  177.9670  143.6970 C   0  0  0  0  0  0  0  0  0  0  0  0
  191.6430  175.4570  137.5700 O   0  0  0  0  0  0  0  0  0  0  0  0
  190.5250  175.9850  137.8320 C   0  0  0  0  0  0  0  0  0  0  0  0
  189.0610  177.1950  139.3590 C   0  0  0  0  0  0  0  0  0  0  0  0
  191.3410  176.6730  140.0270 C   0  0  0  0  0  3  0  0  0  0  0  0
  189.5150  175.9430  136.9090 N   0  0  0  0  0  0  0  0  0  0  0  0
  186.3830  177.6370  144.3690 C   0  0  0  0  0  3  0  0  0  0  0  0
  187.4070  178.0320  143.3760 C   0  0  0  0  0  0  0  0  0  0  0  0
  191.1270  177.3080  141.2470 C   0  0  0  0  0  3  0  0  0  0  0  0
  189.7430  178.6150  142.8230 C   0  0  0  0  0  2  0  0  0  0  0  0
  188.8810  177.1760  147.5070 C   0  0  2  0  0  3  0  0  0  0  0  0
  190.0420  176.1810  147.3540 C   0  0  0  0  0  2  0  0  0  0  0  0
  190.6850  177.1200  145.0760 C   0  0  2  0  0  3  0  0  0  0  0  0
  192.2140  175.8490  146.4140 O   0  0  0  0  0  1  0  0  0  0  0  0
  191.1620  176.7600  146.4910 C   0  0  2  0  0  3  0  0  0  0  0  0
  188.6110  178.0120  146.2480 C   0  0  0  0  0  2  0  0  0  0  0  0
  189.1260  178.0270  148.5840 O   0  0  0  0  0  1  0  0  0  0  0  0
  191.3700  178.2590  144.6460 O   0  0  0  0  0  1  0  0  0  0  0  0
  189.1590  177.3280  144.9930 C   0  0  1  0  0  3  0  0  0  0  0  0
  189.7110  175.2980  135.6140 C   0  0  0  0  0  2  0  0  0  0  0  0
  188.6920  174.1870  135.3980 C   0  0  0  0  0  2  0  0  0  0  0  0
  189.0110  172.9930  136.2770 C   0  0  0  0  0  1  0  0  0  0  0  0
  1  7  2  0  0  0  0
  2 20  1  0  0  0  0
  3  4  1  0  0  0  0
  4 17  2  0  0  0  0
  5 14  2  0  0  0  0
  5 15  1  0  0  0  0
  6  9  1  0  0  0  0
  6  2  2  0  0  0  0
  7 14  1  0  0  0  0
  8 10  1  0  0  0  0
  8  3  1  0  0  0  0
  9 10  2  0  0  0  0
 10 18  1  0  0  0  0
 12 13  2  0  0  0  0
 13  5  1  0  0  0  0
 14  6  1  0  0  0  0
 15 19  2  0  0  0  0
 16  1  1  0  0  0  0
 16 13  1  0  0  0  0
 18 11  2  0  0  0  0
 18 17  1  0  0  0  0
 19  2  1  0  0  0  0
 20 11  1  0  0  0  0
 21 27  1  1  0  0  0
 22 21  1  0  0  0  0
 23 28  1  1  0  0  0
 23 25  1  0  0  0  0
 25 24  1  6  0  0  0
 25 22  1  0  0  0  0
 26 21  1  0  0  0  0
 29 11  1  6  0  0  0
 29 23  1  0  0  0  0
 29 26  1  0  0  0  0
 30 16  1  0  0  0  0
 31 30  1  0  0  0  0
 31 32  1  0  0  0  0
M  END
>  <MODEL>
2

>  <REMARK>
 VINA RESULT:      -9.9      4.075      6.226
  Name = 
  3 active torsions:
  status: ('A' for Active; 'I' for Inactive)
    1  A    between atoms: C_1  and  C_10
    2  A    between atoms: C_10  and  N_24
    3  A    between atoms: C_16  and  C_32
                            x       y       z     vdW  Elec       q    Type
                         _______ _______ _______ _____ _____    ______ ____

>  <TORSDO>
F 3

$$$$
=
 OpenBabel10262421363D

 32 36  0  0  1  0  0  0  0  0999 V2000
  188.2460  177.4720  144.3270 C   0  0  0  0  0  3  0  0  0  0  0  0
  185.0080  178.9610  141.0390 C   0  0  0  0  0  0  0  0  0  0  0  0
  188.2520  177.8040  136.7020 C   0  0  0  0  0  2  0  0  0  0  0  0
  187.1250  176.8530  136.4230 C   0  0  0  0  0  3  0  0  0  0  0  0
  185.6710  178.2790  143.6790 C   0  0  0  0  0  0  0  0  0  0  0  0
  186.3180  178.5340  141.3270 C   0  0  0  0  0  0  0  0  0  0  0  0
  187.9460  177.7980  143.0050 C   0  0  0  0  0  3  0  0  0  0  0  0
  188.4890  177.9580  138.2050 C   0  0  0  0  0  2  0  0  0  0  0  0
  187.3620  178.4420  140.2740 C   0  0  0  0  0  3  0  0  0  0  0  0
  187.2100  178.1940  138.9650 C   0  0  0  0  0  0  0  0  0  0  0  0
  184.7150  178.2950  138.6920 C   0  0  0  0  0  0  0  0  0  0  0  0
  185.1420  177.9920  145.9120 O   0  0  0  0  0  0  0  0  0  0  0  0
  186.0150  177.9390  145.0000 C   0  0  0  0  0  0  0  0  0  0  0  0
  186.6530  178.2090  142.6630 C   0  0  0  0  0  0  0  0  0  0  0  0
  184.3710  178.6880  143.3580 C   0  0  0  0  0  3  0  0  0  0  0  0
  187.2920  177.5480  145.2950 N   0  0  0  0  0  0  0  0  0  0  0  0
  186.0110  176.8970  137.1550 C   0  0  0  0  0  3  0  0  0  0  0  0
  185.9150  177.8050  138.3200 C   0  0  0  0  0  0  0  0  0  0  0  0
  184.0470  179.0320  142.0490 C   0  0  0  0  0  3  0  0  0  0  0  0
  184.6270  179.4190  139.6770 C   0  0  0  0  0  2  0  0  0  0  0  0
  181.1640  178.3470  137.0910 C   0  0  2  0  0  3  0  0  0  0  0  0
  181.1040  176.8210  136.9270 C   0  0  0  0  0  2  0  0  0  0  0  0
  182.9480  176.4570  138.6460 C   0  0  2  0  0  3  0  0  0  0  0  0
  181.4060  174.7270  138.0390 O   0  0  0  0  0  1  0  0  0  0  0  0
  181.5180  176.1050  138.2130 C   0  0  2  0  0  3  0  0  0  0  0  0
  182.3230  178.8310  137.9740 C   0  0  0  0  0  2  0  0  0  0  0  0
  179.9580  178.8140  137.6120 O   0  0  0  0  0  1  0  0  0  0  0  0
  183.0020  176.4840  140.0410 O   0  0  0  0  0  1  0  0  0  0  0  0
  183.4430  177.7910  138.0480 C   0  0  1  0  0  3  0  0  0  0  0  0
  187.6690  177.1950  146.6610 C   0  0  0  0  0  2  0  0  0  0  0  0
  189.0470  177.7450  147.0060 C   0  0  0  0  0  2  0  0  0  0  0  0
  189.0740  178.2590  148.4320 C   0  0  0  0  0  1  0  0  0  0  0  0
  1 16  1  0  0  0  0
  2  6  2  0  0  0  0
  2 19  1  0  0  0  0
  3  8  1  0  0  0  0
  4  3  1  0  0  0  0
  4 17  2  0  0  0  0
  5 13  1  0  0  0  0
  6 14  1  0  0  0  0
  7  1  2  0  0  0  0
  8 10  1  0  0  0  0
  9  6  1  0  0  0  0
 10  9  2  0  0  0  0
 11 20  1  0  0  0  0
 13 16  1  0  0  0  0
 13 12  2  0  0  0  0
 14  7  1  0  0  0  0
 14  5  2  0  0  0  0
 15  5  1  0  0  0  0
 16 30  1  0  0  0  0
 17 18  1  0  0  0  0
 18 11  2  0  0  0  0
 18 10  1  0  0  0  0
 19 15  2  0  0  0  0
 20  2  1  0  0  0  0
 21 27  1  1  0  0  0
 21 26  1  0  0  0  0
 22 21  1  0  0  0  0
 22 25  1  0  0  0  0
 23 28  1  1  0  0  0
 25 24  1  6  0  0  0
 25 23  1  0  0  0  0
 26 29  1  0  0  0  0
 29 23  1  0  0  0  0
 29 11  1  1  0  0  0
 30 31  1  0  0  0  0
 31 32  1  0  0  0  0
M  END
>  <MODEL>
3

>  <REMARK>
 VINA RESULT:      -9.7      3.107      8.191
  Name = 
  3 active torsions:
  status: ('A' for Active; 'I' for Inactive)
    1  A    between atoms: C_1  and  C_10
    2  A    between atoms: C_10  and  N_24
    3  A    between atoms: C_16  and  C_32
                            x       y       z     vdW  Elec       q    Type
                         _______ _______ _______ _____ _____    ______ ____

>  <TORSDO>
F 3

$$$$
=
 OpenBabel10262421363D

 32 36  0  0  1  0  0  0  0  0999 V2000
  189.4860  177.0850  144.5880 C   0  0  0  0  0  3  0  0  0  0  0  0
  188.6690  178.3100  139.9680 C   0  0  0  0  0  0  0  0  0  0  0  0
  193.5390  176.3930  138.1580 C   0  0  0  0  0  2  0  0  0  0  0  0
  192.6210  175.4820  137.3970 C   0  0  0  0  0  3  0  0  0  0  0  0
  187.7570  177.9490  142.5980 C   0  0  0  0  0  0  0  0  0  0  0  0
  189.5690  177.8480  140.9480 C   0  0  0  0  0  0  0  0  0  0  0  0
  189.9680  177.2470  143.2910 C   0  0  0  0  0  3  0  0  0  0  0  0
  192.9670  176.7320  139.5360 C   0  0  0  0  0  2  0  0  0  0  0  0
  190.9900  177.5540  140.6300 C   0  0  0  0  0  3  0  0  0  0  0  0
  191.5200  177.1440  139.4690 C   0  0  0  0  0  0  0  0  0  0  0  0
  189.5750  177.3550  137.8940 C   0  0  0  0  0  0  0  0  0  0  0  0
  186.1030  177.9950  144.2140 O   0  0  0  0  0  0  0  0  0  0  0  0
  187.3100  177.7690  143.9190 C   0  0  0  0  0  0  0  0  0  0  0  0
  189.1090  177.6850  142.2760 C   0  0  0  0  0  0  0  0  0  0  0  0
  186.8810  178.3880  141.5970 C   0  0  0  0  0  3  0  0  0  0  0  0
  188.1830  177.3460  144.8840 N   0  0  0  0  0  0  0  0  0  0  0  0
  191.3040  175.6890  137.4120 C   0  0  0  0  0  3  0  0  0  0  0  0
  190.7210  176.7490  138.2640 C   0  0  0  0  0  0  0  0  0  0  0  0
  187.3370  178.5730  140.2950 C   0  0  0  0  0  3  0  0  0  0  0  0
  189.1200  178.6030  138.5830 C   0  0  0  0  0  2  0  0  0  0  0  0
  187.2820  177.3960  134.7440 C   0  0  2  0  0  3  0  0  0  0  0  0
  187.2890  175.8670  134.5940 C   0  0  0  0  0  2  0  0  0  0  0  0
  188.0350  175.5270  137.0050 C   0  0  2  0  0  3  0  0  0  0  0  0
  186.9700  173.7930  135.7390 O   0  0  0  0  0  1  0  0  0  0  0  0
  187.0020  175.1740  135.9250 C   0  0  2  0  0  3  0  0  0  0  0  0
  187.8590  177.8900  136.0780 C   0  0  0  0  0  2  0  0  0  0  0  0
  185.9840  177.8800  134.5940 O   0  0  0  0  0  1  0  0  0  0  0  0
  187.3920  175.5800  138.2440 O   0  0  0  0  0  1  0  0  0  0  0  0
  188.7810  176.8450  136.7120 C   0  0  1  0  0  3  0  0  0  0  0  0
  187.7400  177.1570  146.2620 C   0  0  0  0  0  2  0  0  0  0  0  0
  188.9290  177.0670  147.2110 C   0  0  0  0  0  2  0  0  0  0  0  0
  188.8350  178.1340  148.2850 C   0  0  0  0  0  1  0  0  0  0  0  0
  1 16  1  0  0  0  0
  2 19  2  0  0  0  0
  2  6  1  0  0  0  0
  3  8  1  0  0  0  0
  4 17  2  0  0  0  0
  4  3  1  0  0  0  0
  5 13  1  0  0  0  0
  6 14  2  0  0  0  0
  7  1  2  0  0  0  0
  9  6  1  0  0  0  0
 10  8  1  0  0  0  0
 10  9  2  0  0  0  0
 11 18  2  0  0  0  0
 11 20  1  0  0  0  0
 13 12  2  0  0  0  0
 13 16  1  0  0  0  0
 14  5  1  0  0  0  0
 14  7  1  0  0  0  0
 15  5  2  0  0  0  0
 16 30  1  0  0  0  0
 17 18  1  0  0  0  0
 18 10  1  0  0  0  0
 19 15  1  0  0  0  0
 20  2  1  0  0  0  0
 21 27  1  1  0  0  0
 21 26  1  0  0  0  0
 22 21  1  0  0  0  0
 22 25  1  0  0  0  0
 23 28  1  1  0  0  0
 25 24  1  6  0  0  0
 25 23  1  0  0  0  0
 26 29  1  0  0  0  0
 29 23  1  0  0  0  0
 29 11  1  1  0  0  0
 30 31  1  0  0  0  0
 31 32  1  0  0  0  0
M  END
>  <MODEL>
4

>  <REMARK>
 VINA RESULT:      -8.9      4.300      8.234
  Name = 
  3 active torsions:
  status: ('A' for Active; 'I' for Inactive)
    1  A    between atoms: C_1  and  C_10
    2  A    between atoms: C_10  and  N_24
    3  A    between atoms: C_16  and  C_32
                            x       y       z     vdW  Elec       q    Type
                         _______ _______ _______ _____ _____    ______ ____

>  <TORSDO>
F 3

$$$$
=
 OpenBabel10262421363D

 32 36  0  0  1  0  0  0  0  0999 V2000
  186.4880  178.2160  142.9600 C   0  0  0  0  0  3  0  0  0  0  0  0
  183.2940  178.5860  139.3300 C   0  0  0  0  0  0  0  0  0  0  0  0
  178.9480  179.3600  142.6730 C   0  0  0  0  0  2  0  0  0  0  0  0
  178.9350  180.6750  141.9500 C   0  0  0  0  0  3  0  0  0  0  0  0
  185.9430  178.4830  140.2520 C   0  0  0  0  0  0  0  0  0  0  0  0
  183.5340  178.4740  140.7130 C   0  0  0  0  0  0  0  0  0  0  0  0
  185.1620  178.2720  142.5340 C   0  0  0  0  0  3  0  0  0  0  0  0
  180.3760  178.8510  142.8740 C   0  0  0  0  0  2  0  0  0  0  0  0
  182.4230  178.4000  141.6970 C   0  0  0  0  0  3  0  0  0  0  0  0
  181.1950  178.9290  141.6130 C   0  0  0  0  0  0  0  0  0  0  0  0
  181.1300  179.7450  139.2380 C   0  0  0  0  0  0  0  0  0  0  0  0
  188.2300  178.5030  139.9100 O   0  0  0  0  0  0  0  0  0  0  0  0
  187.2660  178.4260  140.7240 C   0  0  0  0  0  0  0  0  0  0  0  0
  184.8710  178.4030  141.1720 C   0  0  0  0  0  0  0  0  0  0  0  0
  185.6730  178.6150  138.8850 C   0  0  0  0  0  3  0  0  0  0  0  0
  187.5100  178.2900  142.0640 N   0  0  0  0  0  0  0  0  0  0  0  0
  179.7450  180.8780  140.9100 C   0  0  0  0  0  3  0  0  0  0  0  0
  180.7420  179.8540  140.5250 C   0  0  0  0  0  0  0  0  0  0  0  0
  184.3580  178.6590  138.4290 C   0  0  0  0  0  3  0  0  0  0  0  0
  181.9140  178.5550  138.7810 C   0  0  0  0  0  2  0  0  0  0  0  0
  180.1050  181.2610  135.7990 C   0  0  2  0  0  3  0  0  0  0  0  0
  179.9620  182.6860  136.3540 C   0  0  0  0  0  2  0  0  0  0  0  0
  181.3730  182.1430  138.4030 C   0  0  2  0  0  3  0  0  0  0  0  0
  181.0260  184.3900  137.6480 O   0  0  0  0  0  1  0  0  0  0  0  0
  181.1710  183.0780  137.2020 C   0  0  2  0  0  3  0  0  0  0  0  0
  180.7920  180.2850  136.7640 C   0  0  0  0  0  2  0  0  0  0  0  0
  180.8050  181.2900  134.5940 O   0  0  0  0  0  1  0  0  0  0  0  0
  182.7430  181.9980  138.6360 O   0  0  0  0  0  1  0  0  0  0  0  0
  180.6970  180.7690  138.2130 C   0  0  1  0  0  3  0  0  0  0  0  0
  188.8770  178.2260  142.5720 C   0  0  0  0  0  2  0  0  0  0  0  0
  188.9890  177.2160  143.7080 C   0  0  0  0  0  2  0  0  0  0  0  0
  189.5460  177.8770  144.9540 C   0  0  0  0  0  1  0  0  0  0  0  0
  2  6  1  0  0  0  0
  3  8  1  0  0  0  0
  4  3  1  0  0  0  0
  5 13  1  0  0  0  0
  5 14  1  0  0  0  0
  6 14  2  0  0  0  0
  6  9  1  0  0  0  0
  7  1  2  0  0  0  0
 10  9  2  0  0  0  0
 10  8  1  0  0  0  0
 11 18  2  0  0  0  0
 12 13  2  0  0  0  0
 13 16  1  0  0  0  0
 14  7  1  0  0  0  0
 15  5  2  0  0  0  0
 16 30  1  0  0  0  0
 16  1  1  0  0  0  0
 17  4  2  0  0  0  0
 18 17  1  0  0  0  0
 18 10  1  0  0  0  0
 19 15  1  0  0  0  0
 19  2  2  0  0  0  0
 20 11  1  0  0  0  0
 20  2  1  0  0  0  0
 21 27  1  6  0  0  0
 21 22  1  0  0  0  0
 21 26  1  0  0  0  0
 22 25  1  0  0  0  0
 23 28  1  6  0  0  0
 25 24  1  1  0  0  0
 25 23  1  0  0  0  0
 26 29  1  0  0  0  0
 29 23  1  0  0  0  0
 29 11  1  1  0  0  0
 30 31  1  0  0  0  0
 31 32  1  0  0  0  0
M  END
>  <MODEL>
5

>  <REMARK>
 VINA RESULT:      -8.9      3.278      8.260
  Name = 
  3 active torsions:
  status: ('A' for Active; 'I' for Inactive)
    1  A    between atoms: C_1  and  C_10
    2  A    between atoms: C_10  and  N_24
    3  A    between atoms: C_16  and  C_32
                            x       y       z     vdW  Elec       q    Type
                         _______ _______ _______ _____ _____    ______ ____

>  <TORSDO>
F 3

$$$$
=
 OpenBabel10262421363D

 32 36  0  0  1  0  0  0  0  0999 V2000
  189.3240  177.2620  144.2120 C   0  0  0  0  0  3  0  0  0  0  0  0
  184.9650  178.7570  142.7040 C   0  0  0  0  0  0  0  0  0  0  0  0
  186.1700  178.2060  137.3270 C   0  0  0  0  0  2  0  0  0  0  0  0
  185.0630  177.1970  137.4330 C   0  0  0  0  0  3  0  0  0  0  0  0
  186.6840  177.9180  144.7580 C   0  0  0  0  0  0  0  0  0  0  0  0
  186.2920  178.4100  142.3870 C   0  0  0  0  0  0  0  0  0  0  0  0
  188.4940  177.6680  143.1690 C   0  0  0  0  0  3  0  0  0  0  0  0
  187.0000  178.2560  138.6100 C   0  0  0  0  0  2  0  0  0  0  0  0
  186.8110  178.4840  140.9970 C   0  0  0  0  0  3  0  0  0  0  0  0
  186.1410  178.3320  139.8460 C   0  0  0  0  0  0  0  0  0  0  0  0
  183.7540  178.2630  140.6250 C   0  0  0  0  0  0  0  0  0  0  0  0
  187.1350  177.4130  146.9690 O   0  0  0  0  0  0  0  0  0  0  0  0
  187.5540  177.5000  145.7800 C   0  0  0  0  0  0  0  0  0  0  0  0
  187.1610  178.0050  143.4290 C   0  0  0  0  0  0  0  0  0  0  0  0
  185.3530  178.2510  145.0390 C   0  0  0  0  0  3  0  0  0  0  0  0
  188.8530  177.1860  145.4870 N   0  0  0  0  0  0  0  0  0  0  0  0
  184.3510  177.0960  138.5560 C   0  0  0  0  0  3  0  0  0  0  0  0
  184.7110  177.8980  139.7470 C   0  0  0  0  0  0  0  0  0  0  0  0
  184.5050  178.6730  144.0200 C   0  0  0  0  0  3  0  0  0  0  0  0
  184.0400  179.2930  141.6720 C   0  0  0  0  0  2  0  0  0  0  0  0
  180.8600  175.7710  139.8580 C   0  0  2  0  0  3  0  0  0  0  0  0
  179.7600  176.7710  140.2440 C   0  0  0  0  0  2  0  0  0  0  0  0
  181.3330  178.7590  139.9980 C   0  0  2  0  0  3  0  0  0  0  0  0
  178.9490  178.9970  139.9270 O   0  0  0  0  0  1  0  0  0  0  0  0
  179.9910  178.1330  139.5910 C   0  0  2  0  0  3  0  0  0  0  0  0
  182.2530  176.4020  139.7250 C   0  0  0  0  0  2  0  0  0  0  0  0
  180.5240  175.1350  138.6630 O   0  0  0  0  0  1  0  0  0  0  0  0
  181.8460  179.4710  138.9110 O   0  0  0  0  0  1  0  0  0  0  0  0
  182.3490  177.7150  140.5060 C   0  0  1  0  0  3  0  0  0  0  0  0
  189.7730  176.7540  146.5350 C   0  0  0  0  0  2  0  0  0  0  0  0
  191.2110  176.7520  146.0330 C   0  0  0  0  0  2  0  0  0  0  0  0
  192.0560  175.7840  146.8380 C   0  0  0  0  0  1  0  0  0  0  0  0
  1 16  1  0  0  0  0
  2 19  1  0  0  0  0
  3  4  1  0  0  0  0
  3  8  1  0  0  0  0
  4 17  2  0  0  0  0
  5 15  1  0  0  0  0
  5 13  1  0  0  0  0
  6  2  2  0  0  0  0
  6 14  1  0  0  0  0
  7 14  1  0  0  0  0
  7  1  2  0  0  0  0
  8 10  1  0  0  0  0
  9  6  1  0  0  0  0
 10  9  2  0  0  0  0
 11 20  1  0  0  0  0
 13 12  2  0  0  0  0
 14  5  2  0  0  0  0
 16 13  1  0  0  0  0
 16 30  1  0  0  0  0
 17 18  1  0  0  0  0
 18 10  1  0  0  0  0
 18 11  2  0  0  0  0
 19 15  2  0  0  0  0
 20  2  1  0  0  0  0
 21 27  1  6  0  0  0
 21 22  1  0  0  0  0
 23 28  1  6  0  0  0
 23 29  1  0  0  0  0
 25 24  1  1  0  0  0
 25 23  1  0  0  0  0
 25 22  1  0  0  0  0
 26 21  1  0  0  0  0
 26 29  1  0  0  0  0
 29 11  1  6  0  0  0
 31 30  1  0  0  0  0
 31 32  1  0  0  0  0
M  END
>  <MODEL>
6

>  <REMARK>
 VINA RESULT:      -8.6      3.088      8.562
  Name = 
  3 active torsions:
  status: ('A' for Active; 'I' for Inactive)
    1  A    between atoms: C_1  and  C_10
    2  A    between atoms: C_10  and  N_24
    3  A    between atoms: C_16  and  C_32
                            x       y       z     vdW  Elec       q    Type
                         _______ _______ _______ _____ _____    ______ ____

>  <TORSDO>
F 3

$$$$
=
 OpenBabel10262421363D

 32 36  0  0  1  0  0  0  0  0999 V2000
  182.3100  178.3380  143.8040 C   0  0  0  0  0  3  0  0  0  0  0  0
  186.2810  178.8490  141.0680 C   0  0  0  0  0  0  0  0  0  0  0  0
  189.7440  177.1270  145.0320 C   0  0  0  0  0  2  0  0  0  0  0  0
  189.9780  176.0450  144.0170 C   0  0  0  0  0  3  0  0  0  0  0  0
  183.4870  178.7730  141.3290 C   0  0  0  0  0  0  0  0  0  0  0  0
  185.7180  178.6040  142.3350 C   0  0  0  0  0  0  0  0  0  0  0  0
  183.7000  178.3630  143.7060 C   0  0  0  0  0  3  0  0  0  0  0  0
  188.2900  177.6000  145.0120 C   0  0  0  0  0  2  0  0  0  0  0  0
  186.5610  178.3920  143.5400 C   0  0  0  0  0  3  0  0  0  0  0  0
  187.7950  177.8740  143.6160 C   0  0  0  0  0  0  0  0  0  0  0  0
  188.4490  177.7020  141.1970 C   0  0  0  0  0  0  0  0  0  0  0  0
  181.3480  178.8970  140.4600 O   0  0  0  0  0  0  0  0  0  0  0  0
  182.0890  178.7360  141.4710 C   0  0  0  0  0  0  0  0  0  0  0  0
  184.3090  178.5840  142.4650 C   0  0  0  0  0  0  0  0  0  0  0  0
  184.0770  178.9950  140.0790 C   0  0  0  0  0  3  0  0  0  0  0  0
  181.5310  178.5250  142.7030 N   0  0  0  0  0  0  0  0  0  0  0  0
  189.4450  176.1400  142.7990 C   0  0  0  0  0  3  0  0  0  0  0  0
  188.5280  177.2520  142.4660 C   0  0  0  0  0  0  0  0  0  0  0  0
  185.4630  179.0390  139.9530 C   0  0  0  0  0  3  0  0  0  0  0  0
  187.7490  178.9890  140.8900 C   0  0  0  0  0  2  0  0  0  0  0  0
  191.3420  176.1480  139.1010 C   0  0  2  0  0  3  0  0  0  0  0  0
  190.4100  175.6780  137.9740 C   0  0  0  0  0  2  0  0  0  0  0  0
  188.5670  177.2860  138.6840 C   0  0  2  0  0  3  0  0  0  0  0  0
  188.6630  176.3420  136.4830 O   0  0  0  0  0  1  0  0  0  0  0  0
  189.4590  176.7910  137.5360 C   0  0  2  0  0  3  0  0  0  0  0  0
  190.6770  177.1100  140.0960 C   0  0  0  0  0  2  0  0  0  0  0  0
  192.4740  176.7540  138.5570 O   0  0  0  0  0  1  0  0  0  0  0  0
  188.3540  178.6580  138.5300 O   0  0  0  0  0  1  0  0  0  0  0  0
  189.1520  176.9700  140.0760 C   0  0  1  0  0  3  0  0  0  0  0  0
  180.0820  178.4880  142.8700 C   0  0  0  0  0  2  0  0  0  0  0  0
  179.7030  178.4920  144.3460 C   0  0  0  0  0  2  0  0  0  0  0  0
  178.9330  179.7510  144.6950 C   0  0  0  0  0  1  0  0  0  0  0  0
  2  6  1  0  0  0  0
  4  3  1  0  0  0  0
  5 13  1  0  0  0  0
  5 14  1  0  0  0  0
  6 14  2  0  0  0  0
  6  9  1  0  0  0  0
  7  1  2  0  0  0  0
  8  3  1  0  0  0  0
  9 10  2  0  0  0  0
 10  8  1  0  0  0  0
 11 18  2  0  0  0  0
 12 13  2  0  0  0  0
 13 16  1  0  0  0  0
 14  7  1  0  0  0  0
 15  5  2  0  0  0  0
 16 30  1  0  0  0  0
 16  1  1  0  0  0  0
 17  4  2  0  0  0  0
 18 17  1  0  0  0  0
 18 10  1  0  0  0  0
 19 15  1  0  0  0  0
 19  2  2  0  0  0  0
 20  2  1  0  0  0  0
 20 11  1  0  0  0  0
 21 27  1  6  0  0  0
 21 26  1  0  0  0  0
 22 21  1  0  0  0  0
 23 28  1  6  0  0  0
 23 29  1  0  0  0  0
 25 24  1  6  0  0  0
 25 22  1  0  0  0  0
 25 23  1  0  0  0  0
 29 26  1  0  0  0  0
 29 11  1  1  0  0  0
 30 31  1  0  0  0  0
 31 32  1  0  0  0  0
M  END
>  <MODEL>
7

>  <REMARK>
 VINA RESULT:      -8.6      2.425      3.666
  Name = 
  3 active torsions:
  status: ('A' for Active; 'I' for Inactive)
    1  A    between atoms: C_1  and  C_10
    2  A    between atoms: C_10  and  N_24
    3  A    between atoms: C_16  and  C_32
                            x       y       z     vdW  Elec       q    Type
                         _______ _______ _______ _____ _____    ______ ____

>  <TORSDO>
F 3

$$$$
=
 OpenBabel10262421363D

 32 36  0  0  1  0  0  0  0  0999 V2000
  188.8110  177.5330  143.9070 C   0  0  0  0  0  3  0  0  0  0  0  0
  184.6170  178.8600  141.8660 C   0  0  0  0  0  0  0  0  0  0  0  0
  186.4230  178.1270  136.6820 C   0  0  0  0  0  2  0  0  0  0  0  0
  185.3330  177.0960  136.7080 C   0  0  0  0  0  3  0  0  0  0  0  0
  186.1130  178.1450  144.1300 C   0  0  0  0  0  0  0  0  0  0  0  0
  185.9780  178.5340  141.7120 C   0  0  0  0  0  0  0  0  0  0  0  0
  188.0940  177.8770  142.7630 C   0  0  0  0  0  3  0  0  0  0  0  0
  187.1050  178.2480  138.0470 C   0  0  0  0  0  2  0  0  0  0  0  0
  186.6470  178.5650  140.3860 C   0  0  0  0  0  3  0  0  0  0  0  0
  186.1130  178.3510  139.1750 C   0  0  0  0  0  0  0  0  0  0  0  0
  183.6550  178.2540  139.6880 C   0  0  0  0  0  0  0  0  0  0  0  0
  186.3260  177.7380  146.3970 O   0  0  0  0  0  0  0  0  0  0  0  0
  186.8730  177.7890  145.2590 C   0  0  0  0  0  0  0  0  0  0  0  0
  186.7330  178.1920  142.8590 C   0  0  0  0  0  0  0  0  0  0  0  0
  184.7530  178.4560  144.2480 C   0  0  0  0  0  3  0  0  0  0  0  0
  188.2030  177.4960  145.1240 N   0  0  0  0  0  0  0  0  0  0  0  0
  184.5020  177.0220  137.7490 C   0  0  0  0  0  3  0  0  0  0  0  0
  184.7110  177.8780  138.9370 C   0  0  0  0  0  0  0  0  0  0  0  0
  184.0150  178.8170  143.1250 C   0  0  0  0  0  3  0  0  0  0  0  0
  183.8020  179.3320  140.7170 C   0  0  0  0  0  2  0  0  0  0  0  0
  180.3960  177.2700  137.7960 C   0  0  2  0  0  3  0  0  0  0  0  0
  179.7460  176.6370  139.0350 C   0  0  0  0  0  2  0  0  0  0  0  0
  181.3120  177.8720  140.6180 C   0  0  2  0  0  3  0  0  0  0  0  0
  179.2140  176.9660  141.3420 O   0  0  0  0  0  1  0  0  0  0  0  0
  179.8550  177.5540  140.2520 C   0  0  2  0  0  3  0  0  0  0  0  0
  181.6560  178.0890  138.1070 C   0  0  0  0  0  2  0  0  0  0  0  0
  179.4700  178.0770  137.1360 O   0  0  0  0  0  1  0  0  0  0  0  0
  181.3800  179.1800  141.1030 O   0  0  0  0  0  1  0  0  0  0  0  0
  182.2840  177.6680  139.4380 C   0  0  1  0  0  3  0  0  0  0  0  0
  189.0080  177.1280  146.2850 C   0  0  0  0  0  2  0  0  0  0  0  0
  190.4920  177.1260  145.9400 C   0  0  0  0  0  2  0  0  0  0  0  0
  191.3100  176.6180  147.1120 C   0  0  0  0  0  1  0  0  0  0  0  0
  1 16  1  0  0  0  0
  2 19  1  0  0  0  0
  3  4  1  0  0  0  0
  3  8  1  0  0  0  0
  4 17  2  0  0  0  0
  5 15  1  0  0  0  0
  5 13  1  0  0  0  0
  6  2  2  0  0  0  0
  6 14  1  0  0  0  0
  7 14  1  0  0  0  0
  7  1  2  0  0  0  0
  8 10  1  0  0  0  0
  9  6  1  0  0  0  0
 10  9  2  0  0  0  0
 11 20  1  0  0  0  0
 13 12  2  0  0  0  0
 14  5  2  0  0  0  0
 16 13  1  0  0  0  0
 16 30  1  0  0  0  0
 17 18  1  0  0  0  0
 18 10  1  0  0  0  0
 18 11  2  0  0  0  0
 19 15  2  0  0  0  0
 20  2  1  0  0  0  0
 21 27  1  1  0  0  0
 21 26  1  0  0  0  0
 21 22  1  0  0  0  0
 22 25  1  0  0  0  0
 23 28  1  6  0  0  0
 25 23  1  0  0  0  0
 25 24  1  1  0  0  0
 26 29  1  0  0  0  0
 29 11  1  1  0  0  0
 29 23  1  0  0  0  0
 31 30  1  0  0  0  0
 31 32  1  0  0  0  0
M  END
>  <MODEL>
8

>  <REMARK>
 VINA RESULT:      -8.4      2.959      8.573
  Name = 
  3 active torsions:
  status: ('A' for Active; 'I' for Inactive)
    1  A    between atoms: C_1  and  C_10
    2  A    between atoms: C_10  and  N_24
    3  A    between atoms: C_16  and  C_32
                            x       y       z     vdW  Elec       q    Type
                         _______ _______ _______ _____ _____    ______ ____

>  <TORSDO>
F 3

$$$$
=
 OpenBabel10262421363D

 32 36  0  0  1  0  0  0  0  0999 V2000
  183.2660  178.5580  143.3560 C   0  0  0  0  0  3  0  0  0  0  0  0
  187.1150  178.5640  140.4070 C   0  0  0  0  0  0  0  0  0  0  0  0
  190.7140  177.2680  144.4120 C   0  0  0  0  0  2  0  0  0  0  0  0
  190.8690  176.0530  143.5430 C   0  0  0  0  0  3  0  0  0  0  0  0
  184.3360  178.6180  140.7970 C   0  0  0  0  0  0  0  0  0  0  0  0
  186.6070  178.5090  141.7190 C   0  0  0  0  0  0  0  0  0  0  0  0
  184.6500  178.5220  143.1960 C   0  0  0  0  0  3  0  0  0  0  0  0
  189.2740  177.7830  144.3920 C   0  0  0  0  0  2  0  0  0  0  0  0
  187.5000  178.4300  142.9030 C   0  0  0  0  0  3  0  0  0  0  0  0
  188.7210  177.8850  142.9950 C   0  0  0  0  0  0  0  0  0  0  0  0
  189.2540  177.3710  140.5940 C   0  0  0  0  0  0  0  0  0  0  0  0
  182.1610  178.6990  140.0130 O   0  0  0  0  0  0  0  0  0  0  0  0
  182.9450  178.6490  141.0030 C   0  0  0  0  0  0  0  0  0  0  0  0
  185.2050  178.5550  141.9110 C   0  0  0  0  0  0  0  0  0  0  0  0
  184.8710  178.6520  139.5030 C   0  0  0  0  0  3  0  0  0  0  0  0
  182.4410  178.6220  142.2750 N   0  0  0  0  0  0  0  0  0  0  0  0
  190.2810  176.0030  142.3470 C   0  0  0  0  0  3  0  0  0  0  0  0
  189.3800  177.0910  141.9080 C   0  0  0  0  0  0  0  0  0  0  0  0
  186.2500  178.6310  139.3130 C   0  0  0  0  0  3  0  0  0  0  0  0
  188.5770  178.6280  140.1480 C   0  0  0  0  0  2  0  0  0  0  0  0
  191.9910  175.7240  138.3650 C   0  0  2  0  0  3  0  0  0  0  0  0
  190.9860  174.8560  137.5930 C   0  0  0  0  0  2  0  0  0  0  0  0
  189.0260  176.3330  138.2760 C   0  0  2  0  0  3  0  0  0  0  0  0
  188.9260  174.8690  136.3820 O   0  0  0  0  0  1  0  0  0  0  0  0
  189.7900  175.6790  137.1150 C   0  0  2  0  0  3  0  0  0  0  0  0
  191.3380  176.8140  139.2250 C   0  0  0  0  0  2  0  0  0  0  0  0
  192.8890  176.3130  137.4750 O   0  0  0  0  0  1  0  0  0  0  0  0
  188.5460  177.5750  137.8570 O   0  0  0  0  0  1  0  0  0  0  0  0
  189.8820  176.4720  139.5520 C   0  0  1  0  0  3  0  0  0  0  0  0
  181.0010  178.6580  142.5090 C   0  0  0  0  0  2  0  0  0  0  0  0
  180.6900  178.6280  144.0000 C   0  0  0  0  0  2  0  0  0  0  0  0
  179.2460  179.0190  144.2510 C   0  0  0  0  0  1  0  0  0  0  0  0
  2  6  1  0  0  0  0
  4  3  1  0  0  0  0
  5 13  1  0  0  0  0
  5 14  1  0  0  0  0
  6 14  2  0  0  0  0
  6  9  1  0  0  0  0
  7  1  2  0  0  0  0
  8  3  1  0  0  0  0
  9 10  2  0  0  0  0
 10  8  1  0  0  0  0
 11 18  2  0  0  0  0
 12 13  2  0  0  0  0
 13 16  1  0  0  0  0
 14  7  1  0  0  0  0
 15  5  2  0  0  0  0
 16 30  1  0  0  0  0
 16  1  1  0  0  0  0
 17  4  2  0  0  0  0
 18 17  1  0  0  0  0
 18 10  1  0  0  0  0
 19 15  1  0  0  0  0
 19  2  2  0  0  0  0
 20  2  1  0  0  0  0
 20 11  1  0  0  0  0
 21 27  1  6  0  0  0
 21 26  1  0  0  0  0
 22 21  1  0  0  0  0
 23 28  1  6  0  0  0
 23 29  1  0  0  0  0
 25 24  1  1  0  0  0
 25 22  1  0  0  0  0
 25 23  1  0  0  0  0
 26 29  1  0  0  0  0
 29 11  1  1  0  0  0
 30 31  1  0  0  0  0
 31 32  1  0  0  0  0
M  END
>  <MODEL>
9

>  <REMARK>
 VINA RESULT:      -8.3      2.627      4.156
  Name = 
  3 active torsions:
  status: ('A' for Active; 'I' for Inactive)
    1  A    between atoms: C_1  and  C_10
    2  A    between atoms: C_10  and  N_24
    3  A    between atoms: C_16  and  C_32
                            x       y       z     vdW  Elec       q    Type
                         _______ _______ _______ _____ _____    ______ ____

>  <TORSDO>
F 3

$$$$
