=
 OpenBabel10262423003D

 37 41  0  0  1  0  0  0  0  0999 V2000
  181.4030  179.3480  141.4110 C   0  0  0  0  0  2  0  0  0  0  0  0
  180.1040  175.4150  139.5380 C   0  0  0  0  0  3  0  0  0  0  0  0
  182.4950  178.4110  141.6640 N   0  0  0  0  0  0  0  0  0  0  0  0
  180.8120  176.4210  140.2040 C   0  0  0  0  0  0  0  0  0  0  0  0
  180.0990  177.0690  141.3520 C   0  0  0  0  0  2  0  0  0  0  0  0
  182.1570  176.7040  139.8260 C   0  0  0  0  0  0  0  0  0  0  0  0
  182.0110  174.9450  138.1420 C   0  0  0  0  0  3  0  0  0  0  0  0
  178.9310  179.2430  141.9280 C   0  0  0  0  0  2  0  0  0  0  0  0
  180.1060  178.5840  141.2490 C   0  0  0  0  0  0  0  0  0  0  0  0
  182.7330  175.9420  138.7980 C   0  0  0  0  0  3  0  0  0  0  0  0
  179.0290  179.2280  140.4080 C   0  0  0  0  0  2  0  0  0  0  0  0
  183.0400  177.7820  140.4380 C   0  0  1  0  0  3  0  0  0  0  0  0
  180.6870  174.6820  138.5060 C   0  0  0  0  0  0  0  0  0  0  0  0
  179.9330  173.6930  137.8670 O   0  0  0  0  0  0  0  0  0  0  0  0
  180.5190  172.5430  137.2740 C   0  0  0  0  0  1  0  0  0  0  0  0
  183.4800  178.9680  142.6070 C   0  0  1  0  0  3  0  0  0  0  0  0
  181.9040  178.4660  144.3350 O   0  0  0  0  0  1  0  0  0  0  0  0
  182.8300  179.4200  143.9110 C   0  0  0  0  0  2  0  0  0  0  0  0
  184.6710  178.0490  142.8570 C   0  0  0  0  0  2  0  0  0  0  0  0
  185.2290  178.2490  144.2580 C   0  0  0  0  0  2  0  0  0  0  0  0
  187.2080  177.8690  145.6060 C   0  0  0  0  0  3  0  0  0  0  0  0
  186.6600  177.8210  144.3870 C   0  0  0  0  0  0  0  0  0  0  0  0
  187.4510  177.3500  143.1810 C   0  0  0  0  0  2  0  0  0  0  0  0
  189.8370  176.4180  142.3010 S   0  0  0  0  0  0  0  0  0  0  0  0
  189.3850  177.0400  144.8690 C   0  0  0  0  0  3  0  0  0  0  0  0
  188.8650  176.9510  143.4980 C   0  0  0  0  0  0  0  0  0  0  0  0
  188.6040  177.4710  145.8570 C   0  0  0  0  0  3  0  0  0  0  0  0
  183.6700  178.7030  139.3600 C   0  0  1  0  0  3  0  0  0  0  0  0
  185.1530  178.6330  139.1510 C   0  0  0  0  0  0  0  0  0  0  0  0
  185.9250  178.9830  140.0310 O   0  0  0  0  0  0  0  0  0  0  0  0
  185.6820  178.0660  137.8780 C   0  0  0  0  0  2  0  0  0  0  0  0
  186.7510  178.8370  137.4220 O   0  0  0  0  0  1  0  0  0  0  0  0
  182.8690  178.8600  138.0730 C   0  0  0  0  0  2  0  0  0  0  0  0
  181.9940  180.1020  138.1190 C   0  0  0  0  0  2  0  0  0  0  0  0
  181.0750  179.5220  135.9480 C   0  0  0  0  0  2  0  0  0  0  0  0
  180.7260  179.8940  137.3140 C   0  0  2  0  0  3  0  0  0  0  0  0
  180.6670  180.9020  136.2450 N   0  0  0  0  0  2  0  0  0  0  0  0
  1  3  1  0  0  0  0
  2  4  1  0  0  0  0
  3 16  1  0  0  0  0
  4  5  1  0  0  0  0
  6  4  2  0  0  0  0
  6 12  1  0  0  0  0
  7 13  1  0  0  0  0
  7 10  2  0  0  0  0
  9  5  1  0  0  0  0
  9  1  1  0  0  0  0
  9  8  1  0  0  0  0
 10  6  1  0  0  0  0
 11  9  1  0  0  0  0
 11  8  1  0  0  0  0
 12 28  1  6  0  0  0
 12  3  1  0  0  0  0
 13  2  2  0  0  0  0
 14 13  1  0  0  0  0
 15 14  1  0  0  0  0
 16 19  1  1  0  0  0
 16 18  1  0  0  0  0
 18 17  1  0  0  0  0
 19 20  1  0  0  0  0
 20 22  1  0  0  0  0
 21 27  1  0  0  0  0
 22 21  2  0  0  0  0
 23 26  1  0  0  0  0
 23 22  1  0  0  0  0
 24 26  2  0  0  0  0
 25 27  2  0  0  0  0
 26 25  1  0  0  0  0
 28 33  1  6  0  0  0
 29 28  1  0  0  0  0
 29 30  2  0  0  0  0
 31 29  1  0  0  0  0
 32 31  1  0  0  0  0
 33 34  1  0  0  0  0
 35 37  1  0  0  0  0
 35 36  1  0  0  0  0
 36 34  1  1  0  0  0
 37 36  1  0  0  0  0
M  END
>  <MODEL>
1

>  <REMARK>
 VINA RESULT:      -6.7      0.000      0.000
  Name = 
  12 active torsions:
  status: ('A' for Active; 'I' for Inactive)
    1  A    between atoms: C_1  and  C_12
    2  A    between atoms: C_1  and  C_36
    3  A    between atoms: O_3  and  C_32
    4  A    between atoms: C_6  and  C_31
    5  A    between atoms: N_10  and  C_14
    6  A    between atoms: C_14  and  C_27
    7  A    between atoms: C_14  and  C_37
    8  A    between atoms: C_17  and  C_26
    9  A    between atoms: C_17  and  C_33
   10  A    between atoms: C_29  and  C_36
   11  A    between atoms: C_31  and  C_37
   12  A    between atoms: C_33  and  C_36
                            x       y       z     vdW  Elec       q    Type
                         _______ _______ _______ _____ _____    ______ ____

>  <TORSDO>
F 12

$$$$
=
 OpenBabel10262423003D

 37 41  0  0  1  0  0  0  0  0999 V2000
  181.4400  179.0440  140.9650 C   0  0  0  0  0  2  0  0  0  0  0  0
  180.2270  175.0870  139.0870 C   0  0  0  0  0  3  0  0  0  0  0  0
  182.5590  178.1360  141.2030 N   0  0  0  0  0  0  0  0  0  0  0  0
  180.9150  176.1090  139.7510 C   0  0  0  0  0  0  0  0  0  0  0  0
  180.1980  176.7320  140.9090 C   0  0  0  0  0  2  0  0  0  0  0  0
  182.2480  176.4290  139.3600 C   0  0  0  0  0  0  0  0  0  0  0  0
  182.1320  174.6750  137.6690 C   0  0  0  0  0  3  0  0  0  0  0  0
  178.9770  178.8710  141.5070 C   0  0  0  0  0  2  0  0  0  0  0  0
  180.1630  178.2460  140.8130 C   0  0  0  0  0  0  0  0  0  0  0  0
  182.8340  175.6880  138.3220 C   0  0  0  0  0  3  0  0  0  0  0  0
  179.0600  178.8660  139.9860 C   0  0  0  0  0  2  0  0  0  0  0  0
  183.1090  177.5270  139.9680 C   0  0  1  0  0  3  0  0  0  0  0  0
  180.8190  174.3740  138.0450 C   0  0  0  0  0  0  0  0  0  0  0  0
  180.0850  173.3690  137.4090 O   0  0  0  0  0  0  0  0  0  0  0  0
  180.2270  171.9920  137.7310 C   0  0  0  0  0  1  0  0  0  0  0  0
  183.5390  178.7150  142.1380 C   0  0  1  0  0  3  0  0  0  0  0  0
  182.5040  178.4210  144.2750 O   0  0  0  0  0  1  0  0  0  0  0  0
  182.8630  179.3840  143.3310 C   0  0  0  0  0  2  0  0  0  0  0  0
  184.6170  177.7300  142.5780 C   0  0  0  0  0  2  0  0  0  0  0  0
  185.9730  178.4140  142.6780 C   0  0  0  0  0  2  0  0  0  0  0  0
  185.9820  178.1500  145.0880 C   0  0  0  0  0  3  0  0  0  0  0  0
  186.6930  178.1050  143.9560 C   0  0  0  0  0  0  0  0  0  0  0  0
  188.1690  177.7550  143.9620 C   0  0  0  0  0  2  0  0  0  0  0  0
  190.2950  177.0690  145.4940 S   0  0  0  0  0  0  0  0  0  0  0  0
  187.8650  177.5430  146.5210 C   0  0  0  0  0  3  0  0  0  0  0  0
  188.7210  177.4670  145.3300 C   0  0  0  0  0  0  0  0  0  0  0  0
  186.5790  177.8640  146.4040 C   0  0  0  0  0  3  0  0  0  0  0  0
  183.7020  178.4700  138.8880 C   0  0  1  0  0  3  0  0  0  0  0  0
  182.9210  179.6940  138.5150 C   0  0  0  0  0  0  0  0  0  0  0  0
  183.2830  180.8020  138.8800 O   0  0  0  0  0  0  0  0  0  0  0  0
  181.7290  179.5540  137.6300 C   0  0  0  0  0  2  0  0  0  0  0  0
  181.2600  180.8140  137.2620 O   0  0  0  0  0  1  0  0  0  0  0  0
  185.2080  178.6930  138.9590 C   0  0  0  0  0  2  0  0  0  0  0  0
  185.9120  178.0710  137.7630 C   0  0  0  0  0  2  0  0  0  0  0  0
  188.2960  178.4690  137.5410 C   0  0  0  0  0  2  0  0  0  0  0  0
  187.2990  177.5950  138.1470 C   0  0  2  0  0  3  0  0  0  0  0  0
  188.0090  177.1630  136.9340 N   0  0  0  0  0  2  0  0  0  0  0  0
  1  3  1  0  0  0  0
  2  4  1  0  0  0  0
  3 16  1  0  0  0  0
  4  5  1  0  0  0  0
  6  4  2  0  0  0  0
  6 12  1  0  0  0  0
  7 13  1  0  0  0  0
  7 10  2  0  0  0  0
  9  5  1  0  0  0  0
  9  1  1  0  0  0  0
  9  8  1  0  0  0  0
 10  6  1  0  0  0  0
 11  9  1  0  0  0  0
 11  8  1  0  0  0  0
 12 28  1  6  0  0  0
 12  3  1  0  0  0  0
 13  2  2  0  0  0  0
 14 15  1  0  0  0  0
 14 13  1  0  0  0  0
 16 19  1  1  0  0  0
 16 18  1  0  0  0  0
 18 17  1  0  0  0  0
 19 20  1  0  0  0  0
 20 22  1  0  0  0  0
 21 27  1  0  0  0  0
 22 23  1  0  0  0  0
 22 21  2  0  0  0  0
 23 26  1  0  0  0  0
 26 24  2  0  0  0  0
 26 25  1  0  0  0  0
 27 25  2  0  0  0  0
 28 33  1  1  0  0  0
 29 30  2  0  0  0  0
 29 28  1  0  0  0  0
 31 29  1  0  0  0  0
 32 31  1  0  0  0  0
 34 33  1  0  0  0  0
 35 36  1  0  0  0  0
 36 34  1  6  0  0  0
 37 35  1  0  0  0  0
 37 36  1  0  0  0  0
M  END
>  <MODEL>
2

>  <REMARK>
 VINA RESULT:      -6.3      1.906      2.878
  Name = 
  12 active torsions:
  status: ('A' for Active; 'I' for Inactive)
    1  A    between atoms: C_1  and  C_12
    2  A    between atoms: C_1  and  C_36
    3  A    between atoms: O_3  and  C_32
    4  A    between atoms: C_6  and  C_31
    5  A    between atoms: N_10  and  C_14
    6  A    between atoms: C_14  and  C_27
    7  A    between atoms: C_14  and  C_37
    8  A    between atoms: C_17  and  C_26
    9  A    between atoms: C_17  and  C_33
   10  A    between atoms: C_29  and  C_36
   11  A    between atoms: C_31  and  C_37
   12  A    between atoms: C_33  and  C_36
                            x       y       z     vdW  Elec       q    Type
                         _______ _______ _______ _____ _____    ______ ____

>  <TORSDO>
F 12

$$$$
=
 OpenBabel10262423003D

 37 41  0  0  1  0  0  0  0  0999 V2000
  180.1430  177.4930  140.2170 C   0  0  0  0  0  2  0  0  0  0  0  0
  183.3550  175.2080  137.9540 C   0  0  0  0  0  3  0  0  0  0  0  0
  181.3820  178.2350  140.4360 N   0  0  0  0  0  0  0  0  0  0  0  0
  182.6600  176.1370  138.7360 C   0  0  0  0  0  0  0  0  0  0  0  0
  181.9080  175.5750  139.9040 C   0  0  0  0  0  2  0  0  0  0  0  0
  182.7730  177.5280  138.4430 C   0  0  0  0  0  0  0  0  0  0  0  0
  184.2830  176.9780  136.6080 C   0  0  0  0  0  3  0  0  0  0  0  0
  179.5280  175.0730  140.6140 C   0  0  0  0  0  2  0  0  0  0  0  0
  180.4640  176.0410  139.9330 C   0  0  0  0  0  0  0  0  0  0  0  0
  183.6000  177.9190  137.3790 C   0  0  0  0  0  3  0  0  0  0  0  0
  179.4660  175.2650  139.1050 C   0  0  0  0  0  2  0  0  0  0  0  0
  182.0600  178.6490  139.1840 C   0  0  1  0  0  3  0  0  0  0  0  0
  184.1570  175.6130  136.8890 C   0  0  0  0  0  0  0  0  0  0  0  0
  184.8230  174.6440  136.1340 O   0  0  0  0  0  0  0  0  0  0  0  0
  184.9630  173.2970  136.5640 C   0  0  0  0  0  1  0  0  0  0  0  0
  181.2170  179.2750  141.4650 C   0  0  1  0  0  3  0  0  0  0  0  0
  179.4280  180.8630  141.4210 O   0  0  0  0  0  1  0  0  0  0  0  0
  179.7470  179.5500  141.7680 C   0  0  0  0  0  2  0  0  0  0  0  0
  182.0160  179.0060  142.7360 C   0  0  0  0  0  2  0  0  0  0  0  0
  183.4540  178.6340  142.4070 C   0  0  0  0  0  2  0  0  0  0  0  0
  183.7690  178.8060  144.8040 C   0  0  0  0  0  3  0  0  0  0  0  0
  184.3210  178.5070  143.6230 C   0  0  0  0  0  0  0  0  0  0  0  0
  185.7650  178.0560  143.5150 C   0  0  0  0  0  2  0  0  0  0  0  0
  188.0390  177.5010  144.8800 S   0  0  0  0  0  0  0  0  0  0  0  0
  185.7930  178.3290  146.0870 C   0  0  0  0  0  3  0  0  0  0  0  0
  186.4780  177.9780  144.8360 C   0  0  0  0  0  0  0  0  0  0  0  0
  184.5200  178.7180  146.0680 C   0  0  0  0  0  3  0  0  0  0  0  0
  181.3000  179.5970  138.2190 C   0  0  1  0  0  3  0  0  0  0  0  0
  179.9450  179.1750  137.7370 C   0  0  0  0  0  0  0  0  0  0  0  0
  178.9310  179.6120  138.2590 O   0  0  0  0  0  0  0  0  0  0  0  0
  179.8430  178.2620  136.5620 C   0  0  0  0  0  2  0  0  0  0  0  0
  180.6380  178.7380  135.5210 O   0  0  0  0  0  1  0  0  0  0  0  0
  181.4120  181.0860  138.5280 C   0  0  0  0  0  2  0  0  0  0  0  0
  181.1250  181.9250  137.2940 C   0  0  0  0  0  2  0  0  0  0  0  0
  179.2970  183.0440  138.4340 C   0  0  0  0  0  2  0  0  0  0  0  0
  180.5280  183.2630  137.6840 C   0  0  2  0  0  3  0  0  0  0  0  0
  179.2280  183.4210  137.0160 N   0  0  0  0  0  2  0  0  0  0  0  0
  1  3  1  0  0  0  0
  2  4  1  0  0  0  0
  3 16  1  0  0  0  0
  4  5  1  0  0  0  0
  5  9  1  0  0  0  0
  6  4  2  0  0  0  0
  6 12  1  0  0  0  0
  7 13  1  0  0  0  0
  7 10  2  0  0  0  0
  9  1  1  0  0  0  0
  9  8  1  0  0  0  0
 10  6  1  0  0  0  0
 11  9  1  0  0  0  0
 11  8  1  0  0  0  0
 12 28  1  6  0  0  0
 12  3  1  0  0  0  0
 13  2  2  0  0  0  0
 14 15  1  0  0  0  0
 14 13  1  0  0  0  0
 16 18  1  1  0  0  0
 16 19  1  0  0  0  0
 17 18  1  0  0  0  0
 20 19  1  0  0  0  0
 20 22  1  0  0  0  0
 21 27  1  0  0  0  0
 22 21  2  0  0  0  0
 23 22  1  0  0  0  0
 23 26  1  0  0  0  0
 26 24  2  0  0  0  0
 26 25  1  0  0  0  0
 27 25  2  0  0  0  0
 28 33  1  1  0  0  0
 29 28  1  0  0  0  0
 29 30  2  0  0  0  0
 31 29  1  0  0  0  0
 32 31  1  0  0  0  0
 34 33  1  0  0  0  0
 36 34  1  6  0  0  0
 36 35  1  0  0  0  0
 37 36  1  0  0  0  0
 37 35  1  0  0  0  0
M  END
>  <MODEL>
3

>  <REMARK>
 VINA RESULT:      -6.0      2.443      3.761
  Name = 
  12 active torsions:
  status: ('A' for Active; 'I' for Inactive)
    1  A    between atoms: C_1  and  C_12
    2  A    between atoms: C_1  and  C_36
    3  A    between atoms: O_3  and  C_32
    4  A    between atoms: C_6  and  C_31
    5  A    between atoms: N_10  and  C_14
    6  A    between atoms: C_14  and  C_27
    7  A    between atoms: C_14  and  C_37
    8  A    between atoms: C_17  and  C_26
    9  A    between atoms: C_17  and  C_33
   10  A    between atoms: C_29  and  C_36
   11  A    between atoms: C_31  and  C_37
   12  A    between atoms: C_33  and  C_36
                            x       y       z     vdW  Elec       q    Type
                         _______ _______ _______ _____ _____    ______ ____

>  <TORSDO>
F 12

$$$$
=
 OpenBabel10262423003D

 37 41  0  0  1  0  0  0  0  0999 V2000
  182.6640  177.8110  137.4390 C   0  0  0  0  0  2  0  0  0  0  0  0
  181.9990  173.3410  136.9620 C   0  0  0  0  0  3  0  0  0  0  0  0
  183.3960  177.1850  138.5360 N   0  0  0  0  0  0  0  0  0  0  0  0
  182.4080  174.6020  137.4080 C   0  0  0  0  0  0  0  0  0  0  0  0
  181.3100  175.5780  137.7020 C   0  0  0  0  0  2  0  0  0  0  0  0
  183.7930  174.8520  137.6370 C   0  0  0  0  0  0  0  0  0  0  0  0
  184.2780  172.5560  136.9700 C   0  0  0  0  0  3  0  0  0  0  0  0
  180.2480  177.6550  136.7110 C   0  0  0  0  0  2  0  0  0  0  0  0
  181.5270  176.9100  137.0080 C   0  0  0  0  0  0  0  0  0  0  0  0
  184.7030  173.8070  137.4190 C   0  0  0  0  0  3  0  0  0  0  0  0
  181.0550  177.0340  135.5780 C   0  0  0  0  0  2  0  0  0  0  0  0
  184.3890  176.1760  138.0950 C   0  0  1  0  0  3  0  0  0  0  0  0
  182.9200  172.3200  136.7320 C   0  0  0  0  0  0  0  0  0  0  0  0
  182.4600  171.0810  136.2770 O   0  0  0  0  0  0  0  0  0  0  0  0
  181.2340  170.9270  135.5740 C   0  0  0  0  0  1  0  0  0  0  0  0
  183.8690  178.1820  139.5130 C   0  0  1  0  0  3  0  0  0  0  0  0
  184.2620  180.4860  139.0040 O   0  0  0  0  0  1  0  0  0  0  0  0
  183.2550  179.5560  139.2660 C   0  0  0  0  0  2  0  0  0  0  0  0
  183.7020  177.7400  140.9630 C   0  0  0  0  0  2  0  0  0  0  0  0
  183.7640  178.9320  141.9070 C   0  0  0  0  0  2  0  0  0  0  0  0
  183.9830  178.9580  144.3210 C   0  0  0  0  0  3  0  0  0  0  0  0
  184.5540  178.6560  143.1500 C   0  0  0  0  0  0  0  0  0  0  0  0
  185.9460  178.0560  143.0800 C   0  0  0  0  0  2  0  0  0  0  0  0
  188.0810  177.1960  144.5080 S   0  0  0  0  0  0  0  0  0  0  0  0
  185.8820  178.2060  145.6610 C   0  0  0  0  0  3  0  0  0  0  0  0
  186.5840  177.8410  144.4240 C   0  0  0  0  0  0  0  0  0  0  0  0
  184.6600  178.7310  145.6090 C   0  0  0  0  0  3  0  0  0  0  0  0
  185.5500  176.6430  137.1780 C   0  0  1  0  0  3  0  0  0  0  0  0
  185.3750  176.5070  135.6950 C   0  0  0  0  0  0  0  0  0  0  0  0
  184.4990  177.1260  135.1100 O   0  0  0  0  0  0  0  0  0  0  0  0
  186.3290  175.6590  134.9250 C   0  0  0  0  0  2  0  0  0  0  0  0
  187.3420  175.1990  135.7650 O   0  0  0  0  0  1  0  0  0  0  0  0
  186.2570  177.9230  137.6050 C   0  0  0  0  0  2  0  0  0  0  0  0
  187.5370  177.6160  138.3650 C   0  0  0  0  0  2  0  0  0  0  0  0
  188.9380  178.2320  136.4810 C   0  0  0  0  0  2  0  0  0  0  0  0
  188.6690  178.5040  137.8880 C   0  0  2  0  0  3  0  0  0  0  0  0
  189.8140  177.6620  137.5130 N   0  0  0  0  0  2  0  0  0  0  0  0
  1  3  1  0  0  0  0
  2  4  1  0  0  0  0
  3 16  1  0  0  0  0
  4  6  2  0  0  0  0
  4  5  1  0  0  0  0
  6 12  1  0  0  0  0
  7 10  2  0  0  0  0
  8  9  1  0  0  0  0
  9  1  1  0  0  0  0
  9  5  1  0  0  0  0
 10  6  1  0  0  0  0
 11  8  1  0  0  0  0
 11  9  1  0  0  0  0
 12 28  1  6  0  0  0
 12  3  1  0  0  0  0
 13  2  2  0  0  0  0
 13  7  1  0  0  0  0
 14 13  1  0  0  0  0
 15 14  1  0  0  0  0
 16 18  1  1  0  0  0
 16 19  1  0  0  0  0
 17 18  1  0  0  0  0
 19 20  1  0  0  0  0
 20 22  1  0  0  0  0
 21 27  1  0  0  0  0
 22 21  2  0  0  0  0
 23 22  1  0  0  0  0
 23 26  1  0  0  0  0
 26 24  2  0  0  0  0
 26 25  1  0  0  0  0
 27 25  2  0  0  0  0
 28 33  1  6  0  0  0
 29 28  1  0  0  0  0
 30 29  2  0  0  0  0
 31 29  1  0  0  0  0
 31 32  1  0  0  0  0
 33 34  1  0  0  0  0
 35 37  1  0  0  0  0
 35 36  1  0  0  0  0
 36 34  1  1  0  0  0
 37 36  1  0  0  0  0
M  END
>  <MODEL>
4

>  <REMARK>
 VINA RESULT:      -5.9      2.691      4.530
  Name = 
  12 active torsions:
  status: ('A' for Active; 'I' for Inactive)
    1  A    between atoms: C_1  and  C_12
    2  A    between atoms: C_1  and  C_36
    3  A    between atoms: O_3  and  C_32
    4  A    between atoms: C_6  and  C_31
    5  A    between atoms: N_10  and  C_14
    6  A    between atoms: C_14  and  C_27
    7  A    between atoms: C_14  and  C_37
    8  A    between atoms: C_17  and  C_26
    9  A    between atoms: C_17  and  C_33
   10  A    between atoms: C_29  and  C_36
   11  A    between atoms: C_31  and  C_37
   12  A    between atoms: C_33  and  C_36
                            x       y       z     vdW  Elec       q    Type
                         _______ _______ _______ _____ _____    ______ ____

>  <TORSDO>
F 12

$$$$
=
 OpenBabel10262423003D

 37 41  0  0  1  0  0  0  0  0999 V2000
  182.7170  176.4870  137.5590 C   0  0  0  0  0  2  0  0  0  0  0  0
  180.4090  180.2630  136.5250 C   0  0  0  0  0  3  0  0  0  0  0  0
  183.7040  177.5630  137.5560 N   0  0  0  0  0  0  0  0  0  0  0  0
  181.4110  179.3440  136.8550 C   0  0  0  0  0  0  0  0  0  0  0  0
  181.5670  178.1840  135.9190 C   0  0  0  0  0  2  0  0  0  0  0  0
  182.2590  179.5990  137.9730 C   0  0  0  0  0  0  0  0  0  0  0  0
  181.0580  181.6870  138.3580 C   0  0  0  0  0  3  0  0  0  0  0  0
  181.0660  175.7020  135.8130 C   0  0  0  0  0  2  0  0  0  0  0  0
  181.5630  176.8540  136.6510 C   0  0  0  0  0  0  0  0  0  0  0  0
  182.0650  180.7840  138.6990 C   0  0  0  0  0  3  0  0  0  0  0  0
  180.2200  176.2350  136.9620 C   0  0  0  0  0  2  0  0  0  0  0  0
  183.3700  178.6840  138.4670 C   0  0  1  0  0  3  0  0  0  0  0  0
  180.2190  181.4260  137.2700 C   0  0  0  0  0  0  0  0  0  0  0  0
  179.1970  182.3070  136.9030 O   0  0  0  0  0  0  0  0  0  0  0  0
  179.3290  183.2350  135.8350 C   0  0  0  0  0  1  0  0  0  0  0  0
  185.0790  177.0390  137.6410 C   0  0  1  0  0  3  0  0  0  0  0  0
  185.6750  174.7630  137.2120 O   0  0  0  0  0  1  0  0  0  0  0  0
  185.3460  175.9670  136.5890 C   0  0  0  0  0  2  0  0  0  0  0  0
  186.1460  178.1270  137.6250 C   0  0  0  0  0  2  0  0  0  0  0  0
  187.4840  177.5730  137.1550 C   0  0  0  0  0  2  0  0  0  0  0  0
  189.6450  176.8340  137.9670 C   0  0  0  0  0  3  0  0  0  0  0  0
  188.4730  177.4030  138.2680 C   0  0  0  0  0  0  0  0  0  0  0  0
  188.1540  177.8610  139.6790 C   0  0  0  0  0  2  0  0  0  0  0  0
  189.0710  178.0660  142.2200 S   0  0  0  0  0  0  0  0  0  0  0  0
  190.5210  176.9840  140.2420 C   0  0  0  0  0  3  0  0  0  0  0  0
  189.2660  177.6200  140.6620 C   0  0  0  0  0  0  0  0  0  0  0  0
  190.6960  176.6160  138.9750 C   0  0  0  0  0  3  0  0  0  0  0  0
  183.2470  178.3830  139.9840 C   0  0  1  0  0  3  0  0  0  0  0  0
  184.3760  178.7990  140.8800 C   0  0  0  0  0  0  0  0  0  0  0  0
  185.1800  179.6460  140.5200 O   0  0  0  0  0  0  0  0  0  0  0  0
  184.4700  178.2180  142.2490 C   0  0  0  0  0  2  0  0  0  0  0  0
  184.5550  179.2400  143.1940 O   0  0  0  0  0  1  0  0  0  0  0  0
  181.8650  178.5910  140.5910 C   0  0  0  0  0  2  0  0  0  0  0  0
  180.9940  177.3590  140.4070 C   0  0  0  0  0  2  0  0  0  0  0  0
  179.3130  178.6480  141.5930 C   0  0  0  0  0  2  0  0  0  0  0  0
  179.5250  177.7260  140.4840 C   0  0  2  0  0  3  0  0  0  0  0  0
  178.9720  177.2280  141.7520 N   0  0  0  0  0  2  0  0  0  0  0  0
  2  4  2  0  0  0  0
  2 13  1  0  0  0  0
  3  1  1  0  0  0  0
  3 16  1  0  0  0  0
  3 12  1  0  0  0  0
  4  6  1  0  0  0  0
  5  9  1  0  0  0  0
  5  4  1  0  0  0  0
  6 12  1  0  0  0  0
  6 10  2  0  0  0  0
  7 10  1  0  0  0  0
  8  9  1  0  0  0  0
  8 11  1  0  0  0  0
  9 11  1  0  0  0  0
  9  1  1  0  0  0  0
 12 28  1  1  0  0  0
 13  7  2  0  0  0  0
 14 13  1  0  0  0  0
 15 14  1  0  0  0  0
 16 18  1  6  0  0  0
 18 17  1  0  0  0  0
 19 16  1  0  0  0  0
 20 19  1  0  0  0  0
 20 22  1  0  0  0  0
 21 22  2  0  0  0  0
 21 27  1  0  0  0  0
 22 23  1  0  0  0  0
 23 26  1  0  0  0  0
 25 26  1  0  0  0  0
 26 24  2  0  0  0  0
 27 25  2  0  0  0  0
 28 33  1  1  0  0  0
 28 29  1  0  0  0  0
 29 31  1  0  0  0  0
 30 29  2  0  0  0  0
 31 32  1  0  0  0  0
 34 33  1  0  0  0  0
 35 37  1  0  0  0  0
 36 34  1  1  0  0  0
 36 35  1  0  0  0  0
 36 37  1  0  0  0  0
M  END
>  <MODEL>
5

>  <REMARK>
 VINA RESULT:      -5.7      2.742      5.737
  Name = 
  12 active torsions:
  status: ('A' for Active; 'I' for Inactive)
    1  A    between atoms: C_1  and  C_12
    2  A    between atoms: C_1  and  C_36
    3  A    between atoms: O_3  and  C_32
    4  A    between atoms: C_6  and  C_31
    5  A    between atoms: N_10  and  C_14
    6  A    between atoms: C_14  and  C_27
    7  A    between atoms: C_14  and  C_37
    8  A    between atoms: C_17  and  C_26
    9  A    between atoms: C_17  and  C_33
   10  A    between atoms: C_29  and  C_36
   11  A    between atoms: C_31  and  C_37
   12  A    between atoms: C_33  and  C_36
                            x       y       z     vdW  Elec       q    Type
                         _______ _______ _______ _____ _____    ______ ____

>  <TORSDO>
F 12

$$$$
=
 OpenBabel10262423003D

 37 41  0  0  1  0  0  0  0  0999 V2000
  188.6650  175.3730  135.5330 C   0  0  0  0  0  2  0  0  0  0  0  0
  190.9720  176.3540  139.3240 C   0  0  0  0  0  3  0  0  0  0  0  0
  187.7920  174.9830  136.6370 N   0  0  0  0  0  0  0  0  0  0  0  0
  190.0010  175.9360  138.4080 C   0  0  0  0  0  0  0  0  0  0  0  0
  190.4450  174.9130  137.4080 C   0  0  0  0  0  2  0  0  0  0  0  0
  188.6660  176.4220  138.5280 C   0  0  0  0  0  0  0  0  0  0  0  0
  189.3510  177.7070  140.4850 C   0  0  0  0  0  3  0  0  0  0  0  0
  191.0420  174.7380  134.9510 C   0  0  0  0  0  2  0  0  0  0  0  0
  190.1090  175.3210  135.9850 C   0  0  0  0  0  0  0  0  0  0  0  0
  188.3680  177.2990  139.5830 C   0  0  0  0  0  3  0  0  0  0  0  0
  191.0860  176.2270  135.2720 C   0  0  0  0  0  2  0  0  0  0  0  0
  187.5120  176.0800  137.5960 C   0  0  1  0  0  3  0  0  0  0  0  0
  190.6630  177.2400  140.3550 C   0  0  0  0  0  0  0  0  0  0  0  0
  191.6730  177.6330  141.2380 O   0  0  0  0  0  0  0  0  0  0  0  0
  191.7420  177.1730  142.5800 C   0  0  0  0  0  1  0  0  0  0  0  0
  186.6270  174.2170  136.1640 C   0  0  1  0  0  3  0  0  0  0  0  0
  187.0880  172.1690  135.0160 O   0  0  0  0  0  1  0  0  0  0  0  0
  186.8970  173.5380  134.8250 C   0  0  0  0  0  2  0  0  0  0  0  0
  186.0830  173.2360  137.1960 C   0  0  0  0  0  2  0  0  0  0  0  0
  184.6490  173.5800  137.5740 C   0  0  0  0  0  2  0  0  0  0  0  0
  184.0740  171.4710  136.5260 C   0  0  0  0  0  3  0  0  0  0  0  0
  183.6410  172.6630  136.9490 C   0  0  0  0  0  0  0  0  0  0  0  0
  182.1880  173.0750  136.8050 C   0  0  0  0  0  2  0  0  0  0  0  0
  179.7300  172.3250  135.9490 S   0  0  0  0  0  0  0  0  0  0  0  0
  181.8830  170.7440  135.7270 C   0  0  0  0  0  3  0  0  0  0  0  0
  181.3200  172.0280  136.1650 C   0  0  0  0  0  0  0  0  0  0  0  0
  183.1770  170.4860  135.8980 C   0  0  0  0  0  3  0  0  0  0  0  0
  186.7920  177.3480  137.0670 C   0  0  1  0  0  3  0  0  0  0  0  0
  187.4830  178.1670  136.0190 C   0  0  0  0  0  0  0  0  0  0  0  0
  186.9600  178.3630  134.9330 O   0  0  0  0  0  0  0  0  0  0  0  0
  188.7930  178.8020  136.3390 C   0  0  0  0  0  2  0  0  0  0  0  0
  188.6280  179.7500  137.3480 O   0  0  0  0  0  1  0  0  0  0  0  0
  185.2880  177.2170  136.8600 C   0  0  0  0  0  2  0  0  0  0  0  0
  184.5220  177.6940  138.0830 C   0  0  0  0  0  2  0  0  0  0  0  0
  184.8410  178.9780  140.1180 C   0  0  0  0  0  2  0  0  0  0  0  0
  185.2080  178.8910  138.7100 C   0  0  2  0  0  3  0  0  0  0  0  0
  184.1870  179.8580  139.1410 N   0  0  0  0  0  2  0  0  0  0  0  0
  1  9  1  0  0  0  0
  1  3  1  0  0  0  0
  2 13  1  0  0  0  0
  3 12  1  0  0  0  0
  4  6  1  0  0  0  0
  4  2  2  0  0  0  0
  5  4  1  0  0  0  0
  6 10  2  0  0  0  0
  8 11  1  0  0  0  0
  8  9  1  0  0  0  0
  9  5  1  0  0  0  0
 10  7  1  0  0  0  0
 11  9  1  0  0  0  0
 12 28  1  6  0  0  0
 12  6  1  0  0  0  0
 13  7  2  0  0  0  0
 13 14  1  0  0  0  0
 14 15  1  0  0  0  0
 16 18  1  6  0  0  0
 16  3  1  0  0  0  0
 16 19  1  0  0  0  0
 18 17  1  0  0  0  0
 19 20  1  0  0  0  0
 21 22  2  0  0  0  0
 22 20  1  0  0  0  0
 23 22  1  0  0  0  0
 24 26  2  0  0  0  0
 25 27  2  0  0  0  0
 25 26  1  0  0  0  0
 26 23  1  0  0  0  0
 27 21  1  0  0  0  0
 28 33  1  6  0  0  0
 29 31  1  0  0  0  0
 29 28  1  0  0  0  0
 30 29  2  0  0  0  0
 31 32  1  0  0  0  0
 33 34  1  0  0  0  0
 36 34  1  6  0  0  0
 36 37  1  0  0  0  0
 36 35  1  0  0  0  0
 37 35  1  0  0  0  0
M  END
>  <MODEL>
6

>  <REMARK>
 VINA RESULT:      -5.6      4.641      9.424
  Name = 
  12 active torsions:
  status: ('A' for Active; 'I' for Inactive)
    1  A    between atoms: C_1  and  C_12
    2  A    between atoms: C_1  and  C_36
    3  A    between atoms: O_3  and  C_32
    4  A    between atoms: C_6  and  C_31
    5  A    between atoms: N_10  and  C_14
    6  A    between atoms: C_14  and  C_27
    7  A    between atoms: C_14  and  C_37
    8  A    between atoms: C_17  and  C_26
    9  A    between atoms: C_17  and  C_33
   10  A    between atoms: C_29  and  C_36
   11  A    between atoms: C_31  and  C_37
   12  A    between atoms: C_33  and  C_36
                            x       y       z     vdW  Elec       q    Type
                         _______ _______ _______ _____ _____    ______ ____

>  <TORSDO>
F 12

$$$$
=
 OpenBabel10262423003D

 37 41  0  0  1  0  0  0  0  0999 V2000
  182.6990  177.8500  137.2640 C   0  0  0  0  0  2  0  0  0  0  0  0
  182.9590  173.4600  136.1150 C   0  0  0  0  0  3  0  0  0  0  0  0
  183.6020  177.2410  138.2370 N   0  0  0  0  0  0  0  0  0  0  0  0
  183.1180  174.7000  136.7430 C   0  0  0  0  0  0  0  0  0  0  0  0
  181.8560  175.3640  137.2050 C   0  0  0  0  0  2  0  0  0  0  0  0
  184.4300  175.2050  136.9810 C   0  0  0  0  0  0  0  0  0  0  0  0
  185.3480  173.1900  135.9580 C   0  0  0  0  0  3  0  0  0  0  0  0
  180.3350  177.2880  136.5670 C   0  0  0  0  0  2  0  0  0  0  0  0
  181.7550  176.7990  136.7210 C   0  0  0  0  0  0  0  0  0  0  0  0
  185.5260  174.4230  136.5860 C   0  0  0  0  0  3  0  0  0  0  0  0
  181.1940  177.0280  135.3360 C   0  0  0  0  0  2  0  0  0  0  0  0
  184.7590  176.5440  137.6260 C   0  0  1  0  0  3  0  0  0  0  0  0
  184.0600  172.7060  135.7130 C   0  0  0  0  0  0  0  0  0  0  0  0
  183.8450  171.4770  135.0810 O   0  0  0  0  0  0  0  0  0  0  0  0
  183.5280  170.2900  135.7960 C   0  0  0  0  0  1  0  0  0  0  0  0
  183.9050  178.1610  139.3470 C   0  0  1  0  0  3  0  0  0  0  0  0
  184.2190  180.5190  139.0930 O   0  0  0  0  0  1  0  0  0  0  0  0
  183.2440  179.5230  139.1550 C   0  0  0  0  0  2  0  0  0  0  0  0
  183.6060  177.5760  140.7220 C   0  0  0  0  0  2  0  0  0  0  0  0
  183.3510  178.6780  141.7410 C   0  0  0  0  0  2  0  0  0  0  0  0
  183.7030  179.0160  144.1150 C   0  0  0  0  0  3  0  0  0  0  0  0
  184.2070  178.5560  142.9650 C   0  0  0  0  0  0  0  0  0  0  0  0
  185.5890  177.9340  142.8980 C   0  0  0  0  0  2  0  0  0  0  0  0
  187.7950  177.2380  144.3090 S   0  0  0  0  0  0  0  0  0  0  0  0
  185.6700  178.4200  145.4370 C   0  0  0  0  0  3  0  0  0  0  0  0
  186.2990  177.8870  144.2220 C   0  0  0  0  0  0  0  0  0  0  0  0
  184.4500  178.9500  145.3830 C   0  0  0  0  0  3  0  0  0  0  0  0
  185.7480  177.3780  136.7700 C   0  0  1  0  0  3  0  0  0  0  0  0
  186.7810  178.1980  137.4840 C   0  0  0  0  0  0  0  0  0  0  0  0
  186.9430  179.3770  137.2080 O   0  0  0  0  0  0  0  0  0  0  0  0
  187.5660  177.5780  138.5890 C   0  0  0  0  0  2  0  0  0  0  0  0
  187.9110  178.5470  139.5300 O   0  0  0  0  0  1  0  0  0  0  0  0
  186.2590  176.7030  135.5030 C   0  0  0  0  0  2  0  0  0  0  0  0
  187.4900  177.4120  134.9630 C   0  0  0  0  0  2  0  0  0  0  0  0
  188.9790  175.6810  135.7870 C   0  0  0  0  0  2  0  0  0  0  0  0
  188.5670  176.4100  134.5940 C   0  0  2  0  0  3  0  0  0  0  0  0
  189.8160  176.7750  135.2770 N   0  0  0  0  0  2  0  0  0  0  0  0
  1  3  1  0  0  0  0
  2  4  1  0  0  0  0
  3 16  1  0  0  0  0
  4  6  2  0  0  0  0
  4  5  1  0  0  0  0
  6 12  1  0  0  0  0
  7 10  2  0  0  0  0
  8  9  1  0  0  0  0
  9  5  1  0  0  0  0
  9  1  1  0  0  0  0
 10  6  1  0  0  0  0
 11  8  1  0  0  0  0
 11  9  1  0  0  0  0
 12 28  1  6  0  0  0
 12  3  1  0  0  0  0
 13  7  1  0  0  0  0
 13  2  2  0  0  0  0
 14 13  1  0  0  0  0
 14 15  1  0  0  0  0
 16 18  1  6  0  0  0
 16 19  1  0  0  0  0
 17 18  1  0  0  0  0
 19 20  1  0  0  0  0
 20 22  1  0  0  0  0
 21 27  1  0  0  0  0
 22 21  2  0  0  0  0
 23 22  1  0  0  0  0
 23 26  1  0  0  0  0
 26 24  2  0  0  0  0
 26 25  1  0  0  0  0
 27 25  2  0  0  0  0
 28 33  1  6  0  0  0
 28 29  1  0  0  0  0
 29 31  1  0  0  0  0
 30 29  2  0  0  0  0
 31 32  1  0  0  0  0
 34 33  1  0  0  0  0
 36 34  1  1  0  0  0
 36 37  1  0  0  0  0
 36 35  1  0  0  0  0
 37 35  1  0  0  0  0
M  END
>  <MODEL>
7

>  <REMARK>
 VINA RESULT:      -5.5      3.053      4.832
  Name = 
  12 active torsions:
  status: ('A' for Active; 'I' for Inactive)
    1  A    between atoms: C_1  and  C_12
    2  A    between atoms: C_1  and  C_36
    3  A    between atoms: O_3  and  C_32
    4  A    between atoms: C_6  and  C_31
    5  A    between atoms: N_10  and  C_14
    6  A    between atoms: C_14  and  C_27
    7  A    between atoms: C_14  and  C_37
    8  A    between atoms: C_17  and  C_26
    9  A    between atoms: C_17  and  C_33
   10  A    between atoms: C_29  and  C_36
   11  A    between atoms: C_31  and  C_37
   12  A    between atoms: C_33  and  C_36
                            x       y       z     vdW  Elec       q    Type
                         _______ _______ _______ _____ _____    ______ ____

>  <TORSDO>
F 12

$$$$
=
 OpenBabel10262423003D

 37 41  0  0  1  0  0  0  0  0999 V2000
  190.6400  177.4980  137.7860 C   0  0  0  0  0  2  0  0  0  0  0  0
  187.4320  174.5460  136.5020 C   0  0  0  0  0  3  0  0  0  0  0  0
  190.8010  176.3380  138.6580 N   0  0  0  0  0  0  0  0  0  0  0  0
  188.5000  175.1790  137.1460 C   0  0  0  0  0  0  0  0  0  0  0  0
  188.2030  176.5230  137.7370 C   0  0  0  0  0  2  0  0  0  0  0  0
  189.7460  174.4970  137.2780 C   0  0  0  0  0  0  0  0  0  0  0  0
  188.7730  172.5800  136.1240 C   0  0  0  0  0  3  0  0  0  0  0  0
  188.6500  178.9770  137.2910 C   0  0  0  0  0  2  0  0  0  0  0  0
  189.2070  177.5750  137.3030 C   0  0  0  0  0  0  0  0  0  0  0  0
  189.8490  173.1940  136.7660 C   0  0  0  0  0  3  0  0  0  0  0  0
  188.9630  178.2650  135.9810 C   0  0  0  0  0  2  0  0  0  0  0  0
  191.0010  175.0630  137.9270 C   0  0  1  0  0  3  0  0  0  0  0  0
  187.5590  173.2590  135.9830 C   0  0  0  0  0  0  0  0  0  0  0  0
  186.4620  172.6750  135.3400 O   0  0  0  0  0  0  0  0  0  0  0  0
  185.3640  172.1170  136.0490 C   0  0  0  0  0  1  0  0  0  0  0  0
  191.7400  176.6120  139.7600 C   0  0  1  0  0  3  0  0  0  0  0  0
  194.0550  177.1440  140.0480 O   0  0  0  0  0  1  0  0  0  0  0  0
  192.9190  177.4660  139.3040 C   0  0  0  0  0  2  0  0  0  0  0  0
  191.0690  177.1900  141.0010 C   0  0  0  0  0  2  0  0  0  0  0  0
  189.6070  176.7730  141.0740 C   0  0  0  0  0  2  0  0  0  0  0  0
  187.7170  177.5590  142.3730 C   0  0  0  0  0  3  0  0  0  0  0  0
  188.9700  177.0940  142.3930 C   0  0  0  0  0  0  0  0  0  0  0  0
  189.7210  176.8970  143.6960 C   0  0  0  0  0  2  0  0  0  0  0  0
  189.5990  177.0960  146.3950 S   0  0  0  0  0  0  0  0  0  0  0  0
  187.5510  177.7680  144.8010 C   0  0  0  0  0  3  0  0  0  0  0  0
  188.9240  177.2610  144.9180 C   0  0  0  0  0  0  0  0  0  0  0  0
  186.9870  177.9070  143.6040 C   0  0  0  0  0  3  0  0  0  0  0  0
  192.2430  174.9330  137.0080 C   0  0  1  0  0  3  0  0  0  0  0  0
  193.2060  173.8160  137.2780 C   0  0  0  0  0  0  0  0  0  0  0  0
  193.0970  172.7430  136.7020 O   0  0  0  0  0  0  0  0  0  0  0  0
  194.3470  174.0480  138.2090 C   0  0  0  0  0  2  0  0  0  0  0  0
  195.2860  173.0260  138.0750 O   0  0  0  0  0  1  0  0  0  0  0  0
  192.0030  175.2000  135.5270 C   0  0  0  0  0  2  0  0  0  0  0  0
  193.3050  175.5110  134.8070 C   0  0  0  0  0  2  0  0  0  0  0  0
  195.1330  177.0940  134.6000 C   0  0  0  0  0  2  0  0  0  0  0  0
  193.9450  176.7620  135.3760 C   0  0  2  0  0  3  0  0  0  0  0  0
  195.2770  176.4240  135.8990 N   0  0  0  0  0  2  0  0  0  0  0  0
  1  3  1  0  0  0  0
  2  4  1  0  0  0  0
  3 16  1  0  0  0  0
  4  6  2  0  0  0  0
  4  5  1  0  0  0  0
  6 12  1  0  0  0  0
  7 10  2  0  0  0  0
  8  9  1  0  0  0  0
  9  5  1  0  0  0  0
  9  1  1  0  0  0  0
 10  6  1  0  0  0  0
 11  8  1  0  0  0  0
 11  9  1  0  0  0  0
 12 28  1  6  0  0  0
 12  3  1  0  0  0  0
 13  7  1  0  0  0  0
 13  2  2  0  0  0  0
 14 13  1  0  0  0  0
 14 15  1  0  0  0  0
 16 18  1  6  0  0  0
 16 19  1  0  0  0  0
 18 17  1  0  0  0  0
 19 20  1  0  0  0  0
 20 22  1  0  0  0  0
 21 22  2  0  0  0  0
 21 27  1  0  0  0  0
 22 23  1  0  0  0  0
 23 26  1  0  0  0  0
 25 26  1  0  0  0  0
 26 24  2  0  0  0  0
 27 25  2  0  0  0  0
 28 33  1  6  0  0  0
 28 29  1  0  0  0  0
 29 31  1  0  0  0  0
 30 29  2  0  0  0  0
 32 31  1  0  0  0  0
 34 33  1  0  0  0  0
 35 36  1  0  0  0  0
 35 37  1  0  0  0  0
 36 34  1  6  0  0  0
 36 37  1  0  0  0  0
M  END
>  <MODEL>
8

>  <REMARK>
 VINA RESULT:      -5.4      6.310      9.022
  Name = 
  12 active torsions:
  status: ('A' for Active; 'I' for Inactive)
    1  A    between atoms: C_1  and  C_12
    2  A    between atoms: C_1  and  C_36
    3  A    between atoms: O_3  and  C_32
    4  A    between atoms: C_6  and  C_31
    5  A    between atoms: N_10  and  C_14
    6  A    between atoms: C_14  and  C_27
    7  A    between atoms: C_14  and  C_37
    8  A    between atoms: C_17  and  C_26
    9  A    between atoms: C_17  and  C_33
   10  A    between atoms: C_29  and  C_36
   11  A    between atoms: C_31  and  C_37
   12  A    between atoms: C_33  and  C_36
                            x       y       z     vdW  Elec       q    Type
                         _______ _______ _______ _____ _____    ______ ____

>  <TORSDO>
F 12

$$$$
=
 OpenBabel10262423003D

 37 41  0  0  1  0  0  0  0  0999 V2000
  182.4250  178.4050  141.4240 C   0  0  0  0  0  2  0  0  0  0  0  0
  185.5840  178.3980  138.1560 C   0  0  0  0  0  3  0  0  0  0  0  0
  181.7550  178.9080  140.2280 N   0  0  0  0  0  0  0  0  0  0  0  0
  184.3950  178.5350  138.8800 C   0  0  0  0  0  0  0  0  0  0  0  0
  184.4740  179.3880  140.1090 C   0  0  0  0  0  2  0  0  0  0  0  0
  183.1950  177.9490  138.3800 C   0  0  0  0  0  0  0  0  0  0  0  0
  184.4450  177.1340  136.4500 C   0  0  0  0  0  3  0  0  0  0  0  0
  184.5160  179.1520  142.6320 C   0  0  0  0  0  2  0  0  0  0  0  0
  183.9100  178.6860  141.3310 C   0  0  0  0  0  0  0  0  0  0  0  0
  183.2490  177.2630  137.1570 C   0  0  0  0  0  3  0  0  0  0  0  0
  184.8340  177.7640  142.0910 C   0  0  0  0  0  2  0  0  0  0  0  0
  181.8370  177.9910  139.0660 C   0  0  1  0  0  3  0  0  0  0  0  0
  185.6220  177.6960  136.9520 C   0  0  0  0  0  0  0  0  0  0  0  0
  186.8390  177.5810  136.2730 O   0  0  0  0  0  0  0  0  0  0  0  0
  187.9540  176.8810  136.8060 C   0  0  0  0  0  1  0  0  0  0  0  0
  180.4210  179.4500  140.5400 C   0  0  1  0  0  3  0  0  0  0  0  0
  179.9270  180.8270  142.4330 O   0  0  0  0  0  1  0  0  0  0  0  0
  180.1680  179.5090  142.0430 C   0  0  0  0  0  2  0  0  0  0  0  0
  180.1340  180.7860  139.8640 C   0  0  0  0  0  2  0  0  0  0  0  0
  181.3550  181.2880  139.1070 C   0  0  0  0  0  2  0  0  0  0  0  0
  180.9510  180.5860  136.8230 C   0  0  0  0  0  3  0  0  0  0  0  0
  181.0650  181.6120  137.6730 C   0  0  0  0  0  0  0  0  0  0  0  0
  180.9080  183.0470  137.2080 C   0  0  0  0  0  2  0  0  0  0  0  0
  180.4080  184.6670  135.0950 S   0  0  0  0  0  0  0  0  0  0  0  0
  180.5050  181.9970  134.8790 C   0  0  0  0  0  3  0  0  0  0  0  0
  180.6110  183.1820  135.7400 C   0  0  0  0  0  0  0  0  0  0  0  0
  180.6660  180.7790  135.3910 C   0  0  0  0  0  3  0  0  0  0  0  0
  181.2060  176.5800  139.2000 C   0  0  1  0  0  3  0  0  0  0  0  0
  179.8360  176.3620  138.6320 C   0  0  0  0  0  0  0  0  0  0  0  0
  179.1080  175.4860  139.0740 O   0  0  0  0  0  0  0  0  0  0  0  0
  179.3390  177.2740  137.5630 C   0  0  0  0  0  2  0  0  0  0  0  0
  179.8440  176.8770  136.3260 O   0  0  0  0  0  1  0  0  0  0  0  0
  182.1570  175.4070  138.9930 C   0  0  0  0  0  2  0  0  0  0  0  0
  181.7040  174.5310  137.8360 C   0  0  0  0  0  2  0  0  0  0  0  0
  182.6110  173.3810  135.9000 C   0  0  0  0  0  2  0  0  0  0  0  0
  182.8620  173.7150  137.2960 C   0  0  2  0  0  3  0  0  0  0  0  0
  182.3790  172.3720  136.9430 N   0  0  0  0  0  2  0  0  0  0  0  0
  2  4  1  0  0  0  0
  3 16  1  0  0  0  0
  3  1  1  0  0  0  0
  4  5  1  0  0  0  0
  5  9  1  0  0  0  0
  6  4  2  0  0  0  0
  6 12  1  0  0  0  0
  7 13  1  0  0  0  0
  7 10  2  0  0  0  0
  9  1  1  0  0  0  0
  9 11  1  0  0  0  0
  9  8  1  0  0  0  0
 10  6  1  0  0  0  0
 11  8  1  0  0  0  0
 12 28  1  1  0  0  0
 12  3  1  0  0  0  0
 13  2  2  0  0  0  0
 14 15  1  0  0  0  0
 14 13  1  0  0  0  0
 16 19  1  1  0  0  0
 16 18  1  0  0  0  0
 18 17  1  0  0  0  0
 20 19  1  0  0  0  0
 21 22  2  0  0  0  0
 22 20  1  0  0  0  0
 23 22  1  0  0  0  0
 24 26  2  0  0  0  0
 25 27  2  0  0  0  0
 25 26  1  0  0  0  0
 26 23  1  0  0  0  0
 27 21  1  0  0  0  0
 28 33  1  6  0  0  0
 29 30  2  0  0  0  0
 29 28  1  0  0  0  0
 31 29  1  0  0  0  0
 32 31  1  0  0  0  0
 34 33  1  0  0  0  0
 35 37  1  0  0  0  0
 35 36  1  0  0  0  0
 36 34  1  1  0  0  0
 37 36  1  0  0  0  0
M  END
>  <MODEL>
9

>  <REMARK>
 VINA RESULT:      -5.1      3.399      7.337
  Name = 
  12 active torsions:
  status: ('A' for Active; 'I' for Inactive)
    1  A    between atoms: C_1  and  C_12
    2  A    between atoms: C_1  and  C_36
    3  A    between atoms: O_3  and  C_32
    4  A    between atoms: C_6  and  C_31
    5  A    between atoms: N_10  and  C_14
    6  A    between atoms: C_14  and  C_27
    7  A    between atoms: C_14  and  C_37
    8  A    between atoms: C_17  and  C_26
    9  A    between atoms: C_17  and  C_33
   10  A    between atoms: C_29  and  C_36
   11  A    between atoms: C_31  and  C_37
   12  A    between atoms: C_33  and  C_36
                            x       y       z     vdW  Elec       q    Type
                         _______ _______ _______ _____ _____    ______ ____

>  <TORSDO>
F 12

$$$$
