=
 OpenBabel10262422353D

 43 48  0  0  1  0  0  0  0  0999 V2000
  191.0850  176.6270  146.5990 C   0  0  0  0  0  0  0  0  0  0  0  0
  188.6120  177.6990  142.3120 C   0  0  0  0  0  0  0  0  0  0  0  0
  190.4160  176.6550  144.2650 C   0  0  0  0  0  0  0  0  0  0  0  0
  189.7540  177.2210  146.9810 C   0  0  0  0  0  3  0  0  0  0  0  0
  192.0340  176.3610  147.6500 C   0  0  0  0  0  1  0  0  0  0  0  0
  188.8790  176.8660  144.6720 C   0  0  1  0  0  3  0  0  0  0  0  0
  191.3930  176.3870  145.3540 C   0  0  0  0  0  3  0  0  0  0  0  0
  188.7790  177.3710  146.0900 C   0  0  0  0  0  3  0  0  0  0  0  0
  188.1350  177.7850  143.7260 C   0  0  2  0  0  3  0  0  0  0  0  0
  189.8970  177.1780  142.0530 C   0  0  0  0  0  3  0  0  0  0  0  0
  190.7700  176.7300  143.0630 N   0  0  0  0  0  0  0  0  0  0  0  0
  186.5420  177.4780  143.6850 C   0  0  0  0  0  2  0  0  0  0  0  0
  185.5290  178.6580  144.0310 C   0  0  2  0  0  3  0  0  0  0  0  0
  185.4250  179.2770  145.3370 C   0  0  0  0  0  2  0  0  0  0  0  0
  185.0770  178.2410  146.4630 C   0  0  0  0  0  1  0  0  0  0  0  0
  184.6570  179.1170  142.9750 C   0  0  0  0  0  2  0  0  0  0  0  0
  181.7900  177.9040  141.0280 C   0  0  0  0  0  2  0  0  0  0  0  0
  184.3520  178.2250  140.5950 C   0  0  2  0  0  3  0  0  0  0  0  0
  181.7440  179.1630  138.4000 O   0  0  0  0  0  0  0  0  0  0  0  0
  183.1070  178.7060  141.3730 C   0  0  2  0  0  3  0  0  0  0  0  0
  180.8770  179.0340  140.6400 C   0  0  0  0  0  2  0  0  0  0  0  0
  184.0660  177.9770  142.1250 C   0  0  2  0  0  3  0  0  0  0  0  0
  183.1680  178.9340  138.2730 C   0  0  1  0  0  3  0  0  0  0  0  0
  184.2580  179.2540  139.3510 C   0  0  0  0  0  2  0  0  0  0  0  0
  181.4180  179.9370  139.4710 C   0  0  0  0  0  2  0  0  0  0  0  0
  184.0590  176.5720  137.6700 C   0  0  0  0  0  0  0  0  0  0  0  0
  183.4630  177.8890  137.3090 N   0  0  0  0  0  2  0  0  0  0  0  0
  183.2140  173.1510  136.9980 C   0  0  0  0  0  1  0  0  0  0  0  0
  185.1940  174.7460  136.8980 C   0  0  0  0  0  2  0  0  0  0  0  0
  184.0750  174.2160  137.7200 C   0  0  1  0  0  3  0  0  0  0  0  0
  185.0280  176.2010  136.9340 N   0  0  0  0  0  0  0  0  0  0  0  0
  183.1920  175.3880  138.0980 C   0  0  0  0  0  2  0  0  0  0  0  0
  187.9400  178.3680  141.2650 O   0  0  0  0  0  0  0  0  0  0  0  0
  188.5260  178.5790  139.9760 C   0  0  0  0  0  2  0  0  0  0  0  0
  187.9990  177.5730  138.9030 C   0  0  0  0  0  2  0  0  0  0  0  0
  189.6410  174.8770  136.9950 C   0  0  0  0  0  3  0  0  0  0  0  0
  190.9960  175.0780  137.3650 C   0  0  0  0  0  0  0  0  0  0  0  0
  190.3590  177.1480  138.4580 C   0  0  0  0  0  3  0  0  0  0  0  0
  188.6840  175.7090  137.4020 C   0  0  0  0  0  3  0  0  0  0  0  0
  189.0020  176.8440  138.1790 C   0  0  0  0  0  0  0  0  0  0  0  0
  191.3170  176.2590  138.0310 C   0  0  0  0  0  3  0  0  0  0  0  0
  193.2560  174.3800  137.6380 N   0  0  0  0  0  2  0  0  0  0  0  0
  192.0480  174.1040  137.1940 C   0  0  0  0  0  3  0  0  0  0  0  0
  1  4  1  0  0  0  0
  1  5  1  0  0  0  0
  2  9  1  0  0  0  0
  3  6  1  0  0  0  0
  3  7  1  0  0  0  0
  6  8  1  1  0  0  0
  7  1  2  0  0  0  0
  8  4  2  0  0  0  0
  9 12  1  6  0  0  0
  9  6  1  0  0  0  0
 10  2  2  0  0  0  0
 10 11  1  0  0  0  0
 11  3  2  0  0  0  0
 12 13  1  0  0  0  0
 13 16  1  1  0  0  0
 13 14  1  0  0  0  0
 14 15  1  0  0  0  0
 18 24  1  1  0  0  0
 18 20  1  0  0  0  0
 18 22  1  0  0  0  0
 19 25  1  0  0  0  0
 20 17  1  6  0  0  0
 20 22  1  0  0  0  0
 21 17  1  0  0  0  0
 22 16  1  1  0  0  0
 23 27  1  1  0  0  0
 23 19  1  0  0  0  0
 23 24  1  0  0  0  0
 25 21  1  0  0  0  0
 26 32  1  0  0  0  0
 27 26  1  0  0  0  0
 29 31  1  0  0  0  0
 29 30  1  0  0  0  0
 30 28  1  6  0  0  0
 30 32  1  0  0  0  0
 31 26  2  0  0  0  0
 33  2  1  0  0  0  0
 34 33  1  0  0  0  0
 35 34  1  0  0  0  0
 36 37  2  0  0  0  0
 36 39  1  0  0  0  0
 37 41  1  0  0  0  0
 39 40  2  0  0  0  0
 40 38  1  0  0  0  0
 40 35  1  0  0  0  0
 41 38  2  0  0  0  0
 43 37  1  0  0  0  0
 43 42  2  0  0  0  0
M  END
>  <MODEL>
1

>  <REMARK>
 VINA RESULT:      -9.1      0.000      0.000
  Name = 
  11 active torsions:
  status: ('A' for Active; 'I' for Inactive)
    1  A    between atoms: C_1  and  C_35
    2  A    between atoms: C_1  and  C_38
    3  A    between atoms: C_2  and  C_13
    4  A    between atoms: C_6  and  C_13
    5  A    between atoms: C_6  and  C_17
    6  A    between atoms: C_8  and  O_34
    7  A    between atoms: C_13  and  C_27
    8  A    between atoms: N_14  and  C_22
    9  A    between atoms: C_19  and  C_37
   10  A    between atoms: C_27  and  C_30
   11  A    between atoms: O_34  and  C_38
                            x       y       z     vdW  Elec       q    Type
                         _______ _______ _______ _____ _____    ______ ____

>  <TORSDO>
F 11

$$$$
=
 OpenBabel10262422353D

 43 48  0  0  1  0  0  0  0  0999 V2000
  182.4960  179.0770  139.0410 C   0  0  0  0  0  0  0  0  0  0  0  0
  184.5760  178.8940  143.6540 C   0  0  0  0  0  0  0  0  0  0  0  0
  182.7840  178.7740  141.4320 C   0  0  0  0  0  0  0  0  0  0  0  0
  183.9920  179.0340  138.8610 C   0  0  0  0  0  3  0  0  0  0  0  0
  181.6790  179.2690  137.8690 C   0  0  0  0  0  1  0  0  0  0  0  0
  184.3010  178.2970  141.2240 C   0  0  1  0  0  3  0  0  0  0  0  0
  181.9470  178.9780  140.2200 C   0  0  0  0  0  3  0  0  0  0  0  0
  184.8030  178.7280  139.8680 C   0  0  0  0  0  3  0  0  0  0  0  0
  185.2310  178.7840  142.3160 C   0  0  2  0  0  3  0  0  0  0  0  0
  183.1690  178.9840  143.7230 C   0  0  0  0  0  3  0  0  0  0  0  0
  182.3360  178.9790  142.5880 N   0  0  0  0  0  0  0  0  0  0  0  0
  186.5130  177.8090  142.5200 C   0  0  0  0  0  2  0  0  0  0  0  0
  187.9010  178.2270  141.8590 C   0  0  2  0  0  3  0  0  0  0  0  0
  189.1290  178.4110  142.6060 C   0  0  0  0  0  2  0  0  0  0  0  0
  189.9670  177.0890  142.7140 C   0  0  0  0  0  1  0  0  0  0  0  0
  187.9180  178.4490  140.4320 C   0  0  0  0  0  2  0  0  0  0  0  0
  187.0390  176.2570  137.6190 C   0  0  0  0  0  2  0  0  0  0  0  0
  189.1720  177.5710  138.3780 C   0  0  2  0  0  3  0  0  0  0  0  0
  187.8590  177.4660  135.0980 O   0  0  0  0  0  0  0  0  0  0  0  0
  187.6290  177.5030  138.3910 C   0  0  2  0  0  3  0  0  0  0  0  0
  186.1070  176.9460  136.6620 C   0  0  0  0  0  2  0  0  0  0  0  0
  188.2740  177.1910  139.6170 C   0  0  2  0  0  3  0  0  0  0  0  0
  189.1330  177.8190  135.6890 C   0  0  1  0  0  3  0  0  0  0  0  0
  189.3500  178.5130  137.0760 C   0  0  0  0  0  2  0  0  0  0  0  0
  186.7960  178.0210  135.7410 C   0  0  0  0  0  2  0  0  0  0  0  0
  190.9130  175.9500  135.9650 C   0  0  0  0  0  0  0  0  0  0  0  0
  190.2150  177.0000  135.1720 N   0  0  0  0  0  2  0  0  0  0  0  0
  191.7130  172.4950  135.4260 C   0  0  0  0  0  1  0  0  0  0  0  0
  192.8010  174.6780  136.1520 C   0  0  0  0  0  2  0  0  0  0  0  0
  191.6580  173.7460  136.3370 C   0  0  1  0  0  3  0  0  0  0  0  0
  192.1830  175.9810  135.8970 N   0  0  0  0  0  0  0  0  0  0  0  0
  190.3880  174.5160  136.0380 C   0  0  0  0  0  2  0  0  0  0  0  0
  185.3190  179.1850  144.8190 O   0  0  0  0  0  0  0  0  0  0  0  0
  185.0370  178.5920  146.0910 C   0  0  0  0  0  2  0  0  0  0  0  0
  186.0640  179.0120  147.1910 C   0  0  0  0  0  2  0  0  0  0  0  0
  189.3150  177.7350  148.3740 C   0  0  0  0  0  3  0  0  0  0  0  0
  189.8130  177.1360  147.1880 C   0  0  0  0  0  0  0  0  0  0  0  0
  187.6540  177.4890  146.1410 C   0  0  0  0  0  3  0  0  0  0  0  0
  188.0930  178.2590  148.4230 C   0  0  0  0  0  3  0  0  0  0  0  0
  187.2380  178.1930  147.3010 C   0  0  0  0  0  0  0  0  0  0  0  0
  188.9280  176.9710  146.1260 C   0  0  0  0  0  3  0  0  0  0  0  0
  191.8040  177.2250  145.8850 N   0  0  0  0  0  2  0  0  0  0  0  0
  191.1950  176.7810  146.9640 C   0  0  0  0  0  3  0  0  0  0  0  0
  1  7  2  0  0  0  0
  2 10  2  0  0  0  0
  2 33  1  0  0  0  0
  3 11  2  0  0  0  0
  4  1  1  0  0  0  0
  4  8  2  0  0  0  0
  5  1  1  0  0  0  0
  6  8  1  6  0  0  0
  6  3  1  0  0  0  0
  6  9  1  0  0  0  0
  7  3  1  0  0  0  0
  9 12  1  1  0  0  0
  9  2  1  0  0  0  0
 11 10  1  0  0  0  0
 13 16  1  1  0  0  0
 13 12  1  0  0  0  0
 13 14  1  0  0  0  0
 14 15  1  0  0  0  0
 18 24  1  1  0  0  0
 18 20  1  0  0  0  0
 18 22  1  0  0  0  0
 19 23  1  0  0  0  0
 19 25  1  0  0  0  0
 20 17  1  6  0  0  0
 20 22  1  0  0  0  0
 21 17  1  0  0  0  0
 22 16  1  1  0  0  0
 23 27  1  1  0  0  0
 23 24  1  0  0  0  0
 25 21  1  0  0  0  0
 26 32  1  0  0  0  0
 27 26  1  0  0  0  0
 29 30  1  0  0  0  0
 30 28  1  6  0  0  0
 31 26  2  0  0  0  0
 31 29  1  0  0  0  0
 32 30  1  0  0  0  0
 33 34  1  0  0  0  0
 34 35  1  0  0  0  0
 35 40  1  0  0  0  0
 36 39  1  0  0  0  0
 37 36  2  0  0  0  0
 38 40  1  0  0  0  0
 40 39  2  0  0  0  0
 41 38  2  0  0  0  0
 41 37  1  0  0  0  0
 42 43  2  0  0  0  0
 43 37  1  0  0  0  0
M  END
>  <MODEL>
2

>  <REMARK>
 VINA RESULT:      -8.9      2.409      7.857
  Name = 
  11 active torsions:
  status: ('A' for Active; 'I' for Inactive)
    1  A    between atoms: C_1  and  C_35
    2  A    between atoms: C_1  and  C_38
    3  A    between atoms: C_2  and  C_13
    4  A    between atoms: C_6  and  C_13
    5  A    between atoms: C_6  and  C_17
    6  A    between atoms: C_8  and  O_34
    7  A    between atoms: C_13  and  C_27
    8  A    between atoms: N_14  and  C_22
    9  A    between atoms: C_19  and  C_37
   10  A    between atoms: C_27  and  C_30
   11  A    between atoms: O_34  and  C_38
                            x       y       z     vdW  Elec       q    Type
                         _______ _______ _______ _____ _____    ______ ____

>  <TORSDO>
F 11

$$$$
=
 OpenBabel10262422353D

 43 48  0  0  1  0  0  0  0  0999 V2000
  193.0390  176.1070  136.8520 C   0  0  0  0  0  0  0  0  0  0  0  0
  188.4330  177.6710  138.2590 C   0  0  0  0  0  0  0  0  0  0  0  0
  190.6460  176.5190  136.8680 C   0  0  0  0  0  0  0  0  0  0  0  0
  193.0950  176.4100  138.3270 C   0  0  0  0  0  3  0  0  0  0  0  0
  194.2700  175.7700  136.1830 C   0  0  0  0  0  1  0  0  0  0  0  0
  190.6050  176.4160  138.4680 C   0  0  1  0  0  3  0  0  0  0  0  0
  191.9210  176.1760  136.1830 C   0  0  0  0  0  3  0  0  0  0  0  0
  191.9890  176.5980  139.0390 C   0  0  0  0  0  3  0  0  0  0  0  0
  189.6360  177.3940  139.1010 C   0  0  2  0  0  3  0  0  0  0  0  0
  188.4900  177.4070  136.8730 C   0  0  0  0  0  3  0  0  0  0  0  0
  189.6310  176.8910  136.2300 N   0  0  0  0  0  0  0  0  0  0  0  0
  189.0740  176.8740  140.5320 C   0  0  0  0  0  2  0  0  0  0  0  0
  189.4290  177.7130  141.8400 C   0  0  2  0  0  3  0  0  0  0  0  0
  190.7670  177.8400  142.3810 C   0  0  0  0  0  2  0  0  0  0  0  0
  190.7780  178.5160  143.7970 C   0  0  0  0  0  1  0  0  0  0  0  0
  188.3400  178.3670  142.5260 C   0  0  0  0  0  2  0  0  0  0  0  0
  186.4340  177.1330  145.4130 C   0  0  0  0  0  2  0  0  0  0  0  0
  185.8480  178.0900  143.0490 C   0  0  2  0  0  3  0  0  0  0  0  0
  184.3040  179.0020  146.0950 O   0  0  0  0  0  0  0  0  0  0  0  0
  186.8570  178.0750  144.2180 C   0  0  2  0  0  3  0  0  0  0  0  0
  186.4880  178.1060  146.5580 C   0  0  0  0  0  2  0  0  0  0  0  0
  187.2620  177.3930  143.0390 C   0  0  2  0  0  3  0  0  0  0  0  0
  183.9680  179.1200  144.6920 C   0  0  1  0  0  3  0  0  0  0  0  0
  184.9730  179.3670  143.5160 C   0  0  0  0  0  2  0  0  0  0  0  0
  185.5820  179.3790  146.3760 C   0  0  0  0  0  2  0  0  0  0  0  0
  181.6880  179.0110  143.4580 C   0  0  0  0  0  0  0  0  0  0  0  0
  182.7170  178.4530  144.3770 N   0  0  0  0  0  2  0  0  0  0  0  0
  179.8950  177.7530  140.6160 C   0  0  0  0  0  1  0  0  0  0  0  0
  179.4920  178.9440  142.8290 C   0  0  0  0  0  2  0  0  0  0  0  0
  180.2810  178.9100  141.5700 C   0  0  1  0  0  3  0  0  0  0  0  0
  180.4940  178.9670  143.8970 N   0  0  0  0  0  0  0  0  0  0  0  0
  181.7410  178.7680  141.9490 C   0  0  0  0  0  2  0  0  0  0  0  0
  187.3510  178.4380  138.7460 O   0  0  0  0  0  0  0  0  0  0  0  0
  186.0040  178.2570  138.2960 C   0  0  0  0  0  2  0  0  0  0  0  0
  184.9510  178.6180  139.3910 C   0  0  0  0  0  2  0  0  0  0  0  0
  181.8310  178.3470  137.4420 C   0  0  0  0  0  3  0  0  0  0  0  0
  181.3770  179.6910  137.4790 C   0  0  0  0  0  0  0  0  0  0  0  0
  183.1220  180.2040  139.0850 C   0  0  0  0  0  3  0  0  0  0  0  0
  182.9160  177.9660  138.1130 C   0  0  0  0  0  3  0  0  0  0  0  0
  183.6210  178.8850  138.9210 C   0  0  0  0  0  0  0  0  0  0  0  0
  182.0060  180.5620  138.3660 C   0  0  0  0  0  3  0  0  0  0  0  0
  179.9970  181.4950  136.7640 N   0  0  0  0  0  2  0  0  0  0  0  0
  180.3820  180.2480  136.5930 C   0  0  0  0  0  3  0  0  0  0  0  0
  1  4  1  0  0  0  0
  2 33  1  0  0  0  0
  2  9  1  0  0  0  0
  3  6  1  0  0  0  0
  4  8  2  0  0  0  0
  5  1  1  0  0  0  0
  6  8  1  1  0  0  0
  6  9  1  0  0  0  0
  7  1  2  0  0  0  0
  7  3  1  0  0  0  0
  9 12  1  1  0  0  0
 10  2  2  0  0  0  0
 11  3  2  0  0  0  0
 11 10  1  0  0  0  0
 13 12  1  1  0  0  0
 13 14  1  0  0  0  0
 13 16  1  0  0  0  0
 14 15  1  0  0  0  0
 17 21  1  0  0  0  0
 18 24  1  6  0  0  0
 18 20  1  0  0  0  0
 19 25  1  0  0  0  0
 20 17  1  1  0  0  0
 22 16  1  6  0  0  0
 22 18  1  0  0  0  0
 22 20  1  0  0  0  0
 23 27  1  6  0  0  0
 23 19  1  0  0  0  0
 24 23  1  0  0  0  0
 25 21  1  0  0  0  0
 26 31  2  0  0  0  0
 26 27  1  0  0  0  0
 29 31  1  0  0  0  0
 30 28  1  6  0  0  0
 30 32  1  0  0  0  0
 30 29  1  0  0  0  0
 32 26  1  0  0  0  0
 34 33  1  0  0  0  0
 34 35  1  0  0  0  0
 36 37  2  0  0  0  0
 36 39  1  0  0  0  0
 37 41  1  0  0  0  0
 39 40  2  0  0  0  0
 40 38  1  0  0  0  0
 40 35  1  0  0  0  0
 41 38  2  0  0  0  0
 43 42  2  0  0  0  0
 43 37  1  0  0  0  0
M  END
>  <MODEL>
3

>  <REMARK>
 VINA RESULT:      -8.8      2.772      7.458
  Name = 
  11 active torsions:
  status: ('A' for Active; 'I' for Inactive)
    1  A    between atoms: C_1  and  C_35
    2  A    between atoms: C_1  and  C_38
    3  A    between atoms: C_2  and  C_13
    4  A    between atoms: C_6  and  C_13
    5  A    between atoms: C_6  and  C_17
    6  A    between atoms: C_8  and  O_34
    7  A    between atoms: C_13  and  C_27
    8  A    between atoms: N_14  and  C_22
    9  A    between atoms: C_19  and  C_37
   10  A    between atoms: C_27  and  C_30
   11  A    between atoms: O_34  and  C_38
                            x       y       z     vdW  Elec       q    Type
                         _______ _______ _______ _____ _____    ______ ____

>  <TORSDO>
F 11

$$$$
=
 OpenBabel10262422353D

 43 48  0  0  1  0  0  0  0  0999 V2000
  186.6220  177.8780  144.5960 C   0  0  0  0  0  0  0  0  0  0  0  0
  182.3640  178.8340  142.0280 C   0  0  0  0  0  0  0  0  0  0  0  0
  184.4050  178.6840  144.0200 C   0  0  0  0  0  0  0  0  0  0  0  0
  186.9190  177.6690  143.1330 C   0  0  0  0  0  3  0  0  0  0  0  0
  187.6460  177.5360  145.5500 C   0  0  0  0  0  1  0  0  0  0  0  0
  184.8380  178.8830  142.4890 C   0  0  1  0  0  3  0  0  0  0  0  0
  185.4650  178.3240  145.0000 C   0  0  0  0  0  3  0  0  0  0  0  0
  186.0810  178.0830  142.1890 C   0  0  0  0  0  3  0  0  0  0  0  0
  183.7340  178.5380  141.5110 C   0  0  2  0  0  3  0  0  0  0  0  0
  182.1690  178.9590  143.4200 C   0  0  0  0  0  3  0  0  0  0  0  0
  183.2040  178.8180  144.3630 N   0  0  0  0  0  0  0  0  0  0  0  0
  183.8710  179.3440  140.1090 C   0  0  0  0  0  2  0  0  0  0  0  0
  183.8140  178.5190  138.7470 C   0  0  2  0  0  3  0  0  0  0  0  0
  182.6280  177.8480  138.2560 C   0  0  0  0  0  2  0  0  0  0  0  0
  182.2730  178.2610  136.7850 C   0  0  0  0  0  1  0  0  0  0  0  0
  185.0310  178.4290  137.9730 C   0  0  0  0  0  2  0  0  0  0  0  0
  187.3010  175.8100  136.7590 C   0  0  0  0  0  2  0  0  0  0  0  0
  187.3850  177.6520  138.6170 C   0  0  2  0  0  3  0  0  0  0  0  0
  189.9670  176.9030  136.3230 O   0  0  0  0  0  0  0  0  0  0  0  0
  186.8140  177.2320  137.2440 C   0  0  2  0  0  3  0  0  0  0  0  0
  187.8680  176.1610  135.4120 C   0  0  0  0  0  2  0  0  0  0  0  0
  185.8990  177.2080  138.3300 C   0  0  2  0  0  3  0  0  0  0  0  0
  189.8820  177.6000  137.5890 C   0  0  1  0  0  3  0  0  0  0  0  0
  188.6780  178.4670  138.0890 C   0  0  0  0  0  2  0  0  0  0  0  0
  188.9920  177.2620  135.4440 C   0  0  0  0  0  2  0  0  0  0  0  0
  190.7530  177.4110  140.0260 C   0  0  0  0  0  0  0  0  0  0  0  0
  190.7420  177.0010  138.5940 N   0  0  0  0  0  2  0  0  0  0  0  0
  190.5090  175.6660  143.1510 C   0  0  0  0  0  1  0  0  0  0  0  0
  191.9460  177.4060  141.9750 C   0  0  0  0  0  2  0  0  0  0  0  0
  190.5680  176.9800  142.3360 C   0  0  1  0  0  3  0  0  0  0  0  0
  191.9100  177.5960  140.5240 N   0  0  0  0  0  0  0  0  0  0  0  0
  189.7950  176.7940  141.0460 C   0  0  0  0  0  2  0  0  0  0  0  0
  181.2220  178.7190  141.2040 O   0  0  0  0  0  0  0  0  0  0  0  0
  180.2220  179.7390  141.1140 C   0  0  0  0  0  2  0  0  0  0  0  0
  179.4410  179.6980  139.7620 C   0  0  0  0  0  2  0  0  0  0  0  0
  181.4000  182.2440  137.9500 C   0  0  0  0  0  3  0  0  0  0  0  0
  180.6480  182.3550  136.7520 C   0  0  0  0  0  0  0  0  0  0  0  0
  179.3250  180.4420  137.4410 C   0  0  0  0  0  3  0  0  0  0  0  0
  181.0870  181.3460  138.8810 C   0  0  0  0  0  3  0  0  0  0  0  0
  180.0170  180.4460  138.6800 C   0  0  0  0  0  0  0  0  0  0  0  0
  179.6710  181.3920  136.5090 C   0  0  0  0  0  3  0  0  0  0  0  0
  181.0170  184.6580  136.2690 N   0  0  0  0  0  2  0  0  0  0  0  0
  180.7480  183.4510  135.8170 C   0  0  0  0  0  3  0  0  0  0  0  0
  1  7  2  0  0  0  0
  1  5  1  0  0  0  0
  2 10  2  0  0  0  0
  3 11  2  0  0  0  0
  3  7  1  0  0  0  0
  4  1  1  0  0  0  0
  6  8  1  6  0  0  0
  6  3  1  0  0  0  0
  8  4  2  0  0  0  0
  9 12  1  6  0  0  0
  9  2  1  0  0  0  0
  9  6  1  0  0  0  0
 10 11  1  0  0  0  0
 13 16  1  1  0  0  0
 13 12  1  0  0  0  0
 14 13  1  0  0  0  0
 15 14  1  0  0  0  0
 18 24  1  6  0  0  0
 19 23  1  0  0  0  0
 20 17  1  1  0  0  0
 20 22  1  0  0  0  0
 20 18  1  0  0  0  0
 21 25  1  0  0  0  0
 21 17  1  0  0  0  0
 22 16  1  6  0  0  0
 22 18  1  0  0  0  0
 23 24  1  0  0  0  0
 23 27  1  1  0  0  0
 25 19  1  0  0  0  0
 26 31  2  0  0  0  0
 26 32  1  0  0  0  0
 27 26  1  0  0  0  0
 29 30  1  0  0  0  0
 30 28  1  6  0  0  0
 31 29  1  0  0  0  0
 32 30  1  0  0  0  0
 33  2  1  0  0  0  0
 34 33  1  0  0  0  0
 35 34  1  0  0  0  0
 36 39  1  0  0  0  0
 37 36  2  0  0  0  0
 38 40  1  0  0  0  0
 40 39  2  0  0  0  0
 40 35  1  0  0  0  0
 41 37  1  0  0  0  0
 41 38  2  0  0  0  0
 43 42  2  0  0  0  0
 43 37  1  0  0  0  0
M  END
>  <MODEL>
4

>  <REMARK>
 VINA RESULT:      -8.7      2.736      8.313
  Name = 
  11 active torsions:
  status: ('A' for Active; 'I' for Inactive)
    1  A    between atoms: C_1  and  C_35
    2  A    between atoms: C_1  and  C_38
    3  A    between atoms: C_2  and  C_13
    4  A    between atoms: C_6  and  C_13
    5  A    between atoms: C_6  and  C_17
    6  A    between atoms: C_8  and  O_34
    7  A    between atoms: C_13  and  C_27
    8  A    between atoms: N_14  and  C_22
    9  A    between atoms: C_19  and  C_37
   10  A    between atoms: C_27  and  C_30
   11  A    between atoms: O_34  and  C_38
                            x       y       z     vdW  Elec       q    Type
                         _______ _______ _______ _____ _____    ______ ____

>  <TORSDO>
F 11

$$$$
=
 OpenBabel10262422353D

 43 48  0  0  1  0  0  0  0  0999 V2000
  191.5510  176.2900  147.1200 C   0  0  0  0  0  0  0  0  0  0  0  0
  187.6340  177.5160  144.1550 C   0  0  0  0  0  0  0  0  0  0  0  0
  189.4280  177.1840  146.3530 C   0  0  0  0  0  0  0  0  0  0  0  0
  192.0120  176.1730  145.6910 C   0  0  0  0  0  3  0  0  0  0  0  0
  192.4520  175.8600  148.1600 C   0  0  0  0  0  1  0  0  0  0  0  0
  190.0380  177.4770  144.8990 C   0  0  1  0  0  3  0  0  0  0  0  0
  190.3620  176.7340  147.4200 C   0  0  0  0  0  3  0  0  0  0  0  0
  191.2960  176.6700  144.6880 C   0  0  0  0  0  3  0  0  0  0  0  0
  189.0500  177.2240  143.7790 C   0  0  2  0  0  3  0  0  0  0  0  0
  187.2810  177.5520  145.5220 C   0  0  0  0  0  3  0  0  0  0  0  0
  188.1980  177.3220  146.5640 N   0  0  0  0  0  0  0  0  0  0  0  0
  189.3610  178.1200  142.4620 C   0  0  0  0  0  2  0  0  0  0  0  0
  190.3270  177.5230  141.3450 C   0  0  2  0  0  3  0  0  0  0  0  0
  191.7700  177.4780  141.4630 C   0  0  0  0  0  2  0  0  0  0  0  0
  192.4860  177.5020  140.0670 C   0  0  0  0  0  1  0  0  0  0  0  0
  189.7150  177.0140  140.1390 C   0  0  0  0  0  2  0  0  0  0  0  0
  188.6630  178.9840  137.2240 C   0  0  0  0  0  2  0  0  0  0  0  0
  187.5760  177.1450  138.7370 C   0  0  2  0  0  3  0  0  0  0  0  0
  187.4750  177.2500  135.2050 O   0  0  0  0  0  0  0  0  0  0  0  0
  188.8830  177.7260  138.1530 C   0  0  2  0  0  3  0  0  0  0  0  0
  189.3630  178.5250  135.9740 C   0  0  0  0  0  2  0  0  0  0  0  0
  188.6620  177.9620  139.5350 C   0  0  2  0  0  3  0  0  0  0  0  0
  186.7210  176.5730  136.2390 C   0  0  1  0  0  3  0  0  0  0  0  0
  187.2880  176.0340  137.5970 C   0  0  0  0  0  2  0  0  0  0  0  0
  188.8220  177.1720  135.3820 C   0  0  0  0  0  2  0  0  0  0  0  0
  184.2140  175.9190  136.3870 C   0  0  0  0  0  0  0  0  0  0  0  0
  185.3090  176.9080  136.1870 N   0  0  0  0  0  2  0  0  0  0  0  0
  181.2880  175.7800  138.4580 C   0  0  0  0  0  1  0  0  0  0  0  0
  182.0030  175.4650  136.0360 C   0  0  0  0  0  2  0  0  0  0  0  0
  182.2710  175.1240  137.4580 C   0  0  1  0  0  3  0  0  0  0  0  0
  183.2780  175.9720  135.5260 N   0  0  0  0  0  0  0  0  0  0  0  0
  183.6790  175.5830  137.7790 C   0  0  0  0  0  2  0  0  0  0  0  0
  186.5940  177.4850  143.2000 O   0  0  0  0  0  0  0  0  0  0  0  0
  185.7580  178.6130  142.9220 C   0  0  0  0  0  2  0  0  0  0  0  0
  185.7840  179.0240  141.4160 C   0  0  0  0  0  2  0  0  0  0  0  0
  183.2740  179.2070  138.7190 C   0  0  0  0  0  3  0  0  0  0  0  0
  182.0730  179.1120  139.4680 C   0  0  0  0  0  0  0  0  0  0  0  0
  183.3820  178.6010  141.4450 C   0  0  0  0  0  3  0  0  0  0  0  0
  184.4640  179.0950  139.3050 C   0  0  0  0  0  3  0  0  0  0  0  0
  184.5600  178.8320  140.6890 C   0  0  0  0  0  0  0  0  0  0  0  0
  182.1720  178.7380  140.8060 C   0  0  0  0  0  3  0  0  0  0  0  0
  180.4690  180.7470  138.8180 N   0  0  0  0  0  2  0  0  0  0  0  0
  180.7650  179.4740  138.9740 C   0  0  0  0  0  3  0  0  0  0  0  0
  1  7  2  0  0  0  0
  1  5  1  0  0  0  0
  2 10  2  0  0  0  0
  3 11  2  0  0  0  0
  3  7  1  0  0  0  0
  4  1  1  0  0  0  0
  6  8  1  6  0  0  0
  6  3  1  0  0  0  0
  8  4  2  0  0  0  0
  9 12  1  6  0  0  0
  9  2  1  0  0  0  0
  9  6  1  0  0  0  0
 10 11  1  0  0  0  0
 13 16  1  6  0  0  0
 13 14  1  0  0  0  0
 13 12  1  0  0  0  0
 15 14  1  0  0  0  0
 18 24  1  1  0  0  0
 18 22  1  0  0  0  0
 19 25  1  0  0  0  0
 19 23  1  0  0  0  0
 20 17  1  6  0  0  0
 20 18  1  0  0  0  0
 20 22  1  0  0  0  0
 21 17  1  0  0  0  0
 22 16  1  1  0  0  0
 23 27  1  1  0  0  0
 23 24  1  0  0  0  0
 25 21  1  0  0  0  0
 26 32  1  0  0  0  0
 27 26  1  0  0  0  0
 29 30  1  0  0  0  0
 30 32  1  0  0  0  0
 30 28  1  1  0  0  0
 31 29  1  0  0  0  0
 31 26  2  0  0  0  0
 33  2  1  0  0  0  0
 34 33  1  0  0  0  0
 35 34  1  0  0  0  0
 36 39  2  0  0  0  0
 36 37  1  0  0  0  0
 37 41  2  0  0  0  0
 39 40  1  0  0  0  0
 40 35  1  0  0  0  0
 40 38  2  0  0  0  0
 41 38  1  0  0  0  0
 42 43  2  0  0  0  0
 43 37  1  0  0  0  0
M  END
>  <MODEL>
5

>  <REMARK>
 VINA RESULT:      -8.5      2.382      6.002
  Name = 
  11 active torsions:
  status: ('A' for Active; 'I' for Inactive)
    1  A    between atoms: C_1  and  C_35
    2  A    between atoms: C_1  and  C_38
    3  A    between atoms: C_2  and  C_13
    4  A    between atoms: C_6  and  C_13
    5  A    between atoms: C_6  and  C_17
    6  A    between atoms: C_8  and  O_34
    7  A    between atoms: C_13  and  C_27
    8  A    between atoms: N_14  and  C_22
    9  A    between atoms: C_19  and  C_37
   10  A    between atoms: C_27  and  C_30
   11  A    between atoms: O_34  and  C_38
                            x       y       z     vdW  Elec       q    Type
                         _______ _______ _______ _____ _____    ______ ____

>  <TORSDO>
F 11

$$$$
=
 OpenBabel10262422353D

 43 48  0  0  1  0  0  0  0  0999 V2000
  188.1780  177.8680  147.8080 C   0  0  0  0  0  0  0  0  0  0  0  0
  188.7680  177.9860  142.7800 C   0  0  0  0  0  0  0  0  0  0  0  0
  189.0390  177.4600  145.5750 C   0  0  0  0  0  0  0  0  0  0  0  0
  186.8860  178.3650  147.2120 C   0  0  0  0  0  3  0  0  0  0  0  0
  188.3080  177.8730  149.2430 C   0  0  0  0  0  1  0  0  0  0  0  0
  187.5660  177.5630  144.9510 C   0  0  1  0  0  3  0  0  0  0  0  0
  189.1680  177.4730  147.0570 C   0  0  0  0  0  3  0  0  0  0  0  0
  186.6390  178.2670  145.9100 C   0  0  0  0  0  3  0  0  0  0  0  0
  187.5410  178.2370  143.5940 C   0  0  2  0  0  3  0  0  0  0  0  0
  189.9510  177.5740  143.4320 C   0  0  0  0  0  3  0  0  0  0  0  0
  190.0430  177.3870  144.8240 N   0  0  0  0  0  0  0  0  0  0  0  0
  186.2880  177.7550  142.6830 C   0  0  0  0  0  2  0  0  0  0  0  0
  185.0990  178.7820  142.4180 C   0  0  2  0  0  3  0  0  0  0  0  0
  184.5750  179.6880  143.4190 C   0  0  0  0  0  2  0  0  0  0  0  0
  183.5010  179.0080  144.3390 C   0  0  0  0  0  1  0  0  0  0  0  0
  184.5050  178.7860  141.1010 C   0  0  0  0  0  2  0  0  0  0  0  0
  180.8770  178.2960  141.3900 C   0  0  0  0  0  2  0  0  0  0  0  0
  182.6750  177.9380  139.5230 C   0  0  2  0  0  3  0  0  0  0  0  0
  179.5110  179.4530  139.0910 O   0  0  0  0  0  0  0  0  0  0  0  0
  182.2610  178.7420  140.7740 C   0  0  2  0  0  3  0  0  0  0  0  0
  180.1480  179.6110  141.4050 C   0  0  0  0  0  2  0  0  0  0  0  0
  183.3200  177.8130  140.9560 C   0  0  2  0  0  3  0  0  0  0  0  0
  180.5020  178.8630  138.2140 C   0  0  1  0  0  3  0  0  0  0  0  0
  182.0560  178.9220  138.4000 C   0  0  0  0  0  2  0  0  0  0  0  0
  180.0430  180.3140  140.0010 C   0  0  0  0  0  2  0  0  0  0  0  0
  180.5560  176.3870  137.4380 C   0  0  0  0  0  0  0  0  0  0  0  0
  179.9570  177.7510  137.4550 N   0  0  0  0  0  2  0  0  0  0  0  0
  179.2920  173.0710  137.9650 C   0  0  0  0  0  1  0  0  0  0  0  0
  180.6890  174.4060  136.3090 C   0  0  0  0  0  2  0  0  0  0  0  0
  180.4680  174.0510  137.7350 C   0  0  1  0  0  3  0  0  0  0  0  0
  180.6810  175.8700  136.2820 N   0  0  0  0  0  0  0  0  0  0  0  0
  180.1910  175.3370  138.4880 C   0  0  0  0  0  2  0  0  0  0  0  0
  188.8610  178.4070  141.4350 O   0  0  0  0  0  0  0  0  0  0  0  0
  188.8610  177.4940  140.3320 C   0  0  0  0  0  2  0  0  0  0  0  0
  188.6980  178.2140  138.9560 C   0  0  0  0  0  2  0  0  0  0  0  0
  185.4250  177.5510  137.3900 C   0  0  0  0  0  3  0  0  0  0  0  0
  185.6200  176.2280  136.9170 C   0  0  0  0  0  0  0  0  0  0  0  0
  187.9690  176.4000  137.4970 C   0  0  0  0  0  3  0  0  0  0  0  0
  186.4150  178.2330  137.9630 C   0  0  0  0  0  3  0  0  0  0  0  0
  187.7040  177.6690  138.0750 C   0  0  0  0  0  0  0  0  0  0  0  0
  186.9180  175.7230  136.9250 C   0  0  0  0  0  3  0  0  0  0  0  0
  184.0570  174.5030  137.4190 N   0  0  0  0  0  2  0  0  0  0  0  0
  184.5590  175.3290  136.5260 C   0  0  0  0  0  3  0  0  0  0  0  0
  1  5  1  0  0  0  0
  2 10  2  0  0  0  0
  2  9  1  0  0  0  0
  3  7  1  0  0  0  0
  4  1  1  0  0  0  0
  6  3  1  0  0  0  0
  6  8  1  1  0  0  0
  7  1  2  0  0  0  0
  8  4  2  0  0  0  0
  9 12  1  6  0  0  0
  9  6  1  0  0  0  0
 10 11  1  0  0  0  0
 11  3  2  0  0  0  0
 13 16  1  1  0  0  0
 13 12  1  0  0  0  0
 13 14  1  0  0  0  0
 14 15  1  0  0  0  0
 17 21  1  0  0  0  0
 18 24  1  6  0  0  0
 18 20  1  0  0  0  0
 18 22  1  0  0  0  0
 19 25  1  0  0  0  0
 20 22  1  0  0  0  0
 20 17  1  1  0  0  0
 22 16  1  6  0  0  0
 23 27  1  1  0  0  0
 23 24  1  0  0  0  0
 23 19  1  0  0  0  0
 25 21  1  0  0  0  0
 26 27  1  0  0  0  0
 26 32  1  0  0  0  0
 29 30  1  0  0  0  0
 30 28  1  6  0  0  0
 30 32  1  0  0  0  0
 31 29  1  0  0  0  0
 31 26  2  0  0  0  0
 33  2  1  0  0  0  0
 34 33  1  0  0  0  0
 35 34  1  0  0  0  0
 36 39  1  0  0  0  0
 37 41  1  0  0  0  0
 37 36  2  0  0  0  0
 38 40  1  0  0  0  0
 39 40  2  0  0  0  0
 40 35  1  0  0  0  0
 41 38  2  0  0  0  0
 43 37  1  0  0  0  0
 43 42  2  0  0  0  0
M  END
>  <MODEL>
6

>  <REMARK>
 VINA RESULT:      -8.4      2.281      3.289
  Name = 
  11 active torsions:
  status: ('A' for Active; 'I' for Inactive)
    1  A    between atoms: C_1  and  C_35
    2  A    between atoms: C_1  and  C_38
    3  A    between atoms: C_2  and  C_13
    4  A    between atoms: C_6  and  C_13
    5  A    between atoms: C_6  and  C_17
    6  A    between atoms: C_8  and  O_34
    7  A    between atoms: C_13  and  C_27
    8  A    between atoms: N_14  and  C_22
    9  A    between atoms: C_19  and  C_37
   10  A    between atoms: C_27  and  C_30
   11  A    between atoms: O_34  and  C_38
                            x       y       z     vdW  Elec       q    Type
                         _______ _______ _______ _____ _____    ______ ____

>  <TORSDO>
F 11

$$$$
=
 OpenBabel10262422353D

 43 48  0  0  1  0  0  0  0  0999 V2000
  188.1470  177.9760  147.5730 C   0  0  0  0  0  0  0  0  0  0  0  0
  188.2830  178.0130  142.5110 C   0  0  0  0  0  0  0  0  0  0  0  0
  188.8530  177.6030  145.2800 C   0  0  0  0  0  0  0  0  0  0  0  0
  186.7600  178.3070  147.0850 C   0  0  0  0  0  3  0  0  0  0  0  0
  188.3990  178.0370  148.9900 C   0  0  0  0  0  1  0  0  0  0  0  0
  187.3290  177.5210  144.7880 C   0  0  1  0  0  3  0  0  0  0  0  0
  189.1080  177.6730  146.7440 C   0  0  0  0  0  3  0  0  0  0  0  0
  186.4150  178.1440  145.8130 C   0  0  0  0  0  3  0  0  0  0  0  0
  187.1110  178.1490  143.4260 C   0  0  2  0  0  3  0  0  0  0  0  0
  189.5570  177.7570  143.0620 C   0  0  0  0  0  3  0  0  0  0  0  0
  189.7900  177.6210  144.4440 N   0  0  0  0  0  0  0  0  0  0  0  0
  185.8470  177.5020  142.6400 C   0  0  0  0  0  2  0  0  0  0  0  0
  184.4880  178.3310  142.5690 C   0  0  2  0  0  3  0  0  0  0  0  0
  184.1490  179.4070  143.4780 C   0  0  0  0  0  2  0  0  0  0  0  0
  183.0290  178.9990  144.4980 C   0  0  0  0  0  1  0  0  0  0  0  0
  183.5380  177.9650  141.5450 C   0  0  0  0  0  2  0  0  0  0  0  0
  182.9930  178.6240  137.9730 C   0  0  0  0  0  2  0  0  0  0  0  0
  181.8680  179.3780  140.2130 C   0  0  2  0  0  3  0  0  0  0  0  0
  180.1750  178.3030  137.3020 O   0  0  0  0  0  0  0  0  0  0  0  0
  182.6590  178.2750  139.4770 C   0  0  2  0  0  3  0  0  0  0  0  0
  182.4130  177.4230  137.2790 C   0  0  0  0  0  2  0  0  0  0  0  0
  183.3880  179.0250  140.4370 C   0  0  2  0  0  3  0  0  0  0  0  0
  179.8140  179.0480  138.4910 C   0  0  1  0  0  3  0  0  0  0  0  0
  180.3770  178.8180  139.9340 C   0  0  0  0  0  2  0  0  0  0  0  0
  180.8870  177.1750  137.5700 C   0  0  0  0  0  2  0  0  0  0  0  0
  180.1780  181.4990  137.7200 C   0  0  0  0  0  0  0  0  0  0  0  0
  179.3140  180.3720  138.1680 N   0  0  0  0  0  2  0  0  0  0  0  0
  180.1010  183.8000  134.9690 C   0  0  0  0  0  1  0  0  0  0  0  0
  180.3500  183.7670  137.5020 C   0  0  0  0  0  2  0  0  0  0  0  0
  180.8050  183.1940  136.2080 C   0  0  1  0  0  3  0  0  0  0  0  0
  179.9650  182.6070  138.3090 N   0  0  0  0  0  0  0  0  0  0  0  0
  180.5330  181.7040  136.2470 C   0  0  0  0  0  2  0  0  0  0  0  0
  188.2110  178.4030  141.1550 O   0  0  0  0  0  0  0  0  0  0  0  0
  188.9260  177.7310  140.1130 C   0  0  0  0  0  2  0  0  0  0  0  0
  189.1030  178.6160  138.8380 C   0  0  0  0  0  2  0  0  0  0  0  0
  186.2120  177.3820  136.9090 C   0  0  0  0  0  3  0  0  0  0  0  0
  186.8420  177.0140  135.6920 C   0  0  0  0  0  0  0  0  0  0  0  0
  188.8900  178.0540  136.4740 C   0  0  0  0  0  3  0  0  0  0  0  0
  186.8930  177.9720  137.8890 C   0  0  0  0  0  3  0  0  0  0  0  0
  188.2590  178.2890  137.7240 C   0  0  0  0  0  0  0  0  0  0  0  0
  188.1550  177.4320  135.4910 C   0  0  0  0  0  3  0  0  0  0  0  0
  186.0200  174.8910  134.9930 N   0  0  0  0  0  2  0  0  0  0  0  0
  186.2580  176.1510  134.6930 C   0  0  0  0  0  3  0  0  0  0  0  0
  1  5  1  0  0  0  0
  2 10  2  0  0  0  0
  2  9  1  0  0  0  0
  3  7  1  0  0  0  0
  4  1  1  0  0  0  0
  6  3  1  0  0  0  0
  6  8  1  1  0  0  0
  7  1  2  0  0  0  0
  8  4  2  0  0  0  0
  9 12  1  6  0  0  0
  9  6  1  0  0  0  0
 10 11  1  0  0  0  0
 11  3  2  0  0  0  0
 13 16  1  1  0  0  0
 13 12  1  0  0  0  0
 13 14  1  0  0  0  0
 14 15  1  0  0  0  0
 18 24  1  1  0  0  0
 18 22  1  0  0  0  0
 19 25  1  0  0  0  0
 19 23  1  0  0  0  0
 20 17  1  6  0  0  0
 20 18  1  0  0  0  0
 20 22  1  0  0  0  0
 21 25  1  0  0  0  0
 21 17  1  0  0  0  0
 22 16  1  1  0  0  0
 23 27  1  6  0  0  0
 23 24  1  0  0  0  0
 26 27  1  0  0  0  0
 26 31  2  0  0  0  0
 29 31  1  0  0  0  0
 30 28  1  6  0  0  0
 30 32  1  0  0  0  0
 30 29  1  0  0  0  0
 32 26  1  0  0  0  0
 33  2  1  0  0  0  0
 34 33  1  0  0  0  0
 35 34  1  0  0  0  0
 36 39  1  0  0  0  0
 37 36  2  0  0  0  0
 38 40  1  0  0  0  0
 40 39  2  0  0  0  0
 40 35  1  0  0  0  0
 41 37  1  0  0  0  0
 41 38  2  0  0  0  0
 43 42  2  0  0  0  0
 43 37  1  0  0  0  0
M  END
>  <MODEL>
7

>  <REMARK>
 VINA RESULT:      -8.3      2.524      4.501
  Name = 
  11 active torsions:
  status: ('A' for Active; 'I' for Inactive)
    1  A    between atoms: C_1  and  C_35
    2  A    between atoms: C_1  and  C_38
    3  A    between atoms: C_2  and  C_13
    4  A    between atoms: C_6  and  C_13
    5  A    between atoms: C_6  and  C_17
    6  A    between atoms: C_8  and  O_34
    7  A    between atoms: C_13  and  C_27
    8  A    between atoms: N_14  and  C_22
    9  A    between atoms: C_19  and  C_37
   10  A    between atoms: C_27  and  C_30
   11  A    between atoms: O_34  and  C_38
                            x       y       z     vdW  Elec       q    Type
                         _______ _______ _______ _____ _____    ______ ____

>  <TORSDO>
F 11

$$$$
=
 OpenBabel10262422353D

 43 48  0  0  1  0  0  0  0  0999 V2000
  188.0960  177.8580  147.4180 C   0  0  0  0  0  0  0  0  0  0  0  0
  187.8010  178.2450  142.3780 C   0  0  0  0  0  0  0  0  0  0  0  0
  188.5800  177.6110  145.0520 C   0  0  0  0  0  0  0  0  0  0  0  0
  186.6940  178.2950  147.0790 C   0  0  0  0  0  3  0  0  0  0  0  0
  188.4720  177.8050  148.8080 C   0  0  0  0  0  1  0  0  0  0  0  0
  187.0180  177.6440  144.6940 C   0  0  1  0  0  3  0  0  0  0  0  0
  188.9630  177.5640  146.4890 C   0  0  0  0  0  3  0  0  0  0  0  0
  186.2320  178.2410  145.8350 C   0  0  0  0  0  3  0  0  0  0  0  0
  186.7210  178.3780  143.4010 C   0  0  2  0  0  3  0  0  0  0  0  0
  189.1000  177.8830  142.7950 C   0  0  0  0  0  3  0  0  0  0  0  0
  189.4410  177.6380  144.1380 N   0  0  0  0  0  0  0  0  0  0  0  0
  185.3580  177.8560  142.6900 C   0  0  0  0  0  2  0  0  0  0  0  0
  184.0600  178.7760  142.7640 C   0  0  2  0  0  3  0  0  0  0  0  0
  183.7400  179.6350  143.8860 C   0  0  0  0  0  2  0  0  0  0  0  0
  183.0530  178.8540  145.0600 C   0  0  0  0  0  1  0  0  0  0  0  0
  183.1470  178.7290  141.6450 C   0  0  0  0  0  2  0  0  0  0  0  0
  181.4330  176.1970  139.6100 C   0  0  0  0  0  2  0  0  0  0  0  0
  183.4590  177.8200  139.2710 C   0  0  2  0  0  3  0  0  0  0  0  0
  180.8450  177.2560  136.9600 O   0  0  0  0  0  0  0  0  0  0  0  0
  182.1150  177.5710  139.9910 C   0  0  2  0  0  3  0  0  0  0  0  0
  180.0800  176.6800  139.1660 C   0  0  0  0  0  2  0  0  0  0  0  0
  183.2810  177.4530  140.7940 C   0  0  2  0  0  3  0  0  0  0  0  0
  182.1810  177.8110  136.8920 C   0  0  1  0  0  3  0  0  0  0  0  0
  182.8920  178.6520  138.0060 C   0  0  0  0  0  2  0  0  0  0  0  0
  180.1150  177.7380  138.0020 C   0  0  0  0  0  2  0  0  0  0  0  0
  184.5110  177.1140  135.9890 C   0  0  0  0  0  0  0  0  0  0  0  0
  183.0230  177.0820  135.9610 N   0  0  0  0  0  2  0  0  0  0  0  0
  187.0890  174.6190  136.0050 C   0  0  0  0  0  1  0  0  0  0  0  0
  186.4230  176.7540  134.7910 C   0  0  0  0  0  2  0  0  0  0  0  0
  186.6330  176.0940  136.1060 C   0  0  1  0  0  3  0  0  0  0  0  0
  185.0660  177.3000  134.8580 N   0  0  0  0  0  0  0  0  0  0  0  0
  185.3200  176.1530  136.8600 C   0  0  0  0  0  2  0  0  0  0  0  0
  187.6360  178.7320  141.0630 O   0  0  0  0  0  0  0  0  0  0  0  0
  187.7220  177.8940  139.9060 C   0  0  0  0  0  2  0  0  0  0  0  0
  188.7830  178.3980  138.8760 C   0  0  0  0  0  2  0  0  0  0  0  0
  191.9380  176.4870  138.8710 C   0  0  0  0  0  3  0  0  0  0  0  0
  192.0510  176.1650  137.4940 C   0  0  0  0  0  0  0  0  0  0  0  0
  189.8110  177.0270  137.1400 C   0  0  0  0  0  3  0  0  0  0  0  0
  190.8670  177.1190  139.3470 C   0  0  0  0  0  3  0  0  0  0  0  0
  189.7900  177.4480  138.4950 C   0  0  0  0  0  0  0  0  0  0  0  0
  190.9400  176.3870  136.6840 C   0  0  0  0  0  3  0  0  0  0  0  0
  194.3020  176.5330  136.8090 N   0  0  0  0  0  2  0  0  0  0  0  0
  193.2660  175.7220  136.8500 C   0  0  0  0  0  3  0  0  0  0  0  0
  1  5  1  0  0  0  0
  2 10  2  0  0  0  0
  2  9  1  0  0  0  0
  3  7  1  0  0  0  0
  4  1  1  0  0  0  0
  6  3  1  0  0  0  0
  6  8  1  1  0  0  0
  7  1  2  0  0  0  0
  8  4  2  0  0  0  0
  9 12  1  6  0  0  0
  9  6  1  0  0  0  0
 10 11  1  0  0  0  0
 11  3  2  0  0  0  0
 12 13  1  0  0  0  0
 13 16  1  1  0  0  0
 13 14  1  0  0  0  0
 14 15  1  0  0  0  0
 18 24  1  1  0  0  0
 18 20  1  0  0  0  0
 18 22  1  0  0  0  0
 19 25  1  0  0  0  0
 20 17  1  6  0  0  0
 20 22  1  0  0  0  0
 21 17  1  0  0  0  0
 22 16  1  1  0  0  0
 23 27  1  1  0  0  0
 23 19  1  0  0  0  0
 23 24  1  0  0  0  0
 25 21  1  0  0  0  0
 26 32  1  0  0  0  0
 27 26  1  0  0  0  0
 29 31  1  0  0  0  0
 29 30  1  0  0  0  0
 30 28  1  6  0  0  0
 30 32  1  0  0  0  0
 31 26  2  0  0  0  0
 33  2  1  0  0  0  0
 34 33  1  0  0  0  0
 35 34  1  0  0  0  0
 36 39  1  0  0  0  0
 37 36  2  0  0  0  0
 38 40  1  0  0  0  0
 40 35  1  0  0  0  0
 40 39  2  0  0  0  0
 41 38  2  0  0  0  0
 41 37  1  0  0  0  0
 42 43  2  0  0  0  0
 43 37  1  0  0  0  0
M  END
>  <MODEL>
8

>  <REMARK>
 VINA RESULT:      -8.3      1.769      2.370
  Name = 
  11 active torsions:
  status: ('A' for Active; 'I' for Inactive)
    1  A    between atoms: C_1  and  C_35
    2  A    between atoms: C_1  and  C_38
    3  A    between atoms: C_2  and  C_13
    4  A    between atoms: C_6  and  C_13
    5  A    between atoms: C_6  and  C_17
    6  A    between atoms: C_8  and  O_34
    7  A    between atoms: C_13  and  C_27
    8  A    between atoms: N_14  and  C_22
    9  A    between atoms: C_19  and  C_37
   10  A    between atoms: C_27  and  C_30
   11  A    between atoms: O_34  and  C_38
                            x       y       z     vdW  Elec       q    Type
                         _______ _______ _______ _____ _____    ______ ____

>  <TORSDO>
F 11

$$$$
=
 OpenBabel10262422353D

 43 48  0  0  1  0  0  0  0  0999 V2000
  192.0340  176.0760  147.5210 C   0  0  0  0  0  0  0  0  0  0  0  0
  187.5270  177.5830  145.7750 C   0  0  0  0  0  0  0  0  0  0  0  0
  189.9020  177.2180  147.3200 C   0  0  0  0  0  0  0  0  0  0  0  0
  191.9700  175.7120  146.0600 C   0  0  0  0  0  3  0  0  0  0  0  0
  193.1730  175.6270  148.2810 C   0  0  0  0  0  1  0  0  0  0  0  0
  190.0180  177.2260  145.7210 C   0  0  1  0  0  3  0  0  0  0  0  0
  191.0780  176.7480  148.1000 C   0  0  0  0  0  3  0  0  0  0  0  0
  191.0240  176.1990  145.2650 C   0  0  0  0  0  3  0  0  0  0  0  0
  188.6870  177.0130  145.0280 C   0  0  2  0  0  3  0  0  0  0  0  0
  187.6610  177.8420  147.1560 C   0  0  0  0  0  3  0  0  0  0  0  0
  188.8400  177.5870  147.8810 N   0  0  0  0  0  0  0  0  0  0  0  0
  188.6430  177.6790  143.5480 C   0  0  0  0  0  2  0  0  0  0  0  0
  189.9610  178.3800  142.9890 C   0  0  2  0  0  3  0  0  0  0  0  0
  190.5590  179.5610  143.5760 C   0  0  0  0  0  2  0  0  0  0  0  0
  192.0550  179.3300  143.9910 C   0  0  0  0  0  1  0  0  0  0  0  0
  190.5740  177.8030  141.8160 C   0  0  0  0  0  2  0  0  0  0  0  0
  188.0800  177.5670  139.1310 C   0  0  0  0  0  2  0  0  0  0  0  0
  190.3400  176.3770  139.7020 C   0  0  2  0  0  3  0  0  0  0  0  0
  189.3880  177.6050  136.5270 O   0  0  0  0  0  0  0  0  0  0  0  0
  189.4950  177.6640  139.8260 C   0  0  2  0  0  3  0  0  0  0  0  0
  188.1400  178.7650  138.2240 C   0  0  0  0  0  2  0  0  0  0  0  0
  189.6290  176.8920  141.0110 C   0  0  2  0  0  3  0  0  0  0  0  0
  190.3750  176.6660  137.0160 C   0  0  1  0  0  3  0  0  0  0  0  0
  191.1630  176.7690  138.3660 C   0  0  0  0  0  2  0  0  0  0  0  0
  189.3590  178.7700  137.2290 C   0  0  0  0  0  2  0  0  0  0  0  0
  189.0600  174.4400  136.7870 C   0  0  0  0  0  0  0  0  0  0  0  0
  190.1940  175.3430  136.4450 N   0  0  0  0  0  2  0  0  0  0  0  0
  186.6470  172.5870  134.8870 C   0  0  0  0  0  1  0  0  0  0  0  0
  188.3080  172.2830  136.7900 C   0  0  0  0  0  2  0  0  0  0  0  0
  187.1990  173.1030  136.2380 C   0  0  1  0  0  3  0  0  0  0  0  0
  189.3890  173.2380  137.0430 N   0  0  0  0  0  0  0  0  0  0  0  0
  187.7240  174.5120  136.0490 C   0  0  0  0  0  2  0  0  0  0  0  0
  186.2300  177.6140  145.2150 O   0  0  0  0  0  0  0  0  0  0  0  0
  185.1500  178.3550  145.7920 C   0  0  0  0  0  2  0  0  0  0  0  0
  184.4940  179.3480  144.7800 C   0  0  0  0  0  2  0  0  0  0  0  0
  185.6000  179.0130  141.2770 C   0  0  0  0  0  3  0  0  0  0  0  0
  184.3550  178.8230  140.6230 C   0  0  0  0  0  0  0  0  0  0  0  0
  183.2810  178.6300  142.7890 C   0  0  0  0  0  3  0  0  0  0  0  0
  185.6770  179.0950  142.6040 C   0  0  0  0  0  3  0  0  0  0  0  0
  184.5210  178.9500  143.4010 C   0  0  0  0  0  0  0  0  0  0  0  0
  183.2400  178.5650  141.4160 C   0  0  0  0  0  3  0  0  0  0  0  0
  184.5170  178.0200  138.3870 N   0  0  0  0  0  2  0  0  0  0  0  0
  184.1400  178.9810  139.2040 C   0  0  0  0  0  3  0  0  0  0  0  0
  1  7  2  0  0  0  0
  1  5  1  0  0  0  0
  2 10  2  0  0  0  0
  3 11  2  0  0  0  0
  3  7  1  0  0  0  0
  4  1  1  0  0  0  0
  6  8  1  1  0  0  0
  6  3  1  0  0  0  0
  8  4  2  0  0  0  0
  9 12  1  6  0  0  0
  9  6  1  0  0  0  0
  9  2  1  0  0  0  0
 10 11  1  0  0  0  0
 13 16  1  6  0  0  0
 13 12  1  0  0  0  0
 13 14  1  0  0  0  0
 14 15  1  0  0  0  0
 18 24  1  1  0  0  0
 18 20  1  0  0  0  0
 18 22  1  0  0  0  0
 19 23  1  0  0  0  0
 19 25  1  0  0  0  0
 20 17  1  6  0  0  0
 20 22  1  0  0  0  0
 21 17  1  0  0  0  0
 22 16  1  1  0  0  0
 23 27  1  1  0  0  0
 23 24  1  0  0  0  0
 25 21  1  0  0  0  0
 26 31  2  0  0  0  0
 27 26  1  0  0  0  0
 29 31  1  0  0  0  0
 30 28  1  6  0  0  0
 30 29  1  0  0  0  0
 32 30  1  0  0  0  0
 32 26  1  0  0  0  0
 33  2  1  0  0  0  0
 33 34  1  0  0  0  0
 35 34  1  0  0  0  0
 36 39  1  0  0  0  0
 37 36  2  0  0  0  0
 37 41  1  0  0  0  0
 38 40  1  0  0  0  0
 39 40  2  0  0  0  0
 40 35  1  0  0  0  0
 41 38  2  0  0  0  0
 42 43  2  0  0  0  0
 43 37  1  0  0  0  0
M  END
>  <MODEL>
9

>  <REMARK>
 VINA RESULT:      -8.2      2.403      6.062
  Name = 
  11 active torsions:
  status: ('A' for Active; 'I' for Inactive)
    1  A    between atoms: C_1  and  C_35
    2  A    between atoms: C_1  and  C_38
    3  A    between atoms: C_2  and  C_13
    4  A    between atoms: C_6  and  C_13
    5  A    between atoms: C_6  and  C_17
    6  A    between atoms: C_8  and  O_34
    7  A    between atoms: C_13  and  C_27
    8  A    between atoms: N_14  and  C_22
    9  A    between atoms: C_19  and  C_37
   10  A    between atoms: C_27  and  C_30
   11  A    between atoms: O_34  and  C_38
                            x       y       z     vdW  Elec       q    Type
                         _______ _______ _______ _____ _____    ______ ____

>  <TORSDO>
F 11

$$$$
